CIF file written using JARVIS-Tools package.
data_Na3CoO3
_symmetry_space_group_name_H-M  'P2_1/c'
_cell_length_a       3.97256
_cell_length_b       10.945
_cell_length_c       10.1349
_cell_angle_alpha    90
_cell_angle_beta     101.806
_cell_angle_gamma    90

_symmetry_Int_Tables_number  14
_chemical_formula_structural  Na3CoO3
_chemical_formula_sum  Na2Co4O2
_cell_volume  431.3390332963868
_cell_formula_units_Z  4
loop_
  _symmetry_equiv_pos_site_id
 _symmetry_equiv_pos_as_xyz
 1  'x, y, z'
loop_
 _atom_site_type_symbol
 _atom_site_label
 _atom_site_symmetry_multiplicity
 _atom_site_fract_x
 _atom_site_fract_y
 _atom_site_fract_z
 _atom_site_fract_occupancy
 Co  Co1  1  0.81028  0.19163  0.74404  1
 Co  Co2  1  0.18972  0.69163  0.75596  1
 Co  Co3  1  0.18972  0.80837  0.25596  1
 Co  Co4  1  0.81028  0.30837  0.24404  1
 Na  Na1  1  0.90175  0.56967  0.36514  1
 Na  Na2  1  0.72154  0.01237  0.38253  1
 Na  Na3  1  0.50604  0.76889  0.02274  1
 Na  Na4  1  0.90175  0.93033  0.86514  1
 Na  Na5  1  0.09825  0.43033  0.63486  1
 Na  Na6  1  0.49396  0.26889  0.47726  1
 Na  Na7  1  0.50604  0.73111  0.52274  1
 Na  Na8  1  0.27846  0.51237  0.11747  1
 Na  Na9  1  0.09825  0.06967  0.13486  1
 Na  Na10  1  0.49396  0.23111  0.97726  1
 Na  Na11  1  0.27846  0.98763  0.61747  1
 Na  Na12  1  0.72154  0.48763  0.88253  1
 O  O1  1  0.96614  0.13787  0.91069  1
 O  O2  1  0.63845  0.15764  0.21400  1
 O  O3  1  0.77003  0.09401  0.60021  1
 O  O4  1  0.63845  0.34236  0.71400  1
 O  O5  1  0.36155  0.65764  0.28600  1
 O  O6  1  0.03386  0.86213  0.08931  1
 O  O7  1  0.36155  0.84236  0.78600  1
 O  O8  1  0.22997  0.59401  0.89979  1
 O  O9  1  0.03386  0.63787  0.58931  1
 O  O10  1  0.77003  0.40599  0.10021  1
 O  O11  1  0.22997  0.90599  0.39979  1
 O  O12  1  0.96614  0.36213  0.41069  1
