CIF file written using JARVIS-Tools package.
data_Ca3SiO
_symmetry_space_group_name_H-M  'Imma'
_cell_length_a       6.63479
_cell_length_b       6.63478
_cell_length_c       6.63479
_cell_angle_alpha    120.081
_cell_angle_beta     119.775
_cell_angle_gamma    90.1246

_symmetry_Int_Tables_number  74
_chemical_formula_structural  Ca3SiO
_chemical_formula_sum  Ca6Si2O2
_cell_volume  206.7438620656353
_cell_formula_units_Z  2
loop_
  _symmetry_equiv_pos_site_id
 _symmetry_equiv_pos_as_xyz
 1  'x, y, z'
loop_
 _atom_site_type_symbol
 _atom_site_label
 _atom_site_symmetry_multiplicity
 _atom_site_fract_x
 _atom_site_fract_y
 _atom_site_fract_z
 _atom_site_fract_occupancy
 Ca  Ca1  1  0.79242  0.25000  0.54242  1
 Ca  Ca2  1  0.20758  0.75000  0.45758  1
 Ca  Ca3  1  0.27165  0.27165  0.50000  1
 Ca  Ca4  1  0.72835  0.22835  0.00000  1
 Ca  Ca5  1  0.72835  0.72835  0.50000  1
 Ca  Ca6  1  0.27165  0.77165  -0.00000  1
 O  O1  1  0.00000  0.50000  0.50000  1
 O  O2  1  0.50000  0.00000  0.50000  1
 Si  Si1  1  0.74884  0.75000  -0.00116  1
 Si  Si2  1  0.25116  0.25000  0.00116  1
