CIF file written using JARVIS-Tools package.
data_VOF2
_symmetry_space_group_name_H-M  'P3_1'
_cell_length_a       5.07195
_cell_length_b       5.07195
_cell_length_c       13.1577
_cell_angle_alpha    90
_cell_angle_beta     90
_cell_angle_gamma    120

_symmetry_Int_Tables_number  144
_chemical_formula_structural  VOF2
_chemical_formula_sum  V6O6F2
_cell_volume  293.1306727002998
_cell_formula_units_Z  6
loop_
  _symmetry_equiv_pos_site_id
 _symmetry_equiv_pos_as_xyz
 1  'x, y, z'
loop_
 _atom_site_type_symbol
 _atom_site_label
 _atom_site_symmetry_multiplicity
 _atom_site_fract_x
 _atom_site_fract_y
 _atom_site_fract_z
 _atom_site_fract_occupancy
 F  F1  1  0.00080  0.26925  0.58228  1
 F  F2  1  0.71367  0.31207  0.41804  1
 F  F3  1  0.26845  -0.00080  0.24894  1
 F  F4  1  0.93849  0.34312  0.91542  1
 F  F5  1  0.65688  0.59537  0.24875  1
 F  F6  1  0.40463  0.06151  0.58208  1
 F  F7  1  0.59840  0.28633  0.08471  1
 F  F8  1  0.32358  0.71566  0.41987  1
 F  F9  1  0.28434  0.60792  0.75320  1
 F  F10  1  0.68793  0.40160  0.75138  1
 F  F11  1  0.73075  0.73155  0.91561  1
 F  F12  1  0.39208  0.67642  0.08654  1
 O  O1  1  0.59535  0.66138  0.58384  1
 O  O2  1  0.06603  0.40465  0.25050  1
 O  O3  1  0.99341  0.08340  0.08307  1
 O  O4  1  0.08999  0.00659  0.74974  1
 O  O5  1  0.91660  0.91001  0.41641  1
 O  O6  1  0.33862  0.93397  0.91717  1
 V  V1  1  0.27225  0.31182  0.16568  1
 V  V2  1  0.98478  0.64326  0.33180  1
 V  V3  1  0.35674  0.34153  0.66513  1
 V  V4  1  0.03957  0.72775  0.83235  1
 V  V5  1  0.65847  0.01522  -0.00153  1
 V  V6  1  0.68818  0.96043  0.49902  1
