CIF file written using JARVIS-Tools package.
data_H6C10S2O
_symmetry_space_group_name_H-M  'P1'
_cell_length_a       3.89003
_cell_length_b       5.55964
_cell_length_c       9.6627
_cell_angle_alpha    81.5598
_cell_angle_beta     92.0768
_cell_angle_gamma    76.8029

_symmetry_Int_Tables_number  1
_chemical_formula_structural  H6C10S2O
_chemical_formula_sum  H6C0S2O
_cell_volume  200.7258945812948
_cell_formula_units_Z  1
loop_
  _symmetry_equiv_pos_site_id
 _symmetry_equiv_pos_as_xyz
 1  'x, y, z'
loop_
 _atom_site_type_symbol
 _atom_site_label
 _atom_site_symmetry_multiplicity
 _atom_site_fract_x
 _atom_site_fract_y
 _atom_site_fract_z
 _atom_site_fract_occupancy
 C  C1  1  0.53437  0.50863  0.56767  1
 C  C2  1  0.44530  0.45671  0.43134  1
 C  C3  1  0.56809  0.24040  0.37526  1
 C  C4  1  0.43408  0.25339  0.23579  1
 C  C5  1  0.56642  0.71254  0.76142  1
 C  C6  1  0.42724  0.72957  0.62304  1
 C  C7  1  0.99211  0.38361  0.94558  1
 C  C8  1  0.99697  0.57355  0.04449  1
 C  C9  1  0.78382  0.47883  0.81320  1
 C  C10  1  0.20215  0.47902  0.18375  1
 H  H1  1  0.09407  0.72896  0.98684  1
 H  H2  1  0.71996  0.66078  0.06082  1
 H  H3  1  0.25490  0.89814  0.56402  1
 H  H4  1  0.75267  0.07649  0.43321  1
 H  H5  1  0.50939  0.86637  0.82146  1
 H  H6  1  0.50062  0.10289  0.17469  1
 O  O1  1  0.16130  0.16124  0.97199  1
 S  S1  1  0.81033  0.27925  0.68934  1
 S  S2  1  0.15887  0.67838  0.30784  1
