CIF file written using JARVIS-Tools package.
data_Ba2ZnN2
_symmetry_space_group_name_H-M  'I4/mmm'
_cell_length_a       4.18596
_cell_length_b       4.18597
_cell_length_c       7.15866
_cell_angle_alpha    107
_cell_angle_beta     107
_cell_angle_gamma    90

_symmetry_Int_Tables_number  139
_chemical_formula_structural  Ba2ZnN2
_chemical_formula_sum  Ba2ZnN2
_cell_volume  114.21153343569468
_cell_formula_units_Z  1
loop_
  _symmetry_equiv_pos_site_id
 _symmetry_equiv_pos_as_xyz
 1  'x, y, z'
loop_
 _atom_site_type_symbol
 _atom_site_label
 _atom_site_symmetry_multiplicity
 _atom_site_fract_x
 _atom_site_fract_y
 _atom_site_fract_z
 _atom_site_fract_occupancy
 Ba  Ba1  1  0.65468  0.65468  0.30937  1
 Ba  Ba2  1  0.34532  0.34532  0.69063  1
 N  N1  1  0.85848  0.85848  0.71696  1
 N  N2  1  0.14152  0.14152  0.28304  1
 Zn  Zn1  1  0.00000  0.00000  0.00000  1
