CIF file written using JARVIS-Tools package.
data_Li2Mn2CoO6
_symmetry_space_group_name_H-M  'Cmce'
_cell_length_a       4.90781
_cell_length_b       4.90781
_cell_length_c       9.95315
_cell_angle_alpha    90
_cell_angle_beta     90
_cell_angle_gamma    119.598

_symmetry_Int_Tables_number  64
_chemical_formula_structural  Li2Mn2CoO6
_chemical_formula_sum  Li4Mn4Co2O2
_cell_volume  208.45509942570277
_cell_formula_units_Z  2
loop_
  _symmetry_equiv_pos_site_id
 _symmetry_equiv_pos_as_xyz
 1  'x, y, z'
loop_
 _atom_site_type_symbol
 _atom_site_label
 _atom_site_symmetry_multiplicity
 _atom_site_fract_x
 _atom_site_fract_y
 _atom_site_fract_z
 _atom_site_fract_occupancy
 Co  Co1  1  0.00000  0.00000  0.00000  1
 Co  Co2  1  0.50000  0.50000  0.50000  1
 Li  Li1  1  0.15907  0.65907  0.75000  1
 Li  Li2  1  0.34093  0.84093  0.25000  1
 Li  Li3  1  0.65907  0.15907  0.75000  1
 Li  Li4  1  0.84093  0.34093  0.25000  1
 Mn  Mn1  1  0.16344  0.83656  0.50000  1
 Mn  Mn2  1  0.33656  0.66344  0.00000  1
 Mn  Mn3  1  0.66344  0.33656  0.00000  1
 Mn  Mn4  1  0.83656  0.16344  0.50000  1
 O  O1  1  0.83768  0.49697  0.60571  1
 O  O2  1  0.99697  0.33768  0.89429  1
 O  O3  1  0.16232  0.50303  0.39429  1
 O  O4  1  0.49697  0.83768  0.60571  1
 O  O5  1  0.00303  0.66232  0.10571  1
 O  O6  1  0.50303  0.16232  0.39429  1
 O  O7  1  0.66758  0.66758  0.89956  1
 O  O8  1  0.33768  0.99697  0.89429  1
 O  O9  1  0.83242  0.83242  0.39956  1
 O  O10  1  0.16758  0.16758  0.60044  1
 O  O11  1  0.33242  0.33242  0.10044  1
 O  O12  1  0.66232  0.00303  0.10571  1
