CIF file written using JARVIS-Tools package.
data_LiMg
_symmetry_space_group_name_H-M  'P4/mmm'
_cell_length_a       3.42866
_cell_length_b       4.82244
_cell_length_c       4.82162
_cell_angle_alpha    90
_cell_angle_beta     90
_cell_angle_gamma    90

_symmetry_Int_Tables_number  123
_chemical_formula_structural  LiMg
_chemical_formula_sum  Li2Mg2
_cell_volume  79.72317053051572
_cell_formula_units_Z  2
loop_
  _symmetry_equiv_pos_site_id
 _symmetry_equiv_pos_as_xyz
 1  'x, y, z'
loop_
 _atom_site_type_symbol
 _atom_site_label
 _atom_site_symmetry_multiplicity
 _atom_site_fract_x
 _atom_site_fract_y
 _atom_site_fract_z
 _atom_site_fract_occupancy
 Li  Li1  1  0.00000  0.75000  0.75022  1
 Li  Li2  1  0.00000  0.25000  0.24978  1
 Mg  Mg1  1  0.50000  0.25000  0.74984  1
 Mg  Mg2  1  0.50000  0.75000  0.25016  1
