CIF file written using JARVIS-Tools package.
data_KMnAg3C6N6
_symmetry_space_group_name_H-M  'P312'
_cell_length_a       6.71029
_cell_length_b       6.71029
_cell_length_c       7.65602
_cell_angle_alpha    90
_cell_angle_beta     90
_cell_angle_gamma    120

_symmetry_Int_Tables_number  149
_chemical_formula_structural  KMnAg3C6N6
_chemical_formula_sum  KMnAg3C6N6
_cell_volume  298.5493506757696
_cell_formula_units_Z  1
loop_
  _symmetry_equiv_pos_site_id
 _symmetry_equiv_pos_as_xyz
 1  'x, y, z'
loop_
 _atom_site_type_symbol
 _atom_site_label
 _atom_site_symmetry_multiplicity
 _atom_site_fract_x
 _atom_site_fract_y
 _atom_site_fract_z
 _atom_site_fract_occupancy
 Ag  Ag1  1  0.01176  0.50588  0.50000  1
 Ag  Ag2  1  0.49412  0.98824  0.50000  1
 Ag  Ag3  1  0.49412  0.50588  0.50000  1
 C  C1  1  0.65942  0.66876  0.27585  1
 C  C2  1  0.33124  0.99066  0.27585  1
 C  C3  1  0.65942  0.99066  0.72415  1
 C  C4  1  0.33124  0.34058  0.72415  1
 C  C5  1  0.00934  0.34058  0.27585  1
 C  C6  1  0.00934  0.66876  0.72415  1
 K  K1  1  0.66667  0.33333  0.00000  1
 Mn  Mn1  1  0.00000  0.00000  0.00000  1
 N  N1  1  0.22514  0.99542  0.15590  1
 N  N2  1  0.00458  0.22972  0.15590  1
 N  N3  1  0.77028  0.99542  0.84410  1
 N  N4  1  0.00458  0.77486  0.84410  1
 N  N5  1  0.77028  0.77486  0.15590  1
 N  N6  1  0.22514  0.22972  0.84410  1
