CIF file written using JARVIS-Tools package.
data_Mn3O5F
_symmetry_space_group_name_H-M  'Amm2'
_cell_length_a       4.46979
_cell_length_b       4.46979
_cell_length_c       8.68138
_cell_angle_alpha    90
_cell_angle_beta     90
_cell_angle_gamma    91.9641

_symmetry_Int_Tables_number  38
_chemical_formula_structural  Mn3O5F
_chemical_formula_sum  Mn6O0F2
_cell_volume  173.34334048484996
_cell_formula_units_Z  2
loop_
  _symmetry_equiv_pos_site_id
 _symmetry_equiv_pos_as_xyz
 1  'x, y, z'
loop_
 _atom_site_type_symbol
 _atom_site_label
 _atom_site_symmetry_multiplicity
 _atom_site_fract_x
 _atom_site_fract_y
 _atom_site_fract_z
 _atom_site_fract_occupancy
 F  F1  1  0.79660  0.20340  0.83756  1
 F  F2  1  0.79660  0.20340  0.49578  1
 Mn  Mn1  1  0.48071  0.51929  0.49968  1
 Mn  Mn2  1  0.50904  0.49096  0.16667  1
 Mn  Mn3  1  0.00819  0.99181  0.01012  1
 Mn  Mn4  1  0.02205  0.97795  0.66667  1
 Mn  Mn5  1  0.00819  0.99181  0.32321  1
 Mn  Mn6  1  0.48071  0.51929  0.83365  1
 O  O1  1  0.80896  0.19104  0.16667  1
 O  O2  1  0.69134  0.70157  0.66667  1
 O  O3  1  0.69725  0.69420  0.00116  1
 O  O4  1  0.29843  0.30866  0.66667  1
 O  O5  1  0.19654  0.80346  0.83901  1
 O  O6  1  0.30580  0.30275  0.00116  1
 O  O7  1  0.19654  0.80346  0.49433  1
 O  O8  1  0.19998  0.80002  0.16667  1
 O  O9  1  0.30580  0.30275  0.33217  1
 O  O10  1  0.69725  0.69420  0.33217  1
