CIF file written using JARVIS-Tools package.
data_CdGa2Te4
_symmetry_space_group_name_H-M  'I-4'
_cell_length_a       6.19901
_cell_length_b       6.19901
_cell_length_c       7.41701
_cell_angle_alpha    114.701
_cell_angle_beta     114.701
_cell_angle_gamma    90

_symmetry_Int_Tables_number  82
_chemical_formula_structural  CdGa2Te4
_chemical_formula_sum  CdGa2Te4
_cell_volume  229.91946422770036
_cell_formula_units_Z  1
loop_
  _symmetry_equiv_pos_site_id
 _symmetry_equiv_pos_as_xyz
 1  'x, y, z'
loop_
 _atom_site_type_symbol
 _atom_site_label
 _atom_site_symmetry_multiplicity
 _atom_site_fract_x
 _atom_site_fract_y
 _atom_site_fract_z
 _atom_site_fract_occupancy
 Cd  Cd1  1  0.00000  0.00000  0.00000  1
 Ga  Ga1  1  0.25000  0.75000  0.50000  1
 Ga  Ga2  1  0.50000  0.50000  -0.00000  1
 Te  Te1  1  0.41794  0.38748  0.27852  1
 Te  Te2  1  0.10895  0.58206  0.72148  1
 Te  Te3  1  0.61252  0.13942  0.72148  1
 Te  Te4  1  0.86058  0.89105  0.27852  1
