CIF file written using JARVIS-Tools package.
data_Hf2Te3
_symmetry_space_group_name_H-M  'R-3'
_cell_length_a       7.74538
_cell_length_b       7.74538
_cell_length_c       7.74538
_cell_angle_alpha    53.7776
_cell_angle_beta     53.7776
_cell_angle_gamma    53.7776

_symmetry_Int_Tables_number  148
_chemical_formula_structural  Hf2Te3
_chemical_formula_sum  Hf4Te6
_cell_volume  280.7670227442322
_cell_formula_units_Z  2
loop_
  _symmetry_equiv_pos_site_id
 _symmetry_equiv_pos_as_xyz
 1  'x, y, z'
loop_
 _atom_site_type_symbol
 _atom_site_label
 _atom_site_symmetry_multiplicity
 _atom_site_fract_x
 _atom_site_fract_y
 _atom_site_fract_z
 _atom_site_fract_occupancy
 Hf  Hf1  1  0.00000  0.00000  0.00000  1
 Hf  Hf2  1  0.33985  0.33985  0.33985  1
 Hf  Hf3  1  0.66015  0.66015  0.66015  1
 Hf  Hf4  1  0.50000  0.50000  0.50000  1
 Te  Te1  1  0.92781  0.57593  0.23190  1
 Te  Te2  1  0.57593  0.23190  0.92781  1
 Te  Te3  1  0.23190  0.92781  0.57593  1
 Te  Te4  1  0.76810  0.07219  0.42407  1
 Te  Te5  1  0.42407  0.76810  0.07219  1
 Te  Te6  1  0.07219  0.42407  0.76810  1
