CIF file written using JARVIS-Tools package.
data_LiCo3OF5
_symmetry_space_group_name_H-M  'P1'
_cell_length_a       5.03193
_cell_length_b       5.52542
_cell_length_c       5.13573
_cell_angle_alpha    116.672
_cell_angle_beta     61.3051
_cell_angle_gamma    115.52

_symmetry_Int_Tables_number  1
_chemical_formula_structural  LiCo3OF5
_chemical_formula_sum  LiCo3OF5
_cell_volume  107.62192802399915
_cell_formula_units_Z  1
loop_
  _symmetry_equiv_pos_site_id
 _symmetry_equiv_pos_as_xyz
 1  'x, y, z'
loop_
 _atom_site_type_symbol
 _atom_site_label
 _atom_site_symmetry_multiplicity
 _atom_site_fract_x
 _atom_site_fract_y
 _atom_site_fract_z
 _atom_site_fract_occupancy
 Co  Co1  1  0.36488  0.02358  0.34622  1
 Co  Co2  1  0.64238  0.95729  0.62566  1
 Co  Co3  1  0.82985  0.55630  0.87436  1
 F  F1  1  0.07366  0.25526  0.44531  1
 F  F2  1  0.25490  0.76508  0.93493  1
 F  F3  1  0.76188  0.24336  0.04700  1
 F  F4  1  0.42133  0.26656  0.76962  1
 F  F5  1  0.93402  0.73807  0.55107  1
 Li  Li1  1  0.13867  0.43428  0.16494  1
 O  O1  1  0.57843  0.76023  0.24089  1
