CIF file written using JARVIS-Tools package.
data_LaCeGe4Pt4
_symmetry_space_group_name_H-M  'Pm'
_cell_length_a       4.44399
_cell_length_b       4.45812
_cell_length_c       9.9233
_cell_angle_alpha    90.4936
_cell_angle_beta     90
_cell_angle_gamma    90

_symmetry_Int_Tables_number  6
_chemical_formula_structural  LaCeGe4Pt4
_chemical_formula_sum  LaCeGe4Pt4
_cell_volume  196.5916133219947
_cell_formula_units_Z  1
loop_
  _symmetry_equiv_pos_site_id
 _symmetry_equiv_pos_as_xyz
 1  'x, y, z'
loop_
 _atom_site_type_symbol
 _atom_site_label
 _atom_site_symmetry_multiplicity
 _atom_site_fract_x
 _atom_site_fract_y
 _atom_site_fract_z
 _atom_site_fract_occupancy
 Ce  Ce1  1  0.00000  0.24409  0.25155  1
 Ge  Ge1  1  0.50000  0.24675  0.49737  1
 Ge  Ge2  1  0.00000  0.74883  0.49774  1
 Ge  Ge3  1  0.00000  0.27019  0.87296  1
 Ge  Ge4  1  0.50000  0.71920  0.12762  1
 La  La1  1  0.50000  0.75009  0.74849  1
 Pt  Pt1  1  0.00000  0.25080  0.62153  1
 Pt  Pt2  1  0.50000  0.74510  0.37522  1
 Pt  Pt3  1  0.50000  0.21612  0.00174  1
 Pt  Pt4  1  0.00000  0.77682  0.00578  1
