CIF file written using JARVIS-Tools package.
data_Li2Mn3SnO8
_symmetry_space_group_name_H-M  'P6_3mc'
_cell_length_a       5.76044
_cell_length_b       5.76032
_cell_length_c       9.71522
_cell_angle_alpha    89.9997
_cell_angle_beta     90.0002
_cell_angle_gamma    119.999

_symmetry_Int_Tables_number  186
_chemical_formula_structural  Li2Mn3SnO8
_chemical_formula_sum  Li4Mn6Sn2O6
_cell_volume  279.1826888787101
_cell_formula_units_Z  2
loop_
  _symmetry_equiv_pos_site_id
 _symmetry_equiv_pos_as_xyz
 1  'x, y, z'
loop_
 _atom_site_type_symbol
 _atom_site_label
 _atom_site_symmetry_multiplicity
 _atom_site_fract_x
 _atom_site_fract_y
 _atom_site_fract_z
 _atom_site_fract_occupancy
 Li  Li1  1  0.33331  0.66665  0.89791  1
 Li  Li2  1  0.99994  -0.00001  0.99433  1
 Li  Li3  1  0.00006  0.00005  0.49433  1
 Li  Li4  1  0.66669  0.33335  0.39791  1
 Mn  Mn1  1  0.66021  0.83011  0.21497  1
 Mn  Mn2  1  0.16990  0.33980  0.21497  1
 Mn  Mn3  1  0.16990  0.83012  0.21496  1
 Mn  Mn4  1  0.33979  0.16990  0.71497  1
 Mn  Mn5  1  0.83010  0.66022  0.71496  1
 Mn  Mn6  1  0.83010  0.16990  0.71497  1
 O  O1  1  0.02921  0.51462  0.33267  1
 O  O2  1  0.15667  0.84335  0.60258  1
 O  O3  1  0.97079  0.48541  0.83267  1
 O  O4  1  0.33334  0.66668  0.10804  1
 O  O5  1  0.00001  0.00001  0.31121  1
 O  O6  1  -0.00001  -0.00000  0.81121  1
 O  O7  1  0.15668  0.31335  0.60258  1
 O  O8  1  0.48539  0.51460  0.33268  1
 O  O9  1  0.84333  0.68668  0.10258  1
 O  O10  1  0.51460  0.48541  0.83267  1
 O  O11  1  0.51461  0.02921  0.83268  1
 O  O12  1  0.66666  0.33333  0.60804  1
 O  O13  1  0.48540  0.97081  0.33267  1
 O  O14  1  0.31330  0.15667  0.10256  1
 O  O15  1  0.68670  0.84336  0.60256  1
 O  O16  1  0.84332  0.15668  0.10258  1
 Sn  Sn1  1  0.66666  0.33335  0.99178  1
 Sn  Sn2  1  0.33334  0.66669  0.49178  1
