CIF file written using JARVIS-Tools package.
data_H8C12SO
_symmetry_space_group_name_H-M  'P1'
_cell_length_a       4.7891
_cell_length_b       5.4995
_cell_length_c       8.64744
_cell_angle_alpha    81.9977
_cell_angle_beta     78.0833
_cell_angle_gamma    75.9852

_symmetry_Int_Tables_number  1
_chemical_formula_structural  H8C12SO
_chemical_formula_sum  H8C2SO
_cell_volume  215.2551823911649
_cell_formula_units_Z  1
loop_
  _symmetry_equiv_pos_site_id
 _symmetry_equiv_pos_as_xyz
 1  'x, y, z'
loop_
 _atom_site_type_symbol
 _atom_site_label
 _atom_site_symmetry_multiplicity
 _atom_site_fract_x
 _atom_site_fract_y
 _atom_site_fract_z
 _atom_site_fract_occupancy
 C  C1  1  0.61857  0.01564  0.04039  1
 C  C2  1  0.81631  0.15738  0.40787  1
 C  C3  1  0.02779  0.13627  0.69958  1
 C  C4  1  0.17623  0.10611  0.82734  1
 C  C5  1  0.39367  0.88992  0.83125  1
 C  C6  1  0.59708  0.80310  0.94945  1
 C  C7  1  0.12480  0.94391  0.60075  1
 C  C8  1  0.69470  0.16901  0.27575  1
 C  C9  1  0.94574  0.74114  0.23388  1
 C  C10  1  0.07084  0.72907  0.36832  1
 C  C11  1  0.00965  0.93674  0.45851  1
 C  C12  1  0.75592  0.96327  0.18464  1
 H  H1  1  0.21473  0.55398  0.40567  1
 H  H2  1  0.00154  0.57675  0.16670  1
 H  H3  1  0.76311  0.32319  0.47243  1
 H  H4  1  0.54891  0.34116  0.23780  1
 H  H5  1  0.53046  0.64993  0.03451  1
 H  H6  1  0.84596  0.29384  0.68458  1
 H  H7  1  0.12567  0.24166  0.91390  1
 H  H8  1  0.82059  0.71946  0.88964  1
 O  O1  1  0.51901  0.23841  -0.00272  1
 S  S1  1  0.40365  0.71851  0.67417  1
