CIF file written using JARVIS-Tools package.
data_RbDyO2
_symmetry_space_group_name_H-M  'R-3m'
_cell_length_a       6.81541
_cell_length_b       6.81541
_cell_length_c       6.8154
_cell_angle_alpha    29.69
_cell_angle_beta     29.6901
_cell_angle_gamma    29.69

_symmetry_Int_Tables_number  166
_chemical_formula_structural  RbDyO2
_chemical_formula_sum  RbDyO2
_cell_volume  68.76305894414686
_cell_formula_units_Z  1
loop_
  _symmetry_equiv_pos_site_id
 _symmetry_equiv_pos_as_xyz
 1  'x, y, z'
loop_
 _atom_site_type_symbol
 _atom_site_label
 _atom_site_symmetry_multiplicity
 _atom_site_fract_x
 _atom_site_fract_y
 _atom_site_fract_z
 _atom_site_fract_occupancy
 Dy  Dy1  1  0.50000  0.50000  0.50000  1
 O  O1  1  0.77432  0.77432  0.77432  1
 O  O2  1  0.22568  0.22568  0.22568  1
 Rb  Rb1  1  0.00000  0.00000  0.00000  1
