CIF file written using JARVIS-Tools package.
data_MgH2C3O4
_symmetry_space_group_name_H-M  'P1'
_cell_length_a       4.31486
_cell_length_b       5.87285
_cell_length_c       7.63157
_cell_angle_alpha    85.894
_cell_angle_beta     72.3633
_cell_angle_gamma    85.724

_symmetry_Int_Tables_number  1
_chemical_formula_structural  MgH2C3O4
_chemical_formula_sum  Mg2H4C6O8
_cell_volume  183.54061200058342
_cell_formula_units_Z  2
loop_
  _symmetry_equiv_pos_site_id
 _symmetry_equiv_pos_as_xyz
 1  'x, y, z'
loop_
 _atom_site_type_symbol
 _atom_site_label
 _atom_site_symmetry_multiplicity
 _atom_site_fract_x
 _atom_site_fract_y
 _atom_site_fract_z
 _atom_site_fract_occupancy
 C  C1  1  0.50905  0.54699  0.72482  1
 C  C2  1  0.61609  0.08662  0.29728  1
 C  C3  1  0.38991  0.30934  0.79516  1
 C  C4  1  0.44408  0.31779  0.33862  1
 C  C5  1  0.65429  0.11987  0.77680  1
 C  C6  1  0.44324  0.49607  0.18531  1
 H  H1  1  0.19555  0.29805  0.42752  1
 H  H2  1  0.23711  0.26991  0.71007  1
 H  H3  1  0.58571  0.39361  0.41665  1
 H  H4  1  0.23008  0.31498  0.93691  1
 Mg  Mg1  1  -0.00832  0.82752  0.44124  1
 Mg  Mg2  1  -0.01558  0.79772  0.01300  1
 O  O1  1  0.17451  0.62071  0.20867  1
 O  O2  1  0.69501  0.52959  0.05357  1
 O  O3  1  0.78504  0.56426  0.60335  1
 O  O4  1  0.46619  0.90720  0.37093  1
 O  O5  1  0.68488  0.02123  0.92483  1
 O  O6  1  0.92180  0.06313  0.21140  1
 O  O7  1  0.82920  0.07181  0.61606  1
 O  O8  1  0.31445  0.71743  0.78198  1
