CIF file written using JARVIS-Tools package.
data_CdH10C7O4
_symmetry_space_group_name_H-M  'P1'
_cell_length_a       3.77358
_cell_length_b       4.30139
_cell_length_c       12.0198
_cell_angle_alpha    88.52
_cell_angle_beta     74.8338
_cell_angle_gamma    101.93

_symmetry_Int_Tables_number  1
_chemical_formula_structural  CdH10C7O4
_chemical_formula_sum  CdH0C7O4
_cell_volume  183.57832735658812
_cell_formula_units_Z  1
loop_
  _symmetry_equiv_pos_site_id
 _symmetry_equiv_pos_as_xyz
 1  'x, y, z'
loop_
 _atom_site_type_symbol
 _atom_site_label
 _atom_site_symmetry_multiplicity
 _atom_site_fract_x
 _atom_site_fract_y
 _atom_site_fract_z
 _atom_site_fract_occupancy
 C  C1  1  0.24169  0.59317  0.98057  1
 C  C2  1  0.19781  0.40604  0.09301  1
 C  C3  1  0.19489  0.60599  0.19644  1
 C  C4  1  0.15148  0.39577  0.30558  1
 C  C5  1  0.15979  0.57363  0.41374  1
 C  C6  1  0.09164  0.33785  0.51791  1
 C  C7  1  0.13812  0.46489  0.63043  1
 Cd  Cd1  1  0.35947  0.01536  0.79653  1
 H  H1  1  0.28974  0.17696  0.49814  1
 H  H2  1  0.43360  0.74291  0.39959  1
 H  H3  1  0.42136  0.27206  0.07957  1
 H  H4  1  0.93306  0.22366  0.11038  1
 H  H5  1  0.88448  0.21396  0.32325  1
 H  H6  1  0.37510  0.25907  0.28911  1
 H  H7  1  0.45924  0.78981  0.17751  1
 H  H8  1  -0.03490  0.73446  0.20972  1
 H  H9  1  0.94380  0.71701  0.43078  1
 H  H10  1  0.81323  0.17447  0.53582  1
 O  O1  1  0.34078  0.73642  0.63157  1
 O  O2  1  0.07885  0.82532  0.98272  1
 O  O3  1  -0.01937  0.26925  0.72267  1
 O  O4  1  0.44468  0.52517  0.88484  1
