CIF file written using JARVIS-Tools package.
data_H8C12SO
_symmetry_space_group_name_H-M  'P1'
_cell_length_a       3.76147
_cell_length_b       11.0271
_cell_length_c       11.0651
_cell_angle_alpha    109.315
_cell_angle_beta     78.4217
_cell_angle_gamma    87.0602

_symmetry_Int_Tables_number  1
_chemical_formula_structural  H8C12SO
_chemical_formula_sum  H6C24S2O2
_cell_volume  420.86237343641807
_cell_formula_units_Z  2
loop_
  _symmetry_equiv_pos_site_id
 _symmetry_equiv_pos_as_xyz
 1  'x, y, z'
loop_
 _atom_site_type_symbol
 _atom_site_label
 _atom_site_symmetry_multiplicity
 _atom_site_fract_x
 _atom_site_fract_y
 _atom_site_fract_z
 _atom_site_fract_occupancy
 C  C1  1  0.33614  0.78354  0.54374  1
 C  C2  1  0.32963  0.65220  0.48151  1
 C  C3  1  0.29821  0.05633  0.86240  1
 C  C4  1  0.38727  0.56281  0.54379  1
 C  C5  1  0.88727  0.56280  0.04379  1
 C  C6  1  0.40192  0.83118  0.67040  1
 C  C7  1  0.90179  0.83118  0.17039  1
 C  C8  1  0.42421  0.61251  0.67472  1
 C  C9  1  0.79804  0.05633  0.36238  1
 C  C10  1  0.92426  0.61251  0.17471  1
 C  C11  1  0.43689  0.42423  0.46869  1
 C  C12  1  0.93380  0.74420  0.23682  1
 C  C13  1  0.47486  0.97017  0.72114  1
 C  C14  1  0.97464  0.97018  0.22111  1
 C  C15  1  0.63190  0.18469  0.37941  1
 C  C16  1  0.13203  0.18468  0.87943  1
 C  C17  1  0.93693  0.42421  0.96869  1
 C  C18  1  0.41514  0.36546  0.33841  1
 C  C19  1  0.91524  0.36543  0.83840  1
 C  C20  1  0.52747  0.23156  0.28779  1
 C  C21  1  0.02762  0.23154  0.78780  1
 C  C22  1  0.43381  0.74420  0.73684  1
 C  C23  1  0.83597  0.78353  0.04373  1
 C  C24  1  0.82952  0.65217  0.98150  1
 H  H1  1  0.80145  0.85074  0.99218  1
 H  H2  1  0.32888  0.41835  0.27991  1
 H  H3  1  0.29452  0.61831  0.38106  1
 H  H4  1  0.79437  0.61828  0.88106  1
 H  H5  1  0.97355  0.78039  0.33667  1
 H  H6  1  0.45413  0.54629  0.72776  1
 H  H7  1  0.95427  0.54629  0.22775  1
 H  H8  1  0.27042  0.96835  0.21777  1
 H  H9  1  0.77063  0.96831  0.71784  1
 H  H10  1  0.82899  0.41831  0.77989  1
 H  H11  1  0.53247  0.17114  0.18706  1
 H  H12  1  0.03268  0.17111  0.68705  1
 H  H13  1  0.43052  0.01701  0.65145  1
 H  H14  1  0.93016  0.01701  0.15142  1
 H  H15  1  0.30171  0.85076  0.49220  1
 H  H16  1  0.47350  0.78038  0.83670  1
 O  O1  1  0.32984  0.02406  0.95776  1
 O  O2  1  0.82968  0.02405  0.45773  1
 S  S1  1  0.08206  0.30934  0.02979  1
 S  S2  1  0.58200  0.30934  0.52978  1
