CIF file written using JARVIS-Tools package.
data_Li2MnFe3O8
_symmetry_space_group_name_H-M  'R-3m'
_cell_length_a       5.70254
_cell_length_b       5.70254
_cell_length_c       5.70254
_cell_angle_alpha    59.7712
_cell_angle_beta     59.7712
_cell_angle_gamma    59.7712

_symmetry_Int_Tables_number  166
_chemical_formula_structural  Li2MnFe3O8
_chemical_formula_sum  Li2MnFe3O8
_cell_volume  130.44508977011128
_cell_formula_units_Z  1
loop_
  _symmetry_equiv_pos_site_id
 _symmetry_equiv_pos_as_xyz
 1  'x, y, z'
loop_
 _atom_site_type_symbol
 _atom_site_label
 _atom_site_symmetry_multiplicity
 _atom_site_fract_x
 _atom_site_fract_y
 _atom_site_fract_z
 _atom_site_fract_occupancy
 Fe  Fe1  1  0.00000  0.50000  0.50000  1
 Fe  Fe2  1  0.50000  0.00000  0.50000  1
 Fe  Fe3  1  0.50000  0.50000  0.00000  1
 Li  Li1  1  0.12549  0.12549  0.12549  1
 Li  Li2  1  0.87451  0.87451  0.87451  1
 Mn  Mn1  1  0.50000  0.50000  0.50000  1
 O  O1  1  0.26307  0.26307  0.26307  1
 O  O2  1  0.26224  0.26224  0.71389  1
 O  O3  1  0.26224  0.71389  0.26224  1
 O  O4  1  0.71389  0.26224  0.26224  1
 O  O5  1  0.28611  0.73776  0.73776  1
 O  O6  1  0.73776  0.28611  0.73776  1
 O  O7  1  0.73776  0.73776  0.28611  1
 O  O8  1  0.73693  0.73693  0.73693  1
