CIF file written using JARVIS-Tools package.
data_Ce2YSi2
_symmetry_space_group_name_H-M  'P4/mbm'
_cell_length_a       7.55159
_cell_length_b       7.55159
_cell_length_c       4.33799
_cell_angle_alpha    90
_cell_angle_beta     90
_cell_angle_gamma    90

_symmetry_Int_Tables_number  127
_chemical_formula_structural  Ce2YSi2
_chemical_formula_sum  Ce4Y2Si4
_cell_volume  247.38040252201503
_cell_formula_units_Z  2
loop_
  _symmetry_equiv_pos_site_id
 _symmetry_equiv_pos_as_xyz
 1  'x, y, z'
loop_
 _atom_site_type_symbol
 _atom_site_label
 _atom_site_symmetry_multiplicity
 _atom_site_fract_x
 _atom_site_fract_y
 _atom_site_fract_z
 _atom_site_fract_occupancy
 Ce  Ce1  1  0.67798  0.17798  0.50000  1
 Ce  Ce2  1  0.32202  0.82202  0.50000  1
 Ce  Ce3  1  0.17798  0.32202  0.50000  1
 Ce  Ce4  1  0.82202  0.67798  0.50000  1
 Si  Si1  1  0.11632  0.61632  0.00000  1
 Si  Si2  1  0.88368  0.38368  0.00000  1
 Si  Si3  1  0.61632  0.88368  0.00000  1
 Si  Si4  1  0.38368  0.11632  0.00000  1
 Y  Y1  1  0.00000  0.00000  0.00000  1
 Y  Y2  1  0.50000  0.50000  0.00000  1
