CIF file written using JARVIS-Tools package.
data_Yb2PbAu2
_symmetry_space_group_name_H-M  'P4/mbm'
_cell_length_a       8.09208
_cell_length_b       8.09208
_cell_length_c       3.6581
_cell_angle_alpha    90
_cell_angle_beta     90
_cell_angle_gamma    90

_symmetry_Int_Tables_number  127
_chemical_formula_structural  Yb2PbAu2
_chemical_formula_sum  Yb4Pb2Au4
_cell_volume  239.53883288893095
_cell_formula_units_Z  2
loop_
  _symmetry_equiv_pos_site_id
 _symmetry_equiv_pos_as_xyz
 1  'x, y, z'
loop_
 _atom_site_type_symbol
 _atom_site_label
 _atom_site_symmetry_multiplicity
 _atom_site_fract_x
 _atom_site_fract_y
 _atom_site_fract_z
 _atom_site_fract_occupancy
 Au  Au1  1  0.37421  0.12579  0.50000  1
 Au  Au2  1  0.62579  0.87421  0.50000  1
 Au  Au3  1  0.87421  0.37421  0.50000  1
 Au  Au4  1  0.12579  0.62579  0.50000  1
 Pb  Pb1  1  0.00000  0.00000  0.50000  1
 Pb  Pb2  1  0.50000  0.50000  0.50000  1
 Yb  Yb1  1  0.32944  0.82944  0.00000  1
 Yb  Yb2  1  0.67056  0.17056  0.00000  1
 Yb  Yb3  1  0.82944  0.67056  0.00000  1
 Yb  Yb4  1  0.17056  0.32944  0.00000  1
