CIF file written using JARVIS-Tools package.
data_Bi3Se4Br
_symmetry_space_group_name_H-M  'C2/m'
_cell_length_a       4.11684
_cell_length_b       10.6157
_cell_length_c       12.1429
_cell_angle_alpha    114.572
_cell_angle_beta     90
_cell_angle_gamma    101.181

_symmetry_Int_Tables_number  12
_chemical_formula_structural  Bi3Se4Br
_chemical_formula_sum  Bi6Se8Br2
_cell_volume  471.52908489963096
_cell_formula_units_Z  2
loop_
  _symmetry_equiv_pos_site_id
 _symmetry_equiv_pos_as_xyz
 1  'x, y, z'
loop_
 _atom_site_type_symbol
 _atom_site_label
 _atom_site_symmetry_multiplicity
 _atom_site_fract_x
 _atom_site_fract_y
 _atom_site_fract_z
 _atom_site_fract_occupancy
 Bi  Bi1  1  0.08975  0.17950  0.96599  1
 Bi  Bi2  1  0.91025  0.82050  0.03401  1
 Bi  Bi3  1  0.67351  0.34702  0.73832  1
 Bi  Bi4  1  0.32649  0.65298  0.26168  1
 Bi  Bi5  1  0.14851  0.29703  0.41032  1
 Bi  Bi6  1  0.85149  0.70297  0.58968  1
 Br  Br1  1  0.45515  0.91030  0.83483  1
 Br  Br2  1  0.54485  0.08970  0.16517  1
 Se  Se1  1  0.41788  0.83575  0.51117  1
 Se  Se2  1  0.58212  0.16425  0.48883  1
 Se  Se3  1  0.68972  0.37944  0.02351  1
 Se  Se4  1  0.31028  0.62056  0.97649  1
 Se  Se5  1  0.07475  0.14949  0.72663  1
 Se  Se6  1  0.92525  0.85051  0.27337  1
 Se  Se7  1  0.25431  0.50861  0.64382  1
 Se  Se8  1  0.74569  0.49139  0.35618  1
