CIF file written using JARVIS-Tools package.
data_InGaSe2
_symmetry_space_group_name_H-M  'I4cm'
_cell_length_a       6.62039
_cell_length_b       6.6204
_cell_length_c       6.62039
_cell_angle_alpha    102.865
_cell_angle_beta     102.865
_cell_angle_gamma    123.689

_symmetry_Int_Tables_number  108
_chemical_formula_structural  InGaSe2
_chemical_formula_sum  In2Ga2Se4
_cell_volume  212.86886742860582
_cell_formula_units_Z  2
loop_
  _symmetry_equiv_pos_site_id
 _symmetry_equiv_pos_as_xyz
 1  'x, y, z'
loop_
 _atom_site_type_symbol
 _atom_site_label
 _atom_site_symmetry_multiplicity
 _atom_site_fract_x
 _atom_site_fract_y
 _atom_site_fract_z
 _atom_site_fract_occupancy
 Ga  Ga1  1  0.25835  0.75835  0.50000  1
 Ga  Ga2  1  0.75835  0.25835  0.50000  1
 In  In1  1  0.57315  0.57315  0.00000  1
 In  In2  1  0.07315  0.07315  0.00000  1
 Se  Se1  1  0.17100  0.34651  0.50000  1
 Se  Se2  1  0.84651  0.67100  0.50000  1
 Se  Se3  1  0.34651  0.84651  0.17551  1
 Se  Se4  1  0.67100  0.17100  0.82449  1
