CIF file written using JARVIS-Tools package.
data_MoWSe3S
_symmetry_space_group_name_H-M  'P3m1'
_cell_length_a       3.29279
_cell_length_b       3.29279
_cell_length_c       35.0076
_cell_angle_alpha    90.0009
_cell_angle_beta     90
_cell_angle_gamma    120

_symmetry_Int_Tables_number  156
_chemical_formula_structural  MoWSe3S
_chemical_formula_sum  Mo2W2Se6S2
_cell_volume  328.7163124460376
_cell_formula_units_Z  2
loop_
  _symmetry_equiv_pos_site_id
 _symmetry_equiv_pos_as_xyz
 1  'x, y, z'
loop_
 _atom_site_type_symbol
 _atom_site_label
 _atom_site_symmetry_multiplicity
 _atom_site_fract_x
 _atom_site_fract_y
 _atom_site_fract_z
 _atom_site_fract_occupancy
 Mo  Mo1  1  0.33330  0.66660  0.09673  1
 Mo  Mo2  1  0.33333  0.66666  0.46873  1
 S  S1  1  0.66663  0.33327  0.05291  1
 S  S2  1  0.66664  0.33328  0.14060  1
 Se  Se1  1  0.33332  0.66665  0.32774  1
 Se  Se2  1  0.33339  0.66678  0.70652  1
 Se  Se3  1  0.66666  0.33333  0.42058  1
 Se  Se4  1  0.66667  0.33333  0.51687  1
 Se  Se5  1  0.33332  0.66664  0.23089  1
 Se  Se6  1  0.33337  0.66674  0.60971  1
 W  W1  1  0.66665  0.33331  0.27931  1
 W  W2  1  0.66671  0.33342  0.65815  1
