CIF file written using JARVIS-Tools package.
data_NdSnAu
_symmetry_space_group_name_H-M  'P-3m1'
_cell_length_a       4.82938
_cell_length_b       4.82938
_cell_length_c       7.85197
_cell_angle_alpha    90
_cell_angle_beta     90
_cell_angle_gamma    120

_symmetry_Int_Tables_number  164
_chemical_formula_structural  NdSnAu
_chemical_formula_sum  Nd2Sn2Au2
_cell_volume  158.5961443995793
_cell_formula_units_Z  2
loop_
  _symmetry_equiv_pos_site_id
 _symmetry_equiv_pos_as_xyz
 1  'x, y, z'
loop_
 _atom_site_type_symbol
 _atom_site_label
 _atom_site_symmetry_multiplicity
 _atom_site_fract_x
 _atom_site_fract_y
 _atom_site_fract_z
 _atom_site_fract_occupancy
 Au  Au1  1  0.33333  0.66667  0.49281  1
 Au  Au2  1  0.66667  0.33333  0.50719  1
 Nd  Nd1  1  0.00000  0.00000  0.28477  1
 Nd  Nd2  1  0.00000  0.00000  0.71523  1
 Sn  Sn1  1  0.66667  0.33333  0.93645  1
 Sn  Sn2  1  0.33333  0.66667  0.06355  1
