CIF file written using JARVIS-Tools package.
data_Al3Ni
_symmetry_space_group_name_H-M  'Pnma'
_cell_length_a       4.84423
_cell_length_b       6.61096
_cell_length_c       7.41848
_cell_angle_alpha    90
_cell_angle_beta     90
_cell_angle_gamma    90

_symmetry_Int_Tables_number  62
_chemical_formula_structural  Al3Ni
_chemical_formula_sum  Al2Ni4
_cell_volume  237.57702192658414
_cell_formula_units_Z  4
loop_
  _symmetry_equiv_pos_site_id
 _symmetry_equiv_pos_as_xyz
 1  'x, y, z'
loop_
 _atom_site_type_symbol
 _atom_site_label
 _atom_site_symmetry_multiplicity
 _atom_site_fract_x
 _atom_site_fract_y
 _atom_site_fract_z
 _atom_site_fract_occupancy
 Al  Al1  1  0.91685  0.00367  0.25000  1
 Al  Al2  1  0.36092  0.17071  0.44602  1
 Al  Al3  1  0.36092  0.17071  0.05398  1
 Al  Al4  1  0.86092  0.32929  0.55398  1
 Al  Al5  1  0.13908  0.67071  0.44602  1
 Al  Al6  1  0.63908  0.82929  0.94602  1
 Al  Al7  1  0.13908  0.67071  0.05398  1
 Al  Al8  1  0.63908  0.82929  0.55398  1
 Al  Al9  1  0.86092  0.32929  0.94602  1
 Al  Al10  1  0.58315  0.50367  0.25000  1
 Al  Al11  1  0.08315  0.99633  0.75000  1
 Al  Al12  1  0.41685  0.49633  0.75000  1
 Ni  Ni1  1  0.44318  0.86926  0.25000  1
 Ni  Ni2  1  0.05682  0.36926  0.25000  1
 Ni  Ni3  1  0.55682  0.13074  0.75000  1
 Ni  Ni4  1  0.94318  0.63074  0.75000  1
