CIF file written using JARVIS-Tools package.
data_Th2Hg
_symmetry_space_group_name_H-M  'I4/mcm'
_cell_length_a       6.0065
_cell_length_b       6.23915
_cell_length_c       6.23915
_cell_angle_alpha    76.6026
_cell_angle_beta     61.2261
_cell_angle_gamma    61.226

_symmetry_Int_Tables_number  140
_chemical_formula_structural  Th2Hg
_chemical_formula_sum  Th4Hg2
_cell_volume  179.63908513960925
_cell_formula_units_Z  2
loop_
  _symmetry_equiv_pos_site_id
 _symmetry_equiv_pos_as_xyz
 1  'x, y, z'
loop_
 _atom_site_type_symbol
 _atom_site_label
 _atom_site_symmetry_multiplicity
 _atom_site_fract_x
 _atom_site_fract_y
 _atom_site_fract_z
 _atom_site_fract_occupancy
 Hg  Hg1  1  0.25000  0.00000  -0.00000  1
 Hg  Hg2  1  0.75000  0.00000  -0.00000  1
 Th  Th1  1  0.15421  0.50000  0.19158  1
 Th  Th2  1  0.34579  0.80842  0.50000  1
 Th  Th3  1  0.65421  0.19158  0.50000  1
 Th  Th4  1  0.84579  0.50000  0.80842  1
