CIF file written using JARVIS-Tools package.
data_ZrTi2O
_symmetry_space_group_name_H-M  'P6/mmm'
_cell_length_a       4.58652
_cell_length_b       4.58652
_cell_length_c       6.76902
_cell_angle_alpha    90
_cell_angle_beta     90
_cell_angle_gamma    119.975

_symmetry_Int_Tables_number  191
_chemical_formula_structural  ZrTi2O
_chemical_formula_sum  Zr2Ti4O2
_cell_volume  123.34749098268163
_cell_formula_units_Z  2
loop_
  _symmetry_equiv_pos_site_id
 _symmetry_equiv_pos_as_xyz
 1  'x, y, z'
loop_
 _atom_site_type_symbol
 _atom_site_label
 _atom_site_symmetry_multiplicity
 _atom_site_fract_x
 _atom_site_fract_y
 _atom_site_fract_z
 _atom_site_fract_occupancy
 O  O1  1  0.33328  0.66672  0.00000  1
 O  O2  1  0.66672  0.33328  0.00000  1
 Ti  Ti1  1  0.66663  0.33337  0.71695  1
 Ti  Ti2  1  0.33337  0.66663  0.28305  1
 Ti  Ti3  1  0.33337  0.66663  0.71695  1
 Ti  Ti4  1  0.66663  0.33337  0.28305  1
 Zr  Zr1  1  0.00000  0.00000  0.50000  1
 Zr  Zr2  1  0.00000  0.00000  0.00000  1
