CIF file written using JARVIS-Tools package.
data_K2HgO2
_symmetry_space_group_name_H-M  'I4/mmm'
_cell_length_a       3.89815
_cell_length_b       3.89816
_cell_length_c       7.55723
_cell_angle_alpha    104.946
_cell_angle_beta     104.946
_cell_angle_gamma    90

_symmetry_Int_Tables_number  139
_chemical_formula_structural  K2HgO2
_chemical_formula_sum  K2HgO2
_cell_volume  106.92572648298838
_cell_formula_units_Z  1
loop_
  _symmetry_equiv_pos_site_id
 _symmetry_equiv_pos_as_xyz
 1  'x, y, z'
loop_
 _atom_site_type_symbol
 _atom_site_label
 _atom_site_symmetry_multiplicity
 _atom_site_fract_x
 _atom_site_fract_y
 _atom_site_fract_z
 _atom_site_fract_occupancy
 Hg  Hg1  1  0.00000  0.00000  0.00000  1
 K  K1  1  0.66977  0.66977  0.33954  1
 K  K2  1  0.33023  0.33023  0.66046  1
 O  O1  1  0.85784  0.85784  0.71568  1
 O  O2  1  0.14216  0.14216  0.28432  1
