CIF file written using JARVIS-Tools package.
data_YbSn
_symmetry_space_group_name_H-M  'P4/mmm'
_cell_length_a       4.47334
_cell_length_b       4.86144
_cell_length_c       4.86144
_cell_angle_alpha    90
_cell_angle_beta     90
_cell_angle_gamma    90

_symmetry_Int_Tables_number  123
_chemical_formula_structural  YbSn
_chemical_formula_sum  Yb2Sn2
_cell_volume  105.72100689511305
_cell_formula_units_Z  2
loop_
  _symmetry_equiv_pos_site_id
 _symmetry_equiv_pos_as_xyz
 1  'x, y, z'
loop_
 _atom_site_type_symbol
 _atom_site_label
 _atom_site_symmetry_multiplicity
 _atom_site_fract_x
 _atom_site_fract_y
 _atom_site_fract_z
 _atom_site_fract_occupancy
 Sn  Sn1  1  0.00000  0.00000  0.00000  1
 Sn  Sn2  1  0.00000  0.50000  0.50000  1
 Yb  Yb1  1  0.50000  0.00000  0.50000  1
 Yb  Yb2  1  0.50000  0.50000  0.00000  1
