CIF file written using JARVIS-Tools package.
data_TaMn2FeO6
_symmetry_space_group_name_H-M  'R3'
_cell_length_a       5.59882
_cell_length_b       5.59882
_cell_length_c       5.59881
_cell_angle_alpha    55.3961
_cell_angle_beta     55.396
_cell_angle_gamma    55.3961

_symmetry_Int_Tables_number  146
_chemical_formula_structural  TaMn2FeO6
_chemical_formula_sum  TaMn2FeO6
_cell_volume  110.82898857110338
_cell_formula_units_Z  1
loop_
  _symmetry_equiv_pos_site_id
 _symmetry_equiv_pos_as_xyz
 1  'x, y, z'
loop_
 _atom_site_type_symbol
 _atom_site_label
 _atom_site_symmetry_multiplicity
 _atom_site_fract_x
 _atom_site_fract_y
 _atom_site_fract_z
 _atom_site_fract_occupancy
 Fe  Fe1  1  0.27702  0.27702  0.27702  1
 Mn  Mn1  1  0.48501  0.48501  0.48501  1
 Mn  Mn2  1  0.98646  0.98646  0.98646  1
 O  O1  1  0.69017  0.06391  0.40012  1
 O  O2  1  0.06391  0.40012  0.69017  1
 O  O3  1  0.40012  0.69017  0.06391  1
 O  O4  1  0.17991  0.88090  0.58268  1
 O  O5  1  0.88090  0.58268  0.17991  1
 O  O6  1  0.58268  0.17991  0.88090  1
 Ta  Ta1  1  0.78263  0.78263  0.78263  1
