CIF file written using JARVIS-Tools package.
data_H7C8NO
_symmetry_space_group_name_H-M  'P1'
_cell_length_a       3.90878
_cell_length_b       8.8096
_cell_length_c       9.53933
_cell_angle_alpha    112.547
_cell_angle_beta     93.5727
_cell_angle_gamma    91.7905

_symmetry_Int_Tables_number  1
_chemical_formula_structural  H7C8NO
_chemical_formula_sum  H4C6N2O2
_cell_volume  302.24431135588475
_cell_formula_units_Z  2
loop_
  _symmetry_equiv_pos_site_id
 _symmetry_equiv_pos_as_xyz
 1  'x, y, z'
loop_
 _atom_site_type_symbol
 _atom_site_label
 _atom_site_symmetry_multiplicity
 _atom_site_fract_x
 _atom_site_fract_y
 _atom_site_fract_z
 _atom_site_fract_occupancy
 C  C1  1  0.66928  0.43063  0.25482  1
 C  C2  1  0.35979  0.74483  0.52345  1
 C  C3  1  0.31767  0.68227  0.75629  1
 C  C4  1  0.31767  0.18227  0.25629  1
 C  C5  1  0.59191  0.13965  0.47556  1
 C  C6  1  0.42510  0.35402  0.95348  1
 C  C7  1  0.42510  0.85402  0.45348  1
 C  C8  1  0.35979  0.24483  0.02345  1
 C  C9  1  0.59190  0.63965  0.97556  1
 C  C10  1  0.60434  0.50590  0.03549  1
 C  C11  1  0.46929  0.28379  0.17599  1
 C  C12  1  0.46928  0.78379  0.67599  1
 C  C13  1  0.73514  0.54052  0.18558  1
 C  C14  1  0.73514  0.04052  0.68558  1
 C  C15  1  0.60435  0.00590  0.53550  1
 C  C16  1  0.66927  0.93063  0.75482  1
 H  H1  1  0.87264  0.65879  0.24943  1
 H  H2  1  0.56626  0.47145  0.75282  1
 H  H3  1  0.75392  0.96193  0.87429  1
 H  H4  1  0.75393  0.46193  0.37429  1
 H  H5  1  0.31955  0.82424  0.33701  1
 H  H6  1  0.20566  0.63081  0.46096  1
 H  H7  1  0.56626  0.97145  0.25282  1
 H  H8  1  0.20566  0.13081  0.96096  1
 H  H9  1  0.12756  0.09067  0.17590  1
 H  H10  1  0.12756  0.59066  0.67590  1
 H  H11  1  0.17981  0.26489  0.35021  1
 H  H12  1  0.17980  0.76489  0.85020  1
 H  H13  1  0.87264  0.15879  0.74943  1
 H  H14  1  0.31955  0.32424  0.83701  1
 N  N1  1  0.54073  0.59182  0.82210  1
 N  N2  1  0.54073  0.09182  0.32210  1
 O  O1  1  0.59429  0.78811  0.06377  1
 O  O2  1  0.59431  0.28811  0.56377  1
