CIF file written using JARVIS-Tools package.
data_Tb4CuPt3
_symmetry_space_group_name_H-M  'Pm'
_cell_length_a       4.495
_cell_length_b       5.56772
_cell_length_c       7.06973
_cell_angle_alpha    89.558
_cell_angle_beta     90
_cell_angle_gamma    90

_symmetry_Int_Tables_number  6
_chemical_formula_structural  Tb4CuPt3
_chemical_formula_sum  Tb4CuPt3
_cell_volume  176.9280142337133
_cell_formula_units_Z  1
loop_
  _symmetry_equiv_pos_site_id
 _symmetry_equiv_pos_as_xyz
 1  'x, y, z'
loop_
 _atom_site_type_symbol
 _atom_site_label
 _atom_site_symmetry_multiplicity
 _atom_site_fract_x
 _atom_site_fract_y
 _atom_site_fract_z
 _atom_site_fract_occupancy
 Cu  Cu1  1  0.00000  0.14216  0.46174  1
 Pt  Pt1  1  0.00000  0.33568  0.95373  1
 Pt  Pt2  1  0.50000  0.86391  0.53657  1
 Pt  Pt3  1  0.50000  0.65853  0.04786  1
 Tb  Tb1  1  0.00000  0.64222  0.31645  1
 Tb  Tb2  1  0.00000  0.85341  0.81793  1
 Tb  Tb3  1  0.50000  0.36261  0.68721  1
 Tb  Tb4  1  0.50000  0.14148  0.17851  1
