CIF file written using JARVIS-Tools package.
data_GaNi4Ge3
_symmetry_space_group_name_H-M  'R3'
_cell_length_a       4.7047
_cell_length_b       4.7047
_cell_length_c       4.70471
_cell_angle_alpha    89.2417
_cell_angle_beta     89.2417
_cell_angle_gamma    89.2418

_symmetry_Int_Tables_number  146
_chemical_formula_structural  GaNi4Ge3
_chemical_formula_sum  GaNi4Ge3
_cell_volume  104.10811244680961
_cell_formula_units_Z  1
loop_
  _symmetry_equiv_pos_site_id
 _symmetry_equiv_pos_as_xyz
 1  'x, y, z'
loop_
 _atom_site_type_symbol
 _atom_site_label
 _atom_site_symmetry_multiplicity
 _atom_site_fract_x
 _atom_site_fract_y
 _atom_site_fract_z
 _atom_site_fract_occupancy
 Ga  Ga1  1  0.34364  0.34364  0.34364  1
 Ge  Ge1  1  0.84024  0.65439  0.16249  1
 Ge  Ge2  1  0.65439  0.16249  0.84024  1
 Ge  Ge3  1  0.16249  0.84024  0.65439  1
 Ni  Ni1  1  0.64488  0.64488  0.64488  1
 Ni  Ni2  1  0.13614  0.35675  0.86146  1
 Ni  Ni3  1  0.35675  0.86146  0.13614  1
 Ni  Ni4  1  0.86146  0.13614  0.35675  1
