CIF file written using JARVIS-Tools package.
data_MnVCr2Te4
_symmetry_space_group_name_H-M  'P2/m'
_cell_length_a       4.13504
_cell_length_b       6.07766
_cell_length_c       7.12196
_cell_angle_alpha    89.7697
_cell_angle_beta     90
_cell_angle_gamma    90

_symmetry_Int_Tables_number  10
_chemical_formula_structural  MnVCr2Te4
_chemical_formula_sum  MnVCr2Te4
_cell_volume  178.98323433045152
_cell_formula_units_Z  1
loop_
  _symmetry_equiv_pos_site_id
 _symmetry_equiv_pos_as_xyz
 1  'x, y, z'
loop_
 _atom_site_type_symbol
 _atom_site_label
 _atom_site_symmetry_multiplicity
 _atom_site_fract_x
 _atom_site_fract_y
 _atom_site_fract_z
 _atom_site_fract_occupancy
 Cr  Cr1  1  0.00000  0.00000  0.00000  1
 Cr  Cr2  1  0.50000  -0.00000  0.50000  1
 Mn  Mn1  1  0.50000  0.50000  0.50000  1
 Te  Te1  1  0.50000  0.75003  0.83588  1
 Te  Te2  1  0.00000  0.75202  0.33134  1
 Te  Te3  1  0.00000  0.24798  0.66866  1
 Te  Te4  1  0.50000  0.24997  0.16412  1
 V  V1  1  0.00000  0.50000  -0.00000  1
