CIF file written using JARVIS-Tools package.
data_CoPtF6
_symmetry_space_group_name_H-M  'R-3'
_cell_length_a       5.41839
_cell_length_b       5.4184
_cell_length_c       5.4184
_cell_angle_alpha    54.1828
_cell_angle_beta     54.1827
_cell_angle_gamma    54.1828

_symmetry_Int_Tables_number  148
_chemical_formula_structural  CoPtF6
_chemical_formula_sum  CoPtF6
_cell_volume  97.21190331573219
_cell_formula_units_Z  1
loop_
  _symmetry_equiv_pos_site_id
 _symmetry_equiv_pos_as_xyz
 1  'x, y, z'
loop_
 _atom_site_type_symbol
 _atom_site_label
 _atom_site_symmetry_multiplicity
 _atom_site_fract_x
 _atom_site_fract_y
 _atom_site_fract_z
 _atom_site_fract_occupancy
 Co  Co1  1  0.50000  0.50000  0.50000  1
 F  F1  1  0.25292  0.59155  0.90582  1
 F  F2  1  0.59155  0.90582  0.25292  1
 F  F3  1  0.40845  0.09418  0.74708  1
 F  F4  1  0.74708  0.40845  0.09418  1
 F  F5  1  0.90582  0.25292  0.59155  1
 F  F6  1  0.09418  0.74708  0.40845  1
 Pt  Pt1  1  0.00000  0.00000  0.00000  1
