CIF file written using JARVIS-Tools package.
data_SrH4O3
_symmetry_space_group_name_H-M  'Pmc2_1'
_cell_length_a       3.67851
_cell_length_b       6.16169
_cell_length_c       6.65941
_cell_angle_alpha    90
_cell_angle_beta     90
_cell_angle_gamma    90

_symmetry_Int_Tables_number  26
_chemical_formula_structural  SrH4O3
_chemical_formula_sum  Sr2H8O6
_cell_volume  150.94105908956237
_cell_formula_units_Z  2
loop_
  _symmetry_equiv_pos_site_id
 _symmetry_equiv_pos_as_xyz
 1  'x, y, z'
loop_
 _atom_site_type_symbol
 _atom_site_label
 _atom_site_symmetry_multiplicity
 _atom_site_fract_x
 _atom_site_fract_y
 _atom_site_fract_z
 _atom_site_fract_occupancy
 H  H1  1  0.50000  0.29374  0.60260  1
 H  H2  1  0.50000  0.70626  0.10260  1
 H  H3  1  0.50000  0.96844  0.59804  1
 H  H4  1  0.50000  0.03156  0.09804  1
 H  H5  1  0.21082  0.12112  0.82953  1
 H  H6  1  0.78918  0.87888  0.32953  1
 H  H7  1  0.21082  0.87888  0.32953  1
 H  H8  1  0.78918  0.12112  0.82953  1
 O  O1  1  0.00000  0.21414  0.87771  1
 O  O2  1  0.50000  0.56457  0.03649  1
 O  O3  1  0.50000  0.94225  0.74292  1
 O  O4  1  0.50000  0.05775  0.24292  1
 O  O5  1  0.00000  0.78586  0.37771  1
 O  O6  1  0.50000  0.43543  0.53649  1
 Sr  Sr1  1  0.00000  0.62901  0.75198  1
 Sr  Sr2  1  0.00000  0.37099  0.25198  1
