CIF file written using JARVIS-Tools package.
data_ZnH12C8O4
_symmetry_space_group_name_H-M  'P1'
_cell_length_a       3.86048
_cell_length_b       4.72117
_cell_length_c       12.1413
_cell_angle_alpha    87.7118
_cell_angle_beta     88.2598
_cell_angle_gamma    66.762

_symmetry_Int_Tables_number  1
_chemical_formula_structural  ZnH12C8O4
_chemical_formula_sum  ZnH2C8O4
_cell_volume  203.14712447040029
_cell_formula_units_Z  1
loop_
  _symmetry_equiv_pos_site_id
 _symmetry_equiv_pos_as_xyz
 1  'x, y, z'
loop_
 _atom_site_type_symbol
 _atom_site_label
 _atom_site_symmetry_multiplicity
 _atom_site_fract_x
 _atom_site_fract_y
 _atom_site_fract_z
 _atom_site_fract_occupancy
 C  C1  1  0.27226  0.31191  0.63488  1
 C  C2  1  0.16599  0.28161  0.42984  1
 C  C3  1  0.16217  0.48723  0.52422  1
 C  C4  1  0.28215  0.52084  0.72667  1
 C  C5  1  0.42626  0.35402  0.83705  1
 C  C6  1  0.42746  0.58046  0.92302  1
 C  C7  1  0.60105  0.44845  0.03339  1
 C  C8  1  0.13641  0.43201  0.31578  1
 H  H1  1  0.93752  0.19680  0.43936  1
 H  H2  1  0.07617  0.20009  0.65789  1
 H  H3  1  0.71378  0.17668  0.82565  1
 H  H4  1  0.88098  0.67636  0.53176  1
 H  H5  1  0.55339  0.12204  0.62610  1
 H  H6  1  -0.00348  0.70217  0.73868  1
 H  H7  1  0.46116  0.64491  0.69906  1
 H  H8  1  0.14060  0.75276  0.93913  1
 H  H9  1  0.58521  0.71828  0.89091  1
 H  H10  1  0.35731  0.60126  0.50358  1
 H  H11  1  0.25013  0.23055  0.86713  1
 H  H12  1  0.42765  0.07045  0.42866  1
 O  O1  1  0.23641  0.26284  0.23242  1
 O  O2  1  0.79916  0.15862  0.04147  1
 O  O3  1  0.02259  0.72605  0.30914  1
 O  O4  1  0.55736  0.63111  0.11155  1
 Zn  Zn1  1  0.07957  0.94486  0.17298  1
