CIF file written using JARVIS-Tools package.
data_In2Ni6C
_symmetry_space_group_name_H-M  'P4/mmm'
_cell_length_a       3.8409
_cell_length_b       3.8409
_cell_length_c       7.45564
_cell_angle_alpha    90
_cell_angle_beta     90
_cell_angle_gamma    90

_symmetry_Int_Tables_number  123
_chemical_formula_structural  In2Ni6C
_chemical_formula_sum  In2Ni6C
_cell_volume  109.98919763360223
_cell_formula_units_Z  1
loop_
  _symmetry_equiv_pos_site_id
 _symmetry_equiv_pos_as_xyz
 1  'x, y, z'
loop_
 _atom_site_type_symbol
 _atom_site_label
 _atom_site_symmetry_multiplicity
 _atom_site_fract_x
 _atom_site_fract_y
 _atom_site_fract_z
 _atom_site_fract_occupancy
 C  C1  1  0.50000  0.50000  0.00000  1
 In  In1  1  0.00000  0.00000  0.73911  1
 In  In2  1  0.00000  0.00000  0.26089  1
 Ni  Ni1  1  0.50000  0.50000  0.74518  1
 Ni  Ni2  1  0.50000  0.50000  0.25482  1
 Ni  Ni3  1  0.50000  0.00000  0.00000  1
 Ni  Ni4  1  0.50000  0.00000  0.50000  1
 Ni  Ni5  1  0.00000  0.50000  0.00000  1
 Ni  Ni6  1  0.00000  0.50000  0.50000  1
