CIF file written using JARVIS-Tools package.
data_BPd2
_symmetry_space_group_name_H-M  'Pnnm'
_cell_length_a       3.16605
_cell_length_b       4.71605
_cell_length_c       5.19695
_cell_angle_alpha    90
_cell_angle_beta     90
_cell_angle_gamma    90

_symmetry_Int_Tables_number  58
_chemical_formula_structural  BPd2
_chemical_formula_sum  B2Pd4
_cell_volume  77.59694057191828
_cell_formula_units_Z  2
loop_
  _symmetry_equiv_pos_site_id
 _symmetry_equiv_pos_as_xyz
 1  'x, y, z'
loop_
 _atom_site_type_symbol
 _atom_site_label
 _atom_site_symmetry_multiplicity
 _atom_site_fract_x
 _atom_site_fract_y
 _atom_site_fract_z
 _atom_site_fract_occupancy
 B  B1  1  0.50000  0.50000  0.50000  1
 B  B2  1  0.00000  0.00000  0.00000  1
 Pd  Pd1  1  0.50000  0.75310  0.15630  1
 Pd  Pd2  1  0.50000  0.24690  0.84370  1
 Pd  Pd3  1  0.00000  0.74690  0.65630  1
 Pd  Pd4  1  0.00000  0.25310  0.34370  1
