CIF file written using JARVIS-Tools package.
data_Pr4Se3N2
_symmetry_space_group_name_H-M  'C2/c'
_cell_length_a       6.50755
_cell_length_b       8.3945
_cell_length_c       8.3945
_cell_angle_alpha    75.7166
_cell_angle_beta     90.3462
_cell_angle_gamma    90.3461

_symmetry_Int_Tables_number  15
_chemical_formula_structural  Pr4Se3N2
_chemical_formula_sum  Pr8Se6N4
_cell_volume  444.3822833572113
_cell_formula_units_Z  2
loop_
  _symmetry_equiv_pos_site_id
 _symmetry_equiv_pos_as_xyz
 1  'x, y, z'
loop_
 _atom_site_type_symbol
 _atom_site_label
 _atom_site_symmetry_multiplicity
 _atom_site_fract_x
 _atom_site_fract_y
 _atom_site_fract_z
 _atom_site_fract_occupancy
 N  N1  1  0.58510  0.82954  0.58166  1
 N  N2  1  0.41490  0.17046  0.41834  1
 N  N3  1  0.91490  0.41834  0.17046  1
 N  N4  1  0.08510  0.58166  0.82954  1
 Pr  Pr1  1  0.53028  0.05728  0.69175  1
 Pr  Pr2  1  0.42995  0.58427  0.74510  1
 Pr  Pr3  1  0.96972  0.30825  0.94272  1
 Pr  Pr4  1  0.57005  0.41573  0.25490  1
 Pr  Pr5  1  0.92995  0.74510  0.58427  1
 Pr  Pr6  1  0.46972  0.94272  0.30825  1
 Pr  Pr7  1  0.03028  0.69175  0.05728  1
 Pr  Pr8  1  0.07005  0.25490  0.41573  1
 Se  Se1  1  0.25000  0.59632  0.40368  1
 Se  Se2  1  0.53461  0.75455  0.01581  1
 Se  Se3  1  0.75000  0.40368  0.59632  1
 Se  Se4  1  0.96539  0.98419  0.24545  1
 Se  Se5  1  0.03461  0.01581  0.75455  1
 Se  Se6  1  0.46539  0.24545  0.98419  1
