CIF file written using JARVIS-Tools package.
data_Hf4CuSi3
_symmetry_space_group_name_H-M  'Pmm2'
_cell_length_a       3.71039
_cell_length_b       3.73269
_cell_length_c       9.9515
_cell_angle_alpha    90
_cell_angle_beta     90
_cell_angle_gamma    90

_symmetry_Int_Tables_number  25
_chemical_formula_structural  Hf4CuSi3
_chemical_formula_sum  Hf4CuSi3
_cell_volume  137.82562629893675
_cell_formula_units_Z  1
loop_
  _symmetry_equiv_pos_site_id
 _symmetry_equiv_pos_as_xyz
 1  'x, y, z'
loop_
 _atom_site_type_symbol
 _atom_site_label
 _atom_site_symmetry_multiplicity
 _atom_site_fract_x
 _atom_site_fract_y
 _atom_site_fract_z
 _atom_site_fract_occupancy
 Cu  Cu1  1  0.50000  0.50000  0.07448  1
 Hf  Hf1  1  0.50000  0.50000  0.35302  1
 Hf  Hf2  1  0.00000  0.50000  0.85090  1
 Hf  Hf3  1  0.00000  0.00000  0.14846  1
 Hf  Hf4  1  0.50000  0.00000  0.64772  1
 Si  Si1  1  0.00000  0.50000  0.58084  1
 Si  Si2  1  0.00000  0.00000  0.41879  1
 Si  Si3  1  0.50000  0.00000  0.92580  1
