CIF file written using JARVIS-Tools package.
data_Pr
_symmetry_space_group_name_H-M  'Fm-3m'
_cell_length_a       3.68681
_cell_length_b       3.68681
_cell_length_c       9.03042
_cell_angle_alpha    90
_cell_angle_beta     90
_cell_angle_gamma    120

_symmetry_Int_Tables_number  225
_chemical_formula_structural  Pr
_chemical_formula_sum  Pr3
_cell_volume  106.30191665123262
_cell_formula_units_Z  3
loop_
  _symmetry_equiv_pos_site_id
 _symmetry_equiv_pos_as_xyz
 1  'x, y, z'
loop_
 _atom_site_type_symbol
 _atom_site_label
 _atom_site_symmetry_multiplicity
 _atom_site_fract_x
 _atom_site_fract_y
 _atom_site_fract_z
 _atom_site_fract_occupancy
 Pr  Pr1  1  0.33354  0.00000  0.66667  1
 Pr  Pr2  1  0.00000  0.33354  0.33333  1
 Pr  Pr3  1  0.66646  0.66646  0.00000  1
