CIF file written using JARVIS-Tools package.
data_Th2Si3Ir
_symmetry_space_group_name_H-M  'Imm2'
_cell_length_a       7.72915
_cell_length_b       7.72914
_cell_length_c       7.72914
_cell_angle_alpha    148.959
_cell_angle_beta     148.177
_cell_angle_gamma    45.0511

_symmetry_Int_Tables_number  44
_chemical_formula_structural  Th2Si3Ir
_chemical_formula_sum  Th2Si3Ir
_cell_volume  125.15384790204986
_cell_formula_units_Z  1
loop_
  _symmetry_equiv_pos_site_id
 _symmetry_equiv_pos_as_xyz
 1  'x, y, z'
loop_
 _atom_site_type_symbol
 _atom_site_label
 _atom_site_symmetry_multiplicity
 _atom_site_fract_x
 _atom_site_fract_y
 _atom_site_fract_z
 _atom_site_fract_occupancy
 Ir  Ir1  1  0.16508  0.66508  0.50000  1
 Si  Si1  1  0.58372  0.58372  0.00000  1
 Si  Si2  1  0.33168  0.83168  0.50000  1
 Si  Si3  1  0.41676  0.41676  0.00000  1
 Th  Th1  1  0.75151  0.25151  0.50000  1
 Th  Th2  1  0.00126  0.00126  0.00000  1
