CIF file written using JARVIS-Tools package.
data_SnH8C4Cl2
_symmetry_space_group_name_H-M  'P2/c'
_cell_length_a       3.99114
_cell_length_b       6.04478
_cell_length_c       13.3838
_cell_angle_alpha    83.0178
_cell_angle_beta     90.0007
_cell_angle_gamma    89.9988

_symmetry_Int_Tables_number  13
_chemical_formula_structural  SnH8C4Cl2
_chemical_formula_sum  Sn2H6C8Cl4
_cell_volume  320.4969650107456
_cell_formula_units_Z  2
loop_
  _symmetry_equiv_pos_site_id
 _symmetry_equiv_pos_as_xyz
 1  'x, y, z'
loop_
 _atom_site_type_symbol
 _atom_site_label
 _atom_site_symmetry_multiplicity
 _atom_site_fract_x
 _atom_site_fract_y
 _atom_site_fract_z
 _atom_site_fract_occupancy
 C  C1  1  0.15507  0.81894  0.75488  1
 C  C2  1  0.15170  0.91761  0.93212  1
 C  C3  1  0.07807  0.41767  0.43211  1
 C  C4  1  0.15507  0.50200  0.32274  1
 C  C5  1  0.07474  0.00195  0.82275  1
 C  C6  1  0.07810  0.90328  0.64551  1
 C  C7  1  0.07473  0.31899  0.25487  1
 C  C8  1  0.15173  0.40331  0.14551  1
 Cl  Cl1  1  0.60065  0.89117  0.43445  1
 Cl  Cl2  1  0.62917  0.39112  0.93445  1
 Cl  Cl3  1  0.60068  0.42977  0.64317  1
 Cl  Cl4  1  0.62919  0.92980  0.14317  1
 H  H1  1  0.81687  0.36430  0.44315  1
 H  H2  1  0.81013  0.05038  0.81350  1
 H  H3  1  0.22226  0.15230  0.79746  1
 H  H4  1  0.98870  0.77870  0.96176  1
 H  H5  1  0.00757  0.65235  0.29745  1
 H  H6  1  0.41968  0.55040  0.31350  1
 H  H7  1  0.24094  0.27867  0.46174  1
 H  H8  1  0.22223  0.16863  0.28017  1
 H  H9  1  0.00755  0.66860  0.78017  1
 H  H10  1  0.41967  0.77052  0.76413  1
 H  H11  1  0.81692  0.95669  0.63446  1
 H  H12  1  0.24101  0.04225  0.61588  1
 H  H13  1  0.81012  0.27058  0.26411  1
 H  H14  1  0.41290  0.45677  0.13446  1
 H  H15  1  0.98877  0.54225  0.11586  1
 H  H16  1  0.41285  0.86412  0.94317  1
 Sn  Sn1  1  0.13748  0.66047  0.53881  1
 Sn  Sn2  1  0.09259  0.16046  0.03881  1
