CIF file written using JARVIS-Tools package.
data_CS2NClO2
_symmetry_space_group_name_H-M  'Pca2_1'
_cell_length_a       5.15425
_cell_length_b       7.29275
_cell_length_c       13.6302
_cell_angle_alpha    90
_cell_angle_beta     90
_cell_angle_gamma    90

_symmetry_Int_Tables_number  29
_chemical_formula_structural  CS2NClO2
_chemical_formula_sum  C4S8N4Cl4O8
_cell_volume  512.3392317461427
_cell_formula_units_Z  4
loop_
  _symmetry_equiv_pos_site_id
 _symmetry_equiv_pos_as_xyz
 1  'x, y, z'
loop_
 _atom_site_type_symbol
 _atom_site_label
 _atom_site_symmetry_multiplicity
 _atom_site_fract_x
 _atom_site_fract_y
 _atom_site_fract_z
 _atom_site_fract_occupancy
 C  C1  1  0.43525  0.42451  0.90445  1
 C  C2  1  0.93525  0.57549  0.09555  1
 C  C3  1  0.43525  0.57549  0.40445  1
 C  C4  1  0.93525  0.42451  0.59555  1
 Cl  Cl1  1  0.48776  0.64683  0.85454  1
 Cl  Cl2  1  0.98776  0.35317  0.14546  1
 Cl  Cl3  1  0.48776  0.35317  0.35454  1
 Cl  Cl4  1  0.98776  0.64683  0.64546  1
 N  N1  1  0.14358  0.13447  0.90488  1
 N  N2  1  0.64358  0.86553  0.09512  1
 N  N3  1  0.64358  0.13447  0.59512  1
 N  N4  1  0.14358  0.86553  0.40488  1
 O  O1  1  0.07966  0.64692  0.03814  1
 O  O2  1  0.72883  0.02959  0.81687  1
 O  O3  1  0.22883  0.97041  0.18313  1
 O  O4  1  0.72883  0.97041  0.31687  1
 O  O5  1  0.22883  0.02959  0.68313  1
 O  O6  1  0.07966  0.35308  0.53814  1
 O  O7  1  0.57966  0.64692  0.46186  1
 O  O8  1  0.57966  0.35308  0.96186  1
 S  S1  1  0.93983  0.01515  0.38525  1
 S  S2  1  0.43983  0.01515  0.11475  1
 S  S3  1  0.93983  0.98485  0.88525  1
 S  S4  1  0.14768  0.33859  0.85246  1
 S  S5  1  0.64768  0.66141  0.14754  1
 S  S6  1  0.14768  0.66141  0.35246  1
 S  S7  1  0.64768  0.33859  0.64754  1
 S  S8  1  0.43983  0.98485  0.61475  1
