CIF file written using JARVIS-Tools package.
data_Nd2MgSi2
_symmetry_space_group_name_H-M  'P4/mbm'
_cell_length_a       7.36496
_cell_length_b       7.36496
_cell_length_c       4.37688
_cell_angle_alpha    90
_cell_angle_beta     90
_cell_angle_gamma    90

_symmetry_Int_Tables_number  127
_chemical_formula_structural  Nd2MgSi2
_chemical_formula_sum  Nd4Mg2Si4
_cell_volume  237.41332924682814
_cell_formula_units_Z  2
loop_
  _symmetry_equiv_pos_site_id
 _symmetry_equiv_pos_as_xyz
 1  'x, y, z'
loop_
 _atom_site_type_symbol
 _atom_site_label
 _atom_site_symmetry_multiplicity
 _atom_site_fract_x
 _atom_site_fract_y
 _atom_site_fract_z
 _atom_site_fract_occupancy
 Mg  Mg1  1  0.00000  0.00000  0.00000  1
 Mg  Mg2  1  0.50000  0.50000  0.00000  1
 Nd  Nd1  1  0.68010  0.18010  0.50000  1
 Nd  Nd2  1  0.31990  0.81990  0.50000  1
 Nd  Nd3  1  0.18010  0.31990  0.50000  1
 Nd  Nd4  1  0.81990  0.68010  0.50000  1
 Si  Si1  1  0.11579  0.61579  0.00000  1
 Si  Si2  1  0.88421  0.38421  0.00000  1
 Si  Si3  1  0.61579  0.88421  0.00000  1
 Si  Si4  1  0.38421  0.11579  0.00000  1
