CIF file written using JARVIS-Tools package.
data_H10C14O
_symmetry_space_group_name_H-M  'P1'
_cell_length_a       3.72772
_cell_length_b       5.49322
_cell_length_c       10.926
_cell_angle_alpha    85.6052
_cell_angle_beta     83.9397
_cell_angle_gamma    87.6831

_symmetry_Int_Tables_number  1
_chemical_formula_structural  H10C14O
_chemical_formula_sum  H0C4O
_cell_volume  221.7103466344865
_cell_formula_units_Z  1
loop_
  _symmetry_equiv_pos_site_id
 _symmetry_equiv_pos_as_xyz
 1  'x, y, z'
loop_
 _atom_site_type_symbol
 _atom_site_label
 _atom_site_symmetry_multiplicity
 _atom_site_fract_x
 _atom_site_fract_y
 _atom_site_fract_z
 _atom_site_fract_occupancy
 C  C1  1  0.31347  0.20597  0.73165  1
 C  C2  1  0.49133  0.31864  0.05825  1
 C  C3  1  0.25877  0.68462  0.34568  1
 C  C4  1  0.34044  0.52498  0.13692  1
 C  C5  1  0.28385  0.66150  0.47175  1
 C  C6  1  0.59206  0.57015  0.85444  1
 C  C7  1  0.38555  0.49592  0.27099  1
 C  C8  1  0.57670  0.60014  0.72757  1
 C  C9  1  0.46223  0.35895  0.92190  1
 C  C10  1  0.42854  0.44665  0.52876  1
 C  C11  1  0.31972  0.17850  0.85919  1
 C  C12  1  0.55756  0.25897  0.45372  1
 C  C13  1  0.44074  0.41754  0.66378  1
 C  C14  1  0.54032  0.28366  0.32687  1
 H  H1  1  0.64594  0.13491  0.27163  1
 H  H2  1  0.21441  0.01428  0.91081  1
 H  H3  1  0.68196  0.76465  0.67654  1
 H  H4  1  0.13475  0.84770  0.30260  1
 H  H5  1  0.18078  0.80858  0.52851  1
 H  H6  1  0.71277  0.70924  0.90144  1
 H  H7  1  0.77689  0.28724  0.07444  1
 H  H8  1  0.36006  0.14784  0.09503  1
 H  H9  1  0.19527  0.06532  0.68490  1
 H  H10  1  0.67944  0.09356  0.49551  1
 O  O1  1  0.17793  0.70633  0.09286  1
