CIF file written using JARVIS-Tools package.
data_H3Pd4
_symmetry_space_group_name_H-M  'R-3m'
_cell_length_a       9.58945
_cell_length_b       9.58945
_cell_length_c       9.58945
_cell_angle_alpha    17.4238
_cell_angle_beta     17.4238
_cell_angle_gamma    17.4238

_symmetry_Int_Tables_number  166
_chemical_formula_structural  H3Pd4
_chemical_formula_sum  H3Pd4
_cell_volume  69.00159225452582
_cell_formula_units_Z  1
loop_
  _symmetry_equiv_pos_site_id
 _symmetry_equiv_pos_as_xyz
 1  'x, y, z'
loop_
 _atom_site_type_symbol
 _atom_site_label
 _atom_site_symmetry_multiplicity
 _atom_site_fract_x
 _atom_site_fract_y
 _atom_site_fract_z
 _atom_site_fract_occupancy
 H  H1  1  0.26257  0.26257  0.26257  1
 H  H2  1  0.50000  0.50000  0.50000  1
 H  H3  1  0.73743  0.73743  0.73743  1
 Pd  Pd1  1  0.12517  0.12517  0.12517  1
 Pd  Pd2  1  0.87483  0.87483  0.87483  1
 Pd  Pd3  1  0.37426  0.37426  0.37426  1
 Pd  Pd4  1  0.62574  0.62574  0.62574  1
