CIF file written using JARVIS-Tools package.
data_Cr6C3N
_symmetry_space_group_name_H-M  'C2/m'
_cell_length_a       4.81643
_cell_length_b       4.81643
_cell_length_c       6.90698
_cell_angle_alpha    88.1798
_cell_angle_beta     88.1798
_cell_angle_gamma    33.7403

_symmetry_Int_Tables_number  12
_chemical_formula_structural  Cr6C3N
_chemical_formula_sum  Cr6C3N
_cell_volume  88.94599982900435
_cell_formula_units_Z  1
loop_
  _symmetry_equiv_pos_site_id
 _symmetry_equiv_pos_as_xyz
 1  'x, y, z'
loop_
 _atom_site_type_symbol
 _atom_site_label
 _atom_site_symmetry_multiplicity
 _atom_site_fract_x
 _atom_site_fract_y
 _atom_site_fract_z
 _atom_site_fract_occupancy
 C  C1  1  0.50000  0.50000  0.50000  1
 C  C2  1  0.24716  0.24716  0.26193  1
 C  C3  1  0.75284  0.75284  0.73807  1
 Cr  Cr1  1  0.59819  0.59819  0.24120  1
 Cr  Cr2  1  0.40181  0.40181  0.75880  1
 Cr  Cr3  1  0.85899  0.85899  0.43772  1
 Cr  Cr4  1  0.14101  0.14101  0.56228  1
 Cr  Cr5  1  0.85178  0.85178  0.08032  1
 Cr  Cr6  1  0.14822  0.14822  0.91968  1
 N  N1  1  0.50000  0.50000  -0.00000  1
