CIF file written using JARVIS-Tools package.
data_Nd2SeO2
_symmetry_space_group_name_H-M  'P-3m1'
_cell_length_a       4.00812
_cell_length_b       4.00812
_cell_length_c       7.05505
_cell_angle_alpha    90
_cell_angle_beta     90
_cell_angle_gamma    120

_symmetry_Int_Tables_number  164
_chemical_formula_structural  Nd2SeO2
_chemical_formula_sum  Nd2SeO2
_cell_volume  98.15520442731354
_cell_formula_units_Z  1
loop_
  _symmetry_equiv_pos_site_id
 _symmetry_equiv_pos_as_xyz
 1  'x, y, z'
loop_
 _atom_site_type_symbol
 _atom_site_label
 _atom_site_symmetry_multiplicity
 _atom_site_fract_x
 _atom_site_fract_y
 _atom_site_fract_z
 _atom_site_fract_occupancy
 Nd  Nd1  1  0.66667  0.33333  0.71214  1
 Nd  Nd2  1  0.33333  0.66667  0.28786  1
 O  O1  1  0.66667  0.33333  0.37397  1
 O  O2  1  0.33333  0.66667  0.62603  1
 Se  Se1  1  0.00000  0.00000  0.00000  1
