CIF file written using JARVIS-Tools package.
data_K2ZnS2
_symmetry_space_group_name_H-M  'Ibam'
_cell_length_a       7.77609
_cell_length_b       7.77608
_cell_length_c       7.77608
_cell_angle_alpha    133.027
_cell_angle_beta     129.142
_cell_angle_gamma    71.7247

_symmetry_Int_Tables_number  72
_chemical_formula_structural  K2ZnS2
_chemical_formula_sum  K4Zn2S4
_cell_volume  260.8422382606544
_cell_formula_units_Z  2
loop_
  _symmetry_equiv_pos_site_id
 _symmetry_equiv_pos_as_xyz
 1  'x, y, z'
loop_
 _atom_site_type_symbol
 _atom_site_label
 _atom_site_symmetry_multiplicity
 _atom_site_fract_x
 _atom_site_fract_y
 _atom_site_fract_z
 _atom_site_fract_occupancy
 K  K1  1  0.81217  0.64575  0.16643  1
 K  K2  1  0.18783  0.35425  0.83357  1
 K  K3  1  0.47932  0.14575  0.33357  1
 K  K4  1  0.52068  0.85425  0.66643  1
 S  S1  1  0.70472  0.39626  0.30846  1
 S  S2  1  0.29528  0.60374  0.69154  1
 S  S3  1  0.08780  0.89626  0.19154  1
 S  S4  1  0.91220  0.10374  0.80846  1
 Zn  Zn1  1  0.00000  0.75000  0.75000  1
 Zn  Zn2  1  0.00000  0.25000  0.25000  1
