CIF file written using JARVIS-Tools package.
data_V6O7F5
_symmetry_space_group_name_H-M  'P1'
_cell_length_a       5.54777
_cell_length_b       5.53022
_cell_length_c       7.26373
_cell_angle_alpha    71.332
_cell_angle_beta     71.8217
_cell_angle_gamma    72.2628

_symmetry_Int_Tables_number  1
_chemical_formula_structural  V6O7F5
_chemical_formula_sum  V6O7F5
_cell_volume  195.33136790850213
_cell_formula_units_Z  1
loop_
  _symmetry_equiv_pos_site_id
 _symmetry_equiv_pos_as_xyz
 1  'x, y, z'
loop_
 _atom_site_type_symbol
 _atom_site_label
 _atom_site_symmetry_multiplicity
 _atom_site_fract_x
 _atom_site_fract_y
 _atom_site_fract_z
 _atom_site_fract_occupancy
 F  F1  1  0.29842  0.71169  0.99474  1
 F  F2  1  0.57622  0.57526  0.62718  1
 F  F3  1  0.36714  0.95253  0.33686  1
 F  F4  1  0.09720  0.10341  0.70216  1
 F  F5  1  0.88933  0.89088  0.30619  1
 O  O1  1  0.43297  0.42724  0.36335  1
 O  O2  1  0.04338  0.63346  0.66781  1
 O  O3  1  0.22949  0.23313  0.96463  1
 O  O4  1  0.77542  0.77008  0.03867  1
 O  O5  1  0.63127  0.03886  0.67106  1
 O  O6  1  0.68967  0.32173  0.99529  1
 O  O7  1  0.97055  0.34425  0.33441  1
 V  V1  1  0.97361  0.03710  0.00471  1
 V  V2  1  0.97458  0.99503  0.51383  1
 V  V3  1  0.32960  0.33119  0.16005  1
 V  V4  1  0.67820  0.61716  0.31488  1
 V  V5  1  0.33956  0.33721  0.66885  1
 V  V6  1  0.70339  0.67979  0.83533  1
