CIF file written using JARVIS-Tools package.
data_SmMn2SiC
_symmetry_space_group_name_H-M  'Cmcm'
_cell_length_a       5.63394
_cell_length_b       5.63395
_cell_length_c       7.00153
_cell_angle_alpha    90
_cell_angle_beta     90
_cell_angle_gamma    140.596

_symmetry_Int_Tables_number  63
_chemical_formula_structural  SmMn2SiC
_chemical_formula_sum  Sm2Mn4Si2C2
_cell_volume  141.07179077512825
_cell_formula_units_Z  2
loop_
  _symmetry_equiv_pos_site_id
 _symmetry_equiv_pos_as_xyz
 1  'x, y, z'
loop_
 _atom_site_type_symbol
 _atom_site_label
 _atom_site_symmetry_multiplicity
 _atom_site_fract_x
 _atom_site_fract_y
 _atom_site_fract_z
 _atom_site_fract_occupancy
 C  C1  1  0.00000  0.00000  0.00000  1
 C  C2  1  0.00000  0.00000  0.50000  1
 Mn  Mn1  1  0.83178  0.16822  0.06327  1
 Mn  Mn2  1  0.16822  0.83178  0.93673  1
 Mn  Mn3  1  0.16822  0.83178  0.56327  1
 Mn  Mn4  1  0.83178  0.16822  0.43673  1
 Si  Si1  1  0.26683  0.73317  0.25000  1
 Si  Si2  1  0.73317  0.26683  0.75000  1
 Sm  Sm1  1  0.54613  0.45387  0.25000  1
 Sm  Sm2  1  0.45387  0.54613  0.75000  1
