CIF file written using JARVIS-Tools package.
data_TiAlV2
_symmetry_space_group_name_H-M  'Cmm2'
_cell_length_a       2.69297
_cell_length_b       2.69296
_cell_length_c       8.51765
_cell_angle_alpha    90
_cell_angle_beta     90
_cell_angle_gamma    107.459

_symmetry_Int_Tables_number  35
_chemical_formula_structural  TiAlV2
_chemical_formula_sum  TiAlV2
_cell_volume  58.925013241112715
_cell_formula_units_Z  1
loop_
  _symmetry_equiv_pos_site_id
 _symmetry_equiv_pos_as_xyz
 1  'x, y, z'
loop_
 _atom_site_type_symbol
 _atom_site_label
 _atom_site_symmetry_multiplicity
 _atom_site_fract_x
 _atom_site_fract_y
 _atom_site_fract_z
 _atom_site_fract_occupancy
 Al  Al1  1  0.00000  0.00000  0.01065  1
 Ti  Ti1  1  0.50000  0.50000  0.73762  1
 V  V1  1  0.00000  0.00000  0.48994  1
 V  V2  1  0.50000  0.50000  0.26179  1
