CIF file written using JARVIS-Tools package.
data_Fe3O5F
_symmetry_space_group_name_H-M  'C2/m'
_cell_length_a       6.88815
_cell_length_b       5.22418
_cell_length_c       5.22418
_cell_angle_alpha    70.9572
_cell_angle_beta     71.876
_cell_angle_gamma    71.876

_symmetry_Int_Tables_number  12
_chemical_formula_structural  Fe3O5F
_chemical_formula_sum  Fe6O0F2
_cell_volume  164.22729260706961
_cell_formula_units_Z  2
loop_
  _symmetry_equiv_pos_site_id
 _symmetry_equiv_pos_as_xyz
 1  'x, y, z'
loop_
 _atom_site_type_symbol
 _atom_site_label
 _atom_site_symmetry_multiplicity
 _atom_site_fract_x
 _atom_site_fract_y
 _atom_site_fract_z
 _atom_site_fract_occupancy
 F  F1  1  0.03330  0.76560  0.76560  1
 F  F2  1  0.30003  0.90107  0.90107  1
 Fe  Fe1  1  0.99116  0.01229  0.01229  1
 Fe  Fe2  1  0.51622  0.00717  0.00717  1
 Fe  Fe3  1  0.81711  0.65950  0.65950  1
 Fe  Fe4  1  0.34218  0.65437  0.65437  1
 Fe  Fe5  1  0.66667  0.33333  0.33333  1
 Fe  Fe6  1  0.16667  0.33333  0.33333  1
 O  O1  1  -0.00343  0.69507  0.30246  1
 O  O2  1  -0.00343  0.30246  0.69507  1
 O  O3  1  0.33676  0.97159  0.36421  1
 O  O4  1  0.70520  0.10614  0.10614  1
 O  O5  1  0.96174  0.23224  0.23224  1
 O  O6  1  0.62813  0.56052  0.56052  1
 O  O7  1  0.33676  0.36421  0.97159  1
 O  O8  1  0.66667  0.02692  0.63974  1
 O  O9  1  0.37160  0.43442  0.43442  1
 O  O10  1  0.66667  0.63974  0.02692  1
