CIF file written using JARVIS-Tools package.
data_CeTh3O8
_symmetry_space_group_name_H-M  'Cmmm'
_cell_length_a       3.94803
_cell_length_b       6.83394
_cell_length_c       6.83394
_cell_angle_alpha    70.515
_cell_angle_beta     90
_cell_angle_gamma    90

_symmetry_Int_Tables_number  65
_chemical_formula_structural  CeTh3O8
_chemical_formula_sum  CeTh3O8
_cell_volume  173.82394994743674
_cell_formula_units_Z  1
loop_
  _symmetry_equiv_pos_site_id
 _symmetry_equiv_pos_as_xyz
 1  'x, y, z'
loop_
 _atom_site_type_symbol
 _atom_site_label
 _atom_site_symmetry_multiplicity
 _atom_site_fract_x
 _atom_site_fract_y
 _atom_site_fract_z
 _atom_site_fract_occupancy
 Ce  Ce1  1  0.00000  0.50000  0.50000  1
 O  O1  1  0.50000  0.87469  0.87469  1
 O  O2  1  -0.00000  0.37695  0.87090  1
 O  O3  1  0.50000  0.62237  0.62237  1
 O  O4  1  0.00000  0.87090  0.37695  1
 O  O5  1  0.00000  0.12910  0.62305  1
 O  O6  1  0.50000  0.37763  0.37763  1
 O  O7  1  -0.00000  0.62305  0.12910  1
 O  O8  1  0.50000  0.12531  0.12531  1
 Th  Th1  1  0.50000  0.50000  0.00000  1
 Th  Th2  1  0.50000  0.00000  0.50000  1
 Th  Th3  1  0.00000  0.00000  0.00000  1
