CIF file written using JARVIS-Tools package.
data_H3C3SNO
_symmetry_space_group_name_H-M  'P1'
_cell_length_a       4.91867
_cell_length_b       6.23118
_cell_length_c       6.49834
_cell_angle_alpha    78.4606
_cell_angle_beta     80.3941
_cell_angle_gamma    80.2208

_symmetry_Int_Tables_number  1
_chemical_formula_structural  H3C3SNO
_chemical_formula_sum  H6C6S2N2O2
_cell_volume  190.47699874036545
_cell_formula_units_Z  2
loop_
  _symmetry_equiv_pos_site_id
 _symmetry_equiv_pos_as_xyz
 1  'x, y, z'
loop_
 _atom_site_type_symbol
 _atom_site_label
 _atom_site_symmetry_multiplicity
 _atom_site_fract_x
 _atom_site_fract_y
 _atom_site_fract_z
 _atom_site_fract_occupancy
 C  C1  1  0.60942  0.25802  0.72253  1
 C  C2  1  0.10733  0.70420  0.23608  1
 C  C3  1  0.59646  0.71740  0.20571  1
 C  C4  1  0.12500  0.26213  0.71506  1
 C  C5  1  0.83782  0.39631  0.70093  1
 C  C6  1  0.81345  0.83232  0.25992  1
 H  H1  1  0.26101  -0.03190  0.29623  1
 H  H2  1  0.60146  0.15047  0.88001  1
 H  H3  1  0.29744  0.54715  0.68435  1
 H  H4  1  0.63904  0.71766  0.03256  1
 H  H5  1  0.62574  0.54096  0.27643  1
 H  H6  1  0.66771  0.14227  0.60965  1
 N  N1  1  0.31018  0.81209  0.26038  1
 N  N2  1  0.33576  0.37877  0.69642  1
 O  O1  1  0.80095  0.59930  0.67632  1
 O  O2  1  0.76713  0.01777  0.30573  1
 S  S1  1  0.16395  0.45204  0.17375  1
 S  S2  1  0.16464  0.98660  0.75707  1
