CIF file written using JARVIS-Tools package.
data_H6C7SO
_symmetry_space_group_name_H-M  'P1'
_cell_length_a       4.79856
_cell_length_b       4.59271
_cell_length_c       7.07629
_cell_angle_alpha    97.0945
_cell_angle_beta     102.972
_cell_angle_gamma    97.7522

_symmetry_Int_Tables_number  1
_chemical_formula_structural  H6C7SO
_chemical_formula_sum  H6C7SO
_cell_volume  148.65968603738622
_cell_formula_units_Z  1
loop_
  _symmetry_equiv_pos_site_id
 _symmetry_equiv_pos_as_xyz
 1  'x, y, z'
loop_
 _atom_site_type_symbol
 _atom_site_label
 _atom_site_symmetry_multiplicity
 _atom_site_fract_x
 _atom_site_fract_y
 _atom_site_fract_z
 _atom_site_fract_occupancy
 C  C1  1  0.65306  0.70949  0.90234  1
 C  C2  1  0.75330  0.73061  0.72887  1
 C  C3  1  0.43016  0.47480  0.87804  1
 C  C4  1  0.60888  0.51320  0.57396  1
 C  C5  1  0.27000  0.37051  0.02433  1
 C  C6  1  0.64270  0.47609  0.36775  1
 C  C7  1  0.38954  0.56285  0.22430  1
 H  H1  1  0.03826  0.38775  0.97592  1
 H  H2  1  0.67053  0.24753  0.31704  1
 H  H3  1  0.92709  0.90089  0.71687  1
 H  H4  1  0.74894  0.85934  0.04097  1
 H  H5  1  0.28615  0.13600  0.03710  1
 H  H6  1  0.84089  0.62647  0.36280  1
 O  O1  1  0.28890  0.78691  0.26782  1
 S  S1  1  0.34577  0.28101  0.64158  1
