CIF file written using JARVIS-Tools package.
data_WBr6
_symmetry_space_group_name_H-M  'R-3'
_cell_length_a       6.92925
_cell_length_b       6.92924
_cell_length_c       6.92925
_cell_angle_alpha    55.1054
_cell_angle_beta     55.1055
_cell_angle_gamma    55.1055

_symmetry_Int_Tables_number  148
_chemical_formula_structural  WBr6
_chemical_formula_sum  WBr6
_cell_volume  208.4774669014215
_cell_formula_units_Z  1
loop_
  _symmetry_equiv_pos_site_id
 _symmetry_equiv_pos_as_xyz
 1  'x, y, z'
loop_
 _atom_site_type_symbol
 _atom_site_label
 _atom_site_symmetry_multiplicity
 _atom_site_fract_x
 _atom_site_fract_y
 _atom_site_fract_z
 _atom_site_fract_occupancy
 Br  Br1  1  0.23578  0.60447  0.91622  1
 Br  Br2  1  0.91622  0.23578  0.60447  1
 Br  Br3  1  0.60447  0.91622  0.23578  1
 Br  Br4  1  0.76422  0.39553  0.08378  1
 Br  Br5  1  0.08378  0.76422  0.39553  1
 Br  Br6  1  0.39553  0.08378  0.76422  1
 W  W1  1  0.00000  0.00000  0.00000  1
