CIF file written using JARVIS-Tools package.
data_Li2MnF4
_symmetry_space_group_name_H-M  'I4/mmm'
_cell_length_a       5.30913
_cell_length_b       5.30912
_cell_length_c       5.30913
_cell_angle_alpha    134.165
_cell_angle_beta     134.165
_cell_angle_gamma    66.8303

_symmetry_Int_Tables_number  139
_chemical_formula_structural  Li2MnF4
_chemical_formula_sum  Li2MnF4
_cell_volume  75.76407094099399
_cell_formula_units_Z  1
loop_
  _symmetry_equiv_pos_site_id
 _symmetry_equiv_pos_as_xyz
 1  'x, y, z'
loop_
 _atom_site_type_symbol
 _atom_site_label
 _atom_site_symmetry_multiplicity
 _atom_site_fract_x
 _atom_site_fract_y
 _atom_site_fract_z
 _atom_site_fract_occupancy
 F  F1  1  0.76017  0.76017  0.00000  1
 F  F2  1  0.23983  0.23983  -0.00000  1
 F  F3  1  0.00000  0.50000  0.50000  1
 F  F4  1  0.50000  -0.00000  0.50000  1
 Li  Li1  1  0.25000  0.75000  0.50000  1
 Li  Li2  1  0.75000  0.25000  0.50000  1
 Mn  Mn1  1  0.00000  0.00000  0.00000  1
