CIF file written using JARVIS-Tools package.
data_HoHO2
_symmetry_space_group_name_H-M  'Pnma'
_cell_length_a       3.50254
_cell_length_b       5.02762
_cell_length_c       10.8619
_cell_angle_alpha    90
_cell_angle_beta     90
_cell_angle_gamma    90

_symmetry_Int_Tables_number  62
_chemical_formula_structural  HoHO2
_chemical_formula_sum  Ho4H4O8
_cell_volume  191.27123801540395
_cell_formula_units_Z  4
loop_
  _symmetry_equiv_pos_site_id
 _symmetry_equiv_pos_as_xyz
 1  'x, y, z'
loop_
 _atom_site_type_symbol
 _atom_site_label
 _atom_site_symmetry_multiplicity
 _atom_site_fract_x
 _atom_site_fract_y
 _atom_site_fract_z
 _atom_site_fract_occupancy
 H  H1  1  0.25000  0.13521  0.59920  1
 H  H2  1  0.25000  0.36479  0.09920  1
 H  H3  1  0.75000  0.63521  0.90080  1
 H  H4  1  0.75000  0.86479  0.40080  1
 Ho  Ho1  1  0.25000  0.09995  0.85609  1
 Ho  Ho2  1  0.25000  0.40005  0.35609  1
 Ho  Ho3  1  0.75000  0.59995  0.64391  1
 Ho  Ho4  1  0.75000  0.90005  0.14391  1
 O  O1  1  0.25000  0.17707  0.06731  1
 O  O2  1  0.75000  0.15131  0.31072  1
 O  O3  1  0.75000  0.34869  0.81072  1
 O  O4  1  0.25000  0.32293  0.56731  1
 O  O5  1  0.75000  0.67707  0.43269  1
 O  O6  1  0.25000  0.65131  0.18928  1
 O  O7  1  0.25000  0.84869  0.68928  1
 O  O8  1  0.75000  0.82293  0.93269  1
