CIF file written using JARVIS-Tools package.
data_MgH2C3O4
_symmetry_space_group_name_H-M  'Cc'
_cell_length_a       4.69773
_cell_length_b       5.90035
_cell_length_c       6.97733
_cell_angle_alpha    106.698
_cell_angle_beta     109.67
_cell_angle_gamma    90.0063

_symmetry_Int_Tables_number  9
_chemical_formula_structural  MgH2C3O4
_chemical_formula_sum  Mg2H4C6O8
_cell_volume  173.4270247444476
_cell_formula_units_Z  2
loop_
  _symmetry_equiv_pos_site_id
 _symmetry_equiv_pos_as_xyz
 1  'x, y, z'
loop_
 _atom_site_type_symbol
 _atom_site_label
 _atom_site_symmetry_multiplicity
 _atom_site_fract_x
 _atom_site_fract_y
 _atom_site_fract_z
 _atom_site_fract_occupancy
 C  C1  1  0.18335  0.69982  0.47970  1
 C  C2  1  0.86323  0.28952  0.89648  1
 C  C3  1  0.17162  0.82606  0.69870  1
 C  C4  1  0.89463  0.32605  0.69870  1
 C  C5  1  0.40078  0.78952  0.89647  1
 C  C6  1  0.66388  0.19982  0.47970  1
 H  H1  1  0.84733  0.51188  0.71528  1
 H  H2  1  0.93763  0.81234  0.69473  1
 H  H3  1  0.12464  0.31232  0.69472  1
 H  H4  1  0.23555  0.01189  0.71528  1
 Mg  Mg1  1  0.52257  0.48278  0.18536  1
 Mg  Mg2  1  0.03033  0.98279  0.18536  1
 O  O1  1  0.40668  0.11060  0.45453  1
 O  O2  1  0.74397  0.21361  0.32174  1
 O  O3  1  0.41536  0.61059  0.45453  1
 O  O4  1  0.61095  0.31953  0.92029  1
 O  O5  1  0.67687  0.81953  0.92027  1
 O  O6  1  0.09731  0.24384  0.03847  1
 O  O7  1  0.30870  0.74384  0.03848  1
 O  O8  1  0.94532  0.71360  0.32174  1
