CIF file written using JARVIS-Tools package.
data_LiAgF2
_symmetry_space_group_name_H-M  'R-3m'
_cell_length_a       6.50659
_cell_length_b       6.50659
_cell_length_c       6.50659
_cell_angle_alpha    26.489
_cell_angle_beta     26.489
_cell_angle_gamma    26.489

_symmetry_Int_Tables_number  166
_chemical_formula_structural  LiAgF2
_chemical_formula_sum  LiAgF2
_cell_volume  48.30258960947248
_cell_formula_units_Z  1
loop_
  _symmetry_equiv_pos_site_id
 _symmetry_equiv_pos_as_xyz
 1  'x, y, z'
loop_
 _atom_site_type_symbol
 _atom_site_label
 _atom_site_symmetry_multiplicity
 _atom_site_fract_x
 _atom_site_fract_y
 _atom_site_fract_z
 _atom_site_fract_occupancy
 Ag  Ag1  1  0.00000  0.00000  0.00000  1
 F  F1  1  0.11019  0.11019  0.11019  1
 F  F2  1  0.88981  0.88981  0.88981  1
 Li  Li1  1  0.50000  0.50000  0.50000  1
