CIF file written using JARVIS-Tools package.
data_K2Mg2Si2O7
_symmetry_space_group_name_H-M  'P-31m'
_cell_length_a       5.11582
_cell_length_b       5.11582
_cell_length_c       6.63286
_cell_angle_alpha    90
_cell_angle_beta     90
_cell_angle_gamma    120

_symmetry_Int_Tables_number  162
_chemical_formula_structural  K2Mg2Si2O7
_chemical_formula_sum  K2Mg2Si2O7
_cell_volume  150.33562369871282
_cell_formula_units_Z  1
loop_
  _symmetry_equiv_pos_site_id
 _symmetry_equiv_pos_as_xyz
 1  'x, y, z'
loop_
 _atom_site_type_symbol
 _atom_site_label
 _atom_site_symmetry_multiplicity
 _atom_site_fract_x
 _atom_site_fract_y
 _atom_site_fract_z
 _atom_site_fract_occupancy
 K  K1  1  0.33334  0.66667  0.50000  1
 K  K2  1  0.66666  0.33333  0.50000  1
 Mg  Mg1  1  0.66667  0.33333  0.00000  1
 Mg  Mg2  1  0.33333  0.66667  0.00000  1
 O  O1  1  0.00000  0.00000  0.50000  1
 O  O2  1  0.68808  0.00000  0.18078  1
 O  O3  1  0.31192  0.31192  0.18078  1
 O  O4  1  0.00000  0.68809  0.18078  1
 O  O5  1  0.31192  -0.00000  0.81922  1
 O  O6  1  0.68808  0.68808  0.81922  1
 O  O7  1  -0.00000  0.31191  0.81922  1
 Si  Si1  1  -0.00000  0.00000  0.75804  1
 Si  Si2  1  0.00000  -0.00000  0.24196  1
