CIF file written using JARVIS-Tools package.
data_YbCuGe
_symmetry_space_group_name_H-M  'P6_3/mmc'
_cell_length_a       4.29476
_cell_length_b       4.29476
_cell_length_c       6.95978
_cell_angle_alpha    90
_cell_angle_beta     90
_cell_angle_gamma    120

_symmetry_Int_Tables_number  194
_chemical_formula_structural  YbCuGe
_chemical_formula_sum  Yb2Cu2Ge2
_cell_volume  111.1739619181565
_cell_formula_units_Z  2
loop_
  _symmetry_equiv_pos_site_id
 _symmetry_equiv_pos_as_xyz
 1  'x, y, z'
loop_
 _atom_site_type_symbol
 _atom_site_label
 _atom_site_symmetry_multiplicity
 _atom_site_fract_x
 _atom_site_fract_y
 _atom_site_fract_z
 _atom_site_fract_occupancy
 Cu  Cu1  1  0.33333  0.66667  0.75417  1
 Cu  Cu2  1  0.66667  0.33333  0.25417  1
 Ge  Ge1  1  0.66667  0.33333  0.75439  1
 Ge  Ge2  1  0.33333  0.66667  0.25439  1
 Yb  Yb1  1  0.00000  0.00000  0.50434  1
 Yb  Yb2  1  0.00000  0.00000  0.00434  1
