CIF file written using JARVIS-Tools package.
data_Na3VO4
_symmetry_space_group_name_H-M  'I-42m'
_cell_length_a       5.92915
_cell_length_b       5.92915
_cell_length_c       5.92916
_cell_angle_alpha    130.006
_cell_angle_beta     130.006
_cell_angle_gamma    73.3965

_symmetry_Int_Tables_number  121
_chemical_formula_structural  Na3VO4
_chemical_formula_sum  Na3VO4
_cell_volume  119.36929385741972
_cell_formula_units_Z  1
loop_
  _symmetry_equiv_pos_site_id
 _symmetry_equiv_pos_as_xyz
 1  'x, y, z'
loop_
 _atom_site_type_symbol
 _atom_site_label
 _atom_site_symmetry_multiplicity
 _atom_site_fract_x
 _atom_site_fract_y
 _atom_site_fract_z
 _atom_site_fract_occupancy
 Na  Na1  1  0.50000  0.50000  -0.00000  1
 Na  Na2  1  0.75000  0.25000  0.50000  1
 Na  Na3  1  0.25000  0.75000  0.50000  1
 O  O1  1  0.69424  0.09627  0.00000  1
 O  O2  1  0.30576  0.30576  0.40203  1
 O  O3  1  0.90373  0.90373  0.59797  1
 O  O4  1  0.09627  0.69424  0.00000  1
 V  V1  1  0.00000  0.00000  0.00000  1
