CIF file written using JARVIS-Tools package.
data_NiH2O2
_symmetry_space_group_name_H-M  'P-3m1'
_cell_length_a       3.15128
_cell_length_b       3.15085
_cell_length_c       4.43623
_cell_angle_alpha    89.9997
_cell_angle_beta     90.0225
_cell_angle_gamma    119.996

_symmetry_Int_Tables_number  164
_chemical_formula_structural  NiH2O2
_chemical_formula_sum  NiH2O2
_cell_volume  38.148232116633686
_cell_formula_units_Z  1
loop_
  _symmetry_equiv_pos_site_id
 _symmetry_equiv_pos_as_xyz
 1  'x, y, z'
loop_
 _atom_site_type_symbol
 _atom_site_label
 _atom_site_symmetry_multiplicity
 _atom_site_fract_x
 _atom_site_fract_y
 _atom_site_fract_z
 _atom_site_fract_occupancy
 H  H1  1  0.66664  0.26993  0.55458  1
 H  H2  1  0.33336  0.60328  0.44542  1
 Ni  Ni1  1  -0.00000  0.93661  0.00000  1
 O  O1  1  0.66653  0.26988  0.77490  1
 O  O2  1  0.33347  0.60334  0.22510  1
