CIF file written using JARVIS-Tools package.
data_MoWSeS3
_symmetry_space_group_name_H-M  'P3m1'
_cell_length_a       3.225
_cell_length_b       3.22499
_cell_length_c       34.0732
_cell_angle_alpha    90.0008
_cell_angle_beta     89.9999
_cell_angle_gamma    120.001

_symmetry_Int_Tables_number  156
_chemical_formula_structural  MoWSeS3
_chemical_formula_sum  Mo2W2Se2S6
_cell_volume  306.9010482813918
_cell_formula_units_Z  2
loop_
  _symmetry_equiv_pos_site_id
 _symmetry_equiv_pos_as_xyz
 1  'x, y, z'
loop_
 _atom_site_type_symbol
 _atom_site_label
 _atom_site_symmetry_multiplicity
 _atom_site_fract_x
 _atom_site_fract_y
 _atom_site_fract_z
 _atom_site_fract_occupancy
 Mo  Mo1  1  0.33332  0.66664  0.09339  1
 Mo  Mo2  1  0.33333  0.66665  0.47200  1
 S  S1  1  0.33334  0.66668  0.70072  1
 S  S2  1  0.66664  0.33328  0.04777  1
 S  S3  1  0.66666  0.33332  0.42633  1
 S  S4  1  0.66667  0.33333  0.13908  1
 S  S5  1  0.66666  0.33333  0.51767  1
 S  S6  1  0.33336  0.66672  0.60893  1
 Se  Se1  1  0.33334  0.66668  0.33319  1
 Se  Se2  1  0.33333  0.66665  0.23216  1
 W  W1  1  0.66667  0.33334  0.28267  1
 W  W2  1  0.66668  0.33337  0.65484  1
