CIF file written using JARVIS-Tools package.
data_SnH6C4O4
_symmetry_space_group_name_H-M  'P1'
_cell_length_a       6.21504
_cell_length_b       6.00863
_cell_length_c       6.00887
_cell_angle_alpha    72.5731
_cell_angle_beta     62.0122
_cell_angle_gamma    61.9893

_symmetry_Int_Tables_number  1
_chemical_formula_structural  SnH6C4O4
_chemical_formula_sum  SnH6C4O4
_cell_volume  174.0368763234421
_cell_formula_units_Z  1
loop_
  _symmetry_equiv_pos_site_id
 _symmetry_equiv_pos_as_xyz
 1  'x, y, z'
loop_
 _atom_site_type_symbol
 _atom_site_label
 _atom_site_symmetry_multiplicity
 _atom_site_fract_x
 _atom_site_fract_y
 _atom_site_fract_z
 _atom_site_fract_occupancy
 C  C1  1  0.05681  0.42173  0.08582  1
 C  C2  1  0.88525  0.10388  0.76807  1
 C  C3  1  0.47862  0.02722  0.47258  1
 C  C4  1  0.47873  0.80857  0.69114  1
 H  H1  1  0.96558  0.53957  0.94971  1
 H  H2  1  0.96569  0.28536  0.20264  1
 H  H3  1  0.03535  0.54213  0.20724  1
 H  H4  1  -0.01316  0.96694  0.62847  1
 H  H5  1  0.93511  0.27083  0.68212  1
 H  H6  1  0.93558  0.01464  0.93451  1
 O  O1  1  0.47859  -0.00585  0.27721  1
 O  O2  1  0.47590  0.84874  0.89001  1
 O  O3  1  0.47556  0.22619  0.51281  1
 O  O4  1  0.47861  0.61323  0.65810  1
 Sn  Sn1  1  0.46973  0.22270  0.88660  1
