CIF file written using JARVIS-Tools package.
data_Mn6O7F5
_symmetry_space_group_name_H-M  'Cm'
_cell_length_a       7.24146
_cell_length_b       5.49996
_cell_length_c       5.49996
_cell_angle_alpha    71.6333
_cell_angle_beta     71.6206
_cell_angle_gamma    71.6206

_symmetry_Int_Tables_number  8
_chemical_formula_structural  Mn6O7F5
_chemical_formula_sum  Mn6O7F5
_cell_volume  191.53205720134224
_cell_formula_units_Z  1
loop_
  _symmetry_equiv_pos_site_id
 _symmetry_equiv_pos_as_xyz
 1  'x, y, z'
loop_
 _atom_site_type_symbol
 _atom_site_label
 _atom_site_symmetry_multiplicity
 _atom_site_fract_x
 _atom_site_fract_y
 _atom_site_fract_z
 _atom_site_fract_occupancy
 F  F1  1  -0.00006  0.69198  0.32091  1
 F  F2  1  0.63750  0.57995  0.57995  1
 F  F3  1  0.30057  0.88073  0.88073  1
 F  F4  1  -0.00006  0.32091  0.69198  1
 F  F5  1  0.70249  0.10232  0.10232  1
 Mn  Mn1  1  0.82503  0.70022  0.70022  1
 Mn  Mn2  1  0.49571  0.99781  0.99781  1
 Mn  Mn3  1  0.18477  0.30943  0.30943  1
 Mn  Mn4  1  0.31417  0.64705  0.64705  1
 Mn  Mn5  1  0.67203  0.33933  0.33933  1
 Mn  Mn6  1  0.00150  0.00552  0.00552  1
 O  O1  1  0.66560  0.64758  0.03683  1
 O  O2  1  0.33218  0.95642  0.35131  1
 O  O3  1  0.96547  0.23159  0.23159  1
 O  O4  1  0.33218  0.35131  0.95642  1
 O  O5  1  0.66560  0.03683  0.64758  1
 O  O6  1  0.02768  0.77860  0.77860  1
 O  O7  1  0.37764  0.42240  0.42240  1
