CIF file written using JARVIS-Tools package.
data_TmScB2O6
_symmetry_space_group_name_H-M  'R-3'
_cell_length_a       5.95689
_cell_length_b       5.95689
_cell_length_c       5.95689
_cell_angle_alpha    48.2341
_cell_angle_beta     48.2341
_cell_angle_gamma    48.2341

_symmetry_Int_Tables_number  148
_chemical_formula_structural  TmScB2O6
_chemical_formula_sum  TmScB2O6
_cell_volume  107.78805536693149
_cell_formula_units_Z  1
loop_
  _symmetry_equiv_pos_site_id
 _symmetry_equiv_pos_as_xyz
 1  'x, y, z'
loop_
 _atom_site_type_symbol
 _atom_site_label
 _atom_site_symmetry_multiplicity
 _atom_site_fract_x
 _atom_site_fract_y
 _atom_site_fract_z
 _atom_site_fract_occupancy
 B  B1  1  0.24621  0.24621  0.24621  1
 B  B2  1  0.75379  0.75379  0.75379  1
 O  O1  1  0.52467  0.95586  0.26144  1
 O  O2  1  0.26144  0.52467  0.95586  1
 O  O3  1  0.95586  0.26144  0.52467  1
 O  O4  1  0.73856  0.47533  0.04414  1
 O  O5  1  0.04414  0.73856  0.47533  1
 O  O6  1  0.47533  0.04414  0.73856  1
 Sc  Sc1  1  0.50000  0.50000  0.50000  1
 Tm  Tm1  1  0.00000  0.00000  0.00000  1
