CIF file written using JARVIS-Tools package.
data_HfP
_symmetry_space_group_name_H-M  'P6_3/mmc'
_cell_length_a       3.67496
_cell_length_b       3.67496
_cell_length_c       12.4083
_cell_angle_alpha    90
_cell_angle_beta     90
_cell_angle_gamma    120

_symmetry_Int_Tables_number  194
_chemical_formula_structural  HfP
_chemical_formula_sum  Hf4P4
_cell_volume  145.1275466483462
_cell_formula_units_Z  4
loop_
  _symmetry_equiv_pos_site_id
 _symmetry_equiv_pos_as_xyz
 1  'x, y, z'
loop_
 _atom_site_type_symbol
 _atom_site_label
 _atom_site_symmetry_multiplicity
 _atom_site_fract_x
 _atom_site_fract_y
 _atom_site_fract_z
 _atom_site_fract_occupancy
 Hf  Hf1  1  0.33333  0.66667  0.61631  1
 Hf  Hf2  1  0.66667  0.33333  0.11631  1
 Hf  Hf3  1  0.66667  0.33333  0.38369  1
 Hf  Hf4  1  0.33333  0.66667  0.88369  1
 P  P1  1  0.66667  0.33333  0.75000  1
 P  P2  1  0.33333  0.66667  0.25000  1
 P  P3  1  0.00000  0.00000  0.50000  1
 P  P4  1  0.00000  0.00000  0.00000  1
