CIF file written using JARVIS-Tools package.
data_Na2ThF6
_symmetry_space_group_name_H-M  'Immm'
_cell_length_a       6.70122
_cell_length_b       6.70123
_cell_length_c       6.70122
_cell_angle_alpha    144.57
_cell_angle_beta     131.192
_cell_angle_gamma    61.7447

_symmetry_Int_Tables_number  71
_chemical_formula_structural  Na2ThF6
_chemical_formula_sum  Na2ThF6
_cell_volume  129.8907774513227
_cell_formula_units_Z  1
loop_
  _symmetry_equiv_pos_site_id
 _symmetry_equiv_pos_as_xyz
 1  'x, y, z'
loop_
 _atom_site_type_symbol
 _atom_site_label
 _atom_site_symmetry_multiplicity
 _atom_site_fract_x
 _atom_site_fract_y
 _atom_site_fract_z
 _atom_site_fract_occupancy
 F  F1  1  0.76589  0.50000  0.26589  1
 F  F2  1  0.40531  0.15764  0.24766  1
 F  F3  1  0.09002  0.84236  0.24766  1
 F  F4  1  0.23411  0.50000  0.73411  1
 F  F5  1  0.90998  0.15764  0.75234  1
 F  F6  1  0.59469  0.84236  0.75234  1
 Na  Na1  1  0.67396  0.67396  0.00000  1
 Na  Na2  1  0.32604  0.32604  -0.00000  1
 Th  Th1  1  0.00000  0.00000  0.00000  1
