CIF file written using JARVIS-Tools package.
data_TeAs2
_symmetry_space_group_name_H-M  'I4_1/amd'
_cell_length_a       5.8605
_cell_length_b       5.8605
_cell_length_c       5.8605
_cell_angle_alpha    104.373
_cell_angle_beta     104.373
_cell_angle_gamma    120.234

_symmetry_Int_Tables_number  141
_chemical_formula_structural  TeAs2
_chemical_formula_sum  Te2As4
_cell_volume  150.78131469713207
_cell_formula_units_Z  2
loop_
  _symmetry_equiv_pos_site_id
 _symmetry_equiv_pos_as_xyz
 1  'x, y, z'
loop_
 _atom_site_type_symbol
 _atom_site_label
 _atom_site_symmetry_multiplicity
 _atom_site_fract_x
 _atom_site_fract_y
 _atom_site_fract_z
 _atom_site_fract_occupancy
 As  As1  1  0.62500  0.37500  0.75000  1
 As  As2  1  0.62500  0.87500  0.25000  1
 As  As3  1  0.62500  0.37500  0.25000  1
 As  As4  1  0.12500  0.37500  0.75000  1
 Te  Te1  1  0.00000  0.00000  0.00000  1
 Te  Te2  1  0.25000  0.75000  0.50000  1
