CIF file written using JARVIS-Tools package.
data_ErUTe4
_symmetry_space_group_name_H-M  'Imm2'
_cell_length_a       7.95935
_cell_length_b       7.95935
_cell_length_c       7.95935
_cell_angle_alpha    149.567
_cell_angle_beta     134.425
_cell_angle_gamma    55.7919

_symmetry_Int_Tables_number  44
_chemical_formula_structural  ErUTe4
_chemical_formula_sum  ErUTe4
_cell_volume  181.2109402466866
_cell_formula_units_Z  1
loop_
  _symmetry_equiv_pos_site_id
 _symmetry_equiv_pos_as_xyz
 1  'x, y, z'
loop_
 _atom_site_type_symbol
 _atom_site_label
 _atom_site_symmetry_multiplicity
 _atom_site_fract_x
 _atom_site_fract_y
 _atom_site_fract_z
 _atom_site_fract_occupancy
 Er  Er1  1  0.86156  0.86156  0.00000  1
 Te  Te1  1  0.70470  0.20470  0.50000  1
 Te  Te2  1  0.29573  0.79573  0.50000  1
 Te  Te3  1  0.75229  0.50101  0.25128  1
 Te  Te4  1  0.24972  0.50101  0.74872  1
 U  U1  1  0.13600  0.13600  -0.00000  1
