CIF file written using JARVIS-Tools package.
data_CoH2O2
_symmetry_space_group_name_H-M  'P-3m1'
_cell_length_a       3.14492
_cell_length_b       3.14432
_cell_length_c       4.57203
_cell_angle_alpha    90.0016
_cell_angle_beta     89.9952
_cell_angle_gamma    119.991

_symmetry_Int_Tables_number  164
_chemical_formula_structural  CoH2O2
_chemical_formula_sum  CoH2O2
_cell_volume  39.15769276701675
_cell_formula_units_Z  1
loop_
  _symmetry_equiv_pos_site_id
 _symmetry_equiv_pos_as_xyz
 1  'x, y, z'
loop_
 _atom_site_type_symbol
 _atom_site_label
 _atom_site_symmetry_multiplicity
 _atom_site_fract_x
 _atom_site_fract_y
 _atom_site_fract_z
 _atom_site_fract_occupancy
 Co  Co1  1  0.00001  0.93722  -0.00001  1
 H  H1  1  0.66673  0.27057  0.55558  1
 H  H2  1  0.33327  0.60385  0.44443  1
 O  O1  1  0.66665  0.27052  0.76917  1
 O  O2  1  0.33335  0.60389  0.23083  1
