CIF file written using JARVIS-Tools package.
data_Nd2Ge2Ru
_symmetry_space_group_name_H-M  'C2/m'
_cell_length_a       6.00225
_cell_length_b       6.00225
_cell_length_c       10.6245
_cell_angle_alpha    62.6276
_cell_angle_beta     62.6276
_cell_angle_gamma    42.4633

_symmetry_Int_Tables_number  12
_chemical_formula_structural  Nd2Ge2Ru
_chemical_formula_sum  Nd4Ge4Ru2
_cell_volume  224.79076508505113
_cell_formula_units_Z  2
loop_
  _symmetry_equiv_pos_site_id
 _symmetry_equiv_pos_as_xyz
 1  'x, y, z'
loop_
 _atom_site_type_symbol
 _atom_site_label
 _atom_site_symmetry_multiplicity
 _atom_site_fract_x
 _atom_site_fract_y
 _atom_site_fract_z
 _atom_site_fract_occupancy
 Ge  Ge1  1  0.65447  0.65447  0.43156  1
 Ge  Ge2  1  0.34553  0.34553  0.56844  1
 Ge  Ge3  1  0.50585  0.50585  0.12778  1
 Ge  Ge4  1  0.49415  0.49415  0.87222  1
 Nd  Nd1  1  0.00384  0.00384  0.32599  1
 Nd  Nd2  1  -0.00384  -0.00384  0.67401  1
 Nd  Nd3  1  0.81513  0.81513  0.10855  1
 Nd  Nd4  1  0.18487  0.18487  0.89145  1
 Ru  Ru1  1  0.72396  0.72396  0.62404  1
 Ru  Ru2  1  0.27604  0.27604  0.37596  1
