CIF file written using JARVIS-Tools package.
data_H7C4
_symmetry_space_group_name_H-M  'P2_1/c'
_cell_length_a       9.2116
_cell_length_b       4.75053
_cell_length_c       8.34283
_cell_angle_alpha    90
_cell_angle_beta     100.891
_cell_angle_gamma    90

_symmetry_Int_Tables_number  14
_chemical_formula_structural  H7C4
_chemical_formula_sum  H28C6
_cell_volume  358.5057514855687
_cell_formula_units_Z  4
loop_
  _symmetry_equiv_pos_site_id
 _symmetry_equiv_pos_as_xyz
 1  'x, y, z'
loop_
 _atom_site_type_symbol
 _atom_site_label
 _atom_site_symmetry_multiplicity
 _atom_site_fract_x
 _atom_site_fract_y
 _atom_site_fract_z
 _atom_site_fract_occupancy
 C  C1  1  0.96029  0.43363  0.06319  1
 C  C2  1  0.80572  0.94048  0.55979  1
 C  C3  1  0.96029  0.06637  0.56319  1
 C  C4  1  0.80572  0.55952  0.05979  1
 C  C5  1  0.19428  0.44048  0.94021  1
 C  C6  1  0.03971  0.93363  0.43681  1
 C  C7  1  0.72692  0.41730  0.17922  1
 C  C8  1  0.19428  0.05952  0.44021  1
 C  C9  1  0.27308  0.91730  0.32078  1
 C  C10  1  0.72692  0.08270  0.67922  1
 C  C11  1  0.60681  0.25681  0.13708  1
 C  C12  1  0.39319  0.74319  0.86292  1
 C  C13  1  0.60681  0.24319  0.63708  1
 C  C14  1  0.03971  0.56637  0.93681  1
 C  C15  1  0.39319  0.75681  0.36292  1
 C  C16  1  0.27308  0.58270  0.82078  1
 H  H1  1  0.55571  0.27285  0.50923  1
 H  H2  1  0.77518  0.44545  0.30866  1
 H  H3  1  0.22482  0.55455  0.69134  1
 H  H4  1  0.22482  0.94545  0.19134  1
 H  H5  1  0.77518  0.05455  0.80866  1
 H  H6  1  0.55571  0.22715  0.00923  1
 H  H7  1  0.55375  0.34807  0.72692  1
 H  H8  1  0.55375  0.15193  0.22692  1
 H  H9  1  0.02840  0.45929  0.18603  1
 H  H10  1  0.97160  0.54071  0.81397  1
 H  H11  1  0.97160  0.95929  0.31397  1
 H  H12  1  0.02840  0.04071  0.68603  1
 H  H13  1  0.94946  0.20488  0.04122  1
 H  H14  1  0.05054  0.79512  0.95878  1
 H  H15  1  0.94946  0.29512  0.54122  1
 H  H16  1  0.81704  0.78644  0.08822  1
 H  H17  1  0.44429  0.72715  0.49077  1
 H  H18  1  0.18296  0.21356  0.91178  1
 H  H19  1  0.81704  0.71356  0.58822  1
 H  H20  1  0.73950  0.54209  0.93566  1
 H  H21  1  0.26050  0.45791  0.06434  1
 H  H22  1  0.05054  0.70488  0.45878  1
 H  H23  1  0.73950  0.95791  0.43566  1
 H  H24  1  0.26050  0.04209  0.56434  1
 H  H25  1  0.44625  0.65193  0.27308  1
 H  H26  1  0.44625  0.84807  0.77308  1
 H  H27  1  0.18296  0.28644  0.41178  1
 H  H28  1  0.44429  0.77285  0.99077  1
