CIF file written using JARVIS-Tools package.
data_SnH22C12O4
_symmetry_space_group_name_H-M  'P1'
_cell_length_a       4.96605
_cell_length_b       7.58163
_cell_length_c       9.7893
_cell_angle_alpha    71.6038
_cell_angle_beta     85.1907
_cell_angle_gamma    77.7328

_symmetry_Int_Tables_number  1
_chemical_formula_structural  SnH22C12O4
_chemical_formula_sum  SnH22C2O4
_cell_volume  341.69719222079755
_cell_formula_units_Z  1
loop_
  _symmetry_equiv_pos_site_id
 _symmetry_equiv_pos_as_xyz
 1  'x, y, z'
loop_
 _atom_site_type_symbol
 _atom_site_label
 _atom_site_symmetry_multiplicity
 _atom_site_fract_x
 _atom_site_fract_y
 _atom_site_fract_z
 _atom_site_fract_occupancy
 C  C1  1  0.51241  0.44976  0.52627  1
 C  C2  1  0.30345  0.05737  0.21681  1
 C  C3  1  0.76926  0.42925  0.29908  1
 C  C4  1  0.36712  0.58055  0.61308  1
 C  C5  1  0.87117  0.28233  0.92654  1
 C  C6  1  0.57515  0.55928  0.36897  1
 C  C7  1  0.92580  0.81045  0.64918  1
 C  C8  1  0.08757  0.69784  0.55295  1
 C  C9  1  0.90208  0.04060  0.78946  1
 C  C10  1  0.06419  0.95884  0.67575  1
 C  C11  1  0.03868  0.18161  0.82647  1
 C  C12  1  0.35249  0.63927  0.01865  1
 H  H1  1  0.96377  0.60064  0.53892  1
 H  H2  1  0.07835  0.07372  0.57387  1
 H  H3  1  0.72404  0.88476  0.60068  1
 H  H4  1  0.11493  0.79517  0.44468  1
 H  H5  1  0.88252  0.71007  0.75413  1
 H  H6  1  0.69192  0.10909  0.75177  1
 H  H7  1  0.50395  0.67510  0.61694  1
 H  H8  1  0.08672  0.04525  0.22304  1
 H  H9  1  0.38789  0.01401  0.32490  1
 H  H10  1  0.56058  0.65718  0.03245  1
 H  H11  1  0.19600  0.73024  0.06519  1
 H  H12  1  0.33946  0.49415  0.72536  1
 H  H13  1  0.42738  0.97484  0.15169  1
 H  H14  1  0.38708  0.34612  0.52571  1
 H  H15  1  0.70741  0.36808  0.57824  1
 H  H16  1  0.67072  0.67870  0.36502  1
 H  H17  1  0.31576  0.66840  0.90443  1
 H  H18  1  0.27764  0.89681  0.71143  1
 H  H19  1  0.38184  0.61402  0.30963  1
 H  H20  1  0.87766  0.92392  0.88793  1
 H  H21  1  0.24278  0.11424  0.87427  1
 H  H22  1  0.07990  0.29364  0.72805  1
 O  O1  1  -0.02311  0.39334  0.97133  1
 O  O2  1  0.68021  0.30234  0.26495  1
 O  O3  1  0.62557  0.25514  0.95799  1
 O  O4  1  0.02126  0.44694  0.28193  1
 Sn  Sn1  1  0.32670  0.34855  0.12062  1
