CIF file written using JARVIS-Tools package.
data_Ho2Ga3Ni
_symmetry_space_group_name_H-M  'Cm'
_cell_length_a       5.50331
_cell_length_b       5.50331
_cell_length_c       7.02639
_cell_angle_alpha    51.4145
_cell_angle_beta     51.4145
_cell_angle_gamma    46.2312

_symmetry_Int_Tables_number  8
_chemical_formula_structural  Ho2Ga3Ni
_chemical_formula_sum  Ho2Ga3Ni
_cell_volume  112.94202326834444
_cell_formula_units_Z  1
loop_
  _symmetry_equiv_pos_site_id
 _symmetry_equiv_pos_as_xyz
 1  'x, y, z'
loop_
 _atom_site_type_symbol
 _atom_site_label
 _atom_site_symmetry_multiplicity
 _atom_site_fract_x
 _atom_site_fract_y
 _atom_site_fract_z
 _atom_site_fract_occupancy
 Ga  Ga1  1  0.85187  0.85187  0.68091  1
 Ga  Ga2  1  0.82379  0.82379  0.12488  1
 Ga  Ga3  1  0.16314  0.16314  0.90622  1
 Ho  Ho1  1  0.53857  0.53857  0.70974  1
 Ho  Ho2  1  0.45338  0.45338  0.29679  1
 Ni  Ni1  1  0.16926  0.16926  0.28145  1
