CIF file written using JARVIS-Tools package.
data_UMn2SiC
_symmetry_space_group_name_H-M  'Cmcm'
_cell_length_a       5.6504
_cell_length_b       5.6504
_cell_length_c       6.6126
_cell_angle_alpha    90
_cell_angle_beta     90
_cell_angle_gamma    141.18

_symmetry_Int_Tables_number  63
_chemical_formula_structural  UMn2SiC
_chemical_formula_sum  U2Mn4Si2C2
_cell_volume  132.34719478082363
_cell_formula_units_Z  2
loop_
  _symmetry_equiv_pos_site_id
 _symmetry_equiv_pos_as_xyz
 1  'x, y, z'
loop_
 _atom_site_type_symbol
 _atom_site_label
 _atom_site_symmetry_multiplicity
 _atom_site_fract_x
 _atom_site_fract_y
 _atom_site_fract_z
 _atom_site_fract_occupancy
 C  C1  1  0.00000  0.00000  0.00000  1
 C  C2  1  0.00000  0.00000  0.50000  1
 Mn  Mn1  1  0.83372  0.16628  0.06066  1
 Mn  Mn2  1  0.16628  0.83372  0.93934  1
 Mn  Mn3  1  0.16628  0.83372  0.56066  1
 Mn  Mn4  1  0.83372  0.16628  0.43934  1
 Si  Si1  1  0.27564  0.72436  0.25000  1
 Si  Si2  1  0.72436  0.27564  0.75000  1
 U  U1  1  0.55730  0.44270  0.25000  1
 U  U2  1  0.44270  0.55730  0.75000  1
