CIF file written using JARVIS-Tools package.
data_SnH4C2F2
_symmetry_space_group_name_H-M  'P-1'
_cell_length_a       4.82917
_cell_length_b       6.08969
_cell_length_c       6.77045
_cell_angle_alpha    68.2618
_cell_angle_beta     76.5718
_cell_angle_gamma    67.7458

_symmetry_Int_Tables_number  2
_chemical_formula_structural  SnH4C2F2
_chemical_formula_sum  Sn2H8C4F4
_cell_volume  170.18895840453234
_cell_formula_units_Z  2
loop_
  _symmetry_equiv_pos_site_id
 _symmetry_equiv_pos_as_xyz
 1  'x, y, z'
loop_
 _atom_site_type_symbol
 _atom_site_label
 _atom_site_symmetry_multiplicity
 _atom_site_fract_x
 _atom_site_fract_y
 _atom_site_fract_z
 _atom_site_fract_occupancy
 C  C1  1  0.11026  0.73945  0.86107  1
 C  C2  1  0.32681  0.82562  0.67490  1
 C  C3  1  0.80629  0.29328  0.15999  1
 C  C4  1  0.63074  0.27180  0.37597  1
 F  F1  1  0.47720  0.23300  0.83166  1
 F  F2  1  0.95460  0.70439  0.35577  1
 F  F3  1  0.48242  0.86069  0.18015  1
 F  F4  1  0.95994  0.33211  0.70428  1
 H  H1  1  0.21441  0.98254  0.54426  1
 H  H2  1  0.95074  0.68418  0.81414  1
 H  H3  1  0.48633  0.88089  0.72183  1
 H  H4  1  0.70709  0.46950  0.03907  1
 H  H5  1  0.72992  0.09557  0.49689  1
 H  H6  1  0.39316  0.29788  0.37735  1
 H  H7  1  0.04386  0.26724  0.15861  1
 H  H8  1  0.22266  0.58253  0.99171  1
 Sn  Sn1  1  0.83508  0.01813  0.01833  1
 Sn  Sn2  1  0.60199  0.54691  0.51767  1
