CIF file written using JARVIS-Tools package.
data_VO2F
_symmetry_space_group_name_H-M  'P1'
_cell_length_a       3.16126
_cell_length_b       4.19128
_cell_length_c       4.98018
_cell_angle_alpha    119.248
_cell_angle_beta     91.0301
_cell_angle_gamma    89.8133

_symmetry_Int_Tables_number  1
_chemical_formula_structural  VO2F
_chemical_formula_sum  VO2F
_cell_volume  57.563284967452596
_cell_formula_units_Z  1
loop_
  _symmetry_equiv_pos_site_id
 _symmetry_equiv_pos_as_xyz
 1  'x, y, z'
loop_
 _atom_site_type_symbol
 _atom_site_label
 _atom_site_symmetry_multiplicity
 _atom_site_fract_x
 _atom_site_fract_y
 _atom_site_fract_z
 _atom_site_fract_occupancy
 F  F1  1  0.92618  0.71160  0.58837  1
 O  O1  1  0.93088  0.41626  0.95617  1
 O  O2  1  0.43679  0.04291  0.15072  1
 V  V1  1  0.93257  0.04704  0.98117  1
