CIF file written using JARVIS-Tools package.
data_H6C10S
_symmetry_space_group_name_H-M  'P-1'
_cell_length_a       3.88173
_cell_length_b       6.44825
_cell_length_c       14.6479
_cell_angle_alpha    98.4437
_cell_angle_beta     92.4071
_cell_angle_gamma    113.051

_symmetry_Int_Tables_number  2
_chemical_formula_structural  H6C10S
_chemical_formula_sum  H2C20S2
_cell_volume  331.7099332017862
_cell_formula_units_Z  2
loop_
  _symmetry_equiv_pos_site_id
 _symmetry_equiv_pos_as_xyz
 1  'x, y, z'
loop_
 _atom_site_type_symbol
 _atom_site_label
 _atom_site_symmetry_multiplicity
 _atom_site_fract_x
 _atom_site_fract_y
 _atom_site_fract_z
 _atom_site_fract_occupancy
 C  C1  1  0.87910  0.05636  0.31169  1
 C  C2  1  0.09441  0.71314  0.05559  1
 C  C3  1  0.84873  0.70173  0.20666  1
 C  C4  1  0.54351  0.45022  0.66165  1
 C  C5  1  0.02645  0.82275  0.13728  1
 C  C6  1  0.81256  0.16668  0.39327  1
 C  C7  1  0.38174  0.26337  0.70555  1
 C  C8  1  0.56830  0.16201  0.54767  1
 C  C9  1  0.81163  0.35269  0.10682  1
 C  C10  1  0.98846  0.47452  0.03760  1
 C  C11  1  0.53053  0.80631  0.44460  1
 C  C12  1  0.74480  0.46297  0.18837  1
 C  C13  1  0.59822  0.69666  0.36288  1
 C  C14  1  0.24371  0.25618  0.79468  1
 C  C15  1  0.05680  0.35748  0.95252  1
 C  C16  1  0.08216  0.06935  0.83860  1
 C  C17  1  0.97721  0.12635  0.92649  1
 C  C18  1  0.77548  0.81762  0.29344  1
 C  C19  1  0.64826  0.39318  0.57374  1
 C  C20  1  0.63630  0.04491  0.46256  1
 H  H1  1  0.23261  0.81518  0.00420  1
 H  H2  1  0.60889  0.35914  0.23914  1
 H  H3  1  0.01447  0.16013  0.26085  1
 H  H4  1  0.77994  0.51909  0.53025  1
 H  H5  1  0.04569  0.89649  0.80819  1
 H  H6  1  0.84569  0.00045  0.96999  1
 H  H7  1  0.11609  0.00754  0.14678  1
 H  H8  1  0.39281  0.70432  0.49604  1
 H  H9  1  0.72338  0.16773  0.09639  1
 H  H10  1  0.50881  0.51189  0.35341  1
 H  H11  1  0.58033  0.62312  0.69209  1
 H  H12  1  0.90056  0.35162  0.40366  1
 S  S1  1  0.26502  0.50456  0.86496  1
 S  S2  1  0.36000  0.01494  0.63523  1
