CIF file written using JARVIS-Tools package.
data_BeF2
_symmetry_space_group_name_H-M  'P3_121'
_cell_length_a       4.71165
_cell_length_b       4.71165
_cell_length_c       5.18333
_cell_angle_alpha    90
_cell_angle_beta     90
_cell_angle_gamma    120

_symmetry_Int_Tables_number  152
_chemical_formula_structural  BeF2
_chemical_formula_sum  Be3F6
_cell_volume  99.6517320076234
_cell_formula_units_Z  3
loop_
  _symmetry_equiv_pos_site_id
 _symmetry_equiv_pos_as_xyz
 1  'x, y, z'
loop_
 _atom_site_type_symbol
 _atom_site_label
 _atom_site_symmetry_multiplicity
 _atom_site_fract_x
 _atom_site_fract_y
 _atom_site_fract_z
 _atom_site_fract_occupancy
 Be  Be1  1  0.46043  0.00000  0.33333  1
 Be  Be2  1  0.00000  0.46043  0.66667  1
 Be  Be3  1  0.53957  0.53957  0.00000  1
 F  F1  1  0.41137  0.28210  0.22495  1
 F  F2  1  0.71790  0.12927  0.55828  1
 F  F3  1  0.87073  0.58863  0.89162  1
 F  F4  1  0.12927  0.71790  0.44172  1
 F  F5  1  0.58863  0.87073  0.10838  1
 F  F6  1  0.28210  0.41137  0.77505  1
