CIF file written using JARVIS-Tools package.
data_Nd2CuSi3Rh2
_symmetry_space_group_name_H-M  'Amm2'
_cell_length_a       8.83942
_cell_length_b       8.83942
_cell_length_c       4.11639
_cell_angle_alpha    90
_cell_angle_beta     90
_cell_angle_gamma    152.985

_symmetry_Int_Tables_number  38
_chemical_formula_structural  Nd2CuSi3Rh2
_chemical_formula_sum  Nd2CuSi3Rh2
_cell_volume  146.0940850856756
_cell_formula_units_Z  1
loop_
  _symmetry_equiv_pos_site_id
 _symmetry_equiv_pos_as_xyz
 1  'x, y, z'
loop_
 _atom_site_type_symbol
 _atom_site_label
 _atom_site_symmetry_multiplicity
 _atom_site_fract_x
 _atom_site_fract_y
 _atom_site_fract_z
 _atom_site_fract_occupancy
 Cu  Cu1  1  0.53447  0.46553  0.00000  1
 Nd  Nd1  1  0.89688  0.10312  0.00000  1
 Nd  Nd2  1  0.10347  0.89653  0.50000  1
 Rh  Rh1  1  0.24957  0.75043  0.00000  1
 Rh  Rh2  1  0.74994  0.25006  0.50000  1
 Si  Si1  1  0.46665  0.53335  0.50000  1
 Si  Si2  1  0.67494  0.32506  0.00000  1
 Si  Si3  1  0.32408  0.67592  0.50000  1
