CIF file written using JARVIS-Tools package.
data_Bi2OF4
_symmetry_space_group_name_H-M  'C2/c'
_cell_length_a       5.70891
_cell_length_b       7.09896
_cell_length_c       5.73621
_cell_angle_alpha    77.7019
_cell_angle_beta     90
_cell_angle_gamma    66.2908

_symmetry_Int_Tables_number  15
_chemical_formula_structural  Bi2OF4
_chemical_formula_sum  Bi4O2F8
_cell_volume  207.0126809120343
_cell_formula_units_Z  2
loop_
  _symmetry_equiv_pos_site_id
 _symmetry_equiv_pos_as_xyz
 1  'x, y, z'
loop_
 _atom_site_type_symbol
 _atom_site_label
 _atom_site_symmetry_multiplicity
 _atom_site_fract_x
 _atom_site_fract_y
 _atom_site_fract_z
 _atom_site_fract_occupancy
 Bi  Bi1  1  0.88877  0.78781  0.58434  1
 Bi  Bi2  1  0.32342  0.78781  0.08434  1
 Bi  Bi3  1  0.67658  0.21219  0.91566  1
 Bi  Bi4  1  0.11123  0.21219  0.41566  1
 F  F1  1  0.70306  0.84372  0.95359  1
 F  F2  1  0.45322  0.84372  0.45359  1
 F  F3  1  0.27483  0.56815  0.83294  1
 F  F4  1  0.15702  0.56815  0.33294  1
 F  F5  1  0.84298  0.43185  0.66706  1
 F  F6  1  0.72517  0.43185  0.16706  1
 F  F7  1  0.54678  0.15628  0.54641  1
 F  F8  1  0.29694  0.15628  0.04641  1
 O  O1  1  0.03601  0.00000  0.75000  1
 O  O2  1  0.96399  0.00000  0.25000  1
