CIF file written using JARVIS-Tools package.
data_Ti3Si
_symmetry_space_group_name_H-M  'P6_3/mmc'
_cell_length_a       5.62465
_cell_length_b       5.62465
_cell_length_c       4.52419
_cell_angle_alpha    90
_cell_angle_beta     90
_cell_angle_gamma    120

_symmetry_Int_Tables_number  194
_chemical_formula_structural  Ti3Si
_chemical_formula_sum  Ti6Si2
_cell_volume  123.9545544279725
_cell_formula_units_Z  2
loop_
  _symmetry_equiv_pos_site_id
 _symmetry_equiv_pos_as_xyz
 1  'x, y, z'
loop_
 _atom_site_type_symbol
 _atom_site_label
 _atom_site_symmetry_multiplicity
 _atom_site_fract_x
 _atom_site_fract_y
 _atom_site_fract_z
 _atom_site_fract_occupancy
 Si  Si1  1  0.66667  0.33333  0.25000  1
 Si  Si2  1  0.33333  0.66667  0.75000  1
 Ti  Ti1  1  0.17103  0.34206  0.25000  1
 Ti  Ti2  1  0.65794  0.82897  0.25000  1
 Ti  Ti3  1  0.17103  0.82897  0.25000  1
 Ti  Ti4  1  0.82897  0.65794  0.75000  1
 Ti  Ti5  1  0.34206  0.17103  0.75000  1
 Ti  Ti6  1  0.82897  0.17103  0.75000  1
