CIF file written using JARVIS-Tools package.
data_Rb2O
_symmetry_space_group_name_H-M  'Immm'
_cell_length_a       4.75811
_cell_length_b       4.79994
_cell_length_c       6.7593
_cell_angle_alpha    90
_cell_angle_beta     90
_cell_angle_gamma    90

_symmetry_Int_Tables_number  71
_chemical_formula_structural  Rb2O
_chemical_formula_sum  Rb4O2
_cell_volume  154.37310649041734
_cell_formula_units_Z  2
loop_
  _symmetry_equiv_pos_site_id
 _symmetry_equiv_pos_as_xyz
 1  'x, y, z'
loop_
 _atom_site_type_symbol
 _atom_site_label
 _atom_site_symmetry_multiplicity
 _atom_site_fract_x
 _atom_site_fract_y
 _atom_site_fract_z
 _atom_site_fract_occupancy
 O  O1  1  0.00000  0.00000  0.00000  1
 O  O2  1  0.50000  0.50000  0.50000  1
 Rb  Rb1  1  0.00000  0.49985  0.75023  1
 Rb  Rb2  1  0.00000  0.50015  0.24977  1
 Rb  Rb3  1  0.50000  0.00015  0.25023  1
 Rb  Rb4  1  0.50000  -0.00015  0.74977  1
