CIF file written using JARVIS-Tools package.
data_LiVBO3
_symmetry_space_group_name_H-M  'P-1'
_cell_length_a       4.49699
_cell_length_b       5.1831
_cell_length_c       6.03994
_cell_angle_alpha    96.9004
_cell_angle_beta     108.316
_cell_angle_gamma    114.114

_symmetry_Int_Tables_number  2
_chemical_formula_structural  LiVBO3
_chemical_formula_sum  Li2V2B2O6
_cell_volume  116.86050467833452
_cell_formula_units_Z  2
loop_
  _symmetry_equiv_pos_site_id
 _symmetry_equiv_pos_as_xyz
 1  'x, y, z'
loop_
 _atom_site_type_symbol
 _atom_site_label
 _atom_site_symmetry_multiplicity
 _atom_site_fract_x
 _atom_site_fract_y
 _atom_site_fract_z
 _atom_site_fract_occupancy
 B  B1  1  0.79299  0.10183  0.74629  1
 B  B2  1  0.20701  0.89817  0.25371  1
 Li  Li1  1  0.44327  0.37791  0.66386  1
 Li  Li2  1  0.55673  0.62209  0.33614  1
 O  O1  1  0.97557  0.29162  0.63783  1
 O  O2  1  0.62699  0.19536  0.87323  1
 O  O3  1  0.71871  0.80629  0.70848  1
 O  O4  1  0.28129  0.19371  0.29152  1
 O  O5  1  0.37301  0.80464  0.12677  1
 O  O6  1  0.02443  0.70838  0.36217  1
 V  V1  1  0.20180  0.76027  0.75013  1
 V  V2  1  0.79820  0.23973  0.24987  1
