CIF file written using JARVIS-Tools package.
data_Nb3AlSnMo3
_symmetry_space_group_name_H-M  'R3'
_cell_length_a       5.15602
_cell_length_b       5.15602
_cell_length_c       5.15602
_cell_angle_alpha    90.0463
_cell_angle_beta     90.0463
_cell_angle_gamma    90.0463

_symmetry_Int_Tables_number  146
_chemical_formula_structural  Nb3AlSnMo3
_chemical_formula_sum  Nb3AlSnMo3
_cell_volume  137.0701225641225
_cell_formula_units_Z  1
loop_
  _symmetry_equiv_pos_site_id
 _symmetry_equiv_pos_as_xyz
 1  'x, y, z'
loop_
 _atom_site_type_symbol
 _atom_site_label
 _atom_site_symmetry_multiplicity
 _atom_site_fract_x
 _atom_site_fract_y
 _atom_site_fract_z
 _atom_site_fract_occupancy
 Al  Al1  1  0.50216  0.50216  0.50216  1
 Mo  Mo1  1  0.74468  0.99978  0.49953  1
 Mo  Mo2  1  0.99978  0.49953  0.74468  1
 Mo  Mo3  1  0.49953  0.74468  0.99978  1
 Nb  Nb1  1  0.25600  0.99890  0.50107  1
 Nb  Nb2  1  0.99890  0.50107  0.25600  1
 Nb  Nb3  1  0.50107  0.25600  0.99890  1
 Sn  Sn1  1  0.99788  0.99788  0.99788  1
