CIF file written using JARVIS-Tools package.
data_RbTmO2
_symmetry_space_group_name_H-M  'R-3m'
_cell_length_a       6.78603
_cell_length_b       6.78603
_cell_length_c       6.78603
_cell_angle_alpha    29.2735
_cell_angle_beta     29.2734
_cell_angle_gamma    29.2734

_symmetry_Int_Tables_number  166
_chemical_formula_structural  RbTmO2
_chemical_formula_sum  RbTmO2
_cell_volume  66.11365301860222
_cell_formula_units_Z  1
loop_
  _symmetry_equiv_pos_site_id
 _symmetry_equiv_pos_as_xyz
 1  'x, y, z'
loop_
 _atom_site_type_symbol
 _atom_site_label
 _atom_site_symmetry_multiplicity
 _atom_site_fract_x
 _atom_site_fract_y
 _atom_site_fract_z
 _atom_site_fract_occupancy
 O  O1  1  0.77525  0.77525  0.77525  1
 O  O2  1  0.22475  0.22475  0.22475  1
 Rb  Rb1  1  0.00000  0.00000  0.00000  1
 Tm  Tm1  1  0.50000  0.50000  0.50000  1
