CIF file written using JARVIS-Tools package.
data_Li3Cu2O4
_symmetry_space_group_name_H-M  'Cm'
_cell_length_a       5.17986
_cell_length_b       5.17987
_cell_length_c       7.1874
_cell_angle_alpha    63.1329
_cell_angle_beta     63.1329
_cell_angle_gamma    31.2637

_symmetry_Int_Tables_number  8
_chemical_formula_structural  Li3Cu2O4
_chemical_formula_sum  Li3Cu2O4
_cell_volume  88.37785505245772
_cell_formula_units_Z  1
loop_
  _symmetry_equiv_pos_site_id
 _symmetry_equiv_pos_as_xyz
 1  'x, y, z'
loop_
 _atom_site_type_symbol
 _atom_site_label
 _atom_site_symmetry_multiplicity
 _atom_site_fract_x
 _atom_site_fract_y
 _atom_site_fract_z
 _atom_site_fract_occupancy
 Cu  Cu1  1  0.83448  0.83448  0.27395  1
 Cu  Cu2  1  0.14812  0.14812  0.73935  1
 Li  Li1  1  0.35156  0.35156  0.87946  1
 Li  Li2  1  0.63098  0.63098  0.13418  1
 Li  Li3  1  0.99063  0.99063  0.50738  1
 O  O1  1  0.42895  0.42895  0.34970  1
 O  O2  1  0.55350  0.55350  0.66388  1
 O  O3  1  0.24686  0.24686  0.18591  1
 O  O4  1  0.73592  0.73592  0.82720  1
