CIF file written using JARVIS-Tools package.
data_H10C17S2
_symmetry_space_group_name_H-M  'P1'
_cell_length_a       3.86731
_cell_length_b       6.39777
_cell_length_c       12.6899
_cell_angle_alpha    95.7844
_cell_angle_beta     93.7104
_cell_angle_gamma    106.108

_symmetry_Int_Tables_number  1
_chemical_formula_structural  H10C17S2
_chemical_formula_sum  H0C7S2
_cell_volume  298.69904594939425
_cell_formula_units_Z  1
loop_
  _symmetry_equiv_pos_site_id
 _symmetry_equiv_pos_as_xyz
 1  'x, y, z'
loop_
 _atom_site_type_symbol
 _atom_site_label
 _atom_site_symmetry_multiplicity
 _atom_site_fract_x
 _atom_site_fract_y
 _atom_site_fract_z
 _atom_site_fract_occupancy
 C  C1  1  0.27887  0.67012  0.16654  1
 C  C2  1  0.85024  0.55206  0.41995  1
 C  C3  1  0.41699  0.63323  0.80657  1
 C  C4  1  0.88810  0.74027  0.49297  1
 C  C5  1  0.16830  0.30555  0.04002  1
 C  C6  1  0.18633  0.73355  0.26789  1
 C  C7  1  0.31900  0.38414  0.94251  1
 C  C8  1  0.77812  0.72302  0.59510  1
 C  C9  1  0.14055  0.44544  0.13325  1
 C  C10  1  0.62230  0.51722  0.62869  1
 C  C11  1  0.68129  0.34739  0.45291  1
 C  C12  1  0.54592  0.28681  0.77569  1
 C  C13  1  0.56870  0.33082  0.55343  1
 C  C14  1  0.44369  0.23833  0.87437  1
 C  C15  1  0.52716  0.48351  0.73755  1
 C  C16  1  0.98284  0.55860  0.31518  1
 C  C17  1  0.31530  0.58529  0.90710  1
 H  H1  1  0.20858  0.70045  0.95430  1
 H  H2  1  0.64200  0.19757  0.39871  1
 H  H3  1  0.82560  0.87171  0.65102  1
 H  H4  1  0.26783  0.90295  0.30504  1
 H  H5  1  0.65806  0.17428  0.72843  1
 H  H6  1  0.39179  0.78541  0.77973  1
 H  H7  1  0.46542  0.08694  0.90205  1
 H  H8  1  0.43680  0.16926  0.57485  1
 H  H9  1  0.45094  0.78490  0.12103  1
 H  H10  1  0.01007  0.90218  0.46987  1
 S  S1  1  0.00432  0.03395  0.04159  1
 S  S2  1  0.90431  0.31416  0.23187  1
