CIF file written using JARVIS-Tools package.
data_SnH18C10O6
_symmetry_space_group_name_H-M  'P1'
_cell_length_a       4.81271
_cell_length_b       6.501
_cell_length_c       10.2806
_cell_angle_alpha    71.1313
_cell_angle_beta     82.3194
_cell_angle_gamma    89.0465

_symmetry_Int_Tables_number  1
_chemical_formula_structural  SnH18C10O6
_chemical_formula_sum  SnH8C0O6
_cell_volume  301.5164706789007
_cell_formula_units_Z  1
loop_
  _symmetry_equiv_pos_site_id
 _symmetry_equiv_pos_as_xyz
 1  'x, y, z'
loop_
 _atom_site_type_symbol
 _atom_site_label
 _atom_site_symmetry_multiplicity
 _atom_site_fract_x
 _atom_site_fract_y
 _atom_site_fract_z
 _atom_site_fract_occupancy
 C  C1  1  0.09289  0.90356  0.00485  1
 C  C2  1  0.30827  0.21691  0.25007  1
 C  C3  1  0.10103  0.73924  0.57870  1
 C  C4  1  0.10790  0.97962  0.48928  1
 C  C5  1  0.34405  0.24025  0.73783  1
 C  C6  1  0.41905  0.40557  0.59209  1
 C  C7  1  0.39769  0.64677  0.58146  1
 C  C8  1  0.03162  0.21930  0.79556  1
 C  C9  1  0.97990  0.12771  0.95598  1
 C  C10  1  0.16505  0.00358  0.33296  1
 H  H1  1  0.91851  0.11695  0.75179  1
 H  H2  1  0.45932  0.28772  0.80943  1
 H  H3  1  0.93528  0.37874  0.76641  1
 H  H4  1  0.75439  0.11980  0.99265  1
 H  H5  1  0.08575  0.23537  0.99808  1
 H  H6  1  0.52816  0.73996  0.48456  1
 H  H7  1  0.63658  0.37743  0.55327  1
 H  H8  1  0.28909  0.37683  0.51879  1
 H  H9  1  0.82937  0.55411  0.29090  1
 H  H10  1  0.41939  0.07855  0.73800  1
 H  H11  1  0.30453  0.87617  0.31752  1
 H  H12  1  0.96625  0.99072  0.29420  1
 H  H13  1  0.91037  0.05865  0.51000  1
 H  H14  1  0.27554  0.06371  0.51703  1
 H  H15  1  0.00306  0.72373  0.68484  1
 H  H16  1  0.69382  0.60619  0.86232  1
 H  H17  1  0.96683  0.64588  0.53791  1
 H  H18  1  0.48933  0.67576  0.66672  1
 O  O1  1  0.96510  0.74185  0.99233  1
 O  O2  1  0.67360  0.65165  0.26477  1
 O  O3  1  0.57248  0.22994  0.20921  1
 O  O4  1  0.17161  0.39650  0.21896  1
 O  O5  1  0.33079  0.88435  0.05226  1
 O  O6  1  0.52856  0.53383  0.92580  1
 Sn  Sn1  1  0.55288  0.59095  0.10281  1
