CIF file written using JARVIS-Tools package.
data_BaGa2SiS6
_symmetry_space_group_name_H-M  'P1'
_cell_length_a       6.15494
_cell_length_b       6.25129
_cell_length_c       6.38628
_cell_angle_alpha    99.2419
_cell_angle_beta     103.597
_cell_angle_gamma    98.1238

_symmetry_Int_Tables_number  1
_chemical_formula_structural  BaGa2SiS6
_chemical_formula_sum  BaGa2SiS6
_cell_volume  231.59051804021288
_cell_formula_units_Z  1
loop_
  _symmetry_equiv_pos_site_id
 _symmetry_equiv_pos_as_xyz
 1  'x, y, z'
loop_
 _atom_site_type_symbol
 _atom_site_label
 _atom_site_symmetry_multiplicity
 _atom_site_fract_x
 _atom_site_fract_y
 _atom_site_fract_z
 _atom_site_fract_occupancy
 Ba  Ba1  1  0.46952  0.45767  0.44344  1
 Ga  Ga1  1  0.99803  0.84569  0.26599  1
 Ga  Ga2  1  0.26346  0.98442  0.85841  1
 S  S1  1  0.03674  0.71104  0.58190  1
 S  S2  1  0.59132  0.04976  0.73494  1
 S  S3  1  0.71195  0.57588  0.01747  1
 S  S4  1  0.89659  0.19043  0.31370  1
 S  S5  1  0.34524  0.89978  0.19853  1
 S  S6  1  0.15831  0.32687  0.90610  1
 Si  Si1  1  0.84488  0.27451  0.99555  1
