CIF file written using JARVIS-Tools package.
data_ErPRu2C
_symmetry_space_group_name_H-M  'Cmcm'
_cell_length_a       5.85713
_cell_length_b       5.85712
_cell_length_c       7.03452
_cell_angle_alpha    90
_cell_angle_beta     90
_cell_angle_gamma    142.712

_symmetry_Int_Tables_number  63
_chemical_formula_structural  ErPRu2C
_chemical_formula_sum  Er2P2Ru4C2
_cell_volume  146.19899351632375
_cell_formula_units_Z  2
loop_
  _symmetry_equiv_pos_site_id
 _symmetry_equiv_pos_as_xyz
 1  'x, y, z'
loop_
 _atom_site_type_symbol
 _atom_site_label
 _atom_site_symmetry_multiplicity
 _atom_site_fract_x
 _atom_site_fract_y
 _atom_site_fract_z
 _atom_site_fract_occupancy
 C  C1  1  0.00000  0.00000  0.00000  1
 C  C2  1  0.00000  0.00000  0.50000  1
 Er  Er1  1  0.54273  0.45727  0.25000  1
 Er  Er2  1  0.45727  0.54273  0.75000  1
 P  P1  1  0.26773  0.73227  0.25000  1
 P  P2  1  0.73227  0.26773  0.75000  1
 Ru  Ru1  1  0.83540  0.16460  0.05246  1
 Ru  Ru2  1  0.16460  0.83540  0.94754  1
 Ru  Ru3  1  0.16460  0.83540  0.55246  1
 Ru  Ru4  1  0.83540  0.16460  0.44754  1
