CIF file written using JARVIS-Tools package.
data_CoH4Cl2O2
_symmetry_space_group_name_H-M  'C2/m'
_cell_length_a       3.55018
_cell_length_b       5.50038
_cell_length_c       5.50039
_cell_angle_alpha    99.0278
_cell_angle_beta     94.7335
_cell_angle_gamma    94.7335

_symmetry_Int_Tables_number  12
_chemical_formula_structural  CoH4Cl2O2
_chemical_formula_sum  CoH4Cl2O2
_cell_volume  105.21724436844225
_cell_formula_units_Z  1
loop_
  _symmetry_equiv_pos_site_id
 _symmetry_equiv_pos_as_xyz
 1  'x, y, z'
loop_
 _atom_site_type_symbol
 _atom_site_label
 _atom_site_symmetry_multiplicity
 _atom_site_fract_x
 _atom_site_fract_y
 _atom_site_fract_z
 _atom_site_fract_occupancy
 Cl  Cl1  1  0.55932  0.24084  0.24084  1
 Cl  Cl2  1  0.44068  0.75915  0.75915  1
 Co  Co1  1  0.00000  0.00000  0.00000  1
 H  H1  1  0.83713  0.22008  0.60260  1
 H  H2  1  0.16287  0.39740  0.77992  1
 H  H3  1  0.83712  0.60260  0.22008  1
 H  H4  1  0.16288  0.77992  0.39740  1
 O  O1  1  1.00000  0.76037  0.23963  1
 O  O2  1  1.00000  0.23963  0.76037  1
