CIF file written using JARVIS-Tools package.
data_NiP2O7
_symmetry_space_group_name_H-M  'C2'
_cell_length_a       5.00461
_cell_length_b       5.00461
_cell_length_c       4.36873
_cell_angle_alpha    81.4987
_cell_angle_beta     98.5013
_cell_angle_gamma    79.145

_symmetry_Int_Tables_number  5
_chemical_formula_structural  NiP2O7
_chemical_formula_sum  NiP2O7
_cell_volume  104.52823608665634
_cell_formula_units_Z  1
loop_
  _symmetry_equiv_pos_site_id
 _symmetry_equiv_pos_as_xyz
 1  'x, y, z'
loop_
 _atom_site_type_symbol
 _atom_site_label
 _atom_site_symmetry_multiplicity
 _atom_site_fract_x
 _atom_site_fract_y
 _atom_site_fract_z
 _atom_site_fract_occupancy
 Ni  Ni1  1  0.11050  0.11050  -0.00000  1
 O  O1  1  0.80991  0.05815  0.72308  1
 O  O2  1  0.13123  0.44308  0.73129  1
 O  O3  1  0.86429  0.34525  0.18427  1
 O  O4  1  0.34525  0.86429  0.81573  1
 O  O5  1  0.55099  0.55099  0.50000  1
 O  O6  1  0.05815  0.80991  0.27692  1
 O  O7  1  0.44308  0.13123  0.26871  1
 P  P1  1  0.25962  0.67140  0.59238  1
 P  P2  1  0.67140  0.25962  0.40762  1
