CIF file written using JARVIS-Tools package.
data_HoBiO3
_symmetry_space_group_name_H-M  'R-3'
_cell_length_a       6.05849
_cell_length_b       6.05849
_cell_length_c       6.05849
_cell_angle_alpha    59.3823
_cell_angle_beta     59.3823
_cell_angle_gamma    59.3824

_symmetry_Int_Tables_number  148
_chemical_formula_structural  HoBiO3
_chemical_formula_sum  Ho2Bi2O6
_cell_volume  155.03512262868443
_cell_formula_units_Z  2
loop_
  _symmetry_equiv_pos_site_id
 _symmetry_equiv_pos_as_xyz
 1  'x, y, z'
loop_
 _atom_site_type_symbol
 _atom_site_label
 _atom_site_symmetry_multiplicity
 _atom_site_fract_x
 _atom_site_fract_y
 _atom_site_fract_z
 _atom_site_fract_occupancy
 Bi  Bi1  1  0.36031  0.36031  0.36031  1
 Bi  Bi2  1  0.63969  0.63969  0.63969  1
 Ho  Ho1  1  0.14095  0.14095  0.14095  1
 Ho  Ho2  1  0.85905  0.85905  0.85905  1
 O  O1  1  0.00779  0.78308  0.45551  1
 O  O2  1  0.54449  0.99221  0.21692  1
 O  O3  1  0.21692  0.54449  0.99221  1
 O  O4  1  0.78308  0.45551  0.00779  1
 O  O5  1  0.45551  0.00779  0.78308  1
 O  O6  1  0.99221  0.21692  0.54449  1
