CIF file written using JARVIS-Tools package.
data_Ga2TeSe2
_symmetry_space_group_name_H-M  'I4_1md'
_cell_length_a       7.35629
_cell_length_b       7.35629
_cell_length_c       7.49034
_cell_angle_alpha    119.41
_cell_angle_beta     119.41
_cell_angle_gamma    90

_symmetry_Int_Tables_number  109
_chemical_formula_structural  Ga2TeSe2
_chemical_formula_sum  Ga4Te2Se4
_cell_volume  291.65807278361274
_cell_formula_units_Z  2
loop_
  _symmetry_equiv_pos_site_id
 _symmetry_equiv_pos_as_xyz
 1  'x, y, z'
loop_
 _atom_site_type_symbol
 _atom_site_label
 _atom_site_symmetry_multiplicity
 _atom_site_fract_x
 _atom_site_fract_y
 _atom_site_fract_z
 _atom_site_fract_occupancy
 Ga  Ga1  1  0.42615  0.65223  0.85230  1
 Ga  Ga2  1  0.45007  0.17615  0.35230  1
 Ga  Ga3  1  0.90223  0.17615  0.35230  1
 Ga  Ga4  1  0.42615  0.20007  0.85230  1
 Se  Se1  1  0.65235  0.90154  0.30470  1
 Se  Se2  1  0.65316  0.40235  0.80470  1
 Se  Se3  1  0.15154  0.40235  0.80470  1
 Se  Se4  1  0.65235  0.40316  0.30470  1
 Te  Te1  1  0.02400  0.02400  0.04800  1
 Te  Te2  1  0.27400  0.77400  0.54800  1
