CIF file written using JARVIS-Tools package.
data_YbMg
_symmetry_space_group_name_H-M  'Pm-3m'
_cell_length_a       3.89945
_cell_length_b       5.50114
_cell_length_c       5.50113
_cell_angle_alpha    90
_cell_angle_beta     90
_cell_angle_gamma    90

_symmetry_Int_Tables_number  221
_chemical_formula_structural  YbMg
_chemical_formula_sum  Yb2Mg2
_cell_volume  118.00715137923036
_cell_formula_units_Z  2
loop_
  _symmetry_equiv_pos_site_id
 _symmetry_equiv_pos_as_xyz
 1  'x, y, z'
loop_
 _atom_site_type_symbol
 _atom_site_label
 _atom_site_symmetry_multiplicity
 _atom_site_fract_x
 _atom_site_fract_y
 _atom_site_fract_z
 _atom_site_fract_occupancy
 Mg  Mg1  1  0.50000  0.75000  0.24981  1
 Mg  Mg2  1  0.50000  0.25000  0.75019  1
 Yb  Yb1  1  0.00000  0.75000  0.74985  1
 Yb  Yb2  1  0.00000  0.25000  0.25015  1
