CIF file written using JARVIS-Tools package.
data_Ta4CoNi
_symmetry_space_group_name_H-M  'I422'
_cell_length_a       5.00361
_cell_length_b       5.00361
_cell_length_c       5.00361
_cell_angle_alpha    103.938
_cell_angle_beta     103.938
_cell_angle_gamma    121.214

_symmetry_Int_Tables_number  97
_chemical_formula_structural  Ta4CoNi
_chemical_formula_sum  Ta4CoNi
_cell_volume  93.34504138672882
_cell_formula_units_Z  1
loop_
  _symmetry_equiv_pos_site_id
 _symmetry_equiv_pos_as_xyz
 1  'x, y, z'
loop_
 _atom_site_type_symbol
 _atom_site_label
 _atom_site_symmetry_multiplicity
 _atom_site_fract_x
 _atom_site_fract_y
 _atom_site_fract_z
 _atom_site_fract_occupancy
 Co  Co1  1  0.50000  0.50000  -0.00000  1
 Ni  Ni1  1  0.00000  0.00000  0.00000  1
 Ta  Ta1  1  0.40958  0.90958  0.81916  1
 Ta  Ta2  1  0.09042  0.59042  0.18084  1
 Ta  Ta3  1  0.59042  0.40958  0.50000  1
 Ta  Ta4  1  0.90958  0.09042  0.50000  1
