CIF file written using JARVIS-Tools package.
data_PrSi2Ni
_symmetry_space_group_name_H-M  'Cmcm'
_cell_length_a       4.10239
_cell_length_b       4.20386
_cell_length_c       8.5349
_cell_angle_alpha    104.257
_cell_angle_beta     90
_cell_angle_gamma    90

_symmetry_Int_Tables_number  63
_chemical_formula_structural  PrSi2Ni
_chemical_formula_sum  Pr2Si4Ni2
_cell_volume  142.6583081235735
_cell_formula_units_Z  2
loop_
  _symmetry_equiv_pos_site_id
 _symmetry_equiv_pos_as_xyz
 1  'x, y, z'
loop_
 _atom_site_type_symbol
 _atom_site_label
 _atom_site_symmetry_multiplicity
 _atom_site_fract_x
 _atom_site_fract_y
 _atom_site_fract_z
 _atom_site_fract_occupancy
 Ni  Ni1  1  0.75000  0.31775  0.63549  1
 Ni  Ni2  1  0.25000  0.68225  0.36451  1
 Pr  Pr1  1  0.25000  0.89381  0.78763  1
 Pr  Pr2  1  0.75000  0.10619  0.21237  1
 Si  Si1  1  0.25000  0.24971  0.49941  1
 Si  Si2  1  0.75000  0.75029  0.50059  1
 Si  Si3  1  0.75000  0.45866  0.91733  1
 Si  Si4  1  0.25000  0.54134  0.08267  1
