CIF file written using JARVIS-Tools package.
data_CdH12C8O4
_symmetry_space_group_name_H-M  'P1'
_cell_length_a       4.16091
_cell_length_b       4.26715
_cell_length_c       12.1486
_cell_angle_alpha    93.1517
_cell_angle_beta     95.8539
_cell_angle_gamma    108.115

_symmetry_Int_Tables_number  1
_chemical_formula_structural  CdH12C8O4
_chemical_formula_sum  CdH2C8O4
_cell_volume  203.08069924164127
_cell_formula_units_Z  1
loop_
  _symmetry_equiv_pos_site_id
 _symmetry_equiv_pos_as_xyz
 1  'x, y, z'
loop_
 _atom_site_type_symbol
 _atom_site_label
 _atom_site_symmetry_multiplicity
 _atom_site_fract_x
 _atom_site_fract_y
 _atom_site_fract_z
 _atom_site_fract_occupancy
 C  C1  1  0.90508  0.41789  0.63575  1
 C  C2  1  0.13297  0.52683  0.33228  1
 C  C3  1  0.04044  0.38349  0.44039  1
 C  C4  1  -0.00021  0.61320  0.53530  1
 C  C5  1  0.82578  0.60755  0.73444  1
 C  C6  1  0.68984  0.37714  0.82305  1
 C  C7  1  0.54206  0.52035  0.91699  1
 C  C8  1  0.77211  0.68991  0.02226  1
 Cd  Cd1  1  0.42506  0.08107  0.17695  1
 H  H1  1  0.80935  0.16890  0.42099  1
 H  H2  1  0.67858  0.20085  0.60789  1
 H  H3  1  0.48043  0.16569  0.78012  1
 H  H4  1  0.88262  0.27079  0.85749  1
 H  H5  1  0.79904  0.72000  0.50813  1
 H  H6  1  0.10885  0.31493  0.66339  1
 H  H7  1  0.63243  0.72123  0.70503  1
 H  H8  1  0.05196  0.81363  0.77046  1
 H  H9  1  0.33261  0.32457  0.94329  1
 H  H10  1  0.42900  0.70562  0.88644  1
 H  H11  1  0.23602  0.82238  0.55779  1
 H  H12  1  0.24485  0.27971  0.46693  1
 O  O1  1  0.02324  0.33075  0.24196  1
 O  O2  1  0.07054  0.88453  0.01615  1
 O  O3  1  0.32898  0.82281  0.33484  1
 O  O4  1  0.64531  0.64235  0.11481  1
