CIF file written using JARVIS-Tools package.
data_SnBr2
_symmetry_space_group_name_H-M  'Pnma'
_cell_length_a       4.22479
_cell_length_b       8.58566
_cell_length_c       10.4077
_cell_angle_alpha    90
_cell_angle_beta     90
_cell_angle_gamma    90

_symmetry_Int_Tables_number  62
_chemical_formula_structural  SnBr2
_chemical_formula_sum  Sn4Br8
_cell_volume  377.5123013671938
_cell_formula_units_Z  4
loop_
  _symmetry_equiv_pos_site_id
 _symmetry_equiv_pos_as_xyz
 1  'x, y, z'
loop_
 _atom_site_type_symbol
 _atom_site_label
 _atom_site_symmetry_multiplicity
 _atom_site_fract_x
 _atom_site_fract_y
 _atom_site_fract_z
 _atom_site_fract_occupancy
 Br  Br1  1  0.25000  0.16784  0.94851  1
 Br  Br2  1  0.75000  0.83216  0.05149  1
 Br  Br3  1  0.25000  0.66784  0.55149  1
 Br  Br4  1  0.75000  0.33216  0.44851  1
 Br  Br5  1  0.25000  0.48908  0.17845  1
 Br  Br6  1  0.75000  0.51092  0.82155  1
 Br  Br7  1  0.25000  0.98908  0.32155  1
 Br  Br8  1  0.75000  0.01092  0.67845  1
 Sn  Sn1  1  0.25000  0.86829  0.83142  1
 Sn  Sn2  1  0.75000  0.13171  0.16858  1
 Sn  Sn3  1  0.25000  0.36829  0.66858  1
 Sn  Sn4  1  0.75000  0.63171  0.33142  1
