CIF file written using JARVIS-Tools package.
data_SrIn3Au
_symmetry_space_group_name_H-M  'I4mm'
_cell_length_a       7.13421
_cell_length_b       7.1342
_cell_length_c       7.1342
_cell_angle_alpha    142.212
_cell_angle_beta     142.212
_cell_angle_gamma    54.5093

_symmetry_Int_Tables_number  107
_chemical_formula_structural  SrIn3Au
_chemical_formula_sum  SrIn3Au
_cell_volume  135.39019970426548
_cell_formula_units_Z  1
loop_
  _symmetry_equiv_pos_site_id
 _symmetry_equiv_pos_as_xyz
 1  'x, y, z'
loop_
 _atom_site_type_symbol
 _atom_site_label
 _atom_site_symmetry_multiplicity
 _atom_site_fract_x
 _atom_site_fract_y
 _atom_site_fract_z
 _atom_site_fract_occupancy
 Au  Au1  1  0.59695  0.59695  0.00000  1
 In  In1  1  0.23117  0.73117  0.50000  1
 In  In2  1  0.73117  0.23117  0.50000  1
 In  In3  1  0.38322  0.38322  -0.00000  1
 Sr  Sr1  1  -0.00074  -0.00074  0.00000  1
