CIF file written using JARVIS-Tools package.
data_NbZn3Ga3
_symmetry_space_group_name_H-M  'R-3m'
_cell_length_a       5.639
_cell_length_b       5.63899
_cell_length_c       5.639
_cell_angle_alpha    57.95
_cell_angle_beta     57.9501
_cell_angle_gamma    57.95

_symmetry_Int_Tables_number  166
_chemical_formula_structural  NbZn3Ga3
_chemical_formula_sum  NbZn3Ga3
_cell_volume  120.82757622279163
_cell_formula_units_Z  1
loop_
  _symmetry_equiv_pos_site_id
 _symmetry_equiv_pos_as_xyz
 1  'x, y, z'
loop_
 _atom_site_type_symbol
 _atom_site_label
 _atom_site_symmetry_multiplicity
 _atom_site_fract_x
 _atom_site_fract_y
 _atom_site_fract_z
 _atom_site_fract_occupancy
 Ga  Ga1  1  0.50000  0.50000  -0.00000  1
 Ga  Ga2  1  0.00000  0.50000  0.50000  1
 Ga  Ga3  1  0.50000  0.00000  0.50000  1
 Nb  Nb1  1  0.00000  0.00000  0.00000  1
 Zn  Zn1  1  -0.00000  -0.00000  0.50000  1
 Zn  Zn2  1  0.50000  0.00000  -0.00000  1
 Zn  Zn3  1  0.00000  0.50000  0.00000  1
