CIF file written using JARVIS-Tools package.
data_ZnH12C8O4
_symmetry_space_group_name_H-M  'P1'
_cell_length_a       4.48009
_cell_length_b       5.11978
_cell_length_c       11.4625
_cell_angle_alpha    76.9708
_cell_angle_beta     88.3921
_cell_angle_gamma    59.097

_symmetry_Int_Tables_number  1
_chemical_formula_structural  ZnH12C8O4
_chemical_formula_sum  ZnH2C8O4
_cell_volume  218.57014107151338
_cell_formula_units_Z  1
loop_
  _symmetry_equiv_pos_site_id
 _symmetry_equiv_pos_as_xyz
 1  'x, y, z'
loop_
 _atom_site_type_symbol
 _atom_site_label
 _atom_site_symmetry_multiplicity
 _atom_site_fract_x
 _atom_site_fract_y
 _atom_site_fract_z
 _atom_site_fract_occupancy
 C  C1  1  0.23808  0.51654  0.60580  1
 C  C2  1  0.49683  0.73891  0.43461  1
 C  C3  1  0.44277  0.46430  0.49511  1
 C  C4  1  0.47871  0.39278  0.72242  1
 C  C5  1  0.29049  0.50979  0.83019  1
 C  C6  1  0.49678  0.27148  0.95012  1
 C  C7  1  0.33993  0.40215  0.05867  1
 C  C8  1  0.25449  0.93251  0.32000  1
 H  H1  1  0.76565  0.64510  0.41055  1
 H  H2  1  0.03893  0.76847  0.59319  1
 H  H3  1  0.02678  0.54400  0.82541  1
 H  H4  1  0.70128  0.24779  0.52152  1
 H  H5  1  0.09239  0.39414  0.61460  1
 H  H6  1  0.68091  0.45482  0.70750  1
 H  H7  1  0.62275  0.13325  0.74455  1
 H  H8  1  0.90246  0.31004  0.98136  1
 H  H9  1  0.47578  0.06139  0.95801  1
 H  H10  1  0.31416  0.42114  0.42736  1
 H  H11  1  0.25397  0.74063  0.82978  1
 H  H12  1  0.44974  0.88935  0.49641  1
 O  O1  1  0.97462  0.19173  0.32345  1
 O  O2  1  0.85924  0.16302  0.95253  1
 O  O3  1  0.32134  0.83770  0.22392  1
 O  O4  1  0.02313  0.49574  0.06631  1
 Zn  Zn1  1  0.64069  0.43197  0.17716  1
