CIF file written using JARVIS-Tools package.
data_Li3Pm
_symmetry_space_group_name_H-M  'P6_3/mmc'
_cell_length_a       6.61385
_cell_length_b       6.61386
_cell_length_c       5.11546
_cell_angle_alpha    90
_cell_angle_beta     90
_cell_angle_gamma    120

_symmetry_Int_Tables_number  194
_chemical_formula_structural  Li3Pm
_chemical_formula_sum  Li6Pm2
_cell_volume  193.78686416475873
_cell_formula_units_Z  2
loop_
  _symmetry_equiv_pos_site_id
 _symmetry_equiv_pos_as_xyz
 1  'x, y, z'
loop_
 _atom_site_type_symbol
 _atom_site_label
 _atom_site_symmetry_multiplicity
 _atom_site_fract_x
 _atom_site_fract_y
 _atom_site_fract_z
 _atom_site_fract_occupancy
 Li  Li1  1  0.85097  0.14903  0.75000  1
 Li  Li2  1  0.29807  0.14903  0.75000  1
 Li  Li3  1  0.85097  0.70193  0.75000  1
 Li  Li4  1  0.14903  0.85097  0.25000  1
 Li  Li5  1  0.70193  0.85097  0.25000  1
 Li  Li6  1  0.14903  0.29807  0.25000  1
 Pm  Pm1  1  0.66667  0.33333  0.25000  1
 Pm  Pm2  1  0.33333  0.66667  0.75000  1
