CIF file written using JARVIS-Tools package.
data_Sm2SCl4
_symmetry_space_group_name_H-M  'C2/c'
_cell_length_a       6.40535
_cell_length_b       7.02656
_cell_length_c       8.25083
_cell_angle_alpha    97.4108
_cell_angle_beta     112.84
_cell_angle_gamma    90

_symmetry_Int_Tables_number  15
_chemical_formula_structural  Sm2SCl4
_chemical_formula_sum  Sm4S2Cl8
_cell_volume  338.8643599479691
_cell_formula_units_Z  2
loop_
  _symmetry_equiv_pos_site_id
 _symmetry_equiv_pos_as_xyz
 1  'x, y, z'
loop_
 _atom_site_type_symbol
 _atom_site_label
 _atom_site_symmetry_multiplicity
 _atom_site_fract_x
 _atom_site_fract_y
 _atom_site_fract_z
 _atom_site_fract_occupancy
 Cl  Cl1  1  0.30365  0.57290  0.82330  1
 Cl  Cl2  1  0.48035  0.92710  0.17670  1
 Cl  Cl3  1  0.69635  0.42710  0.17670  1
 Cl  Cl4  1  0.51965  0.07290  0.82330  1
 Cl  Cl5  1  0.69872  0.68180  0.55862  1
 Cl  Cl6  1  0.14010  0.81820  0.44138  1
 Cl  Cl7  1  0.30128  0.31820  0.44138  1
 Cl  Cl8  1  0.85990  0.18180  0.55862  1
 S  S1  1  0.93208  0.75000  -0.00000  1
 S  S2  1  0.06792  0.25000  0.00000  1
 Sm  Sm1  1  0.68529  0.42201  0.78530  1
 Sm  Sm2  1  0.89999  0.07799  0.21470  1
 Sm  Sm3  1  0.31471  0.57799  0.21470  1
 Sm  Sm4  1  0.10001  0.92201  0.78530  1
