CIF file written using JARVIS-Tools package.
data_SrNiSn3
_symmetry_space_group_name_H-M  'I4mm'
_cell_length_a       4.79238
_cell_length_b       4.79239
_cell_length_c       6.42324
_cell_angle_alpha    111.904
_cell_angle_beta     111.904
_cell_angle_gamma    89.9999

_symmetry_Int_Tables_number  107
_chemical_formula_structural  SrNiSn3
_chemical_formula_sum  SrNiSn3
_cell_volume  125.32159350784347
_cell_formula_units_Z  1
loop_
  _symmetry_equiv_pos_site_id
 _symmetry_equiv_pos_as_xyz
 1  'x, y, z'
loop_
 _atom_site_type_symbol
 _atom_site_label
 _atom_site_symmetry_multiplicity
 _atom_site_fract_x
 _atom_site_fract_y
 _atom_site_fract_z
 _atom_site_fract_occupancy
 Ni  Ni1  1  0.65964  0.65964  0.31927  1
 Sn  Sn1  1  0.43060  0.43060  0.86120  1
 Sn  Sn2  1  0.74931  0.24931  0.49863  1
 Sn  Sn3  1  0.24931  0.74931  0.49863  1
 Sr  Sr1  1  0.99914  0.99914  0.99827  1
