CIF file written using JARVIS-Tools package.
data_Ce2CrN3
_symmetry_space_group_name_H-M  'Immm'
_cell_length_a       3.44618
_cell_length_b       3.73728
_cell_length_c       6.79349
_cell_angle_alpha    105.963
_cell_angle_beta     104.693
_cell_angle_gamma    90

_symmetry_Int_Tables_number  71
_chemical_formula_structural  Ce2CrN3
_chemical_formula_sum  Ce2CrN3
_cell_volume  81.14176804162942
_cell_formula_units_Z  1
loop_
  _symmetry_equiv_pos_site_id
 _symmetry_equiv_pos_as_xyz
 1  'x, y, z'
loop_
 _atom_site_type_symbol
 _atom_site_label
 _atom_site_symmetry_multiplicity
 _atom_site_fract_x
 _atom_site_fract_y
 _atom_site_fract_z
 _atom_site_fract_occupancy
 Ce  Ce1  1  0.64687  0.64688  0.29374  1
 Ce  Ce2  1  0.35313  0.35312  0.70626  1
 Cr  Cr1  1  0.00000  0.00000  0.00000  1
 N  N1  1  0.83587  0.83588  0.67174  1
 N  N2  1  0.16413  0.16412  0.32826  1
 N  N3  1  -0.00000  0.50000  0.00000  1
