CIF file written using JARVIS-Tools package.
data_H4C7S2O
_symmetry_space_group_name_H-M  'P1'
_cell_length_a       4.59254
_cell_length_b       7.49713
_cell_length_c       9.98141
_cell_angle_alpha    102.529
_cell_angle_beta     97.6983
_cell_angle_gamma    94.0795

_symmetry_Int_Tables_number  1
_chemical_formula_structural  H4C7S2O
_chemical_formula_sum  H8C4S4O2
_cell_volume  330.67221817953134
_cell_formula_units_Z  2
loop_
  _symmetry_equiv_pos_site_id
 _symmetry_equiv_pos_as_xyz
 1  'x, y, z'
loop_
 _atom_site_type_symbol
 _atom_site_label
 _atom_site_symmetry_multiplicity
 _atom_site_fract_x
 _atom_site_fract_y
 _atom_site_fract_z
 _atom_site_fract_occupancy
 C  C1  1  0.59711  0.70664  0.76499  1
 C  C2  1  0.35186  0.33787  0.09001  1
 C  C3  1  0.38972  0.52497  0.15468  1
 C  C4  1  0.88972  0.02497  0.65468  1
 C  C5  1  0.53166  0.63424  0.07950  1
 C  C6  1  0.03166  0.13424  0.57950  1
 C  C7  1  0.61112  0.52947  0.96008  1
 C  C8  1  0.11112  0.02947  0.46008  1
 C  C9  1  0.69603  0.68636  0.62461  1
 C  C10  1  0.19604  0.18636  0.12461  1
 C  C11  1  0.25429  0.08102  0.34734  1
 C  C12  1  0.75430  0.58102  0.84734  1
 C  C13  1  0.09711  0.20664  0.26499  1
 C  C14  1  0.85186  0.83787  0.59001  1
 H  H1  1  0.63223  0.84809  0.82920  1
 H  H2  1  0.85869  0.16328  0.25169  1
 H  H3  1  0.35869  0.66328  0.75169  1
 H  H4  1  0.07985  0.28258  0.61244  1
 H  H5  1  0.57985  0.78258  0.11244  1
 H  H6  1  0.81343  0.08064  0.75216  1
 H  H7  1  0.31344  0.58064  0.25216  1
 H  H8  1  0.13223  0.34809  0.32920  1
 O  O1  1  0.97530  0.50943  0.81525  1
 O  O2  1  0.47530  0.00943  0.31525  1
 S  S1  1  0.50805  0.29830  0.93806  1
 S  S2  1  0.00805  0.79830  0.43806  1
 S  S3  1  0.62761  0.48287  0.51395  1
 S  S4  1  0.12761  0.98287  0.01395  1
