CIF file written using JARVIS-Tools package.
data_H5C6SNO
_symmetry_space_group_name_H-M  'P1'
_cell_length_a       5.16999
_cell_length_b       7.48081
_cell_length_c       7.53203
_cell_angle_alpha    101.488
_cell_angle_beta     99.5008
_cell_angle_gamma    94.0973

_symmetry_Int_Tables_number  1
_chemical_formula_structural  H5C6SNO
_chemical_formula_sum  H0C2S2N2O2
_cell_volume  279.9102896210993
_cell_formula_units_Z  2
loop_
  _symmetry_equiv_pos_site_id
 _symmetry_equiv_pos_as_xyz
 1  'x, y, z'
loop_
 _atom_site_type_symbol
 _atom_site_label
 _atom_site_symmetry_multiplicity
 _atom_site_fract_x
 _atom_site_fract_y
 _atom_site_fract_z
 _atom_site_fract_occupancy
 C  C1  1  0.99511  0.86830  0.73511  1
 C  C2  1  0.12030  0.70538  0.78173  1
 C  C3  1  0.03640  0.02107  0.24726  1
 C  C4  1  0.03640  0.52107  0.74726  1
 C  C5  1  0.21219  0.91884  0.34383  1
 C  C6  1  0.12030  0.20538  0.28173  1
 C  C7  1  0.21219  0.41884  0.84383  1
 C  C8  1  0.42696  0.02847  0.45406  1
 C  C9  1  0.42696  0.52847  0.95406  1
 C  C10  1  0.99511  0.36830  0.23512  1
 C  C11  1  0.76174  0.34052  0.07681  1
 C  C12  1  0.76174  0.84052  0.57681  1
 H  H1  1  0.93678  0.94871  0.85918  1
 H  H2  1  0.14474  0.96199  0.69954  1
 H  H3  1  0.67771  0.59046  0.20704  1
 H  H4  1  0.67771  0.09046  0.70704  1
 H  H5  1  0.84853  0.46146  0.65965  1
 H  H6  1  0.84853  0.96145  0.15965  1
 H  H7  1  0.17703  0.27246  0.83858  1
 H  H8  1  0.17703  0.77246  0.33858  1
 H  H9  1  0.93678  0.44871  0.35918  1
 H  H10  1  0.14474  0.46199  0.19954  1
 N  N1  1  0.63057  0.99275  0.58538  1
 N  N2  1  0.63056  0.49275  0.08538  1
 O  O1  1  0.70375  0.70189  0.45018  1
 O  O2  1  0.70375  0.20189  0.95018  1
 S  S1  1  0.42090  0.25397  0.43134  1
 S  S2  1  0.42090  0.75397  0.93134  1
