CIF file written using JARVIS-Tools package.
data_ThUCu4Si4
_symmetry_space_group_name_H-M  'P4/mmm'
_cell_length_a       4.05474
_cell_length_b       4.05474
_cell_length_c       9.86047
_cell_angle_alpha    90
_cell_angle_beta     90
_cell_angle_gamma    90

_symmetry_Int_Tables_number  123
_chemical_formula_structural  ThUCu4Si4
_chemical_formula_sum  ThUCu4Si4
_cell_volume  162.11531774401124
_cell_formula_units_Z  1
loop_
  _symmetry_equiv_pos_site_id
 _symmetry_equiv_pos_as_xyz
 1  'x, y, z'
loop_
 _atom_site_type_symbol
 _atom_site_label
 _atom_site_symmetry_multiplicity
 _atom_site_fract_x
 _atom_site_fract_y
 _atom_site_fract_z
 _atom_site_fract_occupancy
 Cu  Cu1  1  0.00000  0.50000  0.25336  1
 Cu  Cu2  1  0.50000  0.00000  0.74664  1
 Cu  Cu3  1  0.50000  0.00000  0.25336  1
 Cu  Cu4  1  0.00000  0.50000  0.74664  1
 Si  Si1  1  0.50000  0.50000  0.12351  1
 Si  Si2  1  0.00000  0.00000  0.61634  1
 Si  Si3  1  0.00000  0.00000  0.38366  1
 Si  Si4  1  0.50000  0.50000  0.87649  1
 Th  Th1  1  0.00000  0.00000  0.00000  1
 U  U1  1  0.50000  0.50000  0.50000  1
