CIF file written using JARVIS-Tools package.
data_Te3MoWSe
_symmetry_space_group_name_H-M  'P3m1'
_cell_length_a       3.51008
_cell_length_b       3.51012
_cell_length_c       39.3679
_cell_angle_alpha    89.9997
_cell_angle_beta     90
_cell_angle_gamma    120

_symmetry_Int_Tables_number  156
_chemical_formula_structural  Te3MoWSe
_chemical_formula_sum  Te6Mo2W2Se2
_cell_volume  420.06176691861685
_cell_formula_units_Z  2
loop_
  _symmetry_equiv_pos_site_id
 _symmetry_equiv_pos_as_xyz
 1  'x, y, z'
loop_
 _atom_site_type_symbol
 _atom_site_label
 _atom_site_symmetry_multiplicity
 _atom_site_fract_x
 _atom_site_fract_y
 _atom_site_fract_z
 _atom_site_fract_occupancy
 Mo  Mo1  1  0.33331  0.66662  0.09394  1
 Mo  Mo2  1  0.33331  0.66662  0.46963  1
 Se  Se1  1  0.33336  0.66671  0.32300  1
 Se  Se2  1  0.33335  0.66671  0.24059  1
 Te  Te1  1  0.33336  0.66671  0.70407  1
 Te  Te2  1  0.66664  0.33329  0.04758  1
 Te  Te3  1  0.66664  0.33329  0.42299  1
 Te  Te4  1  0.66665  0.33329  0.14057  1
 Te  Te5  1  0.66664  0.33328  0.51622  1
 Te  Te6  1  0.33336  0.66671  0.61080  1
 W  W1  1  0.66669  0.33339  0.28180  1
 W  W2  1  0.66669  0.33338  0.65757  1
