CIF file written using JARVIS-Tools package.
data_NbV3O8
_symmetry_space_group_name_H-M  'Cmc2_1'
_cell_length_a       5.84557
_cell_length_b       5.82768
_cell_length_c       9.38913
_cell_angle_alpha    90.0073
_cell_angle_beta     89.9964
_cell_angle_gamma    119.899

_symmetry_Int_Tables_number  36
_chemical_formula_structural  NbV3O8
_chemical_formula_sum  Nb2V6O6
_cell_volume  277.2813350503398
_cell_formula_units_Z  2
loop_
  _symmetry_equiv_pos_site_id
 _symmetry_equiv_pos_as_xyz
 1  'x, y, z'
loop_
 _atom_site_type_symbol
 _atom_site_label
 _atom_site_symmetry_multiplicity
 _atom_site_fract_x
 _atom_site_fract_y
 _atom_site_fract_z
 _atom_site_fract_occupancy
 Nb  Nb1  1  0.37409  0.68704  0.49022  1
 Nb  Nb2  1  0.62591  0.31295  0.99022  1
 O  O1  1  0.18076  0.83714  0.59869  1
 O  O2  1  0.02435  0.51219  0.33945  1
 O  O3  1  0.31513  0.65756  0.10869  1
 O  O4  1  0.97565  0.48784  0.83944  1
 O  O5  1  0.01250  0.00627  0.81219  1
 O  O6  1  0.18079  0.34365  0.59868  1
 O  O7  1  -0.01250  -0.00623  0.31219  1
 O  O8  1  0.47000  0.51402  0.33249  1
 O  O9  1  0.31447  0.15722  0.10264  1
 O  O10  1  0.68553  0.84276  0.60264  1
 O  O11  1  0.53001  0.48603  0.83253  1
 O  O12  1  0.53000  0.04402  0.83249  1
 O  O13  1  0.68487  0.34243  0.60869  1
 O  O14  1  0.81924  0.65639  0.09869  1
 O  O15  1  0.46999  0.95602  0.33253  1
 O  O16  1  0.81921  0.16286  0.09868  1
 V  V1  1  0.86173  0.19087  0.72009  1
 V  V2  1  0.86174  0.67086  0.72016  1
 V  V3  1  0.34788  0.17397  0.70204  1
 V  V4  1  0.65212  0.82609  0.20204  1
 V  V5  1  0.13827  0.32913  0.22009  1
 V  V6  1  0.13826  0.80912  0.22016  1
