CIF file written using JARVIS-Tools package.
data_Na2Ti3O7
_symmetry_space_group_name_H-M  'P2_1/m'
_cell_length_a       8.59954
_cell_length_b       3.81166
_cell_length_c       9.19182
_cell_angle_alpha    90
_cell_angle_beta     101.819
_cell_angle_gamma    90

_symmetry_Int_Tables_number  11
_chemical_formula_structural  Na2Ti3O7
_chemical_formula_sum  Na4Ti6O4
_cell_volume  294.9064616899296
_cell_formula_units_Z  2
loop_
  _symmetry_equiv_pos_site_id
 _symmetry_equiv_pos_as_xyz
 1  'x, y, z'
loop_
 _atom_site_type_symbol
 _atom_site_label
 _atom_site_symmetry_multiplicity
 _atom_site_fract_x
 _atom_site_fract_y
 _atom_site_fract_z
 _atom_site_fract_occupancy
 Na  Na1  1  0.49869  0.75000  0.15817  1
 Na  Na2  1  0.50131  0.25000  0.84183  1
 Na  Na3  1  0.68335  0.75000  0.58758  1
 Na  Na4  1  0.31665  0.25000  0.41242  1
 O  O1  1  0.91449  0.75000  0.04318  1
 O  O2  1  0.85153  0.25000  0.53648  1
 O  O3  1  0.80221  0.75000  0.31610  1
 O  O4  1  0.19779  0.25000  0.68390  1
 O  O5  1  0.01531  0.75000  0.75395  1
 O  O6  1  0.08551  0.25000  0.95682  1
 O  O7  1  0.32711  0.75000  0.90954  1
 O  O8  1  0.67289  0.25000  0.09046  1
 O  O9  1  0.44600  0.75000  0.65289  1
 O  O10  1  0.78019  0.25000  0.81104  1
 O  O11  1  0.98469  0.25000  0.24605  1
 O  O12  1  0.21981  0.75000  0.18896  1
 O  O13  1  0.55400  0.25000  0.34711  1
 O  O14  1  0.14847  0.75000  0.46352  1
 Ti  Ti1  1  0.85222  0.25000  0.01449  1
 Ti  Ti2  1  0.14778  0.75000  0.98551  1
 Ti  Ti3  1  0.74984  0.25000  0.32335  1
 Ti  Ti4  1  0.25016  0.75000  0.67665  1
 Ti  Ti5  1  0.96984  0.25000  0.72028  1
 Ti  Ti6  1  0.03016  0.75000  0.27972  1
