CIF file written using JARVIS-Tools package.
data_K3VSe4
_symmetry_space_group_name_H-M  'I-42m'
_cell_length_a       7.66868
_cell_length_b       7.66868
_cell_length_c       7.66867
_cell_angle_alpha    122.394
_cell_angle_beta     122.394
_cell_angle_gamma    85.9011

_symmetry_Int_Tables_number  121
_chemical_formula_structural  K3VSe4
_chemical_formula_sum  K3VSe4
_cell_volume  306.4995920987964
_cell_formula_units_Z  1
loop_
  _symmetry_equiv_pos_site_id
 _symmetry_equiv_pos_as_xyz
 1  'x, y, z'
loop_
 _atom_site_type_symbol
 _atom_site_label
 _atom_site_symmetry_multiplicity
 _atom_site_fract_x
 _atom_site_fract_y
 _atom_site_fract_z
 _atom_site_fract_occupancy
 K  K1  1  0.50000  0.50000  0.00000  1
 K  K2  1  0.75000  0.25000  0.50000  1
 K  K3  1  0.25000  0.75000  0.50000  1
 Se  Se1  1  0.29532  0.92355  -0.00000  1
 Se  Se2  1  0.92355  0.29532  -0.00000  1
 Se  Se3  1  0.70468  0.70468  0.62823  1
 Se  Se4  1  0.07645  0.07645  0.37177  1
 V  V1  1  0.00000  0.00000  0.00000  1
