CIF file written using JARVIS-Tools package.
data_MgH2C3O4
_symmetry_space_group_name_H-M  'P1'
_cell_length_a       4.73403
_cell_length_b       6.09527
_cell_length_c       7.14856
_cell_angle_alpha    74.3697
_cell_angle_beta     76.065
_cell_angle_gamma    91.1362

_symmetry_Int_Tables_number  1
_chemical_formula_structural  MgH2C3O4
_chemical_formula_sum  Mg2H4C6O8
_cell_volume  192.00574083376682
_cell_formula_units_Z  2
loop_
  _symmetry_equiv_pos_site_id
 _symmetry_equiv_pos_as_xyz
 1  'x, y, z'
loop_
 _atom_site_type_symbol
 _atom_site_label
 _atom_site_symmetry_multiplicity
 _atom_site_fract_x
 _atom_site_fract_y
 _atom_site_fract_z
 _atom_site_fract_occupancy
 C  C1  1  0.24608  0.54671  0.28919  1
 C  C2  1  0.82924  0.85126  0.68438  1
 C  C3  1  0.42500  0.75756  0.13861  1
 C  C4  1  0.66977  0.63688  0.67344  1
 C  C5  1  0.52730  0.92733  0.23339  1
 C  C6  1  0.62610  0.41123  0.83651  1
 H  H1  1  0.45552  0.67734  0.65001  1
 H  H2  1  0.29890  0.83477  0.03176  1
 H  H3  1  0.79299  0.60152  0.53448  1
 H  H4  1  0.62216  0.69440  0.06097  1
 Mg  Mg1  1  0.33609  0.14205  0.59609  1
 Mg  Mg2  1  0.06440  0.21249  0.11588  1
 O  O1  1  0.39294  0.27804  0.85766  1
 O  O2  1  0.80234  0.35940  0.94214  1
 O  O3  1  0.31966  0.46339  0.45144  1
 O  O4  1  0.72221  0.03983  0.62337  1
 O  O5  1  0.79271  0.93692  0.23529  1
 O  O6  1  0.06843  0.84942  0.73695  1
 O  O7  1  0.34295  0.05489  0.30639  1
 O  O8  1  0.04045  0.45984  0.23934  1
