CIF file written using JARVIS-Tools package.
data_Fe2P
_symmetry_space_group_name_H-M  'P-62m'
_cell_length_a       5.79882
_cell_length_b       5.79882
_cell_length_c       3.44749
_cell_angle_alpha    90
_cell_angle_beta     90
_cell_angle_gamma    120

_symmetry_Int_Tables_number  189
_chemical_formula_structural  Fe2P
_chemical_formula_sum  Fe6P3
_cell_volume  100.39499491339718
_cell_formula_units_Z  3
loop_
  _symmetry_equiv_pos_site_id
 _symmetry_equiv_pos_as_xyz
 1  'x, y, z'
loop_
 _atom_site_type_symbol
 _atom_site_label
 _atom_site_symmetry_multiplicity
 _atom_site_fract_x
 _atom_site_fract_y
 _atom_site_fract_z
 _atom_site_fract_occupancy
 Fe  Fe1  1  0.00000  0.40759  0.50000  1
 Fe  Fe2  1  0.59241  0.59241  0.50000  1
 Fe  Fe3  1  0.40759  0.00000  0.50000  1
 Fe  Fe4  1  0.74262  0.00000  0.00000  1
 Fe  Fe5  1  0.25738  0.25738  0.00000  1
 Fe  Fe6  1  0.00000  0.74262  0.00000  1
 P  P1  1  0.66667  0.33333  0.00000  1
 P  P2  1  0.33333  0.66667  0.00000  1
 P  P3  1  0.00000  0.00000  0.50000  1
