CIF file written using JARVIS-Tools package.
data_CoSnO3
_symmetry_space_group_name_H-M  'Pnma'
_cell_length_a       5.35414
_cell_length_b       5.41134
_cell_length_c       7.79158
_cell_angle_alpha    89.9984
_cell_angle_beta     89.9993
_cell_angle_gamma    90.0002

_symmetry_Int_Tables_number  62
_chemical_formula_structural  CoSnO3
_chemical_formula_sum  Co4Sn4O2
_cell_volume  225.74598737741692
_cell_formula_units_Z  4
loop_
  _symmetry_equiv_pos_site_id
 _symmetry_equiv_pos_as_xyz
 1  'x, y, z'
loop_
 _atom_site_type_symbol
 _atom_site_label
 _atom_site_symmetry_multiplicity
 _atom_site_fract_x
 _atom_site_fract_y
 _atom_site_fract_z
 _atom_site_fract_occupancy
 Co  Co1  1  0.02516  0.98569  0.75002  1
 Co  Co2  1  0.52516  0.51431  0.75000  1
 Co  Co3  1  0.47482  0.48572  0.25002  1
 Co  Co4  1  0.97483  0.01428  0.25001  1
 O  O1  1  0.59762  0.12875  0.25000  1
 O  O2  1  0.16506  0.83699  0.43075  1
 O  O3  1  0.83497  0.16298  0.93077  1
 O  O4  1  0.33500  0.33704  0.56921  1
 O  O5  1  0.83502  0.16293  0.56920  1
 O  O6  1  0.09762  0.37125  0.25000  1
 O  O7  1  0.90237  0.62872  0.75000  1
 O  O8  1  0.66504  0.66298  0.43078  1
 O  O9  1  0.33497  0.33705  0.93078  1
 O  O10  1  0.16500  0.83704  0.06920  1
 O  O11  1  0.66503  0.66299  0.06924  1
 O  O12  1  0.40237  0.87128  0.75000  1
 Sn  Sn1  1  -0.00000  0.49999  0.50000  1
 Sn  Sn2  1  0.99999  0.50000  0.00001  1
 Sn  Sn3  1  0.50000  0.00000  0.50000  1
 Sn  Sn4  1  0.49999  0.00001  0.00001  1
