CIF file written using JARVIS-Tools package.
data_TaCu3Se3S
_symmetry_space_group_name_H-M  'R3m'
_cell_length_a       5.62505
_cell_length_b       5.62506
_cell_length_c       5.62505
_cell_angle_alpha    89.1626
_cell_angle_beta     89.1626
_cell_angle_gamma    89.1626

_symmetry_Int_Tables_number  160
_chemical_formula_structural  TaCu3Se3S
_chemical_formula_sum  TaCu3Se3S
_cell_volume  177.9272121125964
_cell_formula_units_Z  1
loop_
  _symmetry_equiv_pos_site_id
 _symmetry_equiv_pos_as_xyz
 1  'x, y, z'
loop_
 _atom_site_type_symbol
 _atom_site_label
 _atom_site_symmetry_multiplicity
 _atom_site_fract_x
 _atom_site_fract_y
 _atom_site_fract_z
 _atom_site_fract_occupancy
 Cu  Cu1  1  0.00604  0.49747  0.00604  1
 Cu  Cu2  1  0.00604  0.00604  0.49747  1
 Cu  Cu3  1  0.49747  0.00604  0.00604  1
 S  S1  1  0.23552  0.23552  0.23552  1
 Se  Se1  1  0.26083  0.74747  0.74747  1
 Se  Se2  1  0.74747  0.74747  0.26083  1
 Se  Se3  1  0.74747  0.26083  0.74747  1
 Ta  Ta1  1  0.99916  0.99916  0.99916  1
