CIF file written using JARVIS-Tools package.
data_ThGe2Rh2
_symmetry_space_group_name_H-M  'I4/mmm'
_cell_length_a       4.20414
_cell_length_b       4.20413
_cell_length_c       6.00837
_cell_angle_alpha    110.479
_cell_angle_beta     110.479
_cell_angle_gamma    90

_symmetry_Int_Tables_number  139
_chemical_formula_structural  ThGe2Rh2
_chemical_formula_sum  ThGe2Rh2
_cell_volume  92.28724432767758
_cell_formula_units_Z  1
loop_
  _symmetry_equiv_pos_site_id
 _symmetry_equiv_pos_as_xyz
 1  'x, y, z'
loop_
 _atom_site_type_symbol
 _atom_site_label
 _atom_site_symmetry_multiplicity
 _atom_site_fract_x
 _atom_site_fract_y
 _atom_site_fract_z
 _atom_site_fract_occupancy
 Ge  Ge1  1  0.62197  0.62197  0.24394  1
 Ge  Ge2  1  0.37803  0.37803  0.75606  1
 Rh  Rh1  1  0.75000  0.25000  0.50000  1
 Rh  Rh2  1  0.25000  0.75000  0.50000  1
 Th  Th1  1  0.00000  0.00000  0.00000  1
