CIF file written using JARVIS-Tools package.
data_H2C3SO2
_symmetry_space_group_name_H-M  'P1'
_cell_length_a       4.85177
_cell_length_b       6.23904
_cell_length_c       6.3827
_cell_angle_alpha    75.5912
_cell_angle_beta     76.0928
_cell_angle_gamma    80.1434

_symmetry_Int_Tables_number  1
_chemical_formula_structural  H2C3SO2
_chemical_formula_sum  H4C6S2O4
_cell_volume  180.36467732238395
_cell_formula_units_Z  2
loop_
  _symmetry_equiv_pos_site_id
 _symmetry_equiv_pos_as_xyz
 1  'x, y, z'
loop_
 _atom_site_type_symbol
 _atom_site_label
 _atom_site_symmetry_multiplicity
 _atom_site_fract_x
 _atom_site_fract_y
 _atom_site_fract_z
 _atom_site_fract_occupancy
 C  C1  1  0.07999  0.26483  0.78318  1
 C  C2  1  0.59736  0.26772  0.78800  1
 C  C3  1  0.37607  0.13124  0.77330  1
 C  C4  1  0.08005  0.76432  0.28333  1
 C  C5  1  0.59751  0.76735  0.28772  1
 C  C6  1  0.37604  0.63064  0.27378  1
 H  H1  1  0.60917  0.41715  0.65411  1
 H  H2  1  0.53383  0.32554  0.94405  1
 H  H3  1  0.60971  0.91616  0.15309  1
 H  H4  1  0.53393  0.82619  0.44321  1
 O  O1  1  0.42187  0.93557  0.76145  1
 O  O2  1  0.42166  0.43478  0.26262  1
 O  O3  1  0.87939  0.64207  0.27691  1
 O  O4  1  0.87942  0.14266  0.77647  1
 S  S1  1  0.02613  0.52572  0.80451  1
 S  S2  1  0.02635  0.02540  0.30399  1
