CIF file written using JARVIS-Tools package.
data_U2Cu3Si4Ni
_symmetry_space_group_name_H-M  'P-4m2'
_cell_length_a       3.97041
_cell_length_b       3.97041
_cell_length_c       9.86241
_cell_angle_alpha    90
_cell_angle_beta     90
_cell_angle_gamma    90

_symmetry_Int_Tables_number  115
_chemical_formula_structural  U2Cu3Si4Ni
_chemical_formula_sum  U2Cu3Si4Ni
_cell_volume  155.47284723083442
_cell_formula_units_Z  1
loop_
  _symmetry_equiv_pos_site_id
 _symmetry_equiv_pos_as_xyz
 1  'x, y, z'
loop_
 _atom_site_type_symbol
 _atom_site_label
 _atom_site_symmetry_multiplicity
 _atom_site_fract_x
 _atom_site_fract_y
 _atom_site_fract_z
 _atom_site_fract_occupancy
 Cu  Cu1  1  0.00000  0.00000  0.50000  1
 Cu  Cu2  1  0.00000  0.00000  0.00000  1
 Cu  Cu3  1  0.50000  0.50000  0.50000  1
 Ni  Ni1  1  0.50000  0.50000  0.00000  1
 Si  Si1  1  0.00000  0.50000  0.87352  1
 Si  Si2  1  0.50000  0.00000  0.36429  1
 Si  Si3  1  0.50000  0.00000  0.12648  1
 Si  Si4  1  0.00000  0.50000  0.63571  1
 U  U1  1  0.50000  0.00000  0.75398  1
 U  U2  1  0.00000  0.50000  0.24602  1
