CIF file written using JARVIS-Tools package.
data_Al2O3
_symmetry_space_group_name_H-M  'P-31c'
_cell_length_a       4.84427
_cell_length_b       4.84427
_cell_length_c       9.03986
_cell_angle_alpha    90
_cell_angle_beta     90
_cell_angle_gamma    120

_symmetry_Int_Tables_number  163
_chemical_formula_structural  Al2O3
_chemical_formula_sum  Al8O2
_cell_volume  183.71701448748854
_cell_formula_units_Z  4
loop_
  _symmetry_equiv_pos_site_id
 _symmetry_equiv_pos_as_xyz
 1  'x, y, z'
loop_
 _atom_site_type_symbol
 _atom_site_label
 _atom_site_symmetry_multiplicity
 _atom_site_fract_x
 _atom_site_fract_y
 _atom_site_fract_z
 _atom_site_fract_occupancy
 Al  Al1  1  0.66667  0.33333  0.96142  1
 Al  Al2  1  0.66667  0.33333  0.25000  1
 Al  Al3  1  0.00000  0.00000  0.00000  1
 Al  Al4  1  0.00000  0.00000  0.50000  1
 Al  Al5  1  0.66667  0.33333  0.53858  1
 Al  Al6  1  0.33333  0.66667  0.03858  1
 Al  Al7  1  0.33333  0.66667  0.75000  1
 Al  Al8  1  0.33333  0.66667  0.46142  1
 O  O1  1  0.35523  0.03193  0.11207  1
 O  O2  1  0.67670  0.64477  0.11207  1
 O  O3  1  0.67670  0.03193  0.38793  1
 O  O4  1  0.64477  0.96807  0.88793  1
 O  O5  1  0.32330  0.96807  0.61207  1
 O  O6  1  0.96807  0.64477  0.38793  1
 O  O7  1  0.35523  0.32330  0.38793  1
 O  O8  1  0.32330  0.35523  0.88793  1
 O  O9  1  0.96807  0.32330  0.11207  1
 O  O10  1  0.03193  0.67670  0.88793  1
 O  O11  1  0.03193  0.35523  0.61207  1
 O  O12  1  0.64477  0.67670  0.61207  1
