CIF file written using JARVIS-Tools package.
data_ZrTi2Al
_symmetry_space_group_name_H-M  'Amm2'
_cell_length_a       5.90826
_cell_length_b       5.90827
_cell_length_c       4.78629
_cell_angle_alpha    90
_cell_angle_beta     90
_cell_angle_gamma    120.153

_symmetry_Int_Tables_number  38
_chemical_formula_structural  ZrTi2Al
_chemical_formula_sum  Zr2Ti4Al2
_cell_volume  144.46950776915662
_cell_formula_units_Z  2
loop_
  _symmetry_equiv_pos_site_id
 _symmetry_equiv_pos_as_xyz
 1  'x, y, z'
loop_
 _atom_site_type_symbol
 _atom_site_label
 _atom_site_symmetry_multiplicity
 _atom_site_fract_x
 _atom_site_fract_y
 _atom_site_fract_z
 _atom_site_fract_occupancy
 Al  Al1  1  0.33405  0.66595  0.50000  1
 Al  Al2  1  0.67089  0.32911  0.00000  1
 Ti  Ti1  1  0.82924  0.17076  0.50000  1
 Ti  Ti2  1  0.65682  0.83565  0.00000  1
 Ti  Ti3  1  0.16435  0.34318  0.00000  1
 Ti  Ti4  1  0.17537  0.82463  0.00000  1
 Zr  Zr1  1  0.33537  0.16629  0.50000  1
 Zr  Zr2  1  0.83371  0.66463  0.50000  1
