CIF file written using JARVIS-Tools package.
data_La2MgSi2
_symmetry_space_group_name_H-M  'P4/mbm'
_cell_length_a       7.50455
_cell_length_b       7.50455
_cell_length_c       4.48697
_cell_angle_alpha    90
_cell_angle_beta     90
_cell_angle_gamma    90

_symmetry_Int_Tables_number  127
_chemical_formula_structural  La2MgSi2
_chemical_formula_sum  La4Mg2Si4
_cell_volume  252.69790310307604
_cell_formula_units_Z  2
loop_
  _symmetry_equiv_pos_site_id
 _symmetry_equiv_pos_as_xyz
 1  'x, y, z'
loop_
 _atom_site_type_symbol
 _atom_site_label
 _atom_site_symmetry_multiplicity
 _atom_site_fract_x
 _atom_site_fract_y
 _atom_site_fract_z
 _atom_site_fract_occupancy
 La  La1  1  0.68012  0.18012  0.50000  1
 La  La2  1  0.31988  0.81988  0.50000  1
 La  La3  1  0.18012  0.31988  0.50000  1
 La  La4  1  0.81988  0.68012  0.50000  1
 Mg  Mg1  1  0.00000  0.00000  0.00000  1
 Mg  Mg2  1  0.50000  0.50000  0.00000  1
 Si  Si1  1  0.11421  0.61421  0.00000  1
 Si  Si2  1  0.88579  0.38579  0.00000  1
 Si  Si3  1  0.61421  0.88579  0.00000  1
 Si  Si4  1  0.38579  0.11421  0.00000  1
