CIF file written using JARVIS-Tools package.
data_Mg2Ni
_symmetry_space_group_name_H-M  'I4/mcm'
_cell_length_a       5.10241
_cell_length_b       5.1024
_cell_length_c       5.10241
_cell_angle_alpha    105.687
_cell_angle_beta     105.687
_cell_angle_gamma    117.337

_symmetry_Int_Tables_number  140
_chemical_formula_structural  Mg2Ni
_chemical_formula_sum  Mg4Ni2
_cell_volume  100.79550363218402
_cell_formula_units_Z  2
loop_
  _symmetry_equiv_pos_site_id
 _symmetry_equiv_pos_as_xyz
 1  'x, y, z'
loop_
 _atom_site_type_symbol
 _atom_site_label
 _atom_site_symmetry_multiplicity
 _atom_site_fract_x
 _atom_site_fract_y
 _atom_site_fract_z
 _atom_site_fract_occupancy
 Mg  Mg1  1  0.67732  0.82268  0.50000  1
 Mg  Mg2  1  0.32268  0.17732  0.50000  1
 Mg  Mg3  1  0.17732  0.67732  0.85464  1
 Mg  Mg4  1  0.82268  0.32268  0.14536  1
 Ni  Ni1  1  0.25000  0.25000  0.00000  1
 Ni  Ni2  1  0.75000  0.75000  -0.00000  1
