CIF file written using JARVIS-Tools package.
data_Li3CuO2
_symmetry_space_group_name_H-M  'P2_1/c'
_cell_length_a       5.10645
_cell_length_b       8.7774
_cell_length_c       6.2067
_cell_angle_alpha    90
_cell_angle_beta     112.478
_cell_angle_gamma    90

_symmetry_Int_Tables_number  14
_chemical_formula_structural  Li3CuO2
_chemical_formula_sum  Li2Cu4O8
_cell_volume  257.0574988903253
_cell_formula_units_Z  4
loop_
  _symmetry_equiv_pos_site_id
 _symmetry_equiv_pos_as_xyz
 1  'x, y, z'
loop_
 _atom_site_type_symbol
 _atom_site_label
 _atom_site_symmetry_multiplicity
 _atom_site_fract_x
 _atom_site_fract_y
 _atom_site_fract_z
 _atom_site_fract_occupancy
 Cu  Cu1  1  0.26957  0.31533  0.31940  1
 Cu  Cu2  1  0.73043  0.81533  0.18060  1
 Cu  Cu3  1  0.26957  0.18467  0.81940  1
 Cu  Cu4  1  0.73043  0.68467  0.68060  1
 Li  Li1  1  0.24540  0.49167  0.00230  1
 Li  Li2  1  0.22838  0.03245  0.13095  1
 Li  Li3  1  0.71171  0.19260  0.19097  1
 Li  Li4  1  0.77162  0.53245  0.36905  1
 Li  Li5  1  0.75460  0.99167  0.49770  1
 Li  Li6  1  0.75460  0.50833  -0.00230  1
 Li  Li7  1  0.24540  0.00833  0.50230  1
 Li  Li8  1  0.71171  0.30740  0.69097  1
 Li  Li9  1  0.22838  0.46755  0.63095  1
 Li  Li10  1  0.28829  0.80740  0.80903  1
 Li  Li11  1  0.77162  0.96755  0.86905  1
 Li  Li12  1  0.28829  0.69260  0.30903  1
 O  O1  1  0.49738  0.84816  0.60987  1
 O  O2  1  0.08619  0.00266  0.78610  1
 O  O3  1  0.49738  0.65184  0.10987  1
 O  O4  1  0.91381  0.99734  0.21390  1
 O  O5  1  0.50262  0.15184  0.39013  1
 O  O6  1  0.08619  0.49734  0.28610  1
 O  O7  1  0.91381  0.50266  0.71390  1
 O  O8  1  0.50262  0.34816  0.89013  1
