CIF file written using JARVIS-Tools package.
data_LiMnF3
_symmetry_space_group_name_H-M  'Pna2_1'
_cell_length_a       5.23042
_cell_length_b       5.22042
_cell_length_c       8.35954
_cell_angle_alpha    90
_cell_angle_beta     90
_cell_angle_gamma    90

_symmetry_Int_Tables_number  33
_chemical_formula_structural  LiMnF3
_chemical_formula_sum  Li4Mn4F2
_cell_volume  228.25713913669054
_cell_formula_units_Z  4
loop_
  _symmetry_equiv_pos_site_id
 _symmetry_equiv_pos_as_xyz
 1  'x, y, z'
loop_
 _atom_site_type_symbol
 _atom_site_label
 _atom_site_symmetry_multiplicity
 _atom_site_fract_x
 _atom_site_fract_y
 _atom_site_fract_z
 _atom_site_fract_occupancy
 F  F1  1  0.22821  0.49415  0.66233  1
 F  F2  1  0.64693  0.54654  -0.00665  1
 F  F3  1  0.22439  0.95484  0.84891  1
 F  F4  1  0.22821  0.00585  0.16233  1
 F  F5  1  0.72821  0.50585  0.33767  1
 F  F6  1  0.72439  0.04516  0.15109  1
 F  F7  1  0.14693  0.04654  0.50665  1
 F  F8  1  0.64693  0.95346  0.49335  1
 F  F9  1  0.72439  0.45484  0.65109  1
 F  F10  1  0.14693  0.45346  0.00665  1
 F  F11  1  0.72821  0.99415  0.83767  1
 F  F12  1  0.22439  0.54516  0.34891  1
 Li  Li1  1  0.98341  0.13659  0.99793  1
 Li  Li2  1  0.48341  0.63659  0.50207  1
 Li  Li3  1  0.98341  0.36341  0.49793  1
 Li  Li4  1  0.48341  0.86341  0.00207  1
 Mn  Mn1  1  0.95032  0.64650  0.82451  1
 Mn  Mn2  1  0.45032  0.14650  0.67549  1
 Mn  Mn3  1  0.95032  0.85350  0.32451  1
 Mn  Mn4  1  0.45032  0.35350  0.17549  1
