CIF file written using JARVIS-Tools package.
data_MgPd3
_symmetry_space_group_name_H-M  'P6_3/mmc'
_cell_length_a       5.62144
_cell_length_b       5.62144
_cell_length_c       4.54197
_cell_angle_alpha    90
_cell_angle_beta     90
_cell_angle_gamma    120

_symmetry_Int_Tables_number  194
_chemical_formula_structural  MgPd3
_chemical_formula_sum  Mg2Pd6
_cell_volume  124.29964025350515
_cell_formula_units_Z  2
loop_
  _symmetry_equiv_pos_site_id
 _symmetry_equiv_pos_as_xyz
 1  'x, y, z'
loop_
 _atom_site_type_symbol
 _atom_site_label
 _atom_site_symmetry_multiplicity
 _atom_site_fract_x
 _atom_site_fract_y
 _atom_site_fract_z
 _atom_site_fract_occupancy
 Mg  Mg1  1  0.66667  0.33333  0.25000  1
 Mg  Mg2  1  0.33333  0.66667  0.75000  1
 Pd  Pd1  1  0.16682  0.33364  0.25000  1
 Pd  Pd2  1  0.16682  0.83318  0.25000  1
 Pd  Pd3  1  0.66636  0.83318  0.25000  1
 Pd  Pd4  1  0.33364  0.16682  0.75000  1
 Pd  Pd5  1  0.83318  0.16682  0.75000  1
 Pd  Pd6  1  0.83318  0.66636  0.75000  1
