CIF file written using JARVIS-Tools package.
data_Xe
_symmetry_space_group_name_H-M  'Fmmm'
_cell_length_a       8.67874
_cell_length_b       8.67874
_cell_length_c       4.39517
_cell_angle_alpha    90
_cell_angle_beta     90
_cell_angle_gamma    129.82

_symmetry_Int_Tables_number  69
_chemical_formula_structural  Xe
_chemical_formula_sum  Xe4
_cell_volume  254.26492413598297
_cell_formula_units_Z  4
loop_
  _symmetry_equiv_pos_site_id
 _symmetry_equiv_pos_as_xyz
 1  'x, y, z'
loop_
 _atom_site_type_symbol
 _atom_site_label
 _atom_site_symmetry_multiplicity
 _atom_site_fract_x
 _atom_site_fract_y
 _atom_site_fract_z
 _atom_site_fract_occupancy
 Xe  Xe1  1  0.36694  0.63306  0.50019  1
 Xe  Xe2  1  0.86694  0.13306  -0.00019  1
 Xe  Xe3  1  0.13306  0.86694  0.00019  1
 Xe  Xe4  1  0.63306  0.36694  0.49981  1
