CIF file written using JARVIS-Tools package.
data_Dy3In4Co2
_symmetry_space_group_name_H-M  'P-6'
_cell_length_a       8.07807
_cell_length_b       8.07808
_cell_length_c       3.52404
_cell_angle_alpha    90
_cell_angle_beta     90
_cell_angle_gamma    120

_symmetry_Int_Tables_number  174
_chemical_formula_structural  Dy3In4Co2
_chemical_formula_sum  Dy3In4Co2
_cell_volume  199.15315047878406
_cell_formula_units_Z  1
loop_
  _symmetry_equiv_pos_site_id
 _symmetry_equiv_pos_as_xyz
 1  'x, y, z'
loop_
 _atom_site_type_symbol
 _atom_site_label
 _atom_site_symmetry_multiplicity
 _atom_site_fract_x
 _atom_site_fract_y
 _atom_site_fract_z
 _atom_site_fract_occupancy
 Co  Co1  1  0.66667  0.33333  0.00000  1
 Co  Co2  1  0.00000  0.00000  0.50000  1
 Dy  Dy1  1  0.41376  0.07424  0.50000  1
 Dy  Dy2  1  0.66048  0.58624  0.50000  1
 Dy  Dy3  1  0.92576  0.33952  0.50000  1
 In  In1  1  0.33333  0.66667  0.50000  1
 In  In2  1  0.24709  0.28432  0.00000  1
 In  In3  1  0.03723  0.75291  0.00000  1
 In  In4  1  0.71568  0.96277  0.00000  1
