CIF file written using JARVIS-Tools package.
data_Ho3Er3MnBi2
_symmetry_space_group_name_H-M  'P-62m'
_cell_length_a       4.20461
_cell_length_b       8.20496
_cell_length_c       8.20453
_cell_angle_alpha    119.998
_cell_angle_beta     90
_cell_angle_gamma    90

_symmetry_Int_Tables_number  189
_chemical_formula_structural  Ho3Er3MnBi2
_chemical_formula_sum  Ho3Er3MnBi2
_cell_volume  245.1282174366289
_cell_formula_units_Z  1
loop_
  _symmetry_equiv_pos_site_id
 _symmetry_equiv_pos_as_xyz
 1  'x, y, z'
loop_
 _atom_site_type_symbol
 _atom_site_label
 _atom_site_symmetry_multiplicity
 _atom_site_fract_x
 _atom_site_fract_y
 _atom_site_fract_z
 _atom_site_fract_occupancy
 Bi  Bi1  1  0.00000  0.33333  0.66667  1
 Bi  Bi2  1  0.00000  0.66664  0.33333  1
 Er  Er1  1  0.00000  0.23097  0.00000  1
 Er  Er2  1  0.00000  0.76903  0.76904  1
 Er  Er3  1  0.00000  -0.00001  0.23097  1
 Ho  Ho1  1  0.50000  0.61068  0.00000  1
 Ho  Ho2  1  0.50000  0.38930  0.38931  1
 Ho  Ho3  1  0.50000  0.99999  0.61071  1
 Mn  Mn1  1  0.50000  0.00000  -0.00000  1
