CIF file written using JARVIS-Tools package.
data_Ga4Bi3As
_symmetry_space_group_name_H-M  'R3m'
_cell_length_a       14.7469
_cell_length_b       14.7469
_cell_length_c       14.7469
_cell_angle_alpha    17.2883
_cell_angle_beta     17.2883
_cell_angle_gamma    17.2883

_symmetry_Int_Tables_number  160
_chemical_formula_structural  Ga4Bi3As
_chemical_formula_sum  Ga4Bi3As
_cell_volume  247.14546535420013
_cell_formula_units_Z  1
loop_
  _symmetry_equiv_pos_site_id
 _symmetry_equiv_pos_as_xyz
 1  'x, y, z'
loop_
 _atom_site_type_symbol
 _atom_site_label
 _atom_site_symmetry_multiplicity
 _atom_site_fract_x
 _atom_site_fract_y
 _atom_site_fract_z
 _atom_site_fract_occupancy
 As  As1  1  -0.00012  -0.00012  -0.00012  1
 Bi  Bi1  1  0.74701  0.74701  0.74701  1
 Bi  Bi2  1  0.50029  0.50029  0.50029  1
 Bi  Bi3  1  0.25341  0.25341  0.25341  1
 Ga  Ga1  1  0.05713  0.05713  0.05713  1
 Ga  Ga2  1  0.81052  0.81052  0.81052  1
 Ga  Ga3  1  0.56405  0.56405  0.56405  1
 Ga  Ga4  1  0.31770  0.31770  0.31770  1
