CIF file written using JARVIS-Tools package.
data_MnZnTe2
_symmetry_space_group_name_H-M  'R3m'
_cell_length_a       7.64696
_cell_length_b       7.64696
_cell_length_c       7.64696
_cell_angle_alpha    33.5316
_cell_angle_beta     33.5316
_cell_angle_gamma    33.5315

_symmetry_Int_Tables_number  160
_chemical_formula_structural  MnZnTe2
_chemical_formula_sum  MnZnTe2
_cell_volume  121.53258600249345
_cell_formula_units_Z  1
loop_
  _symmetry_equiv_pos_site_id
 _symmetry_equiv_pos_as_xyz
 1  'x, y, z'
loop_
 _atom_site_type_symbol
 _atom_site_label
 _atom_site_symmetry_multiplicity
 _atom_site_fract_x
 _atom_site_fract_y
 _atom_site_fract_z
 _atom_site_fract_occupancy
 Mn  Mn1  1  0.00050  0.00050  0.00050  1
 Te  Te1  1  0.12589  0.12589  0.12589  1
 Te  Te2  1  0.62368  0.62368  0.62368  1
 Zn  Zn1  1  0.49994  0.49994  0.49994  1
