CIF file written using JARVIS-Tools package.
data_Nb6Co7
_symmetry_space_group_name_H-M  'R-3m'
_cell_length_a       9.14155
_cell_length_b       9.14155
_cell_length_c       9.14155
_cell_angle_alpha    30.9494
_cell_angle_beta     30.9494
_cell_angle_gamma    30.9493

_symmetry_Int_Tables_number  166
_chemical_formula_structural  Nb6Co7
_chemical_formula_sum  Nb6Co7
_cell_volume  179.22780560226755
_cell_formula_units_Z  1
loop_
  _symmetry_equiv_pos_site_id
 _symmetry_equiv_pos_as_xyz
 1  'x, y, z'
loop_
 _atom_site_type_symbol
 _atom_site_label
 _atom_site_symmetry_multiplicity
 _atom_site_fract_x
 _atom_site_fract_y
 _atom_site_fract_z
 _atom_site_fract_occupancy
 Co  Co1  1  0.08927  0.59369  0.08927  1
 Co  Co2  1  0.08927  0.08927  0.59369  1
 Co  Co3  1  0.59369  0.08927  0.08927  1
 Co  Co4  1  0.40631  0.91073  0.91073  1
 Co  Co5  1  0.91073  0.40631  0.91073  1
 Co  Co6  1  0.91073  0.91073  0.40631  1
 Co  Co7  1  0.00000  0.00000  0.00000  1
 Nb  Nb1  1  0.16552  0.16552  0.16552  1
 Nb  Nb2  1  0.83448  0.83448  0.83448  1
 Nb  Nb3  1  0.34324  0.34324  0.34324  1
 Nb  Nb4  1  0.65676  0.65676  0.65676  1
 Nb  Nb5  1  0.44894  0.44894  0.44894  1
 Nb  Nb6  1  0.55106  0.55106  0.55106  1
