CIF file written using JARVIS-Tools package.
data_Cr3S4
_symmetry_space_group_name_H-M  'C2/m'
_cell_length_a       6.04573
_cell_length_b       3.45682
_cell_length_c       11.1765
_cell_angle_alpha    90
_cell_angle_beta     91.6965
_cell_angle_gamma    90

_symmetry_Int_Tables_number  12
_chemical_formula_structural  Cr3S4
_chemical_formula_sum  Cr6S8
_cell_volume  233.4749728983124
_cell_formula_units_Z  2
loop_
  _symmetry_equiv_pos_site_id
 _symmetry_equiv_pos_as_xyz
 1  'x, y, z'
loop_
 _atom_site_type_symbol
 _atom_site_label
 _atom_site_symmetry_multiplicity
 _atom_site_fract_x
 _atom_site_fract_y
 _atom_site_fract_z
 _atom_site_fract_occupancy
 Cr  Cr1  1  -0.00001  0.00000  -0.00000  1
 Cr  Cr2  1  0.50001  0.50000  0.50000  1
 Cr  Cr3  1  0.51678  0.50000  0.23554  1
 Cr  Cr4  1  0.01685  0.00000  0.73555  1
 Cr  Cr5  1  0.98315  0.00000  0.26444  1
 Cr  Cr6  1  0.48322  0.50000  0.76446  1
 S  S1  1  0.67524  0.00000  0.12325  1
 S  S2  1  0.17532  0.50000  0.62327  1
 S  S3  1  0.15490  0.50000  0.13312  1
 S  S4  1  0.65496  0.00000  0.63313  1
 S  S5  1  0.34504  0.00000  0.36688  1
 S  S6  1  0.84509  0.50000  0.86687  1
 S  S7  1  0.82469  0.50000  0.37673  1
 S  S8  1  0.32474  0.00000  0.87675  1
