CIF file written using JARVIS-Tools package.
data_SnH12C7O4
_symmetry_space_group_name_H-M  'P1'
_cell_length_a       5.15854
_cell_length_b       6.26304
_cell_length_c       7.02991
_cell_angle_alpha    91.176
_cell_angle_beta     88.2218
_cell_angle_gamma    96.6839

_symmetry_Int_Tables_number  1
_chemical_formula_structural  SnH12C7O4
_chemical_formula_sum  SnH2C7O4
_cell_volume  225.43839661680053
_cell_formula_units_Z  1
loop_
  _symmetry_equiv_pos_site_id
 _symmetry_equiv_pos_as_xyz
 1  'x, y, z'
loop_
 _atom_site_type_symbol
 _atom_site_label
 _atom_site_symmetry_multiplicity
 _atom_site_fract_x
 _atom_site_fract_y
 _atom_site_fract_z
 _atom_site_fract_occupancy
 C  C1  1  0.57143  0.86344  0.41974  1
 C  C2  1  0.13605  0.41781  0.46678  1
 C  C3  1  0.71719  0.40065  0.88861  1
 C  C4  1  0.52534  0.24884  0.00089  1
 C  C5  1  0.63010  0.16189  0.18114  1
 C  C6  1  0.47133  0.94822  0.23900  1
 C  C7  1  0.97596  0.92454  0.83599  1
 H  H1  1  0.46529  0.11707  0.89969  1
 H  H2  1  0.48865  0.82752  0.12413  1
 H  H3  1  0.26389  0.96831  0.26193  1
 H  H4  1  0.34756  0.32715  0.02933  1
 H  H5  1  0.32723  0.39086  0.51752  1
 H  H6  1  0.05571  0.07645  0.77216  1
 H  H7  1  0.76725  0.92078  0.86840  1
 H  H8  1  0.08003  0.89203  0.96318  1
 H  H9  1  0.14388  0.46971  0.31846  1
 H  H10  1  0.99606  0.27363  0.48371  1
 H  H11  1  0.62324  0.28084  0.29788  1
 H  H12  1  0.83550  0.13651  0.15798  1
 O  O1  1  0.62993  0.48067  0.73727  1
 O  O2  1  0.80335  0.80131  0.40565  1
 O  O3  1  0.95429  0.44554  0.93074  1
 O  O4  1  0.43563  0.85968  0.57193  1
 Sn  Sn1  1  -0.00249  0.66746  0.63876  1
