CIF file written using JARVIS-Tools package.
data_Sr2MnRuO6
_symmetry_space_group_name_H-M  'I4/m'
_cell_length_a       5.5258
_cell_length_b       5.5258
_cell_length_c       5.5258
_cell_angle_alpha    120.698
_cell_angle_beta     120.698
_cell_angle_gamma    88.7948

_symmetry_Int_Tables_number  87
_chemical_formula_structural  Sr2MnRuO6
_chemical_formula_sum  Sr2MnRuO6
_cell_volume  118.02089435566086
_cell_formula_units_Z  1
loop_
  _symmetry_equiv_pos_site_id
 _symmetry_equiv_pos_as_xyz
 1  'x, y, z'
loop_
 _atom_site_type_symbol
 _atom_site_label
 _atom_site_symmetry_multiplicity
 _atom_site_fract_x
 _atom_site_fract_y
 _atom_site_fract_z
 _atom_site_fract_occupancy
 Mn  Mn1  1  0.00000  0.00000  0.00000  1
 O  O1  1  0.79461  0.71399  0.50860  1
 O  O2  1  0.20539  0.28601  0.49140  1
 O  O3  1  0.28601  0.79461  0.08062  1
 O  O4  1  0.71399  0.20539  0.91938  1
 O  O5  1  0.75142  0.75142  -0.00000  1
 O  O6  1  0.24858  0.24858  0.00000  1
 Ru  Ru1  1  0.50000  0.50000  -0.00000  1
 Sr  Sr1  1  0.75000  0.25000  0.50000  1
 Sr  Sr2  1  0.25000  0.75000  0.50000  1
