CIF file written using JARVIS-Tools package.
data_H7C7NO
_symmetry_space_group_name_H-M  'P1'
_cell_length_a       5.94863
_cell_length_b       6.84771
_cell_length_c       7.60852
_cell_angle_alpha    84.0124
_cell_angle_beta     70.3356
_cell_angle_gamma    69.9319

_symmetry_Int_Tables_number  1
_chemical_formula_structural  H7C7NO
_chemical_formula_sum  H4C4N2O2
_cell_volume  274.11249647921244
_cell_formula_units_Z  2
loop_
  _symmetry_equiv_pos_site_id
 _symmetry_equiv_pos_as_xyz
 1  'x, y, z'
loop_
 _atom_site_type_symbol
 _atom_site_label
 _atom_site_symmetry_multiplicity
 _atom_site_fract_x
 _atom_site_fract_y
 _atom_site_fract_z
 _atom_site_fract_occupancy
 C  C1  1  0.89598  0.98985  0.25118  1
 C  C2  1  0.45485  0.45849  0.05206  1
 C  C3  1  0.80027  0.71360  0.12109  1
 C  C4  1  0.41315  0.26636  0.07577  1
 C  C5  1  0.91315  0.76636  0.57577  1
 C  C6  1  0.36412  0.18811  0.93644  1
 C  C7  1  0.86412  0.68811  0.43644  1
 C  C8  1  0.30027  0.21361  0.62109  1
 C  C9  1  0.95485  0.95849  0.55206  1
 C  C10  1  0.85513  0.79842  0.27130  1
 C  C11  1  0.44492  0.57167  0.88969  1
 C  C12  1  0.94492  0.07167  0.38969  1
 C  C13  1  0.39598  0.48985  0.75118  1
 C  C14  1  0.35513  0.29842  0.77129  1
 H  H1  1  0.47530  0.72092  0.87201  1
 H  H2  1  0.33512  0.03744  0.95752  1
 H  H3  1  0.97530  0.22092  0.37201  1
 H  H4  1  0.84813  0.79991  0.99139  1
 H  H5  1  0.34813  0.29991  0.49139  1
 H  H6  1  0.91456  0.54870  0.09200  1
 H  H7  1  0.41456  0.04870  0.59200  1
 H  H8  1  0.42176  0.17956  0.20283  1
 H  H9  1  0.93324  0.28734  0.80432  1
 H  H10  1  0.43325  0.78734  0.30432  1
 H  H11  1  0.83512  0.53744  0.45752  1
 H  H12  1  0.92176  0.67956  0.70283  1
 H  H13  1  0.39105  0.57754  0.62364  1
 H  H14  1  0.89105  0.07754  0.12364  1
 N  N1  1  0.52889  0.72934  0.17096  1
 N  N2  1  0.02889  0.22934  0.67096  1
 O  O1  1  0.50935  0.51906  0.19641  1
 O  O2  1  0.00935  0.01906  0.69641  1
