CIF file written using JARVIS-Tools package.
data_Sb2Te
_symmetry_space_group_name_H-M  'P-3m1'
_cell_length_a       4.36933
_cell_length_b       4.36933
_cell_length_c       17.8663
_cell_angle_alpha    90
_cell_angle_beta     90
_cell_angle_gamma    120

_symmetry_Int_Tables_number  164
_chemical_formula_structural  Sb2Te
_chemical_formula_sum  Sb6Te3
_cell_volume  295.388205913871
_cell_formula_units_Z  3
loop_
  _symmetry_equiv_pos_site_id
 _symmetry_equiv_pos_as_xyz
 1  'x, y, z'
loop_
 _atom_site_type_symbol
 _atom_site_label
 _atom_site_symmetry_multiplicity
 _atom_site_fract_x
 _atom_site_fract_y
 _atom_site_fract_z
 _atom_site_fract_occupancy
 Sb  Sb1  1  0.00000  0.00000  0.34678  1
 Sb  Sb2  1  0.00000  0.00000  0.65322  1
 Sb  Sb3  1  0.66667  0.33333  0.56675  1
 Sb  Sb4  1  0.33333  0.66667  0.11061  1
 Sb  Sb5  1  0.66667  0.33333  0.88939  1
 Sb  Sb6  1  0.33333  0.66667  0.43325  1
 Te  Te1  1  0.00000  0.00000  0.00000  1
 Te  Te2  1  0.66667  0.33333  0.20632  1
 Te  Te3  1  0.33333  0.66667  0.79368  1
