CIF file written using JARVIS-Tools package.
data_Li2P2WO8
_symmetry_space_group_name_H-M  'Pmc2_1'
_cell_length_a       5.82915
_cell_length_b       4.87614
_cell_length_c       10.1
_cell_angle_alpha    90
_cell_angle_beta     90.0003
_cell_angle_gamma    90

_symmetry_Int_Tables_number  26
_chemical_formula_structural  Li2P2WO8
_chemical_formula_sum  Li4P4W2O6
_cell_volume  287.0813757027331
_cell_formula_units_Z  2
loop_
  _symmetry_equiv_pos_site_id
 _symmetry_equiv_pos_as_xyz
 1  'x, y, z'
loop_
 _atom_site_type_symbol
 _atom_site_label
 _atom_site_symmetry_multiplicity
 _atom_site_fract_x
 _atom_site_fract_y
 _atom_site_fract_z
 _atom_site_fract_occupancy
 Li  Li1  1  0.73080  0.68462  0.44376  1
 Li  Li2  1  0.73080  0.31538  0.94376  1
 Li  Li3  1  0.73068  0.27216  0.26546  1
 Li  Li4  1  0.73068  0.72784  0.76546  1
 O  O1  1  0.02532  0.54863  0.35050  1
 O  O2  1  0.02532  0.45137  0.85050  1
 O  O3  1  0.93833  0.97039  0.16783  1
 O  O4  1  0.23078  0.44143  0.56916  1
 O  O5  1  0.23076  0.08639  0.38928  1
 O  O6  1  0.23076  0.91361  0.88928  1
 O  O7  1  0.23078  0.55857  0.06916  1
 O  O8  1  0.43623  0.45141  0.85049  1
 O  O9  1  0.52323  0.97039  0.16784  1
 O  O10  1  0.52323  0.02961  0.66784  1
 O  O11  1  0.73077  0.47964  0.60809  1
 O  O12  1  0.43623  0.54859  0.35049  1
 O  O13  1  0.73076  0.07570  0.44686  1
 O  O14  1  0.73076  0.92430  0.94686  1
 O  O15  1  0.73077  0.52036  0.10809  1
 O  O16  1  0.93833  0.02961  0.66783  1
 P  P1  1  0.73078  0.17261  0.58920  1
 P  P2  1  0.73078  0.82739  0.08920  1
 P  P3  1  0.23077  0.60772  0.91973  1
 P  P4  1  0.23077  0.39228  0.41973  1
 W  W1  1  0.23077  0.81513  0.23181  1
 W  W2  1  0.23077  0.18487  0.73181  1
