CIF file written using JARVIS-Tools package.
data_SiO2
_symmetry_space_group_name_H-M  'Pna2_1'
_cell_length_a       5.02481
_cell_length_b       5.03464
_cell_length_c       6.93663
_cell_angle_alpha    90
_cell_angle_beta     90
_cell_angle_gamma    90

_symmetry_Int_Tables_number  33
_chemical_formula_structural  SiO2
_chemical_formula_sum  Si4O8
_cell_volume  175.48351221249095
_cell_formula_units_Z  4
loop_
  _symmetry_equiv_pos_site_id
 _symmetry_equiv_pos_as_xyz
 1  'x, y, z'
loop_
 _atom_site_type_symbol
 _atom_site_label
 _atom_site_symmetry_multiplicity
 _atom_site_fract_x
 _atom_site_fract_y
 _atom_site_fract_z
 _atom_site_fract_occupancy
 O  O1  1  0.44244  0.64183  0.30798  1
 O  O2  1  0.94244  0.35817  0.69202  1
 O  O3  1  0.44244  0.14183  0.19202  1
 O  O4  1  0.30814  0.51941  0.94284  1
 O  O5  1  0.80814  0.98059  0.44284  1
 O  O6  1  0.94244  0.85817  0.80798  1
 O  O7  1  0.30814  0.01941  0.55716  1
 O  O8  1  0.80814  0.48059  0.05716  1
 Si  Si1  1  0.99943  0.05353  0.62459  1
 Si  Si2  1  0.49943  0.44647  0.12459  1
 Si  Si3  1  0.49943  0.94647  0.37541  1
 Si  Si4  1  0.99943  0.55353  0.87541  1
