CIF file written using JARVIS-Tools package.
data_Li2CrNiO4
_symmetry_space_group_name_H-M  'P2/m'
_cell_length_a       2.87684
_cell_length_b       5.05399
_cell_length_c       5.07442
_cell_angle_alpha    69.2641
_cell_angle_beta     90
_cell_angle_gamma    90

_symmetry_Int_Tables_number  10
_chemical_formula_structural  Li2CrNiO4
_chemical_formula_sum  Li2CrNiO4
_cell_volume  69.0006520832466
_cell_formula_units_Z  1
loop_
  _symmetry_equiv_pos_site_id
 _symmetry_equiv_pos_as_xyz
 1  'x, y, z'
loop_
 _atom_site_type_symbol
 _atom_site_label
 _atom_site_symmetry_multiplicity
 _atom_site_fract_x
 _atom_site_fract_y
 _atom_site_fract_z
 _atom_site_fract_occupancy
 Cr  Cr1  1  0.00000  0.50000  0.50000  1
 Li  Li1  1  0.00000  0.00000  0.00000  1
 Li  Li2  1  0.50000  -0.00000  0.50000  1
 Ni  Ni1  1  0.50000  0.50000  0.00000  1
 O  O1  1  0.00000  0.28078  0.24731  1
 O  O2  1  0.50000  0.26542  0.73024  1
 O  O3  1  0.00000  0.71922  0.75269  1
 O  O4  1  0.50000  0.73458  0.26976  1
