CIF file written using JARVIS-Tools package.
data_Hf2Ga
_symmetry_space_group_name_H-M  'I4/mcm'
_cell_length_a       5.28275
_cell_length_b       5.40201
_cell_length_c       5.40202
_cell_angle_alpha    76.1676
_cell_angle_beta     60.7277
_cell_angle_gamma    60.7277

_symmetry_Int_Tables_number  140
_chemical_formula_structural  Hf2Ga
_chemical_formula_sum  Hf4Ga2
_cell_volume  117.30316131917081
_cell_formula_units_Z  2
loop_
  _symmetry_equiv_pos_site_id
 _symmetry_equiv_pos_as_xyz
 1  'x, y, z'
loop_
 _atom_site_type_symbol
 _atom_site_label
 _atom_site_symmetry_multiplicity
 _atom_site_fract_x
 _atom_site_fract_y
 _atom_site_fract_z
 _atom_site_fract_occupancy
 Ga  Ga1  1  0.25000  0.00000  -0.00000  1
 Ga  Ga2  1  0.75000  0.00000  -0.00000  1
 Hf  Hf1  1  0.15362  0.50000  0.19276  1
 Hf  Hf2  1  0.34638  0.80724  0.50000  1
 Hf  Hf3  1  0.65362  0.19276  0.50000  1
 Hf  Hf4  1  0.84638  0.50000  0.80724  1
