CIF file written using JARVIS-Tools package.
data_Mn9CdO10
_symmetry_space_group_name_H-M  'C2/m'
_cell_length_a       5.46786
_cell_length_b       8.38302
_cell_length_c       5.46797
_cell_angle_alpha    70.9657
_cell_angle_beta     109.295
_cell_angle_gamma    96.1866

_symmetry_Int_Tables_number  12
_chemical_formula_structural  Mn9CdO10
_chemical_formula_sum  Mn9CdO0
_cell_volume  223.62348885736264
_cell_formula_units_Z  1
loop_
  _symmetry_equiv_pos_site_id
 _symmetry_equiv_pos_as_xyz
 1  'x, y, z'
loop_
 _atom_site_type_symbol
 _atom_site_label
 _atom_site_symmetry_multiplicity
 _atom_site_fract_x
 _atom_site_fract_y
 _atom_site_fract_z
 _atom_site_fract_occupancy
 Cd  Cd1  1  0.50000  0.80000  0.10000  1
 Mn  Mn1  1  -0.00000  0.80000  0.60000  1
 Mn  Mn2  1  -0.00000  0.39615  0.80192  1
 Mn  Mn3  1  0.50000  0.59682  0.70159  1
 Mn  Mn4  1  0.50000  0.20285  0.89858  1
 Mn  Mn5  1  0.50000  0.39715  0.30142  1
 Mn  Mn6  1  -0.00000  0.59705  0.20147  1
 Mn  Mn7  1  0.50000  0.00318  0.49841  1
 Mn  Mn8  1  0.00000  0.00295  0.99853  1
 Mn  Mn9  1  -0.00000  0.20385  0.39808  1
 O  O1  1  0.25152  0.40104  0.54739  1
 O  O2  1  0.75789  0.01078  0.25302  1
 O  O3  1  0.74848  0.40104  0.05157  1
 O  O4  1  0.74848  0.19896  0.65261  1
 O  O5  1  0.75789  0.58922  0.46379  1
 O  O6  1  0.25152  0.19896  0.14843  1
 O  O7  1  0.23742  0.80000  0.36202  1
 O  O8  1  0.76258  0.80000  0.83798  1
 O  O9  1  0.24211  0.01078  0.73621  1
 O  O10  1  0.24211  0.58922  0.94698  1
