CIF file written using JARVIS-Tools package.
data_ZrCoH3
_symmetry_space_group_name_H-M  'Cmcm'
_cell_length_a       5.49615
_cell_length_b       5.49616
_cell_length_c       4.29894
_cell_angle_alpha    90
_cell_angle_beta     90
_cell_angle_gamma    142.56

_symmetry_Int_Tables_number  63
_chemical_formula_structural  ZrCoH3
_chemical_formula_sum  Zr2Co2H6
_cell_volume  78.94583813458138
_cell_formula_units_Z  2
loop_
  _symmetry_equiv_pos_site_id
 _symmetry_equiv_pos_as_xyz
 1  'x, y, z'
loop_
 _atom_site_type_symbol
 _atom_site_label
 _atom_site_symmetry_multiplicity
 _atom_site_fract_x
 _atom_site_fract_y
 _atom_site_fract_z
 _atom_site_fract_occupancy
 Co  Co1  1  0.07198  0.92802  0.75000  1
 Co  Co2  1  0.92802  0.07198  0.25000  1
 H  H1  1  0.57358  0.42642  0.75000  1
 H  H2  1  0.18649  0.81351  0.49691  1
 H  H3  1  0.18649  0.81351  0.00309  1
 H  H4  1  0.81351  0.18649  0.99691  1
 H  H5  1  0.81351  0.18649  0.50309  1
 H  H6  1  0.42642  0.57358  0.25000  1
 Zr  Zr1  1  0.63407  0.36593  0.25000  1
 Zr  Zr2  1  0.36593  0.63407  0.75000  1
