CIF file written using JARVIS-Tools package.
data_Ca2AsI
_symmetry_space_group_name_H-M  'R-3m'
_cell_length_a       7.81896
_cell_length_b       7.81896
_cell_length_c       7.81897
_cell_angle_alpha    32.4124
_cell_angle_beta     32.4124
_cell_angle_gamma    32.4124

_symmetry_Int_Tables_number  166
_chemical_formula_structural  Ca2AsI
_chemical_formula_sum  Ca2AsI
_cell_volume  122.10406724555168
_cell_formula_units_Z  1
loop_
  _symmetry_equiv_pos_site_id
 _symmetry_equiv_pos_as_xyz
 1  'x, y, z'
loop_
 _atom_site_type_symbol
 _atom_site_label
 _atom_site_symmetry_multiplicity
 _atom_site_fract_x
 _atom_site_fract_y
 _atom_site_fract_z
 _atom_site_fract_occupancy
 As  As1  1  0.50000  0.50000  0.50000  1
 Ca  Ca1  1  0.23198  0.23198  0.23198  1
 Ca  Ca2  1  0.76802  0.76802  0.76802  1
 I  I1  1  0.00000  0.00000  0.00000  1
