CIF file written using JARVIS-Tools package.
data_GaNi4Ge3
_symmetry_space_group_name_H-M  'Cm'
_cell_length_a       6.18162
_cell_length_b       6.18162
_cell_length_c       4.92869
_cell_angle_alpha    79.4734
_cell_angle_beta     79.4734
_cell_angle_gamma    36.1659

_symmetry_Int_Tables_number  8
_chemical_formula_structural  GaNi4Ge3
_chemical_formula_sum  GaNi4Ge3
_cell_volume  109.07084925756229
_cell_formula_units_Z  1
loop_
  _symmetry_equiv_pos_site_id
 _symmetry_equiv_pos_as_xyz
 1  'x, y, z'
loop_
 _atom_site_type_symbol
 _atom_site_label
 _atom_site_symmetry_multiplicity
 _atom_site_fract_x
 _atom_site_fract_y
 _atom_site_fract_z
 _atom_site_fract_occupancy
 Ga  Ga1  1  0.42741  0.42741  0.29087  1
 Ge  Ge1  1  0.56937  0.56937  0.71148  1
 Ge  Ge2  1  0.18551  0.18551  0.17667  1
 Ge  Ge3  1  0.81637  0.81637  0.82109  1
 Ni  Ni1  1  0.00152  0.00152  0.99954  1
 Ni  Ni2  1  0.20553  0.20553  0.67166  1
 Ni  Ni3  1  0.79297  0.79297  0.32839  1
 Ni  Ni4  1  0.00132  0.00132  0.50028  1
