CIF file written using JARVIS-Tools package.
data_NaSb3O8
_symmetry_space_group_name_H-M  'P2_1/c'
_cell_length_a       5.75405
_cell_length_b       4.8505
_cell_length_c       10.664
_cell_angle_alpha    90
_cell_angle_beta     97.553
_cell_angle_gamma    90

_symmetry_Int_Tables_number  14
_chemical_formula_structural  NaSb3O8
_chemical_formula_sum  Na2Sb6O6
_cell_volume  295.0501404956781
_cell_formula_units_Z  2
loop_
  _symmetry_equiv_pos_site_id
 _symmetry_equiv_pos_as_xyz
 1  'x, y, z'
loop_
 _atom_site_type_symbol
 _atom_site_label
 _atom_site_symmetry_multiplicity
 _atom_site_fract_x
 _atom_site_fract_y
 _atom_site_fract_z
 _atom_site_fract_occupancy
 Na  Na1  1  0.00000  0.00000  0.00000  1
 Na  Na2  1  0.00000  0.50000  0.50000  1
 O  O1  1  0.29454  0.20825  0.91589  1
 O  O2  1  0.76589  0.34948  0.91990  1
 O  O3  1  0.48277  0.72429  0.82720  1
 O  O4  1  0.23411  0.65052  0.08010  1
 O  O5  1  0.00046  0.29502  0.68428  1
 O  O6  1  0.51723  0.22429  0.67280  1
 O  O7  1  0.99954  0.79502  0.81572  1
 O  O8  1  0.70546  0.70825  0.58411  1
 O  O9  1  0.29454  0.29175  0.41589  1
 O  O10  1  0.76589  0.15052  0.41990  1
 O  O11  1  0.48277  0.77571  0.32720  1
 O  O12  1  0.99954  0.70498  0.31572  1
 O  O13  1  0.00046  0.20498  0.18428  1
 O  O14  1  0.51723  0.27571  0.17280  1
 O  O15  1  0.23411  0.84948  0.58010  1
 O  O16  1  0.70546  0.79175  0.08411  1
 Sb  Sb1  1  0.75910  0.97736  0.25004  1
 Sb  Sb2  1  0.24090  0.47736  0.24996  1
 Sb  Sb3  1  0.50000  0.00000  0.50000  1
 Sb  Sb4  1  0.75910  0.52264  0.75004  1
 Sb  Sb5  1  0.24090  0.02264  0.74996  1
 Sb  Sb6  1  0.50000  0.50000  0.00000  1
