CIF file written using JARVIS-Tools package.
data_Tl2AgI3
_symmetry_space_group_name_H-M  'R-3'
_cell_length_a       8.99176
_cell_length_b       8.99177
_cell_length_c       8.99176
_cell_angle_alpha    71.5621
_cell_angle_beta     71.5621
_cell_angle_gamma    71.5621

_symmetry_Int_Tables_number  148
_chemical_formula_structural  Tl2AgI3
_chemical_formula_sum  Tl6Ag3I9
_cell_volume  635.1104203653872
_cell_formula_units_Z  3
loop_
  _symmetry_equiv_pos_site_id
 _symmetry_equiv_pos_as_xyz
 1  'x, y, z'
loop_
 _atom_site_type_symbol
 _atom_site_label
 _atom_site_symmetry_multiplicity
 _atom_site_fract_x
 _atom_site_fract_y
 _atom_site_fract_z
 _atom_site_fract_occupancy
 Ag  Ag1  1  0.15590  0.15590  0.15590  1
 Ag  Ag2  1  0.00000  0.00000  0.00000  1
 Ag  Ag3  1  0.84410  0.84410  0.84410  1
 I  I1  1  0.33772  0.08549  0.84483  1
 I  I2  1  0.84483  0.33772  0.08549  1
 I  I3  1  0.50000  0.50000  0.50000  1
 I  I4  1  0.70365  0.70365  0.70365  1
 I  I5  1  0.29635  0.29635  0.29635  1
 I  I6  1  0.08549  0.84483  0.33772  1
 I  I7  1  0.91451  0.15517  0.66228  1
 I  I8  1  0.66228  0.91451  0.15517  1
 I  I9  1  0.15517  0.66228  0.91451  1
 Tl  Tl1  1  0.89105  0.55151  0.32780  1
 Tl  Tl2  1  0.44849  0.67220  0.10895  1
 Tl  Tl3  1  0.10895  0.44849  0.67220  1
 Tl  Tl4  1  0.67220  0.10895  0.44849  1
 Tl  Tl5  1  0.55151  0.32780  0.89105  1
 Tl  Tl6  1  0.32780  0.89105  0.55151  1
