CIF file written using JARVIS-Tools package.
data_Te3MoWSe
_symmetry_space_group_name_H-M  'P3m1'
_cell_length_a       3.50325
_cell_length_b       3.50324
_cell_length_c       37.8165
_cell_angle_alpha    90.0006
_cell_angle_beta     90
_cell_angle_gamma    120

_symmetry_Int_Tables_number  156
_chemical_formula_structural  Te3MoWSe
_chemical_formula_sum  Te6Mo2W2Se2
_cell_volume  401.9330792721156
_cell_formula_units_Z  2
loop_
  _symmetry_equiv_pos_site_id
 _symmetry_equiv_pos_as_xyz
 1  'x, y, z'
loop_
 _atom_site_type_symbol
 _atom_site_label
 _atom_site_symmetry_multiplicity
 _atom_site_fract_x
 _atom_site_fract_y
 _atom_site_fract_z
 _atom_site_fract_occupancy
 Mo  Mo1  1  0.33330  0.66660  0.09243  1
 Mo  Mo2  1  0.33333  0.66666  0.47352  1
 Se  Se1  1  0.33337  0.66675  0.69699  1
 Se  Se2  1  0.33337  0.66674  0.61119  1
 Te  Te1  1  0.33334  0.66667  0.33160  1
 Te  Te2  1  0.66663  0.33326  0.04395  1
 Te  Te3  1  0.66666  0.33332  0.42498  1
 Te  Te4  1  0.66664  0.33329  0.14099  1
 Te  Te5  1  0.66666  0.33332  0.52205  1
 Te  Te6  1  0.33332  0.66665  0.23408  1
 W  W1  1  0.66666  0.33333  0.28284  1
 W  W2  1  0.66671  0.33341  0.65413  1
