CIF file written using JARVIS-Tools package.
data_SrCaCu2O4
_symmetry_space_group_name_H-M  'Amm2'
_cell_length_a       8.21007
_cell_length_b       8.21007
_cell_length_c       3.91588
_cell_angle_alpha    90
_cell_angle_beta     90
_cell_angle_gamma    155.768

_symmetry_Int_Tables_number  38
_chemical_formula_structural  SrCaCu2O4
_chemical_formula_sum  SrCaCu2O4
_cell_volume  108.33260389182861
_cell_formula_units_Z  1
loop_
  _symmetry_equiv_pos_site_id
 _symmetry_equiv_pos_as_xyz
 1  'x, y, z'
loop_
 _atom_site_type_symbol
 _atom_site_label
 _atom_site_symmetry_multiplicity
 _atom_site_fract_x
 _atom_site_fract_y
 _atom_site_fract_z
 _atom_site_fract_occupancy
 Ca  Ca1  1  0.33134  0.66866  0.00000  1
 Cu  Cu1  1  0.93706  0.06294  0.50000  1
 Cu  Cu2  1  0.06180  0.93820  0.00000  1
 O  O1  1  0.05482  0.94518  0.50000  1
 O  O2  1  0.94037  0.05963  0.00000  1
 O  O3  1  0.82032  0.17968  0.50000  1
 O  O4  1  0.18390  0.81610  0.00000  1
 Sr  Sr1  1  0.67038  0.32962  0.50000  1
