CIF file written using JARVIS-Tools package.
data_Fe4Te3Se
_symmetry_space_group_name_H-M  'Pmm2'
_cell_length_a       3.62567
_cell_length_b       6.38253
_cell_length_c       7.23993
_cell_angle_alpha    90
_cell_angle_beta     90
_cell_angle_gamma    90

_symmetry_Int_Tables_number  25
_chemical_formula_structural  Fe4Te3Se
_chemical_formula_sum  Fe4Te3Se
_cell_volume  167.5390953589097
_cell_formula_units_Z  1
loop_
  _symmetry_equiv_pos_site_id
 _symmetry_equiv_pos_as_xyz
 1  'x, y, z'
loop_
 _atom_site_type_symbol
 _atom_site_label
 _atom_site_symmetry_multiplicity
 _atom_site_fract_x
 _atom_site_fract_y
 _atom_site_fract_z
 _atom_site_fract_occupancy
 Fe  Fe1  1  0.50000  0.00896  0.00000  1
 Fe  Fe2  1  0.50000  0.00126  0.50000  1
 Fe  Fe3  1  0.00000  0.00484  0.75422  1
 Fe  Fe4  1  0.00000  0.00484  0.24578  1
 Se  Se1  1  0.00000  0.25638  0.00000  1
 Te  Te1  1  0.00000  0.28789  0.50000  1
 Te  Te2  1  0.50000  0.71792  0.75321  1
 Te  Te3  1  0.50000  0.71792  0.24679  1
