CIF file written using JARVIS-Tools package.
data_UTeP
_symmetry_space_group_name_H-M  'I4/mmm'
_cell_length_a       4.11823
_cell_length_b       4.11824
_cell_length_c       8.8951
_cell_angle_alpha    103.385
_cell_angle_beta     103.385
_cell_angle_gamma    90

_symmetry_Int_Tables_number  139
_chemical_formula_structural  UTeP
_chemical_formula_sum  U2Te2P2
_cell_volume  142.54673514278474
_cell_formula_units_Z  2
loop_
  _symmetry_equiv_pos_site_id
 _symmetry_equiv_pos_as_xyz
 1  'x, y, z'
loop_
 _atom_site_type_symbol
 _atom_site_label
 _atom_site_symmetry_multiplicity
 _atom_site_fract_x
 _atom_site_fract_y
 _atom_site_fract_z
 _atom_site_fract_occupancy
 P  P1  1  0.00000  0.50000  -0.00000  1
 P  P2  1  0.50000  0.00000  -0.00000  1
 Te  Te1  1  0.31526  0.31526  0.63051  1
 Te  Te2  1  0.68474  0.68474  0.36949  1
 U  U1  1  0.88975  0.88975  0.77951  1
 U  U2  1  0.11025  0.11025  0.22049  1
