CIF file written using JARVIS-Tools package.
data_ZnFe4O8
_symmetry_space_group_name_H-M  'Cm'
_cell_length_a       2.82535
_cell_length_b       7.06255
_cell_length_c       6.87882
_cell_angle_alpha    92.1656
_cell_angle_beta     101.853
_cell_angle_gamma    101.541

_symmetry_Int_Tables_number  8
_chemical_formula_structural  ZnFe4O8
_chemical_formula_sum  ZnFe4O8
_cell_volume  131.17207052290678
_cell_formula_units_Z  1
loop_
  _symmetry_equiv_pos_site_id
 _symmetry_equiv_pos_as_xyz
 1  'x, y, z'
loop_
 _atom_site_type_symbol
 _atom_site_label
 _atom_site_symmetry_multiplicity
 _atom_site_fract_x
 _atom_site_fract_y
 _atom_site_fract_z
 _atom_site_fract_occupancy
 Fe  Fe1  1  0.80803  0.43856  0.17508  1
 Fe  Fe2  1  0.64574  0.79005  0.49900  1
 Fe  Fe3  1  0.33026  0.16129  0.49676  1
 Fe  Fe4  1  0.14769  0.49632  0.79661  1
 O  O1  1  0.52434  0.37181  0.67443  1
 O  O2  1  0.79660  0.24802  0.34272  1
 O  O3  1  0.16951  0.69910  0.63749  1
 O  O4  1  0.44384  0.57903  0.30618  1
 O  O5  1  0.17605  0.33635  0.01336  1
 O  O6  1  0.11960  0.91403  0.32272  1
 O  O7  1  0.80914  0.64302  0.97281  1
 O  O8  1  0.83420  0.03751  0.62845  1
 Zn  Zn1  1  0.46896  0.83047  0.10501  1
