CIF file written using JARVIS-Tools package.
data_SiPAu
_symmetry_space_group_name_H-M  'R3m'
_cell_length_a       6.13821
_cell_length_b       6.13821
_cell_length_c       6.13821
_cell_angle_alpha    33.2514
_cell_angle_beta     33.2515
_cell_angle_gamma    33.2514

_symmetry_Int_Tables_number  160
_chemical_formula_structural  SiPAu
_chemical_formula_sum  SiPAu
_cell_volume  61.90279670239796
_cell_formula_units_Z  1
loop_
  _symmetry_equiv_pos_site_id
 _symmetry_equiv_pos_as_xyz
 1  'x, y, z'
loop_
 _atom_site_type_symbol
 _atom_site_label
 _atom_site_symmetry_multiplicity
 _atom_site_fract_x
 _atom_site_fract_y
 _atom_site_fract_z
 _atom_site_fract_occupancy
 Au  Au1  1  0.13666  0.13666  0.13666  1
 P  P1  1  0.99871  0.99871  0.99871  1
 Si  Si1  1  0.27193  0.27193  0.27193  1
