CIF file written using JARVIS-Tools package.
data_Dy2FeCo3
_symmetry_space_group_name_H-M  'R-3m'
_cell_length_a       4.94255
_cell_length_b       4.94256
_cell_length_c       4.94256
_cell_angle_alpha    62.9321
_cell_angle_beta     62.9322
_cell_angle_gamma    62.9321

_symmetry_Int_Tables_number  166
_chemical_formula_structural  Dy2FeCo3
_chemical_formula_sum  Dy2FeCo3
_cell_volume  90.93710648002516
_cell_formula_units_Z  1
loop_
  _symmetry_equiv_pos_site_id
 _symmetry_equiv_pos_as_xyz
 1  'x, y, z'
loop_
 _atom_site_type_symbol
 _atom_site_label
 _atom_site_symmetry_multiplicity
 _atom_site_fract_x
 _atom_site_fract_y
 _atom_site_fract_z
 _atom_site_fract_occupancy
 Co  Co1  1  -0.00000  0.50000  -0.00000  1
 Co  Co2  1  0.50000  0.00000  -0.00000  1
 Co  Co3  1  0.00000  -0.00000  0.50000  1
 Dy  Dy1  1  0.62726  0.62726  0.62726  1
 Dy  Dy2  1  0.37274  0.37274  0.37274  1
 Fe  Fe1  1  0.00000  0.00000  0.00000  1
