CIF file written using JARVIS-Tools package.
data_H4C6SO2
_symmetry_space_group_name_H-M  'P1'
_cell_length_a       3.98371
_cell_length_b       5.61248
_cell_length_c       6.63643
_cell_angle_alpha    101.856
_cell_angle_beta     95.7221
_cell_angle_gamma    108.446

_symmetry_Int_Tables_number  1
_chemical_formula_structural  H4C6SO2
_chemical_formula_sum  H4C6SO2
_cell_volume  135.5689974030268
_cell_formula_units_Z  1
loop_
  _symmetry_equiv_pos_site_id
 _symmetry_equiv_pos_as_xyz
 1  'x, y, z'
loop_
 _atom_site_type_symbol
 _atom_site_label
 _atom_site_symmetry_multiplicity
 _atom_site_fract_x
 _atom_site_fract_y
 _atom_site_fract_z
 _atom_site_fract_occupancy
 C  C1  1  0.16598  0.29588  0.31509  1
 C  C2  1  0.35026  0.30554  0.51202  1
 C  C3  1  0.60556  0.54647  0.61053  1
 C  C4  1  0.28643  0.53514  0.26813  1
 C  C5  1  0.90296  0.46354  0.93820  1
 C  C6  1  0.86492  0.64653  0.80166  1
 H  H1  1  0.95701  0.29510  0.84910  1
 H  H2  1  0.96429  0.12395  0.21055  1
 H  H3  1  0.29995  0.14005  0.58050  1
 H  H4  1  0.65880  0.38985  0.00411  1
 O  O1  1  0.20311  0.62064  0.10210  1
 O  O2  1  0.06361  0.87869  0.85359  1
 S  S1  1  0.61895  0.76905  0.46086  1
