CIF file written using JARVIS-Tools package.
data_Li2VOF4
_symmetry_space_group_name_H-M  'Cc'
_cell_length_a       5.03497
_cell_length_b       5.62398
_cell_length_c       7.07624
_cell_angle_alpha    109.102
_cell_angle_beta     89.9989
_cell_angle_gamma    116.593

_symmetry_Int_Tables_number  9
_chemical_formula_structural  Li2VOF4
_chemical_formula_sum  Li4V2O2F8
_cell_volume  166.7481576233892
_cell_formula_units_Z  2
loop_
  _symmetry_equiv_pos_site_id
 _symmetry_equiv_pos_as_xyz
 1  'x, y, z'
loop_
 _atom_site_type_symbol
 _atom_site_label
 _atom_site_symmetry_multiplicity
 _atom_site_fract_x
 _atom_site_fract_y
 _atom_site_fract_z
 _atom_site_fract_occupancy
 F  F1  1  0.59459  0.82932  0.04122  1
 F  F2  1  0.23631  0.82929  0.54121  1
 F  F3  1  0.66283  0.63420  0.34924  1
 F  F4  1  0.03153  0.36350  0.13601  1
 F  F5  1  0.97299  0.63421  0.84925  1
 F  F6  1  0.33357  0.36349  0.63602  1
 F  F7  1  0.76044  0.16926  0.45014  1
 F  F8  1  0.41043  0.16926  0.95013  1
 Li  Li1  1  0.36873  0.72619  0.26242  1
 Li  Li2  1  0.35906  0.72619  0.76242  1
 Li  Li3  1  0.66042  0.28363  0.23300  1
 Li  Li4  1  0.62484  0.28364  0.73300  1
 O  O1  1  0.15439  0.99385  0.24423  1
 O  O2  1  0.84105  0.99382  0.74422  1
 V  V1  1  0.97777  0.99705  0.52940  1
 V  V2  1  0.02090  0.99706  0.02941  1
