CIF file written using JARVIS-Tools package.
data_H6C4O3
_symmetry_space_group_name_H-M  'P2_1/c'
_cell_length_a       6.011
_cell_length_b       11.2476
_cell_length_c       7.67769
_cell_angle_alpha    90
_cell_angle_beta     126.346
_cell_angle_gamma    90

_symmetry_Int_Tables_number  14
_chemical_formula_structural  H6C4O3
_chemical_formula_sum  H24C6O2
_cell_volume  418.0951977554502
_cell_formula_units_Z  4
loop_
  _symmetry_equiv_pos_site_id
 _symmetry_equiv_pos_as_xyz
 1  'x, y, z'
loop_
 _atom_site_type_symbol
 _atom_site_label
 _atom_site_symmetry_multiplicity
 _atom_site_fract_x
 _atom_site_fract_y
 _atom_site_fract_z
 _atom_site_fract_occupancy
 C  C1  1  0.77014  0.76147  0.19023  1
 C  C2  1  0.92446  0.28651  0.17987  1
 C  C3  1  0.22986  0.23853  0.80977  1
 C  C4  1  0.22986  0.26147  0.30977  1
 C  C5  1  0.77014  0.73853  0.69023  1
 C  C6  1  0.07554  0.78651  0.32013  1
 C  C7  1  0.92446  0.21349  0.67987  1
 C  C8  1  0.28880  0.47191  0.26363  1
 C  C9  1  0.07554  0.71349  0.82013  1
 C  C10  1  0.88589  0.40591  0.24775  1
 C  C11  1  0.11411  0.59409  0.75225  1
 C  C12  1  0.71120  0.97191  0.23637  1
 C  C13  1  0.28880  0.02809  0.76363  1
 C  C14  1  0.71120  0.52809  0.73637  1
 C  C15  1  0.11411  0.90591  0.25225  1
 C  C16  1  0.88589  0.09409  0.74775  1
 H  H1  1  0.17744  0.78345  0.79052  1
 H  H2  1  0.67372  0.06076  0.64220  1
 H  H3  1  0.82256  0.21655  0.20948  1
 H  H4  1  0.32628  0.93924  0.35780  1
 H  H5  1  0.04934  0.59436  0.58469  1
 H  H6  1  0.67372  0.43924  0.14220  1
 H  H7  1  0.67268  0.75559  0.01585  1
 H  H8  1  0.32732  0.24441  -0.01585  1
 H  H9  1  0.32732  0.25559  0.48415  1
 H  H10  1  0.95066  0.09436  0.91531  1
 H  H11  1  0.71928  0.68127  0.24130  1
 H  H12  1  0.28072  0.31873  0.75870  1
 H  H13  1  0.28072  0.18127  0.25870  1
 H  H14  1  0.71928  0.81873  0.74130  1
 H  H15  1  0.82968  0.21282  0.50560  1
 H  H16  1  0.67268  0.74441  0.51585  1
 H  H17  1  0.17032  0.71282  -0.00560  1
 H  H18  1  0.17032  0.78718  0.49440  1
 H  H19  1  0.82256  0.28345  0.70948  1
 H  H20  1  0.95066  0.40564  0.41531  1
 H  H21  1  0.17744  0.71655  0.29052  1
 H  H22  1  0.04934  0.90564  0.08469  1
 H  H23  1  0.32628  0.56076  0.85780  1
 H  H24  1  0.82968  0.28718  0.00560  1
 O  O1  1  0.05277  0.00266  0.73747  1
 O  O2  1  0.63128  0.64139  0.71965  1
 O  O3  1  0.36872  0.35861  0.28035  1
 O  O4  1  0.63128  0.85861  0.21965  1
 O  O5  1  0.36872  0.14139  0.78035  1
 O  O6  1  0.94723  0.50266  0.76253  1
 O  O7  1  0.42835  0.94732  0.76694  1
 O  O8  1  0.57165  0.05268  0.23306  1
 O  O9  1  0.05277  0.49734  0.23747  1
 O  O10  1  0.57165  0.44732  0.73306  1
 O  O11  1  0.42835  0.55268  0.26694  1
 O  O12  1  0.94723  0.99734  0.26253  1
