CIF file written using JARVIS-Tools package.
data_NaCe2Se3
_symmetry_space_group_name_H-M  'Immm'
_cell_length_a       7.38782
_cell_length_b       7.38782
_cell_length_c       7.38782
_cell_angle_alpha    146.745
_cell_angle_beta     132.293
_cell_angle_gamma    59.3923

_symmetry_Int_Tables_number  71
_chemical_formula_structural  NaCe2Se3
_chemical_formula_sum  NaCe2Se3
_cell_volume  162.12980205250872
_cell_formula_units_Z  1
loop_
  _symmetry_equiv_pos_site_id
 _symmetry_equiv_pos_as_xyz
 1  'x, y, z'
loop_
 _atom_site_type_symbol
 _atom_site_label
 _atom_site_symmetry_multiplicity
 _atom_site_fract_x
 _atom_site_fract_y
 _atom_site_fract_z
 _atom_site_fract_occupancy
 Ce  Ce1  1  0.66494  0.66494  -0.00000  1
 Ce  Ce2  1  0.33506  0.33506  -0.00000  1
 Na  Na1  1  0.00000  0.00000  0.00000  1
 Se  Se1  1  0.50000  0.00000  0.50000  1
 Se  Se2  1  0.16864  0.66864  0.50000  1
 Se  Se3  1  0.83136  0.33136  0.50000  1
