CIF file written using JARVIS-Tools package.
data_BiTePd
_symmetry_space_group_name_H-M  'P2_13'
_cell_length_a       6.77018
_cell_length_b       6.77018
_cell_length_c       6.77018
_cell_angle_alpha    90
_cell_angle_beta     90
_cell_angle_gamma    90

_symmetry_Int_Tables_number  198
_chemical_formula_structural  BiTePd
_chemical_formula_sum  Bi4Te4Pd4
_cell_volume  310.31300606001
_cell_formula_units_Z  4
loop_
  _symmetry_equiv_pos_site_id
 _symmetry_equiv_pos_as_xyz
 1  'x, y, z'
loop_
 _atom_site_type_symbol
 _atom_site_label
 _atom_site_symmetry_multiplicity
 _atom_site_fract_x
 _atom_site_fract_y
 _atom_site_fract_z
 _atom_site_fract_occupancy
 Bi  Bi1  1  0.36849  0.36849  0.36849  1
 Bi  Bi2  1  0.13151  0.63151  0.86849  1
 Bi  Bi3  1  0.86849  0.13151  0.63151  1
 Bi  Bi4  1  0.63151  0.86849  0.13151  1
 Pd  Pd1  1  0.00407  0.00407  0.00407  1
 Pd  Pd2  1  0.49593  0.99593  0.50407  1
 Pd  Pd3  1  0.50407  0.49593  0.99593  1
 Pd  Pd4  1  0.99593  0.50407  0.49593  1
 Te  Te1  1  0.62606  0.62606  0.62606  1
 Te  Te2  1  0.87394  0.37394  0.12606  1
 Te  Te3  1  0.12606  0.87394  0.37394  1
 Te  Te4  1  0.37394  0.12606  0.87394  1
