CIF file written using JARVIS-Tools package.
data_Cr3Os
_symmetry_space_group_name_H-M  'Cmmm'
_cell_length_a       2.58106
_cell_length_b       2.58106
_cell_length_c       8.10373
_cell_angle_alpha    90
_cell_angle_beta     90
_cell_angle_gamma    112.346

_symmetry_Int_Tables_number  65
_chemical_formula_structural  Cr3Os
_chemical_formula_sum  Cr3Os
_cell_volume  49.93196009996006
_cell_formula_units_Z  1
loop_
  _symmetry_equiv_pos_site_id
 _symmetry_equiv_pos_as_xyz
 1  'x, y, z'
loop_
 _atom_site_type_symbol
 _atom_site_label
 _atom_site_symmetry_multiplicity
 _atom_site_fract_x
 _atom_site_fract_y
 _atom_site_fract_z
 _atom_site_fract_occupancy
 Cr  Cr1  1  0.50000  0.50000  0.73479  1
 Cr  Cr2  1  0.00000  0.00000  0.50000  1
 Cr  Cr3  1  0.50000  0.50000  0.26521  1
 Os  Os1  1  0.00000  0.00000  0.00000  1
