CIF file written using JARVIS-Tools package.
data_VHgO3
_symmetry_space_group_name_H-M  'P-1'
_cell_length_a       3.59863
_cell_length_b       4.80347
_cell_length_c       8.74585
_cell_angle_alpha    92.7661
_cell_angle_beta     102.561
_cell_angle_gamma    90.4139

_symmetry_Int_Tables_number  2
_chemical_formula_structural  VHgO3
_chemical_formula_sum  V2Hg2O6
_cell_volume  147.3649443554854
_cell_formula_units_Z  2
loop_
  _symmetry_equiv_pos_site_id
 _symmetry_equiv_pos_as_xyz
 1  'x, y, z'
loop_
 _atom_site_type_symbol
 _atom_site_label
 _atom_site_symmetry_multiplicity
 _atom_site_fract_x
 _atom_site_fract_y
 _atom_site_fract_z
 _atom_site_fract_occupancy
 Hg  Hg1  1  0.13789  0.18278  0.42104  1
 Hg  Hg2  1  0.86211  0.81722  0.57896  1
 O  O1  1  0.58709  0.48123  0.67182  1
 O  O2  1  0.41291  0.51877  0.32818  1
 O  O3  1  0.65677  0.03617  0.84640  1
 O  O4  1  0.34323  0.96383  0.15360  1
 O  O5  1  0.20094  0.47829  0.90996  1
 O  O6  1  0.79906  0.52171  0.09004  1
 V  V1  1  0.67204  0.37675  0.86422  1
 V  V2  1  0.32796  0.62325  0.13578  1
