CIF file written using JARVIS-Tools package.
data_LiMg
_symmetry_space_group_name_H-M  'Imma'
_cell_length_a       5.67233
_cell_length_b       5.67233
_cell_length_c       5.67233
_cell_angle_alpha    144.875
_cell_angle_beta     129.304
_cell_angle_gamma    63.1703

_symmetry_Int_Tables_number  74
_chemical_formula_structural  LiMg
_chemical_formula_sum  Li2Mg2
_cell_volume  80.33636549802529
_cell_formula_units_Z  2
loop_
  _symmetry_equiv_pos_site_id
 _symmetry_equiv_pos_as_xyz
 1  'x, y, z'
loop_
 _atom_site_type_symbol
 _atom_site_label
 _atom_site_symmetry_multiplicity
 _atom_site_fract_x
 _atom_site_fract_y
 _atom_site_fract_z
 _atom_site_fract_occupancy
 Li  Li1  1  0.38220  0.63220  0.75000  1
 Li  Li2  1  0.61780  0.36780  0.25000  1
 Mg  Mg1  1  0.13320  0.88320  0.25000  1
 Mg  Mg2  1  0.86680  0.11680  0.75000  1
