CIF file written using JARVIS-Tools package.
data_SnH4C2F2
_symmetry_space_group_name_H-M  'Cm'
_cell_length_a       4.335
_cell_length_b       5.99371
_cell_length_c       7.18877
_cell_angle_alpha    75.8814
_cell_angle_beta     83.7748
_cell_angle_gamma    70.971

_symmetry_Int_Tables_number  8
_chemical_formula_structural  SnH4C2F2
_chemical_formula_sum  Sn2H8C4F4
_cell_volume  171.15798893069328
_cell_formula_units_Z  2
loop_
  _symmetry_equiv_pos_site_id
 _symmetry_equiv_pos_as_xyz
 1  'x, y, z'
loop_
 _atom_site_type_symbol
 _atom_site_label
 _atom_site_symmetry_multiplicity
 _atom_site_fract_x
 _atom_site_fract_y
 _atom_site_fract_z
 _atom_site_fract_occupancy
 C  C1  1  0.25811  0.86473  0.77877  1
 C  C2  1  0.44265  0.92985  0.59422  1
 C  C3  1  0.94265  0.42986  0.09422  1
 C  C4  1  0.75811  0.36473  0.27877  1
 F  F1  1  0.63234  0.04293  0.03120  1
 F  F2  1  0.13234  0.54293  0.53120  1
 F  F3  1  0.19220  0.85629  0.21785  1
 F  F4  1  0.69220  0.35629  0.71785  1
 H  H1  1  0.29844  0.08598  0.49193  1
 H  H2  1  0.03628  0.82792  0.75519  1
 H  H3  1  0.66822  0.96275  0.61512  1
 H  H4  1  0.79845  0.58598  0.99193  1
 H  H5  1  0.90444  0.20519  0.37784  1
 H  H6  1  0.53628  0.32792  0.25519  1
 H  H7  1  0.16822  0.46275  0.11512  1
 H  H8  1  0.40444  0.70519  0.87784  1
 Sn  Sn1  1  0.07749  0.12251  0.95946  1
 Sn  Sn2  1  0.57749  0.62251  0.45946  1
