CIF file written using JARVIS-Tools package.
data_Fe3Co3Si2
_symmetry_space_group_name_H-M  'R3m'
_cell_length_a       6.86502
_cell_length_b       6.86502
_cell_length_c       6.86502
_cell_angle_alpha    33.541
_cell_angle_beta     33.5409
_cell_angle_gamma    33.541

_symmetry_Int_Tables_number  160
_chemical_formula_structural  Fe3Co3Si2
_chemical_formula_sum  Fe3Co3Si2
_cell_volume  87.9779329893892
_cell_formula_units_Z  1
loop_
  _symmetry_equiv_pos_site_id
 _symmetry_equiv_pos_as_xyz
 1  'x, y, z'
loop_
 _atom_site_type_symbol
 _atom_site_label
 _atom_site_symmetry_multiplicity
 _atom_site_fract_x
 _atom_site_fract_y
 _atom_site_fract_z
 _atom_site_fract_occupancy
 Co  Co1  1  0.37621  0.37621  0.37621  1
 Co  Co2  1  0.87384  0.87384  0.87384  1
 Co  Co3  1  0.12509  0.12509  0.12509  1
 Fe  Fe1  1  0.62507  0.62507  0.62507  1
 Fe  Fe2  1  0.74907  0.74907  0.74907  1
 Fe  Fe3  1  0.25072  0.25072  0.25072  1
 Si  Si1  1  0.99929  0.99929  0.99929  1
 Si  Si2  1  0.50071  0.50071  0.50071  1
