CIF file written using JARVIS-Tools package.
data_Na2AgAs
_symmetry_space_group_name_H-M  'Cmcm'
_cell_length_a       5.64928
_cell_length_b       5.73237
_cell_length_c       5.73237
_cell_angle_alpha    100.046
_cell_angle_beta     90
_cell_angle_gamma    90

_symmetry_Int_Tables_number  63
_chemical_formula_structural  Na2AgAs
_chemical_formula_sum  Na4Ag2As2
_cell_volume  182.78935429174197
_cell_formula_units_Z  2
loop_
  _symmetry_equiv_pos_site_id
 _symmetry_equiv_pos_as_xyz
 1  'x, y, z'
loop_
 _atom_site_type_symbol
 _atom_site_label
 _atom_site_symmetry_multiplicity
 _atom_site_fract_x
 _atom_site_fract_y
 _atom_site_fract_z
 _atom_site_fract_occupancy
 Ag  Ag1  1  0.50000  0.49998  0.50002  1
 Ag  Ag2  1  0.00000  0.50002  0.49998  1
 As  As1  1  0.75000  0.79058  0.79058  1
 As  As2  1  0.25000  0.20942  0.20942  1
 Na  Na1  1  0.25007  0.67443  0.03074  1
 Na  Na2  1  0.75007  0.32557  0.96926  1
 Na  Na3  1  0.24993  0.03074  0.67443  1
 Na  Na4  1  0.74993  0.96926  0.32557  1
