CIF file written using JARVIS-Tools package.
data_LiUN2
_symmetry_space_group_name_H-M  'I4_1/amd'
_cell_length_a       4.37024
_cell_length_b       4.37023
_cell_length_c       6.35751
_cell_angle_alpha    110.103
_cell_angle_beta     110.103
_cell_angle_gamma    89.9999

_symmetry_Int_Tables_number  141
_chemical_formula_structural  LiUN2
_chemical_formula_sum  Li2U2N4
_cell_volume  106.11255949919214
_cell_formula_units_Z  2
loop_
  _symmetry_equiv_pos_site_id
 _symmetry_equiv_pos_as_xyz
 1  'x, y, z'
loop_
 _atom_site_type_symbol
 _atom_site_label
 _atom_site_symmetry_multiplicity
 _atom_site_fract_x
 _atom_site_fract_y
 _atom_site_fract_z
 _atom_site_fract_occupancy
 Li  Li1  1  0.12500  0.37500  0.75000  1
 Li  Li2  1  0.87500  0.62500  0.25000  1
 N  N1  1  0.41496  0.66496  0.32992  1
 N  N2  1  0.16496  0.91496  0.82992  1
 N  N3  1  0.83504  0.08504  0.17008  1
 N  N4  1  0.58504  0.33504  0.67008  1
 U  U1  1  0.62500  0.87500  0.75000  1
 U  U2  1  0.37500  0.12500  0.25000  1
