CIF file written using JARVIS-Tools package.
data_RbTaO3
_symmetry_space_group_name_H-M  'P-1'
_cell_length_a       5.14231
_cell_length_b       8.42925
_cell_length_c       8.94446
_cell_angle_alpha    113.66
_cell_angle_beta     93.532
_cell_angle_gamma    94.7903

_symmetry_Int_Tables_number  2
_chemical_formula_structural  RbTaO3
_chemical_formula_sum  Rb4Ta4O2
_cell_volume  351.9474609355742
_cell_formula_units_Z  4
loop_
  _symmetry_equiv_pos_site_id
 _symmetry_equiv_pos_as_xyz
 1  'x, y, z'
loop_
 _atom_site_type_symbol
 _atom_site_label
 _atom_site_symmetry_multiplicity
 _atom_site_fract_x
 _atom_site_fract_y
 _atom_site_fract_z
 _atom_site_fract_occupancy
 O  O1  1  0.14976  0.44178  0.23003  1
 O  O2  1  0.26393  0.07653  0.98960  1
 O  O3  1  0.21601  0.78492  0.04476  1
 O  O4  1  0.40343  0.11080  0.67979  1
 O  O5  1  0.85024  0.55822  0.76997  1
 O  O6  1  0.78399  0.21508  0.95524  1
 O  O7  1  0.80110  0.87652  0.70499  1
 O  O8  1  0.19890  0.12348  0.29501  1
 O  O9  1  0.71045  0.21893  0.27193  1
 O  O10  1  0.73607  0.92347  0.01040  1
 O  O11  1  0.59657  0.88920  0.32021  1
 O  O12  1  0.28955  0.78107  0.72807  1
 Rb  Rb1  1  0.08346  0.79579  0.40363  1
 Rb  Rb2  1  0.50000  0.50000  0.50000  1
 Rb  Rb3  1  0.91654  0.20421  0.59637  1
 Rb  Rb4  1  0.50000  0.50000  0.00000  1
 Ta  Ta1  1  0.47389  0.98754  0.18750  1
 Ta  Ta2  1  0.00294  0.21627  0.14502  1
 Ta  Ta3  1  -0.00294  0.78373  0.85498  1
 Ta  Ta4  1  0.52611  0.01246  0.81250  1
