CIF file written using JARVIS-Tools package.
data_AlSiMo
_symmetry_space_group_name_H-M  'P3_212'
_cell_length_a       4.76883
_cell_length_b       4.76883
_cell_length_c       6.61497
_cell_angle_alpha    90
_cell_angle_beta     90
_cell_angle_gamma    120

_symmetry_Int_Tables_number  153
_chemical_formula_structural  AlSiMo
_chemical_formula_sum  Al3Si3Mo3
_cell_volume  130.28130264392308
_cell_formula_units_Z  3
loop_
  _symmetry_equiv_pos_site_id
 _symmetry_equiv_pos_as_xyz
 1  'x, y, z'
loop_
 _atom_site_type_symbol
 _atom_site_label
 _atom_site_symmetry_multiplicity
 _atom_site_fract_x
 _atom_site_fract_y
 _atom_site_fract_z
 _atom_site_fract_occupancy
 Al  Al1  1  0.33243  0.16622  0.50000  1
 Al  Al2  1  0.83378  0.16622  0.16667  1
 Al  Al3  1  0.83378  0.66757  0.83333  1
 Mo  Mo1  1  0.01056  0.50528  0.50000  1
 Mo  Mo2  1  0.49472  0.50528  0.16667  1
 Mo  Mo3  1  0.49472  0.98944  0.83333  1
 Si  Si1  1  0.67576  0.83788  0.50000  1
 Si  Si2  1  0.16212  0.83788  0.16667  1
 Si  Si3  1  0.16212  0.32424  0.83333  1
