CIF file written using JARVIS-Tools package.
data_LiB
_symmetry_space_group_name_H-M  'Imma'
_cell_length_a       4.44857
_cell_length_b       4.44857
_cell_length_c       4.44857
_cell_angle_alpha    139.73
_cell_angle_beta     100.909
_cell_angle_gamma    92.7366

_symmetry_Int_Tables_number  74
_chemical_formula_structural  LiB
_chemical_formula_sum  Li2B2
_cell_volume  53.255397111283386
_cell_formula_units_Z  2
loop_
  _symmetry_equiv_pos_site_id
 _symmetry_equiv_pos_as_xyz
 1  'x, y, z'
loop_
 _atom_site_type_symbol
 _atom_site_label
 _atom_site_symmetry_multiplicity
 _atom_site_fract_x
 _atom_site_fract_y
 _atom_site_fract_z
 _atom_site_fract_occupancy
 B  B1  1  0.97269  0.75000  0.22269  1
 B  B2  1  0.02731  0.25000  0.77731  1
 Li  Li1  1  0.50000  -0.00000  0.50000  1
 Li  Li2  1  0.00000  0.50000  0.50000  1
