CIF file written using JARVIS-Tools package.
data_Sr2MnClO3
_symmetry_space_group_name_H-M  'P4/nmm'
_cell_length_a       3.89981
_cell_length_b       3.89981
_cell_length_c       14.5071
_cell_angle_alpha    90
_cell_angle_beta     90
_cell_angle_gamma    90

_symmetry_Int_Tables_number  129
_chemical_formula_structural  Sr2MnClO3
_chemical_formula_sum  Sr4Mn2Cl2O6
_cell_volume  220.6314406081195
_cell_formula_units_Z  2
loop_
  _symmetry_equiv_pos_site_id
 _symmetry_equiv_pos_as_xyz
 1  'x, y, z'
loop_
 _atom_site_type_symbol
 _atom_site_label
 _atom_site_symmetry_multiplicity
 _atom_site_fract_x
 _atom_site_fract_y
 _atom_site_fract_z
 _atom_site_fract_occupancy
 Cl  Cl1  1  0.50000  0.00000  0.42603  1
 Cl  Cl2  1  0.00000  0.50000  0.57397  1
 Mn  Mn1  1  0.50000  0.00000  0.21057  1
 Mn  Mn2  1  0.00000  0.50000  0.78943  1
 O  O1  1  0.50000  0.50000  0.22996  1
 O  O2  1  0.00000  0.00000  0.22996  1
 O  O3  1  0.00000  0.00000  0.77004  1
 O  O4  1  0.50000  0.50000  0.77004  1
 O  O5  1  0.50000  0.00000  0.07540  1
 O  O6  1  0.00000  0.50000  0.92460  1
 Sr  Sr1  1  0.00000  0.50000  0.09432  1
 Sr  Sr2  1  0.50000  0.00000  0.90568  1
 Sr  Sr3  1  0.00000  0.50000  0.34430  1
 Sr  Sr4  1  0.50000  0.00000  0.65570  1
