CIF file written using JARVIS-Tools package.
data_SnH8C4F2
_symmetry_space_group_name_H-M  'P-1'
_cell_length_a       3.64639
_cell_length_b       5.31781
_cell_length_c       13.522
_cell_angle_alpha    103.006
_cell_angle_beta     95.0496
_cell_angle_gamma    89.157

_symmetry_Int_Tables_number  2
_chemical_formula_structural  SnH8C4F2
_chemical_formula_sum  Sn2H6C8F4
_cell_volume  254.48084340684485
_cell_formula_units_Z  2
loop_
  _symmetry_equiv_pos_site_id
 _symmetry_equiv_pos_as_xyz
 1  'x, y, z'
loop_
 _atom_site_type_symbol
 _atom_site_label
 _atom_site_symmetry_multiplicity
 _atom_site_fract_x
 _atom_site_fract_y
 _atom_site_fract_z
 _atom_site_fract_occupancy
 C  C1  1  0.01253  0.62022  0.25711  1
 C  C2  1  0.03117  0.34988  0.07942  1
 C  C3  1  0.03065  0.34983  0.57940  1
 C  C4  1  0.97763  0.34443  0.68957  1
 C  C5  1  0.97793  0.34442  0.18956  1
 C  C6  1  0.95925  0.61474  0.36725  1
 C  C7  1  0.01282  0.62021  0.75711  1
 C  C8  1  0.95977  0.61479  0.86726  1
 F  F1  1  0.52217  0.86465  0.55228  1
 F  F2  1  0.46825  0.09997  0.89440  1
 F  F3  1  0.46768  0.09993  0.39440  1
 F  F4  1  0.52274  0.86469  0.05228  1
 H  H1  1  0.82154  0.46954  0.54926  1
 H  H2  1  0.70777  0.26321  0.19516  1
 H  H3  1  0.18187  0.21894  0.21923  1
 H  H4  1  0.82206  0.46954  0.04925  1
 H  H5  1  0.70737  0.26346  0.69523  1
 H  H6  1  0.18143  0.21878  0.71919  1
 H  H7  1  0.30120  0.42687  0.57228  1
 H  H8  1  0.28308  0.70118  0.75146  1
 H  H9  1  0.80861  0.74570  0.22744  1
 H  H10  1  0.28270  0.70143  0.25152  1
 H  H11  1  0.68875  0.53751  0.37430  1
 H  H12  1  0.16844  0.49515  0.39743  1
 H  H13  1  0.80903  0.74586  0.72748  1
 H  H14  1  0.16897  0.49515  0.89742  1
 H  H15  1  0.68927  0.53764  0.87437  1
 H  H16  1  0.30171  0.42701  0.07235  1
 Sn  Sn1  1  0.99460  0.98228  0.47333  1
 Sn  Sn2  1  0.99544  0.98234  0.97334  1
