CIF file written using JARVIS-Tools package.
data_Cr2S3
_symmetry_space_group_name_H-M  'R-3'
_cell_length_a       5.86855
_cell_length_b       5.86855
_cell_length_c       6.51299
_cell_angle_alpha    63.2225
_cell_angle_beta     116.777
_cell_angle_gamma    120

_symmetry_Int_Tables_number  148
_chemical_formula_structural  Cr2S3
_chemical_formula_sum  Cr4S6
_cell_volume  165.89962366955513
_cell_formula_units_Z  2
loop_
  _symmetry_equiv_pos_site_id
 _symmetry_equiv_pos_as_xyz
 1  'x, y, z'
loop_
 _atom_site_type_symbol
 _atom_site_label
 _atom_site_symmetry_multiplicity
 _atom_site_fract_x
 _atom_site_fract_y
 _atom_site_fract_z
 _atom_site_fract_occupancy
 Cr  Cr1  1  0.32353  0.67647  0.97060  1
 Cr  Cr2  1  0.50000  0.50000  0.50000  1
 Cr  Cr3  1  -0.00000  0.00000  -0.00000  1
 Cr  Cr4  1  0.67647  0.32353  0.02941  1
 S  S1  1  0.09292  0.59641  0.24225  1
 S  S2  1  0.59641  0.74575  0.75775  1
 S  S3  1  0.40359  0.25426  0.24225  1
 S  S4  1  0.90708  0.40359  0.75775  1
 S  S5  1  0.25425  0.09292  0.75775  1
 S  S6  1  0.74574  0.90708  0.24225  1
