CIF file written using JARVIS-Tools package.
data_SnH14C8O4
_symmetry_space_group_name_H-M  'P1'
_cell_length_a       4.69066
_cell_length_b       6.04505
_cell_length_c       8.58586
_cell_angle_alpha    89.2095
_cell_angle_beta     83.1986
_cell_angle_gamma    76.8664

_symmetry_Int_Tables_number  1
_chemical_formula_structural  SnH14C8O4
_chemical_formula_sum  SnH4C8O4
_cell_volume  235.3960093224367
_cell_formula_units_Z  1
loop_
  _symmetry_equiv_pos_site_id
 _symmetry_equiv_pos_as_xyz
 1  'x, y, z'
loop_
 _atom_site_type_symbol
 _atom_site_label
 _atom_site_symmetry_multiplicity
 _atom_site_fract_x
 _atom_site_fract_y
 _atom_site_fract_z
 _atom_site_fract_occupancy
 C  C1  1  0.26409  0.51816  0.47586  1
 C  C2  1  0.91833  0.41334  0.85999  1
 C  C3  1  0.36844  0.89136  0.98240  1
 C  C4  1  0.30737  0.07752  0.25394  1
 C  C5  1  0.33579  0.31867  0.20921  1
 C  C6  1  0.47175  0.43462  0.32931  1
 C  C7  1  0.16851  0.96491  0.13331  1
 C  C8  1  0.74834  0.00991  0.61059  1
 H  H1  1  0.11267  0.28265  0.81476  1
 H  H2  1  0.10243  0.81069  0.18111  1
 H  H3  1  0.96178  0.07456  0.10273  1
 H  H4  1  0.47005  0.31300  0.09419  1
 H  H5  1  0.11480  0.42347  0.19513  1
 H  H6  1  0.71643  0.36421  0.83608  1
 H  H7  1  0.52750  0.97165  0.26825  1
 H  H8  1  0.89500  0.12831  0.59713  1
 H  H9  1  0.72399  0.93995  0.49706  1
 H  H10  1  0.53138  0.09265  0.67039  1
 H  H11  1  0.91529  0.44403  0.98562  1
 H  H12  1  0.17327  0.08315  0.36863  1
 H  H13  1  0.54830  0.58319  0.27911  1
 H  H14  1  0.67191  0.32325  0.36635  1
 O  O1  1  0.63803  0.89685  0.97479  1
 O  O2  1  0.35246  0.62908  0.58160  1
 O  O3  1  0.27008  0.81999  0.86361  1
 O  O4  1  0.00524  0.48680  0.49540  1
 Sn  Sn1  1  0.93268  0.72375  0.74312  1
