CIF file written using JARVIS-Tools package.
data_ZrTaTe4
_symmetry_space_group_name_H-M  'P-3m1'
_cell_length_a       3.84587
_cell_length_b       3.84587
_cell_length_c       13.6518
_cell_angle_alpha    90
_cell_angle_beta     90
_cell_angle_gamma    120

_symmetry_Int_Tables_number  164
_chemical_formula_structural  ZrTaTe4
_chemical_formula_sum  ZrTaTe4
_cell_volume  174.86736135372269
_cell_formula_units_Z  1
loop_
  _symmetry_equiv_pos_site_id
 _symmetry_equiv_pos_as_xyz
 1  'x, y, z'
loop_
 _atom_site_type_symbol
 _atom_site_label
 _atom_site_symmetry_multiplicity
 _atom_site_fract_x
 _atom_site_fract_y
 _atom_site_fract_z
 _atom_site_fract_occupancy
 Ta  Ta1  1  0.00000  0.00000  0.00000  1
 Te  Te1  1  0.33333  0.66667  0.87076  1
 Te  Te2  1  0.33333  0.66667  0.36360  1
 Te  Te3  1  0.66667  0.33333  0.63640  1
 Te  Te4  1  0.66667  0.33333  0.12924  1
 Zr  Zr1  1  0.00000  0.00000  0.50000  1
