CIF file written using JARVIS-Tools package.
data_CeMo6S8
_symmetry_space_group_name_H-M  'R-3'
_cell_length_a       6.50269
_cell_length_b       6.50269
_cell_length_c       6.50269
_cell_angle_alpha    88.8997
_cell_angle_beta     88.8998
_cell_angle_gamma    88.8997

_symmetry_Int_Tables_number  148
_chemical_formula_structural  CeMo6S8
_chemical_formula_sum  CeMo6S8
_cell_volume  274.8159102424614
_cell_formula_units_Z  1
loop_
  _symmetry_equiv_pos_site_id
 _symmetry_equiv_pos_as_xyz
 1  'x, y, z'
loop_
 _atom_site_type_symbol
 _atom_site_label
 _atom_site_symmetry_multiplicity
 _atom_site_fract_x
 _atom_site_fract_y
 _atom_site_fract_z
 _atom_site_fract_occupancy
 Ce  Ce1  1  0.00000  0.00000  0.00000  1
 Mo  Mo1  1  0.43775  0.77515  0.57960  1
 Mo  Mo2  1  0.57960  0.43775  0.77515  1
 Mo  Mo3  1  0.77515  0.57960  0.43775  1
 Mo  Mo4  1  0.22485  0.42040  0.56225  1
 Mo  Mo5  1  0.42040  0.56225  0.22485  1
 Mo  Mo6  1  0.56225  0.22485  0.42040  1
 S  S1  1  0.24550  0.62917  0.87405  1
 S  S2  1  0.62917  0.87405  0.24550  1
 S  S3  1  0.75945  0.75945  0.75945  1
 S  S4  1  0.87405  0.24550  0.62917  1
 S  S5  1  0.12595  0.75450  0.37083  1
 S  S6  1  0.24055  0.24055  0.24055  1
 S  S7  1  0.37083  0.12595  0.75450  1
 S  S8  1  0.75450  0.37083  0.12595  1
