CIF file written using JARVIS-Tools package.
data_Sr2HfTiO6
_symmetry_space_group_name_H-M  'C2/m'
_cell_length_a       5.66377
_cell_length_b       5.66377
_cell_length_c       5.70195
_cell_angle_alpha    59.8809
_cell_angle_beta     59.8809
_cell_angle_gamma    60.0715

_symmetry_Int_Tables_number  12
_chemical_formula_structural  Sr2HfTiO6
_chemical_formula_sum  Sr2HfTiO6
_cell_volume  129.17213647051483
_cell_formula_units_Z  1
loop_
  _symmetry_equiv_pos_site_id
 _symmetry_equiv_pos_as_xyz
 1  'x, y, z'
loop_
 _atom_site_type_symbol
 _atom_site_label
 _atom_site_symmetry_multiplicity
 _atom_site_fract_x
 _atom_site_fract_y
 _atom_site_fract_z
 _atom_site_fract_occupancy
 Hf  Hf1  1  -0.00000  -0.00000  0.50000  1
 O  O1  1  0.28597  0.77498  0.21317  1
 O  O2  1  0.22502  0.71403  0.78683  1
 O  O3  1  0.71403  0.22502  0.78683  1
 O  O4  1  0.77498  0.28597  0.21317  1
 O  O5  1  0.25622  0.25622  0.30158  1
 O  O6  1  0.74378  0.74378  0.69842  1
 Sr  Sr1  1  0.75058  0.75058  0.24539  1
 Sr  Sr2  1  0.24942  0.24942  0.75461  1
 Ti  Ti1  1  0.50000  0.50000  0.00000  1
