CIF file written using JARVIS-Tools package.
data_H2C3SO2
_symmetry_space_group_name_H-M  'P1'
_cell_length_a       5.35975
_cell_length_b       5.48971
_cell_length_c       7.67051
_cell_angle_alpha    86.2247
_cell_angle_beta     83.9592
_cell_angle_gamma    66.3554

_symmetry_Int_Tables_number  1
_chemical_formula_structural  H2C3SO2
_chemical_formula_sum  H4C6S2O4
_cell_volume  205.52887189849554
_cell_formula_units_Z  2
loop_
  _symmetry_equiv_pos_site_id
 _symmetry_equiv_pos_as_xyz
 1  'x, y, z'
loop_
 _atom_site_type_symbol
 _atom_site_label
 _atom_site_symmetry_multiplicity
 _atom_site_fract_x
 _atom_site_fract_y
 _atom_site_fract_z
 _atom_site_fract_occupancy
 C  C1  1  0.72555  0.55717  0.17067  1
 C  C2  1  0.22555  0.55719  0.67068  1
 C  C3  1  0.00417  0.56469  0.14383  1
 C  C4  1  0.50418  0.56470  0.64382  1
 C  C5  1  0.18220  0.44488  0.85006  1
 C  C6  1  0.68219  0.44486  0.35006  1
 H  H1  1  0.70314  0.43934  0.06800  1
 H  H2  1  0.20312  0.43939  0.56801  1
 H  H3  1  0.57527  0.76380  0.15454  1
 H  H4  1  0.07528  0.76384  0.65455  1
 O  O1  1  0.06341  0.64283  0.96639  1
 O  O2  1  0.56342  0.64282  0.46639  1
 O  O3  1  0.15959  0.54101  0.25158  1
 O  O4  1  0.65961  0.54101  0.75157  1
 S  S1  1  0.27474  0.12958  0.90023  1
 S  S2  1  0.77471  0.12957  0.40023  1
