CIF file written using JARVIS-Tools package.
data_H3C2SNO
_symmetry_space_group_name_H-M  'P1'
_cell_length_a       4.17071
_cell_length_b       6.50623
_cell_length_c       6.82179
_cell_angle_alpha    90.6252
_cell_angle_beta     89.0262
_cell_angle_gamma    71.6427

_symmetry_Int_Tables_number  1
_chemical_formula_structural  H3C2SNO
_chemical_formula_sum  H6C4S2N2O2
_cell_volume  175.64197644226874
_cell_formula_units_Z  2
loop_
  _symmetry_equiv_pos_site_id
 _symmetry_equiv_pos_as_xyz
 1  'x, y, z'
loop_
 _atom_site_type_symbol
 _atom_site_label
 _atom_site_symmetry_multiplicity
 _atom_site_fract_x
 _atom_site_fract_y
 _atom_site_fract_z
 _atom_site_fract_occupancy
 C  C1  1  0.91572  0.85215  0.27674  1
 C  C2  1  0.91572  0.35215  0.77674  1
 C  C3  1  0.08020  0.12443  0.69998  1
 C  C4  1  0.08020  0.62443  0.19998  1
 H  H1  1  0.89590  0.96717  0.15722  1
 H  H2  1  0.89590  0.46717  0.65721  1
 H  H3  1  0.65760  0.86918  0.33289  1
 H  H4  1  0.65760  0.36918  0.83289  1
 H  H5  1  0.17199  0.77786  0.53781  1
 H  H6  1  0.17199  0.27786  0.03781  1
 N  N1  1  0.13810  0.89056  0.42800  1
 N  N2  1  0.13810  0.39057  0.92799  1
 O  O1  1  0.96014  0.09878  0.52345  1
 O  O2  1  0.96014  0.59878  0.02345  1
 S  S1  1  0.36418  0.93369  0.81717  1
 S  S2  1  0.36419  0.43369  0.31717  1
