CIF file written using JARVIS-Tools package.
data_H7C8NO
_symmetry_space_group_name_H-M  'P1'
_cell_length_a       3.94428
_cell_length_b       9.24365
_cell_length_c       9.17131
_cell_angle_alpha    65.3367
_cell_angle_beta     92.4886
_cell_angle_gamma    89.0192

_symmetry_Int_Tables_number  1
_chemical_formula_structural  H7C8NO
_chemical_formula_sum  H4C6N2O2
_cell_volume  303.3627035302875
_cell_formula_units_Z  2
loop_
  _symmetry_equiv_pos_site_id
 _symmetry_equiv_pos_as_xyz
 1  'x, y, z'
loop_
 _atom_site_type_symbol
 _atom_site_label
 _atom_site_symmetry_multiplicity
 _atom_site_fract_x
 _atom_site_fract_y
 _atom_site_fract_z
 _atom_site_fract_occupancy
 C  C1  1  0.32460  0.43567  0.74289  1
 C  C2  1  0.40502  0.98700  0.47967  1
 C  C3  1  0.66412  0.71742  0.21278  1
 C  C4  1  0.66411  0.21741  0.71278  1
 C  C5  1  0.58651  0.84114  0.55735  1
 C  C6  1  0.64662  0.24768  0.97453  1
 C  C7  1  0.64662  0.74768  0.47453  1
 C  C8  1  0.40502  0.48700  0.97967  1
 C  C9  1  0.58650  0.34114  0.05735  1
 C  C10  1  0.52849  0.29579  0.81460  1
 C  C11  1  0.48557  0.57872  0.19816  1
 C  C12  1  0.48558  0.07872  0.69816  1
 C  C13  1  0.26115  0.53002  0.82438  1
 C  C14  1  0.26115  0.03002  0.32438  1
 C  C15  1  0.52849  0.79579  0.31460  1
 C  C16  1  0.32460  0.93567  0.24289  1
 H  H1  1  0.11844  0.64346  0.76414  1
 H  H2  1  0.91868  0.66469  0.26450  1
 H  H3  1  0.23268  0.97579  0.11737  1
 H  H4  1  0.23268  0.47579  0.61737  1
 H  H5  1  0.69732  0.80658  0.67865  1
 H  H6  1  0.80626  0.63902  0.53265  1
 H  H7  1  0.91868  0.16469  0.76450  1
 H  H8  1  0.80626  0.13902  0.03265  1
 H  H9  1  0.41298  0.21920  0.45812  1
 H  H10  1  0.41298  0.71920  0.95812  1
 H  H11  1  0.69836  0.31037  0.59152  1
 H  H12  1  0.69837  0.81037  0.09152  1
 H  H13  1  0.11844  0.14346  0.26414  1
 H  H14  1  0.69732  0.30658  0.17865  1
 N  N1  1  0.40688  0.60325  0.04275  1
 N  N2  1  0.40688  0.10325  0.54275  1
 O  O1  1  0.44504  0.45090  0.31642  1
 O  O2  1  0.44504  0.95090  0.81642  1
