CIF file written using JARVIS-Tools package.
data_ZnH14C9O4
_symmetry_space_group_name_H-M  'P1'
_cell_length_a       3.9531
_cell_length_b       4.71409
_cell_length_c       13.1986
_cell_angle_alpha    85.8466
_cell_angle_beta     83.5804
_cell_angle_gamma    68.3858

_symmetry_Int_Tables_number  1
_chemical_formula_structural  ZnH14C9O4
_chemical_formula_sum  ZnH4C9O4
_cell_volume  227.10087284953272
_cell_formula_units_Z  1
loop_
  _symmetry_equiv_pos_site_id
 _symmetry_equiv_pos_as_xyz
 1  'x, y, z'
loop_
 _atom_site_type_symbol
 _atom_site_label
 _atom_site_symmetry_multiplicity
 _atom_site_fract_x
 _atom_site_fract_y
 _atom_site_fract_z
 _atom_site_fract_occupancy
 C  C1  1  0.84755  0.50636  0.33056  1
 C  C2  1  0.57761  0.21886  0.60139  1
 C  C3  1  0.79736  0.29071  0.41822  1
 C  C4  1  0.60840  0.45064  0.51728  1
 C  C5  1  0.04161  0.33798  0.23336  1
 C  C6  1  0.08931  0.55037  0.14430  1
 C  C7  1  0.31153  0.37502  0.05085  1
 C  C8  1  0.35813  0.58035  0.96140  1
 C  C9  1  0.37531  0.34463  0.70220  1
 H  H1  1  0.76357  0.58045  0.54241  1
 H  H2  1  0.43013  0.08186  0.57603  1
 H  H3  1  0.84834  0.05218  0.61610  1
 H  H4  1  0.58293  0.21710  0.06892  1
 H  H5  1  0.17080  0.23684  0.02280  1
 H  H6  1  0.33502  0.61697  0.50389  1
 H  H7  1  0.06741  0.11897  0.43315  1
 H  H8  1  0.00427  0.63743  0.35426  1
 H  H9  1  0.57820  0.67588  0.31409  1
 H  H10  1  0.22585  0.69650  0.16888  1
 H  H11  1  0.82010  0.70549  0.12272  1
 H  H12  1  0.63942  0.16109  0.39421  1
 H  H13  1  0.88829  0.20299  0.21054  1
 H  H14  1  0.31211  0.17116  0.25021  1
 O  O1  1  0.42368  0.17460  0.78281  1
 O  O2  1  0.66561  0.49828  0.90844  1
 O  O3  1  0.14268  0.61928  0.70232  1
 O  O4  1  0.08976  0.82592  0.94144  1
 Zn  Zn1  1  0.81733  0.80478  0.82616  1
