CIF file written using JARVIS-Tools package.
data_YErNi2
_symmetry_space_group_name_H-M  'Pmc2_1'
_cell_length_a       4.14988
_cell_length_b       5.36843
_cell_length_c       6.95727
_cell_angle_alpha    90
_cell_angle_beta     90
_cell_angle_gamma    90

_symmetry_Int_Tables_number  26
_chemical_formula_structural  YErNi2
_chemical_formula_sum  Y2Er2Ni4
_cell_volume  154.99615554819863
_cell_formula_units_Z  2
loop_
  _symmetry_equiv_pos_site_id
 _symmetry_equiv_pos_as_xyz
 1  'x, y, z'
loop_
 _atom_site_type_symbol
 _atom_site_label
 _atom_site_symmetry_multiplicity
 _atom_site_fract_x
 _atom_site_fract_y
 _atom_site_fract_z
 _atom_site_fract_occupancy
 Er  Er1  1  0.00000  0.11573  0.68088  1
 Er  Er2  1  0.00000  0.88427  0.18088  1
 Ni  Ni1  1  0.00000  0.62344  0.53753  1
 Ni  Ni2  1  0.00000  0.37656  0.03753  1
 Ni  Ni3  1  0.50000  0.88432  0.46167  1
 Ni  Ni4  1  0.50000  0.11568  0.96167  1
 Y  Y1  1  0.50000  0.38419  0.31992  1
 Y  Y2  1  0.50000  0.61581  0.81992  1
