CIF file written using JARVIS-Tools package.
data_Sc2CO
_symmetry_space_group_name_H-M  'R-3m'
_cell_length_a       5.60958
_cell_length_b       5.60958
_cell_length_c       5.60958
_cell_angle_alpha    33.5261
_cell_angle_beta     33.5261
_cell_angle_gamma    33.5261

_symmetry_Int_Tables_number  166
_chemical_formula_structural  Sc2CO
_chemical_formula_sum  Sc2CO
_cell_volume  47.960958711125606
_cell_formula_units_Z  1
loop_
  _symmetry_equiv_pos_site_id
 _symmetry_equiv_pos_as_xyz
 1  'x, y, z'
loop_
 _atom_site_type_symbol
 _atom_site_label
 _atom_site_symmetry_multiplicity
 _atom_site_fract_x
 _atom_site_fract_y
 _atom_site_fract_z
 _atom_site_fract_occupancy
 C  C1  1  0.50000  0.50000  0.50000  1
 O  O1  1  0.00000  0.00000  0.00000  1
 Sc  Sc1  1  0.24670  0.24670  0.24670  1
 Sc  Sc2  1  0.75330  0.75330  0.75330  1
