CIF file written using JARVIS-Tools package.
data_K2CeAgI6
_symmetry_space_group_name_H-M  'Fm-3m'
_cell_length_a       8.58917
_cell_length_b       8.58917
_cell_length_c       8.58917
_cell_angle_alpha    60
_cell_angle_beta     60
_cell_angle_gamma    60

_symmetry_Int_Tables_number  225
_chemical_formula_structural  K2CeAgI6
_chemical_formula_sum  K2CeAgI6
_cell_volume  448.06324215796656
_cell_formula_units_Z  1
loop_
  _symmetry_equiv_pos_site_id
 _symmetry_equiv_pos_as_xyz
 1  'x, y, z'
loop_
 _atom_site_type_symbol
 _atom_site_label
 _atom_site_symmetry_multiplicity
 _atom_site_fract_x
 _atom_site_fract_y
 _atom_site_fract_z
 _atom_site_fract_occupancy
 Ag  Ag1  1  0.00000  0.00000  0.00000  1
 Ce  Ce1  1  0.50000  0.50000  0.50000  1
 I  I1  1  0.75488  0.24512  0.24512  1
 I  I2  1  0.24512  0.24512  0.75488  1
 I  I3  1  0.24512  0.75488  0.75488  1
 I  I4  1  0.24512  0.75488  0.24512  1
 I  I5  1  0.75488  0.24512  0.75488  1
 I  I6  1  0.75488  0.75488  0.24512  1
 K  K1  1  0.75000  0.75000  0.75000  1
 K  K2  1  0.25000  0.25000  0.25000  1
