CIF file written using JARVIS-Tools package.
data_P3BrCl14
_symmetry_space_group_name_H-M  'I4/m'
_cell_length_a       8.6435
_cell_length_b       8.6435
_cell_length_c       8.64351
_cell_angle_alpha    90.0327
_cell_angle_beta     119.981
_cell_angle_gamma    119.981

_symmetry_Int_Tables_number  87
_chemical_formula_structural  P3BrCl14
_chemical_formula_sum  P3BrCl4
_cell_volume  456.7500562041897
_cell_formula_units_Z  1
loop_
  _symmetry_equiv_pos_site_id
 _symmetry_equiv_pos_as_xyz
 1  'x, y, z'
loop_
 _atom_site_type_symbol
 _atom_site_label
 _atom_site_symmetry_multiplicity
 _atom_site_fract_x
 _atom_site_fract_y
 _atom_site_fract_z
 _atom_site_fract_occupancy
 Br  Br1  1  -0.00000  -0.00203  -0.00203  1
 Cl  Cl1  1  0.00000  0.67492  0.67492  1
 Cl  Cl2  1  0.33698  0.60791  0.72523  1
 Cl  Cl3  1  0.11732  0.72523  0.38825  1
 Cl  Cl4  1  0.88268  0.27093  0.60791  1
 Cl  Cl5  1  0.66302  0.38825  0.27093  1
 Cl  Cl6  1  0.62831  0.10366  0.83458  1
 Cl  Cl7  1  0.73092  0.83458  0.20628  1
 Cl  Cl8  1  0.26908  0.47536  0.10366  1
 Cl  Cl9  1  0.37169  0.20628  0.47536  1
 Cl  Cl10  1  0.26908  0.16155  0.78989  1
 Cl  Cl11  1  0.62834  0.78989  0.52080  1
 Cl  Cl12  1  0.37166  0.89247  0.16155  1
 Cl  Cl13  1  0.73092  0.52080  0.89247  1
 Cl  Cl14  1  -0.00000  0.32126  0.32126  1
 P  P1  1  0.50000  0.74808  0.24808  1
 P  P2  1  0.00000  0.49809  0.49809  1
 P  P3  1  0.50000  0.24808  0.74808  1
