CIF file written using JARVIS-Tools package.
data_TiS2
_symmetry_space_group_name_H-M  'P-3m1'
_cell_length_a       3.41167
_cell_length_b       3.41167
_cell_length_c       17.1814
_cell_angle_alpha    90
_cell_angle_beta     90
_cell_angle_gamma    120

_symmetry_Int_Tables_number  164
_chemical_formula_structural  TiS2
_chemical_formula_sum  Ti3S6
_cell_volume  173.1897600974632
_cell_formula_units_Z  3
loop_
  _symmetry_equiv_pos_site_id
 _symmetry_equiv_pos_as_xyz
 1  'x, y, z'
loop_
 _atom_site_type_symbol
 _atom_site_label
 _atom_site_symmetry_multiplicity
 _atom_site_fract_x
 _atom_site_fract_y
 _atom_site_fract_z
 _atom_site_fract_occupancy
 S  S1  1  0.33333  0.66667  0.58283  1
 S  S2  1  0.33333  0.66667  0.91619  1
 S  S3  1  0.33333  0.66667  0.24945  1
 S  S4  1  0.66667  0.33333  0.75055  1
 S  S5  1  0.66667  0.33333  0.08381  1
 S  S6  1  0.66667  0.33333  0.41717  1
 Ti  Ti1  1  0.00000  0.00000  0.50000  1
 Ti  Ti2  1  0.00000  0.00000  0.83337  1
 Ti  Ti3  1  0.00000  0.00000  0.16663  1
