CIF file written using JARVIS-Tools package.
data_CdH12C8O4
_symmetry_space_group_name_H-M  'P1'
_cell_length_a       4.36891
_cell_length_b       4.17582
_cell_length_c       11.7421
_cell_angle_alpha    81.943
_cell_angle_beta     82.7807
_cell_angle_gamma    77.3991

_symmetry_Int_Tables_number  1
_chemical_formula_structural  CdH12C8O4
_chemical_formula_sum  CdH2C8O4
_cell_volume  205.9924139337968
_cell_formula_units_Z  1
loop_
  _symmetry_equiv_pos_site_id
 _symmetry_equiv_pos_as_xyz
 1  'x, y, z'
loop_
 _atom_site_type_symbol
 _atom_site_label
 _atom_site_symmetry_multiplicity
 _atom_site_fract_x
 _atom_site_fract_y
 _atom_site_fract_z
 _atom_site_fract_occupancy
 C  C1  1  0.09366  0.74032  0.36184  1
 C  C2  1  0.66742  0.92207  0.66235  1
 C  C3  1  0.77039  0.73536  0.55769  1
 C  C4  1  0.93368  0.94389  0.45954  1
 C  C5  1  0.26655  0.93281  0.26325  1
 C  C6  1  0.45138  0.71268  0.17350  1
 C  C7  1  0.64877  0.88663  0.07753  1
 C  C8  1  0.47067  0.08272  0.97906  1
 Cd  Cd1  1  0.04982  0.31910  0.81024  1
 H  H1  1  0.93853  0.50582  0.58123  1
 H  H2  1  0.26398  0.52664  0.39848  1
 H  H3  1  0.61219  0.50744  0.21880  1
 H  H4  1  0.29138  0.59988  0.13441  1
 H  H5  1  0.11135  0.04241  0.49490  1
 H  H6  1  0.91864  0.63590  0.32729  1
 H  H7  1  0.43067  0.04872  0.29943  1
 H  H8  1  0.09789  0.13794  0.22138  1
 H  H9  1  0.83057  0.69996  0.03652  1
 H  H10  1  0.77684  0.04510  0.11130  1
 H  H11  1  0.75908  0.15810  0.42640  1
 H  H12  1  0.56494  0.67061  0.52861  1
 O  O1  1  0.84621  0.85243  0.74653  1
 O  O2  1  0.56020  0.32814  0.91613  1
 O  O3  1  0.42380  0.15128  0.65986  1
 O  O4  1  0.22545  0.98828  0.96005  1
