CIF file written using JARVIS-Tools package.
data_SnH16C9O6
_symmetry_space_group_name_H-M  'P1'
_cell_length_a       4.55239
_cell_length_b       7.19487
_cell_length_c       8.91874
_cell_angle_alpha    71.8108
_cell_angle_beta     90.6967
_cell_angle_gamma    88.276

_symmetry_Int_Tables_number  1
_chemical_formula_structural  SnH16C9O6
_chemical_formula_sum  SnH6C9O6
_cell_volume  277.32908093863756
_cell_formula_units_Z  1
loop_
  _symmetry_equiv_pos_site_id
 _symmetry_equiv_pos_as_xyz
 1  'x, y, z'
loop_
 _atom_site_type_symbol
 _atom_site_label
 _atom_site_symmetry_multiplicity
 _atom_site_fract_x
 _atom_site_fract_y
 _atom_site_fract_z
 _atom_site_fract_occupancy
 C  C1  1  0.54926  0.92302  0.97496  1
 C  C2  1  0.45827  0.28501  0.27787  1
 C  C3  1  0.74363  0.49886  0.60094  1
 C  C4  1  0.62669  0.34469  0.53178  1
 C  C5  1  0.63699  0.83931  0.63080  1
 C  C6  1  0.51115  0.65486  0.60692  1
 C  C7  1  0.83674  0.80335  0.77758  1
 C  C8  1  0.67397  0.74828  0.93462  1
 C  C9  1  0.58398  0.42768  0.35092  1
 H  H1  1  0.96225  0.93446  0.76860  1
 H  H2  1  0.45329  0.94178  0.63351  1
 H  H3  1  -0.00274  0.68465  0.78402  1
 H  H4  1  0.83340  0.67592  0.03093  1
 H  H5  1  0.35532  0.58780  0.70010  1
 H  H6  1  0.37961  0.70321  0.49616  1
 H  H7  1  0.76540  0.91090  0.52605  1
 H  H8  1  0.32995  0.32512  0.92298  1
 H  H9  1  0.43299  0.55707  0.32020  1
 H  H10  1  0.79601  0.47278  0.29749  1
 H  H11  1  0.78419  0.21947  0.55817  1
 H  H12  1  0.41715  0.28939  0.58611  1
 H  H13  1  0.06015  0.76243  0.26605  1
 H  H14  1  0.83311  0.42348  0.72020  1
 H  H15  1  0.92915  0.57024  0.53035  1
 H  H16  1  0.49836  0.64527  0.93948  1
 O  O1  1  0.69968  0.07770  0.94855  1
 O  O2  1  0.92574  0.86239  0.28227  1
 O  O3  1  0.18779  0.24102  0.30052  1
 O  O4  1  0.60498  0.21081  0.18789  1
 O  O5  1  0.29428  0.90940  0.03567  1
 O  O6  1  0.13389  0.35536  0.95558  1
 Sn  Sn1  1  0.02238  0.11350  0.12167  1
