CIF file written using JARVIS-Tools package.
data_H10C16SO
_symmetry_space_group_name_H-M  'P1'
_cell_length_a       3.82478
_cell_length_b       5.84846
_cell_length_c       12.4909
_cell_angle_alpha    101.751
_cell_angle_beta     88.1586
_cell_angle_gamma    102.369

_symmetry_Int_Tables_number  1
_chemical_formula_structural  H10C16SO
_chemical_formula_sum  H0C6SO
_cell_volume  267.18445381220414
_cell_formula_units_Z  1
loop_
  _symmetry_equiv_pos_site_id
 _symmetry_equiv_pos_as_xyz
 1  'x, y, z'
loop_
 _atom_site_type_symbol
 _atom_site_label
 _atom_site_symmetry_multiplicity
 _atom_site_fract_x
 _atom_site_fract_y
 _atom_site_fract_z
 _atom_site_fract_occupancy
 C  C1  1  0.52909  0.53911  0.84078  1
 C  C2  1  0.32834  0.34091  0.87380  1
 C  C3  1  0.85262  0.34122  0.13027  1
 C  C4  1  0.60285  0.74000  0.44332  1
 C  C5  1  0.76919  0.47151  0.22951  1
 C  C6  1  0.06880  0.45483  0.05592  1
 C  C7  1  0.81208  0.85566  0.36723  1
 C  C8  1  0.56703  0.23902  0.68504  1
 C  C9  1  0.52701  0.86344  0.54534  1
 C  C10  1  0.89667  0.72076  0.25942  1
 C  C11  1  0.65276  0.11172  0.57822  1
 C  C12  1  0.86207  0.22896  0.50262  1
 C  C13  1  0.10643  0.83015  0.18177  1
 C  C14  1  0.66083  0.47835  0.73303  1
 C  C15  1  0.93811  0.10423  0.40054  1
 C  C16  1  0.19155  0.70230  0.08061  1
 H  H1  1  0.35487  0.79762  0.02443  1
 H  H2  1  0.36407  0.76376  0.60086  1
 H  H3  1  0.10098  0.20436  0.34556  1
 H  H4  1  0.82472  0.61140  0.69274  1
 H  H5  1  0.60352  0.37499  0.28503  1
 H  H6  1  0.21110  0.02216  0.19946  1
 H  H7  1  0.75632  0.14838  0.10869  1
 H  H8  1  0.49596  0.54846  0.42372  1
 H  H9  1  0.58363  0.72039  0.88788  1
 H  H10  1  0.96667  0.42108  0.52404  1
 O  O1  1  0.14105  0.29524  0.96426  1
 S  S1  1  0.30794  0.08209  0.77504  1
