CIF file written using JARVIS-Tools package.
data_Si2NiP3
_symmetry_space_group_name_H-M  'Imm2'
_cell_length_a       3.54881
_cell_length_b       5.33719
_cell_length_c       6.44708
_cell_angle_alpha    114.451
_cell_angle_beta     105.975
_cell_angle_gamma    89.9999

_symmetry_Int_Tables_number  44
_chemical_formula_structural  Si2NiP3
_chemical_formula_sum  Si2NiP3
_cell_volume  105.95784198354374
_cell_formula_units_Z  1
loop_
  _symmetry_equiv_pos_site_id
 _symmetry_equiv_pos_as_xyz
 1  'x, y, z'
loop_
 _atom_site_type_symbol
 _atom_site_label
 _atom_site_symmetry_multiplicity
 _atom_site_fract_x
 _atom_site_fract_y
 _atom_site_fract_z
 _atom_site_fract_occupancy
 Ni  Ni1  1  0.50000  0.75317  0.00000  1
 P  P1  1  -0.00000  0.99439  -0.00000  1
 P  P2  1  0.33808  0.34973  0.67616  1
 P  P3  1  0.66192  0.67357  0.32384  1
 Si  Si1  1  0.83504  0.07791  0.67008  1
 Si  Si2  1  0.16496  0.40783  0.32992  1
