CIF file written using JARVIS-Tools package.
data_TlTe3Pt2
_symmetry_space_group_name_H-M  'P-3m1'
_cell_length_a       8.04419
_cell_length_b       8.04419
_cell_length_c       5.86867
_cell_angle_alpha    90
_cell_angle_beta     90
_cell_angle_gamma    120

_symmetry_Int_Tables_number  164
_chemical_formula_structural  TlTe3Pt2
_chemical_formula_sum  Tl2Te6Pt4
_cell_volume  328.8777150534558
_cell_formula_units_Z  2
loop_
  _symmetry_equiv_pos_site_id
 _symmetry_equiv_pos_as_xyz
 1  'x, y, z'
loop_
 _atom_site_type_symbol
 _atom_site_label
 _atom_site_symmetry_multiplicity
 _atom_site_fract_x
 _atom_site_fract_y
 _atom_site_fract_z
 _atom_site_fract_occupancy
 Pt  Pt1  1  0.00000  0.00000  0.00000  1
 Pt  Pt2  1  0.00000  0.50000  0.00000  1
 Pt  Pt3  1  0.50000  -0.00000  0.00000  1
 Pt  Pt4  1  0.50000  0.50000  0.00000  1
 Te  Te1  1  0.83074  0.16926  0.23202  1
 Te  Te2  1  0.83074  0.66149  0.23202  1
 Te  Te3  1  0.33851  0.16926  0.23202  1
 Te  Te4  1  0.66149  0.83074  0.76798  1
 Te  Te5  1  0.16926  0.83074  0.76798  1
 Te  Te6  1  0.16926  0.33851  0.76798  1
 Tl  Tl1  1  0.66667  0.33333  0.68658  1
 Tl  Tl2  1  0.33333  0.66667  0.31342  1
