CIF file written using JARVIS-Tools package.
data_CeUSi4
_symmetry_space_group_name_H-M  'I-4m2'
_cell_length_a       7.69687
_cell_length_b       7.69687
_cell_length_c       7.69687
_cell_angle_alpha    149.833
_cell_angle_beta     149.833
_cell_angle_gamma    43.1864

_symmetry_Int_Tables_number  119
_chemical_formula_structural  CeUSi4
_chemical_formula_sum  CeUSi4
_cell_volume  114.8417421475117
_cell_formula_units_Z  1
loop_
  _symmetry_equiv_pos_site_id
 _symmetry_equiv_pos_as_xyz
 1  'x, y, z'
loop_
 _atom_site_type_symbol
 _atom_site_label
 _atom_site_symmetry_multiplicity
 _atom_site_fract_x
 _atom_site_fract_y
 _atom_site_fract_z
 _atom_site_fract_occupancy
 Ce  Ce1  1  0.25000  0.75000  0.50000  1
 Si  Si1  1  0.66560  0.16560  0.50000  1
 Si  Si2  1  0.58099  0.58099  0.00000  1
 Si  Si3  1  0.83440  0.33440  0.50000  1
 Si  Si4  1  0.41901  0.41901  -0.00000  1
 U  U1  1  0.00000  0.00000  0.00000  1
