CIF file written using JARVIS-Tools package.
data_SrBi2O4
_symmetry_space_group_name_H-M  'C2/m'
_cell_length_a       4.38501
_cell_length_b       6.07595
_cell_length_c       9.92198
_cell_angle_alpha    93.5594
_cell_angle_beta     102.766
_cell_angle_gamma    90

_symmetry_Int_Tables_number  12
_chemical_formula_structural  SrBi2O4
_chemical_formula_sum  Sr2Bi4O8
_cell_volume  257.29448881837726
_cell_formula_units_Z  2
loop_
  _symmetry_equiv_pos_site_id
 _symmetry_equiv_pos_as_xyz
 1  'x, y, z'
loop_
 _atom_site_type_symbol
 _atom_site_label
 _atom_site_symmetry_multiplicity
 _atom_site_fract_x
 _atom_site_fract_y
 _atom_site_fract_z
 _atom_site_fract_occupancy
 Bi  Bi1  1  0.42621  0.72528  0.85242  1
 Bi  Bi2  1  0.57379  0.27472  0.14758  1
 Bi  Bi3  1  0.10019  0.81060  0.20037  1
 Bi  Bi4  1  0.89981  0.18940  0.79963  1
 O  O1  1  0.09013  0.17235  0.18026  1
 O  O2  1  0.90987  0.82765  0.81974  1
 O  O3  1  0.20627  0.85313  0.41254  1
 O  O4  1  0.79373  0.14687  0.58746  1
 O  O5  1  0.32620  0.57554  0.65240  1
 O  O6  1  0.67380  0.42446  0.34760  1
 O  O7  1  0.58888  0.92109  0.17775  1
 O  O8  1  0.41112  0.07891  0.82225  1
 Sr  Sr1  1  0.23454  0.26059  0.46907  1
 Sr  Sr2  1  0.76546  0.73941  0.53093  1
