CIF file written using JARVIS-Tools package.
data_RbH2N
_symmetry_space_group_name_H-M  'P2_1/m'
_cell_length_a       4.82768
_cell_length_b       3.92023
_cell_length_c       6.41559
_cell_angle_alpha    90
_cell_angle_beta     97.8444
_cell_angle_gamma    90

_symmetry_Int_Tables_number  11
_chemical_formula_structural  RbH2N
_chemical_formula_sum  Rb2H4N2
_cell_volume  120.28267505381227
_cell_formula_units_Z  2
loop_
  _symmetry_equiv_pos_site_id
 _symmetry_equiv_pos_as_xyz
 1  'x, y, z'
loop_
 _atom_site_type_symbol
 _atom_site_label
 _atom_site_symmetry_multiplicity
 _atom_site_fract_x
 _atom_site_fract_y
 _atom_site_fract_z
 _atom_site_fract_occupancy
 H  H1  1  0.32336  0.54597  0.87059  1
 H  H2  1  0.67664  0.04597  0.12941  1
 H  H3  1  0.67664  0.45403  0.12941  1
 H  H4  1  0.32336  0.95403  0.87059  1
 N  N1  1  0.28305  0.75000  0.76880  1
 N  N2  1  0.71695  0.25000  0.23120  1
 Rb  Rb1  1  0.21146  0.75000  0.30546  1
 Rb  Rb2  1  0.78854  0.25000  0.69454  1
