CIF file written using JARVIS-Tools package.
data_Na2Zn3GeAs4
_symmetry_space_group_name_H-M  'Cm'
_cell_length_a       8.55029
_cell_length_b       8.55029
_cell_length_c       7.13086
_cell_angle_alpha    65.3325
_cell_angle_beta     65.3325
_cell_angle_gamma    28.062

_symmetry_Int_Tables_number  8
_chemical_formula_structural  Na2Zn3GeAs4
_chemical_formula_sum  Na2Zn3GeAs4
_cell_volume  221.39030011008327
_cell_formula_units_Z  1
loop_
  _symmetry_equiv_pos_site_id
 _symmetry_equiv_pos_as_xyz
 1  'x, y, z'
loop_
 _atom_site_type_symbol
 _atom_site_label
 _atom_site_symmetry_multiplicity
 _atom_site_fract_x
 _atom_site_fract_y
 _atom_site_fract_z
 _atom_site_fract_occupancy
 As  As1  1  0.62479  0.62479  0.70478  1
 As  As2  1  0.14995  0.14995  0.19165  1
 As  As3  1  0.36996  0.36996  0.30085  1
 As  As4  1  0.87330  0.87330  0.78048  1
 Ge  Ge1  1  0.31778  0.31778  0.01676  1
 Na  Na1  1  0.51125  0.51125  0.48230  1
 Na  Na2  1  0.00118  0.00118  0.00021  1
 Zn  Zn1  1  0.80091  0.80091  0.52278  1
 Zn  Zn2  1  0.66323  0.66323  0.99339  1
 Zn  Zn3  1  0.18178  0.18178  0.50680  1
