data_image0
_chemical_formula_structural       Fe2Nd2O3Se2
_chemical_formula_sum              "Fe2 Nd2 O3 Se2"
_cell_length_a       9.67297
_cell_length_b       4.0652
_cell_length_c       4.0652
_cell_angle_alpha    90
_cell_angle_beta     102.13
_cell_angle_gamma    102.13

_space_group_name_H-M_alt    "P 1"
_space_group_IT_number       1

loop_
  _space_group_symop_operation_xyz
  'x, y, z'

loop_
  _atom_site_type_symbol
  _atom_site_label
  _atom_site_symmetry_multiplicity
  _atom_site_fract_x
  _atom_site_fract_y
  _atom_site_fract_z
  _atom_site_occupancy
  Fe  Fe1       1.0  0.00000  0.50000  0.00000  1.0000
  Fe  Fe2       1.0  0.00000  0.00000  0.50000  1.0000
  Nd  Nd1       1.0  0.62700  0.31300  0.31300  1.0000
  Nd  Nd2       1.0  0.37300  0.68700  0.68700  1.0000
  O   O1        1.0  0.50000  0.75000  0.25000  1.0000
  O   O2        1.0  0.00000  0.50000  0.50000  1.0000
  O   O3        1.0  0.50000  0.25000  0.75000  1.0000
  Se  Se1       1.0  0.19800  0.09880  0.09880  1.0000
  Se  Se2       1.0  0.80200  0.90100  0.90100  1.0000
