CIF file written using JARVIS-Tools package.
data_Tm2CuO4
_symmetry_space_group_name_H-M  'I4/mmm'
_cell_length_a       6.31695
_cell_length_b       6.31694
_cell_length_c       3.8241
_cell_angle_alpha    72.381
_cell_angle_beta     72.381
_cell_angle_gamma    35.2381

_symmetry_Int_Tables_number  139
_chemical_formula_structural  Tm2CuO4
_chemical_formula_sum  Tm2CuO4
_cell_volume  83.48603590678198
_cell_formula_units_Z  1
loop_
  _symmetry_equiv_pos_site_id
 _symmetry_equiv_pos_as_xyz
 1  'x, y, z'
loop_
 _atom_site_type_symbol
 _atom_site_label
 _atom_site_symmetry_multiplicity
 _atom_site_fract_x
 _atom_site_fract_y
 _atom_site_fract_z
 _atom_site_fract_occupancy
 Cu  Cu1  1  0.01294  0.98706  0.01294  1
 O  O1  1  0.76306  0.73694  0.76306  1
 O  O2  1  0.26306  0.23694  0.26306  1
 O  O3  1  0.01289  0.98711  0.51292  1
 O  O4  1  0.51292  0.48708  0.01289  1
 Tm  Tm1  1  0.66497  0.63884  0.36116  1
 Tm  Tm2  1  0.36116  0.33503  0.66497  1
