CIF file written using JARVIS-Tools package.
data_FeCoB2
_symmetry_space_group_name_H-M  'Pmc2_1'
_cell_length_a       3.01091
_cell_length_b       3.93661
_cell_length_c       5.29947
_cell_angle_alpha    90
_cell_angle_beta     90
_cell_angle_gamma    90

_symmetry_Int_Tables_number  26
_chemical_formula_structural  FeCoB2
_chemical_formula_sum  Fe2Co2B4
_cell_volume  62.813416292435626
_cell_formula_units_Z  2
loop_
  _symmetry_equiv_pos_site_id
 _symmetry_equiv_pos_as_xyz
 1  'x, y, z'
loop_
 _atom_site_type_symbol
 _atom_site_label
 _atom_site_symmetry_multiplicity
 _atom_site_fract_x
 _atom_site_fract_y
 _atom_site_fract_z
 _atom_site_fract_occupancy
 B  B1  1  0.00000  0.63418  0.53443  1
 B  B2  1  0.00000  0.36582  0.03443  1
 B  B3  1  0.50000  0.87583  0.46538  1
 B  B4  1  0.50000  0.12417  0.96538  1
 Co  Co1  1  0.00000  0.12973  0.67821  1
 Co  Co2  1  0.00000  0.87027  0.17821  1
 Fe  Fe1  1  0.50000  0.37505  0.32199  1
 Fe  Fe2  1  0.50000  0.62495  0.82199  1
