CIF file written using JARVIS-Tools package.
data_TlIn2GaSe4
_symmetry_space_group_name_H-M  'I222'
_cell_length_a       6.64728
_cell_length_b       6.64728
_cell_length_c       6.64728
_cell_angle_alpha    119.321
_cell_angle_beta     104.962
_cell_angle_gamma    104.603

_symmetry_Int_Tables_number  23
_chemical_formula_structural  TlIn2GaSe4
_chemical_formula_sum  TlIn2GaSe4
_cell_volume  221.01672113418658
_cell_formula_units_Z  1
loop_
  _symmetry_equiv_pos_site_id
 _symmetry_equiv_pos_as_xyz
 1  'x, y, z'
loop_
 _atom_site_type_symbol
 _atom_site_label
 _atom_site_symmetry_multiplicity
 _atom_site_fract_x
 _atom_site_fract_y
 _atom_site_fract_z
 _atom_site_fract_occupancy
 Ga  Ga1  1  0.50000  0.50000  0.00000  1
 In  In1  1  0.50000  0.00000  0.50000  1
 In  In2  1  0.00000  0.50000  0.50000  1
 Se  Se1  1  0.50132  0.10143  0.93869  1
 Se  Se2  1  0.49868  0.43736  0.60011  1
 Se  Se3  1  0.16274  0.56264  0.06131  1
 Se  Se4  1  0.83726  0.89857  0.39989  1
 Tl  Tl1  1  0.00000  0.00000  0.00000  1
