CIF file written using JARVIS-Tools package.
data_Mo2CN
_symmetry_space_group_name_H-M  'Pmm2'
_cell_length_a       2.82477
_cell_length_b       2.90566
_cell_length_c       5.02253
_cell_angle_alpha    90
_cell_angle_beta     90
_cell_angle_gamma    90

_symmetry_Int_Tables_number  25
_chemical_formula_structural  Mo2CN
_chemical_formula_sum  Mo2CN
_cell_volume  41.22395340114259
_cell_formula_units_Z  1
loop_
  _symmetry_equiv_pos_site_id
 _symmetry_equiv_pos_as_xyz
 1  'x, y, z'
loop_
 _atom_site_type_symbol
 _atom_site_label
 _atom_site_symmetry_multiplicity
 _atom_site_fract_x
 _atom_site_fract_y
 _atom_site_fract_z
 _atom_site_fract_occupancy
 C  C1  1  0.00000  0.00000  0.99847  1
 Mo  Mo1  1  0.50000  0.50000  0.16634  1
 Mo  Mo2  1  0.50000  0.00000  0.66707  1
 N  N1  1  0.00000  0.50000  0.50141  1
