CIF file written using JARVIS-Tools package.
data_Sr2CaI6
_symmetry_space_group_name_H-M  'C2/c'
_cell_length_a       7.7087
_cell_length_b       8.39421
_cell_length_c       13.0033
_cell_angle_alpha    106.579
_cell_angle_beta     107.242
_cell_angle_gamma    90.0006

_symmetry_Int_Tables_number  15
_chemical_formula_structural  Sr2CaI6
_chemical_formula_sum  Sr4Ca2I2
_cell_volume  766.9073311373133
_cell_formula_units_Z  2
loop_
  _symmetry_equiv_pos_site_id
 _symmetry_equiv_pos_as_xyz
 1  'x, y, z'
loop_
 _atom_site_type_symbol
 _atom_site_label
 _atom_site_symmetry_multiplicity
 _atom_site_fract_x
 _atom_site_fract_y
 _atom_site_fract_z
 _atom_site_fract_occupancy
 Ca  Ca1  1  0.33396  0.75033  -0.00032  1
 Ca  Ca2  1  0.66874  0.25034  -0.00031  1
 I  I1  1  0.73775  0.47628  0.46800  1
 I  I2  1  0.40197  0.93540  0.83437  1
 I  I3  1  0.43540  0.43538  0.83438  1
 I  I4  1  0.56729  0.56528  0.16500  1
 I  I5  1  0.89480  0.14822  0.82504  1
 I  I6  1  0.93328  0.64824  0.82506  1
 I  I7  1  0.26946  0.02437  0.53137  1
 I  I8  1  0.60074  0.06527  0.16500  1
 I  I9  1  0.26493  0.52437  0.53138  1
 I  I10  1  0.10794  0.85241  0.17434  1
 I  I11  1  0.06942  0.35240  0.17434  1
 I  I12  1  0.73326  0.97628  0.46801  1
 Sr  Sr1  1  0.37312  0.18879  0.34703  1
 Sr  Sr2  1  0.97693  0.68881  0.34705  1
 Sr  Sr3  1  0.02577  0.31184  0.65234  1
 Sr  Sr4  1  0.62960  0.81185  0.65234  1
