CIF file written using JARVIS-Tools package.
data_MnP2O7
_symmetry_space_group_name_H-M  'C2'
_cell_length_a       5.01278
_cell_length_b       5.01278
_cell_length_c       4.43264
_cell_angle_alpha    81.4595
_cell_angle_beta     81.4595
_cell_angle_gamma    99.8317

_symmetry_Int_Tables_number  5
_chemical_formula_structural  MnP2O7
_chemical_formula_sum  MnP2O7
_cell_volume  106.7888270851196
_cell_formula_units_Z  1
loop_
  _symmetry_equiv_pos_site_id
 _symmetry_equiv_pos_as_xyz
 1  'x, y, z'
loop_
 _atom_site_type_symbol
 _atom_site_label
 _atom_site_symmetry_multiplicity
 _atom_site_fract_x
 _atom_site_fract_y
 _atom_site_fract_z
 _atom_site_fract_occupancy
 Mn  Mn1  1  0.11088  0.88912  0.00000  1
 O  O1  1  0.55345  0.44655  0.50000  1
 O  O2  1  0.42884  0.85512  0.72961  1
 O  O3  1  0.81232  0.93212  0.28636  1
 O  O4  1  0.85771  0.66046  0.81993  1
 O  O5  1  0.06788  0.18768  0.71364  1
 O  O6  1  0.14488  0.57116  0.27039  1
 O  O7  1  0.33954  0.14229  0.18007  1
 P  P1  1  0.66840  0.73673  0.59273  1
 P  P2  1  0.26327  0.33160  0.40727  1
