CIF file written using JARVIS-Tools package.
data_KRb2AlBr6
_symmetry_space_group_name_H-M  'Fm-3m'
_cell_length_a       7.84872
_cell_length_b       7.84872
_cell_length_c       7.84871
_cell_angle_alpha    60
_cell_angle_beta     60
_cell_angle_gamma    60

_symmetry_Int_Tables_number  225
_chemical_formula_structural  KRb2AlBr6
_chemical_formula_sum  KRb2AlBr6
_cell_volume  341.8853262151439
_cell_formula_units_Z  1
loop_
  _symmetry_equiv_pos_site_id
 _symmetry_equiv_pos_as_xyz
 1  'x, y, z'
loop_
 _atom_site_type_symbol
 _atom_site_label
 _atom_site_symmetry_multiplicity
 _atom_site_fract_x
 _atom_site_fract_y
 _atom_site_fract_z
 _atom_site_fract_occupancy
 Al  Al1  1  0.00000  0.00000  0.00000  1
 Br  Br1  1  0.77376  0.22624  0.22624  1
 Br  Br2  1  0.22624  0.22624  0.77376  1
 Br  Br3  1  0.22624  0.77376  0.77376  1
 Br  Br4  1  0.22624  0.77376  0.22624  1
 Br  Br5  1  0.77376  0.22624  0.77376  1
 Br  Br6  1  0.77376  0.77376  0.22624  1
 K  K1  1  0.50000  0.50000  0.50000  1
 Rb  Rb1  1  0.75000  0.75000  0.75000  1
 Rb  Rb2  1  0.25000  0.25000  0.25000  1
