CIF file written using JARVIS-Tools package.
data_LiAgO2
_symmetry_space_group_name_H-M  'P6_3/mmc'
_cell_length_a       3.23708
_cell_length_b       3.2373
_cell_length_c       9.63059
_cell_angle_alpha    89.973
_cell_angle_beta     89.9571
_cell_angle_gamma    60.0042

_symmetry_Int_Tables_number  194
_chemical_formula_structural  LiAgO2
_chemical_formula_sum  Li2Ag2O4
_cell_volume  87.40527127910322
_cell_formula_units_Z  2
loop_
  _symmetry_equiv_pos_site_id
 _symmetry_equiv_pos_as_xyz
 1  'x, y, z'
loop_
 _atom_site_type_symbol
 _atom_site_label
 _atom_site_symmetry_multiplicity
 _atom_site_fract_x
 _atom_site_fract_y
 _atom_site_fract_z
 _atom_site_fract_occupancy
 Ag  Ag1  1  0.00000  0.00000  0.00000  1
 Ag  Ag2  1  -0.00000  0.00000  0.50000  1
 Li  Li1  1  0.66673  0.66617  0.24999  1
 Li  Li2  1  0.33327  0.33383  0.75001  1
 O  O1  1  0.66656  0.66719  0.66577  1
 O  O2  1  0.66663  0.66726  0.83423  1
 O  O3  1  0.33337  0.33274  0.16577  1
 O  O4  1  0.33344  0.33281  0.33423  1
