CIF file written using JARVIS-Tools package.
data_Na2CoO3
_symmetry_space_group_name_H-M  'Cmc2_1'
_cell_length_a       5.77216
_cell_length_b       6.42927
_cell_length_c       4.98744
_cell_angle_alpha    90
_cell_angle_beta     90
_cell_angle_gamma    63.3271

_symmetry_Int_Tables_number  36
_chemical_formula_structural  Na2CoO3
_chemical_formula_sum  Na4Co2O6
_cell_volume  165.39158098356893
_cell_formula_units_Z  2
loop_
  _symmetry_equiv_pos_site_id
 _symmetry_equiv_pos_as_xyz
 1  'x, y, z'
loop_
 _atom_site_type_symbol
 _atom_site_label
 _atom_site_symmetry_multiplicity
 _atom_site_fract_x
 _atom_site_fract_y
 _atom_site_fract_z
 _atom_site_fract_occupancy
 Co  Co1  1  0.81380  -0.00000  0.04240  1
 Co  Co2  1  0.18620  0.00000  0.54240  1
 Na  Na1  1  0.85650  0.67219  0.51452  1
 Na  Na2  1  0.47132  0.67219  0.01452  1
 Na  Na3  1  0.52868  0.32781  0.51452  1
 Na  Na4  1  0.14350  0.32781  0.01452  1
 O  O1  1  0.85154  0.71816  0.99518  1
 O  O2  1  0.43031  0.71816  0.49518  1
 O  O3  1  0.56969  0.28184  0.99518  1
 O  O4  1  0.14846  0.28184  0.49518  1
 O  O5  1  0.89188  -0.00000  0.39619  1
 O  O6  1  0.10812  0.00000  0.89619  1
