CIF file written using JARVIS-Tools package.
data_LiTe3
_symmetry_space_group_name_H-M  'P6_3/mmc'
_cell_length_a       6.4273
_cell_length_b       6.4273
_cell_length_c       6.51272
_cell_angle_alpha    90
_cell_angle_beta     90
_cell_angle_gamma    120

_symmetry_Int_Tables_number  194
_chemical_formula_structural  LiTe3
_chemical_formula_sum  Li2Te6
_cell_volume  232.99671067151812
_cell_formula_units_Z  2
loop_
  _symmetry_equiv_pos_site_id
 _symmetry_equiv_pos_as_xyz
 1  'x, y, z'
loop_
 _atom_site_type_symbol
 _atom_site_label
 _atom_site_symmetry_multiplicity
 _atom_site_fract_x
 _atom_site_fract_y
 _atom_site_fract_z
 _atom_site_fract_occupancy
 Li  Li1  1  0.66667  0.33333  0.25000  1
 Li  Li2  1  0.33333  0.66667  0.75000  1
 Te  Te1  1  0.82926  0.17074  0.75000  1
 Te  Te2  1  0.34148  0.17074  0.75000  1
 Te  Te3  1  0.82926  0.65852  0.75000  1
 Te  Te4  1  0.17074  0.82926  0.25000  1
 Te  Te5  1  0.65852  0.82926  0.25000  1
 Te  Te6  1  0.17074  0.34148  0.25000  1
