CIF file written using JARVIS-Tools package.
data_MgS2
_symmetry_space_group_name_H-M  'P6_3/mmc'
_cell_length_a       3.93907
_cell_length_b       3.93907
_cell_length_c       9.19377
_cell_angle_alpha    90
_cell_angle_beta     90
_cell_angle_gamma    120.007

_symmetry_Int_Tables_number  194
_chemical_formula_structural  MgS2
_chemical_formula_sum  Mg2S4
_cell_volume  123.53244758109496
_cell_formula_units_Z  2
loop_
  _symmetry_equiv_pos_site_id
 _symmetry_equiv_pos_as_xyz
 1  'x, y, z'
loop_
 _atom_site_type_symbol
 _atom_site_label
 _atom_site_symmetry_multiplicity
 _atom_site_fract_x
 _atom_site_fract_y
 _atom_site_fract_z
 _atom_site_fract_occupancy
 Mg  Mg1  1  0.50028  0.49972  0.27775  1
 Mg  Mg2  1  0.49972  0.50028  0.77775  1
 S  S1  1  0.83351  0.16649  0.14278  1
 S  S2  1  0.16692  0.83308  0.41273  1
 S  S3  1  0.16649  0.83351  0.64278  1
 S  S4  1  0.83308  0.16692  0.91273  1
