CIF file written using JARVIS-Tools package.
data_MnF4
_symmetry_space_group_name_H-M  'Pbam'
_cell_length_a       2.92933
_cell_length_b       4.52609
_cell_length_c       8.8842
_cell_angle_alpha    90
_cell_angle_beta     90
_cell_angle_gamma    90

_symmetry_Int_Tables_number  55
_chemical_formula_structural  MnF4
_chemical_formula_sum  Mn2F8
_cell_volume  117.79035178116945
_cell_formula_units_Z  2
loop_
  _symmetry_equiv_pos_site_id
 _symmetry_equiv_pos_as_xyz
 1  'x, y, z'
loop_
 _atom_site_type_symbol
 _atom_site_label
 _atom_site_symmetry_multiplicity
 _atom_site_fract_x
 _atom_site_fract_y
 _atom_site_fract_z
 _atom_site_fract_occupancy
 F  F1  1  0.00000  0.29045  0.13184  1
 F  F2  1  0.00000  0.79045  0.36816  1
 F  F3  1  0.50000  0.17751  0.89879  1
 F  F4  1  0.50000  0.32249  0.39879  1
 F  F5  1  0.50000  0.67751  0.60121  1
 F  F6  1  0.50000  0.82249  0.10121  1
 F  F7  1  0.00000  0.20955  0.63184  1
 F  F8  1  0.00000  0.70955  0.86816  1
 Mn  Mn1  1  0.00000  0.00000  0.00000  1
 Mn  Mn2  1  0.00000  0.50000  0.50000  1
