CIF file written using JARVIS-Tools package.
data_KLiSnO2
_symmetry_space_group_name_H-M  'C2/m'
_cell_length_a       6.87799
_cell_length_b       6.87799
_cell_length_c       9.72932
_cell_angle_alpha    56.5796
_cell_angle_beta     56.5796
_cell_angle_gamma    28.2411

_symmetry_Int_Tables_number  12
_chemical_formula_structural  KLiSnO2
_chemical_formula_sum  K2Li2Sn2O4
_cell_volume  179.25484998201875
_cell_formula_units_Z  2
loop_
  _symmetry_equiv_pos_site_id
 _symmetry_equiv_pos_as_xyz
 1  'x, y, z'
loop_
 _atom_site_type_symbol
 _atom_site_label
 _atom_site_symmetry_multiplicity
 _atom_site_fract_x
 _atom_site_fract_y
 _atom_site_fract_z
 _atom_site_fract_occupancy
 K  K1  1  0.48719  0.48719  0.71611  1
 K  K2  1  0.51281  0.51281  0.28389  1
 Li  Li1  1  0.23920  0.23920  0.42318  1
 Li  Li2  1  0.76080  0.76080  0.57682  1
 O  O1  1  0.83331  0.83331  0.34237  1
 O  O2  1  0.18614  0.18614  0.26918  1
 O  O3  1  0.81386  0.81386  0.73082  1
 O  O4  1  0.16669  0.16669  0.65763  1
 Sn  Sn1  1  0.18866  0.18866  0.85059  1
 Sn  Sn2  1  0.81134  0.81134  0.14941  1
