CIF file written using JARVIS-Tools package.
data_Ba4P2O
_symmetry_space_group_name_H-M  'Cmce'
_cell_length_a       7.21342
_cell_length_b       7.57209
_cell_length_c       9.02693
_cell_angle_alpha    90
_cell_angle_beta     113.55
_cell_angle_gamma    90

_symmetry_Int_Tables_number  64
_chemical_formula_structural  Ba4P2O
_chemical_formula_sum  Ba8P4O2
_cell_volume  451.9910600242569
_cell_formula_units_Z  2
loop_
  _symmetry_equiv_pos_site_id
 _symmetry_equiv_pos_as_xyz
 1  'x, y, z'
loop_
 _atom_site_type_symbol
 _atom_site_label
 _atom_site_symmetry_multiplicity
 _atom_site_fract_x
 _atom_site_fract_y
 _atom_site_fract_z
 _atom_site_fract_occupancy
 Ba  Ba1  1  0.67661  0.43443  0.35322  1
 Ba  Ba2  1  0.32339  0.56557  0.64678  1
 Ba  Ba3  1  0.17661  0.06557  0.35322  1
 Ba  Ba4  1  0.82339  0.93443  0.64678  1
 Ba  Ba5  1  0.72982  0.25000  0.95964  1
 Ba  Ba6  1  0.77018  0.75000  0.04036  1
 Ba  Ba7  1  0.27018  0.75000  0.04036  1
 Ba  Ba8  1  0.22982  0.25000  0.95964  1
 O  O1  1  0.50000  0.50000  0.00000  1
 O  O2  1  0.00000  0.00000  0.00000  1
 P  P1  1  0.13476  0.47695  0.26953  1
 P  P2  1  0.86524  0.52305  0.73047  1
 P  P3  1  0.36524  0.97695  0.73047  1
 P  P4  1  0.63476  0.02305  0.26953  1
