CIF file written using JARVIS-Tools package.
data_Li2MnBAsO7
_symmetry_space_group_name_H-M  'P2_1/m'
_cell_length_a       5.10367
_cell_length_b       6.33529
_cell_length_c       8.64884
_cell_angle_alpha    90
_cell_angle_beta     93.6939
_cell_angle_gamma    90

_symmetry_Int_Tables_number  11
_chemical_formula_structural  Li2MnBAsO7
_chemical_formula_sum  Li4Mn2B2As2O4
_cell_volume  279.0638945358689
_cell_formula_units_Z  2
loop_
  _symmetry_equiv_pos_site_id
 _symmetry_equiv_pos_as_xyz
 1  'x, y, z'
loop_
 _atom_site_type_symbol
 _atom_site_label
 _atom_site_symmetry_multiplicity
 _atom_site_fract_x
 _atom_site_fract_y
 _atom_site_fract_z
 _atom_site_fract_occupancy
 As  As1  1  0.27951  0.75000  0.42731  1
 As  As2  1  0.72049  0.25000  0.57269  1
 B  B1  1  0.26897  0.25000  0.05018  1
 B  B2  1  0.73103  0.75000  0.94982  1
 Li  Li1  1  0.76756  0.47872  0.19174  1
 Li  Li2  1  0.76756  0.02128  0.19174  1
 Li  Li3  1  0.23244  0.52128  0.80826  1
 Li  Li4  1  0.23244  0.97872  0.80826  1
 Mn  Mn1  1  0.20922  0.25000  0.32120  1
 Mn  Mn2  1  0.79078  0.75000  0.67880  1
 O  O1  1  0.69841  0.75000  0.09969  1
 O  O2  1  0.97334  0.75000  0.87768  1
 O  O3  1  0.46837  0.25000  0.17340  1
 O  O4  1  0.18113  0.95380  0.30775  1
 O  O5  1  0.18113  0.54620  0.30775  1
 O  O6  1  0.02666  0.25000  0.12232  1
 O  O7  1  0.81887  0.04620  0.69225  1
 O  O8  1  0.38590  0.25000  0.52593  1
 O  O9  1  0.14093  0.75000  0.60238  1
 O  O10  1  0.81887  0.45380  0.69225  1
 O  O11  1  0.85907  0.25000  0.39762  1
 O  O12  1  0.53163  0.75000  0.82660  1
 O  O13  1  0.61410  0.75000  0.47407  1
 O  O14  1  0.30159  0.25000  0.90031  1
