CIF file written using JARVIS-Tools package.
data_ZrMnNi
_symmetry_space_group_name_H-M  'Imma'
_cell_length_a       4.97396
_cell_length_b       4.97396
_cell_length_c       4.97396
_cell_angle_alpha    93.4899
_cell_angle_beta     56.2324
_cell_angle_gamma    120.335

_symmetry_Int_Tables_number  74
_chemical_formula_structural  ZrMnNi
_chemical_formula_sum  Zr2Mn2Ni2
_cell_volume  84.04538016073735
_cell_formula_units_Z  2
loop_
  _symmetry_equiv_pos_site_id
 _symmetry_equiv_pos_as_xyz
 1  'x, y, z'
loop_
 _atom_site_type_symbol
 _atom_site_label
 _atom_site_symmetry_multiplicity
 _atom_site_fract_x
 _atom_site_fract_y
 _atom_site_fract_z
 _atom_site_fract_occupancy
 Mn  Mn1  1  0.75000  0.37500  0.87500  1
 Mn  Mn2  1  0.25000  0.37500  0.37500  1
 Ni  Ni1  1  0.25000  0.87500  0.37500  1
 Ni  Ni2  1  0.75000  0.37500  0.37500  1
 Zr  Zr1  1  0.50000  0.74584  0.75416  1
 Zr  Zr2  1  -0.00000  0.00416  0.99584  1
