CIF file written using JARVIS-Tools package.
data_AlFeF5
_symmetry_space_group_name_H-M  'Immm'
_cell_length_a       5.18938
_cell_length_b       5.18937
_cell_length_c       5.18938
_cell_angle_alpha    139.549
_cell_angle_beta     106.262
_cell_angle_gamma    87.6507

_symmetry_Int_Tables_number  71
_chemical_formula_structural  AlFeF5
_chemical_formula_sum  AlFeF5
_cell_volume  83.6522287324229
_cell_formula_units_Z  1
loop_
  _symmetry_equiv_pos_site_id
 _symmetry_equiv_pos_as_xyz
 1  'x, y, z'
loop_
 _atom_site_type_symbol
 _atom_site_label
 _atom_site_symmetry_multiplicity
 _atom_site_fract_x
 _atom_site_fract_y
 _atom_site_fract_z
 _atom_site_fract_occupancy
 Al  Al1  1  0.50000  0.50000  -0.00000  1
 F  F1  1  0.79390  0.50000  0.29390  1
 F  F2  1  0.20610  0.50000  0.70610  1
 F  F3  1  0.25827  0.25827  -0.00000  1
 F  F4  1  0.74173  0.74173  0.00000  1
 F  F5  1  0.50000  -0.00000  0.50000  1
 Fe  Fe1  1  0.00000  0.00000  0.00000  1
