CIF file written using JARVIS-Tools package.
data_H3C3O2
_symmetry_space_group_name_H-M  'P2_1'
_cell_length_a       5.46667
_cell_length_b       7.09811
_cell_length_c       7.42521
_cell_angle_alpha    90
_cell_angle_beta     95.8017
_cell_angle_gamma    90

_symmetry_Int_Tables_number  4
_chemical_formula_structural  H3C3O2
_chemical_formula_sum  H2C2O8
_cell_volume  286.6447111196542
_cell_formula_units_Z  4
loop_
  _symmetry_equiv_pos_site_id
 _symmetry_equiv_pos_as_xyz
 1  'x, y, z'
loop_
 _atom_site_type_symbol
 _atom_site_label
 _atom_site_symmetry_multiplicity
 _atom_site_fract_x
 _atom_site_fract_y
 _atom_site_fract_z
 _atom_site_fract_occupancy
 C  C1  1  0.82152  0.37879  0.24870  1
 C  C2  1  0.57451  0.93243  0.36623  1
 C  C3  1  0.57895  0.73952  0.86644  1
 C  C4  1  0.42105  0.23952  0.13356  1
 C  C5  1  0.33670  0.73546  0.75772  1
 C  C6  1  0.42549  0.43243  0.63377  1
 C  C7  1  0.66330  0.23546  0.24228  1
 C  C8  1  0.69308  0.45797  0.70146  1
 C  C9  1  0.17848  0.87879  0.75130  1
 C  C10  1  0.81685  0.27491  0.76499  1
 C  C11  1  0.18315  0.77491  0.23501  1
 C  C12  1  0.30692  0.95797  0.29854  1
 H  H1  1  0.78128  0.51557  0.58651  1
 H  H2  1  0.21872  0.01557  0.41349  1
 H  H3  1  0.29229  0.69573  0.14522  1
 H  H4  1  0.77469  0.50526  0.17095  1
 H  H5  1  0.15689  0.68825  0.35342  1
 H  H6  1  0.00320  0.80752  0.16328  1
 H  H7  1  0.99680  0.30752  0.83672  1
 H  H8  1  0.70771  0.19573  0.85478  1
 H  H9  1  0.22531  0.00526  0.82905  1
 H  H10  1  -0.00202  0.36853  0.33016  1
 H  H11  1  0.00202  0.86853  0.66984  1
 H  H12  1  0.84311  0.18825  0.64658  1
 O  O1  1  0.36187  0.36471  0.02375  1
 O  O2  1  0.34982  0.29516  0.54626  1
 O  O3  1  0.26328  0.57148  0.66202  1
 O  O4  1  0.73672  0.07148  0.33798  1
 O  O5  1  0.73658  0.59702  0.84706  1
 O  O6  1  0.26342  0.09702  0.15294  1
 O  O7  1  0.63813  0.86471  0.97625  1
 O  O8  1  0.65018  0.79516  0.45374  1
