CIF file written using JARVIS-Tools package.
data_ErGa2Cu3
_symmetry_space_group_name_H-M  'Cmmm'
_cell_length_a       5.06695
_cell_length_b       5.06695
_cell_length_c       4.124
_cell_angle_alpha    90
_cell_angle_beta     90
_cell_angle_gamma    118.334

_symmetry_Int_Tables_number  65
_chemical_formula_structural  ErGa2Cu3
_chemical_formula_sum  ErGa2Cu3
_cell_volume  93.19447170137313
_cell_formula_units_Z  1
loop_
  _symmetry_equiv_pos_site_id
 _symmetry_equiv_pos_as_xyz
 1  'x, y, z'
loop_
 _atom_site_type_symbol
 _atom_site_label
 _atom_site_symmetry_multiplicity
 _atom_site_fract_x
 _atom_site_fract_y
 _atom_site_fract_z
 _atom_site_fract_occupancy
 Cu  Cu1  1  0.16191  0.83809  0.00000  1
 Cu  Cu2  1  0.83809  0.16191  0.00000  1
 Cu  Cu3  1  0.00000  0.00000  0.50000  1
 Er  Er1  1  0.50000  0.50000  0.00000  1
 Ga  Ga1  1  0.00000  0.50000  0.50000  1
 Ga  Ga2  1  0.50000  0.00000  0.50000  1
