CIF file written using JARVIS-Tools package.
data_U3Si
_symmetry_space_group_name_H-M  'I4/mcm'
_cell_length_a       6.03127
_cell_length_b       6.03127
_cell_length_c       6.05592
_cell_angle_alpha    119.865
_cell_angle_beta     119.865
_cell_angle_gamma    90

_symmetry_Int_Tables_number  140
_chemical_formula_structural  U3Si
_chemical_formula_sum  U6Si2
_cell_volume  156.4011520781355
_cell_formula_units_Z  2
loop_
  _symmetry_equiv_pos_site_id
 _symmetry_equiv_pos_as_xyz
 1  'x, y, z'
loop_
 _atom_site_type_symbol
 _atom_site_label
 _atom_site_symmetry_multiplicity
 _atom_site_fract_x
 _atom_site_fract_y
 _atom_site_fract_z
 _atom_site_fract_occupancy
 Si  Si1  1  0.25000  0.25000  0.50000  1
 Si  Si2  1  0.75000  0.75000  0.50000  1
 U  U1  1  0.25000  0.75000  0.50000  1
 U  U2  1  0.75000  0.25000  0.50000  1
 U  U3  1  0.22019  0.72019  -0.00000  1
 U  U4  1  0.27981  0.22019  -0.00000  1
 U  U5  1  0.72019  0.77981  0.00000  1
 U  U6  1  0.77981  0.27981  0.00000  1
