CIF file written using JARVIS-Tools package.
data_NaNiO2
_symmetry_space_group_name_H-M  'C2/m'
_cell_length_a       5.43488
_cell_length_b       5.4349
_cell_length_c       5.44222
_cell_angle_alpha    31.8037
_cell_angle_beta     31.8037
_cell_angle_gamma    31.6888

_symmetry_Int_Tables_number  12
_chemical_formula_structural  NaNiO2
_chemical_formula_sum  NaNiO2
_cell_volume  39.56842215837001
_cell_formula_units_Z  1
loop_
  _symmetry_equiv_pos_site_id
 _symmetry_equiv_pos_as_xyz
 1  'x, y, z'
loop_
 _atom_site_type_symbol
 _atom_site_label
 _atom_site_symmetry_multiplicity
 _atom_site_fract_x
 _atom_site_fract_y
 _atom_site_fract_z
 _atom_site_fract_occupancy
 Na  Na1  1  0.50000  0.50000  0.50000  1
 Ni  Ni1  1  0.00000  0.00000  0.00000  1
 O  O1  1  0.27000  0.27000  0.26672  1
 O  O2  1  0.73000  0.73000  0.73328  1
