CIF file written using JARVIS-Tools package.
data_Th2TeN2
_symmetry_space_group_name_H-M  'I4/mmm'
_cell_length_a       4.11796
_cell_length_b       4.11796
_cell_length_c       7.175
_cell_angle_alpha    106.676
_cell_angle_beta     106.676
_cell_angle_gamma    90.0001

_symmetry_Int_Tables_number  139
_chemical_formula_structural  Th2TeN2
_chemical_formula_sum  Th2TeN2
_cell_volume  111.20080769866593
_cell_formula_units_Z  1
loop_
  _symmetry_equiv_pos_site_id
 _symmetry_equiv_pos_as_xyz
 1  'x, y, z'
loop_
 _atom_site_type_symbol
 _atom_site_label
 _atom_site_symmetry_multiplicity
 _atom_site_fract_x
 _atom_site_fract_y
 _atom_site_fract_z
 _atom_site_fract_occupancy
 N  N1  1  0.75000  0.25000  0.50000  1
 N  N2  1  0.25000  0.75000  0.50000  1
 Te  Te1  1  0.00000  0.00000  0.00000  1
 Th  Th1  1  0.33721  0.33721  0.67442  1
 Th  Th2  1  0.66279  0.66279  0.32558  1
