CIF file written using JARVIS-Tools package.
data_MnHO2
_symmetry_space_group_name_H-M  'Pmn2_1'
_cell_length_a       2.97608
_cell_length_b       4.43974
_cell_length_c       5.08231
_cell_angle_alpha    90
_cell_angle_beta     90
_cell_angle_gamma    90

_symmetry_Int_Tables_number  31
_chemical_formula_structural  MnHO2
_chemical_formula_sum  Mn2H2O4
_cell_volume  67.15269907593941
_cell_formula_units_Z  2
loop_
  _symmetry_equiv_pos_site_id
 _symmetry_equiv_pos_as_xyz
 1  'x, y, z'
loop_
 _atom_site_type_symbol
 _atom_site_label
 _atom_site_symmetry_multiplicity
 _atom_site_fract_x
 _atom_site_fract_y
 _atom_site_fract_z
 _atom_site_fract_occupancy
 H  H1  1  0.50000  0.31110  0.02997  1
 H  H2  1  0.00000  0.68890  0.52997  1
 Mn  Mn1  1  0.50000  0.22698  0.51126  1
 Mn  Mn2  1  0.00000  0.77302  0.01126  1
 O  O1  1  0.50000  0.49811  0.14855  1
 O  O2  1  0.50000  0.00459  0.86410  1
 O  O3  1  0.00000  0.99541  0.36410  1
 O  O4  1  0.00000  0.50189  0.64855  1
