CIF file written using JARVIS-Tools package.
data_TbScGe
_symmetry_space_group_name_H-M  'I4/mmm'
_cell_length_a       4.22784
_cell_length_b       4.22785
_cell_length_c       8.30545
_cell_angle_alpha    104.745
_cell_angle_beta     104.745
_cell_angle_gamma    90

_symmetry_Int_Tables_number  139
_chemical_formula_structural  TbScGe
_chemical_formula_sum  Tb2Sc2Ge2
_cell_volume  138.50657219069396
_cell_formula_units_Z  2
loop_
  _symmetry_equiv_pos_site_id
 _symmetry_equiv_pos_as_xyz
 1  'x, y, z'
loop_
 _atom_site_type_symbol
 _atom_site_label
 _atom_site_symmetry_multiplicity
 _atom_site_fract_x
 _atom_site_fract_y
 _atom_site_fract_z
 _atom_site_fract_occupancy
 Ge  Ge1  1  0.12917  0.12917  0.25833  1
 Ge  Ge2  1  0.87083  0.87083  0.74167  1
 Sc  Sc1  1  0.00000  0.50000  0.00000  1
 Sc  Sc2  1  0.50000  -0.00000  0.00000  1
 Tb  Tb1  1  0.67640  0.67640  0.35280  1
 Tb  Tb2  1  0.32360  0.32360  0.64720  1
