CIF file written using JARVIS-Tools package.
data_Sn2SeS
_symmetry_space_group_name_H-M  'Pmc2_1'
_cell_length_a       4.11971
_cell_length_b       4.49167
_cell_length_c       11.5847
_cell_angle_alpha    90
_cell_angle_beta     90
_cell_angle_gamma    90

_symmetry_Int_Tables_number  26
_chemical_formula_structural  Sn2SeS
_chemical_formula_sum  Sn4Se2S2
_cell_volume  214.36845339802096
_cell_formula_units_Z  2
loop_
  _symmetry_equiv_pos_site_id
 _symmetry_equiv_pos_as_xyz
 1  'x, y, z'
loop_
 _atom_site_type_symbol
 _atom_site_label
 _atom_site_symmetry_multiplicity
 _atom_site_fract_x
 _atom_site_fract_y
 _atom_site_fract_z
 _atom_site_fract_occupancy
 S  S1  1  0.50000  0.72567  0.64957  1
 S  S2  1  0.50000  0.27433  0.14957  1
 Se  Se1  1  0.00000  0.77387  0.35649  1
 Se  Se2  1  0.00000  0.22613  0.85649  1
 Sn  Sn1  1  0.00000  0.10972  0.61774  1
 Sn  Sn2  1  0.00000  0.89028  0.11774  1
 Sn  Sn3  1  0.50000  0.35024  0.37620  1
 Sn  Sn4  1  0.50000  0.64976  0.87620  1
