CIF file written using JARVIS-Tools package.
data_SnH18C10O4
_symmetry_space_group_name_H-M  'P1'
_cell_length_a       4.54909
_cell_length_b       7.17201
_cell_length_c       9.43985
_cell_angle_alpha    72.9781
_cell_angle_beta     90.1576
_cell_angle_gamma    77.6819

_symmetry_Int_Tables_number  1
_chemical_formula_structural  SnH18C10O4
_chemical_formula_sum  SnH8C0O4
_cell_volume  287.0118470175707
_cell_formula_units_Z  1
loop_
  _symmetry_equiv_pos_site_id
 _symmetry_equiv_pos_as_xyz
 1  'x, y, z'
loop_
 _atom_site_type_symbol
 _atom_site_label
 _atom_site_symmetry_multiplicity
 _atom_site_fract_x
 _atom_site_fract_y
 _atom_site_fract_z
 _atom_site_fract_occupancy
 C  C1  1  0.58633  0.73968  0.78762  1
 C  C2  1  0.28119  0.99423  0.39825  1
 C  C3  1  0.79748  0.37584  0.54842  1
 C  C4  1  0.53184  0.23424  0.08102  1
 C  C5  1  0.78567  0.61229  0.70461  1
 C  C6  1  0.60976  0.49692  0.63599  1
 C  C7  1  0.72659  0.11950  0.99079  1
 C  C8  1  0.55326  0.00178  0.92285  1
 C  C9  1  0.75181  0.87622  0.83843  1
 C  C10  1  0.05841  0.61172  0.23338  1
 H  H1  1  0.89022  0.70958  0.61565  1
 H  H2  1  0.83159  0.97634  0.74085  1
 H  H3  1  0.45450  0.90201  0.01292  1
 H  H4  1  0.95570  0.78414  0.90861  1
 H  H5  1  0.92068  0.01982  0.06357  1
 H  H6  1  0.50277  0.39596  0.72033  1
 H  H7  1  0.41908  0.59823  0.56093  1
 H  H8  1  0.10752  0.96394  0.47604  1
 H  H9  1  0.97358  0.50855  0.78059  1
 H  H10  1  0.50746  0.91557  0.44890  1
 H  H11  1  0.38334  0.83187  0.71666  1
 H  H12  1  0.22012  0.68269  0.16371  1
 H  H13  1  0.86534  0.61158  0.16404  1
 H  H14  1  -0.01205  0.68509  0.31826  1
 H  H15  1  0.23587  0.95807  0.29673  1
 H  H16  1  0.50451  0.64039  0.88486  1
 H  H17  1  0.82392  0.22519  0.90534  1
 H  H18  1  0.36092  0.10411  0.84906  1
 O  O1  1  0.66067  0.25087  0.19927  1
 O  O2  1  0.67443  0.30785  0.45660  1
 O  O3  1  0.25314  0.30105  0.05052  1
 O  O4  1  0.08285  0.34526  0.56014  1
 Sn  Sn1  1  0.27540  0.30522  0.33440  1
