CIF file written using JARVIS-Tools package.
data_Nd5CuSe8
_symmetry_space_group_name_H-M  'I-4'
_cell_length_a       7.68893
_cell_length_b       7.68893
_cell_length_c       7.68892
_cell_angle_alpha    110.289
_cell_angle_beta     110.289
_cell_angle_gamma    107.848

_symmetry_Int_Tables_number  82
_chemical_formula_structural  Nd5CuSe8
_chemical_formula_sum  Nd5CuSe8
_cell_volume  349.7139864167563
_cell_formula_units_Z  1
loop_
  _symmetry_equiv_pos_site_id
 _symmetry_equiv_pos_as_xyz
 1  'x, y, z'
loop_
 _atom_site_type_symbol
 _atom_site_label
 _atom_site_symmetry_multiplicity
 _atom_site_fract_x
 _atom_site_fract_y
 _atom_site_fract_z
 _atom_site_fract_occupancy
 Cu  Cu1  1  0.87499  0.12500  0.75000  1
 Nd  Nd1  1  0.11430  0.74351  0.87302  1
 Nd  Nd2  1  0.25649  0.62951  0.37079  1
 Nd  Nd3  1  0.37049  0.24128  0.62698  1
 Nd  Nd4  1  0.62500  0.37500  0.25000  1
 Nd  Nd5  1  0.75871  0.88570  0.12921  1
 Se  Se1  1  0.98314  0.86117  0.50792  1
 Se  Se2  1  0.00985  0.36324  0.49010  1
 Se  Se3  1  0.48025  0.99015  0.85339  1
 Se  Se4  1  0.13883  0.14674  0.12197  1
 Se  Se5  1  0.37314  0.51974  0.00990  1
 Se  Se6  1  0.63676  0.62686  0.64661  1
 Se  Se7  1  0.52478  0.01686  0.37804  1
 Se  Se8  1  0.85326  0.47522  0.99208  1
