CIF file written using JARVIS-Tools package.
data_LiClO2
_symmetry_space_group_name_H-M  'P4_2/ncm'
_cell_length_a       4.70296
_cell_length_b       4.70296
_cell_length_c       10.1029
_cell_angle_alpha    90
_cell_angle_beta     90
_cell_angle_gamma    90

_symmetry_Int_Tables_number  138
_chemical_formula_structural  LiClO2
_chemical_formula_sum  Li4Cl4O8
_cell_volume  223.45508421997562
_cell_formula_units_Z  4
loop_
  _symmetry_equiv_pos_site_id
 _symmetry_equiv_pos_as_xyz
 1  'x, y, z'
loop_
 _atom_site_type_symbol
 _atom_site_label
 _atom_site_symmetry_multiplicity
 _atom_site_fract_x
 _atom_site_fract_y
 _atom_site_fract_z
 _atom_site_fract_occupancy
 Cl  Cl1  1  0.50000  0.00000  0.81328  1
 Cl  Cl2  1  0.50000  0.00000  0.31328  1
 Cl  Cl3  1  0.00000  0.50000  0.18672  1
 Cl  Cl4  1  0.00000  0.50000  0.68672  1
 Li  Li1  1  0.00000  0.00000  0.00000  1
 Li  Li2  1  0.50000  0.50000  0.50000  1
 Li  Li3  1  0.50000  0.50000  0.00000  1
 Li  Li4  1  0.00000  0.00000  0.50000  1
 O  O1  1  0.30438  0.80438  0.90480  1
 O  O2  1  0.69562  0.80438  0.40480  1
 O  O3  1  0.30438  0.19562  0.40480  1
 O  O4  1  0.80438  0.69562  0.09520  1
 O  O5  1  0.19562  0.30438  0.09520  1
 O  O6  1  0.69562  0.19562  0.90480  1
 O  O7  1  0.80438  0.30438  0.59520  1
 O  O8  1  0.19562  0.69562  0.59520  1
