CIF file written using JARVIS-Tools package.
data_LaGaSi
_symmetry_space_group_name_H-M  'I4_1md'
_cell_length_a       7.83525
_cell_length_b       7.83525
_cell_length_c       7.83524
_cell_angle_alpha    147.877
_cell_angle_beta     147.877
_cell_angle_gamma    46.0662

_symmetry_Int_Tables_number  109
_chemical_formula_structural  LaGaSi
_chemical_formula_sum  La2Ga2Si2
_cell_volume  135.53294918336655
_cell_formula_units_Z  2
loop_
  _symmetry_equiv_pos_site_id
 _symmetry_equiv_pos_as_xyz
 1  'x, y, z'
loop_
 _atom_site_type_symbol
 _atom_site_label
 _atom_site_symmetry_multiplicity
 _atom_site_fract_x
 _atom_site_fract_y
 _atom_site_fract_z
 _atom_site_fract_occupancy
 Ga  Ga1  1  0.04157  0.54157  0.50000  1
 Ga  Ga2  1  0.29157  0.29157  -0.00000  1
 La  La1  1  0.62458  0.12458  0.50000  1
 La  La2  1  0.87458  0.87458  -0.00000  1
 Si  Si1  1  0.45885  0.45885  -0.00000  1
 Si  Si2  1  0.20885  0.70885  0.50000  1
