CIF file written using JARVIS-Tools package.
data_YCo
_symmetry_space_group_name_H-M  'Cmcm'
_cell_length_a       3.85966
_cell_length_b       4.01688
_cell_length_c       5.48163
_cell_angle_alpha    111.493
_cell_angle_beta     90
_cell_angle_gamma    90

_symmetry_Int_Tables_number  63
_chemical_formula_structural  YCo
_chemical_formula_sum  Y2Co2
_cell_volume  79.07602148507655
_cell_formula_units_Z  2
loop_
  _symmetry_equiv_pos_site_id
 _symmetry_equiv_pos_as_xyz
 1  'x, y, z'
loop_
 _atom_site_type_symbol
 _atom_site_label
 _atom_site_symmetry_multiplicity
 _atom_site_fract_x
 _atom_site_fract_y
 _atom_site_fract_z
 _atom_site_fract_occupancy
 Co  Co1  1  0.25000  0.55903  0.11807  1
 Co  Co2  1  0.75000  0.44097  0.88193  1
 Y  Y1  1  0.25000  0.85537  0.71074  1
 Y  Y2  1  0.75000  0.14463  0.28926  1
