CIF file written using JARVIS-Tools package.
data_DySbTe3
_symmetry_space_group_name_H-M  'R3m'
_cell_length_a       10.6664
_cell_length_b       10.6664
_cell_length_c       10.6664
_cell_angle_alpha    23.4854
_cell_angle_beta     23.4854
_cell_angle_gamma    23.4854

_symmetry_Int_Tables_number  160
_chemical_formula_structural  DySbTe3
_chemical_formula_sum  DySbTe3
_cell_volume  169.24049487116986
_cell_formula_units_Z  1
loop_
  _symmetry_equiv_pos_site_id
 _symmetry_equiv_pos_as_xyz
 1  'x, y, z'
loop_
 _atom_site_type_symbol
 _atom_site_label
 _atom_site_symmetry_multiplicity
 _atom_site_fract_x
 _atom_site_fract_y
 _atom_site_fract_z
 _atom_site_fract_occupancy
 Dy  Dy1  1  0.39827  0.39827  0.39827  1
 Sb  Sb1  1  0.60023  0.60023  0.60023  1
 Te  Te1  1  0.00295  0.00295  0.00295  1
 Te  Te2  1  0.21351  0.21351  0.21351  1
 Te  Te3  1  0.78505  0.78505  0.78505  1
