CIF file written using JARVIS-Tools package.
data_In4SnS8
_symmetry_space_group_name_H-M  'R3m'
_cell_length_a       7.63238
_cell_length_b       7.63529
_cell_length_c       7.6353
_cell_angle_alpha    60
_cell_angle_beta     59.9873
_cell_angle_gamma    59.9873

_symmetry_Int_Tables_number  160
_chemical_formula_structural  In4SnS8
_chemical_formula_sum  In4SnS8
_cell_volume  314.56727572921045
_cell_formula_units_Z  1
loop_
  _symmetry_equiv_pos_site_id
 _symmetry_equiv_pos_as_xyz
 1  'x, y, z'
loop_
 _atom_site_type_symbol
 _atom_site_label
 _atom_site_symmetry_multiplicity
 _atom_site_fract_x
 _atom_site_fract_y
 _atom_site_fract_z
 _atom_site_fract_occupancy
 In  In1  1  0.49158  0.48989  0.02865  1
 In  In2  1  0.49158  0.48989  0.48989  1
 In  In3  1  0.49158  0.02865  0.48989  1
 In  In4  1  0.88887  0.87038  0.87038  1
 S  S1  1  0.24057  0.25650  0.25650  1
 S  S2  1  0.24057  0.25650  0.74642  1
 S  S3  1  0.24057  0.74642  0.25650  1
 S  S4  1  0.74267  0.25244  0.25244  1
 S  S5  1  0.28883  0.73706  0.73706  1
 S  S6  1  0.74347  0.27664  0.73994  1
 S  S7  1  0.74347  0.73994  0.27664  1
 S  S8  1  0.74347  0.73994  0.73994  1
 Sn  Sn1  1  0.02777  0.49074  0.49074  1
