CIF file written using JARVIS-Tools package.
data_Mn3O5F
_symmetry_space_group_name_H-M  'P-1'
_cell_length_a       4.45717
_cell_length_b       5.36355
_cell_length_c       7.41186
_cell_angle_alpha    84.9187
_cell_angle_beta     88.484
_cell_angle_gamma    88.6878

_symmetry_Int_Tables_number  2
_chemical_formula_structural  Mn3O5F
_chemical_formula_sum  Mn6O0F2
_cell_volume  176.39452780144458
_cell_formula_units_Z  2
loop_
  _symmetry_equiv_pos_site_id
 _symmetry_equiv_pos_as_xyz
 1  'x, y, z'
loop_
 _atom_site_type_symbol
 _atom_site_label
 _atom_site_symmetry_multiplicity
 _atom_site_fract_x
 _atom_site_fract_y
 _atom_site_fract_z
 _atom_site_fract_occupancy
 F  F1  1  0.22195  0.45533  0.74475  1
 F  F2  1  0.77805  0.54467  0.25525  1
 Mn  Mn1  1  0.01525  0.84525  0.16923  1
 Mn  Mn2  1  0.00000  0.50000  0.50000  1
 Mn  Mn3  1  0.48125  0.32204  0.16062  1
 Mn  Mn4  1  0.50000  -0.00000  0.50000  1
 Mn  Mn5  1  0.51875  0.67796  0.83938  1
 Mn  Mn6  1  0.98475  0.15475  0.83077  1
 O  O1  1  0.20224  0.12273  0.05916  1
 O  O2  1  0.20181  0.79337  0.39500  1
 O  O3  1  0.29810  0.29262  0.39459  1
 O  O4  1  0.29600  0.95715  0.73061  1
 O  O5  1  0.70400  0.04285  0.26939  1
 O  O6  1  0.70863  0.37656  0.93910  1
 O  O7  1  0.79776  0.87727  0.94084  1
 O  O8  1  0.79819  0.20663  0.60500  1
 O  O9  1  0.70190  0.70738  0.60541  1
 O  O10  1  0.29137  0.62344  0.06090  1
