CIF file written using JARVIS-Tools package.
data_H4C
_symmetry_space_group_name_H-M  'I-43m'
_cell_length_a       3.9257
_cell_length_b       3.9257
_cell_length_c       3.92571
_cell_angle_alpha    109.471
_cell_angle_beta     109.471
_cell_angle_gamma    109.471

_symmetry_Int_Tables_number  217
_chemical_formula_structural  H4C
_chemical_formula_sum  H4C
_cell_volume  46.572641509100194
_cell_formula_units_Z  1
loop_
  _symmetry_equiv_pos_site_id
 _symmetry_equiv_pos_as_xyz
 1  'x, y, z'
loop_
 _atom_site_type_symbol
 _atom_site_label
 _atom_site_symmetry_multiplicity
 _atom_site_fract_x
 _atom_site_fract_y
 _atom_site_fract_z
 _atom_site_fract_occupancy
 C  C1  1  0.00000  0.00000  0.00000  1
 H  H1  1  0.27963  0.27963  0.27963  1
 H  H2  1  0.00000  -0.00000  0.72037  1
 H  H3  1  0.00000  0.72037  -0.00000  1
 H  H4  1  0.72037  -0.00000  -0.00000  1
