CIF file written using JARVIS-Tools package.
data_H2C2SO2
_symmetry_space_group_name_H-M  'P1'
_cell_length_a       3.94908
_cell_length_b       4.55632
_cell_length_c       8.62646
_cell_angle_alpha    82.1944
_cell_angle_beta     89.9431
_cell_angle_gamma    89.6582

_symmetry_Int_Tables_number  1
_chemical_formula_structural  H2C2SO2
_chemical_formula_sum  H4C4S2O4
_cell_volume  153.77746531521058
_cell_formula_units_Z  2
loop_
  _symmetry_equiv_pos_site_id
 _symmetry_equiv_pos_as_xyz
 1  'x, y, z'
loop_
 _atom_site_type_symbol
 _atom_site_label
 _atom_site_symmetry_multiplicity
 _atom_site_fract_x
 _atom_site_fract_y
 _atom_site_fract_z
 _atom_site_fract_occupancy
 C  C1  1  0.07142  0.67688  0.05784  1
 C  C2  1  0.57128  0.32636  0.44654  1
 C  C3  1  0.08093  0.17872  0.05116  1
 C  C4  1  0.58078  0.82446  0.45323  1
 H  H1  1  0.97630  0.20954  0.93266  1
 H  H2  1  0.35723  0.17759  0.05015  1
 H  H3  1  0.85709  0.82241  0.45424  1
 H  H4  1  0.47606  0.79498  0.57173  1
 O  O1  1  0.46168  0.58927  0.37112  1
 O  O2  1  0.96233  0.90113  0.13359  1
 O  O3  1  0.96206  0.41510  0.13335  1
 O  O4  1  0.46253  0.10326  0.37072  1
 S  S1  1  0.30216  0.71732  0.89670  1
 S  S2  1  0.80192  0.28349  0.60768  1
