CIF file written using JARVIS-Tools package.
data_H4C7S3
_symmetry_space_group_name_H-M  'C2'
_cell_length_a       4.96202
_cell_length_b       4.96978
_cell_length_c       7.61418
_cell_angle_alpha    74.8989
_cell_angle_beta     74.8686
_cell_angle_gamma    79.3574

_symmetry_Int_Tables_number  5
_chemical_formula_structural  H4C7S3
_chemical_formula_sum  H4C7S3
_cell_volume  173.62087392433014
_cell_formula_units_Z  1
loop_
  _symmetry_equiv_pos_site_id
 _symmetry_equiv_pos_as_xyz
 1  'x, y, z'
loop_
 _atom_site_type_symbol
 _atom_site_label
 _atom_site_symmetry_multiplicity
 _atom_site_fract_x
 _atom_site_fract_y
 _atom_site_fract_z
 _atom_site_fract_occupancy
 C  C1  1  0.65019  0.81698  0.34099  1
 C  C2  1  0.66776  0.83445  0.51376  1
 C  C3  1  0.46868  0.04851  0.58880  1
 C  C4  1  0.43604  0.01603  0.26602  1
 C  C5  1  0.53472  0.94995  0.92740  1
 C  C6  1  0.42731  0.11934  0.75645  1
 C  C7  1  0.36519  0.05751  0.09836  1
 H  H1  1  0.75913  0.96751  0.91192  1
 H  H2  1  0.78238  0.66415  0.26565  1
 H  H3  1  0.82073  0.70232  0.58902  1
 H  H4  1  0.51671  0.72601  0.94288  1
 S  S1  1  0.25759  0.22705  0.42742  1
 S  S2  1  0.21760  0.43661  0.78487  1
 S  S3  1  0.04782  0.26760  0.06992  1
