CIF file written using JARVIS-Tools package.
data_Ho2MgCu2
_symmetry_space_group_name_H-M  'P4/mbm'
_cell_length_a       7.54837
_cell_length_b       7.54837
_cell_length_c       3.65136
_cell_angle_alpha    90
_cell_angle_beta     90
_cell_angle_gamma    90

_symmetry_Int_Tables_number  127
_chemical_formula_structural  Ho2MgCu2
_chemical_formula_sum  Ho4Mg2Cu4
_cell_volume  208.04677161167763
_cell_formula_units_Z  2
loop_
  _symmetry_equiv_pos_site_id
 _symmetry_equiv_pos_as_xyz
 1  'x, y, z'
loop_
 _atom_site_type_symbol
 _atom_site_label
 _atom_site_symmetry_multiplicity
 _atom_site_fract_x
 _atom_site_fract_y
 _atom_site_fract_z
 _atom_site_fract_occupancy
 Cu  Cu1  1  0.12493  0.62493  0.00000  1
 Cu  Cu2  1  0.87507  0.37507  0.00000  1
 Cu  Cu3  1  0.62493  0.87507  0.00000  1
 Cu  Cu4  1  0.37507  0.12493  0.00000  1
 Ho  Ho1  1  0.66885  0.16885  0.50000  1
 Ho  Ho2  1  0.33115  0.83115  0.50000  1
 Ho  Ho3  1  0.16885  0.33115  0.50000  1
 Ho  Ho4  1  0.83115  0.66885  0.50000  1
 Mg  Mg1  1  0.00000  0.00000  0.00000  1
 Mg  Mg2  1  0.50000  0.50000  0.00000  1
