CIF file written using JARVIS-Tools package.
data_MgH6C5O4
_symmetry_space_group_name_H-M  'P1'
_cell_length_a       5.24506
_cell_length_b       6.22241
_cell_length_c       8.40139
_cell_angle_alpha    89.3922
_cell_angle_beta     94.2056
_cell_angle_gamma    98.1304

_symmetry_Int_Tables_number  1
_chemical_formula_structural  MgH6C5O4
_chemical_formula_sum  Mg2H2C0O8
_cell_volume  270.70883977510925
_cell_formula_units_Z  2
loop_
  _symmetry_equiv_pos_site_id
 _symmetry_equiv_pos_as_xyz
 1  'x, y, z'
loop_
 _atom_site_type_symbol
 _atom_site_label
 _atom_site_symmetry_multiplicity
 _atom_site_fract_x
 _atom_site_fract_y
 _atom_site_fract_z
 _atom_site_fract_occupancy
 C  C1  1  0.33808  0.76696  0.10895  1
 C  C2  1  0.10308  0.64747  0.53534  1
 C  C3  1  0.24410  0.66572  0.38340  1
 C  C4  1  0.15948  0.79970  0.23994  1
 C  C5  1  0.80953  0.27795  0.11009  1
 C  C6  1  0.67545  0.16592  0.55716  1
 C  C7  1  0.66837  0.29831  0.26181  1
 C  C8  1  0.31706  0.87533  0.94794  1
 C  C9  1  0.69514  0.39256  0.96788  1
 C  C10  1  0.78487  0.16785  0.39562  1
 H  H1  1  0.31708  0.59328  0.07868  1
 H  H2  1  0.44745  0.72276  0.42212  1
 H  H3  1  0.54114  0.80819  0.15497  1
 H  H4  1  0.01584  0.34004  0.12984  1
 H  H5  1  0.24694  0.49707  0.34592  1
 H  H6  1  0.99465  0.21601  0.41323  1
 H  H7  1  0.68509  0.46950  0.29740  1
 H  H8  1  0.17574  -0.02856  0.27281  1
 H  H9  1  0.46174  0.23975  0.23760  1
 H  H10  1  0.95730  0.74579  0.19796  1
 H  H11  1  0.76284  0.99511  0.36218  1
 H  H12  1  0.79741  0.10591  0.07737  1
 Mg  Mg1  1  0.21572  0.25028  0.74469  1
 Mg  Mg2  1  0.80894  0.80260  0.77082  1
 O  O1  1  0.83432  0.13664  0.67834  1
 O  O2  1  0.43877  0.17583  0.56862  1
 O  O3  1  0.89772  0.73344  0.54769  1
 O  O4  1  0.84497  0.53074  0.89377  1
 O  O5  1  0.50153  0.87357  0.86147  1
 O  O6  1  0.45432  0.34411  0.93192  1
 O  O7  1  0.11715  0.96385  0.89772  1
 O  O8  1  0.20400  0.54327  0.64828  1
