CIF file written using JARVIS-Tools package.
data_H8C15S3
_symmetry_space_group_name_H-M  'P1'
_cell_length_a       3.91281
_cell_length_b       6.62537
_cell_length_c       11.8885
_cell_angle_alpha    77.3206
_cell_angle_beta     85.2682
_cell_angle_gamma    74.1205

_symmetry_Int_Tables_number  1
_chemical_formula_structural  H8C15S3
_chemical_formula_sum  H8C5S3
_cell_volume  289.123079075575
_cell_formula_units_Z  1
loop_
  _symmetry_equiv_pos_site_id
 _symmetry_equiv_pos_as_xyz
 1  'x, y, z'
loop_
 _atom_site_type_symbol
 _atom_site_label
 _atom_site_symmetry_multiplicity
 _atom_site_fract_x
 _atom_site_fract_y
 _atom_site_fract_z
 _atom_site_fract_occupancy
 C  C1  1  0.12010  0.47352  0.04612  1
 C  C2  1  0.69249  0.38526  0.65143  1
 C  C3  1  0.13328  0.18404  0.93474  1
 C  C4  1  0.01610  0.15962  0.83123  1
 C  C5  1  0.64179  0.22660  0.59907  1
 C  C6  1  0.48384  0.30935  0.49160  1
 C  C7  1  0.84494  0.35324  0.76130  1
 C  C8  1  0.41694  0.53265  0.45735  1
 C  C9  1  0.97021  0.73735  0.16799  1
 C  C10  1  0.92653  0.67546  0.06747  1
 C  C11  1  0.26412  0.67995  0.35538  1
 C  C12  1  0.21505  0.60405  0.25163  1
 C  C13  1  0.05499  0.39581  0.94717  1
 C  C14  1  0.42039  0.40729  0.22718  1
 C  C15  1  0.37091  0.34291  0.12779  1
 H  H1  1  0.72591  0.77913  0.00674  1
 H  H2  1  0.80793  0.88883  0.18635  1
 H  H3  1  0.53829  0.19138  0.11126  1
 H  H4  1  0.63389  0.30616  0.28309  1
 H  H5  1  0.41043  0.20844  0.44226  1
 H  H6  1  0.25961  0.05041  0.00195  1
 H  H7  1  0.71282  0.05654  0.63854  1
 H  H8  1  0.05443  0.00554  0.80698  1
 S  S1  1  0.54058  0.63875  0.56549  1
 S  S2  1  0.83286  0.56577  0.82706  1
 S  S3  1  0.15187  0.94380  0.35397  1
