CIF file written using JARVIS-Tools package.
data_GaCl3
_symmetry_space_group_name_H-M  'C2/m'
_cell_length_a       6.82215
_cell_length_b       6.84201
_cell_length_c       6.88524
_cell_angle_alpha    60.6396
_cell_angle_beta     60.3027
_cell_angle_gamma    60.096

_symmetry_Int_Tables_number  12
_chemical_formula_structural  GaCl3
_chemical_formula_sum  Ga2Cl6
_cell_volume  229.0210913461336
_cell_formula_units_Z  2
loop_
  _symmetry_equiv_pos_site_id
 _symmetry_equiv_pos_as_xyz
 1  'x, y, z'
loop_
 _atom_site_type_symbol
 _atom_site_label
 _atom_site_symmetry_multiplicity
 _atom_site_fract_x
 _atom_site_fract_y
 _atom_site_fract_z
 _atom_site_fract_occupancy
 Cl  Cl1  1  0.74111  -0.00000  -0.00000  1
 Cl  Cl2  1  0.25889  0.00000  0.00000  1
 Cl  Cl3  1  0.68935  0.19308  0.42822  1
 Cl  Cl4  1  0.31065  0.80692  0.57178  1
 Cl  Cl5  1  0.82823  0.54798  0.79555  1
 Cl  Cl6  1  0.17177  0.45202  0.20445  1
 Ga  Ga1  1  0.33935  0.08478  0.23652  1
 Ga  Ga2  1  0.66065  0.91522  0.76348  1
