CIF file written using JARVIS-Tools package.
data_Ho2TeO6
_symmetry_space_group_name_H-M  'P4_2/mnm'
_cell_length_a       4.96084
_cell_length_b       10.0521
_cell_length_c       4.96169
_cell_angle_alpha    90
_cell_angle_beta     90.0003
_cell_angle_gamma    90

_symmetry_Int_Tables_number  136
_chemical_formula_structural  Ho2TeO6
_chemical_formula_sum  Ho4Te2O2
_cell_volume  247.42482876226597
_cell_formula_units_Z  2
loop_
  _symmetry_equiv_pos_site_id
 _symmetry_equiv_pos_as_xyz
 1  'x, y, z'
loop_
 _atom_site_type_symbol
 _atom_site_label
 _atom_site_symmetry_multiplicity
 _atom_site_fract_x
 _atom_site_fract_y
 _atom_site_fract_z
 _atom_site_fract_occupancy
 Ho  Ho1  1  0.99999  0.33451  0.00002  1
 Ho  Ho2  1  0.99999  0.66549  0.00002  1
 Ho  Ho3  1  0.49997  0.16550  0.50002  1
 Ho  Ho4  1  0.49997  0.83450  0.50002  1
 O  O1  1  0.81619  0.14665  0.18381  1
 O  O2  1  0.81619  0.85335  0.18381  1
 O  O3  1  0.18375  0.14664  0.81624  1
 O  O4  1  0.27909  0.00000  0.27916  1
 O  O5  1  0.77919  0.50000  0.22096  1
 O  O6  1  0.31626  0.64664  0.31618  1
 O  O7  1  0.68372  0.64665  0.68385  1
 O  O8  1  0.31626  0.35336  0.31618  1
 O  O9  1  0.72082  0.00000  0.72092  1
 O  O10  1  0.22079  0.50000  0.77907  1
 O  O11  1  0.68372  0.35335  0.68385  1
 O  O12  1  0.18375  0.85336  0.81624  1
 Te  Te1  1  0.49999  0.50000  0.50002  1
 Te  Te2  1  0.99996  0.00000  0.00003  1
