CIF file written using JARVIS-Tools package.
data_TiMo2S4
_symmetry_space_group_name_H-M  'Cm'
_cell_length_a       6.70566
_cell_length_b       6.70566
_cell_length_c       6.01561
_cell_angle_alpha    66.0373
_cell_angle_beta     66.0373
_cell_angle_gamma    27.9095

_symmetry_Int_Tables_number  8
_chemical_formula_structural  TiMo2S4
_chemical_formula_sum  TiMo2S4
_cell_volume  114.99272901714778
_cell_formula_units_Z  1
loop_
  _symmetry_equiv_pos_site_id
 _symmetry_equiv_pos_as_xyz
 1  'x, y, z'
loop_
 _atom_site_type_symbol
 _atom_site_label
 _atom_site_symmetry_multiplicity
 _atom_site_fract_x
 _atom_site_fract_y
 _atom_site_fract_z
 _atom_site_fract_occupancy
 Mo  Mo1  1  0.25820  0.25820  0.68462  1
 Mo  Mo2  1  0.00161  0.00161  0.99367  1
 S  S1  1  0.89517  0.89517  0.44255  1
 S  S2  1  0.10475  0.10475  0.55701  1
 S  S3  1  0.63772  0.63772  0.02882  1
 S  S4  1  0.36052  0.36052  0.97477  1
 Ti  Ti1  1  0.74203  0.74203  0.31855  1
