CIF file written using JARVIS-Tools package.
data_Te2W3Se4
_symmetry_space_group_name_H-M  'P-6m2'
_cell_length_a       3.40395
_cell_length_b       3.40396
_cell_length_c       29.6455
_cell_angle_alpha    90
_cell_angle_beta     90
_cell_angle_gamma    120

_symmetry_Int_Tables_number  187
_chemical_formula_structural  Te2W3Se4
_chemical_formula_sum  Te2W3Se4
_cell_volume  297.4791877155825
_cell_formula_units_Z  1
loop_
  _symmetry_equiv_pos_site_id
 _symmetry_equiv_pos_as_xyz
 1  'x, y, z'
loop_
 _atom_site_type_symbol
 _atom_site_label
 _atom_site_symmetry_multiplicity
 _atom_site_fract_x
 _atom_site_fract_y
 _atom_site_fract_z
 _atom_site_fract_occupancy
 Se  Se1  1  0.66671  0.33342  0.05763  1
 Se  Se2  1  0.66671  0.33342  0.52469  1
 Se  Se3  1  0.66671  0.33342  0.16927  1
 Se  Se4  1  0.66671  0.33342  0.63633  1
 Te  Te1  1  0.33323  0.66645  0.41058  1
 Te  Te2  1  0.33323  0.66645  0.28339  1
 W  W1  1  0.33337  0.66674  0.11340  1
 W  W2  1  0.33337  0.66674  0.58056  1
 W  W3  1  0.66656  0.33313  0.34698  1
