CIF file written using JARVIS-Tools package.
data_Te4MoW3Se2S2
_symmetry_space_group_name_H-M  'P3m1'
_cell_length_a       3.41114
_cell_length_b       3.4111
_cell_length_c       38.4367
_cell_angle_alpha    90.0013
_cell_angle_beta     90
_cell_angle_gamma    120

_symmetry_Int_Tables_number  156
_chemical_formula_structural  Te4MoW3Se2S2
_chemical_formula_sum  Te4MoW3Se2S2
_cell_volume  387.318720921984
_cell_formula_units_Z  1
loop_
  _symmetry_equiv_pos_site_id
 _symmetry_equiv_pos_as_xyz
 1  'x, y, z'
loop_
 _atom_site_type_symbol
 _atom_site_label
 _atom_site_symmetry_multiplicity
 _atom_site_fract_x
 _atom_site_fract_y
 _atom_site_fract_z
 _atom_site_fract_occupancy
 Mo  Mo1  1  0.33331  0.66662  0.09388  1
 S  S1  1  0.66663  0.33326  0.43046  1
 S  S2  1  0.66664  0.33327  0.50886  1
 Se  Se1  1  0.33336  0.66673  0.32485  1
 Se  Se2  1  0.33335  0.66671  0.23886  1
 Te  Te1  1  0.33337  0.66673  0.70629  1
 Te  Te2  1  0.66664  0.33327  0.04541  1
 Te  Te3  1  0.66665  0.33329  0.14266  1
 Te  Te4  1  0.33335  0.66671  0.60847  1
 W  W1  1  0.33333  0.66665  0.46965  1
 W  W2  1  0.66669  0.33337  0.28181  1
 W  W3  1  0.66669  0.33339  0.65754  1
