CIF file written using JARVIS-Tools package.
data_MnVCo4Si2
_symmetry_space_group_name_H-M  'R-3m'
_cell_length_a       6.91127
_cell_length_b       6.91127
_cell_length_c       6.91127
_cell_angle_alpha    33.6028
_cell_angle_beta     33.6028
_cell_angle_gamma    33.6029

_symmetry_Int_Tables_number  166
_chemical_formula_structural  MnVCo4Si2
_chemical_formula_sum  MnVCo4Si2
_cell_volume  90.06981919379879
_cell_formula_units_Z  1
loop_
  _symmetry_equiv_pos_site_id
 _symmetry_equiv_pos_as_xyz
 1  'x, y, z'
loop_
 _atom_site_type_symbol
 _atom_site_label
 _atom_site_symmetry_multiplicity
 _atom_site_fract_x
 _atom_site_fract_y
 _atom_site_fract_z
 _atom_site_fract_occupancy
 Co  Co1  1  0.62438  0.62438  0.62438  1
 Co  Co2  1  0.12541  0.12541  0.12541  1
 Co  Co3  1  0.87459  0.87459  0.87459  1
 Co  Co4  1  0.37562  0.37562  0.37562  1
 Mn  Mn1  1  0.00000  0.00000  0.00000  1
 Si  Si1  1  0.25053  0.25053  0.25053  1
 Si  Si2  1  0.74947  0.74947  0.74947  1
 V  V1  1  0.50000  0.50000  0.50000  1
