CIF file written using JARVIS-Tools package.
data_ZnH14C9O4
_symmetry_space_group_name_H-M  'P1'
_cell_length_a       3.95472
_cell_length_b       4.71876
_cell_length_c       13.3463
_cell_angle_alpha    87.7931
_cell_angle_beta     100.758
_cell_angle_gamma    111.681

_symmetry_Int_Tables_number  1
_chemical_formula_structural  ZnH14C9O4
_chemical_formula_sum  ZnH4C9O4
_cell_volume  227.246003782283
_cell_formula_units_Z  1
loop_
  _symmetry_equiv_pos_site_id
 _symmetry_equiv_pos_as_xyz
 1  'x, y, z'
loop_
 _atom_site_type_symbol
 _atom_site_label
 _atom_site_symmetry_multiplicity
 _atom_site_fract_x
 _atom_site_fract_y
 _atom_site_fract_z
 _atom_site_fract_occupancy
 C  C1  1  0.75926  0.46055  0.66775  1
 C  C2  1  0.75677  0.17269  0.39693  1
 C  C3  1  0.72046  0.24485  0.58006  1
 C  C4  1  0.81132  0.40458  0.48101  1
 C  C5  1  0.66194  0.29229  0.76496  1
 C  C6  1  0.70413  0.50455  0.85404  1
 C  C7  1  0.57528  0.32919  0.94751  1
 C  C8  1  0.61877  0.53418  0.03701  1
 C  C9  1  0.86003  0.29795  0.29621  1
 H  H1  1  0.63208  0.53503  0.45578  1
 H  H2  1  -0.07227  0.03448  0.42251  1
 H  H3  1  0.47056  0.00719  0.38198  1
 H  H4  1  0.28559  0.17148  0.92941  1
 H  H5  1  0.74370  0.19087  0.97555  1
 H  H6  1  0.09863  0.57014  0.49449  1
 H  H7  1  0.43487  0.07392  0.56504  1
 H  H8  1  0.57972  0.59216  0.64403  1
 H  H9  1  0.04557  0.62942  0.68423  1
 H  H10  1  0.54342  0.65079  0.82946  1
 H  H11  1  0.99517  0.65941  0.87563  1
 H  H12  1  0.90126  0.11447  0.60414  1
 H  H13  1  0.83740  0.15696  0.78782  1
 H  H14  1  0.37422  0.12590  0.74806  1
 O  O1  1  0.73217  0.12756  0.21570  1
 O  O2  1  0.36447  0.45192  0.09002  1
 O  O3  1  0.09276  0.57248  0.29610  1
 O  O4  1  0.90748  0.77953  0.05701  1
 Zn  Zn1  1  0.29510  0.75773  0.17234  1
