CIF file written using JARVIS-Tools package.
data_ZrAsRu
_symmetry_space_group_name_H-M  'P-62m'
_cell_length_a       6.64332
_cell_length_b       6.64332
_cell_length_c       3.9391
_cell_angle_alpha    90
_cell_angle_beta     90
_cell_angle_gamma    120

_symmetry_Int_Tables_number  189
_chemical_formula_structural  ZrAsRu
_chemical_formula_sum  Zr3As3Ru3
_cell_volume  150.5562046322589
_cell_formula_units_Z  3
loop_
  _symmetry_equiv_pos_site_id
 _symmetry_equiv_pos_as_xyz
 1  'x, y, z'
loop_
 _atom_site_type_symbol
 _atom_site_label
 _atom_site_symmetry_multiplicity
 _atom_site_fract_x
 _atom_site_fract_y
 _atom_site_fract_z
 _atom_site_fract_occupancy
 As  As1  1  0.00000  0.00000  0.50000  1
 As  As2  1  0.33333  0.66667  0.00000  1
 As  As3  1  0.66667  0.33333  0.00000  1
 Ru  Ru1  1  0.75592  0.75592  0.00000  1
 Ru  Ru2  1  0.24408  -0.00000  0.00000  1
 Ru  Ru3  1  -0.00000  0.24408  0.00000  1
 Zr  Zr1  1  -0.00000  0.58291  0.50000  1
 Zr  Zr2  1  0.58291  -0.00000  0.50000  1
 Zr  Zr3  1  0.41709  0.41709  0.50000  1
