CIF file written using JARVIS-Tools package.
data_LiMnF3
_symmetry_space_group_name_H-M  'R-3'
_cell_length_a       5.54529
_cell_length_b       5.54528
_cell_length_c       5.54529
_cell_angle_alpha    56.8642
_cell_angle_beta     56.8642
_cell_angle_gamma    56.8642

_symmetry_Int_Tables_number  148
_chemical_formula_structural  LiMnF3
_chemical_formula_sum  Li2Mn2F6
_cell_volume  111.85118337687078
_cell_formula_units_Z  2
loop_
  _symmetry_equiv_pos_site_id
 _symmetry_equiv_pos_as_xyz
 1  'x, y, z'
loop_
 _atom_site_type_symbol
 _atom_site_label
 _atom_site_symmetry_multiplicity
 _atom_site_fract_x
 _atom_site_fract_y
 _atom_site_fract_z
 _atom_site_fract_occupancy
 F  F1  1  0.95196  0.23691  0.55838  1
 F  F2  1  0.44162  0.04804  0.76309  1
 F  F3  1  0.76309  0.44162  0.04804  1
 F  F4  1  0.23691  0.55838  0.95196  1
 F  F5  1  0.55838  0.95196  0.23691  1
 F  F6  1  0.04804  0.76309  0.44162  1
 Li  Li1  1  0.14529  0.14529  0.14529  1
 Li  Li2  1  0.85471  0.85471  0.85471  1
 Mn  Mn1  1  0.64198  0.64198  0.64198  1
 Mn  Mn2  1  0.35802  0.35802  0.35802  1
