CIF file written using JARVIS-Tools package.
data_ZrNb2VC4
_symmetry_space_group_name_H-M  'R3m'
_cell_length_a       10.4683
_cell_length_b       10.4683
_cell_length_c       10.4683
_cell_angle_alpha    17.4467
_cell_angle_beta     17.4467
_cell_angle_gamma    17.4467

_symmetry_Int_Tables_number  160
_chemical_formula_structural  ZrNb2VC4
_chemical_formula_sum  ZrNb2VC4
_cell_volume  89.99539549235485
_cell_formula_units_Z  1
loop_
  _symmetry_equiv_pos_site_id
 _symmetry_equiv_pos_as_xyz
 1  'x, y, z'
loop_
 _atom_site_type_symbol
 _atom_site_label
 _atom_site_symmetry_multiplicity
 _atom_site_fract_x
 _atom_site_fract_y
 _atom_site_fract_z
 _atom_site_fract_occupancy
 C  C1  1  0.50114  0.50114  0.50114  1
 C  C2  1  0.25214  0.25214  0.25214  1
 C  C3  1  0.00324  0.00324  0.00324  1
 C  C4  1  0.74379  0.74379  0.74379  1
 Nb  Nb1  1  0.87654  0.87654  0.87654  1
 Nb  Nb2  1  0.62817  0.62817  0.62817  1
 V  V1  1  0.37313  0.37313  0.37313  1
 Zr  Zr1  1  0.12186  0.12186  0.12186  1
