data_image0
_chemical_formula_structural       Dy6FeSb2
_chemical_formula_sum              "Dy6 Fe1 Sb2"
_cell_length_a       8.20793
_cell_length_b       8.20793
_cell_length_c       4.11462
_cell_angle_alpha    90
_cell_angle_beta     90
_cell_angle_gamma    119.999

_space_group_name_H-M_alt    "P 1"
_space_group_IT_number       1

loop_
  _space_group_symop_operation_xyz
  'x, y, z'

loop_
  _atom_site_type_symbol
  _atom_site_label
  _atom_site_symmetry_multiplicity
  _atom_site_fract_x
  _atom_site_fract_y
  _atom_site_fract_z
  _atom_site_occupancy
  Dy  Dy1       1.0  0.23300  0.00001  0.00000  1.0000
  Dy  Dy2       1.0  0.00001  0.23300  0.00000  1.0000
  Dy  Dy3       1.0  0.76700  0.76700  0.00000  1.0000
  Dy  Dy4       1.0  0.60100  0.00002  0.50000  1.0000
  Dy  Dy5       1.0  0.39900  0.39900  0.50000  1.0000
  Dy  Dy6       1.0  0.00002  0.60100  0.50000  1.0000
  Fe  Fe1       1.0  0.00000  0.00000  0.50000  1.0000
  Sb  Sb1       1.0  0.66700  0.33300  0.00000  1.0000
  Sb  Sb2       1.0  0.33300  0.66700  0.00000  1.0000
