CIF file written using JARVIS-Tools package.
data_NaSbF6
_symmetry_space_group_name_H-M  'Fm-3m'
_cell_length_a       5.92373
_cell_length_b       5.92373
_cell_length_c       5.92373
_cell_angle_alpha    60.0001
_cell_angle_beta     60
_cell_angle_gamma    60.0001

_symmetry_Int_Tables_number  225
_chemical_formula_structural  NaSbF6
_chemical_formula_sum  NaSbF6
_cell_volume  146.98420782113462
_cell_formula_units_Z  1
loop_
  _symmetry_equiv_pos_site_id
 _symmetry_equiv_pos_as_xyz
 1  'x, y, z'
loop_
 _atom_site_type_symbol
 _atom_site_label
 _atom_site_symmetry_multiplicity
 _atom_site_fract_x
 _atom_site_fract_y
 _atom_site_fract_z
 _atom_site_fract_occupancy
 F  F1  1  0.22871  0.77129  0.77129  1
 F  F2  1  0.22871  0.77129  0.22871  1
 F  F3  1  0.77129  0.22871  0.22871  1
 F  F4  1  0.77129  0.77129  0.22871  1
 F  F5  1  0.22871  0.22871  0.77129  1
 F  F6  1  0.77129  0.22871  0.77129  1
 Na  Na1  1  0.50000  0.50000  0.50000  1
 Sb  Sb1  1  0.00000  0.00000  0.00000  1
