CIF file written using JARVIS-Tools package.
data_H4C6S2O
_symmetry_space_group_name_H-M  'P1'
_cell_length_a       4.62114
_cell_length_b       5.22717
_cell_length_c       6.79513
_cell_angle_alpha    105.56
_cell_angle_beta     101.434
_cell_angle_gamma    103.258

_symmetry_Int_Tables_number  1
_chemical_formula_structural  H4C6S2O
_chemical_formula_sum  H4C6S2O
_cell_volume  147.88642260594983
_cell_formula_units_Z  1
loop_
  _symmetry_equiv_pos_site_id
 _symmetry_equiv_pos_as_xyz
 1  'x, y, z'
loop_
 _atom_site_type_symbol
 _atom_site_label
 _atom_site_symmetry_multiplicity
 _atom_site_fract_x
 _atom_site_fract_y
 _atom_site_fract_z
 _atom_site_fract_occupancy
 C  C1  1  0.18243  0.00334  0.31195  1
 C  C2  1  0.15977  0.18467  0.49910  1
 C  C3  1  0.95247  0.05876  0.59502  1
 C  C4  1  0.99177  0.73461  0.26761  1
 C  C5  1  0.04264  0.45756  0.92924  1
 C  C6  1  0.87389  0.15967  0.78562  1
 H  H1  1  0.98586  0.60811  0.85279  1
 H  H2  1  0.33239  0.06157  0.21603  1
 H  H3  1  0.29346  0.40402  0.56658  1
 H  H4  1  0.29503  0.49306  0.97120  1
 O  O1  1  0.93948  0.49142  0.11845  1
 S  S1  1  0.77953  0.70561  0.44878  1
 S  S2  1  0.60590  0.95361  0.85410  1
