CIF file written using JARVIS-Tools package.
data_K2PAu
_symmetry_space_group_name_H-M  'Cmcm'
_cell_length_a       6.10447
_cell_length_b       6.10447
_cell_length_c       6.21561
_cell_angle_alpha    90
_cell_angle_beta     90
_cell_angle_gamma    105.671

_symmetry_Int_Tables_number  63
_chemical_formula_structural  K2PAu
_chemical_formula_sum  K4P2Au2
_cell_volume  223.01209981569355
_cell_formula_units_Z  2
loop_
  _symmetry_equiv_pos_site_id
 _symmetry_equiv_pos_as_xyz
 1  'x, y, z'
loop_
 _atom_site_type_symbol
 _atom_site_label
 _atom_site_symmetry_multiplicity
 _atom_site_fract_x
 _atom_site_fract_y
 _atom_site_fract_z
 _atom_site_fract_occupancy
 Au  Au1  1  0.50000  0.50000  0.50000  1
 Au  Au2  1  0.50000  0.50000  0.00000  1
 K  K1  1  0.97344  0.31977  0.75000  1
 K  K2  1  0.02656  0.68023  0.25000  1
 K  K3  1  0.68023  0.02656  0.25000  1
 K  K4  1  0.31977  0.97344  0.75000  1
 P  P1  1  0.24663  0.24663  0.25000  1
 P  P2  1  0.75337  0.75337  0.75000  1
