CIF file written using JARVIS-Tools package.
data_CoCu2GeSe4
_symmetry_space_group_name_H-M  'I-4'
_cell_length_a       6.82758
_cell_length_b       6.82758
_cell_length_c       6.82757
_cell_angle_alpha    131.772
_cell_angle_beta     131.772
_cell_angle_gamma    70.5893

_symmetry_Int_Tables_number  82
_chemical_formula_structural  CoCu2GeSe4
_chemical_formula_sum  CoCu2GeSe4
_cell_volume  173.43972850896756
_cell_formula_units_Z  1
loop_
  _symmetry_equiv_pos_site_id
 _symmetry_equiv_pos_as_xyz
 1  'x, y, z'
loop_
 _atom_site_type_symbol
 _atom_site_label
 _atom_site_symmetry_multiplicity
 _atom_site_fract_x
 _atom_site_fract_y
 _atom_site_fract_z
 _atom_site_fract_occupancy
 Co  Co1  1  0.50000  0.50000  0.00000  1
 Cu  Cu1  1  0.00000  0.00000  0.00000  1
 Cu  Cu2  1  0.25000  0.75000  0.50000  1
 Ge  Ge1  1  0.75000  0.25000  0.50000  1
 Se  Se1  1  0.62088  0.13024  0.99087  1
 Se  Se2  1  0.86976  0.86063  0.49064  1
 Se  Se3  1  0.13937  0.63001  0.00913  1
 Se  Se4  1  0.36999  0.37912  0.50936  1
