CIF file written using JARVIS-Tools package.
data_CuS2
_symmetry_space_group_name_H-M  'Pnnm'
_cell_length_a       3.61341
_cell_length_b       4.73571
_cell_length_c       5.85054
_cell_angle_alpha    90
_cell_angle_beta     90
_cell_angle_gamma    90

_symmetry_Int_Tables_number  58
_chemical_formula_structural  CuS2
_chemical_formula_sum  Cu2S4
_cell_volume  100.11464132321785
_cell_formula_units_Z  2
loop_
  _symmetry_equiv_pos_site_id
 _symmetry_equiv_pos_as_xyz
 1  'x, y, z'
loop_
 _atom_site_type_symbol
 _atom_site_label
 _atom_site_symmetry_multiplicity
 _atom_site_fract_x
 _atom_site_fract_y
 _atom_site_fract_z
 _atom_site_fract_occupancy
 Cu  Cu1  1  0.50000  0.50000  0.50000  1
 Cu  Cu2  1  0.00000  0.00000  0.00000  1
 S  S1  1  0.50000  0.32838  0.89513  1
 S  S2  1  0.00000  0.17162  0.39513  1
 S  S3  1  0.00000  0.82838  0.60487  1
 S  S4  1  0.50000  0.67162  0.10487  1
