CIF file written using JARVIS-Tools package.
data_CeSm3S4
_symmetry_space_group_name_H-M  'C2/m'
_cell_length_a       6.95172
_cell_length_b       6.95171
_cell_length_c       6.94342
_cell_angle_alpha    80.354
_cell_angle_beta     80.354
_cell_angle_gamma    33.5479

_symmetry_Int_Tables_number  12
_chemical_formula_structural  CeSm3S4
_chemical_formula_sum  CeSm3S4
_cell_volume  182.57497945744595
_cell_formula_units_Z  1
loop_
  _symmetry_equiv_pos_site_id
 _symmetry_equiv_pos_as_xyz
 1  'x, y, z'
loop_
 _atom_site_type_symbol
 _atom_site_label
 _atom_site_symmetry_multiplicity
 _atom_site_fract_x
 _atom_site_fract_y
 _atom_site_fract_z
 _atom_site_fract_occupancy
 Ce  Ce1  1  0.00000  0.00000  0.00000  1
 S  S1  1  0.37423  0.37423  0.87457  1
 S  S2  1  0.12539  0.12539  0.62452  1
 S  S3  1  0.87461  0.87461  0.37548  1
 S  S4  1  0.62577  0.62577  0.12543  1
 Sm  Sm1  1  0.75151  0.75151  0.74962  1
 Sm  Sm2  1  0.50000  0.50000  0.50000  1
 Sm  Sm3  1  0.24849  0.24849  0.25038  1
