CIF file written using JARVIS-Tools package.
data_Ag8S
_symmetry_space_group_name_H-M  'Immm'
_cell_length_a       6.06154
_cell_length_b       6.1859
_cell_length_c       6.18589
_cell_angle_alpha    73.1896
_cell_angle_beta     60.6628
_cell_angle_gamma    60.6628

_symmetry_Int_Tables_number  71
_chemical_formula_structural  Ag8S
_chemical_formula_sum  Ag8S
_cell_volume  175.89873902342055
_cell_formula_units_Z  1
loop_
  _symmetry_equiv_pos_site_id
 _symmetry_equiv_pos_as_xyz
 1  'x, y, z'
loop_
 _atom_site_type_symbol
 _atom_site_label
 _atom_site_symmetry_multiplicity
 _atom_site_fract_x
 _atom_site_fract_y
 _atom_site_fract_z
 _atom_site_fract_occupancy
 Ag  Ag1  1  0.61112  0.59152  0.18623  1
 Ag  Ag2  1  0.11111  0.21257  0.56520  1
 Ag  Ag3  1  0.11111  0.56520  0.21257  1
 Ag  Ag4  1  0.07723  0.65209  0.65209  1
 Ag  Ag5  1  0.61860  0.65209  0.65209  1
 Ag  Ag6  1  0.14504  0.12569  0.12569  1
 Ag  Ag7  1  0.60358  0.12569  0.12569  1
 Ag  Ag8  1  0.61112  0.18623  0.59152  1
 S  S1  1  0.11107  0.88893  0.88893  1
