CIF file written using JARVIS-Tools package.
data_CdH12C8O4
_symmetry_space_group_name_H-M  'P1'
_cell_length_a       3.77441
_cell_length_b       4.70421
_cell_length_c       13.4173
_cell_angle_alpha    107.011
_cell_angle_beta     91.6015
_cell_angle_gamma    112.887

_symmetry_Int_Tables_number  1
_chemical_formula_structural  CdH12C8O4
_chemical_formula_sum  CdH2C8O4
_cell_volume  207.14121564337051
_cell_formula_units_Z  1
loop_
  _symmetry_equiv_pos_site_id
 _symmetry_equiv_pos_as_xyz
 1  'x, y, z'
loop_
 _atom_site_type_symbol
 _atom_site_label
 _atom_site_symmetry_multiplicity
 _atom_site_fract_x
 _atom_site_fract_y
 _atom_site_fract_z
 _atom_site_fract_occupancy
 C  C1  1  -0.16329  0.70869  0.63737  1
 C  C2  1  0.57872  0.48625  0.33269  1
 C  C3  1  0.58882  0.44199  0.43979  1
 C  C4  1  0.83157  0.75577  0.52986  1
 C  C5  1  -0.00328  0.03216  0.72860  1
 C  C6  1  -0.04618  -0.01098  0.83640  1
 C  C7  1  0.03572  0.30785  0.92438  1
 C  C8  1  0.96761  0.26961  0.03108  1
 Cd  Cd1  1  0.74166  0.87790  0.18201  1
 H  H1  1  0.28359  0.33617  0.45268  1
 H  H2  1  0.53714  0.55974  0.64600  1
 H  H3  1  0.65458  0.81112  0.83303  1
 H  H4  1  0.14656  0.87978  0.85541  1
 H  H5  1  0.71546  0.93919  0.53228  1
 H  H6  1  0.00615  0.56638  0.64240  1
 H  H7  1  -0.16116  0.17761  0.71725  1
 H  H8  1  0.30499  0.17767  0.72582  1
 H  H9  1  0.84911  0.42370  0.90610  1
 H  H10  1  0.33462  0.49326  0.93339  1
 H  H11  1  0.13133  0.86146  0.51351  1
 H  H12  1  0.68775  0.24671  0.43380  1
 O  O1  1  0.72572  0.77771  0.33122  1
 O  O2  1  0.07271  0.52380  0.11349  1
 O  O3  1  0.42688  0.23528  0.24915  1
 O  O4  1  0.80338  0.97988  0.03330  1
