CIF file written using JARVIS-Tools package.
data_Tl2Au4S3
_symmetry_space_group_name_H-M  'Pmmn'
_cell_length_a       4.81938
_cell_length_b       7.60954
_cell_length_c       12.0778
_cell_angle_alpha    90
_cell_angle_beta     90
_cell_angle_gamma    90

_symmetry_Int_Tables_number  59
_chemical_formula_structural  Tl2Au4S3
_chemical_formula_sum  Tl4Au8S6
_cell_volume  442.9302865387112
_cell_formula_units_Z  2
loop_
  _symmetry_equiv_pos_site_id
 _symmetry_equiv_pos_as_xyz
 1  'x, y, z'
loop_
 _atom_site_type_symbol
 _atom_site_label
 _atom_site_symmetry_multiplicity
 _atom_site_fract_x
 _atom_site_fract_y
 _atom_site_fract_z
 _atom_site_fract_occupancy
 Au  Au1  1  0.00000  0.75000  0.25000  1
 Au  Au2  1  0.44174  0.50000  0.65977  1
 Au  Au3  1  0.00000  0.25000  0.25000  1
 Au  Au4  1  0.55826  0.00000  0.84023  1
 Au  Au5  1  0.44174  0.50000  0.34023  1
 Au  Au6  1  0.00000  0.75000  0.75000  1
 Au  Au7  1  0.00000  0.25000  0.75000  1
 Au  Au8  1  0.55826  0.00000  0.15977  1
 S  S1  1  0.75147  0.50000  0.81016  1
 S  S2  1  0.75147  0.50000  0.18984  1
 S  S3  1  0.16849  0.50000  0.50000  1
 S  S4  1  0.83151  0.00000  0.00000  1
 S  S5  1  0.24853  0.00000  0.31016  1
 S  S6  1  0.24853  0.00000  0.68984  1
 Tl  Tl1  1  0.27047  0.27768  0.00000  1
 Tl  Tl2  1  0.27047  0.72232  0.00000  1
 Tl  Tl3  1  0.72953  0.22232  0.50000  1
 Tl  Tl4  1  0.72953  0.77768  0.50000  1
