CIF file written using JARVIS-Tools package.
data_Tl2Cl3
_symmetry_space_group_name_H-M  'R-3m'
_cell_length_a       8.7233
_cell_length_b       8.7233
_cell_length_c       8.7233
_cell_angle_alpha    30.2833
_cell_angle_beta     30.2833
_cell_angle_gamma    30.2833

_symmetry_Int_Tables_number  166
_chemical_formula_structural  Tl2Cl3
_chemical_formula_sum  Tl2Cl3
_cell_volume  149.58551937924074
_cell_formula_units_Z  1
loop_
  _symmetry_equiv_pos_site_id
 _symmetry_equiv_pos_as_xyz
 1  'x, y, z'
loop_
 _atom_site_type_symbol
 _atom_site_label
 _atom_site_symmetry_multiplicity
 _atom_site_fract_x
 _atom_site_fract_y
 _atom_site_fract_z
 _atom_site_fract_occupancy
 Cl  Cl1  1  0.00000  0.00000  0.00000  1
 Cl  Cl2  1  0.21149  0.21149  0.21149  1
 Cl  Cl3  1  0.78851  0.78851  0.78851  1
 Tl  Tl1  1  0.59574  0.59574  0.59574  1
 Tl  Tl2  1  0.40426  0.40426  0.40426  1
