CIF file written using JARVIS-Tools package.
data_CrFeB2
_symmetry_space_group_name_H-M  'Pmc2_1'
_cell_length_a       2.9205
_cell_length_b       4.10402
_cell_length_c       5.49902
_cell_angle_alpha    90
_cell_angle_beta     90
_cell_angle_gamma    90

_symmetry_Int_Tables_number  26
_chemical_formula_structural  CrFeB2
_chemical_formula_sum  Cr2Fe2B4
_cell_volume  65.91003706790585
_cell_formula_units_Z  2
loop_
  _symmetry_equiv_pos_site_id
 _symmetry_equiv_pos_as_xyz
 1  'x, y, z'
loop_
 _atom_site_type_symbol
 _atom_site_label
 _atom_site_symmetry_multiplicity
 _atom_site_fract_x
 _atom_site_fract_y
 _atom_site_fract_z
 _atom_site_fract_occupancy
 B  B1  1  0.00000  0.62853  0.53464  1
 B  B2  1  0.00000  0.37147  0.03464  1
 B  B3  1  0.50000  0.85542  0.46505  1
 B  B4  1  0.50000  0.14458  0.96505  1
 Cr  Cr1  1  0.00000  0.12715  0.67880  1
 Cr  Cr2  1  0.00000  0.87285  0.17880  1
 Fe  Fe1  1  0.50000  0.36365  0.32151  1
 Fe  Fe2  1  0.50000  0.63635  0.82151  1
