CIF file written using JARVIS-Tools package.
data_Tb5O9
_symmetry_space_group_name_H-M  'I-4'
_cell_length_a       6.59991
_cell_length_b       5.62903
_cell_length_c       6.59991
_cell_angle_alpha    115.242
_cell_angle_beta     100.478
_cell_angle_gamma    64.7576

_symmetry_Int_Tables_number  82
_chemical_formula_structural  Tb5O9
_chemical_formula_sum  Tb5O9
_cell_volume  200.6031872261845
_cell_formula_units_Z  1
loop_
  _symmetry_equiv_pos_site_id
 _symmetry_equiv_pos_as_xyz
 1  'x, y, z'
loop_
 _atom_site_type_symbol
 _atom_site_label
 _atom_site_symmetry_multiplicity
 _atom_site_fract_x
 _atom_site_fract_y
 _atom_site_fract_z
 _atom_site_fract_occupancy
 O  O1  1  0.10000  0.55000  0.70000  1
 O  O2  1  0.31734  0.64203  0.10810  1
 O  O3  1  0.69190  0.86607  0.91734  1
 O  O4  1  0.50810  0.24063  0.48266  1
 O  O5  1  0.74716  0.31644  0.87809  1
 O  O6  1  0.45284  0.78552  0.52191  1
 O  O7  1  0.27809  0.13640  0.05284  1
 O  O8  1  0.88266  0.45127  0.29190  1
 O  O9  1  0.92191  0.96165  0.34716  1
 Tb  Tb1  1  0.99865  0.98388  0.02773  1
 Tb  Tb2  1  0.20135  0.55480  0.37227  1
 Tb  Tb3  1  0.42773  0.21747  0.80135  1
 Tb  Tb4  1  0.77227  0.44385  0.59865  1
 Tb  Tb5  1  0.60000  0.80000  0.20000  1
