CIF file written using JARVIS-Tools package.
data_ZrScNi2Sn2
_symmetry_space_group_name_H-M  'R3m'
_cell_length_a       7.53758
_cell_length_b       7.53758
_cell_length_c       7.53758
_cell_angle_alpha    33.4525
_cell_angle_beta     33.4525
_cell_angle_gamma    33.4525

_symmetry_Int_Tables_number  160
_chemical_formula_structural  ZrScNi2Sn2
_chemical_formula_sum  ZrScNi2Sn2
_cell_volume  115.89216987997843
_cell_formula_units_Z  1
loop_
  _symmetry_equiv_pos_site_id
 _symmetry_equiv_pos_as_xyz
 1  'x, y, z'
loop_
 _atom_site_type_symbol
 _atom_site_label
 _atom_site_symmetry_multiplicity
 _atom_site_fract_x
 _atom_site_fract_y
 _atom_site_fract_z
 _atom_site_fract_occupancy
 Ni  Ni1  1  0.00123  0.00123  0.00123  1
 Ni  Ni2  1  0.49873  0.49873  0.49873  1
 Sc  Sc1  1  0.87611  0.87611  0.87611  1
 Sn  Sn1  1  0.12565  0.12565  0.12565  1
 Sn  Sn2  1  0.62420  0.62420  0.62420  1
 Zr  Zr1  1  0.37409  0.37409  0.37409  1
