CIF file written using JARVIS-Tools package.
data_TlPt2S3
_symmetry_space_group_name_H-M  'P-3m1'
_cell_length_a       7.19369
_cell_length_b       7.19369
_cell_length_c       5.93207
_cell_angle_alpha    90
_cell_angle_beta     90
_cell_angle_gamma    120

_symmetry_Int_Tables_number  164
_chemical_formula_structural  TlPt2S3
_chemical_formula_sum  Tl2Pt4S6
_cell_volume  265.8519985879979
_cell_formula_units_Z  2
loop_
  _symmetry_equiv_pos_site_id
 _symmetry_equiv_pos_as_xyz
 1  'x, y, z'
loop_
 _atom_site_type_symbol
 _atom_site_label
 _atom_site_symmetry_multiplicity
 _atom_site_fract_x
 _atom_site_fract_y
 _atom_site_fract_z
 _atom_site_fract_occupancy
 Pt  Pt1  1  0.00000  0.00000  0.00000  1
 Pt  Pt2  1  0.50000  0.50000  0.00000  1
 Pt  Pt3  1  0.00000  0.50000  0.00000  1
 Pt  Pt4  1  0.50000  -0.00000  0.00000  1
 S  S1  1  0.83042  0.66084  0.19904  1
 S  S2  1  0.33916  0.16958  0.19904  1
 S  S3  1  0.83042  0.16958  0.19904  1
 S  S4  1  0.16958  0.83042  0.80096  1
 S  S5  1  0.16958  0.33916  0.80096  1
 S  S6  1  0.66084  0.83042  0.80096  1
 Tl  Tl1  1  0.66667  0.33333  0.62371  1
 Tl  Tl2  1  0.33333  0.66667  0.37629  1
