CIF file written using JARVIS-Tools package.
data_H6C9SO
_symmetry_space_group_name_H-M  'P1'
_cell_length_a       6.162
_cell_length_b       8.24191
_cell_length_c       8.49034
_cell_angle_alpha    88.8402
_cell_angle_beta     71.3824
_cell_angle_gamma    58.7211

_symmetry_Int_Tables_number  1
_chemical_formula_structural  H6C9SO
_chemical_formula_sum  H2C8S2O2
_cell_volume  343.5548507991214
_cell_formula_units_Z  2
loop_
  _symmetry_equiv_pos_site_id
 _symmetry_equiv_pos_as_xyz
 1  'x, y, z'
loop_
 _atom_site_type_symbol
 _atom_site_label
 _atom_site_symmetry_multiplicity
 _atom_site_fract_x
 _atom_site_fract_y
 _atom_site_fract_z
 _atom_site_fract_occupancy
 C  C1  1  0.18917  0.65807  0.11872  1
 C  C2  1  0.18917  0.65807  0.61872  1
 C  C3  1  0.19201  0.92473  0.24956  1
 C  C4  1  0.19201  0.92473  0.74956  1
 C  C5  1  0.73863  0.23074  0.76167  1
 C  C6  1  0.73863  0.23074  0.26167  1
 C  C7  1  0.32806  0.74643  0.63272  1
 C  C8  1  0.60137  0.66420  0.02359  1
 C  C9  1  0.59293  0.41002  0.39193  1
 C  C10  1  0.59294  0.41002  0.89193  1
 C  C11  1  0.60137  0.66420  0.52359  1
 C  C12  1  0.72924  0.50020  0.40418  1
 C  C13  1  0.72924  0.50020  0.90418  1
 C  C14  1  0.88691  0.04641  0.33065  1
 C  C15  1  0.88691  0.04641  0.83065  1
 C  C16  1  0.32806  0.74643  0.13272  1
 C  C17  1  0.32296  0.48950  0.00194  1
 C  C18  1  0.32296  0.48950  0.50194  1
 H  H1  1  0.21622  0.42013  0.99263  1
 H  H2  1  0.59304  0.21847  0.22253  1
 H  H3  1  0.21622  0.42013  0.49263  1
 H  H4  1  0.88513  0.23395  0.64879  1
 H  H5  1  0.88513  0.23395  0.14879  1
 H  H6  1  0.59304  0.21847  0.72253  1
 H  H7  1  0.97700  0.72179  0.20021  1
 H  H8  1  0.70453  0.73693  0.03032  1
 H  H9  1  0.70453  0.73693  0.53032  1
 H  H10  1  0.93790  0.43961  0.81740  1
 H  H11  1  0.93790  0.43961  0.31740  1
 H  H12  1  0.97700  0.72179  0.70021  1
 O  O1  1  0.76639  0.00221  0.45113  1
 O  O2  1  0.76639  0.00221  0.95113  1
 S  S1  1  0.33682  0.01871  0.31137  1
 S  S2  1  0.33682  0.01871  0.81137  1
