CIF file written using JARVIS-Tools package.
data_CeZnAgP2
_symmetry_space_group_name_H-M  'P3m1'
_cell_length_a       4.1797
_cell_length_b       4.1797
_cell_length_c       6.76343
_cell_angle_alpha    90
_cell_angle_beta     90
_cell_angle_gamma    120

_symmetry_Int_Tables_number  156
_chemical_formula_structural  CeZnAgP2
_chemical_formula_sum  CeZnAgP2
_cell_volume  102.32639135618986
_cell_formula_units_Z  1
loop_
  _symmetry_equiv_pos_site_id
 _symmetry_equiv_pos_as_xyz
 1  'x, y, z'
loop_
 _atom_site_type_symbol
 _atom_site_label
 _atom_site_symmetry_multiplicity
 _atom_site_fract_x
 _atom_site_fract_y
 _atom_site_fract_z
 _atom_site_fract_occupancy
 Ag  Ag1  1  0.00000  0.00000  0.36416  1
 Ce  Ce1  1  0.33333  0.66667  0.00883  1
 P  P1  1  0.00000  0.00000  0.75288  1
 P  P2  1  0.66667  0.33333  0.24654  1
 Zn  Zn1  1  0.66667  0.33333  0.62759  1
