CIF file written using JARVIS-Tools package.
data_H2C4S2O
_symmetry_space_group_name_H-M  'Pm'
_cell_length_a       5.01419
_cell_length_b       6.25366
_cell_length_c       6.76776
_cell_angle_alpha    93.5608
_cell_angle_beta     90.1141
_cell_angle_gamma    90.0094

_symmetry_Int_Tables_number  6
_chemical_formula_structural  H2C4S2O
_chemical_formula_sum  H4C8S4O2
_cell_volume  211.80671460018263
_cell_formula_units_Z  2
loop_
  _symmetry_equiv_pos_site_id
 _symmetry_equiv_pos_as_xyz
 1  'x, y, z'
loop_
 _atom_site_type_symbol
 _atom_site_label
 _atom_site_symmetry_multiplicity
 _atom_site_fract_x
 _atom_site_fract_y
 _atom_site_fract_z
 _atom_site_fract_occupancy
 C  C1  1  0.91530  0.22981  0.23817  1
 C  C2  1  0.65380  0.34428  0.23613  1
 C  C3  1  0.91530  0.72971  0.73817  1
 C  C4  1  0.65380  0.84419  0.73619  1
 C  C5  1  0.39227  0.22982  0.23815  1
 C  C6  1  0.39227  0.72972  0.73816  1
 C  C7  1  0.15380  0.85613  0.73876  1
 C  C8  1  0.15381  0.35622  0.23870  1
 H  H1  1  0.65417  0.96767  0.86118  1
 H  H2  1  0.65346  0.44457  0.10645  1
 H  H3  1  0.65417  0.46785  0.36103  1
 H  H4  1  0.65346  0.94458  0.60659  1
 O  O1  1  0.15385  0.56070  0.23984  1
 O  O2  1  0.15384  0.06062  0.73999  1
 S  S1  1  0.94889  0.46025  0.73925  1
 S  S2  1  0.94889  0.96035  0.23932  1
 S  S3  1  0.35860  0.46026  0.73915  1
 S  S4  1  0.35860  0.96036  0.23922  1
