CIF file written using JARVIS-Tools package.
data_CeU2O6
_symmetry_space_group_name_H-M  'P-3m1'
_cell_length_a       3.8572
_cell_length_b       3.8572
_cell_length_c       9.38802
_cell_angle_alpha    90
_cell_angle_beta     90
_cell_angle_gamma    120

_symmetry_Int_Tables_number  164
_chemical_formula_structural  CeU2O6
_chemical_formula_sum  CeU2O6
_cell_volume  120.96204650797083
_cell_formula_units_Z  1
loop_
  _symmetry_equiv_pos_site_id
 _symmetry_equiv_pos_as_xyz
 1  'x, y, z'
loop_
 _atom_site_type_symbol
 _atom_site_label
 _atom_site_symmetry_multiplicity
 _atom_site_fract_x
 _atom_site_fract_y
 _atom_site_fract_z
 _atom_site_fract_occupancy
 Ce  Ce1  1  0.00000  0.00000  0.00000  1
 O  O1  1  0.00000  0.00000  0.26357  1
 O  O2  1  0.33333  0.66667  0.90420  1
 O  O3  1  0.66667  0.33333  0.58074  1
 O  O4  1  0.66667  0.33333  0.09580  1
 O  O5  1  0.00000  0.00000  0.73643  1
 O  O6  1  0.33333  0.66667  0.41926  1
 U  U1  1  0.33333  0.66667  0.66613  1
 U  U2  1  0.66667  0.33333  0.33387  1
