CIF file written using JARVIS-Tools package.
data_SrSO4
_symmetry_space_group_name_H-M  'Pnma'
_cell_length_a       5.3738
_cell_length_b       6.89211
_cell_length_c       8.36704
_cell_angle_alpha    90
_cell_angle_beta     90
_cell_angle_gamma    90

_symmetry_Int_Tables_number  62
_chemical_formula_structural  SrSO4
_chemical_formula_sum  Sr4S4O6
_cell_volume  309.8881827775895
_cell_formula_units_Z  4
loop_
  _symmetry_equiv_pos_site_id
 _symmetry_equiv_pos_as_xyz
 1  'x, y, z'
loop_
 _atom_site_type_symbol
 _atom_site_label
 _atom_site_symmetry_multiplicity
 _atom_site_fract_x
 _atom_site_fract_y
 _atom_site_fract_z
 _atom_site_fract_occupancy
 O  O1  1  0.25000  0.58968  0.90548  1
 O  O2  1  0.47494  0.81041  0.07772  1
 O  O3  1  0.97494  0.18959  0.92228  1
 O  O4  1  0.52506  0.31041  0.42228  1
 O  O5  1  0.25000  0.54196  0.19560  1
 O  O6  1  0.52506  0.18959  0.92228  1
 O  O7  1  0.02506  0.81041  0.07772  1
 O  O8  1  0.02506  0.68959  0.57772  1
 O  O9  1  0.97494  0.31041  0.42228  1
 O  O10  1  0.75000  0.08968  0.59452  1
 O  O11  1  0.25000  0.91032  0.40548  1
 O  O12  1  0.75000  0.45804  0.80440  1
 O  O13  1  0.75000  0.41032  0.09452  1
 O  O14  1  0.75000  0.04196  0.30440  1
 O  O15  1  0.25000  0.95804  0.69560  1
 O  O16  1  0.47494  0.68959  0.57772  1
 S  S1  1  0.75000  0.18387  0.43733  1
 S  S2  1  0.25000  0.81613  0.56267  1
 S  S3  1  0.25000  0.68387  0.06267  1
 S  S4  1  0.75000  0.31613  0.93733  1
 Sr  Sr1  1  0.25000  0.15753  0.18327  1
 Sr  Sr2  1  0.75000  0.84247  0.81673  1
 Sr  Sr3  1  0.75000  0.65753  0.31673  1
 Sr  Sr4  1  0.25000  0.34247  0.68327  1
