CIF file written using JARVIS-Tools package.
data_Sc2AlCo3
_symmetry_space_group_name_H-M  'R-3m'
_cell_length_a       4.80176
_cell_length_b       4.80175
_cell_length_c       4.80176
_cell_angle_alpha    63.5922
_cell_angle_beta     63.5921
_cell_angle_gamma    63.5922

_symmetry_Int_Tables_number  166
_chemical_formula_structural  Sc2AlCo3
_chemical_formula_sum  Sc2AlCo3
_cell_volume  84.50002219323781
_cell_formula_units_Z  1
loop_
  _symmetry_equiv_pos_site_id
 _symmetry_equiv_pos_as_xyz
 1  'x, y, z'
loop_
 _atom_site_type_symbol
 _atom_site_label
 _atom_site_symmetry_multiplicity
 _atom_site_fract_x
 _atom_site_fract_y
 _atom_site_fract_z
 _atom_site_fract_occupancy
 Al  Al1  1  0.00000  0.00000  0.00000  1
 Co  Co1  1  -0.00000  0.50000  0.00000  1
 Co  Co2  1  0.50000  0.00000  0.00000  1
 Co  Co3  1  -0.00000  0.00000  0.50000  1
 Sc  Sc1  1  0.62615  0.62615  0.62615  1
 Sc  Sc2  1  0.37385  0.37385  0.37385  1
