CIF file written using JARVIS-Tools package.
data_Li2Ni3WO8
_symmetry_space_group_name_H-M  'R-3m'
_cell_length_a       5.91325
_cell_length_b       5.91326
_cell_length_c       5.91326
_cell_angle_alpha    59.427
_cell_angle_beta     59.4271
_cell_angle_gamma    59.4271

_symmetry_Int_Tables_number  166
_chemical_formula_structural  Li2Ni3WO8
_chemical_formula_sum  Li2Ni3WO8
_cell_volume  144.29961317396237
_cell_formula_units_Z  1
loop_
  _symmetry_equiv_pos_site_id
 _symmetry_equiv_pos_as_xyz
 1  'x, y, z'
loop_
 _atom_site_type_symbol
 _atom_site_label
 _atom_site_symmetry_multiplicity
 _atom_site_fract_x
 _atom_site_fract_y
 _atom_site_fract_z
 _atom_site_fract_occupancy
 Li  Li1  1  0.13111  0.13111  0.13111  1
 Li  Li2  1  0.86889  0.86889  0.86889  1
 Ni  Ni1  1  -0.00000  0.50000  0.50000  1
 Ni  Ni2  1  0.50000  0.00000  0.50000  1
 Ni  Ni3  1  0.50000  0.50000  -0.00000  1
 O  O1  1  0.27184  0.27184  0.27184  1
 O  O2  1  0.26606  0.26606  0.72753  1
 O  O3  1  0.26606  0.72753  0.26606  1
 O  O4  1  0.72753  0.26606  0.26606  1
 O  O5  1  0.27247  0.73394  0.73394  1
 O  O6  1  0.73394  0.27247  0.73394  1
 O  O7  1  0.73394  0.73394  0.27247  1
 O  O8  1  0.72816  0.72816  0.72816  1
 W  W1  1  0.50000  0.50000  0.50000  1
