CIF file written using JARVIS-Tools package.
data_ZrH4C4O4
_symmetry_space_group_name_H-M  'P1'
_cell_length_a       3.42906
_cell_length_b       6.2036
_cell_length_c       6.88755
_cell_angle_alpha    113.266
_cell_angle_beta     93.452
_cell_angle_gamma    100.351

_symmetry_Int_Tables_number  1
_chemical_formula_structural  ZrH4C4O4
_chemical_formula_sum  ZrH4C4O4
_cell_volume  131.00835685275368
_cell_formula_units_Z  1
loop_
  _symmetry_equiv_pos_site_id
 _symmetry_equiv_pos_as_xyz
 1  'x, y, z'
loop_
 _atom_site_type_symbol
 _atom_site_label
 _atom_site_symmetry_multiplicity
 _atom_site_fract_x
 _atom_site_fract_y
 _atom_site_fract_z
 _atom_site_fract_occupancy
 C  C1  1  0.30791  0.22461  0.51723  1
 C  C2  1  0.78183  0.29164  0.27815  1
 C  C3  1  0.65747  0.85513  0.73153  1
 C  C4  1  0.45578  0.17957  0.33836  1
 H  H1  1  0.38166  0.64984  0.02523  1
 H  H2  1  0.90917  0.47943  0.38886  1
 H  H3  1  0.66214  0.25287  0.92019  1
 H  H4  1  0.40382  0.65898  0.26307  1
 O  O1  1  0.15903  0.23461  0.67088  1
 O  O2  1  0.48090  0.73993  0.54830  1
 O  O3  1  0.49431  0.85427  0.90794  1
 O  O4  1  0.28830  0.55999  0.11150  1
 Zr  Zr1  1  0.12410  0.15173  0.99417  1
