CIF file written using JARVIS-Tools package.
data_PBr
_symmetry_space_group_name_H-M  'P-1'
_cell_length_a       3.51865
_cell_length_b       5.67254
_cell_length_c       5.79359
_cell_angle_alpha    98.0146
_cell_angle_beta     89.9693
_cell_angle_gamma    108.399

_symmetry_Int_Tables_number  2
_chemical_formula_structural  PBr
_chemical_formula_sum  P2Br2
_cell_volume  108.53899171956795
_cell_formula_units_Z  2
loop_
  _symmetry_equiv_pos_site_id
 _symmetry_equiv_pos_as_xyz
 1  'x, y, z'
loop_
 _atom_site_type_symbol
 _atom_site_label
 _atom_site_symmetry_multiplicity
 _atom_site_fract_x
 _atom_site_fract_y
 _atom_site_fract_z
 _atom_site_fract_occupancy
 Br  Br1  1  0.60326  0.21481  0.80147  1
 Br  Br2  1  0.39674  0.78519  0.19853  1
 P  P1  1  0.21551  0.43170  0.37315  1
 P  P2  1  0.78449  0.56830  0.62685  1
