CIF file written using JARVIS-Tools package.
data_SrZrO3
_symmetry_space_group_name_H-M  'Cmcm'
_cell_length_a       5.8395
_cell_length_b       5.83949
_cell_length_c       8.27906
_cell_angle_alpha    90
_cell_angle_beta     90
_cell_angle_gamma    90.6558

_symmetry_Int_Tables_number  63
_chemical_formula_structural  SrZrO3
_chemical_formula_sum  Sr4Zr4O2
_cell_volume  282.29504629990276
_cell_formula_units_Z  4
loop_
  _symmetry_equiv_pos_site_id
 _symmetry_equiv_pos_as_xyz
 1  'x, y, z'
loop_
 _atom_site_type_symbol
 _atom_site_label
 _atom_site_symmetry_multiplicity
 _atom_site_fract_x
 _atom_site_fract_y
 _atom_site_fract_z
 _atom_site_fract_occupancy
 O  O1  1  0.70796  0.70796  0.00000  1
 O  O2  1  0.04252  0.55182  0.25000  1
 O  O3  1  0.44818  0.95748  0.25000  1
 O  O4  1  0.55182  0.04252  0.75000  1
 O  O5  1  0.21119  0.78881  0.54511  1
 O  O6  1  0.78881  0.21119  0.04511  1
 O  O7  1  0.78881  0.21119  0.45489  1
 O  O8  1  0.21119  0.78881  0.95489  1
 O  O9  1  0.95748  0.44818  0.75000  1
 O  O10  1  0.70796  0.70796  0.50000  1
 O  O11  1  0.29204  0.29204  0.50000  1
 O  O12  1  0.29204  0.29204  0.00000  1
 Sr  Sr1  1  0.98802  0.01198  0.75000  1
 Sr  Sr2  1  0.01198  0.98802  0.25000  1
 Sr  Sr3  1  0.49346  0.50654  0.75000  1
 Sr  Sr4  1  0.50654  0.49346  0.25000  1
 Zr  Zr1  1  -0.00000  0.50000  0.00000  1
 Zr  Zr2  1  0.50000  0.00000  0.00000  1
 Zr  Zr3  1  0.50000  0.00000  0.50000  1
 Zr  Zr4  1  -0.00000  0.50000  0.50000  1
