CIF file written using JARVIS-Tools package.
data_H6C11S2O
_symmetry_space_group_name_H-M  'P1'
_cell_length_a       3.81467
_cell_length_b       6.82848
_cell_length_c       9.61854
_cell_angle_alpha    75.0564
_cell_angle_beta     93.1448
_cell_angle_gamma    77.3585

_symmetry_Int_Tables_number  1
_chemical_formula_structural  H6C11S2O
_chemical_formula_sum  H6CS2O
_cell_volume  234.5543390345319
_cell_formula_units_Z  1
loop_
  _symmetry_equiv_pos_site_id
 _symmetry_equiv_pos_as_xyz
 1  'x, y, z'
loop_
 _atom_site_type_symbol
 _atom_site_label
 _atom_site_symmetry_multiplicity
 _atom_site_fract_x
 _atom_site_fract_y
 _atom_site_fract_z
 _atom_site_fract_occupancy
 C  C1  1  0.94049  0.61764  0.30704  1
 C  C2  1  0.05054  0.73354  0.18096  1
 C  C3  1  0.35491  0.26871  0.75787  1
 C  C4  1  0.26422  0.36191  0.60908  1
 C  C5  1  0.02975  0.56058  0.57354  1
 C  C6  1  0.13331  0.64835  0.06601  1
 C  C7  1  0.89004  0.41884  0.31076  1
 C  C8  1  0.96280  0.33431  0.19618  1
 C  C9  1  0.87659  0.69887  0.43480  1
 C  C10  1  0.18883  0.39759  0.83769  1
 C  C11  1  0.09524  0.44621  0.07728  1
 H  H1  1  0.92219  0.18055  0.20019  1
 H  H2  1  0.79152  0.32858  0.40413  1
 H  H3  1  0.24562  0.73371  0.97430  1
 H  H4  1  0.09652  0.88646  0.17705  1
 H  H5  1  0.36454  0.28452  0.52879  1
 H  H6  1  0.53011  0.11427  0.80760  1
 O  O1  1  0.22390  0.32863  0.98320  1
 S  S1  1  0.62032  0.93784  0.41525  1
 S  S2  1  0.92547  0.63641  0.73103  1
