CIF file written using JARVIS-Tools package.
data_MoH2O4
_symmetry_space_group_name_H-M  'P-1'
_cell_length_a       3.70477
_cell_length_b       6.42811
_cell_length_c       7.25158
_cell_angle_alpha    68.4197
_cell_angle_beta     84.8321
_cell_angle_gamma    77.1545

_symmetry_Int_Tables_number  2
_chemical_formula_structural  MoH2O4
_chemical_formula_sum  Mo2H4O8
_cell_volume  156.56326488528583
_cell_formula_units_Z  2
loop_
  _symmetry_equiv_pos_site_id
 _symmetry_equiv_pos_as_xyz
 1  'x, y, z'
loop_
 _atom_site_type_symbol
 _atom_site_label
 _atom_site_symmetry_multiplicity
 _atom_site_fract_x
 _atom_site_fract_y
 _atom_site_fract_z
 _atom_site_fract_occupancy
 H  H1  1  0.48513  0.22755  0.32058  1
 H  H2  1  0.52994  0.76023  0.67692  1
 H  H3  1  0.22839  0.66324  0.83800  1
 H  H4  1  0.78670  0.32454  0.15951  1
 Mo  Mo1  1  0.23221  0.14819  0.79200  1
 Mo  Mo2  1  0.78286  0.83959  0.20550  1
 O  O1  1  0.26129  0.24108  0.53878  1
 O  O2  1  0.75376  0.74669  0.45872  1
 O  O3  1  0.26014  0.92925  0.13012  1
 O  O4  1  0.75494  0.05853  0.86739  1
 O  O5  1  0.12265  0.39693  0.83915  1
 O  O6  1  0.89244  0.59086  0.15835  1
 O  O7  1  0.37255  0.78563  0.78803  1
 O  O8  1  0.64255  0.20214  0.20949  1
