CIF file written using JARVIS-Tools package.
data_AgO
_symmetry_space_group_name_H-M  'F-43m'
_cell_length_a       3.54461
_cell_length_b       3.54461
_cell_length_c       3.5446
_cell_angle_alpha    60.0001
_cell_angle_beta     60.0001
_cell_angle_gamma    60

_symmetry_Int_Tables_number  216
_chemical_formula_structural  AgO
_chemical_formula_sum  AgO
_cell_volume  31.491082798672124
_cell_formula_units_Z  1
loop_
  _symmetry_equiv_pos_site_id
 _symmetry_equiv_pos_as_xyz
 1  'x, y, z'
loop_
 _atom_site_type_symbol
 _atom_site_label
 _atom_site_symmetry_multiplicity
 _atom_site_fract_x
 _atom_site_fract_y
 _atom_site_fract_z
 _atom_site_fract_occupancy
 Ag  Ag1  1  0.00000  0.00000  0.00000  1
 O  O1  1  0.25000  0.25000  0.25000  1
