CIF file written using JARVIS-Tools package.
data_AlNiGe
_symmetry_space_group_name_H-M  'F-43m'
_cell_length_a       3.98819
_cell_length_b       3.98819
_cell_length_c       3.98819
_cell_angle_alpha    59.9999
_cell_angle_beta     59.9999
_cell_angle_gamma    59.9999

_symmetry_Int_Tables_number  216
_chemical_formula_structural  AlNiGe
_chemical_formula_sum  AlNiGe
_cell_volume  44.85518024815096
_cell_formula_units_Z  1
loop_
  _symmetry_equiv_pos_site_id
 _symmetry_equiv_pos_as_xyz
 1  'x, y, z'
loop_
 _atom_site_type_symbol
 _atom_site_label
 _atom_site_symmetry_multiplicity
 _atom_site_fract_x
 _atom_site_fract_y
 _atom_site_fract_z
 _atom_site_fract_occupancy
 Al  Al1  1  0.25000  0.25000  0.25000  1
 Ge  Ge1  1  0.75000  0.75000  0.75000  1
 Ni  Ni1  1  0.00000  0.00000  0.00000  1
