CIF file written using JARVIS-Tools package.
data_SnH22C12O4
_symmetry_space_group_name_H-M  'P1'
_cell_length_a       4.97219
_cell_length_b       7.21598
_cell_length_c       9.98065
_cell_angle_alpha    73.997
_cell_angle_beta     86.8679
_cell_angle_gamma    91.0429

_symmetry_Int_Tables_number  1
_chemical_formula_structural  SnH22C12O4
_chemical_formula_sum  SnH22C2O4
_cell_volume  343.5003976038178
_cell_formula_units_Z  1
loop_
  _symmetry_equiv_pos_site_id
 _symmetry_equiv_pos_as_xyz
 1  'x, y, z'
loop_
 _atom_site_type_symbol
 _atom_site_label
 _atom_site_symmetry_multiplicity
 _atom_site_fract_x
 _atom_site_fract_y
 _atom_site_fract_z
 _atom_site_fract_occupancy
 C  C1  1  0.81487  0.53819  0.48337  1
 C  C2  1  0.25558  0.08660  0.28508  1
 C  C3  1  0.67440  0.51469  0.24797  1
 C  C4  1  0.89192  0.68394  0.56330  1
 C  C5  1  0.92393  0.06929  0.00940  1
 C  C6  1  0.82291  0.63400  0.32404  1
 C  C7  1  0.73427  0.01679  0.59533  1
 C  C8  1  0.66437  0.82469  0.56488  1
 C  C9  1  0.03717  0.94391  0.80511  1
 C  C10  1  0.76303  0.00788  0.74915  1
 C  C11  1  0.03327  0.89877  0.96594  1
 C  C12  1  0.52235  0.49537  0.90987  1
 H  H1  1  0.49888  0.74889  0.63883  1
 H  H2  1  0.60301  0.91142  0.81389  1
 H  H3  1  0.91816  0.08334  0.53237  1
 H  H4  1  0.58084  0.86017  0.46164  1
 H  H5  1  0.57182  0.11626  0.55707  1
 H  H6  1  0.09903  0.81456  0.77516  1
 H  H7  1  0.07846  0.76399  0.51334  1
 H  H8  1  0.34030  0.11133  0.37783  1
 H  H9  1  0.29795  0.94180  0.27636  1
 H  H10  1  0.72405  0.56040  0.90555  1
 H  H11  1  0.36725  0.60281  0.90063  1
 H  H12  1  0.93761  0.60471  0.67028  1
 H  H13  1  0.04040  0.11275  0.28606  1
 H  H14  1  0.61079  0.47643  0.52161  1
 H  H15  1  0.95296  0.41755  0.50386  1
 H  H16  1  0.03400  0.65326  0.28320  1
 H  H17  1  0.50622  0.41997  0.82918  1
 H  H18  1  0.72677  0.15190  0.76337  1
 H  H19  1  0.72956  0.77490  0.30132  1
 H  H20  1  0.19100  0.05834  0.75762  1
 H  H21  1  0.90399  0.77026  0.01439  1
 H  H22  1  0.23780  0.87266  0.00229  1
 O  O1  1  0.06738  0.22217  0.98688  1
 O  O2  1  0.43043  0.54521  0.21837  1
 O  O3  1  0.67809  0.05159  0.06237  1
 O  O4  1  0.79693  0.37712  0.21199  1
 Sn  Sn1  1  0.45194  0.28669  0.10696  1
