CIF file written using JARVIS-Tools package.
data_Li2Fe3WO8
_symmetry_space_group_name_H-M  'R-3m'
_cell_length_a       5.67365
_cell_length_b       5.67365
_cell_length_c       5.67365
_cell_angle_alpha    61.9051
_cell_angle_beta     61.9051
_cell_angle_gamma    61.9051

_symmetry_Int_Tables_number  166
_chemical_formula_structural  Li2Fe3WO8
_chemical_formula_sum  Li2Fe3WO8
_cell_volume  134.6508318577502
_cell_formula_units_Z  1
loop_
  _symmetry_equiv_pos_site_id
 _symmetry_equiv_pos_as_xyz
 1  'x, y, z'
loop_
 _atom_site_type_symbol
 _atom_site_label
 _atom_site_symmetry_multiplicity
 _atom_site_fract_x
 _atom_site_fract_y
 _atom_site_fract_z
 _atom_site_fract_occupancy
 Fe  Fe1  1  0.00000  0.50000  0.50000  1
 Fe  Fe2  1  0.50000  0.00000  0.50000  1
 Fe  Fe3  1  0.50000  0.50000  -0.00000  1
 Li  Li1  1  0.12448  0.12448  0.12448  1
 Li  Li2  1  0.87552  0.87552  0.87552  1
 O  O1  1  0.26491  0.26491  0.26491  1
 O  O2  1  0.25664  0.25664  0.72688  1
 O  O3  1  0.25664  0.72688  0.25664  1
 O  O4  1  0.72688  0.25664  0.25664  1
 O  O5  1  0.27312  0.74336  0.74336  1
 O  O6  1  0.74336  0.27312  0.74336  1
 O  O7  1  0.74336  0.74336  0.27312  1
 O  O8  1  0.73509  0.73509  0.73509  1
 W  W1  1  0.50000  0.50000  0.50000  1
