CIF file written using JARVIS-Tools package.
data_PrBrCl2
_symmetry_space_group_name_H-M  'Pm'
_cell_length_a       4.35342
_cell_length_b       7.4886
_cell_length_c       7.5975
_cell_angle_alpha    61.5124
_cell_angle_beta     90
_cell_angle_gamma    90

_symmetry_Int_Tables_number  6
_chemical_formula_structural  PrBrCl2
_chemical_formula_sum  Pr2Br2Cl4
_cell_volume  217.69665639772901
_cell_formula_units_Z  2
loop_
  _symmetry_equiv_pos_site_id
 _symmetry_equiv_pos_as_xyz
 1  'x, y, z'
loop_
 _atom_site_type_symbol
 _atom_site_label
 _atom_site_symmetry_multiplicity
 _atom_site_fract_x
 _atom_site_fract_y
 _atom_site_fract_z
 _atom_site_fract_occupancy
 Br  Br1  1  0.00000  0.36041  0.91408  1
 Br  Br2  1  0.00000  0.92273  0.72018  1
 Cl  Cl1  1  0.00000  0.70331  0.38786  1
 Cl  Cl2  1  0.50000  0.60496  0.08655  1
 Cl  Cl3  1  0.50000  0.08056  0.31152  1
 Cl  Cl4  1  0.50000  0.31976  0.59029  1
 Pr  Pr1  1  0.00000  0.33897  0.32736  1
 Pr  Pr2  1  0.50000  0.66930  0.66215  1
