CIF file written using JARVIS-Tools package.
data_TiH14C9O6
_symmetry_space_group_name_H-M  'P1'
_cell_length_a       5.81381
_cell_length_b       5.83624
_cell_length_c       7.9291
_cell_angle_alpha    85.2003
_cell_angle_beta     107.842
_cell_angle_gamma    99.9442

_symmetry_Int_Tables_number  1
_chemical_formula_structural  TiH14C9O6
_chemical_formula_sum  TiH4C9O6
_cell_volume  252.1169103944178
_cell_formula_units_Z  1
loop_
  _symmetry_equiv_pos_site_id
 _symmetry_equiv_pos_as_xyz
 1  'x, y, z'
loop_
 _atom_site_type_symbol
 _atom_site_label
 _atom_site_symmetry_multiplicity
 _atom_site_fract_x
 _atom_site_fract_y
 _atom_site_fract_z
 _atom_site_fract_occupancy
 C  C1  1  0.69688  0.38675  0.73370  1
 C  C2  1  0.53505  0.28876  0.84096  1
 C  C3  1  0.26578  0.74186  0.40866  1
 C  C4  1  0.39955  0.80813  0.28565  1
 C  C5  1  0.63205  0.96969  0.31748  1
 C  C6  1  0.62623  0.39946  0.54056  1
 C  C7  1  0.28973  0.13476  0.79144  1
 C  C8  1  0.18563  0.00699  0.61690  1
 C  C9  1  0.33899  0.82653  0.59387  1
 H  H1  1  0.31565  0.67448  0.68375  1
 H  H2  1  0.78483  0.41213  0.49109  1
 H  H3  1  0.63294  0.76225  0.01645  1
 H  H4  1  0.70340  0.02133  0.45459  1
 H  H5  1  0.76792  0.88737  0.28455  1
 H  H6  1  0.53454  0.89947  0.63548  1
 H  H7  1  0.60448  0.12565  0.23042  1
 H  H8  1  0.55335  0.56769  0.49265  1
 H  H9  1  0.47623  0.26681  0.47495  1
 H  H10  1  0.15779  0.24454  0.80125  1
 H  H11  1  0.29718  0.00793  0.90358  1
 H  H12  1  0.15236  0.12934  0.50201  1
 H  H13  1  0.00640  -0.08895  0.61851  1
 H  H14  1  0.96145  0.06408  0.09746  1
 O  O1  1  0.30584  0.70968  0.12921  1
 O  O2  1  0.05282  0.22065  0.13946  1
 O  O3  1  0.61995  0.34296  0.00395  1
 O  O4  1  0.06728  0.58786  0.35170  1
 O  O5  1  0.91246  0.48756  0.82257  1
 O  O6  1  0.80898  0.78510  0.03301  1
 Ti  Ti1  1  -0.02024  0.51677  0.09145  1
