CIF file written using JARVIS-Tools package.
data_PbClF
_symmetry_space_group_name_H-M  'P2_1/m'
_cell_length_a       5.95593
_cell_length_b       3.89226
_cell_length_c       5.82414
_cell_angle_alpha    68.456
_cell_angle_beta     90
_cell_angle_gamma    90

_symmetry_Int_Tables_number  11
_chemical_formula_structural  PbClF
_chemical_formula_sum  Pb2Cl2F2
_cell_volume  125.5827083270683
_cell_formula_units_Z  2
loop_
  _symmetry_equiv_pos_site_id
 _symmetry_equiv_pos_as_xyz
 1  'x, y, z'
loop_
 _atom_site_type_symbol
 _atom_site_label
 _atom_site_symmetry_multiplicity
 _atom_site_fract_x
 _atom_site_fract_y
 _atom_site_fract_z
 _atom_site_fract_occupancy
 Cl  Cl1  1  0.33381  0.71313  0.59952  1
 Cl  Cl2  1  0.83381  0.28687  0.40048  1
 F  F1  1  0.08383  0.00007  0.00005  1
 F  F2  1  0.58383  -0.00007  -0.00005  1
 Pb  Pb1  1  0.83377  0.51441  0.80675  1
 Pb  Pb2  1  0.33377  0.48559  0.19325  1
