CIF file written using JARVIS-Tools package.
data_KCuIO6
_symmetry_space_group_name_H-M  'P312'
_cell_length_a       5.13152
_cell_length_b       5.13152
_cell_length_c       5.87718
_cell_angle_alpha    90
_cell_angle_beta     90
_cell_angle_gamma    120

_symmetry_Int_Tables_number  149
_chemical_formula_structural  KCuIO6
_chemical_formula_sum  KCuIO6
_cell_volume  134.02688770208118
_cell_formula_units_Z  1
loop_
  _symmetry_equiv_pos_site_id
 _symmetry_equiv_pos_as_xyz
 1  'x, y, z'
loop_
 _atom_site_type_symbol
 _atom_site_label
 _atom_site_symmetry_multiplicity
 _atom_site_fract_x
 _atom_site_fract_y
 _atom_site_fract_z
 _atom_site_fract_occupancy
 Cu  Cu1  1  0.33333  0.66667  0.50000  1
 I  I1  1  0.66667  0.33333  0.50000  1
 K  K1  1  0.00000  0.00000  0.00000  1
 O  O1  1  0.38627  0.00788  0.68578  1
 O  O2  1  0.99212  0.37839  0.68578  1
 O  O3  1  0.62161  0.61373  0.68578  1
 O  O4  1  0.99212  0.61373  0.31422  1
 O  O5  1  0.62161  0.00788  0.31422  1
 O  O6  1  0.38627  0.37839  0.31422  1
