CIF file written using JARVIS-Tools package.
data_CaPr3
_symmetry_space_group_name_H-M  'P6_3/mmc'
_cell_length_a       7.46979
_cell_length_b       7.46978
_cell_length_c       5.9843
_cell_angle_alpha    90
_cell_angle_beta     90
_cell_angle_gamma    120

_symmetry_Int_Tables_number  194
_chemical_formula_structural  CaPr3
_chemical_formula_sum  Ca2Pr6
_cell_volume  289.1748360017402
_cell_formula_units_Z  2
loop_
  _symmetry_equiv_pos_site_id
 _symmetry_equiv_pos_as_xyz
 1  'x, y, z'
loop_
 _atom_site_type_symbol
 _atom_site_label
 _atom_site_symmetry_multiplicity
 _atom_site_fract_x
 _atom_site_fract_y
 _atom_site_fract_z
 _atom_site_fract_occupancy
 Ca  Ca1  1  0.33333  0.66667  0.75000  1
 Ca  Ca2  1  0.66667  0.33333  0.25000  1
 Pr  Pr1  1  0.16489  0.32978  0.25000  1
 Pr  Pr2  1  0.67022  0.83511  0.25000  1
 Pr  Pr3  1  0.16489  0.83511  0.25000  1
 Pr  Pr4  1  0.83511  0.67022  0.75000  1
 Pr  Pr5  1  0.32978  0.16489  0.75000  1
 Pr  Pr6  1  0.83511  0.16489  0.75000  1
