CIF file written using JARVIS-Tools package.
data_CrRe5B2
_symmetry_space_group_name_H-M  'Amm2'
_cell_length_a       4.89524
_cell_length_b       4.89524
_cell_length_c       7.21151
_cell_angle_alpha    90
_cell_angle_beta     90
_cell_angle_gamma    145.436

_symmetry_Int_Tables_number  38
_chemical_formula_structural  CrRe5B2
_chemical_formula_sum  CrRe5B2
_cell_volume  98.04053321420761
_cell_formula_units_Z  1
loop_
  _symmetry_equiv_pos_site_id
 _symmetry_equiv_pos_as_xyz
 1  'x, y, z'
loop_
 _atom_site_type_symbol
 _atom_site_label
 _atom_site_symmetry_multiplicity
 _atom_site_fract_x
 _atom_site_fract_y
 _atom_site_fract_z
 _atom_site_fract_occupancy
 B  B1  1  0.24418  0.75582  0.00000  1
 B  B2  1  0.74413  0.25587  0.50000  1
 Cr  Cr1  1  0.57425  0.42575  0.00000  1
 Re  Re1  1  0.86853  0.13147  0.18243  1
 Re  Re2  1  0.13610  0.86390  0.30380  1
 Re  Re3  1  0.86853  0.13147  0.81757  1
 Re  Re4  1  0.13610  0.86390  0.69620  1
 Re  Re5  1  0.42819  0.57181  0.50000  1
