CIF file written using JARVIS-Tools package.
data_Li2AgF3
_symmetry_space_group_name_H-M  'Pnma'
_cell_length_a       5.32438
_cell_length_b       5.44432
_cell_length_c       9.11279
_cell_angle_alpha    90
_cell_angle_beta     90
_cell_angle_gamma    90

_symmetry_Int_Tables_number  62
_chemical_formula_structural  Li2AgF3
_chemical_formula_sum  Li8Ag4F2
_cell_volume  264.1580975757024
_cell_formula_units_Z  4
loop_
  _symmetry_equiv_pos_site_id
 _symmetry_equiv_pos_as_xyz
 1  'x, y, z'
loop_
 _atom_site_type_symbol
 _atom_site_label
 _atom_site_symmetry_multiplicity
 _atom_site_fract_x
 _atom_site_fract_y
 _atom_site_fract_z
 _atom_site_fract_occupancy
 Ag  Ag1  1  0.99572  0.75000  0.50152  1
 Ag  Ag2  1  0.00428  0.25000  0.49848  1
 Ag  Ag3  1  0.50428  0.75000  0.00152  1
 Ag  Ag4  1  0.49572  0.25000  0.99848  1
 F  F1  1  0.83548  0.75000  0.28149  1
 F  F2  1  0.83548  0.25000  0.28121  1
 F  F3  1  0.50039  0.75000  0.50013  1
 F  F4  1  0.49961  0.25000  0.49987  1
 F  F5  1  0.16452  0.75000  0.71879  1
 F  F6  1  0.16452  0.25000  0.71851  1
 F  F7  1  0.66452  0.75000  0.78149  1
 F  F8  1  0.66452  0.25000  0.78121  1
 F  F9  1  -0.00039  0.75000  0.00013  1
 F  F10  1  0.00039  0.25000  -0.00013  1
 F  F11  1  0.33548  0.25000  0.21851  1
 F  F12  1  0.33548  0.75000  0.21879  1
 Li  Li1  1  0.03449  0.99978  0.16106  1
 Li  Li2  1  0.03449  0.50022  0.16106  1
 Li  Li3  1  0.53449  0.49978  0.33894  1
 Li  Li4  1  0.53449  0.00022  0.33894  1
 Li  Li5  1  0.46551  0.99978  0.66106  1
 Li  Li6  1  0.46551  0.50022  0.66106  1
 Li  Li7  1  0.96551  0.49978  0.83894  1
 Li  Li8  1  0.96551  0.00022  0.83894  1
