CIF file written using JARVIS-Tools package.
data_Dy2S3
_symmetry_space_group_name_H-M  'Pnma'
_cell_length_a       3.86152
_cell_length_b       10.4378
_cell_length_c       10.6314
_cell_angle_alpha    90
_cell_angle_beta     90
_cell_angle_gamma    90

_symmetry_Int_Tables_number  62
_chemical_formula_structural  Dy2S3
_chemical_formula_sum  Dy8S2
_cell_volume  428.5065159393935
_cell_formula_units_Z  4
loop_
  _symmetry_equiv_pos_site_id
 _symmetry_equiv_pos_as_xyz
 1  'x, y, z'
loop_
 _atom_site_type_symbol
 _atom_site_label
 _atom_site_symmetry_multiplicity
 _atom_site_fract_x
 _atom_site_fract_y
 _atom_site_fract_z
 _atom_site_fract_occupancy
 Dy  Dy1  1  0.25000  0.99672  0.80738  1
 Dy  Dy2  1  0.75000  0.00328  0.19262  1
 Dy  Dy3  1  0.75000  0.49672  0.69262  1
 Dy  Dy4  1  0.25000  0.50328  0.30738  1
 Dy  Dy5  1  0.25000  0.18691  0.48927  1
 Dy  Dy6  1  0.75000  0.81309  0.51073  1
 Dy  Dy7  1  0.75000  0.68691  0.01073  1
 Dy  Dy8  1  0.25000  0.31309  0.98927  1
 S  S1  1  0.25000  0.30303  0.72765  1
 S  S2  1  0.75000  0.37365  0.45416  1
 S  S3  1  0.75000  0.80303  0.77235  1
 S  S4  1  0.25000  0.19697  0.22765  1
 S  S5  1  0.75000  0.69697  0.27235  1
 S  S6  1  0.25000  0.87365  0.04584  1
 S  S7  1  0.75000  0.44427  0.11934  1
 S  S8  1  0.25000  0.55573  0.88066  1
 S  S9  1  0.25000  0.94427  0.38066  1
 S  S10  1  0.75000  0.12635  0.95416  1
 S  S11  1  0.75000  0.05573  0.61934  1
 S  S12  1  0.25000  0.62635  0.54584  1
