CIF file written using JARVIS-Tools package.
data_BaNdO3
_symmetry_space_group_name_H-M  'R-3c'
_cell_length_a       6.33921
_cell_length_b       6.3392
_cell_length_c       6.3392
_cell_angle_alpha    61.2559
_cell_angle_beta     61.2559
_cell_angle_gamma    61.256

_symmetry_Int_Tables_number  167
_chemical_formula_structural  BaNdO3
_chemical_formula_sum  Ba2Nd2O6
_cell_volume  185.2183865080647
_cell_formula_units_Z  2
loop_
  _symmetry_equiv_pos_site_id
 _symmetry_equiv_pos_as_xyz
 1  'x, y, z'
loop_
 _atom_site_type_symbol
 _atom_site_label
 _atom_site_symmetry_multiplicity
 _atom_site_fract_x
 _atom_site_fract_y
 _atom_site_fract_z
 _atom_site_fract_occupancy
 Ba  Ba1  1  0.25000  0.25000  0.25000  1
 Ba  Ba2  1  0.75000  0.75000  0.75000  1
 Nd  Nd1  1  0.00000  0.00000  0.00000  1
 Nd  Nd2  1  0.50000  0.50000  0.50000  1
 O  O1  1  0.16495  0.75000  0.33505  1
 O  O2  1  0.33505  0.16495  0.75000  1
 O  O3  1  0.25000  0.66495  0.83505  1
 O  O4  1  0.75000  0.33505  0.16495  1
 O  O5  1  0.66495  0.83505  0.25000  1
 O  O6  1  0.83505  0.25000  0.66495  1
