CIF file written using JARVIS-Tools package.
data_SnH4C3O6
_symmetry_space_group_name_H-M  'P1'
_cell_length_a       4.56837
_cell_length_b       5.13468
_cell_length_c       6.70656
_cell_angle_alpha    107.799
_cell_angle_beta     90.6703
_cell_angle_gamma    97.1197

_symmetry_Int_Tables_number  1
_chemical_formula_structural  SnH4C3O6
_chemical_formula_sum  SnH4C3O6
_cell_volume  148.42670048793622
_cell_formula_units_Z  1
loop_
  _symmetry_equiv_pos_site_id
 _symmetry_equiv_pos_as_xyz
 1  'x, y, z'
loop_
 _atom_site_type_symbol
 _atom_site_label
 _atom_site_symmetry_multiplicity
 _atom_site_fract_x
 _atom_site_fract_y
 _atom_site_fract_z
 _atom_site_fract_occupancy
 C  C1  1  0.81619  0.34717  0.25833  1
 C  C2  1  0.80648  0.77380  0.55694  1
 C  C3  1  0.62443  0.55325  0.38605  1
 H  H1  1  0.51958  0.65665  0.28829  1
 H  H2  1  0.45377  0.45005  0.46037  1
 H  H3  1  0.33842  0.60488  0.87780  1
 H  H4  1  0.14740  0.95675  0.15285  1
 O  O1  1  0.36551  0.42193  0.77597  1
 O  O2  1  0.28068  0.92702  0.03374  1
 O  O3  1  0.89908  0.39801  0.08486  1
 O  O4  1  0.88532  0.15729  0.31939  1
 O  O5  1  0.68919  0.93771  0.71145  1
 O  O6  1  0.08929  0.80414  0.55752  1
 Sn  Sn1  1  0.12707  0.13359  0.85738  1
