CIF file written using JARVIS-Tools package.
data_CdIn2Te4
_symmetry_space_group_name_H-M  'I-4'
_cell_length_a       6.33136
_cell_length_b       6.33136
_cell_length_c       7.73475
_cell_angle_alpha    114.16
_cell_angle_beta     114.16
_cell_angle_gamma    89.9999

_symmetry_Int_Tables_number  82
_chemical_formula_structural  CdIn2Te4
_chemical_formula_sum  CdIn2Te4
_cell_volume  252.83876618412745
_cell_formula_units_Z  1
loop_
  _symmetry_equiv_pos_site_id
 _symmetry_equiv_pos_as_xyz
 1  'x, y, z'
loop_
 _atom_site_type_symbol
 _atom_site_label
 _atom_site_symmetry_multiplicity
 _atom_site_fract_x
 _atom_site_fract_y
 _atom_site_fract_z
 _atom_site_fract_occupancy
 Cd  Cd1  1  0.00000  0.00000  0.00000  1
 In  In1  1  0.50000  0.50000  0.00000  1
 In  In2  1  0.25000  0.75000  0.50000  1
 Te  Te1  1  0.41772  0.36281  0.27715  1
 Te  Te2  1  0.08566  0.58228  0.72285  1
 Te  Te3  1  0.63719  0.14057  0.72285  1
 Te  Te4  1  0.85943  0.91434  0.27715  1
