CIF file written using JARVIS-Tools package.
data_Xe
_symmetry_space_group_name_H-M  'R-3m'
_cell_length_a       10.9373
_cell_length_b       10.9373
_cell_length_c       10.9373
_cell_angle_alpha    22.9216
_cell_angle_beta     22.9216
_cell_angle_gamma    22.9216

_symmetry_Int_Tables_number  166
_chemical_formula_structural  Xe
_chemical_formula_sum  Xe3
_cell_volume  174.1641444448404
_cell_formula_units_Z  3
loop_
  _symmetry_equiv_pos_site_id
 _symmetry_equiv_pos_as_xyz
 1  'x, y, z'
loop_
 _atom_site_type_symbol
 _atom_site_label
 _atom_site_symmetry_multiplicity
 _atom_site_fract_x
 _atom_site_fract_y
 _atom_site_fract_z
 _atom_site_fract_occupancy
 Xe  Xe1  1  0.00000  0.00000  0.00000  1
 Xe  Xe2  1  0.22224  0.22224  0.22224  1
 Xe  Xe3  1  0.77776  0.77776  0.77776  1
