CIF file written using JARVIS-Tools package.
data_LiCl
_symmetry_space_group_name_H-M  'P6_3mc'
_cell_length_a       3.88345
_cell_length_b       3.88346
_cell_length_c       6.21914
_cell_angle_alpha    90
_cell_angle_beta     90
_cell_angle_gamma    120

_symmetry_Int_Tables_number  186
_chemical_formula_structural  LiCl
_chemical_formula_sum  Li2Cl2
_cell_volume  81.22629525208495
_cell_formula_units_Z  2
loop_
  _symmetry_equiv_pos_site_id
 _symmetry_equiv_pos_as_xyz
 1  'x, y, z'
loop_
 _atom_site_type_symbol
 _atom_site_label
 _atom_site_symmetry_multiplicity
 _atom_site_fract_x
 _atom_site_fract_y
 _atom_site_fract_z
 _atom_site_fract_occupancy
 Cl  Cl1  1  0.66667  0.33333  0.49704  1
 Cl  Cl2  1  0.33333  0.66667  0.99704  1
 Li  Li1  1  0.66667  0.33333  0.87796  1
 Li  Li2  1  0.33333  0.66667  0.37796  1
