CIF file written using JARVIS-Tools package.
data_TmNiGe
_symmetry_space_group_name_H-M  'C2/m'
_cell_length_a       5.42914
_cell_length_b       5.42914
_cell_length_c       6.76318
_cell_angle_alpha    52.0267
_cell_angle_beta     52.0267
_cell_angle_gamma    44.1467

_symmetry_Int_Tables_number  12
_chemical_formula_structural  TmNiGe
_chemical_formula_sum  Tm2Ni2Ge2
_cell_volume  103.8246093893365
_cell_formula_units_Z  2
loop_
  _symmetry_equiv_pos_site_id
 _symmetry_equiv_pos_as_xyz
 1  'x, y, z'
loop_
 _atom_site_type_symbol
 _atom_site_label
 _atom_site_symmetry_multiplicity
 _atom_site_fract_x
 _atom_site_fract_y
 _atom_site_fract_z
 _atom_site_fract_occupancy
 Ge  Ge1  1  0.83047  0.83047  0.10221  1
 Ge  Ge2  1  0.16953  0.16953  0.89779  1
 Ni  Ni1  1  0.16710  0.16710  0.28407  1
 Ni  Ni2  1  0.83290  0.83290  0.71593  1
 Tm  Tm1  1  0.55187  0.55187  0.68760  1
 Tm  Tm2  1  0.44813  0.44813  0.31240  1
