CIF file written using JARVIS-Tools package.
data_H6PbCNCl3
_symmetry_space_group_name_H-M  'Pm'
_cell_length_a       5.70275
_cell_length_b       5.64409
_cell_length_c       5.77839
_cell_angle_alpha    89.9973
_cell_angle_beta     87.5714
_cell_angle_gamma    90.0012

_symmetry_Int_Tables_number  6
_chemical_formula_structural  H6PbCNCl3
_chemical_formula_sum  H6PbCNCl3
_cell_volume  185.82086538654272
_cell_formula_units_Z  1
loop_
  _symmetry_equiv_pos_site_id
 _symmetry_equiv_pos_as_xyz
 1  'x, y, z'
loop_
 _atom_site_type_symbol
 _atom_site_label
 _atom_site_symmetry_multiplicity
 _atom_site_fract_x
 _atom_site_fract_y
 _atom_site_fract_z
 _atom_site_fract_occupancy
 C  C1  1  0.90236  0.99995  0.94554  1
 Cl  Cl1  1  0.43407  0.49994  0.98692  1
 Cl  Cl2  1  0.44009  0.99995  0.52932  1
 Cl  Cl3  1  0.97551  0.49994  0.44134  1
 H  H1  1  0.93994  0.99993  0.75801  1
 H  H2  1  0.80388  0.15977  0.99670  1
 H  H3  1  0.80383  0.84017  0.99674  1
 H  H4  1  0.22950  0.14969  0.02061  1
 H  H5  1  0.22947  0.85016  0.02063  1
 H  H6  1  0.10713  0.99993  0.24317  1
 N  N1  1  0.12999  0.99993  0.06443  1
 Pb  Pb1  1  0.48220  0.49994  0.49238  1
