CIF file written using JARVIS-Tools package.
data_H4C3SO
_symmetry_space_group_name_H-M  'P1'
_cell_length_a       4.58189
_cell_length_b       4.59462
_cell_length_c       4.81544
_cell_angle_alpha    71.5557
_cell_angle_beta     71.5211
_cell_angle_gamma    78.9284

_symmetry_Int_Tables_number  1
_chemical_formula_structural  H4C3SO
_chemical_formula_sum  H4C3SO
_cell_volume  90.73352532555684
_cell_formula_units_Z  1
loop_
  _symmetry_equiv_pos_site_id
 _symmetry_equiv_pos_as_xyz
 1  'x, y, z'
loop_
 _atom_site_type_symbol
 _atom_site_label
 _atom_site_symmetry_multiplicity
 _atom_site_fract_x
 _atom_site_fract_y
 _atom_site_fract_z
 _atom_site_fract_occupancy
 C  C1  1  0.40089  0.03145  0.91278  1
 C  C2  1  0.57086  0.91973  0.63816  1
 C  C3  1  0.45944  0.08964  0.36339  1
 H  H1  1  0.35852  0.28657  0.84415  1
 H  H2  1  0.20362  0.13272  0.43186  1
 H  H3  1  0.54829  0.32138  0.27297  1
 H  H4  1  0.16814  0.94357  0.00325  1
 O  O1  1  0.56386  0.92696  0.13809  1
 S  S1  1  0.85000  0.64037  0.63826  1
