CIF file written using JARVIS-Tools package.
data_Y2MgMn2S2O5
_symmetry_space_group_name_H-M  'Imm2'
_cell_length_a       3.89901
_cell_length_b       3.93935
_cell_length_c       11.415
_cell_angle_alpha    99.9352
_cell_angle_beta     99.8365
_cell_angle_gamma    89.9982

_symmetry_Int_Tables_number  44
_chemical_formula_structural  Y2MgMn2S2O5
_chemical_formula_sum  Y2MgMn2S2O5
_cell_volume  170.0835028248234
_cell_formula_units_Z  1
loop_
  _symmetry_equiv_pos_site_id
 _symmetry_equiv_pos_as_xyz
 1  'x, y, z'
loop_
 _atom_site_type_symbol
 _atom_site_label
 _atom_site_symmetry_multiplicity
 _atom_site_fract_x
 _atom_site_fract_y
 _atom_site_fract_z
 _atom_site_fract_occupancy
 Mg  Mg1  1  0.99832  0.50107  0.99967  1
 Mn  Mn1  1  0.90782  0.90896  0.81546  1
 Mn  Mn2  1  0.09190  0.09316  0.18389  1
 O  O1  1  0.39696  0.89816  0.79384  1
 O  O2  1  0.60267  0.10397  0.20551  1
 O  O3  1  0.90740  0.40873  0.81499  1
 O  O4  1  0.09194  0.59340  0.18436  1
 O  O5  1  0.99943  0.00106  -0.00033  1
 S  S1  1  0.79527  0.79644  0.59046  1
 S  S2  1  0.20443  0.20566  0.40890  1
 Y  Y1  1  0.66269  0.66397  0.32550  1
 Y  Y2  1  0.33697  0.33815  0.67386  1
