CIF file written using JARVIS-Tools package.
data_La2MgAl3
_symmetry_space_group_name_H-M  'R-3m'
_cell_length_a       5.8062
_cell_length_b       5.8062
_cell_length_c       5.8062
_cell_angle_alpha    60.9561
_cell_angle_beta     60.9562
_cell_angle_gamma    60.9561

_symmetry_Int_Tables_number  166
_chemical_formula_structural  La2MgAl3
_chemical_formula_sum  La2MgAl3
_cell_volume  141.3894463998537
_cell_formula_units_Z  1
loop_
  _symmetry_equiv_pos_site_id
 _symmetry_equiv_pos_as_xyz
 1  'x, y, z'
loop_
 _atom_site_type_symbol
 _atom_site_label
 _atom_site_symmetry_multiplicity
 _atom_site_fract_x
 _atom_site_fract_y
 _atom_site_fract_z
 _atom_site_fract_occupancy
 Al  Al1  1  -0.00000  0.50000  0.00000  1
 Al  Al2  1  0.50000  0.00000  0.00000  1
 Al  Al3  1  -0.00000  -0.00000  0.50000  1
 La  La1  1  0.62025  0.62025  0.62025  1
 La  La2  1  0.37975  0.37975  0.37975  1
 Mg  Mg1  1  0.00000  0.00000  0.00000  1
