CIF file written using JARVIS-Tools package.
data_CeGePd
_symmetry_space_group_name_H-M  'C2/m'
_cell_length_a       5.66768
_cell_length_b       5.66768
_cell_length_c       7.3775
_cell_angle_alpha    51.3511
_cell_angle_beta     51.3511
_cell_angle_gamma    46.469

_symmetry_Int_Tables_number  12
_chemical_formula_structural  CeGePd
_chemical_formula_sum  Ce2Ge2Pd2
_cell_volume  126.02895905317207
_cell_formula_units_Z  2
loop_
  _symmetry_equiv_pos_site_id
 _symmetry_equiv_pos_as_xyz
 1  'x, y, z'
loop_
 _atom_site_type_symbol
 _atom_site_label
 _atom_site_symmetry_multiplicity
 _atom_site_fract_x
 _atom_site_fract_y
 _atom_site_fract_z
 _atom_site_fract_occupancy
 Ce  Ce1  1  0.46653  0.46653  0.29601  1
 Ce  Ce2  1  0.53347  0.53347  0.70399  1
 Ge  Ge1  1  0.15908  0.15908  0.89397  1
 Ge  Ge2  1  0.84092  0.84092  0.10603  1
 Pd  Pd1  1  0.81972  0.81972  0.70796  1
 Pd  Pd2  1  0.18028  0.18028  0.29204  1
