CIF file written using JARVIS-Tools package.
data_ErInAu
_symmetry_space_group_name_H-M  'P-62m'
_cell_length_a       7.74764
_cell_length_b       7.74764
_cell_length_c       3.88875
_cell_angle_alpha    90
_cell_angle_beta     90
_cell_angle_gamma    120

_symmetry_Int_Tables_number  189
_chemical_formula_structural  ErInAu
_chemical_formula_sum  Er3In3Au3
_cell_volume  202.1526838791553
_cell_formula_units_Z  3
loop_
  _symmetry_equiv_pos_site_id
 _symmetry_equiv_pos_as_xyz
 1  'x, y, z'
loop_
 _atom_site_type_symbol
 _atom_site_label
 _atom_site_symmetry_multiplicity
 _atom_site_fract_x
 _atom_site_fract_y
 _atom_site_fract_z
 _atom_site_fract_occupancy
 Au  Au1  1  0.66667  0.33333  0.00000  1
 Au  Au2  1  0.33333  0.66667  0.00000  1
 Au  Au3  1  0.00000  0.00000  0.50000  1
 Er  Er1  1  -0.00000  0.40131  0.50000  1
 Er  Er2  1  0.59869  0.59869  0.50000  1
 Er  Er3  1  0.40131  -0.00000  0.50000  1
 In  In1  1  0.73477  0.00000  0.00000  1
 In  In2  1  0.26523  0.26523  0.00000  1
 In  In3  1  0.00000  0.73477  0.00000  1
