CIF file written using JARVIS-Tools package.
data_CdPS3
_symmetry_space_group_name_H-M  'R-3'
_cell_length_a       7.44946
_cell_length_b       7.44946
_cell_length_c       7.44946
_cell_angle_alpha    49.7507
_cell_angle_beta     49.7506
_cell_angle_gamma    49.7507

_symmetry_Int_Tables_number  148
_chemical_formula_structural  CdPS3
_chemical_formula_sum  Cd2P2S6
_cell_volume  221.49592595377675
_cell_formula_units_Z  2
loop_
  _symmetry_equiv_pos_site_id
 _symmetry_equiv_pos_as_xyz
 1  'x, y, z'
loop_
 _atom_site_type_symbol
 _atom_site_label
 _atom_site_symmetry_multiplicity
 _atom_site_fract_x
 _atom_site_fract_y
 _atom_site_fract_z
 _atom_site_fract_occupancy
 Cd  Cd1  1  0.67210  0.67210  0.67210  1
 Cd  Cd2  1  0.32810  0.32810  0.32810  1
 P  P1  1  0.94198  0.94198  0.94198  1
 P  P2  1  0.05824  0.05824  0.05824  1
 S  S1  1  0.90112  0.23153  0.60511  1
 S  S2  1  0.60511  0.90112  0.23153  1
 S  S3  1  0.76866  0.39512  0.09908  1
 S  S4  1  0.09908  0.76866  0.39512  1
 S  S5  1  0.39512  0.09908  0.76866  1
 S  S6  1  0.23153  0.60511  0.90112  1
