CIF file written using JARVIS-Tools package.
data_Dy2TeO6
_symmetry_space_group_name_H-M  'P4_2/mnm'
_cell_length_a       4.97933
_cell_length_b       10.0992
_cell_length_c       4.97944
_cell_angle_alpha    90
_cell_angle_beta     90.0001
_cell_angle_gamma    90

_symmetry_Int_Tables_number  136
_chemical_formula_structural  Dy2TeO6
_chemical_formula_sum  Dy4Te2O2
_cell_volume  250.40147997834785
_cell_formula_units_Z  2
loop_
  _symmetry_equiv_pos_site_id
 _symmetry_equiv_pos_as_xyz
 1  'x, y, z'
loop_
 _atom_site_type_symbol
 _atom_site_label
 _atom_site_symmetry_multiplicity
 _atom_site_fract_x
 _atom_site_fract_y
 _atom_site_fract_z
 _atom_site_fract_occupancy
 Dy  Dy1  1  0.00000  0.66550  0.00000  1
 Dy  Dy2  1  0.00000  0.33450  0.00000  1
 Dy  Dy3  1  0.50000  0.83450  0.50000  1
 Dy  Dy4  1  0.50000  0.16550  0.50000  1
 O  O1  1  0.18332  0.85408  0.18332  1
 O  O2  1  0.18332  0.14592  0.18332  1
 O  O3  1  0.81668  0.85408  0.81668  1
 O  O4  1  0.72189  0.00000  0.27813  1
 O  O5  1  0.22180  0.50000  0.22195  1
 O  O6  1  0.68326  0.35408  0.31662  1
 O  O7  1  0.31674  0.35408  0.68338  1
 O  O8  1  0.68326  0.64592  0.31662  1
 O  O9  1  0.27811  0.00000  0.72187  1
 O  O10  1  0.77820  0.50000  0.77805  1
 O  O11  1  0.31674  0.64592  0.68338  1
 O  O12  1  0.81668  0.14592  0.81668  1
 Te  Te1  1  0.50000  0.50000  0.50000  1
 Te  Te2  1  0.00000  0.00000  0.00000  1
