CIF file written using JARVIS-Tools package.
data_CdH14C9O4
_symmetry_space_group_name_H-M  'P1'
_cell_length_a       4.04683
_cell_length_b       4.33306
_cell_length_c       13.366
_cell_angle_alpha    86.2691
_cell_angle_beta     83.6827
_cell_angle_gamma    73.8404

_symmetry_Int_Tables_number  1
_chemical_formula_structural  CdH14C9O4
_chemical_formula_sum  CdH4C9O4
_cell_volume  223.60279862157452
_cell_formula_units_Z  1
loop_
  _symmetry_equiv_pos_site_id
 _symmetry_equiv_pos_as_xyz
 1  'x, y, z'
loop_
 _atom_site_type_symbol
 _atom_site_label
 _atom_site_symmetry_multiplicity
 _atom_site_fract_x
 _atom_site_fract_y
 _atom_site_fract_z
 _atom_site_fract_occupancy
 C  C1  1  0.58305  0.60250  0.31780  1
 C  C2  1  0.18890  0.58203  0.68928  1
 C  C3  1  0.07948  0.73900  0.58845  1
 C  C4  1  0.34414  0.77292  0.40689  1
 C  C5  1  0.26464  0.55223  0.49508  1
 C  C6  1  0.41181  0.46287  0.24234  1
 C  C7  1  0.64723  0.29237  0.15282  1
 C  C8  1  0.73873  0.51817  0.06667  1
 C  C9  1  0.86369  0.33554  0.97065  1
 Cd  Cd1  1  0.50274  0.97264  0.83166  1
 H  H1  1  0.10994  0.40150  0.47250  1
 H  H2  1  0.12445  0.97834  0.58725  1
 H  H3  1  0.79654  0.78714  0.59165  1
 H  H4  1  0.20429  0.65697  0.21239  1
 H  H5  1  0.50925  0.71514  0.05319  1
 H  H6  1  0.94295  0.62140  0.08486  1
 H  H7  1  0.50953  0.38633  0.51566  1
 H  H8  1  0.10078  0.92661  0.38052  1
 H  H9  1  0.79025  0.40914  0.34829  1
 H  H10  1  0.70976  0.77413  0.27776  1
 H  H11  1  0.50930  0.14153  0.12131  1
 H  H12  1  0.88690  0.12945  0.17798  1
 H  H13  1  0.47225  0.93642  0.43628  1
 H  H14  1  0.28522  0.29069  0.28214  1
 O  O1  1  0.39031  0.30047  0.69164  1
 O  O2  1  0.13404  0.09878  0.97166  1
 O  O3  1  0.08020  0.75433  0.76800  1
 O  O4  1  0.68696  0.41483  0.89414  1
