CIF file written using JARVIS-Tools package.
data_CaAgSn
_symmetry_space_group_name_H-M  'P-6m2'
_cell_length_a       4.82791
_cell_length_b       4.82791
_cell_length_c       10.942
_cell_angle_alpha    90
_cell_angle_beta     90
_cell_angle_gamma    120

_symmetry_Int_Tables_number  187
_chemical_formula_structural  CaAgSn
_chemical_formula_sum  Ca3Ag3Sn3
_cell_volume  220.8743336830203
_cell_formula_units_Z  3
loop_
  _symmetry_equiv_pos_site_id
 _symmetry_equiv_pos_as_xyz
 1  'x, y, z'
loop_
 _atom_site_type_symbol
 _atom_site_label
 _atom_site_symmetry_multiplicity
 _atom_site_fract_x
 _atom_site_fract_y
 _atom_site_fract_z
 _atom_site_fract_occupancy
 Ag  Ag1  1  0.66667  0.33333  0.99511  1
 Ag  Ag2  1  0.33333  0.66667  0.68678  1
 Ag  Ag3  1  0.33333  0.66667  0.30338  1
 Ca  Ca1  1  0.00000  0.00000  0.82720  1
 Ca  Ca2  1  0.00000  0.00000  0.49510  1
 Ca  Ca3  1  0.00000  0.00000  0.16303  1
 Sn  Sn1  1  0.66667  0.33333  0.64169  1
 Sn  Sn2  1  0.66667  0.33333  0.34855  1
 Sn  Sn3  1  0.33333  0.66667  0.99515  1
