CIF file written using JARVIS-Tools package.
data_Er3Al3CoGe2
_symmetry_space_group_name_H-M  'P-62m'
_cell_length_a       6.87237
_cell_length_b       6.87236
_cell_length_c       4.12511
_cell_angle_alpha    90
_cell_angle_beta     90
_cell_angle_gamma    120

_symmetry_Int_Tables_number  189
_chemical_formula_structural  Er3Al3CoGe2
_chemical_formula_sum  Er3Al3CoGe2
_cell_volume  168.7247905289689
_cell_formula_units_Z  1
loop_
  _symmetry_equiv_pos_site_id
 _symmetry_equiv_pos_as_xyz
 1  'x, y, z'
loop_
 _atom_site_type_symbol
 _atom_site_label
 _atom_site_symmetry_multiplicity
 _atom_site_fract_x
 _atom_site_fract_y
 _atom_site_fract_z
 _atom_site_fract_occupancy
 Al  Al1  1  0.22736  0.00000  0.50000  1
 Al  Al2  1  0.00000  0.22736  0.50000  1
 Al  Al3  1  0.77264  0.77264  0.50000  1
 Co  Co1  1  0.00000  0.00000  0.00000  1
 Er  Er1  1  0.59839  -0.00000  0.00000  1
 Er  Er2  1  -0.00000  0.59839  0.00000  1
 Er  Er3  1  0.40161  0.40161  0.00000  1
 Ge  Ge1  1  0.33333  0.66667  0.50000  1
 Ge  Ge2  1  0.66667  0.33333  0.50000  1
