CIF file written using JARVIS-Tools package.
data_Pr2UTe4
_symmetry_space_group_name_H-M  'I-42d'
_cell_length_a       8.2334
_cell_length_b       8.23339
_cell_length_c       8.2334
_cell_angle_alpha    109.4
_cell_angle_beta     109.613
_cell_angle_gamma    109.4

_symmetry_Int_Tables_number  122
_chemical_formula_structural  Pr2UTe4
_chemical_formula_sum  Pr4U2Te8
_cell_volume  429.6482305632394
_cell_formula_units_Z  2
loop_
  _symmetry_equiv_pos_site_id
 _symmetry_equiv_pos_as_xyz
 1  'x, y, z'
loop_
 _atom_site_type_symbol
 _atom_site_label
 _atom_site_symmetry_multiplicity
 _atom_site_fract_x
 _atom_site_fract_y
 _atom_site_fract_z
 _atom_site_fract_occupancy
 Pr  Pr1  1  0.25000  0.62221  0.37221  1
 Pr  Pr2  1  0.75000  0.87779  0.12779  1
 Pr  Pr3  1  0.62779  0.37779  0.25000  1
 Pr  Pr4  1  0.87221  0.12221  0.75000  1
 Te  Te1  1  0.15429  0.14851  0.15312  1
 Te  Te2  1  0.34571  0.49883  0.99422  1
 Te  Te3  1  0.49422  0.99883  0.84571  1
 Te  Te4  1  0.65312  0.64851  0.65429  1
 Te  Te5  1  0.49539  0.00117  0.34688  1
 Te  Te6  1  0.00578  0.85149  0.50461  1
 Te  Te7  1  0.84688  0.50117  0.99539  1
 Te  Te8  1  0.00461  0.35149  0.50578  1
 U  U1  1  0.12500  0.75000  0.87500  1
 U  U2  1  0.37500  0.25000  0.62500  1
