CIF file written using JARVIS-Tools package.
data_MnCr3Te4
_symmetry_space_group_name_H-M  'C2/m'
_cell_length_a       7.37502
_cell_length_b       7.37501
_cell_length_c       7.17066
_cell_angle_alpha    60.7671
_cell_angle_beta     60.7672
_cell_angle_gamma    32.5912

_symmetry_Int_Tables_number  12
_chemical_formula_structural  MnCr3Te4
_chemical_formula_sum  MnCr3Te4
_cell_volume  180.85450166018953
_cell_formula_units_Z  1
loop_
  _symmetry_equiv_pos_site_id
 _symmetry_equiv_pos_as_xyz
 1  'x, y, z'
loop_
 _atom_site_type_symbol
 _atom_site_label
 _atom_site_symmetry_multiplicity
 _atom_site_fract_x
 _atom_site_fract_y
 _atom_site_fract_z
 _atom_site_fract_occupancy
 Cr  Cr1  1  0.50000  0.50000  0.50000  1
 Cr  Cr2  1  0.24363  0.24363  0.75346  1
 Cr  Cr3  1  0.75637  0.75637  0.24654  1
 Mn  Mn1  1  0.00000  0.00000  0.00000  1
 Te  Te1  1  0.87162  0.87162  0.79083  1
 Te  Te2  1  0.37546  0.37546  0.29515  1
 Te  Te3  1  0.62454  0.62454  0.70485  1
 Te  Te4  1  0.12838  0.12838  0.20917  1
