CIF file written using JARVIS-Tools package.
data_FeBiO3
_symmetry_space_group_name_H-M  'Pnma'
_cell_length_a       5.42761
_cell_length_b       5.60971
_cell_length_c       7.73401
_cell_angle_alpha    90
_cell_angle_beta     90
_cell_angle_gamma    90

_symmetry_Int_Tables_number  62
_chemical_formula_structural  FeBiO3
_chemical_formula_sum  Fe4Bi4O2
_cell_volume  235.48013386858887
_cell_formula_units_Z  4
loop_
  _symmetry_equiv_pos_site_id
 _symmetry_equiv_pos_as_xyz
 1  'x, y, z'
loop_
 _atom_site_type_symbol
 _atom_site_label
 _atom_site_symmetry_multiplicity
 _atom_site_fract_x
 _atom_site_fract_y
 _atom_site_fract_z
 _atom_site_fract_occupancy
 Bi  Bi1  1  0.49032  0.44577  0.75000  1
 Bi  Bi2  1  0.99032  0.05423  0.25000  1
 Bi  Bi3  1  0.50968  0.55423  0.25000  1
 Bi  Bi4  1  0.00968  0.94577  0.75000  1
 Fe  Fe1  1  0.50000  0.00000  0.50000  1
 Fe  Fe2  1  0.50000  0.00000  0.00000  1
 Fe  Fe3  1  0.00000  0.50000  0.50000  1
 Fe  Fe4  1  0.00000  0.50000  0.00000  1
 O  O1  1  0.41717  0.98005  0.25000  1
 O  O2  1  0.79603  0.79542  0.04132  1
 O  O3  1  0.20397  0.20458  0.95868  1
 O  O4  1  0.58283  0.01995  0.75000  1
 O  O5  1  0.29603  0.70458  0.54132  1
 O  O6  1  0.70397  0.29542  0.45868  1
 O  O7  1  0.91717  0.51995  0.75000  1
 O  O8  1  0.29603  0.70458  0.95868  1
 O  O9  1  0.70397  0.29542  0.04132  1
 O  O10  1  0.20397  0.20458  0.54132  1
 O  O11  1  0.79603  0.79542  0.45868  1
 O  O12  1  0.08283  0.48005  0.25000  1
