CIF file written using JARVIS-Tools package.
data_Co2SiGe
_symmetry_space_group_name_H-M  'P2_1'
_cell_length_a       4.53862
_cell_length_b       4.53559
_cell_length_c       4.55487
_cell_angle_alpha    89.373
_cell_angle_beta     90
_cell_angle_gamma    90

_symmetry_Int_Tables_number  4
_chemical_formula_structural  Co2SiGe
_chemical_formula_sum  Co4Si2Ge2
_cell_volume  93.75795675596616
_cell_formula_units_Z  2
loop_
  _symmetry_equiv_pos_site_id
 _symmetry_equiv_pos_as_xyz
 1  'x, y, z'
loop_
 _atom_site_type_symbol
 _atom_site_label
 _atom_site_symmetry_multiplicity
 _atom_site_fract_x
 _atom_site_fract_y
 _atom_site_fract_z
 _atom_site_fract_occupancy
 Co  Co1  1  0.63680  0.35665  0.60518  1
 Co  Co2  1  0.13680  0.64335  0.39482  1
 Co  Co3  1  0.36106  0.13397  0.11858  1
 Co  Co4  1  0.86106  0.86603  0.88142  1
 Ge  Ge1  1  0.34195  0.66099  0.90759  1
 Ge  Ge2  1  0.84195  0.33901  0.09241  1
 Si  Si1  1  0.66019  0.84237  0.41448  1
 Si  Si2  1  0.16019  0.15763  0.58552  1
