data_image0
_chemical_formula_structural       Ga2Hf6Ni
_chemical_formula_sum              "Ga2 Hf6 Ni1"
_cell_length_a       7.75273
_cell_length_b       7.75273
_cell_length_c       3.33907
_cell_angle_alpha    90
_cell_angle_beta     90
_cell_angle_gamma    120.001

_space_group_name_H-M_alt    "P 1"
_space_group_IT_number       1

loop_
  _space_group_symop_operation_xyz
  'x, y, z'

loop_
  _atom_site_type_symbol
  _atom_site_label
  _atom_site_symmetry_multiplicity
  _atom_site_fract_x
  _atom_site_fract_y
  _atom_site_fract_z
  _atom_site_occupancy
  Ga  Ga1       1.0  0.66700  0.33300  0.00000  1.0000
  Ga  Ga2       1.0  0.33300  0.66700  0.00000  1.0000
  Hf  Hf1       1.0  0.25400  0.00001  0.00000  1.0000
  Hf  Hf2       1.0  0.00001  0.25400  0.00000  1.0000
  Hf  Hf3       1.0  0.74600  0.74600  0.00000  1.0000
  Hf  Hf4       1.0  0.59800  0.00002  0.50000  1.0000
  Hf  Hf5       1.0  0.40200  0.40200  0.50000  1.0000
  Hf  Hf6       1.0  0.00002  0.59800  0.50000  1.0000
  Ni  Ni1       1.0  0.00000  0.00000  0.50000  1.0000
