CIF file written using JARVIS-Tools package.
data_SrZnIn3
_symmetry_space_group_name_H-M  'I4mm'
_cell_length_a       6.91539
_cell_length_b       6.91539
_cell_length_c       6.91538
_cell_angle_alpha    140.416
_cell_angle_beta     140.416
_cell_angle_gamma    57.2228

_symmetry_Int_Tables_number  107
_chemical_formula_structural  SrZnIn3
_chemical_formula_sum  SrZnIn3
_cell_volume  133.15173737868625
_cell_formula_units_Z  1
loop_
  _symmetry_equiv_pos_site_id
 _symmetry_equiv_pos_as_xyz
 1  'x, y, z'
loop_
 _atom_site_type_symbol
 _atom_site_label
 _atom_site_symmetry_multiplicity
 _atom_site_fract_x
 _atom_site_fract_y
 _atom_site_fract_z
 _atom_site_fract_occupancy
 In  In1  1  0.74170  0.24170  0.50000  1
 In  In2  1  0.24170  0.74170  0.50000  1
 In  In3  1  0.39735  0.39735  -0.00000  1
 Sr  Sr1  1  0.00525  0.00525  -0.00000  1
 Zn  Zn1  1  0.61401  0.61401  0.00000  1
