CIF file written using JARVIS-Tools package.
data_TmAlGa
_symmetry_space_group_name_H-M  'C2/m'
_cell_length_a       5.6689
_cell_length_b       5.66889
_cell_length_c       6.92419
_cell_angle_alpha    54.1643
_cell_angle_beta     54.1643
_cell_angle_gamma    43.8784

_symmetry_Int_Tables_number  12
_chemical_formula_structural  TmAlGa
_chemical_formula_sum  Tm2Al2Ga2
_cell_volume  119.63068716409641
_cell_formula_units_Z  2
loop_
  _symmetry_equiv_pos_site_id
 _symmetry_equiv_pos_as_xyz
 1  'x, y, z'
loop_
 _atom_site_type_symbol
 _atom_site_label
 _atom_site_symmetry_multiplicity
 _atom_site_fract_x
 _atom_site_fract_y
 _atom_site_fract_z
 _atom_site_fract_occupancy
 Al  Al1  1  0.16136  0.16136  0.40141  1
 Al  Al2  1  0.83864  0.83864  0.59859  1
 Ga  Ga1  1  0.83901  0.83901  0.20279  1
 Ga  Ga2  1  0.16099  0.16099  0.79721  1
 Tm  Tm1  1  0.56101  0.56101  0.18491  1
 Tm  Tm2  1  0.43899  0.43899  0.81509  1
