CIF file written using JARVIS-Tools package.
data_MnTeO4
_symmetry_space_group_name_H-M  'P2/m'
_cell_length_a       3.21325
_cell_length_b       4.66108
_cell_length_c       6.60426
_cell_angle_alpha    45.1745
_cell_angle_beta     90
_cell_angle_gamma    90

_symmetry_Int_Tables_number  10
_chemical_formula_structural  MnTeO4
_chemical_formula_sum  MnTeO4
_cell_volume  70.15495055695457
_cell_formula_units_Z  1
loop_
  _symmetry_equiv_pos_site_id
 _symmetry_equiv_pos_as_xyz
 1  'x, y, z'
loop_
 _atom_site_type_symbol
 _atom_site_label
 _atom_site_symmetry_multiplicity
 _atom_site_fract_x
 _atom_site_fract_y
 _atom_site_fract_z
 _atom_site_fract_occupancy
 Mn  Mn1  1  0.50000  0.50000  -0.00000  1
 O  O1  1  0.00000  0.50098  0.18196  1
 O  O2  1  0.50000  0.07734  0.71084  1
 O  O3  1  0.00000  0.49902  0.81804  1
 O  O4  1  0.50000  0.92266  0.28916  1
 Te  Te1  1  0.00000  0.50000  0.50000  1
