CIF file written using JARVIS-Tools package.
data_Ti2Cu
_symmetry_space_group_name_H-M  'I4/mmm'
_cell_length_a       2.92132
_cell_length_b       2.92131
_cell_length_c       5.76303
_cell_angle_alpha    104.682
_cell_angle_beta     104.682
_cell_angle_gamma    90.0001

_symmetry_Int_Tables_number  139
_chemical_formula_structural  Ti2Cu
_chemical_formula_sum  Ti2Cu
_cell_volume  45.91420473559313
_cell_formula_units_Z  1
loop_
  _symmetry_equiv_pos_site_id
 _symmetry_equiv_pos_as_xyz
 1  'x, y, z'
loop_
 _atom_site_type_symbol
 _atom_site_label
 _atom_site_symmetry_multiplicity
 _atom_site_fract_x
 _atom_site_fract_y
 _atom_site_fract_z
 _atom_site_fract_occupancy
 Cu  Cu1  1  0.00000  0.00000  0.00000  1
 Ti  Ti1  1  0.66242  0.66242  0.32483  1
 Ti  Ti2  1  0.33758  0.33758  0.67517  1
