CIF file written using JARVIS-Tools package.
data_LiNi4O5
_symmetry_space_group_name_H-M  'I4/m'
_cell_length_a       5.04395
_cell_length_b       5.04395
_cell_length_c       5.04395
_cell_angle_alpha    99.4016
_cell_angle_beta     99.4015
_cell_angle_gamma    132.322

_symmetry_Int_Tables_number  87
_chemical_formula_structural  LiNi4O5
_chemical_formula_sum  LiNi4O5
_cell_volume  86.78582243234598
_cell_formula_units_Z  1
loop_
  _symmetry_equiv_pos_site_id
 _symmetry_equiv_pos_as_xyz
 1  'x, y, z'
loop_
 _atom_site_type_symbol
 _atom_site_label
 _atom_site_symmetry_multiplicity
 _atom_site_fract_x
 _atom_site_fract_y
 _atom_site_fract_z
 _atom_site_fract_occupancy
 Li  Li1  1  0.00000  0.00000  0.00000  1
 Ni  Ni1  1  0.40040  0.79416  0.19456  1
 Ni  Ni2  1  0.79416  0.59960  0.39376  1
 Ni  Ni3  1  0.20584  0.40040  0.60624  1
 Ni  Ni4  1  0.59960  0.20584  0.80544  1
 O  O1  1  0.31127  0.11685  0.42813  1
 O  O2  1  0.68873  0.88315  0.57187  1
 O  O3  1  0.11685  0.68873  0.80558  1
 O  O4  1  0.50000  0.50000  0.00000  1
 O  O5  1  0.88315  0.31127  0.19442  1
