CIF file written using JARVIS-Tools package.
data_Ho2CoSi2
_symmetry_space_group_name_H-M  'C2/m'
_cell_length_a       5.56426
_cell_length_b       5.56426
_cell_length_c       9.93729
_cell_angle_alpha    63.1488
_cell_angle_beta     63.1488
_cell_angle_gamma    43.4763

_symmetry_Int_Tables_number  12
_chemical_formula_structural  Ho2CoSi2
_chemical_formula_sum  Ho4Co2Si4
_cell_volume  184.98013011078865
_cell_formula_units_Z  2
loop_
  _symmetry_equiv_pos_site_id
 _symmetry_equiv_pos_as_xyz
 1  'x, y, z'
loop_
 _atom_site_type_symbol
 _atom_site_label
 _atom_site_symmetry_multiplicity
 _atom_site_fract_x
 _atom_site_fract_y
 _atom_site_fract_z
 _atom_site_fract_occupancy
 Co  Co1  1  0.72685  0.72685  0.62392  1
 Co  Co2  1  0.27315  0.27315  0.37608  1
 Ho  Ho1  1  0.00042  0.00042  0.32848  1
 Ho  Ho2  1  -0.00042  -0.00042  0.67152  1
 Ho  Ho3  1  0.81367  0.81367  0.10629  1
 Ho  Ho4  1  0.18633  0.18633  0.89371  1
 Si  Si1  1  0.65181  0.65181  0.43331  1
 Si  Si2  1  0.34819  0.34819  0.56669  1
 Si  Si3  1  0.50750  0.50750  0.12574  1
 Si  Si4  1  0.49250  0.49250  0.87426  1
