CIF file written using JARVIS-Tools package.
data_TePb3Br2O4
_symmetry_space_group_name_H-M  'Amm2'
_cell_length_a       7.08232
_cell_length_b       7.08232
_cell_length_c       5.67178
_cell_angle_alpha    90
_cell_angle_beta     90
_cell_angle_gamma    132.723

_symmetry_Int_Tables_number  38
_chemical_formula_structural  TePb3Br2O4
_chemical_formula_sum  TePb3Br2O4
_cell_volume  209.00072681362076
_cell_formula_units_Z  1
loop_
  _symmetry_equiv_pos_site_id
 _symmetry_equiv_pos_as_xyz
 1  'x, y, z'
loop_
 _atom_site_type_symbol
 _atom_site_label
 _atom_site_symmetry_multiplicity
 _atom_site_fract_x
 _atom_site_fract_y
 _atom_site_fract_z
 _atom_site_fract_occupancy
 Br  Br1  1  0.49279  0.50721  0.00000  1
 Br  Br2  1  0.00248  0.99752  0.50000  1
 O  O1  1  0.98356  0.47957  0.76771  1
 O  O2  1  0.52043  0.01644  0.23229  1
 O  O3  1  0.52043  0.01644  0.76771  1
 O  O4  1  0.98356  0.47957  0.23229  1
 Pb  Pb1  1  0.14185  0.85815  0.00000  1
 Pb  Pb2  1  0.64593  0.35407  0.50000  1
 Pb  Pb3  1  0.35336  0.64664  0.50000  1
 Te  Te1  1  0.81535  0.18465  0.00000  1
