CIF file written using JARVIS-Tools package.
data_H2C3SO2
_symmetry_space_group_name_H-M  'P1'
_cell_length_a       4.78468
_cell_length_b       6.61524
_cell_length_c       6.96129
_cell_angle_alpha    70.3924
_cell_angle_beta     69.8086
_cell_angle_gamma    84.0324

_symmetry_Int_Tables_number  1
_chemical_formula_structural  H2C3SO2
_chemical_formula_sum  H4C6S2O4
_cell_volume  194.7872004054929
_cell_formula_units_Z  2
loop_
  _symmetry_equiv_pos_site_id
 _symmetry_equiv_pos_as_xyz
 1  'x, y, z'
loop_
 _atom_site_type_symbol
 _atom_site_label
 _atom_site_symmetry_multiplicity
 _atom_site_fract_x
 _atom_site_fract_y
 _atom_site_fract_z
 _atom_site_fract_occupancy
 C  C1  1  0.67269  0.70999  0.15126  1
 C  C2  1  0.67320  0.21058  0.65185  1
 C  C3  1  0.15650  0.24418  0.65237  1
 C  C4  1  0.15601  0.74427  0.15157  1
 C  C5  1  0.35761  0.74586  0.27595  1
 C  C6  1  0.35804  0.24607  0.77667  1
 H  H1  1  0.74552  0.83892  0.99473  1
 H  H2  1  0.68984  0.55726  0.11520  1
 H  H3  1  0.74585  0.33976  0.49549  1
 H  H4  1  0.69067  0.05804  0.61543  1
 O  O1  1  0.25481  0.27973  0.45625  1
 O  O2  1  0.25419  0.78053  0.95534  1
 O  O3  1  0.86778  0.70492  0.27096  1
 O  O4  1  0.86815  0.20548  0.77166  1
 S  S1  1  0.24890  0.79794  0.50123  1
 S  S2  1  0.24920  0.29793  0.00207  1
