CIF file written using JARVIS-Tools package.
data_ZnH2O2
_symmetry_space_group_name_H-M  'P2_12_12_1'
_cell_length_a       4.89761
_cell_length_b       5.24394
_cell_length_c       8.16577
_cell_angle_alpha    90
_cell_angle_beta     90
_cell_angle_gamma    90

_symmetry_Int_Tables_number  19
_chemical_formula_structural  ZnH2O2
_chemical_formula_sum  Zn4H8O8
_cell_volume  209.7194219212524
_cell_formula_units_Z  4
loop_
  _symmetry_equiv_pos_site_id
 _symmetry_equiv_pos_as_xyz
 1  'x, y, z'
loop_
 _atom_site_type_symbol
 _atom_site_label
 _atom_site_symmetry_multiplicity
 _atom_site_fract_x
 _atom_site_fract_y
 _atom_site_fract_z
 _atom_site_fract_occupancy
 H  H1  1  0.86554  0.13938  0.21397  1
 H  H2  1  0.19511  0.92980  0.11148  1
 H  H3  1  0.30489  0.07020  0.61148  1
 H  H4  1  0.80489  0.42980  0.38852  1
 H  H5  1  0.69511  0.57020  0.88852  1
 H  H6  1  0.13446  0.63938  0.28603  1
 H  H7  1  0.63446  0.86062  0.71397  1
 H  H8  1  0.36554  0.36062  0.78603  1
 O  O1  1  0.80583  0.83123  0.77941  1
 O  O2  1  0.13246  0.10629  0.08274  1
 O  O3  1  0.36754  0.89371  0.58274  1
 O  O4  1  0.63246  0.39371  0.91726  1
 O  O5  1  0.86754  0.60629  0.41726  1
 O  O6  1  0.19417  0.33123  0.72059  1
 O  O7  1  0.69417  0.16877  0.27941  1
 O  O8  1  0.30583  0.66877  0.22059  1
 Zn  Zn1  1  0.06373  0.65251  0.62687  1
 Zn  Zn2  1  0.43627  0.34749  0.12687  1
 Zn  Zn3  1  0.56373  0.84749  0.37313  1
 Zn  Zn4  1  0.93627  0.15251  0.87313  1
