CIF file written using JARVIS-Tools package.
data_CrO2
_symmetry_space_group_name_H-M  'C2/m'
_cell_length_a       2.8969
_cell_length_b       2.89772
_cell_length_c       9.43145
_cell_angle_alpha    89.9127
_cell_angle_beta     107.239
_cell_angle_gamma    60.0058

_symmetry_Int_Tables_number  12
_chemical_formula_structural  CrO2
_chemical_formula_sum  Cr2O4
_cell_volume  64.40734417781213
_cell_formula_units_Z  2
loop_
  _symmetry_equiv_pos_site_id
 _symmetry_equiv_pos_as_xyz
 1  'x, y, z'
loop_
 _atom_site_type_symbol
 _atom_site_label
 _atom_site_symmetry_multiplicity
 _atom_site_fract_x
 _atom_site_fract_y
 _atom_site_fract_z
 _atom_site_fract_occupancy
 Cr  Cr1  1  -0.00072  -0.00225  0.49790  1
 Cr  Cr2  1  0.00020  -0.00167  -0.00205  1
 O  O1  1  0.47059  0.26164  0.60477  1
 O  O2  1  0.19568  0.40109  0.89120  1
 O  O3  1  0.52799  0.73387  0.39103  1
 O  O4  1  0.80470  0.59556  0.10469  1
