CIF file written using JARVIS-Tools package.
data_UIN
_symmetry_space_group_name_H-M  'P4/nmm'
_cell_length_a       3.91518
_cell_length_b       3.91518
_cell_length_c       9.39811
_cell_angle_alpha    90
_cell_angle_beta     90
_cell_angle_gamma    90

_symmetry_Int_Tables_number  129
_chemical_formula_structural  UIN
_chemical_formula_sum  U2I2N2
_cell_volume  144.06003540720985
_cell_formula_units_Z  2
loop_
  _symmetry_equiv_pos_site_id
 _symmetry_equiv_pos_as_xyz
 1  'x, y, z'
loop_
 _atom_site_type_symbol
 _atom_site_label
 _atom_site_symmetry_multiplicity
 _atom_site_fract_x
 _atom_site_fract_y
 _atom_site_fract_z
 _atom_site_fract_occupancy
 I  I1  1  0.00000  0.50000  0.66991  1
 I  I2  1  0.50000  0.00000  0.33009  1
 N  N1  1  0.50000  0.50000  0.00000  1
 N  N2  1  0.00000  0.00000  0.00000  1
 U  U1  1  0.50000  0.00000  0.87889  1
 U  U2  1  0.00000  0.50000  0.12111  1
