CIF file written using JARVIS-Tools package.
data_ZrH6C5O4
_symmetry_space_group_name_H-M  'P1'
_cell_length_a       5.63489
_cell_length_b       5.66424
_cell_length_c       5.9732
_cell_angle_alpha    104.87
_cell_angle_beta     98.8786
_cell_angle_gamma    111.994

_symmetry_Int_Tables_number  1
_chemical_formula_structural  ZrH6C5O4
_chemical_formula_sum  ZrH6C5O4
_cell_volume  164.04598441468343
_cell_formula_units_Z  1
loop_
  _symmetry_equiv_pos_site_id
 _symmetry_equiv_pos_as_xyz
 1  'x, y, z'
loop_
 _atom_site_type_symbol
 _atom_site_label
 _atom_site_symmetry_multiplicity
 _atom_site_fract_x
 _atom_site_fract_y
 _atom_site_fract_z
 _atom_site_fract_occupancy
 C  C1  1  0.47064  0.46681  0.14333  1
 C  C2  1  0.77028  0.06204  0.85220  1
 C  C3  1  0.42395  0.57030  0.32970  1
 C  C4  1  0.67550  0.23992  0.89425  1
 C  C5  1  0.52247  0.37788  0.92060  1
 H  H1  1  -0.00813  0.62482  -0.07196  1
 H  H2  1  -0.02367  0.09136  0.88403  1
 H  H3  1  0.89950  0.28756  0.31101  1
 H  H4  1  0.76515  0.46527  0.42887  1
 H  H5  1  0.20860  0.90982  0.26051  1
 H  H6  1  0.28876  0.16339  0.51328  1
 O  O1  1  0.42950  0.44876  0.73705  1
 O  O2  1  0.91444  0.41506  0.46437  1
 O  O3  1  0.15181  0.78583  0.94542  1
 O  O4  1  0.21376  0.95955  0.43622  1
 Zr  Zr1  1  0.34159  0.76569  0.68127  1
