CIF file written using JARVIS-Tools package.
data_CeMnAl
_symmetry_space_group_name_H-M  'Imma'
_cell_length_a       5.2022
_cell_length_b       5.62287
_cell_length_c       6.06023
_cell_angle_alpha    90
_cell_angle_beta     54.3756
_cell_angle_gamma    122.713

_symmetry_Int_Tables_number  74
_chemical_formula_structural  CeMnAl
_chemical_formula_sum  Ce2Mn2Al2
_cell_volume  107.63401673203012
_cell_formula_units_Z  2
loop_
  _symmetry_equiv_pos_site_id
 _symmetry_equiv_pos_as_xyz
 1  'x, y, z'
loop_
 _atom_site_type_symbol
 _atom_site_label
 _atom_site_symmetry_multiplicity
 _atom_site_fract_x
 _atom_site_fract_y
 _atom_site_fract_z
 _atom_site_fract_occupancy
 Al  Al1  1  0.00000  0.50000  -0.00000  1
 Al  Al2  1  0.00000  0.50000  0.50000  1
 Ce  Ce1  1  0.12055  0.06027  0.18973  1
 Ce  Ce2  1  0.87945  0.93973  0.81027  1
 Mn  Mn1  1  0.50000  0.00000  0.50000  1
 Mn  Mn2  1  0.50000  0.50000  0.50000  1
