CIF file written using JARVIS-Tools package.
data_SnH8C5O6
_symmetry_space_group_name_H-M  'P1'
_cell_length_a       4.79819
_cell_length_b       5.54108
_cell_length_c       7.1479
_cell_angle_alpha    95.3186
_cell_angle_beta     93.0399
_cell_angle_gamma    82.9568

_symmetry_Int_Tables_number  1
_chemical_formula_structural  SnH8C5O6
_chemical_formula_sum  SnH8C5O6
_cell_volume  187.62928371579767
_cell_formula_units_Z  1
loop_
  _symmetry_equiv_pos_site_id
 _symmetry_equiv_pos_as_xyz
 1  'x, y, z'
loop_
 _atom_site_type_symbol
 _atom_site_label
 _atom_site_symmetry_multiplicity
 _atom_site_fract_x
 _atom_site_fract_y
 _atom_site_fract_z
 _atom_site_fract_occupancy
 C  C1  1  0.49755  0.01673  0.26766  1
 C  C2  1  0.64289  0.12851  0.11736  1
 C  C3  1  0.54300  0.44595  0.88413  1
 C  C4  1  0.68375  0.85546  0.39050  1
 C  C5  1  0.44393  0.34985  0.05539  1
 H  H1  1  0.38741  0.15931  0.36361  1
 H  H2  1  0.33019  0.91092  0.20472  1
 H  H3  1  0.69131  -0.00542  0.99704  1
 H  H4  1  0.84106  0.18901  0.17546  1
 H  H5  1  0.43261  0.49521  0.17153  1
 H  H6  1  0.23109  0.30087  0.02332  1
 H  H7  1  0.29341  0.91099  0.70270  1
 H  H8  1  0.98954  0.15559  0.59819  1
 O  O1  1  0.39635  0.44053  0.73064  1
 O  O2  1  0.93847  0.28059  0.50675  1
 O  O3  1  0.92853  0.75394  0.35183  1
 O  O4  1  0.58683  0.81438  0.55053  1
 O  O5  1  0.78763  0.52351  0.89573  1
 O  O6  1  0.10427  0.91508  0.75219  1
 Sn  Sn1  1  0.96887  0.60048  0.64460  1
