CIF file written using JARVIS-Tools package.
data_SnH12C6F2
_symmetry_space_group_name_H-M  'P1'
_cell_length_a       4.30294
_cell_length_b       4.67343
_cell_length_c       18.7287
_cell_angle_alpha    84.6332
_cell_angle_beta     88.0003
_cell_angle_gamma    67.701

_symmetry_Int_Tables_number  1
_chemical_formula_structural  SnH12C6F2
_chemical_formula_sum  Sn2H24C2F4
_cell_volume  346.9321534379019
_cell_formula_units_Z  2
loop_
  _symmetry_equiv_pos_site_id
 _symmetry_equiv_pos_as_xyz
 1  'x, y, z'
loop_
 _atom_site_type_symbol
 _atom_site_label
 _atom_site_symmetry_multiplicity
 _atom_site_fract_x
 _atom_site_fract_y
 _atom_site_fract_z
 _atom_site_fract_occupancy
 C  C1  1  0.27426  0.10959  0.91232  1
 C  C2  1  0.35161  0.43747  0.31063  1
 C  C3  1  0.20619  0.91204  0.85892  1
 C  C4  1  0.08023  0.10955  0.78776  1
 C  C5  1  0.19567  0.56256  0.63300  1
 C  C6  1  0.31876  0.96899  0.13566  1
 C  C7  1  0.98836  0.94473  0.72965  1
 C  C8  1  0.29005  0.73053  0.68967  1
 C  C9  1  0.32276  0.67917  0.18076  1
 C  C10  1  0.35489  0.71387  0.26052  1
 C  C11  1  0.10224  0.76697  0.41518  1
 C  C12  1  0.37858  0.47439  0.39074  1
 F  F1  1  0.05148  0.63273  0.02203  1
 F  F2  1  0.69858  0.25185  0.02691  1
 F  F3  1  0.88752  0.27612  0.53295  1
 F  F4  1  0.53503  0.90447  0.53067  1
 H  H1  1  0.82024  0.11903  0.69010  1
 H  H2  1  0.84352  0.81088  0.75424  1
 H  H3  1  0.12058  0.17941  0.15333  1
 H  H4  1  0.55839  -0.00089  0.13736  1
 H  H5  1  0.53074  0.47326  0.16385  1
 H  H6  1  0.40776  0.35583  0.61847  1
 H  H7  1  0.98560  0.49335  0.64904  1
 H  H8  1  0.52315  0.12131  0.90670  1
 H  H9  1  0.08787  0.34881  0.90679  1
 H  H10  1  0.01459  0.82280  0.87952  1
 H  H11  1  0.43469  0.70578  0.85115  1
 H  H12  1  0.36906  0.26885  0.42281  1
 H  H13  1  0.85156  0.78271  0.40014  1
 H  H14  1  0.13263  0.98007  0.39269  1
 H  H15  1  0.09066  0.63951  0.17235  1
 H  H16  1  0.11809  0.40018  0.30151  1
 H  H17  1  0.14659  0.92623  0.27450  1
 H  H18  1  0.58756  0.75342  0.26910  1
 H  H19  1  0.62631  0.47762  0.40193  1
 H  H20  1  0.26792  0.20337  0.76689  1
 H  H21  1  0.85620  0.31216  0.80057  1
 H  H22  1  0.45979  0.55492  0.72883  1
 H  H23  1  0.43458  0.86418  0.66533  1
 H  H24  1  0.55976  0.22520  0.29634  1
 Sn  Sn1  1  0.20110  0.00252  0.02400  1
 Sn  Sn2  1  0.06425  0.80899  0.52878  1
