CIF file written using JARVIS-Tools package.
data_BaMg2Si2
_symmetry_space_group_name_H-M  'I4/mmm'
_cell_length_a       4.65811
_cell_length_b       4.65811
_cell_length_c       6.45526
_cell_angle_alpha    111.149
_cell_angle_beta     111.149
_cell_angle_gamma    90

_symmetry_Int_Tables_number  139
_chemical_formula_structural  BaMg2Si2
_chemical_formula_sum  BaMg2Si2
_cell_volume  120.4608093644604
_cell_formula_units_Z  1
loop_
  _symmetry_equiv_pos_site_id
 _symmetry_equiv_pos_as_xyz
 1  'x, y, z'
loop_
 _atom_site_type_symbol
 _atom_site_label
 _atom_site_symmetry_multiplicity
 _atom_site_fract_x
 _atom_site_fract_y
 _atom_site_fract_z
 _atom_site_fract_occupancy
 Ba  Ba1  1  0.00000  0.00000  0.00000  1
 Mg  Mg1  1  0.75000  0.25000  0.50000  1
 Mg  Mg2  1  0.25000  0.75000  0.50000  1
 Si  Si1  1  0.61276  0.61276  0.22553  1
 Si  Si2  1  0.38724  0.38724  0.77447  1
