CIF file written using JARVIS-Tools package.
data_Er2Ga3Ni
_symmetry_space_group_name_H-M  'Cm'
_cell_length_a       5.48458
_cell_length_b       5.48458
_cell_length_c       6.98639
_cell_angle_alpha    51.5313
_cell_angle_beta     51.5313
_cell_angle_gamma    46.3016

_symmetry_Int_Tables_number  8
_chemical_formula_structural  Er2Ga3Ni
_chemical_formula_sum  Er2Ga3Ni
_cell_volume  111.88478243693078
_cell_formula_units_Z  1
loop_
  _symmetry_equiv_pos_site_id
 _symmetry_equiv_pos_as_xyz
 1  'x, y, z'
loop_
 _atom_site_type_symbol
 _atom_site_label
 _atom_site_symmetry_multiplicity
 _atom_site_fract_x
 _atom_site_fract_y
 _atom_site_fract_z
 _atom_site_fract_occupancy
 Er  Er1  1  0.46164  0.46164  0.29009  1
 Er  Er2  1  0.54674  0.54674  0.70333  1
 Ga  Ga1  1  0.14812  0.14812  0.31999  1
 Ga  Ga2  1  0.17616  0.17616  0.87470  1
 Ga  Ga3  1  0.83679  0.83679  0.09361  1
 Ni  Ni1  1  0.83055  0.83055  0.71828  1
