CIF file written using JARVIS-Tools package.
data_ZnH14C9O4
_symmetry_space_group_name_H-M  'P1'
_cell_length_a       4.58798
_cell_length_b       5.15517
_cell_length_c       12.0737
_cell_angle_alpha    78.2641
_cell_angle_beta     80.4713
_cell_angle_gamma    59.2435

_symmetry_Int_Tables_number  1
_chemical_formula_structural  ZnH14C9O4
_chemical_formula_sum  ZnH4C9O4
_cell_volume  239.6265241021247
_cell_formula_units_Z  1
loop_
  _symmetry_equiv_pos_site_id
 _symmetry_equiv_pos_as_xyz
 1  'x, y, z'
loop_
 _atom_site_type_symbol
 _atom_site_label
 _atom_site_symmetry_multiplicity
 _atom_site_fract_x
 _atom_site_fract_y
 _atom_site_fract_z
 _atom_site_fract_occupancy
 C  C1  1  0.78540  0.40140  0.33288  1
 C  C2  1  0.58085  0.42268  0.59189  1
 C  C3  1  0.76878  0.14483  0.41827  1
 C  C4  1  0.50525  0.25453  0.51866  1
 C  C5  1  0.03574  0.28704  0.23023  1
 C  C6  1  0.06479  0.54042  0.14687  1
 C  C7  1  0.31543  0.41355  0.04507  1
 C  C8  1  0.35921  0.65326  0.96054  1
 C  C9  1  0.33810  0.49371  0.69647  1
 H  H1  1  0.24952  0.40780  0.48747  1
 H  H2  1  0.84324  0.27832  0.61728  1
 H  H3  1  0.55271  0.63840  0.54333  1
 H  H4  1  0.56789  0.23648  0.07292  1
 H  H5  1  0.21907  0.30958  0.00007  1
 H  H6  1  0.49841  0.05746  0.57285  1
 H  H7  1  0.02188  -0.01513  0.45095  1
 H  H8  1  0.85876  0.52917  0.37475  1
 H  H9  1  0.52865  0.56730  0.30394  1
 H  H10  1  0.14762  0.65750  0.19088  1
 H  H11  1  0.81302  0.71277  0.11646  1
 H  H12  1  0.70900  0.01241  0.37356  1
 H  H13  1  0.95831  0.16826  0.18488  1
 H  H14  1  0.28980  0.11404  0.25977  1
 O  O1  1  0.40776  0.30743  0.78823  1
 O  O2  1  0.66138  0.61048  0.93868  1
 O  O3  1  0.05660  0.74547  0.68889  1
 O  O4  1  0.10713  0.88988  0.91497  1
 Zn  Zn1  1  0.77201  0.88947  0.83103  1
