CIF file written using JARVIS-Tools package.
data_H3C2NO2
_symmetry_space_group_name_H-M  'P1'
_cell_length_a       4.0975
_cell_length_b       4.55095
_cell_length_c       7.49817
_cell_angle_alpha    89.8248
_cell_angle_beta     74.5011
_cell_angle_gamma    85.5886

_symmetry_Int_Tables_number  1
_chemical_formula_structural  H3C2NO2
_chemical_formula_sum  H6C4N2O4
_cell_volume  134.31655363979442
_cell_formula_units_Z  2
loop_
  _symmetry_equiv_pos_site_id
 _symmetry_equiv_pos_as_xyz
 1  'x, y, z'
loop_
 _atom_site_type_symbol
 _atom_site_label
 _atom_site_symmetry_multiplicity
 _atom_site_fract_x
 _atom_site_fract_y
 _atom_site_fract_z
 _atom_site_fract_occupancy
 C  C1  1  0.91790  0.11106  0.76516  1
 C  C2  1  0.12463  0.81473  0.73024  1
 C  C3  1  0.91790  0.11106  0.26516  1
 C  C4  1  0.12463  0.81473  0.23023  1
 H  H1  1  0.86330  0.18371  0.13600  1
 H  H2  1  0.74818  0.63428  0.43978  1
 H  H3  1  0.67935  0.10334  0.37431  1
 H  H4  1  0.86332  0.18371  0.63600  1
 H  H5  1  0.74818  0.63427  0.93978  1
 H  H6  1  0.67935  0.10333  0.87430  1
 N  N1  1  0.96880  0.59940  0.33334  1
 N  N2  1  0.96880  0.59939  0.83334  1
 O  O1  1  0.13384  0.31606  0.81853  1
 O  O2  1  0.40655  0.78388  0.61417  1
 O  O3  1  0.13384  0.31606  0.31853  1
 O  O4  1  0.40654  0.78389  0.11416  1
