CIF file written using JARVIS-Tools package.
data_CePrAl4
_symmetry_space_group_name_H-M  'F-43m'
_cell_length_a       5.68574
_cell_length_b       5.68573
_cell_length_c       5.68573
_cell_angle_alpha    60
_cell_angle_beta     60
_cell_angle_gamma    60

_symmetry_Int_Tables_number  216
_chemical_formula_structural  CePrAl4
_chemical_formula_sum  CePrAl4
_cell_volume  129.97047210652798
_cell_formula_units_Z  1
loop_
  _symmetry_equiv_pos_site_id
 _symmetry_equiv_pos_as_xyz
 1  'x, y, z'
loop_
 _atom_site_type_symbol
 _atom_site_label
 _atom_site_symmetry_multiplicity
 _atom_site_fract_x
 _atom_site_fract_y
 _atom_site_fract_z
 _atom_site_fract_occupancy
 Al  Al1  1  0.62434  0.62434  0.12697  1
 Al  Al2  1  0.62434  0.12697  0.62434  1
 Al  Al3  1  0.12697  0.62434  0.62434  1
 Al  Al4  1  0.62434  0.62434  0.62434  1
 Ce  Ce1  1  0.25000  0.25000  0.25000  1
 Pr  Pr1  1  0.00000  0.00000  0.00000  1
