CIF file written using JARVIS-Tools package.
data_NaV3O6
_symmetry_space_group_name_H-M  'C2'
_cell_length_a       4.97099
_cell_length_b       4.97099
_cell_length_c       5.14877
_cell_angle_alpha    76.9466
_cell_angle_beta     76.9466
_cell_angle_gamma    111.018

_symmetry_Int_Tables_number  5
_chemical_formula_structural  NaV3O6
_chemical_formula_sum  NaV3O6
_cell_volume  108.90966458144689
_cell_formula_units_Z  1
loop_
  _symmetry_equiv_pos_site_id
 _symmetry_equiv_pos_as_xyz
 1  'x, y, z'
loop_
 _atom_site_type_symbol
 _atom_site_label
 _atom_site_symmetry_multiplicity
 _atom_site_fract_x
 _atom_site_fract_y
 _atom_site_fract_z
 _atom_site_fract_occupancy
 Na  Na1  1  0.37530  0.62470  0.00000  1
 O  O1  1  0.16597  0.16767  0.25936  1
 O  O2  1  0.05330  0.39904  0.72856  1
 O  O3  1  0.83233  0.83403  0.74064  1
 O  O4  1  0.60096  0.94670  0.27144  1
 O  O5  1  0.38605  0.05376  0.72297  1
 O  O6  1  0.94624  0.61395  0.27703  1
 V  V1  1  0.98629  0.01371  -0.00000  1
 V  V2  1  0.18370  0.81630  0.50000  1
 V  V3  1  0.80319  0.19681  0.50000  1
