CIF file written using JARVIS-Tools package.
data_YGe2
_symmetry_space_group_name_H-M  'I4_1/amd'
_cell_length_a       3.97238
_cell_length_b       3.97238
_cell_length_c       8.84225
_cell_angle_alpha    102.981
_cell_angle_beta     102.981
_cell_angle_gamma    90

_symmetry_Int_Tables_number  141
_chemical_formula_structural  YGe2
_chemical_formula_sum  Y2Ge4
_cell_volume  132.30143047114652
_cell_formula_units_Z  2
loop_
  _symmetry_equiv_pos_site_id
 _symmetry_equiv_pos_as_xyz
 1  'x, y, z'
loop_
 _atom_site_type_symbol
 _atom_site_label
 _atom_site_symmetry_multiplicity
 _atom_site_fract_x
 _atom_site_fract_y
 _atom_site_fract_z
 _atom_site_fract_occupancy
 Ge  Ge1  1  0.70270  0.95270  0.90541  1
 Ge  Ge2  1  0.45270  0.20270  0.40541  1
 Ge  Ge3  1  0.54730  0.79730  0.59459  1
 Ge  Ge4  1  0.29730  0.04730  0.09459  1
 Y  Y1  1  0.87500  0.62500  0.25000  1
 Y  Y2  1  0.12500  0.37500  0.75000  1
