CIF file written using JARVIS-Tools package.
data_NaErCl4
_symmetry_space_group_name_H-M  'P2/c'
_cell_length_a       6.24819
_cell_length_b       7.61182
_cell_length_c       6.7093
_cell_angle_alpha    90
_cell_angle_beta     91.3852
_cell_angle_gamma    90

_symmetry_Int_Tables_number  13
_chemical_formula_structural  NaErCl4
_chemical_formula_sum  Na2Er2Cl8
_cell_volume  319.0013823290899
_cell_formula_units_Z  2
loop_
  _symmetry_equiv_pos_site_id
 _symmetry_equiv_pos_as_xyz
 1  'x, y, z'
loop_
 _atom_site_type_symbol
 _atom_site_label
 _atom_site_symmetry_multiplicity
 _atom_site_fract_x
 _atom_site_fract_y
 _atom_site_fract_z
 _atom_site_fract_occupancy
 Cl  Cl1  1  0.74860  0.62088  0.59020  1
 Cl  Cl2  1  0.25140  0.62088  0.90980  1
 Cl  Cl3  1  0.23140  0.10342  0.93074  1
 Cl  Cl4  1  0.76860  0.10342  0.56926  1
 Cl  Cl5  1  0.76860  0.89658  0.06926  1
 Cl  Cl6  1  0.23140  0.89658  0.43074  1
 Cl  Cl7  1  0.74860  0.37912  0.09020  1
 Cl  Cl8  1  0.25140  0.37912  0.40980  1
 Er  Er1  1  -0.00000  0.84302  0.75000  1
 Er  Er2  1  -0.00000  0.15698  0.25000  1
 Na  Na1  1  0.50000  0.35410  0.75000  1
 Na  Na2  1  0.50000  0.64590  0.25000  1
