CIF file written using JARVIS-Tools package.
data_ZnHgTe2
_symmetry_space_group_name_H-M  'P-4m2'
_cell_length_a       4.50816
_cell_length_b       4.50816
_cell_length_c       6.44947
_cell_angle_alpha    90
_cell_angle_beta     90
_cell_angle_gamma    90

_symmetry_Int_Tables_number  115
_chemical_formula_structural  ZnHgTe2
_chemical_formula_sum  ZnHgTe2
_cell_volume  131.07605761085264
_cell_formula_units_Z  1
loop_
  _symmetry_equiv_pos_site_id
 _symmetry_equiv_pos_as_xyz
 1  'x, y, z'
loop_
 _atom_site_type_symbol
 _atom_site_label
 _atom_site_symmetry_multiplicity
 _atom_site_fract_x
 _atom_site_fract_y
 _atom_site_fract_z
 _atom_site_fract_occupancy
 Hg  Hg1  1  0.00000  0.00000  0.00000  1
 Te  Te1  1  0.00000  0.50000  0.27220  1
 Te  Te2  1  0.50000  0.00000  0.72780  1
 Zn  Zn1  1  0.50000  0.50000  0.50000  1
