CIF file written using JARVIS-Tools package.
data_NaO
_symmetry_space_group_name_H-M  'Pbcm'
_cell_length_a       3.06384
_cell_length_b       5.35328
_cell_length_c       6.32106
_cell_angle_alpha    90
_cell_angle_beta     90
_cell_angle_gamma    90

_symmetry_Int_Tables_number  57
_chemical_formula_structural  NaO
_chemical_formula_sum  Na4O4
_cell_volume  103.675262154493
_cell_formula_units_Z  4
loop_
  _symmetry_equiv_pos_site_id
 _symmetry_equiv_pos_as_xyz
 1  'x, y, z'
loop_
 _atom_site_type_symbol
 _atom_site_label
 _atom_site_symmetry_multiplicity
 _atom_site_fract_x
 _atom_site_fract_y
 _atom_site_fract_z
 _atom_site_fract_occupancy
 Na  Na1  1  0.77474  0.75000  0.50000  1
 Na  Na2  1  0.22526  0.25000  0.00000  1
 Na  Na3  1  0.22526  0.25000  0.50000  1
 Na  Na4  1  0.77474  0.75000  0.00000  1
 O  O1  1  0.28155  0.91913  0.75000  1
 O  O2  1  0.71845  0.08087  0.25000  1
 O  O3  1  0.28155  0.58087  0.25000  1
 O  O4  1  0.71845  0.41913  0.75000  1
