CIF file written using JARVIS-Tools package.
data_KNbCl6
_symmetry_space_group_name_H-M  'F-43m'
_cell_length_a       6.93213
_cell_length_b       6.93213
_cell_length_c       6.93213
_cell_angle_alpha    59.9547
_cell_angle_beta     59.9547
_cell_angle_gamma    59.9547

_symmetry_Int_Tables_number  216
_chemical_formula_structural  KNbCl6
_chemical_formula_sum  KNbCl6
_cell_volume  235.3085703792145
_cell_formula_units_Z  1
loop_
  _symmetry_equiv_pos_site_id
 _symmetry_equiv_pos_as_xyz
 1  'x, y, z'
loop_
 _atom_site_type_symbol
 _atom_site_label
 _atom_site_symmetry_multiplicity
 _atom_site_fract_x
 _atom_site_fract_y
 _atom_site_fract_z
 _atom_site_fract_occupancy
 Cl  Cl1  1  0.23650  0.74965  0.74965  1
 Cl  Cl2  1  0.74965  0.74965  0.23650  1
 Cl  Cl3  1  0.74965  0.23650  0.74965  1
 Cl  Cl4  1  0.74955  0.23635  0.23635  1
 Cl  Cl5  1  0.23635  0.23635  0.74955  1
 Cl  Cl6  1  0.23635  0.74955  0.23635  1
 K  K1  1  0.74319  0.74319  0.74319  1
 Nb  Nb1  1  0.99298  0.99298  0.99298  1
