CIF file written using JARVIS-Tools package.
data_KBiO2
_symmetry_space_group_name_H-M  'C2/c'
_cell_length_a       5.50091
_cell_length_b       5.50091
_cell_length_c       6.61778
_cell_angle_alpha    117.61
_cell_angle_beta     117.61
_cell_angle_gamma    89.9035

_symmetry_Int_Tables_number  15
_chemical_formula_structural  KBiO2
_chemical_formula_sum  K2Bi2O4
_cell_volume  151.34023654173652
_cell_formula_units_Z  2
loop_
  _symmetry_equiv_pos_site_id
 _symmetry_equiv_pos_as_xyz
 1  'x, y, z'
loop_
 _atom_site_type_symbol
 _atom_site_label
 _atom_site_symmetry_multiplicity
 _atom_site_fract_x
 _atom_site_fract_y
 _atom_site_fract_z
 _atom_site_fract_occupancy
 Bi  Bi1  1  0.14190  0.85810  0.25000  1
 Bi  Bi2  1  0.85810  0.14190  0.75000  1
 K  K1  1  0.37860  0.62140  0.75000  1
 K  K2  1  0.62140  0.37860  0.25000  1
 O  O1  1  0.09858  0.45432  0.22130  1
 O  O2  1  0.54568  0.90142  0.27870  1
 O  O3  1  0.45432  0.09858  0.72130  1
 O  O4  1  0.90142  0.54568  0.77870  1
