CIF file written using JARVIS-Tools package.
data_H4C6SO2
_symmetry_space_group_name_H-M  'P1'
_cell_length_a       4.01589
_cell_length_b       5.57811
_cell_length_c       6.56813
_cell_angle_alpha    105.098
_cell_angle_beta     94.4516
_cell_angle_gamma    105.53

_symmetry_Int_Tables_number  1
_chemical_formula_structural  H4C6SO2
_chemical_formula_sum  H4C6SO2
_cell_volume  135.13955089277323
_cell_formula_units_Z  1
loop_
  _symmetry_equiv_pos_site_id
 _symmetry_equiv_pos_as_xyz
 1  'x, y, z'
loop_
 _atom_site_type_symbol
 _atom_site_label
 _atom_site_symmetry_multiplicity
 _atom_site_fract_x
 _atom_site_fract_y
 _atom_site_fract_z
 _atom_site_fract_occupancy
 C  C1  1  0.33334  0.71139  0.18610  1
 C  C2  1  0.51481  0.73266  0.38930  1
 C  C3  1  0.07578  0.47938  0.09636  1
 C  C4  1  0.38994  0.51070  0.44749  1
 C  C5  1  0.83106  0.36951  0.88828  1
 C  C6  1  0.77401  0.55866  0.77143  1
 H  H1  1  0.92753  0.22909  0.77481  1
 H  H2  1  0.72829  0.89923  0.48309  1
 H  H3  1  0.38932  0.86493  0.10943  1
 H  H4  1  0.57321  0.25349  0.90751  1
 O  O1  1  0.48042  0.42644  0.61778  1
 O  O2  1  0.95058  0.78028  0.79311  1
 S  S1  1  0.05622  0.27720  0.25878  1
