CIF file written using JARVIS-Tools package.
data_Ba2CuS2Cl2
_symmetry_space_group_name_H-M  'I4/mmm'
_cell_length_a       9.14358
_cell_length_b       9.14358
_cell_length_c       9.14358
_cell_angle_alpha    150.645
_cell_angle_beta     150.645
_cell_angle_gamma    41.9949

_symmetry_Int_Tables_number  139
_chemical_formula_structural  Ba2CuS2Cl2
_chemical_formula_sum  Ba2CuS2Cl2
_cell_volume  183.27159236490792
_cell_formula_units_Z  1
loop_
  _symmetry_equiv_pos_site_id
 _symmetry_equiv_pos_as_xyz
 1  'x, y, z'
loop_
 _atom_site_type_symbol
 _atom_site_label
 _atom_site_symmetry_multiplicity
 _atom_site_fract_x
 _atom_site_fract_y
 _atom_site_fract_z
 _atom_site_fract_occupancy
 Ba  Ba1  1  0.62782  0.62782  0.00000  1
 Ba  Ba2  1  0.37218  0.37218  -0.00000  1
 Cl  Cl1  1  0.18582  0.18582  -0.00000  1
 Cl  Cl2  1  0.81418  0.81418  -0.00000  1
 Cu  Cu1  1  0.00000  0.00000  0.00000  1
 S  S1  1  -0.00000  0.50000  0.50000  1
 S  S2  1  0.50000  0.00000  0.50000  1
