CIF file written using JARVIS-Tools package.
data_CdAsP
_symmetry_space_group_name_H-M  'I2_12_12_1'
_cell_length_a       6.07593
_cell_length_b       6.07593
_cell_length_c       6.07592
_cell_angle_alpha    134.861
_cell_angle_beta     102.569
_cell_angle_gamma    94.4162

_symmetry_Int_Tables_number  24
_chemical_formula_structural  CdAsP
_chemical_formula_sum  Cd2As2P2
_cell_volume  146.31489808140947
_cell_formula_units_Z  2
loop_
  _symmetry_equiv_pos_site_id
 _symmetry_equiv_pos_as_xyz
 1  'x, y, z'
loop_
 _atom_site_type_symbol
 _atom_site_label
 _atom_site_symmetry_multiplicity
 _atom_site_fract_x
 _atom_site_fract_y
 _atom_site_fract_z
 _atom_site_fract_occupancy
 As  As1  1  0.94738  0.75000  0.69738  1
 As  As2  1  0.55262  0.25000  0.80262  1
 Cd  Cd1  1  0.25000  0.38377  0.13377  1
 Cd  Cd2  1  0.75000  0.11623  0.36623  1
 P  P1  1  0.57850  0.82850  0.75000  1
 P  P2  1  0.92150  0.67150  0.25000  1
