CIF file written using JARVIS-Tools package.
data_Cu4Br3Cl
_symmetry_space_group_name_H-M  'I4/mmm'
_cell_length_a       6.50054
_cell_length_b       6.50055
_cell_length_c       6.50054
_cell_angle_alpha    131.646
_cell_angle_beta     131.646
_cell_angle_gamma    70.7885

_symmetry_Int_Tables_number  139
_chemical_formula_structural  Cu4Br3Cl
_chemical_formula_sum  Cu4Br3Cl
_cell_volume  150.2419793624439
_cell_formula_units_Z  1
loop_
  _symmetry_equiv_pos_site_id
 _symmetry_equiv_pos_as_xyz
 1  'x, y, z'
loop_
 _atom_site_type_symbol
 _atom_site_label
 _atom_site_symmetry_multiplicity
 _atom_site_fract_x
 _atom_site_fract_y
 _atom_site_fract_z
 _atom_site_fract_occupancy
 Br  Br1  1  0.75000  0.25000  0.50000  1
 Br  Br2  1  0.00000  0.00000  0.00000  1
 Br  Br3  1  0.25000  0.75000  0.50000  1
 Cl  Cl1  1  0.50000  0.50000  0.00000  1
 Cu  Cu1  1  0.00000  0.50000  0.50000  1
 Cu  Cu2  1  0.26107  0.26107  -0.00000  1
 Cu  Cu3  1  0.50000  -0.00000  0.50000  1
 Cu  Cu4  1  0.73893  0.73893  0.00000  1
