CIF file written using JARVIS-Tools package.
data_AlInCu2Se4
_symmetry_space_group_name_H-M  'I-4'
_cell_length_a       7.02615
_cell_length_b       7.02615
_cell_length_c       7.02615
_cell_angle_alpha    131.734
_cell_angle_beta     131.734
_cell_angle_gamma    70.6487

_symmetry_Int_Tables_number  82
_chemical_formula_structural  AlInCu2Se4
_chemical_formula_sum  AlInCu2Se4
_cell_volume  189.2244426283877
_cell_formula_units_Z  1
loop_
  _symmetry_equiv_pos_site_id
 _symmetry_equiv_pos_as_xyz
 1  'x, y, z'
loop_
 _atom_site_type_symbol
 _atom_site_label
 _atom_site_symmetry_multiplicity
 _atom_site_fract_x
 _atom_site_fract_y
 _atom_site_fract_z
 _atom_site_fract_occupancy
 Al  Al1  1  0.75000  0.25000  0.50000  1
 Cu  Cu1  1  0.25000  0.75000  0.50000  1
 Cu  Cu2  1  0.00000  0.00000  0.00000  1
 In  In1  1  0.50000  0.50000  -0.00000  1
 Se  Se1  1  0.10063  0.10355  0.46868  1
 Se  Se2  1  0.63487  0.63195  0.53132  1
 Se  Se3  1  0.36805  0.89937  0.00292  1
 Se  Se4  1  0.89645  0.36513  0.99708  1
