CIF file written using JARVIS-Tools package.
data_Ba2CuS2Cl2
_symmetry_space_group_name_H-M  'I4/mmm'
_cell_length_a       8.47254
_cell_length_b       8.47255
_cell_length_c       8.47254
_cell_angle_alpha    147.007
_cell_angle_beta     147.007
_cell_angle_gamma    47.3533

_symmetry_Int_Tables_number  139
_chemical_formula_structural  Ba2CuS2Cl2
_chemical_formula_sum  Ba2CuS2Cl2
_cell_volume  179.6455414772698
_cell_formula_units_Z  1
loop_
  _symmetry_equiv_pos_site_id
 _symmetry_equiv_pos_as_xyz
 1  'x, y, z'
loop_
 _atom_site_type_symbol
 _atom_site_label
 _atom_site_symmetry_multiplicity
 _atom_site_fract_x
 _atom_site_fract_y
 _atom_site_fract_z
 _atom_site_fract_occupancy
 Ba  Ba1  1  0.35476  0.35476  0.00000  1
 Ba  Ba2  1  0.64524  0.64524  -0.00000  1
 Cl  Cl1  1  0.50000  0.00000  0.50000  1
 Cl  Cl2  1  0.00000  0.50000  0.50000  1
 Cu  Cu1  1  0.00000  0.00000  0.00000  1
 S  S1  1  0.15741  0.15741  0.00000  1
 S  S2  1  0.84259  0.84259  -0.00000  1
