CIF file written using JARVIS-Tools package.
data_As2Se3
_symmetry_space_group_name_H-M  'P2_1/c'
_cell_length_a       4.26549
_cell_length_b       10.0122
_cell_length_c       12.3043
_cell_angle_alpha    90
_cell_angle_beta     90.4916
_cell_angle_gamma    90

_symmetry_Int_Tables_number  14
_chemical_formula_structural  As2Se3
_chemical_formula_sum  As8Se2
_cell_volume  525.4615020358947
_cell_formula_units_Z  4
loop_
  _symmetry_equiv_pos_site_id
 _symmetry_equiv_pos_as_xyz
 1  'x, y, z'
loop_
 _atom_site_type_symbol
 _atom_site_label
 _atom_site_symmetry_multiplicity
 _atom_site_fract_x
 _atom_site_fract_y
 _atom_site_fract_z
 _atom_site_fract_occupancy
 As  As1  1  0.10041  0.80509  0.73744  1
 As  As2  1  0.39959  0.30509  0.76256  1
 As  As3  1  0.89959  0.19491  0.26256  1
 As  As4  1  0.60041  0.69491  0.23744  1
 As  As5  1  0.60986  0.67382  0.51240  1
 As  As6  1  0.89014  0.17382  0.98760  1
 As  As7  1  0.39014  0.32618  0.48760  1
 As  As8  1  0.10986  0.82618  0.01240  1
 Se  Se1  1  0.47228  0.88389  0.59857  1
 Se  Se2  1  0.55612  0.29731  0.12011  1
 Se  Se3  1  0.52772  0.11611  0.40143  1
 Se  Se4  1  0.97228  0.61611  0.09857  1
 Se  Se5  1  0.02772  0.38389  0.90143  1
 Se  Se6  1  0.44388  0.70269  0.87989  1
 Se  Se7  1  0.02510  0.41159  0.34465  1
 Se  Se8  1  0.47490  0.91159  0.15535  1
 Se  Se9  1  0.97490  0.58841  0.65535  1
 Se  Se10  1  0.05612  0.20269  0.62011  1
 Se  Se11  1  0.52510  0.08841  0.84465  1
 Se  Se12  1  0.94388  0.79731  0.37989  1
