CIF file written using JARVIS-Tools package.
data_Er4InIr
_symmetry_space_group_name_H-M  'F-43m'
_cell_length_a       9.51801
_cell_length_b       9.51801
_cell_length_c       9.51801
_cell_angle_alpha    60
_cell_angle_beta     60
_cell_angle_gamma    60

_symmetry_Int_Tables_number  216
_chemical_formula_structural  Er4InIr
_chemical_formula_sum  Er6In4Ir4
_cell_volume  609.7104432414709
_cell_formula_units_Z  4
loop_
  _symmetry_equiv_pos_site_id
 _symmetry_equiv_pos_as_xyz
 1  'x, y, z'
loop_
 _atom_site_type_symbol
 _atom_site_label
 _atom_site_symmetry_multiplicity
 _atom_site_fract_x
 _atom_site_fract_y
 _atom_site_fract_z
 _atom_site_fract_occupancy
 Er  Er1  1  0.93954  0.56046  0.56046  1
 Er  Er2  1  0.56046  0.56046  0.93954  1
 Er  Er3  1  0.34963  0.34963  0.34963  1
 Er  Er4  1  0.80893  0.19107  0.80893  1
 Er  Er5  1  0.56046  0.93954  0.56046  1
 Er  Er6  1  0.34963  0.95111  0.34963  1
 Er  Er7  1  0.95111  0.34963  0.34963  1
 Er  Er8  1  0.19107  0.19107  0.80893  1
 Er  Er9  1  0.80893  0.19107  0.19107  1
 Er  Er10  1  0.80893  0.80893  0.19107  1
 Er  Er11  1  0.19107  0.80893  0.19107  1
 Er  Er12  1  0.19107  0.80893  0.80893  1
 Er  Er13  1  0.93954  0.93954  0.56046  1
 Er  Er14  1  0.56046  0.93954  0.93954  1
 Er  Er15  1  0.93954  0.56046  0.93954  1
 Er  Er16  1  0.34963  0.34963  0.95111  1
 In  In1  1  0.24839  0.58387  0.58387  1
 In  In2  1  0.58387  0.58387  0.24839  1
 In  In3  1  0.58387  0.58387  0.58387  1
 In  In4  1  0.58387  0.24839  0.58387  1
 Ir  Ir1  1  0.57566  0.14145  0.14145  1
 Ir  Ir2  1  0.14145  0.14145  0.57566  1
 Ir  Ir3  1  0.14145  0.57566  0.14145  1
 Ir  Ir4  1  0.14145  0.14145  0.14145  1
