CIF file written using JARVIS-Tools package.
data_Mn3CoAs2
_symmetry_space_group_name_H-M  'P-4m2'
_cell_length_a       3.6037
_cell_length_b       3.6037
_cell_length_c       6.16019
_cell_angle_alpha    90
_cell_angle_beta     90
_cell_angle_gamma    90

_symmetry_Int_Tables_number  115
_chemical_formula_structural  Mn3CoAs2
_chemical_formula_sum  Mn3CoAs2
_cell_volume  80.00008708091917
_cell_formula_units_Z  1
loop_
  _symmetry_equiv_pos_site_id
 _symmetry_equiv_pos_as_xyz
 1  'x, y, z'
loop_
 _atom_site_type_symbol
 _atom_site_label
 _atom_site_symmetry_multiplicity
 _atom_site_fract_x
 _atom_site_fract_y
 _atom_site_fract_z
 _atom_site_fract_occupancy
 As  As1  1  0.50000  0.00000  0.26232  1
 As  As2  1  0.00000  0.50000  0.73768  1
 Co  Co1  1  0.50000  0.50000  0.00000  1
 Mn  Mn1  1  0.00000  0.00000  0.00000  1
 Mn  Mn2  1  0.50000  0.00000  0.65840  1
 Mn  Mn3  1  0.00000  0.50000  0.34160  1
