CIF file written using JARVIS-Tools package.
data_Li2Ti3BiO8
_symmetry_space_group_name_H-M  'R-3m'
_cell_length_a       5.97724
_cell_length_b       5.97724
_cell_length_c       6.67477
_cell_angle_alpha    63.4006
_cell_angle_beta     116.599
_cell_angle_gamma    120

_symmetry_Int_Tables_number  166
_chemical_formula_structural  Li2Ti3BiO8
_chemical_formula_sum  Li2Ti3BiO8
_cell_volume  176.77844393518788
_cell_formula_units_Z  1
loop_
  _symmetry_equiv_pos_site_id
 _symmetry_equiv_pos_as_xyz
 1  'x, y, z'
loop_
 _atom_site_type_symbol
 _atom_site_label
 _atom_site_symmetry_multiplicity
 _atom_site_fract_x
 _atom_site_fract_y
 _atom_site_fract_z
 _atom_site_fract_occupancy
 Bi  Bi1  1  0.50000  0.50000  0.50000  1
 Li  Li1  1  0.90855  0.09145  0.72565  1
 Li  Li2  1  0.09145  0.90855  0.27435  1
 O  O1  1  0.75684  0.71106  0.80263  1
 O  O2  1  0.75684  0.24316  0.80263  1
 O  O3  1  0.27348  0.72652  0.82044  1
 O  O4  1  0.28894  0.24316  0.80263  1
 O  O5  1  0.71106  0.75684  0.19737  1
 O  O6  1  0.72652  0.27348  0.17956  1
 O  O7  1  0.24316  0.75684  0.19737  1
 O  O8  1  0.24316  0.28894  0.19737  1
 Ti  Ti1  1  0.50000  0.50000  0.00000  1
 Ti  Ti2  1  0.50000  0.00000  0.00000  1
 Ti  Ti3  1  -0.00000  0.50000  0.00000  1
