CIF file written using JARVIS-Tools package.
data_H10C5O2
_symmetry_space_group_name_H-M  'P2_1/c'
_cell_length_a       4.9855
_cell_length_b       9.5643
_cell_length_c       11.5049
_cell_angle_alpha    90
_cell_angle_beta     97.0092
_cell_angle_gamma    90

_symmetry_Int_Tables_number  14
_chemical_formula_structural  H10C5O2
_chemical_formula_sum  H40C20O8
_cell_volume  544.484418100847
_cell_formula_units_Z  4
loop_
  _symmetry_equiv_pos_site_id
 _symmetry_equiv_pos_as_xyz
 1  'x, y, z'
loop_
 _atom_site_type_symbol
 _atom_site_label
 _atom_site_symmetry_multiplicity
 _atom_site_fract_x
 _atom_site_fract_y
 _atom_site_fract_z
 _atom_site_fract_occupancy
 C  C1  1  0.03422  0.78530  0.39106  1
 C  C2  1  0.33209  0.57776  0.78807  1
 C  C3  1  0.66791  0.42224  0.21193  1
 C  C4  1  0.66791  0.07776  0.71193  1
 C  C5  1  0.45302  0.96773  0.68336  1
 C  C6  1  0.54698  0.46773  0.81664  1
 C  C7  1  0.45302  0.53227  0.18336  1
 C  C8  1  0.54698  0.03227  0.31664  1
 C  C9  1  0.33209  0.92224  0.28807  1
 C  C10  1  0.94714  0.74409  0.00968  1
 C  C11  1  0.96578  0.21470  0.60894  1
 C  C12  1  0.94714  0.75591  0.50968  1
 C  C13  1  0.05286  0.24409  0.49032  1
 C  C14  1  0.05286  0.25591  0.99032  1
 C  C15  1  0.72806  0.64460  0.50755  1
 C  C16  1  0.27194  0.35540  0.49245  1
 C  C17  1  0.27194  0.14460  0.99245  1
 C  C18  1  0.72806  0.85540  0.00755  1
 C  C19  1  0.96578  0.28530  0.10894  1
 C  C20  1  0.03422  0.71470  0.89106  1
 H  H1  1  0.87116  0.27400  0.43095  1
 H  H2  1  0.79402  0.54464  0.47315  1
 H  H3  1  0.87116  0.22600  0.93095  1
 H  H4  1  0.12884  0.72600  0.56905  1
 H  H5  1  0.67807  0.87337  0.09687  1
 H  H6  1  0.20598  0.04464  0.02685  1
 H  H7  1  0.11793  0.35548  0.95428  1
 H  H8  1  0.20598  0.45536  0.52685  1
 H  H9  1  0.88207  0.64452  0.04572  1
 H  H10  1  0.45658  0.17682  0.04813  1
 H  H11  1  0.12884  0.77400  0.06905  1
 H  H12  1  0.54342  0.67682  0.45187  1
 H  H13  1  0.58506  0.17492  0.74442  1
 H  H14  1  0.41494  0.82508  0.25558  1
 H  H15  1  0.16660  0.53981  0.72372  1
 H  H16  1  0.83340  0.46019  0.27628  1
 H  H17  1  0.83340  0.03981  0.77628  1
 H  H18  1  0.16660  0.96019  0.22372  1
 H  H19  1  0.65370  0.44786  0.74000  1
 H  H20  1  0.34630  0.55214  0.26000  1
 H  H21  1  0.34630  0.94786  0.76000  1
 H  H22  1  0.65370  0.05214  0.24000  1
 H  H23  1  0.79402  0.95536  0.97315  1
 H  H24  1  0.54343  0.86873  0.65933  1
 H  H25  1  0.45657  0.13127  0.34067  1
 H  H26  1  0.69600  0.50065  0.88973  1
 H  H27  1  0.45657  0.36873  0.84067  1
 H  H28  1  0.30400  0.00065  0.61027  1
 H  H29  1  0.45658  0.32318  0.54813  1
 H  H30  1  0.30400  0.49935  0.11027  1
 H  H31  1  0.67807  0.62663  0.59687  1
 H  H32  1  0.32193  0.37337  0.40313  1
 H  H33  1  0.32193  0.12663  0.90313  1
 H  H34  1  0.54342  0.82318  0.95187  1
 H  H35  1  0.11793  0.14452  0.45428  1
 H  H36  1  0.54343  0.63127  0.15933  1
 H  H37  1  0.41494  0.67492  0.75558  1
 H  H38  1  0.58506  0.32508  0.24442  1
 H  H39  1  0.69600  -0.00065  0.38973  1
 H  H40  1  0.88207  0.85548  0.54572  1
 O  O1  1  0.04686  0.27610  0.69994  1
 O  O2  1  0.78003  0.38890  0.10338  1
 O  O3  1  0.21997  0.61110  0.89662  1
 O  O4  1  0.95314  0.72390  0.30006  1
 O  O5  1  0.78003  0.11110  0.60338  1
 O  O6  1  0.04686  0.22390  0.19994  1
 O  O7  1  0.95314  0.77610  0.80006  1
 O  O8  1  0.21997  0.88890  0.39662  1
