CIF file written using JARVIS-Tools package.
data_ZnH16C10O4
_symmetry_space_group_name_H-M  'P1'
_cell_length_a       3.87737
_cell_length_b       4.71671
_cell_length_c       14.8476
_cell_angle_alpha    87.6409
_cell_angle_beta     78.9121
_cell_angle_gamma    66.846

_symmetry_Int_Tables_number  1
_chemical_formula_structural  ZnH16C10O4
_chemical_formula_sum  ZnH6C0O4
_cell_volume  244.82704471186256
_cell_formula_units_Z  1
loop_
  _symmetry_equiv_pos_site_id
 _symmetry_equiv_pos_as_xyz
 1  'x, y, z'
loop_
 _atom_site_type_symbol
 _atom_site_label
 _atom_site_symmetry_multiplicity
 _atom_site_fract_x
 _atom_site_fract_y
 _atom_site_fract_z
 _atom_site_fract_occupancy
 C  C1  1  0.49735  0.53814  0.62218  1
 C  C2  1  0.82350  0.75831  0.37283  1
 C  C3  1  0.57717  0.73916  0.54409  1
 C  C4  1  0.75762  0.55733  0.45225  1
 C  C5  1  0.28751  0.71535  0.71374  1
 C  C6  1  0.20740  0.50634  0.78921  1
 C  C7  1  0.98020  0.67479  0.88109  1
 C  C8  1  0.91538  0.44863  0.95212  1
 C  C9  1  0.66095  0.58254  0.04398  1
 C  C10  1  0.92778  0.60409  0.27809  1
 H  H1  1  0.76262  0.84720  0.56160  1
 H  H2  1  0.56704  0.97096  0.37219  1
 H  H3  1  0.04858  0.83877  0.37971  1
 H  H4  1  0.13203  0.79847  0.90695  1
 H  H5  1  0.70361  0.85086  0.87114  1
 H  H6  1  0.02951  0.36612  0.45807  1
 H  H7  1  0.57160  0.44743  0.43654  1
 H  H8  1  0.76964  0.35345  0.63181  1
 H  H9  1  0.32803  0.41960  0.60163  1
 H  H10  1  0.48131  0.32605  0.79985  1
 H  H11  1  0.05125  0.38241  0.76506  1
 H  H12  1  0.18801  0.27726  0.96571  1
 H  H13  1  0.78187  0.31140  0.92478  1
 H  H14  1  0.30672  0.93142  0.53703  1
 H  H15  1  0.01499  0.89961  0.70403  1
 H  H16  1  0.45527  0.83280  0.73555  1
 O  O1  1  0.88435  0.77031  0.20832  1
 O  O2  1  0.45665  0.87283  0.05034  1
 O  O3  1  0.04401  0.30936  0.27319  1
 O  O4  1  0.64707  0.40131  0.10916  1
 Zn  Zn1  1  0.08132  0.08963  0.15963  1
