CIF file written using JARVIS-Tools package.
data_Li2FeP4O12
_symmetry_space_group_name_H-M  'P-1'
_cell_length_a       5.14449
_cell_length_b       7.28094
_cell_length_c       7.14284
_cell_angle_alpha    111.045
_cell_angle_beta     85.0939
_cell_angle_gamma    113.36

_symmetry_Int_Tables_number  2
_chemical_formula_structural  Li2FeP4O12
_chemical_formula_sum  Li2FeP4O2
_cell_volume  228.72986831568346
_cell_formula_units_Z  1
loop_
  _symmetry_equiv_pos_site_id
 _symmetry_equiv_pos_as_xyz
 1  'x, y, z'
loop_
 _atom_site_type_symbol
 _atom_site_label
 _atom_site_symmetry_multiplicity
 _atom_site_fract_x
 _atom_site_fract_y
 _atom_site_fract_z
 _atom_site_fract_occupancy
 Fe  Fe1  1  0.00000  0.00000  0.00000  1
 Li  Li1  1  0.94214  0.27591  0.43795  1
 Li  Li2  1  0.05786  0.72409  0.56205  1
 O  O1  1  0.77444  0.17046  0.65465  1
 O  O2  1  0.69226  0.35917  0.01336  1
 O  O3  1  0.30774  0.64083  0.98664  1
 O  O4  1  0.40966  0.34082  0.73022  1
 O  O5  1  0.69970  0.98801  0.19394  1
 O  O6  1  0.75207  0.43828  0.38530  1
 O  O7  1  0.24793  0.56172  0.61470  1
 O  O8  1  0.74989  0.72746  0.79296  1
 O  O9  1  0.59034  0.65918  0.26978  1
 O  O10  1  0.30030  0.01199  0.80606  1
 O  O11  1  0.25011  0.27254  0.20704  1
 O  O12  1  0.22556  0.82954  0.34535  1
 P  P1  1  0.44953  0.79424  0.21146  1
 P  P2  1  0.56193  0.42189  0.23007  1
 P  P3  1  0.43807  0.57811  0.76993  1
 P  P4  1  0.55047  0.20576  0.78854  1
