CIF file written using JARVIS-Tools package.
data_ThHg3
_symmetry_space_group_name_H-M  'P6_3/mmc'
_cell_length_a       6.79821
_cell_length_b       6.79821
_cell_length_c       5.04732
_cell_angle_alpha    90
_cell_angle_beta     90
_cell_angle_gamma    120

_symmetry_Int_Tables_number  194
_chemical_formula_structural  ThHg3
_chemical_formula_sum  Th2Hg6
_cell_volume  202.01336702067275
_cell_formula_units_Z  2
loop_
  _symmetry_equiv_pos_site_id
 _symmetry_equiv_pos_as_xyz
 1  'x, y, z'
loop_
 _atom_site_type_symbol
 _atom_site_label
 _atom_site_symmetry_multiplicity
 _atom_site_fract_x
 _atom_site_fract_y
 _atom_site_fract_z
 _atom_site_fract_occupancy
 Hg  Hg1  1  0.32654  0.16327  0.25000  1
 Hg  Hg2  1  0.16327  0.32654  0.75000  1
 Hg  Hg3  1  0.16327  0.83673  0.75000  1
 Hg  Hg4  1  0.83673  0.16327  0.25000  1
 Hg  Hg5  1  0.83673  0.67346  0.25000  1
 Hg  Hg6  1  0.67346  0.83673  0.75000  1
 Th  Th1  1  0.33333  0.66667  0.25000  1
 Th  Th2  1  0.66667  0.33333  0.75000  1
