CIF file written using JARVIS-Tools package.
data_K2CeAgBr6
_symmetry_space_group_name_H-M  'Fm-3m'
_cell_length_a       8.01762
_cell_length_b       8.01761
_cell_length_c       8.01761
_cell_angle_alpha    60
_cell_angle_beta     60
_cell_angle_gamma    60

_symmetry_Int_Tables_number  225
_chemical_formula_structural  K2CeAgBr6
_chemical_formula_sum  K2CeAgBr6
_cell_volume  364.43528467611355
_cell_formula_units_Z  1
loop_
  _symmetry_equiv_pos_site_id
 _symmetry_equiv_pos_as_xyz
 1  'x, y, z'
loop_
 _atom_site_type_symbol
 _atom_site_label
 _atom_site_symmetry_multiplicity
 _atom_site_fract_x
 _atom_site_fract_y
 _atom_site_fract_z
 _atom_site_fract_occupancy
 Ag  Ag1  1  0.00000  0.00000  0.00000  1
 Br  Br1  1  0.75319  0.24681  0.24681  1
 Br  Br2  1  0.24681  0.24681  0.75319  1
 Br  Br3  1  0.24681  0.75319  0.75319  1
 Br  Br4  1  0.24681  0.75319  0.24681  1
 Br  Br5  1  0.75319  0.24681  0.75319  1
 Br  Br6  1  0.75319  0.75319  0.24681  1
 Ce  Ce1  1  0.50000  0.50000  0.50000  1
 K  K1  1  0.75000  0.75000  0.75000  1
 K  K2  1  0.25000  0.25000  0.25000  1
