CIF file written using JARVIS-Tools package.
data_KBO2
_symmetry_space_group_name_H-M  'R-3c'
_cell_length_a       7.78053
_cell_length_b       7.78053
_cell_length_c       7.78053
_cell_angle_alpha    111.065
_cell_angle_beta     111.065
_cell_angle_gamma    111.065

_symmetry_Int_Tables_number  167
_chemical_formula_structural  KBO2
_chemical_formula_sum  K6B6O2
_cell_volume  339.50136218088
_cell_formula_units_Z  6
loop_
  _symmetry_equiv_pos_site_id
 _symmetry_equiv_pos_as_xyz
 1  'x, y, z'
loop_
 _atom_site_type_symbol
 _atom_site_label
 _atom_site_symmetry_multiplicity
 _atom_site_fract_x
 _atom_site_fract_y
 _atom_site_fract_z
 _atom_site_fract_occupancy
 B  B1  1  0.36342  0.13658  0.25000  1
 B  B2  1  0.13658  0.25000  0.36342  1
 B  B3  1  0.86342  0.75000  0.63658  1
 B  B4  1  0.63658  0.86342  0.75000  1
 B  B5  1  0.75000  0.63658  0.86342  1
 B  B6  1  0.25000  0.36342  0.13658  1
 K  K1  1  0.81073  0.25000  0.68927  1
 K  K2  1  0.75000  0.31073  0.18927  1
 K  K3  1  0.31073  0.18927  0.75000  1
 K  K4  1  0.18927  0.75000  0.31073  1
 K  K5  1  0.25000  0.68927  0.81073  1
 K  K6  1  0.68927  0.81073  0.25000  1
 O  O1  1  0.75000  0.85821  0.64179  1
 O  O2  1  0.25000  0.14179  0.35821  1
 O  O3  1  0.64179  0.75000  0.85821  1
 O  O4  1  0.03361  0.25000  0.46639  1
 O  O5  1  0.46639  0.03361  0.25000  1
 O  O6  1  0.96639  0.75000  0.53361  1
 O  O7  1  0.53361  0.96639  0.75000  1
 O  O8  1  0.75000  0.53361  0.96639  1
 O  O9  1  0.14179  0.35821  0.25000  1
 O  O10  1  0.35821  0.25000  0.14179  1
 O  O11  1  0.25000  0.46639  0.03361  1
 O  O12  1  0.85821  0.64179  0.75000  1
