CIF file written using JARVIS-Tools package.
data_BaSrN
_symmetry_space_group_name_H-M  'R3m'
_cell_length_a       7.52124
_cell_length_b       7.52124
_cell_length_c       7.52124
_cell_angle_alpha    30.2303
_cell_angle_beta     30.2303
_cell_angle_gamma    30.2303

_symmetry_Int_Tables_number  160
_chemical_formula_structural  BaSrN
_chemical_formula_sum  BaSrN
_cell_volume  95.56632605367454
_cell_formula_units_Z  1
loop_
  _symmetry_equiv_pos_site_id
 _symmetry_equiv_pos_as_xyz
 1  'x, y, z'
loop_
 _atom_site_type_symbol
 _atom_site_label
 _atom_site_symmetry_multiplicity
 _atom_site_fract_x
 _atom_site_fract_y
 _atom_site_fract_z
 _atom_site_fract_occupancy
 Ba  Ba1  1  0.73529  0.73529  0.73529  1
 N  N1  1  0.99732  0.99732  0.99732  1
 Sr  Sr1  1  0.26739  0.26739  0.26739  1
