CIF file written using JARVIS-Tools package.
data_Ce3GeS2
_symmetry_space_group_name_H-M  'Immm'
_cell_length_a       7.13387
_cell_length_b       7.13387
_cell_length_c       7.13387
_cell_angle_alpha    146.21
_cell_angle_beta     131.755
_cell_angle_gamma    60.1968

_symmetry_Int_Tables_number  71
_chemical_formula_structural  Ce3GeS2
_chemical_formula_sum  Ce3GeS2
_cell_volume  149.2301350044987
_cell_formula_units_Z  1
loop_
  _symmetry_equiv_pos_site_id
 _symmetry_equiv_pos_as_xyz
 1  'x, y, z'
loop_
 _atom_site_type_symbol
 _atom_site_label
 _atom_site_symmetry_multiplicity
 _atom_site_fract_x
 _atom_site_fract_y
 _atom_site_fract_z
 _atom_site_fract_occupancy
 Ce  Ce1  1  0.32863  0.32863  -0.00000  1
 Ce  Ce2  1  0.00000  0.00000  0.00000  1
 Ce  Ce3  1  0.67137  0.67137  -0.00000  1
 Ge  Ge1  1  0.50000  -0.00000  0.50000  1
 S  S1  1  0.16489  0.66489  0.50000  1
 S  S2  1  0.83511  0.33511  0.50000  1
