CIF file written using JARVIS-Tools package.
data_Cd2GeO4
_symmetry_space_group_name_H-M  'Pnma'
_cell_length_a       5.28334
_cell_length_b       6.66315
_cell_length_c       11.281
_cell_angle_alpha    90
_cell_angle_beta     90
_cell_angle_gamma    90

_symmetry_Int_Tables_number  62
_chemical_formula_structural  Cd2GeO4
_chemical_formula_sum  Cd8Ge4O6
_cell_volume  397.1314660058074
_cell_formula_units_Z  4
loop_
  _symmetry_equiv_pos_site_id
 _symmetry_equiv_pos_as_xyz
 1  'x, y, z'
loop_
 _atom_site_type_symbol
 _atom_site_label
 _atom_site_symmetry_multiplicity
 _atom_site_fract_x
 _atom_site_fract_y
 _atom_site_fract_z
 _atom_site_fract_occupancy
 Cd  Cd1  1  0.48747  0.75000  0.78102  1
 Cd  Cd2  1  0.98747  0.25000  0.71898  1
 Cd  Cd3  1  0.51253  0.25000  0.21898  1
 Cd  Cd4  1  0.01253  0.75000  0.28102  1
 Cd  Cd5  1  0.50000  0.50000  0.50000  1
 Cd  Cd6  1  0.00000  0.50000  0.00000  1
 Cd  Cd7  1  0.50000  0.00000  0.50000  1
 Cd  Cd8  1  0.00000  0.00000  0.00000  1
 Ge  Ge1  1  0.93412  0.75000  0.59906  1
 Ge  Ge2  1  0.43412  0.25000  0.90094  1
 Ge  Ge3  1  0.06588  0.25000  0.40094  1
 Ge  Ge4  1  0.56588  0.75000  0.09906  1
 O  O1  1  0.22175  0.46174  0.33423  1
 O  O2  1  0.76865  0.25000  0.90325  1
 O  O3  1  0.77825  0.96174  0.66577  1
 O  O4  1  0.27825  0.03826  0.83423  1
 O  O5  1  0.77825  0.53826  0.66577  1
 O  O6  1  0.27825  0.46174  0.83423  1
 O  O7  1  0.72175  0.53826  0.16577  1
 O  O8  1  0.23135  0.75000  0.09675  1
 O  O9  1  0.78885  0.75000  0.45272  1
 O  O10  1  0.28885  0.25000  0.04728  1
 O  O11  1  0.21115  0.25000  0.54728  1
 O  O12  1  0.71115  0.75000  0.95272  1
 O  O13  1  0.22175  0.03826  0.33423  1
 O  O14  1  0.73135  0.25000  0.40325  1
 O  O15  1  0.72175  0.96174  0.16577  1
 O  O16  1  0.26865  0.75000  0.59675  1
