CIF file written using JARVIS-Tools package.
data_H2C3O3
_symmetry_space_group_name_H-M  'P1'
_cell_length_a       4.34836
_cell_length_b       5.14292
_cell_length_c       7.405
_cell_angle_alpha    88.3057
_cell_angle_beta     86.2718
_cell_angle_gamma    68.1437

_symmetry_Int_Tables_number  1
_chemical_formula_structural  H2C3O3
_chemical_formula_sum  H4C6O6
_cell_volume  153.36892642507482
_cell_formula_units_Z  2
loop_
  _symmetry_equiv_pos_site_id
 _symmetry_equiv_pos_as_xyz
 1  'x, y, z'
loop_
 _atom_site_type_symbol
 _atom_site_label
 _atom_site_symmetry_multiplicity
 _atom_site_fract_x
 _atom_site_fract_y
 _atom_site_fract_z
 _atom_site_fract_occupancy
 C  C1  1  0.69903  0.71083  0.17799  1
 C  C2  1  0.19904  0.21083  0.67799  1
 C  C3  1  0.45628  0.00254  0.14518  1
 C  C4  1  0.95629  0.50254  0.64518  1
 C  C5  1  0.36760  0.19877  0.85088  1
 C  C6  1  0.86758  0.69877  0.35088  1
 H  H1  1  0.88883  0.66366  0.06468  1
 H  H2  1  0.38884  0.16367  0.56467  1
 H  H3  1  0.57787  0.55891  0.17293  1
 H  H4  1  0.07789  0.05891  0.67292  1
 O  O1  1  0.30679  0.01900  0.97813  1
 O  O2  1  0.80679  0.51900  0.47813  1
 O  O3  1  0.38901  0.20569  0.23905  1
 O  O4  1  0.88902  0.70569  0.73906  1
 O  O5  1  0.54317  0.32867  0.87647  1
 O  O6  1  0.04316  0.82868  0.37647  1
