CIF file written using JARVIS-Tools package.
data_Mn2GaCu3
_symmetry_space_group_name_H-M  'R-3m'
_cell_length_a       4.84012
_cell_length_b       4.84012
_cell_length_c       4.84012
_cell_angle_alpha    60.0297
_cell_angle_beta     60.0297
_cell_angle_gamma    60.0297

_symmetry_Int_Tables_number  166
_chemical_formula_structural  Mn2GaCu3
_chemical_formula_sum  Mn2GaCu3
_cell_volume  80.23177248522911
_cell_formula_units_Z  1
loop_
  _symmetry_equiv_pos_site_id
 _symmetry_equiv_pos_as_xyz
 1  'x, y, z'
loop_
 _atom_site_type_symbol
 _atom_site_label
 _atom_site_symmetry_multiplicity
 _atom_site_fract_x
 _atom_site_fract_y
 _atom_site_fract_z
 _atom_site_fract_occupancy
 Cu  Cu1  1  -0.00000  0.50000  0.00000  1
 Cu  Cu2  1  0.50000  -0.00000  0.00000  1
 Cu  Cu3  1  0.00000  -0.00000  0.50000  1
 Ga  Ga1  1  0.00000  0.00000  0.00000  1
 Mn  Mn1  1  0.62525  0.62525  0.62525  1
 Mn  Mn2  1  0.37475  0.37475  0.37475  1
