CIF file written using JARVIS-Tools package.
data_TiCo2O4
_symmetry_space_group_name_H-M  'Imma'
_cell_length_a       5.96953
_cell_length_b       5.96953
_cell_length_c       5.82355
_cell_angle_alpha    60.8057
_cell_angle_beta     60.8057
_cell_angle_gamma    60.1684

_symmetry_Int_Tables_number  74
_chemical_formula_structural  TiCo2O4
_chemical_formula_sum  Ti2Co4O8
_cell_volume  148.69582958209432
_cell_formula_units_Z  2
loop_
  _symmetry_equiv_pos_site_id
 _symmetry_equiv_pos_as_xyz
 1  'x, y, z'
loop_
 _atom_site_type_symbol
 _atom_site_label
 _atom_site_symmetry_multiplicity
 _atom_site_fract_x
 _atom_site_fract_y
 _atom_site_fract_z
 _atom_site_fract_occupancy
 Co  Co1  1  0.00982  0.00982  0.99018  1
 Co  Co2  1  0.24018  0.24018  0.25982  1
 Co  Co3  1  0.62500  0.62500  0.12500  1
 Co  Co4  1  0.62500  0.62500  0.62500  1
 O  O1  1  0.37486  0.37486  0.39566  1
 O  O2  1  0.36712  0.84700  0.39294  1
 O  O3  1  0.37486  0.37486  0.85461  1
 O  O4  1  0.84700  0.36712  0.39294  1
 O  O5  1  0.40300  0.88288  0.85706  1
 O  O6  1  0.88288  0.40300  0.85706  1
 O  O7  1  0.87514  0.87514  0.39539  1
 O  O8  1  0.87514  0.87514  0.85434  1
 Ti  Ti1  1  0.12500  0.62500  0.62500  1
 Ti  Ti2  1  0.62500  0.12500  0.62500  1
