CIF file written using JARVIS-Tools package.
data_Nd5AgSe8
_symmetry_space_group_name_H-M  'I-4'
_cell_length_a       7.7222
_cell_length_b       7.72221
_cell_length_c       7.7222
_cell_angle_alpha    109.869
_cell_angle_beta     109.869
_cell_angle_gamma    108.678

_symmetry_Int_Tables_number  82
_chemical_formula_structural  Nd5AgSe8
_chemical_formula_sum  Nd5AgSe8
_cell_volume  354.43793632339487
_cell_formula_units_Z  1
loop_
  _symmetry_equiv_pos_site_id
 _symmetry_equiv_pos_as_xyz
 1  'x, y, z'
loop_
 _atom_site_type_symbol
 _atom_site_label
 _atom_site_symmetry_multiplicity
 _atom_site_fract_x
 _atom_site_fract_y
 _atom_site_fract_z
 _atom_site_fract_occupancy
 Ag  Ag1  1  0.87500  0.12500  0.75000  1
 Nd  Nd1  1  0.11366  0.74453  0.87186  1
 Nd  Nd2  1  0.25547  0.62733  0.36913  1
 Nd  Nd3  1  0.37267  0.24180  0.62814  1
 Nd  Nd4  1  0.62500  0.37500  0.25000  1
 Nd  Nd5  1  0.75820  0.88634  0.13087  1
 Se  Se1  1  0.98997  0.85164  0.50059  1
 Se  Se2  1  0.00804  0.36189  0.49159  1
 Se  Se3  1  0.48355  0.99196  0.85386  1
 Se  Se4  1  0.14836  0.14895  0.13833  1
 Se  Se5  1  0.37031  0.51645  0.00841  1
 Se  Se6  1  0.63811  0.62969  0.64614  1
 Se  Se7  1  0.51062  0.01003  0.36167  1
 Se  Se8  1  0.85105  0.48938  0.99941  1
