CIF file written using JARVIS-Tools package.
data_FeCuS2
_symmetry_space_group_name_H-M  'I-42d'
_cell_length_a       5.23625
_cell_length_b       5.23625
_cell_length_c       6.31605
_cell_angle_alpha    114.489
_cell_angle_beta     114.489
_cell_angle_gamma    90.0001

_symmetry_Int_Tables_number  122
_chemical_formula_structural  FeCuS2
_chemical_formula_sum  Fe2Cu2S4
_cell_volume  140.29855859735864
_cell_formula_units_Z  2
loop_
  _symmetry_equiv_pos_site_id
 _symmetry_equiv_pos_as_xyz
 1  'x, y, z'
loop_
 _atom_site_type_symbol
 _atom_site_label
 _atom_site_symmetry_multiplicity
 _atom_site_fract_x
 _atom_site_fract_y
 _atom_site_fract_z
 _atom_site_fract_occupancy
 Cu  Cu1  1  0.75000  0.25000  0.50000  1
 Cu  Cu2  1  0.50000  0.50000  -0.00000  1
 Fe  Fe1  1  0.00000  0.00000  0.00000  1
 Fe  Fe2  1  0.25000  0.75000  0.50000  1
 S  S1  1  0.88794  0.87500  0.25000  1
 S  S2  1  0.62500  0.11206  0.75000  1
 S  S3  1  0.36206  0.37500  0.25000  1
 S  S4  1  0.12500  0.63794  0.75000  1
