CIF file written using JARVIS-Tools package.
data_CeU4N5
_symmetry_space_group_name_H-M  'R-3m'
_cell_length_a       14.304
_cell_length_b       14.304
_cell_length_c       14.304
_cell_angle_alpha    13.9296
_cell_angle_beta     13.9296
_cell_angle_gamma    13.9296

_symmetry_Int_Tables_number  166
_chemical_formula_structural  CeU4N5
_chemical_formula_sum  CeU4N5
_cell_volume  147.60390935407602
_cell_formula_units_Z  1
loop_
  _symmetry_equiv_pos_site_id
 _symmetry_equiv_pos_as_xyz
 1  'x, y, z'
loop_
 _atom_site_type_symbol
 _atom_site_label
 _atom_site_symmetry_multiplicity
 _atom_site_fract_x
 _atom_site_fract_y
 _atom_site_fract_z
 _atom_site_fract_occupancy
 Ce  Ce1  1  0.00000  0.00000  0.00000  1
 N  N1  1  0.70449  0.70449  0.70449  1
 N  N2  1  0.50000  0.50000  0.50000  1
 N  N3  1  0.10083  0.10083  0.10083  1
 N  N4  1  0.29551  0.29551  0.29551  1
 N  N5  1  0.89917  0.89917  0.89917  1
 U  U1  1  0.59838  0.59838  0.59838  1
 U  U2  1  0.19954  0.19954  0.19954  1
 U  U3  1  0.80046  0.80046  0.80046  1
 U  U4  1  0.40162  0.40162  0.40162  1
