CIF file written using JARVIS-Tools package.
data_TiMo2
_symmetry_space_group_name_H-M  'Fmmm'
_cell_length_a       6.9914
_cell_length_b       6.7944
_cell_length_c       2.7717
_cell_angle_alpha    82.4226
_cell_angle_beta     74.4372
_cell_angle_gamma    23.1402

_symmetry_Int_Tables_number  69
_chemical_formula_structural  TiMo2
_chemical_formula_sum  TiMo2
_cell_volume  47.49528105613252
_cell_formula_units_Z  1
loop_
  _symmetry_equiv_pos_site_id
 _symmetry_equiv_pos_as_xyz
 1  'x, y, z'
loop_
 _atom_site_type_symbol
 _atom_site_label
 _atom_site_symmetry_multiplicity
 _atom_site_fract_x
 _atom_site_fract_y
 _atom_site_fract_z
 _atom_site_fract_occupancy
 Mo  Mo1  1  0.33210  0.33210  0.66790  1
 Mo  Mo2  1  0.66790  0.66790  0.33210  1
 Ti  Ti1  1  0.00000  0.00000  0.00000  1
