CIF file written using JARVIS-Tools package.
data_K2Be2O3
_symmetry_space_group_name_H-M  'P2_1/c'
_cell_length_a       4.96896
_cell_length_b       7.95033
_cell_length_c       6.28022
_cell_angle_alpha    90
_cell_angle_beta     115.717
_cell_angle_gamma    90

_symmetry_Int_Tables_number  14
_chemical_formula_structural  K2Be2O3
_chemical_formula_sum  K4Be4O6
_cell_volume  223.52371582238865
_cell_formula_units_Z  2
loop_
  _symmetry_equiv_pos_site_id
 _symmetry_equiv_pos_as_xyz
 1  'x, y, z'
loop_
 _atom_site_type_symbol
 _atom_site_label
 _atom_site_symmetry_multiplicity
 _atom_site_fract_x
 _atom_site_fract_y
 _atom_site_fract_z
 _atom_site_fract_occupancy
 Be  Be1  1  0.30432  0.51312  0.50578  1
 Be  Be2  1  0.69568  0.01312  0.99422  1
 Be  Be3  1  0.30432  0.98688  0.00578  1
 Be  Be4  1  0.69568  0.48688  0.49422  1
 K  K1  1  0.21667  0.35102  0.92971  1
 K  K2  1  0.21667  0.14898  0.42971  1
 K  K3  1  0.78333  0.85102  0.57029  1
 K  K4  1  0.78333  0.64898  0.07029  1
 O  O1  1  0.00000  0.50000  0.50000  1
 O  O2  1  0.00000  0.00000  0.00000  1
 O  O3  1  0.39249  0.93990  0.79938  1
 O  O4  1  0.60751  0.43990  0.70062  1
 O  O5  1  0.39249  0.56010  0.29938  1
 O  O6  1  0.60751  0.06010  0.20062  1
