CIF file written using JARVIS-Tools package.
data_Rb2NaTlBr6
_symmetry_space_group_name_H-M  'Fm-3m'
_cell_length_a       7.90391
_cell_length_b       7.90391
_cell_length_c       7.90391
_cell_angle_alpha    60
_cell_angle_beta     60
_cell_angle_gamma    60.0001

_symmetry_Int_Tables_number  225
_chemical_formula_structural  Rb2NaTlBr6
_chemical_formula_sum  Rb2NaTlBr6
_cell_volume  349.14905869114915
_cell_formula_units_Z  1
loop_
  _symmetry_equiv_pos_site_id
 _symmetry_equiv_pos_as_xyz
 1  'x, y, z'
loop_
 _atom_site_type_symbol
 _atom_site_label
 _atom_site_symmetry_multiplicity
 _atom_site_fract_x
 _atom_site_fract_y
 _atom_site_fract_z
 _atom_site_fract_occupancy
 Br  Br1  1  0.75278  0.24722  0.24722  1
 Br  Br2  1  0.24722  0.24722  0.75278  1
 Br  Br3  1  0.24722  0.75278  0.75278  1
 Br  Br4  1  0.24722  0.75278  0.24722  1
 Br  Br5  1  0.75278  0.24722  0.75278  1
 Br  Br6  1  0.75278  0.75278  0.24722  1
 Na  Na1  1  0.50000  0.50000  0.50000  1
 Rb  Rb1  1  0.75000  0.75000  0.75000  1
 Rb  Rb2  1  0.25000  0.25000  0.25000  1
 Tl  Tl1  1  0.00000  0.00000  0.00000  1
