CIF file written using JARVIS-Tools package.
data_Te2MoW3Se2S4
_symmetry_space_group_name_H-M  'P3m1'
_cell_length_a       3.31161
_cell_length_b       3.31163
_cell_length_c       32.5128
_cell_angle_alpha    89.9889
_cell_angle_beta     90
_cell_angle_gamma    120

_symmetry_Int_Tables_number  156
_chemical_formula_structural  Te2MoW3Se2S4
_chemical_formula_sum  Te2MoW3Se2S4
_cell_volume  308.79295979144877
_cell_formula_units_Z  1
loop_
  _symmetry_equiv_pos_site_id
 _symmetry_equiv_pos_as_xyz
 1  'x, y, z'
loop_
 _atom_site_type_symbol
 _atom_site_label
 _atom_site_symmetry_multiplicity
 _atom_site_fract_x
 _atom_site_fract_y
 _atom_site_fract_z
 _atom_site_fract_occupancy
 Mo  Mo1  1  0.66674  0.33347  0.27471  1
 S  S1  1  0.66582  0.33163  0.03105  1
 S  S2  1  0.66714  0.33427  0.42353  1
 S  S3  1  0.66578  0.33157  0.12550  1
 S  S4  1  0.66696  0.33392  0.51803  1
 Se  Se1  1  0.33334  0.66668  0.32632  1
 Se  Se2  1  0.33344  0.66689  0.22308  1
 Te  Te1  1  0.33372  0.66744  0.73844  1
 Te  Te2  1  0.33388  0.66775  0.61986  1
 W  W1  1  0.33241  0.66483  0.07825  1
 W  W2  1  0.33367  0.66735  0.47078  1
 W  W3  1  0.66710  0.33420  0.67922  1
