CIF file written using JARVIS-Tools package.
data_MnS2
_symmetry_space_group_name_H-M  'I-42d'
_cell_length_a       5.1048
_cell_length_b       5.1048
_cell_length_c       5.97642
_cell_angle_alpha    115.282
_cell_angle_beta     115.282
_cell_angle_gamma    90

_symmetry_Int_Tables_number  122
_chemical_formula_structural  MnS2
_chemical_formula_sum  Mn2S4
_cell_volume  124.12395968227077
_cell_formula_units_Z  2
loop_
  _symmetry_equiv_pos_site_id
 _symmetry_equiv_pos_as_xyz
 1  'x, y, z'
loop_
 _atom_site_type_symbol
 _atom_site_label
 _atom_site_symmetry_multiplicity
 _atom_site_fract_x
 _atom_site_fract_y
 _atom_site_fract_z
 _atom_site_fract_occupancy
 Mn  Mn1  1  0.25000  0.75000  0.50000  1
 Mn  Mn2  1  0.00000  0.00000  0.00000  1
 S  S1  1  0.89549  0.87500  0.25000  1
 S  S2  1  0.62500  0.10451  0.75000  1
 S  S3  1  0.35451  0.37500  0.25000  1
 S  S4  1  0.12500  0.64549  0.75000  1
