CIF file written using JARVIS-Tools package.
data_Mn4Hg3Au
_symmetry_space_group_name_H-M  'Pmmm'
_cell_length_a       3.31524
_cell_length_b       4.61517
_cell_length_c       9.24438
_cell_angle_alpha    90
_cell_angle_beta     90
_cell_angle_gamma    90

_symmetry_Int_Tables_number  47
_chemical_formula_structural  Mn4Hg3Au
_chemical_formula_sum  Mn4Hg3Au
_cell_volume  141.4427498381013
_cell_formula_units_Z  1
loop_
  _symmetry_equiv_pos_site_id
 _symmetry_equiv_pos_as_xyz
 1  'x, y, z'
loop_
 _atom_site_type_symbol
 _atom_site_label
 _atom_site_symmetry_multiplicity
 _atom_site_fract_x
 _atom_site_fract_y
 _atom_site_fract_z
 _atom_site_fract_occupancy
 Au  Au1  1  0.00000  0.50000  0.37483  1
 Hg  Hg1  1  0.00000  0.50000  0.87482  1
 Hg  Hg2  1  0.00000  0.00000  0.12562  1
 Hg  Hg3  1  0.00000  0.00000  0.62475  1
 Mn  Mn1  1  0.50000  0.50000  0.13493  1
 Mn  Mn2  1  0.50000  0.50000  0.61465  1
 Mn  Mn3  1  0.50000  0.00000  0.37516  1
 Mn  Mn4  1  0.50000  0.00000  0.87523  1
