CIF file written using JARVIS-Tools package.
data_CoNi2S4
_symmetry_space_group_name_H-M  'P2/m'
_cell_length_a       3.38411
_cell_length_b       5.17509
_cell_length_c       5.89373
_cell_angle_alpha    87.2266
_cell_angle_beta     90
_cell_angle_gamma    90

_symmetry_Int_Tables_number  10
_chemical_formula_structural  CoNi2S4
_chemical_formula_sum  CoNi2S4
_cell_volume  103.09630373951109
_cell_formula_units_Z  1
loop_
  _symmetry_equiv_pos_site_id
 _symmetry_equiv_pos_as_xyz
 1  'x, y, z'
loop_
 _atom_site_type_symbol
 _atom_site_label
 _atom_site_symmetry_multiplicity
 _atom_site_fract_x
 _atom_site_fract_y
 _atom_site_fract_z
 _atom_site_fract_occupancy
 Co  Co1  1  0.00000  0.50000  -0.00000  1
 Ni  Ni1  1  0.50000  0.50000  0.50000  1
 Ni  Ni2  1  0.00000  0.00000  0.00000  1
 S  S1  1  0.50000  0.74605  0.83345  1
 S  S2  1  0.00000  0.71980  0.32209  1
 S  S3  1  0.00000  0.28020  0.67791  1
 S  S4  1  0.50000  0.25395  0.16655  1
