CIF file written using JARVIS-Tools package.
data_TiH18C10O4
_symmetry_space_group_name_H-M  'P1'
_cell_length_a       4.9534
_cell_length_b       6.75201
_cell_length_c       8.85483
_cell_angle_alpha    78.6814
_cell_angle_beta     79.9877
_cell_angle_gamma    78.8755

_symmetry_Int_Tables_number  1
_chemical_formula_structural  TiH18C10O4
_chemical_formula_sum  TiH8C0O4
_cell_volume  282.07682809567916
_cell_formula_units_Z  1
loop_
  _symmetry_equiv_pos_site_id
 _symmetry_equiv_pos_as_xyz
 1  'x, y, z'
loop_
 _atom_site_type_symbol
 _atom_site_label
 _atom_site_symmetry_multiplicity
 _atom_site_fract_x
 _atom_site_fract_y
 _atom_site_fract_z
 _atom_site_fract_occupancy
 C  C1  1  0.86461  0.03381  0.47216  1
 C  C2  1  0.09008  0.55287  0.69127  1
 C  C3  1  0.84491  0.14103  0.61003  1
 C  C4  1  0.63649  0.37607  0.01558  1
 C  C5  1  0.59458  0.97800  0.44509  1
 C  C6  1  0.63126  0.86692  0.30545  1
 C  C7  1  0.80058  0.65022  0.33119  1
 C  C8  1  0.84858  0.54019  0.19090  1
 C  C9  1  0.58503  0.48661  0.15337  1
 C  C10  1  0.18160  0.95979  0.92789  1
 H  H1  1  0.73133  0.95818  0.20065  1
 H  H2  1  0.35312  0.85398  0.87406  1
 H  H3  1  0.95316  0.13357  0.36862  1
 H  H4  1  0.02425  0.89730  0.49116  1
 H  H5  1  0.50742  0.88176  0.55087  1
 H  H6  1  -0.01947  0.92020  0.92074  1
 H  H7  1  0.42350  0.85906  0.28047  1
 H  H8  1  0.12958  0.66272  0.75843  1
 H  H9  1  0.22358  0.56497  0.57749  1
 H  H10  1  0.69638  0.55797  0.43405  1
 H  H11  1  0.00498  0.65784  0.36049  1
 H  H12  1  0.87074  0.57980  0.67558  1
 H  H13  1  0.00075  0.39911  0.21046  1
 H  H14  1  0.94511  0.63528  0.08800  1
 H  H15  1  0.48158  0.38981  0.25350  1
 H  H16  1  0.42936  0.62373  0.12606  1
 H  H17  1  0.43964  0.11768  0.42900  1
 H  H18  1  0.20519  0.95502  0.05007  1
 O  O1  1  0.06601  0.16995  0.64601  1
 O  O2  1  0.41806  0.33664  0.97212  1
 O  O3  1  0.60228  0.19808  0.68550  1
 O  O4  1  0.87757  0.32812  0.94927  1
 Ti  Ti1  1  0.25202  0.25973  0.81320  1
