CIF file written using JARVIS-Tools package.
data_CeNdS2
_symmetry_space_group_name_H-M  'R-3m'
_cell_length_a       7.02872
_cell_length_b       7.02872
_cell_length_c       7.02872
_cell_angle_alpha    33.5629
_cell_angle_beta     33.5629
_cell_angle_gamma    33.5629

_symmetry_Int_Tables_number  166
_chemical_formula_structural  CeNdS2
_chemical_formula_sum  CeNdS2
_cell_volume  94.53503693526898
_cell_formula_units_Z  1
loop_
  _symmetry_equiv_pos_site_id
 _symmetry_equiv_pos_as_xyz
 1  'x, y, z'
loop_
 _atom_site_type_symbol
 _atom_site_label
 _atom_site_symmetry_multiplicity
 _atom_site_fract_x
 _atom_site_fract_y
 _atom_site_fract_z
 _atom_site_fract_occupancy
 Ce  Ce1  1  0.00000  0.00000  0.00000  1
 Nd  Nd1  1  0.50000  0.50000  0.50000  1
 S  S1  1  0.25066  0.25066  0.25066  1
 S  S2  1  0.74934  0.74934  0.74934  1
