CIF file written using JARVIS-Tools package.
data_LiNbCrO4
_symmetry_space_group_name_H-M  'P4_322'
_cell_length_a       6.13325
_cell_length_b       6.13325
_cell_length_c       8.27865
_cell_angle_alpha    90.0018
_cell_angle_beta     89.9991
_cell_angle_gamma    89.9999

_symmetry_Int_Tables_number  95
_chemical_formula_structural  LiNbCrO4
_chemical_formula_sum  Li4Nb4Cr4O6
_cell_volume  311.4162723332152
_cell_formula_units_Z  4
loop_
  _symmetry_equiv_pos_site_id
 _symmetry_equiv_pos_as_xyz
 1  'x, y, z'
loop_
 _atom_site_type_symbol
 _atom_site_label
 _atom_site_symmetry_multiplicity
 _atom_site_fract_x
 _atom_site_fract_y
 _atom_site_fract_z
 _atom_site_fract_occupancy
 Cr  Cr1  1  0.24878  0.50000  0.50000  1
 Cr  Cr2  1  0.50000  0.24878  0.25000  1
 Cr  Cr3  1  0.75122  0.50000  0.00000  1
 Cr  Cr4  1  0.50000  0.75122  0.75000  1
 Li  Li1  1  0.76080  -0.00000  -0.00000  1
 Li  Li2  1  0.00000  0.76080  0.75000  1
 Li  Li3  1  0.00000  0.23920  0.25000  1
 Li  Li4  1  0.23920  -0.00000  0.50000  1
 Nb  Nb1  1  0.24511  0.24511  0.87500  1
 Nb  Nb2  1  0.75489  0.75489  0.37500  1
 Nb  Nb3  1  0.24511  0.75489  0.12500  1
 Nb  Nb4  1  0.75489  0.24510  0.62500  1
 O  O1  1  0.48715  0.26491  0.49473  1
 O  O2  1  0.73974  0.01830  0.25493  1
 O  O3  1  0.73974  -0.01831  0.74507  1
 O  O4  1  -0.01831  0.26025  -0.00493  1
 O  O5  1  0.01831  0.26026  0.50493  1
 O  O6  1  0.51285  0.26491  0.00527  1
 O  O7  1  0.26026  0.01831  0.24507  1
 O  O8  1  -0.01831  0.73974  0.00493  1
 O  O9  1  0.73509  0.51285  0.75527  1
 O  O10  1  0.26491  0.51285  0.74473  1
 O  O11  1  0.48715  0.73509  0.50527  1
 O  O12  1  0.51285  0.73509  0.99473  1
 O  O13  1  0.73509  0.48715  0.24473  1
 O  O14  1  0.01830  0.73974  0.49507  1
 O  O15  1  0.26491  0.48716  0.25527  1
 O  O16  1  0.26025  -0.01831  0.75493  1
