CIF file written using JARVIS-Tools package.
data_NaSbCl6
_symmetry_space_group_name_H-M  'P4_2/m'
_cell_length_a       6.28068
_cell_length_b       6.28068
_cell_length_c       10.764
_cell_angle_alpha    90
_cell_angle_beta     90
_cell_angle_gamma    90

_symmetry_Int_Tables_number  84
_chemical_formula_structural  NaSbCl6
_chemical_formula_sum  Na2Sb2Cl2
_cell_volume  424.60545977168783
_cell_formula_units_Z  2
loop_
  _symmetry_equiv_pos_site_id
 _symmetry_equiv_pos_as_xyz
 1  'x, y, z'
loop_
 _atom_site_type_symbol
 _atom_site_label
 _atom_site_symmetry_multiplicity
 _atom_site_fract_x
 _atom_site_fract_y
 _atom_site_fract_z
 _atom_site_fract_occupancy
 Cl  Cl1  1  0.77836  0.18383  0.00000  1
 Cl  Cl2  1  0.81617  0.77836  0.50000  1
 Cl  Cl3  1  0.18383  0.22164  0.50000  1
 Cl  Cl4  1  0.22164  0.81617  0.00000  1
 Cl  Cl5  1  0.22764  0.34692  0.15833  1
 Cl  Cl6  1  0.65308  0.22764  0.65833  1
 Cl  Cl7  1  0.34692  0.77236  0.65833  1
 Cl  Cl8  1  0.77236  0.65308  0.15833  1
 Cl  Cl9  1  0.77236  0.65308  0.84167  1
 Cl  Cl10  1  0.34692  0.77236  0.34167  1
 Cl  Cl11  1  0.65308  0.22764  0.34167  1
 Cl  Cl12  1  0.22764  0.34692  0.84167  1
 Na  Na1  1  0.00000  0.00000  0.75000  1
 Na  Na2  1  0.00000  0.00000  0.25000  1
 Sb  Sb1  1  0.50000  0.00000  0.50000  1
 Sb  Sb2  1  0.00000  0.50000  0.00000  1
