CIF file written using JARVIS-Tools package.
data_Cd4Te5Pb
_symmetry_space_group_name_H-M  'Imm2'
_cell_length_a       12.8275
_cell_length_b       12.8275
_cell_length_c       12.8275
_cell_angle_alpha    158.962
_cell_angle_beta     149.806
_cell_angle_gamma    37.0924

_symmetry_Int_Tables_number  44
_chemical_formula_structural  Cd4Te5Pb
_chemical_formula_sum  Cd4Te5Pb
_cell_volume  380.6107909745912
_cell_formula_units_Z  1
loop_
  _symmetry_equiv_pos_site_id
 _symmetry_equiv_pos_as_xyz
 1  'x, y, z'
loop_
 _atom_site_type_symbol
 _atom_site_label
 _atom_site_symmetry_multiplicity
 _atom_site_fract_x
 _atom_site_fract_y
 _atom_site_fract_z
 _atom_site_fract_occupancy
 Cd  Cd1  1  0.39470  0.39364  0.00106  1
 Cd  Cd2  1  0.78514  0.79339  0.99175  1
 Cd  Cd3  1  0.19836  0.20661  0.99175  1
 Cd  Cd4  1  0.60741  0.60636  0.00106  1
 Pb  Pb1  1  0.99774  -0.00000  0.99774  1
 Te  Te1  1  0.63275  0.88900  0.74375  1
 Te  Te2  1  0.03847  0.30077  0.73770  1
 Te  Te3  1  0.43693  0.69923  0.73770  1
 Te  Te4  1  0.85475  0.11100  0.74375  1
 Te  Te5  1  0.30376  0.50000  0.80376  1
