CIF file written using JARVIS-Tools package.
data_MnF4
_symmetry_space_group_name_H-M  'Cmce'
_cell_length_a       4.54317
_cell_length_b       5.33381
_cell_length_c       5.45137
_cell_angle_alpha    60.5949
_cell_angle_beta     90
_cell_angle_gamma    90

_symmetry_Int_Tables_number  64
_chemical_formula_structural  MnF4
_chemical_formula_sum  Mn2F8
_cell_volume  115.08182592437845
_cell_formula_units_Z  2
loop_
  _symmetry_equiv_pos_site_id
 _symmetry_equiv_pos_as_xyz
 1  'x, y, z'
loop_
 _atom_site_type_symbol
 _atom_site_label
 _atom_site_symmetry_multiplicity
 _atom_site_fract_x
 _atom_site_fract_y
 _atom_site_fract_z
 _atom_site_fract_occupancy
 F  F1  1  0.74983  0.17452  0.15022  1
 F  F2  1  0.75017  0.67452  0.15022  1
 F  F3  1  0.29859  0.34219  0.31480  1
 F  F4  1  0.20141  0.84219  0.31480  1
 F  F5  1  0.79859  0.15781  0.68520  1
 F  F6  1  0.70141  0.65781  0.68520  1
 F  F7  1  0.24983  0.32548  0.84978  1
 F  F8  1  0.25017  0.82548  0.84978  1
 Mn  Mn1  1  0.50000  0.50000  0.00000  1
 Mn  Mn2  1  0.00000  0.00000  0.00000  1
