CIF file written using JARVIS-Tools package.
data_Ag2HgI4
_symmetry_space_group_name_H-M  'I-42m'
_cell_length_a       7.83429
_cell_length_b       7.83429
_cell_length_c       7.8343
_cell_angle_alpha    131.815
_cell_angle_beta     131.815
_cell_angle_gamma    70.521

_symmetry_Int_Tables_number  121
_chemical_formula_structural  Ag2HgI4
_chemical_formula_sum  Ag2HgI4
_cell_volume  261.69808978495075
_cell_formula_units_Z  1
loop_
  _symmetry_equiv_pos_site_id
 _symmetry_equiv_pos_as_xyz
 1  'x, y, z'
loop_
 _atom_site_type_symbol
 _atom_site_label
 _atom_site_symmetry_multiplicity
 _atom_site_fract_x
 _atom_site_fract_y
 _atom_site_fract_z
 _atom_site_fract_occupancy
 Ag  Ag1  1  0.75000  0.25000  0.50000  1
 Ag  Ag2  1  0.25000  0.75000  0.50000  1
 Hg  Hg1  1  0.50000  0.50000  -0.00000  1
 I  I1  1  0.34360  0.88924  -0.00000  1
 I  I2  1  0.11076  0.11076  0.45436  1
 I  I3  1  0.88924  0.34360  -0.00000  1
 I  I4  1  0.65640  0.65640  0.54564  1
