CIF file written using JARVIS-Tools package.
data_VOF3
_symmetry_space_group_name_H-M  'P2_1/c'
_cell_length_a       5.09747
_cell_length_b       5.56285
_cell_length_c       9.39529
_cell_angle_alpha    90.8953
_cell_angle_beta     90
_cell_angle_gamma    90

_symmetry_Int_Tables_number  14
_chemical_formula_structural  VOF3
_chemical_formula_sum  V4O4F2
_cell_volume  266.3849119462811
_cell_formula_units_Z  4
loop_
  _symmetry_equiv_pos_site_id
 _symmetry_equiv_pos_as_xyz
 1  'x, y, z'
loop_
 _atom_site_type_symbol
 _atom_site_label
 _atom_site_symmetry_multiplicity
 _atom_site_fract_x
 _atom_site_fract_y
 _atom_site_fract_z
 _atom_site_fract_occupancy
 F  F1  1  0.60372  0.08830  0.18591  1
 F  F2  1  0.10372  0.91170  0.31409  1
 F  F3  1  0.86557  0.34640  0.45547  1
 F  F4  1  0.29095  0.45281  0.28804  1
 F  F5  1  0.20905  0.45281  0.78804  1
 F  F6  1  0.89628  0.08830  0.68591  1
 F  F7  1  0.70905  0.54719  0.71196  1
 F  F8  1  0.63443  0.34640  0.95547  1
 F  F9  1  0.36557  0.65360  0.04453  1
 F  F10  1  0.39628  0.91170  0.81409  1
 F  F11  1  0.79095  0.54719  0.21196  1
 F  F12  1  0.13443  0.65360  0.54453  1
 O  O1  1  0.66264  0.80163  0.44202  1
 O  O2  1  0.16264  0.19837  0.05798  1
 O  O3  1  0.83736  0.80163  0.94202  1
 O  O4  1  0.33736  0.19837  0.55798  1
 V  V1  1  0.08645  0.32608  0.62390  1
 V  V2  1  0.41355  0.32608  0.12390  1
 V  V3  1  0.58645  0.67392  0.87610  1
 V  V4  1  0.91355  0.67392  0.37610  1
