CIF file written using JARVIS-Tools package.
data_CaCO3
_symmetry_space_group_name_H-M  'Pnma'
_cell_length_a       4.99522
_cell_length_b       5.6993
_cell_length_c       7.9616
_cell_angle_alpha    90
_cell_angle_beta     90
_cell_angle_gamma    90

_symmetry_Int_Tables_number  62
_chemical_formula_structural  CaCO3
_chemical_formula_sum  Ca4C4O2
_cell_volume  226.660955839618
_cell_formula_units_Z  4
loop_
  _symmetry_equiv_pos_site_id
 _symmetry_equiv_pos_as_xyz
 1  'x, y, z'
loop_
 _atom_site_type_symbol
 _atom_site_label
 _atom_site_symmetry_multiplicity
 _atom_site_fract_x
 _atom_site_fract_y
 _atom_site_fract_z
 _atom_site_fract_occupancy
 C  C1  1  0.25000  0.91337  0.73643  1
 C  C2  1  0.75000  0.08663  0.26357  1
 C  C3  1  0.25000  0.41337  0.76357  1
 C  C4  1  0.75000  0.58663  0.23643  1
 Ca  Ca1  1  0.25000  0.76085  0.08522  1
 Ca  Ca2  1  0.75000  0.23915  0.91478  1
 Ca  Ca3  1  0.25000  0.26085  0.41478  1
 Ca  Ca4  1  0.75000  0.73915  0.58522  1
 O  O1  1  0.47419  0.41171  0.68106  1
 O  O2  1  0.97419  0.08829  0.18106  1
 O  O3  1  0.02581  0.91171  0.81894  1
 O  O4  1  0.52581  0.08829  0.18106  1
 O  O5  1  0.97419  0.58829  0.31894  1
 O  O6  1  0.52581  0.58829  0.31894  1
 O  O7  1  0.75000  0.09797  0.42520  1
 O  O8  1  0.25000  0.90203  0.57480  1
 O  O9  1  0.75000  0.59797  0.07480  1
 O  O10  1  0.02581  0.41171  0.68106  1
 O  O11  1  0.25000  0.40203  0.92520  1
 O  O12  1  0.47419  0.91171  0.81894  1
