CIF file written using JARVIS-Tools package.
data_Ce2PrO6
_symmetry_space_group_name_H-M  'Immm'
_cell_length_a       6.76505
_cell_length_b       6.76505
_cell_length_c       6.76506
_cell_angle_alpha    146.307
_cell_angle_beta     131.577
_cell_angle_gamma    60.2877

_symmetry_Int_Tables_number  71
_chemical_formula_structural  Ce2PrO6
_chemical_formula_sum  Ce2PrO6
_cell_volume  127.28690974725858
_cell_formula_units_Z  1
loop_
  _symmetry_equiv_pos_site_id
 _symmetry_equiv_pos_as_xyz
 1  'x, y, z'
loop_
 _atom_site_type_symbol
 _atom_site_label
 _atom_site_symmetry_multiplicity
 _atom_site_fract_x
 _atom_site_fract_y
 _atom_site_fract_z
 _atom_site_fract_occupancy
 Ce  Ce1  1  0.66690  0.66690  -0.00000  1
 Ce  Ce2  1  0.33310  0.33310  0.00000  1
 O  O1  1  0.57151  0.82815  0.74336  1
 O  O2  1  0.26347  0.50000  0.76347  1
 O  O3  1  0.91521  0.17185  0.74336  1
 O  O4  1  0.08479  0.82815  0.25664  1
 O  O5  1  0.73653  0.50000  0.23653  1
 O  O6  1  0.42849  0.17185  0.25664  1
 Pr  Pr1  1  0.00000  0.00000  0.00000  1
