CIF file written using JARVIS-Tools package.
data_Ni6SnSb
_symmetry_space_group_name_H-M  'Pmm2'
_cell_length_a       4.2724
_cell_length_b       4.53049
_cell_length_c       5.32641
_cell_angle_alpha    90
_cell_angle_beta     90
_cell_angle_gamma    90

_symmetry_Int_Tables_number  25
_chemical_formula_structural  Ni6SnSb
_chemical_formula_sum  Ni6SnSb
_cell_volume  103.09837391160123
_cell_formula_units_Z  1
loop_
  _symmetry_equiv_pos_site_id
 _symmetry_equiv_pos_as_xyz
 1  'x, y, z'
loop_
 _atom_site_type_symbol
 _atom_site_label
 _atom_site_symmetry_multiplicity
 _atom_site_fract_x
 _atom_site_fract_y
 _atom_site_fract_z
 _atom_site_fract_occupancy
 Ni  Ni1  1  0.50000  0.17113  0.74745  1
 Ni  Ni2  1  0.50000  0.17113  0.25255  1
 Ni  Ni3  1  0.00000  0.82838  0.74886  1
 Ni  Ni4  1  0.00000  0.82838  0.25114  1
 Ni  Ni5  1  0.00000  0.30913  0.50000  1
 Ni  Ni6  1  0.50000  0.69280  0.00000  1
 Sb  Sb1  1  0.50000  0.67422  0.50000  1
 Sn  Sn1  1  0.00000  0.32483  0.00000  1
