CIF file written using JARVIS-Tools package.
data_Sm2O3
_symmetry_space_group_name_H-M  'P-4m2'
_cell_length_a       3.87146
_cell_length_b       3.87146
_cell_length_c       5.68751
_cell_angle_alpha    90
_cell_angle_beta     90
_cell_angle_gamma    90

_symmetry_Int_Tables_number  115
_chemical_formula_structural  Sm2O3
_chemical_formula_sum  Sm2O3
_cell_volume  85.24535267131375
_cell_formula_units_Z  1
loop_
  _symmetry_equiv_pos_site_id
 _symmetry_equiv_pos_as_xyz
 1  'x, y, z'
loop_
 _atom_site_type_symbol
 _atom_site_label
 _atom_site_symmetry_multiplicity
 _atom_site_fract_x
 _atom_site_fract_y
 _atom_site_fract_z
 _atom_site_fract_occupancy
 O  O1  1  0.00000  0.00000  0.00000  1
 O  O2  1  0.50000  0.50000  0.00000  1
 O  O3  1  0.00000  0.00000  0.50000  1
 Sm  Sm1  1  0.50000  0.00000  0.78485  1
 Sm  Sm2  1  0.00000  0.50000  0.21515  1
