CIF file written using JARVIS-Tools package.
data_Ce2CdSb4
_symmetry_space_group_name_H-M  'P-4m2'
_cell_length_a       4.39904
_cell_length_b       4.39904
_cell_length_c       10.608
_cell_angle_alpha    90
_cell_angle_beta     90
_cell_angle_gamma    90

_symmetry_Int_Tables_number  115
_chemical_formula_structural  Ce2CdSb4
_chemical_formula_sum  Ce2CdSb4
_cell_volume  205.28123428982926
_cell_formula_units_Z  1
loop_
  _symmetry_equiv_pos_site_id
 _symmetry_equiv_pos_as_xyz
 1  'x, y, z'
loop_
 _atom_site_type_symbol
 _atom_site_label
 _atom_site_symmetry_multiplicity
 _atom_site_fract_x
 _atom_site_fract_y
 _atom_site_fract_z
 _atom_site_fract_occupancy
 Cd  Cd1  1  0.50000  0.50000  0.50000  1
 Ce  Ce1  1  0.50000  0.00000  0.76506  1
 Ce  Ce2  1  0.00000  0.50000  0.23494  1
 Sb  Sb1  1  0.50000  0.00000  0.32260  1
 Sb  Sb2  1  0.00000  0.50000  0.67740  1
 Sb  Sb3  1  0.50000  0.50000  0.00000  1
 Sb  Sb4  1  0.00000  0.00000  0.00000  1
