CIF file written using JARVIS-Tools package.
data_SnH12C6F2
_symmetry_space_group_name_H-M  'P-1'
_cell_length_a       4.64084
_cell_length_b       6.39593
_cell_length_c       13.715
_cell_angle_alpha    80.4225
_cell_angle_beta     91.2386
_cell_angle_gamma    84.6301

_symmetry_Int_Tables_number  2
_chemical_formula_structural  SnH12C6F2
_chemical_formula_sum  Sn2H24C2F4
_cell_volume  399.37188955875826
_cell_formula_units_Z  2
loop_
  _symmetry_equiv_pos_site_id
 _symmetry_equiv_pos_as_xyz
 1  'x, y, z'
loop_
 _atom_site_type_symbol
 _atom_site_label
 _atom_site_symmetry_multiplicity
 _atom_site_fract_x
 _atom_site_fract_y
 _atom_site_fract_z
 _atom_site_fract_occupancy
 C  C1  1  0.71051  0.48942  0.10234  1
 C  C2  1  0.10966  0.84805  0.68186  1
 C  C3  1  0.97481  0.58618  0.13662  1
 C  C4  1  0.89418  0.73460  0.21095  1
 C  C5  1  0.32927  0.10177  0.34477  1
 C  C6  1  0.66191  0.41271  0.82095  1
 C  C7  1  0.14573  0.85662  0.23610  1
 C  C8  1  0.06503  0.00501  0.31044  1
 C  C9  1  0.87390  0.51927  0.75079  1
 C  C10  1  0.93009  0.74287  0.76524  1
 C  C11  1  0.37787  0.17822  0.62618  1
 C  C12  1  0.16588  0.07163  0.69633  1
 F  F1  1  0.78614  0.01919  0.00243  1
 F  F2  1  0.22972  0.32451  0.97475  1
 F  F3  1  0.25351  0.57188  0.44466  1
 F  F4  1  0.80997  0.26660  0.47245  1
 H  H1  1  0.21941  0.94925  0.16742  1
 H  H2  1  0.32819  0.74257  0.26836  1
 H  H3  1  0.45542  0.51140  0.81949  1
 H  H4  1  0.61573  0.25699  0.80414  1
 H  H5  1  0.79043  0.52751  0.67381  1
 H  H6  1  0.41218  0.21859  0.28698  1
 H  H7  1  0.50571  0.97760  0.37123  1
 H  H8  1  0.62762  0.37267  0.16016  1
 H  H9  1  0.53409  0.61359  0.07587  1
 H  H10  1  0.06881  0.68010  0.07276  1
 H  H11  1  0.14220  0.45949  0.16943  1
 H  H12  1  0.95786  0.16960  0.69050  1
 H  H13  1  0.42412  0.33390  0.64302  1
 H  H14  1  0.58432  0.07950  0.62761  1
 H  H15  1  0.08192  0.42131  0.75663  1
 H  H16  1  0.31600  0.74916  0.67854  1
 H  H17  1  0.04431  0.73761  0.83740  1
 H  H18  1  0.72375  0.84176  0.76855  1
 H  H19  1  0.24936  0.06335  0.77332  1
 H  H20  1  0.82050  0.64199  0.27963  1
 H  H21  1  0.71171  0.84866  0.17870  1
 H  H22  1  0.97097  0.91107  0.37428  1
 H  H23  1  0.89766  0.13172  0.27762  1
 H  H24  1  -0.00456  0.85334  0.60970  1
 Sn  Sn1  1  0.77890  0.33295  0.97621  1
 Sn  Sn2  1  0.26078  0.25812  0.47093  1
