CIF file written using JARVIS-Tools package.
data_HfCrO4
_symmetry_space_group_name_H-M  'Pbcn'
_cell_length_a       4.66826
_cell_length_b       4.87748
_cell_length_c       11.6069
_cell_angle_alpha    90
_cell_angle_beta     90
_cell_angle_gamma    90

_symmetry_Int_Tables_number  60
_chemical_formula_structural  HfCrO4
_chemical_formula_sum  Hf4Cr4O6
_cell_volume  264.28232255032435
_cell_formula_units_Z  4
loop_
  _symmetry_equiv_pos_site_id
 _symmetry_equiv_pos_as_xyz
 1  'x, y, z'
loop_
 _atom_site_type_symbol
 _atom_site_label
 _atom_site_symmetry_multiplicity
 _atom_site_fract_x
 _atom_site_fract_y
 _atom_site_fract_z
 _atom_site_fract_occupancy
 Cr  Cr1  1  0.00000  0.75000  0.43509  1
 Cr  Cr2  1  0.00000  0.25000  0.56491  1
 Cr  Cr3  1  0.50000  0.25000  0.06491  1
 Cr  Cr4  1  0.50000  0.75000  0.93509  1
 Hf  Hf1  1  0.00000  0.75000  0.17239  1
 Hf  Hf2  1  0.00000  0.25000  0.82761  1
 Hf  Hf3  1  0.50000  0.75000  0.67239  1
 Hf  Hf4  1  0.50000  0.25000  0.32761  1
 O  O1  1  0.77647  0.58862  0.31529  1
 O  O2  1  0.77647  0.08862  0.68471  1
 O  O3  1  0.72799  0.57104  0.05337  1
 O  O4  1  0.22353  0.41138  0.68471  1
 O  O5  1  0.77201  0.07104  0.44663  1
 O  O6  1  0.77201  0.57104  0.55337  1
 O  O7  1  0.72799  0.07104  0.94663  1
 O  O8  1  0.22799  0.42896  0.44663  1
 O  O9  1  0.27647  0.41138  0.18471  1
 O  O10  1  0.27647  0.91138  0.81529  1
 O  O11  1  0.72353  0.08862  0.18471  1
 O  O12  1  0.22799  0.92896  0.55337  1
 O  O13  1  0.27201  0.92896  0.05337  1
 O  O14  1  0.27201  0.42896  0.94663  1
 O  O15  1  0.72353  0.58862  0.81529  1
 O  O16  1  0.22353  0.91138  0.31529  1
