CIF file written using JARVIS-Tools package.
data_BaSrO2
_symmetry_space_group_name_H-M  'R-3m'
_cell_length_a       6.60701
_cell_length_b       6.60701
_cell_length_c       6.60701
_cell_angle_alpha    33.4048
_cell_angle_beta     33.4048
_cell_angle_gamma    33.4047

_symmetry_Int_Tables_number  166
_chemical_formula_structural  BaSrO2
_chemical_formula_sum  BaSrO2
_cell_volume  77.84731127913743
_cell_formula_units_Z  1
loop_
  _symmetry_equiv_pos_site_id
 _symmetry_equiv_pos_as_xyz
 1  'x, y, z'
loop_
 _atom_site_type_symbol
 _atom_site_label
 _atom_site_symmetry_multiplicity
 _atom_site_fract_x
 _atom_site_fract_y
 _atom_site_fract_z
 _atom_site_fract_occupancy
 Ba  Ba1  1  0.00000  0.00000  0.00000  1
 O  O1  1  0.24439  0.24439  0.24439  1
 O  O2  1  0.75561  0.75561  0.75561  1
 Sr  Sr1  1  0.50000  0.50000  0.50000  1
