CIF file written using JARVIS-Tools package.
data_HoMgAg
_symmetry_space_group_name_H-M  'P-62m'
_cell_length_a       7.55473
_cell_length_b       7.55473
_cell_length_c       4.15867
_cell_angle_alpha    90
_cell_angle_beta     90
_cell_angle_gamma    120

_symmetry_Int_Tables_number  189
_chemical_formula_structural  HoMgAg
_chemical_formula_sum  Ho3Mg3Ag3
_cell_volume  205.5524126273257
_cell_formula_units_Z  3
loop_
  _symmetry_equiv_pos_site_id
 _symmetry_equiv_pos_as_xyz
 1  'x, y, z'
loop_
 _atom_site_type_symbol
 _atom_site_label
 _atom_site_symmetry_multiplicity
 _atom_site_fract_x
 _atom_site_fract_y
 _atom_site_fract_z
 _atom_site_fract_occupancy
 Ag  Ag1  1  0.33333  0.66667  0.50000  1
 Ag  Ag2  1  0.66667  0.33333  0.50000  1
 Ag  Ag3  1  0.00000  0.00000  0.00000  1
 Ho  Ho1  1  0.58610  -0.00000  0.00000  1
 Ho  Ho2  1  -0.00000  0.58610  0.00000  1
 Ho  Ho3  1  0.41390  0.41390  0.00000  1
 Mg  Mg1  1  0.24591  0.00000  0.50000  1
 Mg  Mg2  1  0.00000  0.24591  0.50000  1
 Mg  Mg3  1  0.75409  0.75409  0.50000  1
