CIF file written using JARVIS-Tools package.
data_SnH4C3O6
_symmetry_space_group_name_H-M  'P1'
_cell_length_a       4.7395
_cell_length_b       5.61139
_cell_length_c       5.71617
_cell_angle_alpha    108.527
_cell_angle_beta     92.8928
_cell_angle_gamma    88.853

_symmetry_Int_Tables_number  1
_chemical_formula_structural  SnH4C3O6
_chemical_formula_sum  SnH4C3O6
_cell_volume  143.9591064278427
_cell_formula_units_Z  1
loop_
  _symmetry_equiv_pos_site_id
 _symmetry_equiv_pos_as_xyz
 1  'x, y, z'
loop_
 _atom_site_type_symbol
 _atom_site_label
 _atom_site_symmetry_multiplicity
 _atom_site_fract_x
 _atom_site_fract_y
 _atom_site_fract_z
 _atom_site_fract_occupancy
 C  C1  1  0.84404  0.57461  0.82176  1
 C  C2  1  0.78798  0.25659  0.38812  1
 C  C3  1  0.69793  0.34404  0.65277  1
 H  H1  1  0.76503  0.19256  0.72994  1
 H  H2  1  0.46868  0.36745  0.65793  1
 H  H3  1  0.39757  0.60825  0.28940  1
 H  H4  1  0.24501  0.95067  0.64563  1
 O  O1  1  0.35563  0.78937  0.35246  1
 O  O2  1  0.19128  0.06939  0.80844  1
 O  O3  1  0.11304  0.57881  0.83933  1
 O  O4  1  0.70514  0.76179  0.95366  1
 O  O5  1  0.59632  0.23897  0.21670  1
 O  O6  1  0.04523  0.20197  0.34756  1
 Sn  Sn1  1  0.29414  0.93243  0.07466  1
