CIF file written using JARVIS-Tools package.
data_H4C7S
_symmetry_space_group_name_H-M  'Pm'
_cell_length_a       4.93488
_cell_length_b       5.56025
_cell_length_c       11.0095
_cell_angle_alpha    90.0517
_cell_angle_beta     90.0192
_cell_angle_gamma    114.486

_symmetry_Int_Tables_number  6
_chemical_formula_structural  H4C7S
_chemical_formula_sum  H8C4S2
_cell_volume  274.921134161829
_cell_formula_units_Z  2
loop_
  _symmetry_equiv_pos_site_id
 _symmetry_equiv_pos_as_xyz
 1  'x, y, z'
loop_
 _atom_site_type_symbol
 _atom_site_label
 _atom_site_symmetry_multiplicity
 _atom_site_fract_x
 _atom_site_fract_y
 _atom_site_fract_z
 _atom_site_fract_occupancy
 C  C1  1  0.66189  0.90953  0.11584  1
 C  C2  1  0.51496  0.03899  0.30604  1
 C  C3  1  0.41683  0.20605  0.11508  1
 C  C4  1  0.41683  0.20606  0.61509  1
 C  C5  1  0.41680  0.20603  0.24235  1
 C  C6  1  0.51502  0.03901  0.05128  1
 C  C7  1  0.51500  0.03901  0.55128  1
 C  C8  1  0.41681  0.20603  0.74235  1
 C  C9  1  0.66184  0.90948  0.74140  1
 C  C10  1  0.66186  0.90951  0.24141  1
 C  C11  1  0.66186  0.90951  0.61583  1
 C  C12  1  0.51496  0.03898  0.80603  1
 C  C13  1  0.40160  0.93055  0.42860  1
 C  C14  1  0.40162  0.93055  0.92860  1
 H  H1  1  0.75427  0.78904  0.06780  1
 H  H2  1  0.75419  0.78897  0.78935  1
 H  H3  1  0.75421  0.78900  0.28937  1
 H  H4  1  0.30778  0.31403  0.56782  1
 H  H5  1  0.30777  0.31401  0.06781  1
 H  H6  1  0.30774  0.31399  0.78968  1
 H  H7  1  0.30771  0.31397  0.28967  1
 H  H8  1  0.75423  0.78902  0.56779  1
 S  S1  1  0.12543  0.63363  0.92844  1
 S  S2  1  0.12540  0.63363  0.42843  1
