CIF file written using JARVIS-Tools package.
data_AgBiS2
_symmetry_space_group_name_H-M  'I4_1/amd'
_cell_length_a       6.98164
_cell_length_b       6.98164
_cell_length_c       6.98165
_cell_angle_alpha    132.488
_cell_angle_beta     132.488
_cell_angle_gamma    69.4587

_symmetry_Int_Tables_number  141
_chemical_formula_structural  AgBiS2
_chemical_formula_sum  Ag2Bi2S4
_cell_volume  181.54768641080105
_cell_formula_units_Z  2
loop_
  _symmetry_equiv_pos_site_id
 _symmetry_equiv_pos_as_xyz
 1  'x, y, z'
loop_
 _atom_site_type_symbol
 _atom_site_label
 _atom_site_symmetry_multiplicity
 _atom_site_fract_x
 _atom_site_fract_y
 _atom_site_fract_z
 _atom_site_fract_occupancy
 Ag  Ag1  1  0.25000  0.75000  0.50000  1
 Ag  Ag2  1  0.50000  0.50000  0.00000  1
 Bi  Bi1  1  0.00000  0.00000  0.00000  1
 Bi  Bi2  1  0.75000  0.25000  0.50000  1
 S  S1  1  0.50190  0.00190  0.50000  1
 S  S2  1  0.99810  0.49810  0.50000  1
 S  S3  1  0.75190  0.75190  0.00000  1
 S  S4  1  0.24810  0.24810  -0.00000  1
