CIF file written using JARVIS-Tools package.
data_LiTiO2
_symmetry_space_group_name_H-M  'R3m'
_cell_length_a       5.44956
_cell_length_b       5.44956
_cell_length_c       5.44956
_cell_angle_alpha    30.7781
_cell_angle_beta     30.7781
_cell_angle_gamma    30.7782

_symmetry_Int_Tables_number  160
_chemical_formula_structural  LiTiO2
_chemical_formula_sum  LiTiO2
_cell_volume  37.58157001617033
_cell_formula_units_Z  1
loop_
  _symmetry_equiv_pos_site_id
 _symmetry_equiv_pos_as_xyz
 1  'x, y, z'
loop_
 _atom_site_type_symbol
 _atom_site_label
 _atom_site_symmetry_multiplicity
 _atom_site_fract_x
 _atom_site_fract_y
 _atom_site_fract_z
 _atom_site_fract_occupancy
 Li  Li1  1  0.82793  0.82793  0.82793  1
 O  O1  1  0.59166  0.59166  0.59166  1
 O  O2  1  0.41243  0.41243  0.41243  1
 Ti  Ti1  1  0.00132  0.00132  0.00132  1
