CIF file written using JARVIS-Tools package.
data_Ta2CuO6
_symmetry_space_group_name_H-M  'Imm2'
_cell_length_a       5.21423
_cell_length_b       5.37476
_cell_length_c       5.37519
_cell_angle_alpha    64.1326
_cell_angle_beta     60.9845
_cell_angle_gamma    60.9846

_symmetry_Int_Tables_number  44
_chemical_formula_structural  Ta2CuO6
_chemical_formula_sum  Ta2CuO6
_cell_volume  111.1483654568952
_cell_formula_units_Z  1
loop_
  _symmetry_equiv_pos_site_id
 _symmetry_equiv_pos_as_xyz
 1  'x, y, z'
loop_
 _atom_site_type_symbol
 _atom_site_label
 _atom_site_symmetry_multiplicity
 _atom_site_fract_x
 _atom_site_fract_y
 _atom_site_fract_z
 _atom_site_fract_occupancy
 Cu  Cu1  1  0.33035  0.24991  0.25017  1
 O  O1  1  0.65080  0.83898  0.29044  1
 O  O2  1  0.28014  0.66086  0.20992  1
 O  O3  1  0.90429  0.24991  0.25018  1
 O  O4  1  0.14232  0.74990  0.75019  1
 O  O5  1  0.65101  0.29043  0.83909  1
 O  O6  1  0.28044  0.20940  0.66124  1
 Ta  Ta1  1  0.00815  -0.00291  0.99735  1
 Ta  Ta2  1  0.50250  0.50272  0.50302  1
