CIF file written using JARVIS-Tools package.
data_H4C10S3O
_symmetry_space_group_name_H-M  'P1'
_cell_length_a       3.7613
_cell_length_b       6.23337
_cell_length_c       9.95568
_cell_angle_alpha    106.906
_cell_angle_beta     91.5087
_cell_angle_gamma    92.9387

_symmetry_Int_Tables_number  1
_chemical_formula_structural  H4C10S3O
_chemical_formula_sum  H4C0S3O
_cell_volume  222.82735556811542
_cell_formula_units_Z  1
loop_
  _symmetry_equiv_pos_site_id
 _symmetry_equiv_pos_as_xyz
 1  'x, y, z'
loop_
 _atom_site_type_symbol
 _atom_site_label
 _atom_site_symmetry_multiplicity
 _atom_site_fract_x
 _atom_site_fract_y
 _atom_site_fract_z
 _atom_site_fract_occupancy
 C  C1  1  0.47592  0.69469  0.18294  1
 C  C2  1  0.66170  0.05611  0.32050  1
 C  C3  1  0.61743  0.90626  0.18474  1
 C  C4  1  0.61214  0.13246  0.81529  1
 C  C5  1  0.35248  0.51443  0.91808  1
 C  C6  1  0.35753  0.49858  0.06741  1
 C  C7  1  0.46560  0.33074  0.80848  1
 C  C8  1  0.55622  0.06525  0.57310  1
 C  C9  1  0.65486  0.98047  0.68253  1
 C  C10  1  0.56168  0.95844  0.42408  1
 H  H1  1  0.68677  0.95037  0.09085  1
 H  H2  1  0.76399  0.81676  0.66547  1
 H  H3  1  0.76803  0.22927  0.34327  1
 H  H4  1  0.68533  0.10380  0.91453  1
 O  O1  1  0.23273  0.32308  0.08880  1
 S  S1  1  0.40994  0.67999  0.35260  1
 S  S2  1  0.40162  0.33232  0.63435  1
 S  S3  1  0.15397  0.72629  0.88537  1
