CIF file written using JARVIS-Tools package.
data_TeMoWS3
_symmetry_space_group_name_H-M  'P3m1'
_cell_length_a       3.28816
_cell_length_b       3.28761
_cell_length_c       38.6774
_cell_angle_alpha    89.9993
_cell_angle_beta     90
_cell_angle_gamma    120.006

_symmetry_Int_Tables_number  156
_chemical_formula_structural  TeMoWS3
_chemical_formula_sum  Te2Mo2W2S6
_cell_volume  362.0735255643494
_cell_formula_units_Z  2
loop_
  _symmetry_equiv_pos_site_id
 _symmetry_equiv_pos_as_xyz
 1  'x, y, z'
loop_
 _atom_site_type_symbol
 _atom_site_label
 _atom_site_symmetry_multiplicity
 _atom_site_fract_x
 _atom_site_fract_y
 _atom_site_fract_z
 _atom_site_fract_occupancy
 Mo  Mo1  1  0.33334  0.66668  0.46925  1
 Mo  Mo2  1  0.66666  0.33332  0.28103  1
 S  S1  1  0.33325  0.66650  0.32066  1
 S  S2  1  0.33331  0.66661  0.69853  1
 S  S3  1  0.66671  0.33341  0.05407  1
 S  S4  1  0.66671  0.33341  0.13378  1
 S  S5  1  0.33325  0.66650  0.24130  1
 S  S6  1  0.33331  0.66662  0.61885  1
 Te  Te1  1  0.66673  0.33347  0.41934  1
 Te  Te2  1  0.66673  0.33346  0.51925  1
 W  W1  1  0.33331  0.66662  0.09391  1
 W  W2  1  0.66670  0.33340  0.65879  1
