CIF file written using JARVIS-Tools package.
data_Li2FeBPO7
_symmetry_space_group_name_H-M  'P2_1/m'
_cell_length_a       5.00328
_cell_length_b       6.09229
_cell_length_c       8.51864
_cell_angle_alpha    90
_cell_angle_beta     94.2556
_cell_angle_gamma    90

_symmetry_Int_Tables_number  11
_chemical_formula_structural  Li2FeBPO7
_chemical_formula_sum  Li4Fe2B2P2O4
_cell_volume  258.94410976439053
_cell_formula_units_Z  2
loop_
  _symmetry_equiv_pos_site_id
 _symmetry_equiv_pos_as_xyz
 1  'x, y, z'
loop_
 _atom_site_type_symbol
 _atom_site_label
 _atom_site_symmetry_multiplicity
 _atom_site_fract_x
 _atom_site_fract_y
 _atom_site_fract_z
 _atom_site_fract_occupancy
 B  B1  1  0.26694  0.25000  0.05629  1
 B  B2  1  0.73306  0.75000  0.94371  1
 Fe  Fe1  1  0.20989  0.25000  0.32982  1
 Fe  Fe2  1  0.79011  0.75000  0.67018  1
 Li  Li1  1  0.76674  0.48355  0.20422  1
 Li  Li2  1  0.76674  0.01645  0.20422  1
 Li  Li3  1  0.23326  0.98355  0.79578  1
 Li  Li4  1  0.23326  0.51645  0.79578  1
 O  O1  1  0.69858  0.75000  0.09525  1
 O  O2  1  0.97758  0.75000  0.87042  1
 O  O3  1  0.46989  0.25000  0.18292  1
 O  O4  1  0.18618  0.94607  0.32198  1
 O  O5  1  0.18618  0.55393  0.32198  1
 O  O6  1  0.02242  0.25000  0.12958  1
 O  O7  1  0.58417  0.75000  0.46771  1
 O  O8  1  0.81382  0.05393  0.67802  1
 O  O9  1  0.13927  0.75000  0.58414  1
 O  O10  1  0.81382  0.44607  0.67802  1
 O  O11  1  0.86073  0.25000  0.41586  1
 O  O12  1  0.53011  0.75000  0.81708  1
 O  O13  1  0.41583  0.25000  0.53229  1
 O  O14  1  0.30142  0.25000  0.90475  1
 P  P1  1  0.72329  0.25000  0.57142  1
 P  P2  1  0.27671  0.75000  0.42858  1
