CIF file written using JARVIS-Tools package.
data_ZrAlNi
_symmetry_space_group_name_H-M  'P-62m'
_cell_length_a       6.87394
_cell_length_b       6.87394
_cell_length_c       3.54482
_cell_angle_alpha    90
_cell_angle_beta     90
_cell_angle_gamma    120

_symmetry_Int_Tables_number  189
_chemical_formula_structural  ZrAlNi
_chemical_formula_sum  Zr3Al3Ni3
_cell_volume  145.05614968051768
_cell_formula_units_Z  3
loop_
  _symmetry_equiv_pos_site_id
 _symmetry_equiv_pos_as_xyz
 1  'x, y, z'
loop_
 _atom_site_type_symbol
 _atom_site_label
 _atom_site_symmetry_multiplicity
 _atom_site_fract_x
 _atom_site_fract_y
 _atom_site_fract_z
 _atom_site_fract_occupancy
 Al  Al1  1  0.24835  -0.00000  0.00000  1
 Al  Al2  1  0.75165  0.75165  0.00000  1
 Al  Al3  1  -0.00000  0.24835  0.00000  1
 Ni  Ni1  1  0.00000  0.00000  0.50000  1
 Ni  Ni2  1  0.33333  0.66667  0.00000  1
 Ni  Ni3  1  0.66667  0.33333  0.00000  1
 Zr  Zr1  1  0.59033  -0.00000  0.50000  1
 Zr  Zr2  1  0.40967  0.40967  0.50000  1
 Zr  Zr3  1  -0.00000  0.59033  0.50000  1
