CIF file written using JARVIS-Tools package.
data_Rb3BiF6
_symmetry_space_group_name_H-M  'R-3m'
_cell_length_a       7.18686
_cell_length_b       7.18702
_cell_length_c       7.1874
_cell_angle_alpha    105.794
_cell_angle_beta     105.984
_cell_angle_gamma    105.711

_symmetry_Int_Tables_number  166
_chemical_formula_structural  Rb3BiF6
_chemical_formula_sum  Rb3BiF6
_cell_volume  318.53010624812157
_cell_formula_units_Z  1
loop_
  _symmetry_equiv_pos_site_id
 _symmetry_equiv_pos_as_xyz
 1  'x, y, z'
loop_
 _atom_site_type_symbol
 _atom_site_label
 _atom_site_symmetry_multiplicity
 _atom_site_fract_x
 _atom_site_fract_y
 _atom_site_fract_z
 _atom_site_fract_occupancy
 Bi  Bi1  1  0.00000  0.00000  0.00000  1
 F  F1  1  0.05746  0.76171  0.76170  1
 F  F2  1  0.94254  0.23829  0.23830  1
 F  F3  1  0.76188  0.76186  0.05731  1
 F  F4  1  0.23812  0.23814  0.94269  1
 F  F5  1  0.76128  0.05772  0.76131  1
 F  F6  1  0.23872  0.94228  0.23869  1
 Rb  Rb1  1  0.00000  0.50000  0.00000  1
 Rb  Rb2  1  0.50000  0.00000  -0.00000  1
 Rb  Rb3  1  0.00000  -0.00000  0.50000  1
