CIF file written using JARVIS-Tools package.
data_H2C4O3
_symmetry_space_group_name_H-M  'P2_12_12_1'
_cell_length_a       5.14205
_cell_length_b       6.59781
_cell_length_c       11.2385
_cell_angle_alpha    90
_cell_angle_beta     90
_cell_angle_gamma    90

_symmetry_Int_Tables_number  19
_chemical_formula_structural  H2C4O3
_chemical_formula_sum  H8C6O2
_cell_volume  381.2789927967062
_cell_formula_units_Z  4
loop_
  _symmetry_equiv_pos_site_id
 _symmetry_equiv_pos_as_xyz
 1  'x, y, z'
loop_
 _atom_site_type_symbol
 _atom_site_label
 _atom_site_symmetry_multiplicity
 _atom_site_fract_x
 _atom_site_fract_y
 _atom_site_fract_z
 _atom_site_fract_occupancy
 C  C1  1  0.62957  0.45784  0.84429  1
 C  C2  1  0.87043  0.54216  0.34429  1
 C  C3  1  0.35403  0.16309  0.19663  1
 C  C4  1  0.85403  0.33691  0.80337  1
 C  C5  1  0.14597  0.83691  0.69663  1
 C  C6  1  0.64597  0.66309  0.30337  1
 C  C7  1  0.12957  0.04216  0.15571  1
 C  C8  1  0.37043  0.95784  0.65571  1
 C  C9  1  0.55605  0.54379  0.48772  1
 C  C10  1  0.05605  0.95621  0.51228  1
 C  C11  1  0.94395  0.45621  -0.01228  1
 C  C12  1  0.44395  0.04379  0.01228  1
 C  C13  1  0.81925  0.47470  0.45415  1
 C  C14  1  0.31925  0.02530  0.54585  1
 C  C15  1  0.18075  0.97470  0.04585  1
 C  C16  1  0.68075  0.52530  0.95415  1
 H  H1  1  0.95848  0.02069  0.21033  1
 H  H2  1  0.43870  0.11404  0.48600  1
 H  H3  1  0.56130  0.61404  0.01400  1
 H  H4  1  0.06130  0.88596  0.98600  1
 H  H5  1  0.04152  0.52069  0.28967  1
 H  H6  1  0.54152  -0.02069  0.71033  1
 H  H7  1  0.45848  0.47931  0.78967  1
 H  H8  1  0.93870  0.38596  0.51400  1
 O  O1  1  0.39165  0.25375  0.28856  1
 O  O2  1  0.92623  0.98813  0.42430  1
 O  O3  1  0.54245  0.16347  0.10557  1
 O  O4  1  0.95755  0.83653  0.60557  1
 O  O5  1  0.45755  0.66347  0.39443  1
 O  O6  1  0.60835  0.75375  0.21144  1
 O  O7  1  0.89165  0.24625  0.71144  1
 O  O8  1  0.10835  0.74625  0.78856  1
 O  O9  1  0.57377  0.01187  0.92430  1
 O  O10  1  0.07377  0.48813  0.07570  1
 O  O11  1  0.04245  0.33653  0.89443  1
 O  O12  1  0.42623  0.51187  0.57570  1
