CIF file written using JARVIS-Tools package.
data_ZrTe2Br5
_symmetry_space_group_name_H-M  'C2/m'
_cell_length_a       8.75432
_cell_length_b       8.75432
_cell_length_c       9.24001
_cell_angle_alpha    111.454
_cell_angle_beta     116.288
_cell_angle_gamma    98.4239

_symmetry_Int_Tables_number  12
_chemical_formula_structural  ZrTe2Br5
_chemical_formula_sum  Zr2Te4Br0
_cell_volume  549.0471673720525
_cell_formula_units_Z  2
loop_
  _symmetry_equiv_pos_site_id
 _symmetry_equiv_pos_as_xyz
 1  'x, y, z'
loop_
 _atom_site_type_symbol
 _atom_site_label
 _atom_site_symmetry_multiplicity
 _atom_site_fract_x
 _atom_site_fract_y
 _atom_site_fract_z
 _atom_site_fract_occupancy
 Br  Br1  1  0.41035  0.14934  0.89891  1
 Br  Br2  1  0.25043  0.51145  0.10109  1
 Br  Br3  1  0.58965  0.85066  0.10109  1
 Br  Br4  1  0.74957  0.48855  0.89891  1
 Br  Br5  1  0.41141  0.25217  0.34057  1
 Br  Br6  1  0.91160  0.07083  0.65943  1
 Br  Br7  1  0.08462  0.83420  0.91882  1
 Br  Br8  1  0.91538  0.16580  0.08118  1
 Br  Br9  1  0.08840  0.92917  0.34057  1
 Br  Br10  1  0.58859  0.74783  0.65943  1
 Te  Te1  1  0.83301  0.33301  0.50000  1
 Te  Te2  1  0.16699  0.66699  0.50000  1
 Te  Te3  1  0.79846  0.56813  0.36658  1
 Te  Te4  1  0.20154  0.43187  0.63342  1
 Zr  Zr1  1  0.81525  0.81525  -0.00000  1
 Zr  Zr2  1  0.18475  0.18475  0.00000  1
