CIF file written using JARVIS-Tools package.
data_K4IrO4
_symmetry_space_group_name_H-M  'C2/m'
_cell_length_a       5.5487
_cell_length_b       5.54871
_cell_length_c       6.08732
_cell_angle_alpha    78.0322
_cell_angle_beta     78.0322
_cell_angle_gamma    69.6602

_symmetry_Int_Tables_number  12
_chemical_formula_structural  K4IrO4
_chemical_formula_sum  K4IrO4
_cell_volume  170.0318201210503
_cell_formula_units_Z  1
loop_
  _symmetry_equiv_pos_site_id
 _symmetry_equiv_pos_as_xyz
 1  'x, y, z'
loop_
 _atom_site_type_symbol
 _atom_site_label
 _atom_site_symmetry_multiplicity
 _atom_site_fract_x
 _atom_site_fract_y
 _atom_site_fract_z
 _atom_site_fract_occupancy
 Ir  Ir1  1  0.00000  0.00000  0.00000  1
 K  K1  1  0.62192  0.62192  0.14481  1
 K  K2  1  0.19052  0.19052  0.41028  1
 K  K3  1  0.37808  0.37808  0.85519  1
 K  K4  1  0.80948  0.80948  0.58972  1
 O  O1  1  0.10634  0.67533  0.20252  1
 O  O2  1  0.67533  0.10634  0.20252  1
 O  O3  1  0.32467  0.89366  0.79748  1
 O  O4  1  0.89366  0.32467  0.79748  1
