CIF file written using JARVIS-Tools package.
data_CdH14C9O4
_symmetry_space_group_name_H-M  'P1'
_cell_length_a       4.06728
_cell_length_b       4.90913
_cell_length_c       11.8036
_cell_angle_alpha    85.7836
_cell_angle_beta     90.8747
_cell_angle_gamma    68.6325

_symmetry_Int_Tables_number  1
_chemical_formula_structural  CdH14C9O4
_chemical_formula_sum  CdH4C9O4
_cell_volume  218.66210930405398
_cell_formula_units_Z  1
loop_
  _symmetry_equiv_pos_site_id
 _symmetry_equiv_pos_as_xyz
 1  'x, y, z'
loop_
 _atom_site_type_symbol
 _atom_site_label
 _atom_site_symmetry_multiplicity
 _atom_site_fract_x
 _atom_site_fract_y
 _atom_site_fract_z
 _atom_site_fract_occupancy
 C  C1  1  0.36223  -0.00063  0.67821  1
 C  C2  1  0.62608  0.44596  0.31848  1
 C  C3  1  0.38382  0.53335  0.41642  1
 C  C4  1  0.24464  0.84061  0.58626  1
 C  C5  1  0.52299  0.69259  0.50202  1
 C  C6  1  0.36631  0.86671  0.80048  1
 C  C7  1  0.63436  0.55310  0.82017  1
 C  C8  1  0.66211  0.38133  0.93359  1
 C  C9  1  0.43168  0.39895  0.01742  1
 Cd  Cd1  1  0.08101  0.99164  0.16670  1
 H  H1  1  0.60165  0.85982  0.45487  1
 H  H2  1  0.35495  0.33668  0.45879  1
 H  H3  1  0.12219  0.68269  0.38239  1
 H  H4  1  0.09971  0.87135  0.81843  1
 H  H5  1  0.91349  0.59442  0.01950  1
 H  H6  1  0.88533  0.17115  0.94051  1
 H  H7  1  0.76325  0.53394  0.54747  1
 H  H8  1  0.01476  -0.00215  0.53591  1
 H  H9  1  0.18172  0.23087  0.67288  1
 H  H10  1  0.62517  0.00442  0.66072  1
 H  H11  1  0.89939  0.55571  0.80252  1
 H  H12  1  0.58472  0.42085  0.75443  1
 H  H13  1  0.15271  0.67475  0.62817  1
 H  H14  1  0.42615  0.00511  0.86106  1
 O  O1  1  0.86004  0.18713  0.32603  1
 O  O2  1  0.12723  0.65185  0.02332  1
 O  O3  1  0.59836  0.63333  0.23409  1
 O  O4  1  0.48049  0.18962  0.10041  1
