CIF file written using JARVIS-Tools package.
data_H6C12S2O
_symmetry_space_group_name_H-M  'P1'
_cell_length_a       4.02227
_cell_length_b       6.11508
_cell_length_c       10.2042
_cell_angle_alpha    82.0243
_cell_angle_beta     80.6728
_cell_angle_gamma    71.7678

_symmetry_Int_Tables_number  1
_chemical_formula_structural  H6C12S2O
_chemical_formula_sum  H6C2S2O
_cell_volume  234.1947611686115
_cell_formula_units_Z  1
loop_
  _symmetry_equiv_pos_site_id
 _symmetry_equiv_pos_as_xyz
 1  'x, y, z'
loop_
 _atom_site_type_symbol
 _atom_site_label
 _atom_site_symmetry_multiplicity
 _atom_site_fract_x
 _atom_site_fract_y
 _atom_site_fract_z
 _atom_site_fract_occupancy
 C  C1  1  0.50581  0.36295  0.45515  1
 C  C2  1  0.48704  0.58374  0.38775  1
 C  C3  1  0.04147  0.52949  0.64336  1
 C  C4  1  0.97536  0.50620  0.78256  1
 C  C5  1  0.33070  0.35608  0.59175  1
 C  C6  1  0.21286  0.31374  0.84032  1
 C  C7  1  0.89192  0.19051  0.26236  1
 C  C8  1  0.70838  0.16760  0.38905  1
 C  C9  1  0.09425  0.45129  0.07144  1
 C  C10  1  0.88961  0.41160  0.19955  1
 C  C11  1  0.27055  0.26191  0.97984  1
 C  C12  1  0.67686  0.60767  0.26417  1
 H  H1  1  0.71737  0.99530  0.43700  1
 H  H2  1  0.04401  0.03702  0.21262  1
 H  H3  1  0.33163  0.73787  0.43651  1
 H  H4  1  0.66506  0.77903  0.21462  1
 H  H5  1  0.88527  0.66989  0.58076  1
 H  H6  1  0.76314  0.62584  0.84074  1
 O  O1  1  0.48791  0.08328  0.02320  1
 S  S1  1  0.19645  0.69347  0.02512  1
 S  S2  1  0.50954  0.15492  0.71857  1
