CIF file written using JARVIS-Tools package.
data_MgH6N2Cl2
_symmetry_space_group_name_H-M  'Imma'
_cell_length_a       6.84948
_cell_length_b       6.84948
_cell_length_c       6.84948
_cell_angle_alpha    107.278
_cell_angle_beta     107.544
_cell_angle_gamma    113.676

_symmetry_Int_Tables_number  74
_chemical_formula_structural  MgH6N2Cl2
_chemical_formula_sum  Mg2H2N4Cl4
_cell_volume  246.36395038111579
_cell_formula_units_Z  2
loop_
  _symmetry_equiv_pos_site_id
 _symmetry_equiv_pos_as_xyz
 1  'x, y, z'
loop_
 _atom_site_type_symbol
 _atom_site_label
 _atom_site_symmetry_multiplicity
 _atom_site_fract_x
 _atom_site_fract_y
 _atom_site_fract_z
 _atom_site_fract_occupancy
 Cl  Cl1  1  0.00838  0.79230  0.78392  1
 Cl  Cl2  1  0.49162  0.27553  0.78392  1
 Cl  Cl3  1  0.99162  0.20770  0.21608  1
 Cl  Cl4  1  0.50838  0.72447  0.21608  1
 H  H1  1  0.82988  0.22043  0.76781  1
 H  H2  1  0.42676  0.84712  0.77388  1
 H  H3  1  0.92676  0.15288  0.57964  1
 H  H4  1  0.07324  0.84712  0.42036  1
 H  H5  1  0.57324  0.15288  0.22612  1
 H  H6  1  0.45262  0.22043  0.39054  1
 H  H7  1  0.04738  0.43793  0.76781  1
 H  H8  1  0.32988  0.56207  0.60946  1
 H  H9  1  0.17012  0.77957  0.23219  1
 H  H10  1  0.95262  0.56207  0.23219  1
 H  H11  1  0.67012  0.43793  0.39054  1
 H  H12  1  0.54738  0.77957  0.60946  1
 Mg  Mg1  1  0.25000  0.25488  0.00488  1
 Mg  Mg2  1  0.75000  0.74512  0.99512  1
 N  N1  1  0.48388  0.73400  0.71788  1
 N  N2  1  0.98388  0.26600  0.74988  1
 N  N3  1  0.51612  0.26600  0.28212  1
 N  N4  1  0.01612  0.73400  0.25012  1
