CIF file written using JARVIS-Tools package.
data_MgPb2
_symmetry_space_group_name_H-M  'P-6m2'
_cell_length_a       3.52306
_cell_length_b       3.52306
_cell_length_c       15.9421
_cell_angle_alpha    90
_cell_angle_beta     90
_cell_angle_gamma    120

_symmetry_Int_Tables_number  187
_chemical_formula_structural  MgPb2
_chemical_formula_sum  Mg2Pb4
_cell_volume  171.36270597536134
_cell_formula_units_Z  2
loop_
  _symmetry_equiv_pos_site_id
 _symmetry_equiv_pos_as_xyz
 1  'x, y, z'
loop_
 _atom_site_type_symbol
 _atom_site_label
 _atom_site_symmetry_multiplicity
 _atom_site_fract_x
 _atom_site_fract_y
 _atom_site_fract_z
 _atom_site_fract_occupancy
 Mg  Mg1  1  0.00000  0.00000  0.34197  1
 Mg  Mg2  1  0.00000  0.00000  0.65803  1
 Pb  Pb1  1  0.33333  0.66667  0.81470  1
 Pb  Pb2  1  0.00000  0.00000  0.00000  1
 Pb  Pb3  1  0.33333  0.66667  0.18530  1
 Pb  Pb4  1  0.33333  0.66667  0.50000  1
