CIF file written using JARVIS-Tools package.
data_TmUTe4
_symmetry_space_group_name_H-M  'Imm2'
_cell_length_a       7.94826
_cell_length_b       7.94827
_cell_length_c       7.94826
_cell_angle_alpha    149.567
_cell_angle_beta     134.362
_cell_angle_gamma    55.847

_symmetry_Int_Tables_number  44
_chemical_formula_structural  TmUTe4
_chemical_formula_sum  TmUTe4
_cell_volume  180.64844932353384
_cell_formula_units_Z  1
loop_
  _symmetry_equiv_pos_site_id
 _symmetry_equiv_pos_as_xyz
 1  'x, y, z'
loop_
 _atom_site_type_symbol
 _atom_site_label
 _atom_site_symmetry_multiplicity
 _atom_site_fract_x
 _atom_site_fract_y
 _atom_site_fract_z
 _atom_site_fract_occupancy
 Te  Te1  1  0.70407  0.20407  0.50000  1
 Te  Te2  1  0.29472  0.79472  0.50000  1
 Te  Te3  1  0.75051  0.49925  0.25126  1
 Te  Te4  1  0.24800  0.49925  0.74874  1
 Tm  Tm1  1  0.13854  0.13854  -0.00000  1
 U  U1  1  0.86417  0.86417  -0.00000  1
