CIF file written using JARVIS-Tools package.
data_MoW2Se6
_symmetry_space_group_name_H-M  'P-6m2'
_cell_length_a       3.3273
_cell_length_b       3.32732
_cell_length_c       27.8244
_cell_angle_alpha    90
_cell_angle_beta     90
_cell_angle_gamma    120

_symmetry_Int_Tables_number  187
_chemical_formula_structural  MoW2Se6
_chemical_formula_sum  MoW2Se6
_cell_volume  266.7738452382757
_cell_formula_units_Z  1
loop_
  _symmetry_equiv_pos_site_id
 _symmetry_equiv_pos_as_xyz
 1  'x, y, z'
loop_
 _atom_site_type_symbol
 _atom_site_label
 _atom_site_symmetry_multiplicity
 _atom_site_fract_x
 _atom_site_fract_y
 _atom_site_fract_z
 _atom_site_fract_occupancy
 Mo  Mo1  1  0.66687  0.33374  0.34698  1
 Se  Se1  1  0.33354  0.66707  0.40712  1
 Se  Se2  1  0.66655  0.33309  0.04948  1
 Se  Se3  1  0.66656  0.33313  0.52360  1
 Se  Se4  1  0.66656  0.33313  0.17036  1
 Se  Se5  1  0.66655  0.33309  0.64448  1
 Se  Se6  1  0.33354  0.66707  0.28684  1
 W  W1  1  0.33322  0.66644  0.10988  1
 W  W2  1  0.33322  0.66644  0.58408  1
