CIF file written using JARVIS-Tools package.
data_GaTeI7
_symmetry_space_group_name_H-M  'Pc'
_cell_length_a       7.23745
_cell_length_b       7.21184
_cell_length_c       15.838
_cell_angle_alpha    90
_cell_angle_beta     102.796
_cell_angle_gamma    90

_symmetry_Int_Tables_number  7
_chemical_formula_structural  GaTeI7
_chemical_formula_sum  Ga2Te2I4
_cell_volume  806.1432699104328
_cell_formula_units_Z  2
loop_
  _symmetry_equiv_pos_site_id
 _symmetry_equiv_pos_as_xyz
 1  'x, y, z'
loop_
 _atom_site_type_symbol
 _atom_site_label
 _atom_site_symmetry_multiplicity
 _atom_site_fract_x
 _atom_site_fract_y
 _atom_site_fract_z
 _atom_site_fract_occupancy
 Ga  Ga1  1  0.28544  0.49062  0.80682  1
 Ga  Ga2  1  0.28544  0.50938  0.30682  1
 I  I1  1  0.31932  0.84313  0.82865  1
 I  I2  1  0.31932  0.15687  0.32865  1
 I  I3  1  0.51624  0.32141  0.93246  1
 I  I4  1  0.51624  0.67859  0.43246  1
 I  I5  1  0.13018  0.86288  0.53664  1
 I  I6  1  0.37082  0.37813  0.66397  1
 I  I7  1  0.94444  0.38348  0.80970  1
 I  I8  1  0.94444  0.61652  0.30970  1
 I  I9  1  0.78904  0.33092  0.53551  1
 I  I10  1  0.78904  0.66908  0.03551  1
 I  I11  1  0.70603  0.87444  0.68730  1
 I  I12  1  0.70603  0.12556  0.18730  1
 I  I13  1  0.37082  0.62187  0.16397  1
 I  I14  1  0.13018  0.13712  0.03664  1
 Te  Te1  1  0.00478  0.91523  0.15488  1
 Te  Te2  1  0.00478  0.08477  0.65488  1
