CIF file written using JARVIS-Tools package.
data_Zr2Se3S3
_symmetry_space_group_name_H-M  'Pm'
_cell_length_a       3.71908
_cell_length_b       5.36779
_cell_length_c       9.37804
_cell_angle_alpha    82.8977
_cell_angle_beta     90
_cell_angle_gamma    90

_symmetry_Int_Tables_number  6
_chemical_formula_structural  Zr2Se3S3
_chemical_formula_sum  Zr2Se3S3
_cell_volume  185.77924720852667
_cell_formula_units_Z  1
loop_
  _symmetry_equiv_pos_site_id
 _symmetry_equiv_pos_as_xyz
 1  'x, y, z'
loop_
 _atom_site_type_symbol
 _atom_site_label
 _atom_site_symmetry_multiplicity
 _atom_site_fract_x
 _atom_site_fract_y
 _atom_site_fract_z
 _atom_site_fract_occupancy
 S  S1  1  0.50000  0.12795  0.16913  1
 S  S2  1  0.00000  0.89040  0.81813  1
 S  S3  1  0.50000  0.51814  0.17498  1
 Se  Se1  1  0.00000  0.46563  0.84380  1
 Se  Se2  1  0.50000  0.23775  0.55517  1
 Se  Se3  1  0.00000  0.76083  0.44151  1
 Zr  Zr1  1  0.50000  0.71594  0.66048  1
 Zr  Zr2  1  0.00000  0.28336  0.33679  1
