CIF file written using JARVIS-Tools package.
data_Ba3Al2Si2
_symmetry_space_group_name_H-M  'Immm'
_cell_length_a       4.31392
_cell_length_b       5.1186
_cell_length_c       10.5583
_cell_angle_alpha    104.026
_cell_angle_beta     101.788
_cell_angle_gamma    89.9999

_symmetry_Int_Tables_number  71
_chemical_formula_structural  Ba3Al2Si2
_chemical_formula_sum  Ba3Al2Si2
_cell_volume  221.11935771505856
_cell_formula_units_Z  1
loop_
  _symmetry_equiv_pos_site_id
 _symmetry_equiv_pos_as_xyz
 1  'x, y, z'
loop_
 _atom_site_type_symbol
 _atom_site_label
 _atom_site_symmetry_multiplicity
 _atom_site_fract_x
 _atom_site_fract_y
 _atom_site_fract_z
 _atom_site_fract_occupancy
 Al  Al1  1  0.06558  0.56555  0.13117  1
 Al  Al2  1  0.93442  0.43445  0.86883  1
 Ba  Ba1  1  0.50000  0.00000  -0.00000  1
 Ba  Ba2  1  0.81414  0.81419  0.62828  1
 Ba  Ba3  1  0.18586  0.18581  0.37172  1
 Si  Si1  1  0.63436  0.63429  0.26872  1
 Si  Si2  1  0.36564  0.36571  0.73128  1
