CIF file written using JARVIS-Tools package.
data_Sm2P3Pt4
_symmetry_space_group_name_H-M  'I-4m2'
_cell_length_a       10.0003
_cell_length_b       10.0003
_cell_length_c       10.0003
_cell_angle_alpha    155.939
_cell_angle_beta     155.938
_cell_angle_gamma    34.288

_symmetry_Int_Tables_number  119
_chemical_formula_structural  Sm2P3Pt4
_chemical_formula_sum  Sm2P3Pt4
_cell_volume  166.07612314204883
_cell_formula_units_Z  1
loop_
  _symmetry_equiv_pos_site_id
 _symmetry_equiv_pos_as_xyz
 1  'x, y, z'
loop_
 _atom_site_type_symbol
 _atom_site_label
 _atom_site_symmetry_multiplicity
 _atom_site_fract_x
 _atom_site_fract_y
 _atom_site_fract_z
 _atom_site_fract_occupancy
 P  P1  1  0.92550  0.92550  0.00000  1
 P  P2  1  0.07450  0.07450  -0.00000  1
 P  P3  1  0.75000  0.25000  0.50000  1
 Pt  Pt1  1  0.80365  0.80365  0.00000  1
 Pt  Pt2  1  0.19635  0.19635  -0.00000  1
 Pt  Pt3  1  0.99918  0.49918  0.50000  1
 Pt  Pt4  1  0.50082  0.00082  0.50000  1
 Sm  Sm1  1  0.62766  0.62766  0.00000  1
 Sm  Sm2  1  0.37234  0.37234  0.00000  1
