CIF file written using JARVIS-Tools package.
data_DyCo2B2
_symmetry_space_group_name_H-M  'I4/mmm'
_cell_length_a       3.54868
_cell_length_b       3.54869
_cell_length_c       5.30688
_cell_angle_alpha    109.533
_cell_angle_beta     109.533
_cell_angle_gamma    90

_symmetry_Int_Tables_number  139
_chemical_formula_structural  DyCo2B2
_chemical_formula_sum  DyCo2B2
_cell_volume  58.887704114398794
_cell_formula_units_Z  1
loop_
  _symmetry_equiv_pos_site_id
 _symmetry_equiv_pos_as_xyz
 1  'x, y, z'
loop_
 _atom_site_type_symbol
 _atom_site_label
 _atom_site_symmetry_multiplicity
 _atom_site_fract_x
 _atom_site_fract_y
 _atom_site_fract_z
 _atom_site_fract_occupancy
 B  B1  1  0.65012  0.65012  0.30024  1
 B  B2  1  0.34988  0.34988  0.69976  1
 Co  Co1  1  0.25000  0.75000  0.50000  1
 Co  Co2  1  0.75000  0.25000  0.50000  1
 Dy  Dy1  1  0.00000  0.00000  0.00000  1
