CIF file written using JARVIS-Tools package.
data_BeZn3O4
_symmetry_space_group_name_H-M  'I-42m'
_cell_length_a       5.357
_cell_length_b       5.357
_cell_length_c       5.35699
_cell_angle_alpha    131.31
_cell_angle_beta     131.31
_cell_angle_gamma    71.321

_symmetry_Int_Tables_number  121
_chemical_formula_structural  BeZn3O4
_chemical_formula_sum  BeZn3O4
_cell_volume  84.90214114596007
_cell_formula_units_Z  1
loop_
  _symmetry_equiv_pos_site_id
 _symmetry_equiv_pos_as_xyz
 1  'x, y, z'
loop_
 _atom_site_type_symbol
 _atom_site_label
 _atom_site_symmetry_multiplicity
 _atom_site_fract_x
 _atom_site_fract_y
 _atom_site_fract_z
 _atom_site_fract_occupancy
 Be  Be1  1  0.00000  0.00000  0.00000  1
 O  O1  1  0.67034  0.67034  0.56301  1
 O  O2  1  0.10734  0.10734  0.43699  1
 O  O3  1  0.89266  0.32966  0.00000  1
 O  O4  1  0.32966  0.89266  0.00000  1
 Zn  Zn1  1  0.50000  0.50000  0.00000  1
 Zn  Zn2  1  0.25000  0.75000  0.50000  1
 Zn  Zn3  1  0.75000  0.25000  0.50000  1
