CIF file written using JARVIS-Tools package.
data_LiNbTe3O12
_symmetry_space_group_name_H-M  'P2'
_cell_length_a       4.87396
_cell_length_b       8.693
_cell_length_c       5.21991
_cell_angle_alpha    90
_cell_angle_beta     89.831
_cell_angle_gamma    90

_symmetry_Int_Tables_number  3
_chemical_formula_structural  LiNbTe3O12
_chemical_formula_sum  LiNbTe3O2
_cell_volume  221.16314343775025
_cell_formula_units_Z  1
loop_
  _symmetry_equiv_pos_site_id
 _symmetry_equiv_pos_as_xyz
 1  'x, y, z'
loop_
 _atom_site_type_symbol
 _atom_site_label
 _atom_site_symmetry_multiplicity
 _atom_site_fract_x
 _atom_site_fract_y
 _atom_site_fract_z
 _atom_site_fract_occupancy
 Li  Li1  1  0.00000  0.72649  0.00000  1
 Nb  Nb1  1  0.00000  0.10833  0.00000  1
 O  O1  1  0.25857  0.26264  0.87539  1
 O  O2  1  0.28068  0.58244  0.81949  1
 O  O3  1  0.19952  0.91840  0.81390  1
 O  O4  1  0.71932  0.58244  0.18051  1
 O  O5  1  0.71189  0.44252  0.68345  1
 O  O6  1  0.75689  0.75146  0.64734  1
 O  O7  1  0.24311  0.75146  0.35266  1
 O  O8  1  0.21665  0.07216  0.31806  1
 O  O9  1  0.28811  0.44252  0.31655  1
 O  O10  1  0.80048  0.91840  0.18610  1
 O  O11  1  0.78335  0.07216  0.68194  1
 O  O12  1  0.74143  0.26264  0.12461  1
 Te  Te1  1  0.50000  0.60572  0.50000  1
 Te  Te2  1  -0.00000  0.91946  0.50000  1
 Te  Te3  1  0.50000  0.41695  -0.00000  1
