CIF file written using JARVIS-Tools package.
data_Li2Ni2BiO6
_symmetry_space_group_name_H-M  'Cmce'
_cell_length_a       5.34598
_cell_length_b       5.39891
_cell_length_c       9.96141
_cell_angle_alpha    90
_cell_angle_beta     90
_cell_angle_gamma    59.672

_symmetry_Int_Tables_number  64
_chemical_formula_structural  Li2Ni2BiO6
_chemical_formula_sum  Li4Ni4Bi2O2
_cell_volume  248.16433679779746
_cell_formula_units_Z  2
loop_
  _symmetry_equiv_pos_site_id
 _symmetry_equiv_pos_as_xyz
 1  'x, y, z'
loop_
 _atom_site_type_symbol
 _atom_site_label
 _atom_site_symmetry_multiplicity
 _atom_site_fract_x
 _atom_site_fract_y
 _atom_site_fract_z
 _atom_site_fract_occupancy
 Bi  Bi1  1  0.00000  0.00000  0.00000  1
 Bi  Bi2  1  0.00000  0.50000  0.50000  1
 Li  Li1  1  0.50000  0.15113  0.75000  1
 Li  Li2  1  0.50000  0.34887  0.25000  1
 Li  Li3  1  0.50000  0.65113  0.75000  1
 Li  Li4  1  0.50000  0.84887  0.25000  1
 Ni  Ni1  1  0.32807  0.33596  0.00000  1
 Ni  Ni2  1  0.32807  0.83596  0.50000  1
 Ni  Ni3  1  0.67193  0.16404  0.50000  1
 Ni  Ni4  1  0.67193  0.66404  0.00000  1
 O  O1  1  0.62375  0.53202  0.38880  1
 O  O2  1  0.00000  0.36396  0.09997  1
 O  O3  1  -0.00000  0.63604  0.90003  1
 O  O4  1  0.37625  0.96798  0.88880  1
 O  O5  1  -0.00000  0.13604  0.59997  1
 O  O6  1  0.62375  0.34423  0.88880  1
 O  O7  1  0.37625  0.46798  0.61120  1
 O  O8  1  0.37625  0.65577  0.11120  1
 O  O9  1  0.62375  0.03202  0.11120  1
 O  O10  1  0.00000  0.86396  0.40003  1
 O  O11  1  0.37625  0.15577  0.38880  1
 O  O12  1  0.62375  0.84423  0.61120  1
