CIF file written using JARVIS-Tools package.
data_Ce3SiS2
_symmetry_space_group_name_H-M  'Immm'
_cell_length_a       7.11646
_cell_length_b       7.11646
_cell_length_c       7.11646
_cell_angle_alpha    146.266
_cell_angle_beta     131.829
_cell_angle_gamma    60.0972

_symmetry_Int_Tables_number  71
_chemical_formula_structural  Ce3SiS2
_chemical_formula_sum  Ce3SiS2
_cell_volume  147.76156642870313
_cell_formula_units_Z  1
loop_
  _symmetry_equiv_pos_site_id
 _symmetry_equiv_pos_as_xyz
 1  'x, y, z'
loop_
 _atom_site_type_symbol
 _atom_site_label
 _atom_site_symmetry_multiplicity
 _atom_site_fract_x
 _atom_site_fract_y
 _atom_site_fract_z
 _atom_site_fract_occupancy
 Ce  Ce1  1  0.00000  0.00000  0.00000  1
 Ce  Ce2  1  0.66963  0.66963  -0.00000  1
 Ce  Ce3  1  0.33037  0.33037  0.00000  1
 S  S1  1  0.16536  0.66536  0.50000  1
 S  S2  1  0.83464  0.33464  0.50000  1
 Si  Si1  1  0.50000  -0.00000  0.50000  1
