CIF file written using JARVIS-Tools package.
data_LiCu5F12
_symmetry_space_group_name_H-M  'Cmmm'
_cell_length_a       4.65927
_cell_length_b       4.65926
_cell_length_c       9.28543
_cell_angle_alpha    90
_cell_angle_beta     90
_cell_angle_gamma    89.3456

_symmetry_Int_Tables_number  65
_chemical_formula_structural  LiCu5F12
_chemical_formula_sum  LiCu5F2
_cell_volume  201.56177115293053
_cell_formula_units_Z  1
loop_
  _symmetry_equiv_pos_site_id
 _symmetry_equiv_pos_as_xyz
 1  'x, y, z'
loop_
 _atom_site_type_symbol
 _atom_site_label
 _atom_site_symmetry_multiplicity
 _atom_site_fract_x
 _atom_site_fract_y
 _atom_site_fract_z
 _atom_site_fract_occupancy
 Cu  Cu1  1  0.00000  0.00000  0.32711  1
 Cu  Cu2  1  0.00000  0.00000  0.67289  1
 Cu  Cu3  1  0.50000  0.50000  0.16246  1
 Cu  Cu4  1  0.50000  0.50000  0.50000  1
 Cu  Cu5  1  0.50000  0.50000  0.83754  1
 F  F1  1  0.69538  0.69538  0.33258  1
 F  F2  1  0.19410  0.80590  0.50000  1
 F  F3  1  0.20052  0.79948  0.16973  1
 F  F4  1  0.79948  0.20052  0.83027  1
 F  F5  1  0.30462  0.30462  0.33258  1
 F  F6  1  0.20052  0.79948  0.83027  1
 F  F7  1  0.80590  0.19410  0.50000  1
 F  F8  1  0.69496  0.69496  0.00000  1
 F  F9  1  0.30462  0.30462  0.66742  1
 F  F10  1  0.69538  0.69538  0.66742  1
 F  F11  1  0.79948  0.20052  0.16973  1
 F  F12  1  0.30504  0.30504  0.00000  1
 Li  Li1  1  0.00000  0.00000  0.00000  1
