CIF file written using JARVIS-Tools package.
data_Ni3OF5
_symmetry_space_group_name_H-M  'P1'
_cell_length_a       4.63503
_cell_length_b       5.56025
_cell_length_c       7.69969
_cell_angle_alpha    86.5841
_cell_angle_beta     88.8491
_cell_angle_gamma    88.4174

_symmetry_Int_Tables_number  1
_chemical_formula_structural  Ni3OF5
_chemical_formula_sum  Ni6O2F0
_cell_volume  197.97374544008156
_cell_formula_units_Z  2
loop_
  _symmetry_equiv_pos_site_id
 _symmetry_equiv_pos_as_xyz
 1  'x, y, z'
loop_
 _atom_site_type_symbol
 _atom_site_label
 _atom_site_symmetry_multiplicity
 _atom_site_fract_x
 _atom_site_fract_y
 _atom_site_fract_z
 _atom_site_fract_occupancy
 F  F1  1  0.20537  0.03443  0.76072  1
 F  F2  1  0.19419  0.36588  0.43992  1
 F  F3  1  0.69605  0.79972  0.89951  1
 F  F4  1  0.69468  0.46569  0.23407  1
 F  F5  1  0.80322  0.96683  0.23133  1
 F  F6  1  0.30588  0.86565  0.43169  1
 F  F7  1  0.30406  0.53652  0.76914  1
 F  F8  1  0.30229  0.20201  0.10126  1
 F  F9  1  0.19564  0.70153  0.10104  1
 F  F10  1  0.70109  0.12791  0.56267  1
 Ni  Ni1  1  0.99332  0.01301  0.99360  1
 Ni  Ni2  1  0.97448  0.34912  0.67636  1
 Ni  Ni3  1  0.98860  0.66688  0.34437  1
 Ni  Ni4  1  0.51816  0.82161  0.65977  1
 Ni  Ni5  1  0.49649  0.16787  0.33394  1
 Ni  Ni6  1  0.51726  0.48892  0.99574  1
 O  O1  1  0.80509  0.29669  0.89880  1
 O  O2  1  0.80412  0.62976  0.56609  1
