CIF file written using JARVIS-Tools package.
data_Sm2CdSb4
_symmetry_space_group_name_H-M  'P-4m2'
_cell_length_a       4.34219
_cell_length_b       4.34219
_cell_length_c       10.7758
_cell_angle_alpha    90
_cell_angle_beta     90
_cell_angle_gamma    90

_symmetry_Int_Tables_number  115
_chemical_formula_structural  Sm2CdSb4
_chemical_formula_sum  Sm2CdSb4
_cell_volume  203.17347620454817
_cell_formula_units_Z  1
loop_
  _symmetry_equiv_pos_site_id
 _symmetry_equiv_pos_as_xyz
 1  'x, y, z'
loop_
 _atom_site_type_symbol
 _atom_site_label
 _atom_site_symmetry_multiplicity
 _atom_site_fract_x
 _atom_site_fract_y
 _atom_site_fract_z
 _atom_site_fract_occupancy
 Cd  Cd1  1  0.50000  0.50000  0.50000  1
 Sb  Sb1  1  0.50000  0.00000  0.32457  1
 Sb  Sb2  1  0.00000  0.50000  0.67543  1
 Sb  Sb3  1  0.50000  0.50000  0.00000  1
 Sb  Sb4  1  0.00000  0.00000  0.00000  1
 Sm  Sm1  1  0.50000  0.00000  0.76587  1
 Sm  Sm2  1  0.00000  0.50000  0.23413  1
