CIF file written using JARVIS-Tools package.
data_LaCeF6
_symmetry_space_group_name_H-M  'Amm2'
_cell_length_a       4.15355
_cell_length_b       4.15355
_cell_length_c       7.31466
_cell_angle_alpha    90
_cell_angle_beta     90
_cell_angle_gamma    120.148

_symmetry_Int_Tables_number  38
_chemical_formula_structural  LaCeF6
_chemical_formula_sum  LaCeF6
_cell_volume  109.12278706189834
_cell_formula_units_Z  1
loop_
  _symmetry_equiv_pos_site_id
 _symmetry_equiv_pos_as_xyz
 1  'x, y, z'
loop_
 _atom_site_type_symbol
 _atom_site_label
 _atom_site_symmetry_multiplicity
 _atom_site_fract_x
 _atom_site_fract_y
 _atom_site_fract_z
 _atom_site_fract_occupancy
 Ce  Ce1  1  0.33205  0.66795  0.50000  1
 F  F1  1  0.00081  0.99919  0.00000  1
 F  F2  1  0.99922  0.00078  0.50000  1
 F  F3  1  0.66640  0.33360  0.66944  1
 F  F4  1  0.33348  0.66652  0.82820  1
 F  F5  1  0.33348  0.66652  0.17180  1
 F  F6  1  0.66640  0.33360  0.33056  1
 La  La1  1  0.66817  0.33183  0.00000  1
