CIF file written using JARVIS-Tools package.
data_ThSiIr
_symmetry_space_group_name_H-M  'I4_1md'
_cell_length_a       7.80997
_cell_length_b       7.80997
_cell_length_c       7.80996
_cell_angle_alpha    148.842
_cell_angle_beta     148.842
_cell_angle_gamma    44.6433

_symmetry_Int_Tables_number  109
_chemical_formula_structural  ThSiIr
_chemical_formula_sum  Th2Si2Ir2
_cell_volume  127.13731988428528
_cell_formula_units_Z  2
loop_
  _symmetry_equiv_pos_site_id
 _symmetry_equiv_pos_as_xyz
 1  'x, y, z'
loop_
 _atom_site_type_symbol
 _atom_site_label
 _atom_site_symmetry_multiplicity
 _atom_site_fract_x
 _atom_site_fract_y
 _atom_site_fract_z
 _atom_site_fract_occupancy
 Ir  Ir1  1  0.16849  0.16849  -0.00000  1
 Ir  Ir2  1  0.91849  0.41849  0.50000  1
 Si  Si1  1  0.00028  0.00028  0.00000  1
 Si  Si2  1  0.75028  0.25028  0.50000  1
 Th  Th1  1  0.57823  0.57823  -0.00000  1
 Th  Th2  1  0.32823  0.82823  0.50000  1
