CIF file written using JARVIS-Tools package.
data_IO2F
_symmetry_space_group_name_H-M  'P2_12_12_1'
_cell_length_a       5.33206
_cell_length_b       5.72435
_cell_length_c       7.67351
_cell_angle_alpha    90
_cell_angle_beta     90
_cell_angle_gamma    90

_symmetry_Int_Tables_number  19
_chemical_formula_structural  IO2F
_chemical_formula_sum  I4O8F4
_cell_volume  234.21550124054167
_cell_formula_units_Z  4
loop_
  _symmetry_equiv_pos_site_id
 _symmetry_equiv_pos_as_xyz
 1  'x, y, z'
loop_
 _atom_site_type_symbol
 _atom_site_label
 _atom_site_symmetry_multiplicity
 _atom_site_fract_x
 _atom_site_fract_y
 _atom_site_fract_z
 _atom_site_fract_occupancy
 F  F1  1  0.37932  0.32134  0.08259  1
 F  F2  1  0.62068  0.82134  0.41741  1
 F  F3  1  0.87932  0.17866  0.91741  1
 F  F4  1  0.12068  0.67866  0.58259  1
 I  I1  1  0.29086  0.39487  0.66682  1
 I  I2  1  0.79086  0.10513  0.33318  1
 I  I3  1  0.70914  0.89487  0.83318  1
 I  I4  1  0.20914  0.60513  0.16682  1
 O  O1  1  0.39854  0.33801  0.44810  1
 O  O2  1  0.89854  0.16199  0.55190  1
 O  O3  1  0.60146  0.83801  0.05190  1
 O  O4  1  0.10146  0.66199  0.94810  1
 O  O5  1  0.57272  0.55186  0.74256  1
 O  O6  1  0.92728  0.44814  0.24256  1
 O  O7  1  0.42728  0.05186  0.75744  1
 O  O8  1  0.07272  0.94814  0.25744  1
