CIF file written using JARVIS-Tools package.
data_Mn2CuSb2Pd
_symmetry_space_group_name_H-M  'R3m'
_cell_length_a       7.57127
_cell_length_b       7.57127
_cell_length_c       7.57127
_cell_angle_alpha    33.346
_cell_angle_beta     33.3461
_cell_angle_gamma    33.346

_symmetry_Int_Tables_number  160
_chemical_formula_structural  Mn2CuSb2Pd
_chemical_formula_sum  Mn2CuSb2Pd
_cell_volume  116.7725757549766
_cell_formula_units_Z  1
loop_
  _symmetry_equiv_pos_site_id
 _symmetry_equiv_pos_as_xyz
 1  'x, y, z'
loop_
 _atom_site_type_symbol
 _atom_site_label
 _atom_site_symmetry_multiplicity
 _atom_site_fract_x
 _atom_site_fract_y
 _atom_site_fract_z
 _atom_site_fract_occupancy
 Cu  Cu1  1  0.12525  0.12525  0.12525  1
 Mn  Mn1  1  0.75016  0.75016  0.75016  1
 Mn  Mn2  1  0.24886  0.24886  0.24886  1
 Pd  Pd1  1  0.62459  0.62459  0.62459  1
 Sb  Sb1  1  0.00280  0.00280  0.00280  1
 Sb  Sb2  1  0.49835  0.49835  0.49835  1
