CIF file written using JARVIS-Tools package.
data_H3C3S2N
_symmetry_space_group_name_H-M  'P1'
_cell_length_a       4.85101
_cell_length_b       5.13814
_cell_length_c       5.13861
_cell_angle_alpha    61.0407
_cell_angle_beta     83.2144
_cell_angle_gamma    83.2427

_symmetry_Int_Tables_number  1
_chemical_formula_structural  H3C3S2N
_chemical_formula_sum  H3C3S2N
_cell_volume  111.01141239955479
_cell_formula_units_Z  1
loop_
  _symmetry_equiv_pos_site_id
 _symmetry_equiv_pos_as_xyz
 1  'x, y, z'
loop_
 _atom_site_type_symbol
 _atom_site_label
 _atom_site_symmetry_multiplicity
 _atom_site_fract_x
 _atom_site_fract_y
 _atom_site_fract_z
 _atom_site_fract_occupancy
 C  C1  1  0.90195  0.57314  0.92101  1
 C  C2  1  0.63869  0.45702  0.11809  1
 C  C3  1  0.16515  0.37659  0.03774  1
 H  H1  1  0.87774  0.60083  0.69756  1
 H  H2  1  0.40182  0.73160  0.76358  1
 H  H3  1  0.92606  0.79737  0.89147  1
 N  N1  1  0.40182  0.53401  0.96103  1
 S  S1  1  0.62455  0.28410  0.48343  1
 S  S2  1  0.17921  0.01121  0.21079  1
