CIF file written using JARVIS-Tools package.
data_Rb3NdF6
_symmetry_space_group_name_H-M  'I4/mmm'
_cell_length_a       7.04084
_cell_length_b       7.04084
_cell_length_c       7.04085
_cell_angle_alpha    118.86
_cell_angle_beta     118.86
_cell_angle_gamma    91.9861

_symmetry_Int_Tables_number  139
_chemical_formula_structural  Rb3NdF6
_chemical_formula_sum  Rb3NdF6
_cell_volume  250.89756687063107
_cell_formula_units_Z  1
loop_
  _symmetry_equiv_pos_site_id
 _symmetry_equiv_pos_as_xyz
 1  'x, y, z'
loop_
 _atom_site_type_symbol
 _atom_site_label
 _atom_site_symmetry_multiplicity
 _atom_site_fract_x
 _atom_site_fract_y
 _atom_site_fract_z
 _atom_site_fract_occupancy
 F  F1  1  0.00000  0.31525  0.31525  1
 F  F2  1  -0.00000  0.68475  0.68475  1
 F  F3  1  0.31525  0.00000  0.31525  1
 F  F4  1  0.68475  -0.00000  0.68475  1
 F  F5  1  0.23640  0.23640  -0.00000  1
 F  F6  1  0.76360  0.76360  0.00000  1
 Nd  Nd1  1  0.00000  0.00000  0.00000  1
 Rb  Rb1  1  0.75000  0.25000  0.50000  1
 Rb  Rb2  1  0.25000  0.75000  0.50000  1
 Rb  Rb3  1  0.50000  0.50000  0.00000  1
