CIF file written using JARVIS-Tools package.
data_TbRbS2
_symmetry_space_group_name_H-M  'R-3m'
_cell_length_a       7.98035
_cell_length_b       7.98035
_cell_length_c       7.98034
_cell_angle_alpha    29.5577
_cell_angle_beta     29.5577
_cell_angle_gamma    29.5577

_symmetry_Int_Tables_number  166
_chemical_formula_structural  TbRbS2
_chemical_formula_sum  TbRbS2
_cell_volume  109.47899782507092
_cell_formula_units_Z  1
loop_
  _symmetry_equiv_pos_site_id
 _symmetry_equiv_pos_as_xyz
 1  'x, y, z'
loop_
 _atom_site_type_symbol
 _atom_site_label
 _atom_site_symmetry_multiplicity
 _atom_site_fract_x
 _atom_site_fract_y
 _atom_site_fract_z
 _atom_site_fract_occupancy
 Rb  Rb1  1  0.00000  0.00000  0.00000  1
 S  S1  1  0.76838  0.76838  0.76838  1
 S  S2  1  0.23162  0.23162  0.23162  1
 Tb  Tb1  1  0.50000  0.50000  0.50000  1
