CIF file written using JARVIS-Tools package.
data_Cd2GaCuTe4
_symmetry_space_group_name_H-M  'I-42m'
_cell_length_a       7.8043
_cell_length_b       7.80429
_cell_length_c       7.8043
_cell_angle_alpha    132.378
_cell_angle_beta     132.378
_cell_angle_gamma    69.6326

_symmetry_Int_Tables_number  121
_chemical_formula_structural  Cd2GaCuTe4
_chemical_formula_sum  Cd2GaCuTe4
_cell_volume  254.42422614957684
_cell_formula_units_Z  1
loop_
  _symmetry_equiv_pos_site_id
 _symmetry_equiv_pos_as_xyz
 1  'x, y, z'
loop_
 _atom_site_type_symbol
 _atom_site_label
 _atom_site_symmetry_multiplicity
 _atom_site_fract_x
 _atom_site_fract_y
 _atom_site_fract_z
 _atom_site_fract_occupancy
 Cd  Cd1  1  0.75000  0.25000  0.50000  1
 Cd  Cd2  1  0.25000  0.75000  0.50000  1
 Cu  Cu1  1  0.00000  0.00000  0.00000  1
 Ga  Ga1  1  0.50000  0.50000  -0.00000  1
 Te  Te1  1  0.64202  0.64202  0.50968  1
 Te  Te2  1  0.35798  0.86766  0.00000  1
 Te  Te3  1  0.13234  0.13234  0.49032  1
 Te  Te4  1  0.86766  0.35798  0.00000  1
