CIF file written using JARVIS-Tools package.
data_SnH20C11O6
_symmetry_space_group_name_H-M  'P1'
_cell_length_a       4.88418
_cell_length_b       7.00245
_cell_length_c       9.78146
_cell_angle_alpha    70.9775
_cell_angle_beta     84.7705
_cell_angle_gamma    88.2777

_symmetry_Int_Tables_number  1
_chemical_formula_structural  SnH20C11O6
_chemical_formula_sum  SnH20CO6
_cell_volume  314.95287551483074
_cell_formula_units_Z  1
loop_
  _symmetry_equiv_pos_site_id
 _symmetry_equiv_pos_as_xyz
 1  'x, y, z'
loop_
 _atom_site_type_symbol
 _atom_site_label
 _atom_site_symmetry_multiplicity
 _atom_site_fract_x
 _atom_site_fract_y
 _atom_site_fract_z
 _atom_site_fract_occupancy
 C  C1  1  0.50066  0.45607  0.87369  1
 C  C2  1  0.44355  0.80628  0.11822  1
 C  C3  1  0.28278  0.91726  0.42223  1
 C  C4  1  0.28678  0.97648  0.15103  1
 C  C5  1  0.11570  0.90658  0.29921  1
 C  C6  1  0.29223  0.13337  0.42759  1
 C  C7  1  0.50770  0.39451  0.51074  1
 C  C8  1  0.75668  0.46985  0.56213  1
 C  C9  1  0.84968  0.33386  0.70713  1
 C  C10  1  0.63014  0.28042  0.83569  1
 C  C11  1  0.53260  0.18097  0.50023  1
 H  H1  1  0.02110  0.40715  0.73560  1
 H  H2  1  0.29317  0.24213  0.31618  1
 H  H3  1  0.93042  0.18924  0.69850  1
 H  H4  1  0.72867  0.18827  0.93350  1
 H  H5  1  0.46345  0.18736  0.82204  1
 H  H6  1  0.71310  0.62278  0.56855  1
 H  H7  1  0.49376  0.86165  0.40656  1
 H  H8  1  0.64334  0.41022  0.18393  1
 H  H9  1  0.19322  0.81553  0.52799  1
 H  H10  1  0.93436  0.00550  0.29213  1
 H  H11  1  0.03888  0.75305  0.31912  1
 H  H12  1  0.43121  0.09704  0.14493  1
 H  H13  1  0.32377  0.40166  0.58269  1
 H  H14  1  0.15000  0.03760  0.06292  1
 H  H15  1  0.46739  0.50076  0.40281  1
 H  H16  1  0.29658  0.84806  0.80911  1
 H  H17  1  0.09870  0.16339  0.48390  1
 H  H18  1  0.54484  0.06758  0.60925  1
 H  H19  1  0.93152  0.48710  0.47928  1
 H  H20  1  0.72558  0.16741  0.43641  1
 O  O1  1  0.64031  0.61312  0.86414  1
 O  O2  1  0.82894  0.37975  0.14885  1
 O  O3  1  0.31675  0.64535  0.12398  1
 O  O4  1  0.70406  0.82531  0.08607  1
 O  O5  1  0.24366  0.43970  0.91578  1
 O  O6  1  0.11220  0.88019  0.84475  1
 Sn  Sn1  1  0.97059  0.63101  0.99828  1
