CIF file written using JARVIS-Tools package.
data_Li3FeO4
_symmetry_space_group_name_H-M  'I4/mmm'
_cell_length_a       4.988
_cell_length_b       4.988
_cell_length_c       4.988
_cell_angle_alpha    133.226
_cell_angle_beta     133.226
_cell_angle_gamma    68.2989

_symmetry_Int_Tables_number  139
_chemical_formula_structural  Li3FeO4
_chemical_formula_sum  Li3FeO4
_cell_volume  64.72771708727237
_cell_formula_units_Z  1
loop_
  _symmetry_equiv_pos_site_id
 _symmetry_equiv_pos_as_xyz
 1  'x, y, z'
loop_
 _atom_site_type_symbol
 _atom_site_label
 _atom_site_symmetry_multiplicity
 _atom_site_fract_x
 _atom_site_fract_y
 _atom_site_fract_z
 _atom_site_fract_occupancy
 Fe  Fe1  1  0.00000  0.00000  0.00000  1
 Li  Li1  1  0.75000  0.25000  0.50000  1
 Li  Li2  1  0.25000  0.75000  0.50000  1
 Li  Li3  1  0.50000  0.50000  0.00000  1
 O  O1  1  -0.00000  0.50000  0.50000  1
 O  O2  1  0.21572  0.21572  0.00000  1
 O  O3  1  0.50000  0.00000  0.50000  1
 O  O4  1  0.78428  0.78428  -0.00000  1
