CIF file written using JARVIS-Tools package.
data_Ir4W
_symmetry_space_group_name_H-M  'R-3m'
_cell_length_a       11.435
_cell_length_b       11.435
_cell_length_c       11.435
_cell_angle_alpha    13.8692
_cell_angle_beta     13.8692
_cell_angle_gamma    13.8693

_symmetry_Int_Tables_number  166
_chemical_formula_structural  Ir4W
_chemical_formula_sum  Ir4W
_cell_volume  74.76765681012581
_cell_formula_units_Z  1
loop_
  _symmetry_equiv_pos_site_id
 _symmetry_equiv_pos_as_xyz
 1  'x, y, z'
loop_
 _atom_site_type_symbol
 _atom_site_label
 _atom_site_symmetry_multiplicity
 _atom_site_fract_x
 _atom_site_fract_y
 _atom_site_fract_z
 _atom_site_fract_occupancy
 Ir  Ir1  1  0.60054  0.60054  0.60054  1
 Ir  Ir2  1  0.19926  0.19926  0.19926  1
 Ir  Ir3  1  0.80074  0.80074  0.80074  1
 Ir  Ir4  1  0.39946  0.39946  0.39946  1
 W  W1  1  0.00000  0.00000  0.00000  1
