CIF file written using JARVIS-Tools package.
data_BaGa2H2
_symmetry_space_group_name_H-M  'P-3m1'
_cell_length_a       4.54972
_cell_length_b       4.54973
_cell_length_c       4.96328
_cell_angle_alpha    90
_cell_angle_beta     90
_cell_angle_gamma    120

_symmetry_Int_Tables_number  164
_chemical_formula_structural  BaGa2H2
_chemical_formula_sum  BaGa2H2
_cell_volume  88.97525364018416
_cell_formula_units_Z  1
loop_
  _symmetry_equiv_pos_site_id
 _symmetry_equiv_pos_as_xyz
 1  'x, y, z'
loop_
 _atom_site_type_symbol
 _atom_site_label
 _atom_site_symmetry_multiplicity
 _atom_site_fract_x
 _atom_site_fract_y
 _atom_site_fract_z
 _atom_site_fract_occupancy
 Ba  Ba1  1  0.00000  0.00000  0.00000  1
 Ga  Ga1  1  0.33333  0.66667  0.47159  1
 Ga  Ga2  1  0.66667  0.33333  0.52841  1
 H  H1  1  0.33333  0.66667  0.12816  1
 H  H2  1  0.66667  0.33333  0.87184  1
