CIF file written using JARVIS-Tools package.
data_ZrH10C7O4
_symmetry_space_group_name_H-M  'P1'
_cell_length_a       4.55084
_cell_length_b       4.96698
_cell_length_c       9.20708
_cell_angle_alpha    89.6276
_cell_angle_beta     101.088
_cell_angle_gamma    68.595

_symmetry_Int_Tables_number  1
_chemical_formula_structural  ZrH10C7O4
_chemical_formula_sum  ZrH0C7O4
_cell_volume  189.47300081896438
_cell_formula_units_Z  1
loop_
  _symmetry_equiv_pos_site_id
 _symmetry_equiv_pos_as_xyz
 1  'x, y, z'
loop_
 _atom_site_type_symbol
 _atom_site_label
 _atom_site_symmetry_multiplicity
 _atom_site_fract_x
 _atom_site_fract_y
 _atom_site_fract_z
 _atom_site_fract_occupancy
 C  C1  1  0.25985  0.24265  0.09867  1
 C  C2  1  0.82993  0.48449  0.25707  1
 C  C3  1  0.76838  0.68795  0.38251  1
 C  C4  1  0.12710  0.12159  -0.01238  1
 C  C5  1  0.05463  0.60584  0.51633  1
 C  C6  1  -0.02879  0.57452  0.66701  1
 C  C7  1  0.12889  0.46784  0.20147  1
 H  H1  1  0.52393  0.17017  0.11417  1
 H  H2  1  0.86029  0.26501  0.29870  1
 H  H3  1  0.08816  0.68433  0.14999  1
 H  H4  1  0.55318  0.68925  0.41988  1
 H  H5  1  0.61958  0.56138  0.16473  1
 H  H6  1  0.24171  0.39516  0.50473  1
 H  H7  1  0.16980  0.76645  0.52515  1
 H  H8  1  -0.28967  0.91159  0.33814  1
 H  H9  1  0.32602  0.42960  0.29834  1
 H  H10  1  0.33323  0.78937  0.85714  1
 O  O1  1  0.26130  0.52355  0.78005  1
 O  O2  1  0.38408  0.94836  0.91219  1
 O  O3  1  0.72925  0.82691  0.69419  1
 O  O4  1  0.87777  0.34012  0.67838  1
 Zr  Zr1  1  0.67306  0.16812  0.80805  1
