CIF file written using JARVIS-Tools package.
data_Mn3B4Mo3
_symmetry_space_group_name_H-M  'Amm2'
_cell_length_a       5.69136
_cell_length_b       5.69136
_cell_length_c       3.14273
_cell_angle_alpha    90
_cell_angle_beta     90
_cell_angle_gamma    90.799

_symmetry_Int_Tables_number  38
_chemical_formula_structural  Mn3B4Mo3
_chemical_formula_sum  Mn3B4Mo3
_cell_volume  101.78822224262963
_cell_formula_units_Z  1
loop_
  _symmetry_equiv_pos_site_id
 _symmetry_equiv_pos_as_xyz
 1  'x, y, z'
loop_
 _atom_site_type_symbol
 _atom_site_label
 _atom_site_symmetry_multiplicity
 _atom_site_fract_x
 _atom_site_fract_y
 _atom_site_fract_z
 _atom_site_fract_occupancy
 B  B1  1  0.11186  0.11186  0.00000  1
 B  B2  1  0.87556  0.87556  0.00000  1
 B  B3  1  0.62110  0.39945  0.00000  1
 B  B4  1  0.39945  0.62110  0.00000  1
 Mn  Mn1  1  0.50105  0.99542  0.00000  1
 Mn  Mn2  1  0.99542  0.50105  0.00000  1
 Mn  Mn3  1  0.67792  0.67792  0.50000  1
 Mo  Mo1  1  0.32507  0.32507  0.50000  1
 Mo  Mo2  1  0.17485  0.81771  0.50000  1
 Mo  Mo3  1  0.81771  0.17485  0.50000  1
