CIF file written using JARVIS-Tools package.
data_TlPdPb
_symmetry_space_group_name_H-M  'Fmmm'
_cell_length_a       6.9153
_cell_length_b       5.79434
_cell_length_c       5.65925
_cell_angle_alpha    74.2697
_cell_angle_beta     53.7575
_cell_angle_gamma    51.9728

_symmetry_Int_Tables_number  69
_chemical_formula_structural  TlPdPb
_chemical_formula_sum  Tl2Pd2Pb2
_cell_volume  142.51093247718939
_cell_formula_units_Z  2
loop_
  _symmetry_equiv_pos_site_id
 _symmetry_equiv_pos_as_xyz
 1  'x, y, z'
loop_
 _atom_site_type_symbol
 _atom_site_label
 _atom_site_symmetry_multiplicity
 _atom_site_fract_x
 _atom_site_fract_y
 _atom_site_fract_z
 _atom_site_fract_occupancy
 Pb  Pb1  1  0.16211  0.16211  0.83789  1
 Pb  Pb2  1  0.83789  0.83789  0.16211  1
 Pd  Pd1  1  0.75000  0.75000  0.75000  1
 Pd  Pd2  1  0.25000  0.25000  0.25000  1
 Tl  Tl1  1  0.33377  0.66623  0.33377  1
 Tl  Tl2  1  0.66623  0.33377  0.66623  1
