CIF file written using JARVIS-Tools package.
data_CeGa3Ni
_symmetry_space_group_name_H-M  'I-4m2'
_cell_length_a       5.96624
_cell_length_b       5.96623
_cell_length_c       5.96624
_cell_angle_alpha    139.064
_cell_angle_beta     139.064
_cell_angle_gamma    59.2773

_symmetry_Int_Tables_number  119
_chemical_formula_structural  CeGa3Ni
_chemical_formula_sum  CeGa3Ni
_cell_volume  90.28451718928063
_cell_formula_units_Z  1
loop_
  _symmetry_equiv_pos_site_id
 _symmetry_equiv_pos_as_xyz
 1  'x, y, z'
loop_
 _atom_site_type_symbol
 _atom_site_label
 _atom_site_symmetry_multiplicity
 _atom_site_fract_x
 _atom_site_fract_y
 _atom_site_fract_z
 _atom_site_fract_occupancy
 Ce  Ce1  1  0.00000  0.00000  0.00000  1
 Ga  Ga1  1  0.61980  0.61980  -0.00000  1
 Ga  Ga2  1  0.38020  0.38020  -0.00000  1
 Ga  Ga3  1  0.75000  0.25000  0.50000  1
 Ni  Ni1  1  0.25000  0.75000  0.50000  1
