CIF file written using JARVIS-Tools package.
data_Nd2CdSe4
_symmetry_space_group_name_H-M  'I-42d'
_cell_length_a       7.74856
_cell_length_b       7.74856
_cell_length_c       7.74857
_cell_angle_alpha    110.855
_cell_angle_beta     110.855
_cell_angle_gamma    106.738

_symmetry_Int_Tables_number  122
_chemical_formula_structural  Nd2CdSe4
_chemical_formula_sum  Nd4Cd2Se8
_cell_volume  357.52345775799085
_cell_formula_units_Z  2
loop_
  _symmetry_equiv_pos_site_id
 _symmetry_equiv_pos_as_xyz
 1  'x, y, z'
loop_
 _atom_site_type_symbol
 _atom_site_label
 _atom_site_symmetry_multiplicity
 _atom_site_fract_x
 _atom_site_fract_y
 _atom_site_fract_z
 _atom_site_fract_occupancy
 Cd  Cd1  1  0.62500  0.37500  0.25000  1
 Cd  Cd2  1  0.87500  0.12500  0.75000  1
 Nd  Nd1  1  0.11716  0.75000  0.86716  1
 Nd  Nd2  1  0.25000  0.61715  0.36716  1
 Nd  Nd3  1  0.38285  0.25000  0.63285  1
 Nd  Nd4  1  0.75000  0.88285  0.13284  1
 Se  Se1  1  0.00547  0.87932  0.51284  1
 Se  Se2  1  0.99263  0.36649  0.48716  1
 Se  Se3  1  0.49453  0.00737  0.87386  1
 Se  Se4  1  0.12068  0.13351  0.12614  1
 Se  Se5  1  0.37932  0.50547  0.01284  1
 Se  Se6  1  0.63351  0.62068  0.62615  1
 Se  Se7  1  0.50737  0.99453  0.37386  1
 Se  Se8  1  0.86649  0.49263  0.98716  1
