CIF file written using JARVIS-Tools package.
data_Na4HgP2
_symmetry_space_group_name_H-M  'R-3m'
_cell_length_a       9.03825
_cell_length_b       9.03825
_cell_length_c       9.03825
_cell_angle_alpha    31.9667
_cell_angle_beta     31.9668
_cell_angle_gamma    31.9668

_symmetry_Int_Tables_number  166
_chemical_formula_structural  Na4HgP2
_chemical_formula_sum  Na4HgP2
_cell_volume  183.8640466875743
_cell_formula_units_Z  1
loop_
  _symmetry_equiv_pos_site_id
 _symmetry_equiv_pos_as_xyz
 1  'x, y, z'
loop_
 _atom_site_type_symbol
 _atom_site_label
 _atom_site_symmetry_multiplicity
 _atom_site_fract_x
 _atom_site_fract_y
 _atom_site_fract_z
 _atom_site_fract_occupancy
 Hg  Hg1  1  0.00000  0.00000  0.00000  1
 Na  Na1  1  0.79291  0.79291  0.79291  1
 Na  Na2  1  0.59853  0.59853  0.59853  1
 Na  Na3  1  0.20709  0.20709  0.20709  1
 Na  Na4  1  0.40147  0.40147  0.40147  1
 P  P1  1  0.09419  0.09419  0.09419  1
 P  P2  1  0.90581  0.90581  0.90581  1
