CIF file written using JARVIS-Tools package.
data_TaNbV
_symmetry_space_group_name_H-M  'Fmm2'
_cell_length_a       7.0128
_cell_length_b       6.81056
_cell_length_c       2.84213
_cell_angle_alpha    82.1581
_cell_angle_beta     74.1705
_cell_angle_gamma    23.6712

_symmetry_Int_Tables_number  42
_chemical_formula_structural  TaNbV
_chemical_formula_sum  TaNbV
_cell_volume  50.122887988644685
_cell_formula_units_Z  1
loop_
  _symmetry_equiv_pos_site_id
 _symmetry_equiv_pos_as_xyz
 1  'x, y, z'
loop_
 _atom_site_type_symbol
 _atom_site_label
 _atom_site_symmetry_multiplicity
 _atom_site_fract_x
 _atom_site_fract_y
 _atom_site_fract_z
 _atom_site_fract_occupancy
 Nb  Nb1  1  0.00786  0.00786  0.99214  1
 Ta  Ta1  1  0.32543  0.32543  0.67457  1
 V  V1  1  0.66671  0.66671  0.33329  1
