CIF file written using JARVIS-Tools package.
data_ZnCu2SnSe2S2
_symmetry_space_group_name_H-M  'Fmm2'
_cell_length_a       6.88971
_cell_length_b       6.86219
_cell_length_c       5.5942
_cell_angle_alpha    66.254
_cell_angle_beta     65.7392
_cell_angle_gamma    48.0067

_symmetry_Int_Tables_number  42
_chemical_formula_structural  ZnCu2SnSe2S2
_chemical_formula_sum  ZnCu2SnSe2S2
_cell_volume  175.9957535393223
_cell_formula_units_Z  1
loop_
  _symmetry_equiv_pos_site_id
 _symmetry_equiv_pos_as_xyz
 1  'x, y, z'
loop_
 _atom_site_type_symbol
 _atom_site_label
 _atom_site_symmetry_multiplicity
 _atom_site_fract_x
 _atom_site_fract_y
 _atom_site_fract_z
 _atom_site_fract_occupancy
 Cu  Cu1  1  0.23885  0.23885  0.26115  1
 Cu  Cu2  1  0.73885  0.73885  0.76115  1
 S  S1  1  0.38018  0.89262  0.61982  1
 S  S2  1  0.89262  0.38018  0.10738  1
 Se  Se1  1  0.10475  0.63021  0.36979  1
 Se  Se2  1  0.63021  0.10475  0.89525  1
 Sn  Sn1  1  0.50361  0.50361  0.49639  1
 Zn  Zn1  1  0.01095  0.01095  0.98905  1
