CIF file written using JARVIS-Tools package.
data_BaSr2I6
_symmetry_space_group_name_H-M  'P4_2/mnm'
_cell_length_a       7.77334
_cell_length_b       7.77334
_cell_length_c       15.0774
_cell_angle_alpha    90
_cell_angle_beta     90
_cell_angle_gamma    90

_symmetry_Int_Tables_number  136
_chemical_formula_structural  BaSr2I6
_chemical_formula_sum  Ba2Sr4I2
_cell_volume  911.0489709267556
_cell_formula_units_Z  2
loop_
  _symmetry_equiv_pos_site_id
 _symmetry_equiv_pos_as_xyz
 1  'x, y, z'
loop_
 _atom_site_type_symbol
 _atom_site_label
 _atom_site_symmetry_multiplicity
 _atom_site_fract_x
 _atom_site_fract_y
 _atom_site_fract_z
 _atom_site_fract_occupancy
 Ba  Ba1  1  0.00000  0.00000  0.00000  1
 Ba  Ba2  1  0.50000  0.50000  0.50000  1
 I  I1  1  0.20275  0.79725  0.17389  1
 I  I2  1  0.20275  0.79725  0.82611  1
 I  I3  1  0.79725  0.20275  0.17389  1
 I  I4  1  0.30974  0.30974  0.00000  1
 I  I5  1  0.19026  0.80974  0.50000  1
 I  I6  1  0.29725  0.29725  0.67389  1
 I  I7  1  0.70275  0.70275  0.32611  1
 I  I8  1  0.70275  0.70275  0.67389  1
 I  I9  1  0.69026  0.69026  0.00000  1
 I  I10  1  0.80974  0.19026  0.50000  1
 I  I11  1  0.29725  0.29725  0.32611  1
 I  I12  1  0.79725  0.20275  0.82611  1
 Sr  Sr1  1  0.50000  0.50000  0.83305  1
 Sr  Sr2  1  0.50000  0.50000  0.16695  1
 Sr  Sr3  1  0.00000  0.00000  0.66695  1
 Sr  Sr4  1  0.00000  0.00000  0.33305  1
