CIF file written using JARVIS-Tools package.
data_BaTi2O5
_symmetry_space_group_name_H-M  'C2/m'
_cell_length_a       3.91657
_cell_length_b       8.74314
_cell_length_c       9.57758
_cell_angle_alpha    102.69
_cell_angle_beta     90
_cell_angle_gamma    102.943

_symmetry_Int_Tables_number  12
_chemical_formula_structural  BaTi2O5
_chemical_formula_sum  Ba3Ti6O5
_cell_volume  311.4085246475975
_cell_formula_units_Z  3
loop_
  _symmetry_equiv_pos_site_id
 _symmetry_equiv_pos_as_xyz
 1  'x, y, z'
loop_
 _atom_site_type_symbol
 _atom_site_label
 _atom_site_symmetry_multiplicity
 _atom_site_fract_x
 _atom_site_fract_y
 _atom_site_fract_z
 _atom_site_fract_occupancy
 Ba  Ba1  1  0.36925  0.73849  0.01668  1
 Ba  Ba2  1  0.50000  -0.00000  0.50000  1
 Ba  Ba3  1  0.63075  0.26151  0.98332  1
 O  O1  1  0.05828  0.11655  0.71225  1
 O  O2  1  0.94172  0.88345  0.28775  1
 O  O3  1  0.21168  0.42335  0.87816  1
 O  O4  1  0.78832  0.57665  0.12184  1
 O  O5  1  0.26502  0.53003  0.60054  1
 O  O6  1  0.73498  0.46997  0.39946  1
 O  O7  1  0.32486  0.64973  0.33880  1
 O  O8  1  0.67514  0.35027  0.66120  1
 O  O9  1  0.53474  0.06947  0.20880  1
 O  O10  1  0.89237  0.78474  0.57424  1
 O  O11  1  0.46526  0.93053  0.79120  1
 O  O12  1  0.15257  0.30514  0.18596  1
 O  O13  1  0.84743  0.69486  0.81404  1
 O  O14  1  0.00000  0.00000  0.00000  1
 O  O15  1  0.10763  0.21526  0.42576  1
 Ti  Ti1  1  0.16702  0.33405  0.69594  1
 Ti  Ti2  1  0.83298  0.66595  0.30406  1
 Ti  Ti3  1  0.79410  0.58820  0.62668  1
 Ti  Ti4  1  0.20590  0.41180  0.37332  1
 Ti  Ti5  1  0.96142  0.92284  0.79029  1
 Ti  Ti6  1  0.03858  0.07716  0.20971  1
