CIF file written using JARVIS-Tools package.
data_CoGeAs2
_symmetry_space_group_name_H-M  'I-42d'
_cell_length_a       6.78936
_cell_length_b       6.78937
_cell_length_c       6.78937
_cell_angle_alpha    132.151
_cell_angle_beta     132.151
_cell_angle_gamma    69.9903

_symmetry_Int_Tables_number  122
_chemical_formula_structural  CoGeAs2
_chemical_formula_sum  Co2Ge2As4
_cell_volume  168.64964029920048
_cell_formula_units_Z  2
loop_
  _symmetry_equiv_pos_site_id
 _symmetry_equiv_pos_as_xyz
 1  'x, y, z'
loop_
 _atom_site_type_symbol
 _atom_site_label
 _atom_site_symmetry_multiplicity
 _atom_site_fract_x
 _atom_site_fract_y
 _atom_site_fract_z
 _atom_site_fract_occupancy
 As  As1  1  0.87500  0.41764  0.04264  1
 As  As2  1  0.16764  0.12500  0.54264  1
 As  As3  1  0.37500  0.83236  0.95736  1
 As  As4  1  0.58236  0.62500  0.45736  1
 Co  Co1  1  0.50000  0.50000  -0.00000  1
 Co  Co2  1  0.25000  0.75000  0.50000  1
 Ge  Ge1  1  0.00000  0.00000  0.00000  1
 Ge  Ge2  1  0.75000  0.25000  0.50000  1
