CIF file written using JARVIS-Tools package.
data_LiNiCO4
_symmetry_space_group_name_H-M  'P2_1/c'
_cell_length_a       3.05769
_cell_length_b       9.16482
_cell_length_c       9.42365
_cell_angle_alpha    90
_cell_angle_beta     106.494
_cell_angle_gamma    90

_symmetry_Int_Tables_number  14
_chemical_formula_structural  LiNiCO4
_chemical_formula_sum  Li4Ni4C4O6
_cell_volume  253.21296510803842
_cell_formula_units_Z  4
loop_
  _symmetry_equiv_pos_site_id
 _symmetry_equiv_pos_as_xyz
 1  'x, y, z'
loop_
 _atom_site_type_symbol
 _atom_site_label
 _atom_site_symmetry_multiplicity
 _atom_site_fract_x
 _atom_site_fract_y
 _atom_site_fract_z
 _atom_site_fract_occupancy
 C  C1  1  0.93415  0.16113  0.63370  1
 C  C2  1  0.93415  0.33887  0.13370  1
 C  C3  1  0.06585  0.83887  0.36630  1
 C  C4  1  0.06585  0.66113  0.86630  1
 Li  Li1  1  0.40808  0.60211  0.18437  1
 Li  Li2  1  0.59192  0.39789  0.81563  1
 Li  Li3  1  0.40808  0.89789  0.68437  1
 Li  Li4  1  0.59192  0.10211  0.31563  1
 Ni  Ni1  1  0.21711  0.38113  0.44044  1
 Ni  Ni2  1  0.78289  0.61887  0.55956  1
 Ni  Ni3  1  0.21711  0.11887  0.94044  1
 Ni  Ni4  1  0.78289  0.88113  0.05956  1
 O  O1  1  0.14740  0.97265  0.36935  1
 O  O2  1  0.84429  0.26521  0.00737  1
 O  O3  1  0.62738  0.99323  0.88933  1
 O  O4  1  0.85260  0.47265  0.13065  1
 O  O5  1  0.90339  0.76679  0.24223  1
 O  O6  1  0.09661  0.26679  0.25777  1
 O  O7  1  0.37262  0.00677  0.11067  1
 O  O8  1  0.09661  0.23321  0.75777  1
 O  O9  1  0.84429  0.23479  0.50737  1
 O  O10  1  0.37262  0.49323  0.61067  1
 O  O11  1  0.85260  0.02735  0.63065  1
 O  O12  1  0.90339  0.73321  0.74223  1
 O  O13  1  0.62738  0.50677  0.38933  1
 O  O14  1  0.14740  0.52735  0.86935  1
 O  O15  1  0.15571  0.76521  0.49263  1
 O  O16  1  0.15571  0.73479  0.99263  1
