CIF file written using JARVIS-Tools package.
data_Sm2Ga3Ni
_symmetry_space_group_name_H-M  'Cm'
_cell_length_a       5.61405
_cell_length_b       5.61405
_cell_length_c       7.27358
_cell_angle_alpha    50.7527
_cell_angle_beta     50.7528
_cell_angle_gamma    46.1714

_symmetry_Int_Tables_number  8
_chemical_formula_structural  Sm2Ga3Ni
_chemical_formula_sum  Sm2Ga3Ni
_cell_volume  120.05913421070812
_cell_formula_units_Z  1
loop_
  _symmetry_equiv_pos_site_id
 _symmetry_equiv_pos_as_xyz
 1  'x, y, z'
loop_
 _atom_site_type_symbol
 _atom_site_label
 _atom_site_symmetry_multiplicity
 _atom_site_fract_x
 _atom_site_fract_y
 _atom_site_fract_z
 _atom_site_fract_occupancy
 Ga  Ga1  1  0.85238  0.85238  0.68608  1
 Ga  Ga2  1  0.82365  0.82365  0.12142  1
 Ga  Ga3  1  0.16287  0.16287  0.90701  1
 Ni  Ni1  1  0.16887  0.16887  0.27713  1
 Sm  Sm1  1  0.54002  0.54002  0.70947  1
 Sm  Sm2  1  0.45221  0.45221  0.29889  1
