CIF file written using JARVIS-Tools package.
data_NaO2
_symmetry_space_group_name_H-M  'P4_2/mnm'
_cell_length_a       4.14688
_cell_length_b       4.14688
_cell_length_c       4.63155
_cell_angle_alpha    90
_cell_angle_beta     90
_cell_angle_gamma    90

_symmetry_Int_Tables_number  136
_chemical_formula_structural  NaO2
_chemical_formula_sum  Na2O4
_cell_volume  79.64717330667654
_cell_formula_units_Z  2
loop_
  _symmetry_equiv_pos_site_id
 _symmetry_equiv_pos_as_xyz
 1  'x, y, z'
loop_
 _atom_site_type_symbol
 _atom_site_label
 _atom_site_symmetry_multiplicity
 _atom_site_fract_x
 _atom_site_fract_y
 _atom_site_fract_z
 _atom_site_fract_occupancy
 Na  Na1  1  0.50000  0.50000  0.50000  1
 Na  Na2  1  0.00000  0.00000  0.00000  1
 O  O1  1  0.11571  0.88429  0.50000  1
 O  O2  1  0.88429  0.11571  0.50000  1
 O  O3  1  0.38429  0.38429  0.00000  1
 O  O4  1  0.61571  0.61571  0.00000  1
