CIF file written using JARVIS-Tools package.
data_LiCo2CuO6
_symmetry_space_group_name_H-M  'C2/m'
_cell_length_a       6.26828
_cell_length_b       6.26828
_cell_length_c       5.85908
_cell_angle_alpha    80.7054
_cell_angle_beta     80.7054
_cell_angle_gamma    25.831

_symmetry_Int_Tables_number  12
_chemical_formula_structural  LiCo2CuO6
_chemical_formula_sum  LiCo2CuO6
_cell_volume  98.92022475987413
_cell_formula_units_Z  1
loop_
  _symmetry_equiv_pos_site_id
 _symmetry_equiv_pos_as_xyz
 1  'x, y, z'
loop_
 _atom_site_type_symbol
 _atom_site_label
 _atom_site_symmetry_multiplicity
 _atom_site_fract_x
 _atom_site_fract_y
 _atom_site_fract_z
 _atom_site_fract_occupancy
 Co  Co1  1  0.68225  0.68225  0.18197  1
 Co  Co2  1  0.31775  0.31775  0.81803  1
 Cu  Cu1  1  0.00000  0.00000  0.50000  1
 Li  Li1  1  0.00000  0.00000  0.00000  1
 O  O1  1  0.19275  0.19275  0.37278  1
 O  O2  1  0.47446  0.47446  0.72749  1
 O  O3  1  0.83227  0.83227  0.03440  1
 O  O4  1  0.52554  0.52554  0.27251  1
 O  O5  1  0.80725  0.80725  0.62722  1
 O  O6  1  0.16773  0.16773  0.96560  1
