CIF file written using JARVIS-Tools package.
data_KLiS
_symmetry_space_group_name_H-M  'P4/nmm'
_cell_length_a       4.28925
_cell_length_b       4.28925
_cell_length_c       6.92919
_cell_angle_alpha    90
_cell_angle_beta     90
_cell_angle_gamma    90

_symmetry_Int_Tables_number  129
_chemical_formula_structural  KLiS
_chemical_formula_sum  K2Li2S2
_cell_volume  127.48093335303236
_cell_formula_units_Z  2
loop_
  _symmetry_equiv_pos_site_id
 _symmetry_equiv_pos_as_xyz
 1  'x, y, z'
loop_
 _atom_site_type_symbol
 _atom_site_label
 _atom_site_symmetry_multiplicity
 _atom_site_fract_x
 _atom_site_fract_y
 _atom_site_fract_z
 _atom_site_fract_occupancy
 K  K1  1  0.00000  0.50000  0.65766  1
 K  K2  1  0.50000  0.00000  0.34234  1
 Li  Li1  1  0.00000  0.00000  0.00000  1
 Li  Li2  1  0.50000  0.50000  0.00000  1
 S  S1  1  0.00000  0.50000  0.18846  1
 S  S2  1  0.50000  0.00000  0.81154  1
