CIF file written using JARVIS-Tools package.
data_Be2Co
_symmetry_space_group_name_H-M  'I4/mmm'
_cell_length_a       4.10047
_cell_length_b       4.09699
_cell_length_c       2.61904
_cell_angle_alpha    71.4399
_cell_angle_beta     71.2956
_cell_angle_gamma    37.2645

_symmetry_Int_Tables_number  139
_chemical_formula_structural  Be2Co
_chemical_formula_sum  Be2Co
_cell_volume  25.080858306275733
_cell_formula_units_Z  1
loop_
  _symmetry_equiv_pos_site_id
 _symmetry_equiv_pos_as_xyz
 1  'x, y, z'
loop_
 _atom_site_type_symbol
 _atom_site_label
 _atom_site_symmetry_multiplicity
 _atom_site_fract_x
 _atom_site_fract_y
 _atom_site_fract_z
 _atom_site_fract_occupancy
 Be  Be1  1  0.33619  0.33619  0.66381  1
 Be  Be2  1  0.66381  0.66381  0.33619  1
 Co  Co1  1  0.00000  0.00000  0.00000  1
