CIF file written using JARVIS-Tools package.
data_CoNiP2S6
_symmetry_space_group_name_H-M  'C2'
_cell_length_a       5.79761
_cell_length_b       5.79762
_cell_length_c       6.43916
_cell_angle_alpha    81.3398
_cell_angle_beta     81.3397
_cell_angle_gamma    119.976

_symmetry_Int_Tables_number  5
_chemical_formula_structural  CoNiP2S6
_chemical_formula_sum  CoNiP2S6
_cell_volume  178.78586204725372
_cell_formula_units_Z  1
loop_
  _symmetry_equiv_pos_site_id
 _symmetry_equiv_pos_as_xyz
 1  'x, y, z'
loop_
 _atom_site_type_symbol
 _atom_site_label
 _atom_site_symmetry_multiplicity
 _atom_site_fract_x
 _atom_site_fract_y
 _atom_site_fract_z
 _atom_site_fract_occupancy
 Co  Co1  1  0.66685  0.33315  -0.00000  1
 Ni  Ni1  1  0.33265  0.66735  0.00000  1
 P  P1  1  0.06103  0.06103  0.82055  1
 P  P2  1  0.93897  0.93897  0.17945  1
 S  S1  1  0.06964  0.42789  0.76380  1
 S  S2  1  0.43798  0.08923  0.76483  1
 S  S3  1  0.91077  0.56202  0.23517  1
 S  S4  1  0.57211  0.93036  0.23620  1
 S  S5  1  0.73053  0.72052  0.76424  1
 S  S6  1  0.27948  0.26947  0.23576  1
