CIF file written using JARVIS-Tools package.
data_H2C3S2O
_symmetry_space_group_name_H-M  'P1'
_cell_length_a       4.57763
_cell_length_b       4.40207
_cell_length_c       11.3639
_cell_angle_alpha    83.0327
_cell_angle_beta     86.8281
_cell_angle_gamma    83.6992

_symmetry_Int_Tables_number  1
_chemical_formula_structural  H2C3S2O
_chemical_formula_sum  H4C6S4O2
_cell_volume  225.7243007649514
_cell_formula_units_Z  2
loop_
  _symmetry_equiv_pos_site_id
 _symmetry_equiv_pos_as_xyz
 1  'x, y, z'
loop_
 _atom_site_type_symbol
 _atom_site_label
 _atom_site_symmetry_multiplicity
 _atom_site_fract_x
 _atom_site_fract_y
 _atom_site_fract_z
 _atom_site_fract_occupancy
 C  C1  1  0.15216  0.65331  0.78481  1
 C  C2  1  0.65217  0.65331  0.28480  1
 C  C3  1  0.66290  0.16776  0.18902  1
 C  C4  1  0.16289  0.16775  0.68902  1
 C  C5  1  0.29516  0.33140  0.77825  1
 C  C6  1  0.79518  0.33141  0.27825  1
 H  H1  1  0.28010  0.19737  0.86594  1
 H  H2  1  0.78011  0.19738  0.36594  1
 H  H3  1  0.53154  0.33576  0.75315  1
 H  H4  1  0.03155  0.33577  0.25314  1
 O  O1  1  0.27233  0.85113  0.69949  1
 O  O2  1  0.77234  0.85114  0.19949  1
 S  S1  1  0.45543  0.31063  0.08229  1
 S  S2  1  0.95542  0.31063  0.58229  1
 S  S3  1  0.88857  0.75028  0.88035  1
 S  S4  1  0.38858  0.75029  0.38035  1
