CIF file written using JARVIS-Tools package.
data_YbY2Se4
_symmetry_space_group_name_H-M  'P2/m'
_cell_length_a       4.1134
_cell_length_b       7.02531
_cell_length_c       7.11131
_cell_angle_alpha    71.7137
_cell_angle_beta     90
_cell_angle_gamma    90

_symmetry_Int_Tables_number  10
_chemical_formula_structural  YbY2Se4
_chemical_formula_sum  YbY2Se4
_cell_volume  195.12420691368254
_cell_formula_units_Z  1
loop_
  _symmetry_equiv_pos_site_id
 _symmetry_equiv_pos_as_xyz
 1  'x, y, z'
loop_
 _atom_site_type_symbol
 _atom_site_label
 _atom_site_symmetry_multiplicity
 _atom_site_fract_x
 _atom_site_fract_y
 _atom_site_fract_z
 _atom_site_fract_occupancy
 Se  Se1  1  0.50000  0.75680  0.24699  1
 Se  Se2  1  0.00000  0.25618  0.23759  1
 Se  Se3  1  0.50000  0.24320  0.75301  1
 Se  Se4  1  0.00000  0.74382  0.76241  1
 Y  Y1  1  0.00000  0.00000  0.00000  1
 Y  Y2  1  0.50000  0.50000  0.00000  1
 Yb  Yb1  1  0.00000  0.50000  0.50000  1
