CIF file written using JARVIS-Tools package.
data_Ba2Cd
_symmetry_space_group_name_H-M  'I4/mmm'
_cell_length_a       4.25961
_cell_length_b       4.25961
_cell_length_c       8.07161
_cell_angle_alpha    105.299
_cell_angle_beta     105.299
_cell_angle_gamma    89.9999

_symmetry_Int_Tables_number  139
_chemical_formula_structural  Ba2Cd
_chemical_formula_sum  Ba2Cd
_cell_volume  135.87472070310162
_cell_formula_units_Z  1
loop_
  _symmetry_equiv_pos_site_id
 _symmetry_equiv_pos_as_xyz
 1  'x, y, z'
loop_
 _atom_site_type_symbol
 _atom_site_label
 _atom_site_symmetry_multiplicity
 _atom_site_fract_x
 _atom_site_fract_y
 _atom_site_fract_z
 _atom_site_fract_occupancy
 Ba  Ba1  1  0.63260  0.63260  0.26519  1
 Ba  Ba2  1  0.36740  0.36740  0.73481  1
 Cd  Cd1  1  0.00000  0.00000  0.00000  1
