CIF file written using JARVIS-Tools package.
data_AcTh3
_symmetry_space_group_name_H-M  'P6_3/mmc'
_cell_length_a       7.32846
_cell_length_b       7.32847
_cell_length_c       6.04893
_cell_angle_alpha    90
_cell_angle_beta     90
_cell_angle_gamma    120

_symmetry_Int_Tables_number  194
_chemical_formula_structural  AcTh3
_chemical_formula_sum  Ac2Th6
_cell_volume  281.34231108103467
_cell_formula_units_Z  2
loop_
  _symmetry_equiv_pos_site_id
 _symmetry_equiv_pos_as_xyz
 1  'x, y, z'
loop_
 _atom_site_type_symbol
 _atom_site_label
 _atom_site_symmetry_multiplicity
 _atom_site_fract_x
 _atom_site_fract_y
 _atom_site_fract_z
 _atom_site_fract_occupancy
 Ac  Ac1  1  0.33333  0.66667  0.75000  1
 Ac  Ac2  1  0.66667  0.33333  0.25000  1
 Th  Th1  1  0.16104  0.32208  0.25000  1
 Th  Th2  1  0.67792  0.83896  0.25000  1
 Th  Th3  1  0.16104  0.83896  0.25000  1
 Th  Th4  1  0.83896  0.67792  0.75000  1
 Th  Th5  1  0.32208  0.16104  0.75000  1
 Th  Th6  1  0.83896  0.16104  0.75000  1
