CIF file written using JARVIS-Tools package.
data_ZrMnO3
_symmetry_space_group_name_H-M  'R-3'
_cell_length_a       5.45136
_cell_length_b       5.45141
_cell_length_c       5.72337
_cell_angle_alpha    89.9999
_cell_angle_beta     61.5598
_cell_angle_gamma    59.9998

_symmetry_Int_Tables_number  148
_chemical_formula_structural  ZrMnO3
_chemical_formula_sum  Zr2Mn2O6
_cell_volume  123.02602493048056
_cell_formula_units_Z  2
loop_
  _symmetry_equiv_pos_site_id
 _symmetry_equiv_pos_as_xyz
 1  'x, y, z'
loop_
 _atom_site_type_symbol
 _atom_site_label
 _atom_site_symmetry_multiplicity
 _atom_site_fract_x
 _atom_site_fract_y
 _atom_site_fract_z
 _atom_site_fract_occupancy
 Mn  Mn1  1  0.72432  0.63785  0.91353  1
 Mn  Mn2  1  0.27568  0.36215  0.08646  1
 O  O1  1  0.50538  0.44693  0.25797  1
 O  O2  1  0.78973  0.76336  0.25797  1
 O  O3  1  0.18896  0.04768  0.25796  1
 O  O4  1  0.81104  0.95232  0.74204  1
 O  O5  1  0.21027  0.23664  0.74203  1
 O  O6  1  0.49462  0.55308  0.74203  1
 Zr  Zr1  1  0.71028  0.14486  0.43458  1
 Zr  Zr2  1  0.28972  0.85514  0.56542  1
