CIF file written using JARVIS-Tools package.
data_LiFeF3
_symmetry_space_group_name_H-M  'Pmma'
_cell_length_a       3.12016
_cell_length_b       4.8854
_cell_length_c       7.33878
_cell_angle_alpha    89.9988
_cell_angle_beta     90.0019
_cell_angle_gamma    90.008

_symmetry_Int_Tables_number  51
_chemical_formula_structural  LiFeF3
_chemical_formula_sum  Li2Fe2F6
_cell_volume  111.8667685092763
_cell_formula_units_Z  2
loop_
  _symmetry_equiv_pos_site_id
 _symmetry_equiv_pos_as_xyz
 1  'x, y, z'
loop_
 _atom_site_type_symbol
 _atom_site_label
 _atom_site_symmetry_multiplicity
 _atom_site_fract_x
 _atom_site_fract_y
 _atom_site_fract_z
 _atom_site_fract_occupancy
 F  F1  1  0.50078  0.24944  0.43043  1
 F  F2  1  0.50080  0.25055  0.07254  1
 F  F3  1  0.00074  0.23061  0.75161  1
 F  F4  1  0.50060  0.74538  0.57257  1
 F  F5  1  0.50060  0.74647  0.93045  1
 F  F6  1  0.00064  0.76530  0.25164  1
 Fe  Fe1  1  0.00070  0.99820  0.00183  1
 Fe  Fe2  1  0.00069  0.99768  0.50183  1
 Li  Li1  1  0.50081  0.46576  0.75196  1
 Li  Li2  1  0.50057  0.53013  0.25193  1
