CIF file written using JARVIS-Tools package.
data_SeO2
_symmetry_space_group_name_H-M  'P4_2/mbc'
_cell_length_a       8.35038
_cell_length_b       8.35038
_cell_length_c       5.14691
_cell_angle_alpha    90
_cell_angle_beta     90
_cell_angle_gamma    90

_symmetry_Int_Tables_number  135
_chemical_formula_structural  SeO2
_chemical_formula_sum  Se8O6
_cell_volume  358.8882892730842
_cell_formula_units_Z  8
loop_
  _symmetry_equiv_pos_site_id
 _symmetry_equiv_pos_as_xyz
 1  'x, y, z'
loop_
 _atom_site_type_symbol
 _atom_site_label
 _atom_site_symmetry_multiplicity
 _atom_site_fract_x
 _atom_site_fract_y
 _atom_site_fract_z
 _atom_site_fract_occupancy
 O  O1  1  0.86682  0.36682  0.75000  1
 O  O2  1  0.56270  0.32670  0.50000  1
 O  O3  1  0.43730  0.67330  0.50000  1
 O  O4  1  0.67330  0.56270  0.00000  1
 O  O5  1  0.13318  0.63318  0.25000  1
 O  O6  1  0.82670  0.06270  0.00000  1
 O  O7  1  0.06270  0.17330  0.50000  1
 O  O8  1  0.32670  0.43730  0.00000  1
 O  O9  1  0.17330  0.93730  0.00000  1
 O  O10  1  0.36682  0.13318  0.25000  1
 O  O11  1  0.13318  0.63318  0.75000  1
 O  O12  1  0.36682  0.13318  0.75000  1
 O  O13  1  0.63318  0.86682  0.25000  1
 O  O14  1  0.63318  0.86682  0.75000  1
 O  O15  1  0.86682  0.36682  0.25000  1
 O  O16  1  0.93730  0.82670  0.50000  1
 Se  Se1  1  0.20987  0.13201  0.00000  1
 Se  Se2  1  0.13201  0.79013  0.50000  1
 Se  Se3  1  0.86799  0.20987  0.50000  1
 Se  Se4  1  0.79013  0.86799  0.00000  1
 Se  Se5  1  0.29013  0.63201  0.00000  1
 Se  Se6  1  0.70987  0.36799  0.00000  1
 Se  Se7  1  0.63201  0.70987  0.50000  1
 Se  Se8  1  0.36799  0.29013  0.50000  1
