CIF file written using JARVIS-Tools package.
data_RhI3
_symmetry_space_group_name_H-M  'C2/m'
_cell_length_a       6.85131
_cell_length_b       6.8513
_cell_length_c       6.84484
_cell_angle_alpha    81.1656
_cell_angle_beta     81.1656
_cell_angle_gamma    119.999

_symmetry_Int_Tables_number  12
_chemical_formula_structural  RhI3
_chemical_formula_sum  Rh2I6
_cell_volume  264.80547985511936
_cell_formula_units_Z  2
loop_
  _symmetry_equiv_pos_site_id
 _symmetry_equiv_pos_as_xyz
 1  'x, y, z'
loop_
 _atom_site_type_symbol
 _atom_site_label
 _atom_site_symmetry_multiplicity
 _atom_site_fract_x
 _atom_site_fract_y
 _atom_site_fract_z
 _atom_site_fract_occupancy
 I  I1  1  0.42910  0.07751  0.23262  1
 I  I2  1  0.57090  0.92249  0.76738  1
 I  I3  1  0.92249  0.57090  0.76738  1
 I  I4  1  0.07751  0.42910  0.23262  1
 I  I5  1  0.77993  0.77993  0.23557  1
 I  I6  1  0.22007  0.22007  0.76443  1
 Rh  Rh1  1  0.83341  0.16659  -0.00000  1
 Rh  Rh2  1  0.16659  0.83341  -0.00000  1
