CIF file written using JARVIS-Tools package.
data_CoAgO3
_symmetry_space_group_name_H-M  'C2/c'
_cell_length_a       6.95286
_cell_length_b       6.95286
_cell_length_c       4.94119
_cell_angle_alpha    85.7723
_cell_angle_beta     94.2278
_cell_angle_gamma    108.836

_symmetry_Int_Tables_number  15
_chemical_formula_structural  CoAgO3
_chemical_formula_sum  Co4Ag4O2
_cell_volume  225.14580306407603
_cell_formula_units_Z  4
loop_
  _symmetry_equiv_pos_site_id
 _symmetry_equiv_pos_as_xyz
 1  'x, y, z'
loop_
 _atom_site_type_symbol
 _atom_site_label
 _atom_site_symmetry_multiplicity
 _atom_site_fract_x
 _atom_site_fract_y
 _atom_site_fract_z
 _atom_site_fract_occupancy
 Ag  Ag1  1  0.14398  0.60986  0.72694  1
 Ag  Ag2  1  0.39014  0.85602  0.22694  1
 Ag  Ag3  1  0.60986  0.14398  0.77306  1
 Ag  Ag4  1  0.85602  0.39014  0.27306  1
 Co  Co1  1  0.09249  0.09249  0.75000  1
 Co  Co2  1  0.27275  0.27275  0.25000  1
 Co  Co3  1  0.72725  0.72725  0.75000  1
 Co  Co4  1  0.90751  0.90751  0.25000  1
 O  O1  1  -0.00852  0.82391  0.59708  1
 O  O2  1  0.86878  0.67300  0.07475  1
 O  O3  1  0.17609  0.00852  0.09708  1
 O  O4  1  0.40189  0.50408  0.45839  1
 O  O5  1  0.13122  0.32700  0.92525  1
 O  O6  1  0.59811  0.49592  0.54161  1
 O  O7  1  0.50408  0.40189  0.04161  1
 O  O8  1  0.67300  0.86878  0.42525  1
 O  O9  1  0.32700  0.13122  0.57475  1
 O  O10  1  0.82391  -0.00852  0.90292  1
 O  O11  1  0.49592  0.59811  0.95839  1
 O  O12  1  0.00852  0.17609  0.40292  1
