CIF file written using JARVIS-Tools package.
data_BiPbBrO2
_symmetry_space_group_name_H-M  'I4mm'
_cell_length_a       7.11164
_cell_length_b       7.11164
_cell_length_c       7.11165
_cell_angle_alpha    147.323
_cell_angle_beta     147.323
_cell_angle_gamma    46.8859

_symmetry_Int_Tables_number  107
_chemical_formula_structural  BiPbBrO2
_chemical_formula_sum  BiPbBrO2
_cell_volume  104.45580577571877
_cell_formula_units_Z  1
loop_
  _symmetry_equiv_pos_site_id
 _symmetry_equiv_pos_as_xyz
 1  'x, y, z'
loop_
 _atom_site_type_symbol
 _atom_site_label
 _atom_site_symmetry_multiplicity
 _atom_site_fract_x
 _atom_site_fract_y
 _atom_site_fract_z
 _atom_site_fract_occupancy
 Bi  Bi1  1  0.34210  0.34210  -0.00000  1
 Br  Br1  1  0.99124  0.99124  -0.00000  1
 O  O1  1  0.75680  0.25680  0.50000  1
 O  O2  1  0.25680  0.75680  0.50000  1
 Pb  Pb1  1  0.65306  0.65306  0.00000  1
