CIF file written using JARVIS-Tools package.
data_Sr3FeN3
_symmetry_space_group_name_H-M  'P6_3/m'
_cell_length_a       7.59316
_cell_length_b       7.59316
_cell_length_c       5.29181
_cell_angle_alpha    90
_cell_angle_beta     90
_cell_angle_gamma    120

_symmetry_Int_Tables_number  176
_chemical_formula_structural  Sr3FeN3
_chemical_formula_sum  Sr6Fe2N6
_cell_volume  264.2286564753203
_cell_formula_units_Z  2
loop_
  _symmetry_equiv_pos_site_id
 _symmetry_equiv_pos_as_xyz
 1  'x, y, z'
loop_
 _atom_site_type_symbol
 _atom_site_label
 _atom_site_symmetry_multiplicity
 _atom_site_fract_x
 _atom_site_fract_y
 _atom_site_fract_z
 _atom_site_fract_occupancy
 Fe  Fe1  1  0.33333  0.66667  0.75000  1
 Fe  Fe2  1  0.66667  0.33333  0.25000  1
 N  N1  1  0.68827  0.57325  0.25000  1
 N  N2  1  0.57325  0.88498  0.75000  1
 N  N3  1  0.11502  0.68827  0.75000  1
 N  N4  1  0.88498  0.31173  0.25000  1
 N  N5  1  0.42675  0.11502  0.25000  1
 N  N6  1  0.31173  0.42675  0.75000  1
 Sr  Sr1  1  0.72716  0.63952  0.75000  1
 Sr  Sr2  1  0.63952  0.91236  0.25000  1
 Sr  Sr3  1  0.08764  0.72716  0.25000  1
 Sr  Sr4  1  0.91236  0.27284  0.75000  1
 Sr  Sr5  1  0.36048  0.08764  0.75000  1
 Sr  Sr6  1  0.27284  0.36048  0.25000  1
