CIF file written using JARVIS-Tools package.
data_Li2Co3NiO8
_symmetry_space_group_name_H-M  'C2/m'
_cell_length_a       5.63551
_cell_length_b       5.66757
_cell_length_c       5.75272
_cell_angle_alpha    60.4885
_cell_angle_beta     90.0984
_cell_angle_gamma    120.188

_symmetry_Int_Tables_number  12
_chemical_formula_structural  Li2Co3NiO8
_chemical_formula_sum  Li2Co3NiO8
_cell_volume  130.61549397962725
_cell_formula_units_Z  1
loop_
  _symmetry_equiv_pos_site_id
 _symmetry_equiv_pos_as_xyz
 1  'x, y, z'
loop_
 _atom_site_type_symbol
 _atom_site_label
 _atom_site_symmetry_multiplicity
 _atom_site_fract_x
 _atom_site_fract_y
 _atom_site_fract_z
 _atom_site_fract_occupancy
 Co  Co1  1  -0.00000  0.50000  0.00000  1
 Co  Co2  1  0.50000  0.00000  0.00000  1
 Co  Co3  1  0.50000  0.50000  0.00000  1
 Li  Li1  1  0.50000  0.00000  0.50000  1
 Li  Li2  1  0.50000  0.50000  0.50000  1
 Ni  Ni1  1  0.00000  0.00000  0.00000  1
 O  O1  1  0.26932  0.03272  0.20388  1
 O  O2  1  0.26820  0.53259  0.20302  1
 O  O3  1  0.75945  0.02496  0.20986  1
 O  O4  1  0.75945  0.52463  0.20986  1
 O  O5  1  0.24055  0.47537  0.79014  1
 O  O6  1  0.24055  0.97504  0.79014  1
 O  O7  1  0.73180  0.46741  0.79698  1
 O  O8  1  0.73068  0.96728  0.79612  1
