CIF file written using JARVIS-Tools package.
data_Tm2Ga3Ni
_symmetry_space_group_name_H-M  'Cm'
_cell_length_a       5.46669
_cell_length_b       5.46669
_cell_length_c       6.9501
_cell_angle_alpha    51.6401
_cell_angle_beta     51.6402
_cell_angle_gamma    46.3533

_symmetry_Int_Tables_number  8
_chemical_formula_structural  Tm2Ga3Ni
_chemical_formula_sum  Tm2Ga3Ni
_cell_volume  110.87920021781753
_cell_formula_units_Z  1
loop_
  _symmetry_equiv_pos_site_id
 _symmetry_equiv_pos_as_xyz
 1  'x, y, z'
loop_
 _atom_site_type_symbol
 _atom_site_label
 _atom_site_symmetry_multiplicity
 _atom_site_fract_x
 _atom_site_fract_y
 _atom_site_fract_z
 _atom_site_fract_occupancy
 Ga  Ga1  1  0.85194  0.85194  0.67915  1
 Ga  Ga2  1  0.82386  0.82386  0.12560  1
 Ga  Ga3  1  0.16323  0.16323  0.90657  1
 Ni  Ni1  1  0.16957  0.16957  0.28208  1
 Tm  Tm1  1  0.53836  0.53836  0.70984  1
 Tm  Tm2  1  0.45305  0.45305  0.29674  1
