CIF file written using JARVIS-Tools package.
data_H8C13SO
_symmetry_space_group_name_H-M  'C2'
_cell_length_a       5.05351
_cell_length_b       10.358
_cell_length_c       10.3594
_cell_angle_alpha    66.4731
_cell_angle_beta     77.7636
_cell_angle_gamma    77.7678

_symmetry_Int_Tables_number  5
_chemical_formula_structural  H8C13SO
_chemical_formula_sum  H6C26S2O2
_cell_volume  480.9626779158168
_cell_formula_units_Z  2
loop_
  _symmetry_equiv_pos_site_id
 _symmetry_equiv_pos_as_xyz
 1  'x, y, z'
loop_
 _atom_site_type_symbol
 _atom_site_label
 _atom_site_symmetry_multiplicity
 _atom_site_fract_x
 _atom_site_fract_y
 _atom_site_fract_z
 _atom_site_fract_occupancy
 C  C1  1  0.48168  0.61446  0.99495  1
 C  C2  1  0.25531  0.93098  0.31152  1
 C  C3  1  0.54765  0.21380  0.59141  1
 C  C4  1  0.75532  0.43098  0.81152  1
 C  C5  1  0.93713  0.42069  0.69349  1
 C  C6  1  0.43711  0.92069  0.19348  1
 C  C7  1  0.61851  0.34953  0.07642  1
 C  C8  1  0.11852  0.84953  0.57642  1
 C  C9  1  0.04763  0.71380  0.09140  1
 C  C10  1  0.98170  0.11446  0.49496  1
 C  C11  1  0.82010  0.35258  0.95024  1
 C  C12  1  0.47446  0.07732  0.66725  1
 C  C13  1  0.41691  0.47572  0.07336  1
 C  C14  1  0.91692  0.97572  0.57336  1
 C  C15  1  0.18937  0.33454  0.71217  1
 C  C16  1  0.68936  0.83454  0.21216  1
 C  C17  1  0.97445  0.57732  0.16724  1
 C  C18  1  0.07778  0.26735  0.96552  1
 C  C19  1  0.57779  0.76735  0.46551  1
 C  C20  1  0.15922  0.46042  0.15858  1
 C  C21  1  0.65923  0.96042  0.65858  1
 C  C22  1  0.26255  0.25869  0.84863  1
 C  C23  1  0.76254  0.75869  0.34862  1
 C  C24  1  0.32010  0.85258  0.45024  1
 C  C25  1  0.79989  0.23250  0.50525  1
 C  C26  1  0.29987  0.73250  0.00525  1
 H  H1  1  0.38482  0.97875  0.08650  1
 H  H2  1  0.77301  0.56374  0.23001  1
 H  H3  1  0.35216  0.83950  0.94718  1
 H  H4  1  0.55711  0.49677  0.79538  1
 H  H5  1  0.05710  -0.00323  0.29538  1
 H  H6  1  0.10389  0.35410  0.21673  1
 H  H7  1  0.60389  0.85410  0.71673  1
 H  H8  1  0.46398  0.19592  0.86219  1
 H  H9  1  0.96398  0.69592  0.36218  1
 H  H10  1  0.27302  0.06374  0.73002  1
 H  H11  1  0.13312  0.20920  0.07182  1
 H  H12  1  0.63313  0.70921  0.57181  1
 H  H13  1  0.67990  0.63062  0.92916  1
 H  H14  1  0.17991  0.13062  0.42916  1
 H  H15  1  0.88484  0.47876  0.58650  1
 H  H16  1  0.85217  0.33950  0.44719  1
 O  O1  1  0.36851  0.33568  0.59029  1
 O  O2  1  0.86849  0.83568  0.09028  1
 S  S1  1  0.11853  0.70316  0.72280  1
 S  S2  1  0.61853  0.20316  0.22280  1
