CIF file written using JARVIS-Tools package.
data_BaVSe2S
_symmetry_space_group_name_H-M  'Amm2'
_cell_length_a       6.94174
_cell_length_b       6.94174
_cell_length_c       5.85739
_cell_angle_alpha    90
_cell_angle_beta     90
_cell_angle_gamma    120.48

_symmetry_Int_Tables_number  38
_chemical_formula_structural  BaVSe2S
_chemical_formula_sum  Ba2V2Se4S2
_cell_volume  243.2486227792807
_cell_formula_units_Z  2
loop_
  _symmetry_equiv_pos_site_id
 _symmetry_equiv_pos_as_xyz
 1  'x, y, z'
loop_
 _atom_site_type_symbol
 _atom_site_label
 _atom_site_symmetry_multiplicity
 _atom_site_fract_x
 _atom_site_fract_y
 _atom_site_fract_z
 _atom_site_fract_occupancy
 Ba  Ba1  1  0.33429  0.66571  0.00000  1
 Ba  Ba2  1  0.66622  0.33378  0.50000  1
 S  S1  1  0.68124  0.83473  0.50000  1
 S  S2  1  0.16527  0.31876  0.50000  1
 Se  Se1  1  0.17295  0.82705  0.50000  1
 Se  Se2  1  0.33533  0.17194  0.00000  1
 Se  Se3  1  0.82806  0.66467  0.00000  1
 Se  Se4  1  0.82797  0.17203  0.00000  1
 V  V1  1  0.99480  0.00520  0.25588  1
 V  V2  1  0.99480  0.00520  0.74412  1
