CIF file written using JARVIS-Tools package.
data_BaCo4O8
_symmetry_space_group_name_H-M  'P-31m'
_cell_length_a       5.33364
_cell_length_b       5.33364
_cell_length_c       7.19861
_cell_angle_alpha    90
_cell_angle_beta     90
_cell_angle_gamma    120

_symmetry_Int_Tables_number  162
_chemical_formula_structural  BaCo4O8
_chemical_formula_sum  BaCo4O8
_cell_volume  177.34820916717337
_cell_formula_units_Z  1
loop_
  _symmetry_equiv_pos_site_id
 _symmetry_equiv_pos_as_xyz
 1  'x, y, z'
loop_
 _atom_site_type_symbol
 _atom_site_label
 _atom_site_symmetry_multiplicity
 _atom_site_fract_x
 _atom_site_fract_y
 _atom_site_fract_z
 _atom_site_fract_occupancy
 Ba  Ba1  1  0.00000  0.00000  0.00000  1
 Co  Co1  1  0.33333  0.66667  0.25107  1
 Co  Co2  1  0.66667  0.33333  0.25107  1
 Co  Co3  1  0.33333  0.66667  0.74893  1
 Co  Co4  1  0.66667  0.33333  0.74893  1
 O  O1  1  0.64122  0.64122  0.31030  1
 O  O2  1  0.00000  0.35878  0.31030  1
 O  O3  1  0.35878  0.00000  0.31030  1
 O  O4  1  0.35878  0.35878  0.68970  1
 O  O5  1  0.64122  -0.00000  0.68970  1
 O  O6  1  -0.00000  0.64122  0.68970  1
 O  O7  1  0.33333  0.66667  0.00000  1
 O  O8  1  0.66667  0.33333  0.00000  1
