CIF file written using JARVIS-Tools package.
data_TeWS
_symmetry_space_group_name_H-M  'P-3m1'
_cell_length_a       3.36721
_cell_length_b       3.36721
_cell_length_c       37.4227
_cell_angle_alpha    89.9992
_cell_angle_beta     90
_cell_angle_gamma    120

_symmetry_Int_Tables_number  164
_chemical_formula_structural  TeWS
_chemical_formula_sum  Te4W4S4
_cell_volume  367.4567934450628
_cell_formula_units_Z  4
loop_
  _symmetry_equiv_pos_site_id
 _symmetry_equiv_pos_as_xyz
 1  'x, y, z'
loop_
 _atom_site_type_symbol
 _atom_site_label
 _atom_site_symmetry_multiplicity
 _atom_site_fract_x
 _atom_site_fract_y
 _atom_site_fract_z
 _atom_site_fract_occupancy
 S  S1  1  0.33334  0.66668  0.69648  1
 S  S2  1  0.66666  0.33332  0.05498  1
 S  S3  1  0.66662  0.33325  0.13605  1
 S  S4  1  0.33338  0.66675  0.61541  1
 Te  Te1  1  0.33337  0.66674  0.32856  1
 Te  Te2  1  0.66663  0.33326  0.42290  1
 Te  Te3  1  0.66666  0.33331  0.52456  1
 Te  Te4  1  0.33334  0.66669  0.22690  1
 W  W1  1  0.33331  0.66662  0.09548  1
 W  W2  1  0.33331  0.66662  0.47372  1
 W  W3  1  0.66669  0.33338  0.27774  1
 W  W4  1  0.66669  0.33338  0.65598  1
