CIF file written using JARVIS-Tools package.
data_K2CuP
_symmetry_space_group_name_H-M  'Cmcm'
_cell_length_a       5.75257
_cell_length_b       6.13083
_cell_length_c       6.13083
_cell_angle_alpha    105.972
_cell_angle_beta     90
_cell_angle_gamma    90

_symmetry_Int_Tables_number  63
_chemical_formula_structural  K2CuP
_chemical_formula_sum  K4Cu2P2
_cell_volume  207.87489226674307
_cell_formula_units_Z  2
loop_
  _symmetry_equiv_pos_site_id
 _symmetry_equiv_pos_as_xyz
 1  'x, y, z'
loop_
 _atom_site_type_symbol
 _atom_site_label
 _atom_site_symmetry_multiplicity
 _atom_site_fract_x
 _atom_site_fract_y
 _atom_site_fract_z
 _atom_site_fract_occupancy
 Cu  Cu1  1  0.50000  0.50000  0.50000  1
 Cu  Cu2  1  0.00000  0.50000  0.50000  1
 K  K1  1  0.75000  0.31272  0.97403  1
 K  K2  1  0.75000  0.97403  0.31272  1
 K  K3  1  0.25000  0.68728  0.02597  1
 K  K4  1  0.25000  0.02597  0.68728  1
 P  P1  1  0.75000  0.73671  0.73671  1
 P  P2  1  0.25000  0.26329  0.26329  1
