CIF file written using JARVIS-Tools package.
data_TbYb2PrS6
_symmetry_space_group_name_H-M  'P2_1/m'
_cell_length_a       10.8746
_cell_length_b       4.10684
_cell_length_c       11.4155
_cell_angle_alpha    90
_cell_angle_beta     104.579
_cell_angle_gamma    90

_symmetry_Int_Tables_number  11
_chemical_formula_structural  TbYb2PrS6
_chemical_formula_sum  Tb2Yb4Pr2S2
_cell_volume  493.40566229311173
_cell_formula_units_Z  2
loop_
  _symmetry_equiv_pos_site_id
 _symmetry_equiv_pos_as_xyz
 1  'x, y, z'
loop_
 _atom_site_type_symbol
 _atom_site_label
 _atom_site_symmetry_multiplicity
 _atom_site_fract_x
 _atom_site_fract_y
 _atom_site_fract_z
 _atom_site_fract_occupancy
 Pr  Pr1  1  0.52855  0.75000  0.18224  1
 Pr  Pr2  1  0.47145  0.25000  0.81776  1
 S  S1  1  0.40258  0.75000  0.61528  1
 S  S2  1  0.37171  0.25000  0.03276  1
 S  S3  1  0.90069  0.75000  0.57104  1
 S  S4  1  0.04958  0.25000  0.89367  1
 S  S5  1  0.95042  0.75000  0.10633  1
 S  S6  1  0.62829  0.75000  0.96724  1
 S  S7  1  0.30136  0.75000  0.26043  1
 S  S8  1  0.72817  0.25000  0.27241  1
 S  S9  1  0.09931  0.25000  0.42896  1
 S  S10  1  0.69864  0.25000  0.73957  1
 S  S11  1  0.59742  0.25000  0.38472  1
 S  S12  1  0.27183  0.75000  0.72759  1
 Tb  Tb1  1  0.82960  0.25000  0.96923  1
 Tb  Tb2  1  0.17040  0.75000  0.03077  1
 Yb  Yb1  1  0.32849  0.25000  0.41510  1
 Yb  Yb2  1  0.67151  0.75000  0.58490  1
 Yb  Yb3  1  0.05225  0.25000  0.64905  1
 Yb  Yb4  1  0.94775  0.75000  0.35095  1
