CIF file written using JARVIS-Tools package.
data_SiO2
_symmetry_space_group_name_H-M  'Pn-3m'
_cell_length_a       3.80911
_cell_length_b       3.80872
_cell_length_c       3.80875
_cell_angle_alpha    89.9985
_cell_angle_beta     90.0002
_cell_angle_gamma    90.0005

_symmetry_Int_Tables_number  224
_chemical_formula_structural  SiO2
_chemical_formula_sum  Si2O4
_cell_volume  55.25665091227159
_cell_formula_units_Z  2
loop_
  _symmetry_equiv_pos_site_id
 _symmetry_equiv_pos_as_xyz
 1  'x, y, z'
loop_
 _atom_site_type_symbol
 _atom_site_label
 _atom_site_symmetry_multiplicity
 _atom_site_fract_x
 _atom_site_fract_y
 _atom_site_fract_z
 _atom_site_fract_occupancy
 O  O1  1  0.55936  0.86126  0.66832  1
 O  O2  1  0.05935  0.86127  0.16835  1
 O  O3  1  0.55935  0.36125  0.16833  1
 O  O4  1  0.05935  0.36126  0.66833  1
 Si  Si1  1  0.80935  0.11125  0.91833  1
 Si  Si2  1  0.30936  0.61125  0.41833  1
