CIF file written using JARVIS-Tools package.
data_Cu2S
_symmetry_space_group_name_H-M  'C2/c'
_cell_length_a       3.97154
_cell_length_b       3.97154
_cell_length_c       7.13266
_cell_angle_alpha    89.1436
_cell_angle_beta     89.1436
_cell_angle_gamma    118.667

_symmetry_Int_Tables_number  15
_chemical_formula_structural  Cu2S
_chemical_formula_sum  Cu4S2
_cell_volume  98.67143993992926
_cell_formula_units_Z  2
loop_
  _symmetry_equiv_pos_site_id
 _symmetry_equiv_pos_as_xyz
 1  'x, y, z'
loop_
 _atom_site_type_symbol
 _atom_site_label
 _atom_site_symmetry_multiplicity
 _atom_site_fract_x
 _atom_site_fract_y
 _atom_site_fract_z
 _atom_site_fract_occupancy
 Cu  Cu1  1  -0.00000  0.50000  0.50000  1
 Cu  Cu2  1  0.50000  -0.00000  -0.00000  1
 Cu  Cu3  1  0.01858  0.98142  0.25000  1
 Cu  Cu4  1  0.98142  0.01858  0.75000  1
 S  S1  1  0.37139  0.62861  0.25000  1
 S  S2  1  0.62861  0.37139  0.75000  1
