CIF file written using JARVIS-Tools package.
data_MgV2O6
_symmetry_space_group_name_H-M  'C2/m'
_cell_length_a       5.00196
_cell_length_b       5.00196
_cell_length_c       6.76089
_cell_angle_alpha    68.5368
_cell_angle_beta     68.5368
_cell_angle_gamma    40.6363

_symmetry_Int_Tables_number  12
_chemical_formula_structural  MgV2O6
_chemical_formula_sum  MgV2O6
_cell_volume  101.43096886699786
_cell_formula_units_Z  1
loop_
  _symmetry_equiv_pos_site_id
 _symmetry_equiv_pos_as_xyz
 1  'x, y, z'
loop_
 _atom_site_type_symbol
 _atom_site_label
 _atom_site_symmetry_multiplicity
 _atom_site_fract_x
 _atom_site_fract_y
 _atom_site_fract_z
 _atom_site_fract_occupancy
 Mg  Mg1  1  0.00000  -0.00000  0.50000  1
 O  O1  1  0.96625  0.96625  0.22047  1
 O  O2  1  0.65306  0.65306  0.38800  1
 O  O3  1  0.68895  0.68895  0.93954  1
 O  O4  1  0.31105  0.31105  0.06046  1
 O  O5  1  0.34694  0.34694  0.61200  1
 O  O6  1  0.03375  0.03375  0.77953  1
 V  V1  1  0.81069  0.81069  0.15354  1
 V  V2  1  0.18931  0.18931  0.84646  1
