CIF file written using JARVIS-Tools package.
data_TiH10C6O4
_symmetry_space_group_name_H-M  'P1'
_cell_length_a       4.88859
_cell_length_b       6.24787
_cell_length_c       6.77481
_cell_angle_alpha    72.7733
_cell_angle_beta     90.0219
_cell_angle_gamma    73.4882

_symmetry_Int_Tables_number  1
_chemical_formula_structural  TiH10C6O4
_chemical_formula_sum  TiH0C6O4
_cell_volume  188.68230876920694
_cell_formula_units_Z  1
loop_
  _symmetry_equiv_pos_site_id
 _symmetry_equiv_pos_as_xyz
 1  'x, y, z'
loop_
 _atom_site_type_symbol
 _atom_site_label
 _atom_site_symmetry_multiplicity
 _atom_site_fract_x
 _atom_site_fract_y
 _atom_site_fract_z
 _atom_site_fract_occupancy
 C  C1  1  0.10979  0.59039  0.78614  1
 C  C2  1  0.26820  0.92948  0.56057  1
 C  C3  1  0.07783  0.44766  0.00338  1
 C  C4  1  0.72700  0.44500  0.42313  1
 C  C5  1  0.74482  -0.00717  0.07563  1
 C  C6  1  0.27716  0.76575  0.77582  1
 H  H1  1  0.95856  0.86416  0.11899  1
 H  H2  1  0.57964  0.90038  0.10925  1
 H  H3  1  0.91816  0.50402  0.39495  1
 H  H4  1  0.89647  0.67820  0.70212  1
 H  H5  1  0.18118  0.88138  0.86941  1
 H  H6  1  0.49992  0.67688  0.84104  1
 H  H7  1  0.71783  0.09619  0.91065  1
 H  H8  1  0.22379  0.46178  0.70852  1
 H  H9  1  0.72583  0.35584  0.59084  1
 H  H10  1  0.53189  0.59628  0.36976  1
 O  O1  1  0.05190  0.99056  0.43235  1
 O  O2  1  0.29562  0.37712  0.14182  1
 O  O3  1  0.48591  0.00664  0.51868  1
 O  O4  1  0.85124  0.39581  0.04178  1
 Ti  Ti1  1  0.65647  0.19255  0.29058  1
