CIF file written using JARVIS-Tools package.
data_NdAsPd
_symmetry_space_group_name_H-M  'P6_3mc'
_cell_length_a       4.38408
_cell_length_b       4.38408
_cell_length_c       7.82027
_cell_angle_alpha    90
_cell_angle_beta     90
_cell_angle_gamma    120

_symmetry_Int_Tables_number  186
_chemical_formula_structural  NdAsPd
_chemical_formula_sum  Nd2As2Pd2
_cell_volume  130.16976967136537
_cell_formula_units_Z  2
loop_
  _symmetry_equiv_pos_site_id
 _symmetry_equiv_pos_as_xyz
 1  'x, y, z'
loop_
 _atom_site_type_symbol
 _atom_site_label
 _atom_site_symmetry_multiplicity
 _atom_site_fract_x
 _atom_site_fract_y
 _atom_site_fract_z
 _atom_site_fract_occupancy
 As  As1  1  0.66667  0.33333  0.25979  1
 As  As2  1  0.33333  0.66667  0.75979  1
 Nd  Nd1  1  0.00000  0.00000  0.49977  1
 Nd  Nd2  1  0.00000  0.00000  -0.00023  1
 Pd  Pd1  1  0.33333  0.66667  0.23974  1
 Pd  Pd2  1  0.66667  0.33333  0.73974  1
