CIF file written using JARVIS-Tools package.
data_Sr4N3
_symmetry_space_group_name_H-M  'C2/m'
_cell_length_a       7.06225
_cell_length_b       7.06224
_cell_length_c       6.48688
_cell_angle_alpha    65.4045
_cell_angle_beta     65.4045
_cell_angle_gamma    31.6089

_symmetry_Int_Tables_number  12
_chemical_formula_structural  Sr4N3
_chemical_formula_sum  Sr4N3
_cell_volume  152.88562034336928
_cell_formula_units_Z  1
loop_
  _symmetry_equiv_pos_site_id
 _symmetry_equiv_pos_as_xyz
 1  'x, y, z'
loop_
 _atom_site_type_symbol
 _atom_site_label
 _atom_site_symmetry_multiplicity
 _atom_site_fract_x
 _atom_site_fract_y
 _atom_site_fract_z
 _atom_site_fract_occupancy
 N  N1  1  0.78203  0.78203  0.70651  1
 N  N2  1  0.50000  0.50000  -0.00000  1
 N  N3  1  0.21797  0.21797  0.29349  1
 Sr  Sr1  1  0.63066  0.63066  0.55951  1
 Sr  Sr2  1  0.13965  0.13965  -0.00020  1
 Sr  Sr3  1  0.36934  0.36934  0.44049  1
 Sr  Sr4  1  0.86035  0.86035  0.00020  1
