CIF file written using JARVIS-Tools package.
data_RbHoS2
_symmetry_space_group_name_H-M  'R-3m'
_cell_length_a       7.96756
_cell_length_b       7.96756
_cell_length_c       7.96756
_cell_angle_alpha    29.3258
_cell_angle_beta     29.3258
_cell_angle_gamma    29.3258

_symmetry_Int_Tables_number  166
_chemical_formula_structural  RbHoS2
_chemical_formula_sum  RbHoS2
_cell_volume  107.36610856858277
_cell_formula_units_Z  1
loop_
  _symmetry_equiv_pos_site_id
 _symmetry_equiv_pos_as_xyz
 1  'x, y, z'
loop_
 _atom_site_type_symbol
 _atom_site_label
 _atom_site_symmetry_multiplicity
 _atom_site_fract_x
 _atom_site_fract_y
 _atom_site_fract_z
 _atom_site_fract_occupancy
 Ho  Ho1  1  0.50000  0.50000  0.50000  1
 Rb  Rb1  1  0.00000  0.00000  0.00000  1
 S  S1  1  0.76891  0.76891  0.76891  1
 S  S2  1  0.23109  0.23109  0.23109  1
