CIF file written using JARVIS-Tools package.
data_NaErS2
_symmetry_space_group_name_H-M  'R-3m'
_cell_length_a       6.97766
_cell_length_b       6.97766
_cell_length_c       6.97767
_cell_angle_alpha    32.7181
_cell_angle_beta     32.718
_cell_angle_gamma    32.7181

_symmetry_Int_Tables_number  166
_chemical_formula_structural  NaErS2
_chemical_formula_sum  NaErS2
_cell_volume  88.28367136840296
_cell_formula_units_Z  1
loop_
  _symmetry_equiv_pos_site_id
 _symmetry_equiv_pos_as_xyz
 1  'x, y, z'
loop_
 _atom_site_type_symbol
 _atom_site_label
 _atom_site_symmetry_multiplicity
 _atom_site_fract_x
 _atom_site_fract_y
 _atom_site_fract_z
 _atom_site_fract_occupancy
 Er  Er1  1  0.00000  0.00000  0.00000  1
 Na  Na1  1  0.50000  0.50000  0.50000  1
 S  S1  1  0.74257  0.74257  0.74257  1
 S  S2  1  0.25743  0.25743  0.25743  1
