CIF file written using JARVIS-Tools package.
data_TaTiCN
_symmetry_space_group_name_H-M  'R3m'
_cell_length_a       5.3786
_cell_length_b       5.3786
_cell_length_c       5.3786
_cell_angle_alpha    33.4535
_cell_angle_beta     33.4535
_cell_angle_gamma    33.4535

_symmetry_Int_Tables_number  160
_chemical_formula_structural  TaTiCN
_chemical_formula_sum  TaTiCN
_cell_volume  42.11057383261141
_cell_formula_units_Z  1
loop_
  _symmetry_equiv_pos_site_id
 _symmetry_equiv_pos_as_xyz
 1  'x, y, z'
loop_
 _atom_site_type_symbol
 _atom_site_label
 _atom_site_symmetry_multiplicity
 _atom_site_fract_x
 _atom_site_fract_y
 _atom_site_fract_z
 _atom_site_fract_occupancy
 C  C1  1  0.99794  0.99794  0.99794  1
 N  N1  1  0.50086  0.50086  0.50086  1
 Ta  Ta1  1  0.74721  0.74721  0.74721  1
 Ti  Ti1  1  0.25399  0.25399  0.25399  1
