CIF file written using JARVIS-Tools package.
data_HoSiOs2C
_symmetry_space_group_name_H-M  'Cmcm'
_cell_length_a       5.91589
_cell_length_b       5.91589
_cell_length_c       7.11608
_cell_angle_alpha    90
_cell_angle_beta     90
_cell_angle_gamma    142.016

_symmetry_Int_Tables_number  63
_chemical_formula_structural  HoSiOs2C
_chemical_formula_sum  Ho2Si2Os4C2
_cell_volume  153.27222659177974
_cell_formula_units_Z  2
loop_
  _symmetry_equiv_pos_site_id
 _symmetry_equiv_pos_as_xyz
 1  'x, y, z'
loop_
 _atom_site_type_symbol
 _atom_site_label
 _atom_site_symmetry_multiplicity
 _atom_site_fract_x
 _atom_site_fract_y
 _atom_site_fract_z
 _atom_site_fract_occupancy
 C  C1  1  0.00000  0.00000  0.00000  1
 C  C2  1  0.00000  0.00000  0.50000  1
 Ho  Ho1  1  0.54734  0.45266  0.25000  1
 Ho  Ho2  1  0.45266  0.54734  0.75000  1
 Os  Os1  1  0.83534  0.16466  0.05696  1
 Os  Os2  1  0.16466  0.83534  0.94304  1
 Os  Os3  1  0.16466  0.83534  0.55696  1
 Os  Os4  1  0.83534  0.16466  0.44304  1
 Si  Si1  1  0.26895  0.73105  0.25000  1
 Si  Si2  1  0.73105  0.26895  0.75000  1
