CIF file written using JARVIS-Tools package.
data_Sc2Te3
_symmetry_space_group_name_H-M  'Immm'
_cell_length_a       7.23711
_cell_length_b       7.2371
_cell_length_c       7.23711
_cell_angle_alpha    147.156
_cell_angle_beta     132.331
_cell_angle_gamma    59.0983

_symmetry_Int_Tables_number  71
_chemical_formula_structural  Sc2Te3
_chemical_formula_sum  Sc2Te3
_cell_volume  150.68151934379162
_cell_formula_units_Z  1
loop_
  _symmetry_equiv_pos_site_id
 _symmetry_equiv_pos_as_xyz
 1  'x, y, z'
loop_
 _atom_site_type_symbol
 _atom_site_label
 _atom_site_symmetry_multiplicity
 _atom_site_fract_x
 _atom_site_fract_y
 _atom_site_fract_z
 _atom_site_fract_occupancy
 Sc  Sc1  1  0.66468  0.66468  0.00000  1
 Sc  Sc2  1  0.33532  0.33532  -0.00000  1
 Te  Te1  1  0.50000  0.00000  0.50000  1
 Te  Te2  1  0.17028  0.67028  0.50000  1
 Te  Te3  1  0.82972  0.32972  0.50000  1
