CIF file written using JARVIS-Tools package.
data_TiH6C4O4
_symmetry_space_group_name_H-M  'C2'
_cell_length_a       5.30931
_cell_length_b       5.50653
_cell_length_c       6.13867
_cell_angle_alpha    116.619
_cell_angle_beta     110.448
_cell_angle_gamma    90.0274

_symmetry_Int_Tables_number  5
_chemical_formula_structural  TiH6C4O4
_chemical_formula_sum  TiH6C4O4
_cell_volume  147.67316019998518
_cell_formula_units_Z  1
loop_
  _symmetry_equiv_pos_site_id
 _symmetry_equiv_pos_as_xyz
 1  'x, y, z'
loop_
 _atom_site_type_symbol
 _atom_site_label
 _atom_site_symmetry_multiplicity
 _atom_site_fract_x
 _atom_site_fract_y
 _atom_site_fract_z
 _atom_site_fract_occupancy
 C  C1  1  0.90588  0.05693  0.54482  1
 C  C2  1  0.14005  0.76387  0.95881  1
 C  C3  1  0.46455  0.54886  0.35820  1
 C  C4  1  0.58128  0.44271  0.14559  1
 H  H1  1  0.87315  0.17556  0.72896  1
 H  H2  1  -0.01137  0.87443  0.54033  1
 H  H3  1  0.04375  0.18788  0.52471  1
 H  H4  1  0.05734  0.58572  0.96324  1
 H  H5  1  0.00212  0.91473  0.97894  1
 H  H6  1  0.17281  0.69867  0.77470  1
 O  O1  1  0.41954  0.37062  0.43095  1
 O  O2  1  0.42144  0.79067  0.44057  1
 O  O3  1  0.62631  0.19184  0.07287  1
 O  O4  1  0.62438  0.60225  0.06320  1
 Ti  Ti1  1  0.52292  0.00783  0.25190  1
