CIF file written using JARVIS-Tools package.
data_Ho2TeO2
_symmetry_space_group_name_H-M  'P6_3/mmc'
_cell_length_a       3.88309
_cell_length_b       3.8831
_cell_length_c       14.3497
_cell_angle_alpha    90
_cell_angle_beta     90
_cell_angle_gamma    120

_symmetry_Int_Tables_number  194
_chemical_formula_structural  Ho2TeO2
_chemical_formula_sum  Ho4Te2O4
_cell_volume  187.3829793169282
_cell_formula_units_Z  2
loop_
  _symmetry_equiv_pos_site_id
 _symmetry_equiv_pos_as_xyz
 1  'x, y, z'
loop_
 _atom_site_type_symbol
 _atom_site_label
 _atom_site_symmetry_multiplicity
 _atom_site_fract_x
 _atom_site_fract_y
 _atom_site_fract_z
 _atom_site_fract_occupancy
 Ho  Ho1  1  0.33333  0.66667  0.90245  1
 Ho  Ho2  1  0.33333  0.66667  0.59755  1
 Ho  Ho3  1  0.66667  0.33333  0.40245  1
 Ho  Ho4  1  0.66667  0.33333  0.09755  1
 O  O1  1  0.33333  0.66667  0.06018  1
 O  O2  1  0.33333  0.66667  0.43982  1
 O  O3  1  0.66667  0.33333  0.93982  1
 O  O4  1  0.66667  0.33333  0.56018  1
 Te  Te1  1  0.00000  0.00000  0.25000  1
 Te  Te2  1  0.00000  0.00000  0.75000  1
