CIF file written using JARVIS-Tools package.
data_NdCu4Pd
_symmetry_space_group_name_H-M  'R3m'
_cell_length_a       5.23419
_cell_length_b       5.23418
_cell_length_c       5.23419
_cell_angle_alpha    57.2203
_cell_angle_beta     57.2203
_cell_angle_gamma    57.2203

_symmetry_Int_Tables_number  160
_chemical_formula_structural  NdCu4Pd
_chemical_formula_sum  NdCu4Pd
_cell_volume  94.90662474864483
_cell_formula_units_Z  1
loop_
  _symmetry_equiv_pos_site_id
 _symmetry_equiv_pos_as_xyz
 1  'x, y, z'
loop_
 _atom_site_type_symbol
 _atom_site_label
 _atom_site_symmetry_multiplicity
 _atom_site_fract_x
 _atom_site_fract_y
 _atom_site_fract_z
 _atom_site_fract_occupancy
 Cu  Cu1  1  0.62974  0.13209  0.62974  1
 Cu  Cu2  1  0.13209  0.62974  0.62974  1
 Cu  Cu3  1  0.62974  0.62974  0.13209  1
 Cu  Cu4  1  0.23125  0.23125  0.23125  1
 Nd  Nd1  1  -0.00034  -0.00034  -0.00034  1
 Pd  Pd1  1  0.62752  0.62752  0.62752  1
