CIF file written using JARVIS-Tools package.
data_NdBO3
_symmetry_space_group_name_H-M  'Pnma'
_cell_length_a       5.07742
_cell_length_b       5.7435
_cell_length_c       8.12603
_cell_angle_alpha    90
_cell_angle_beta     90
_cell_angle_gamma    90

_symmetry_Int_Tables_number  62
_chemical_formula_structural  NdBO3
_chemical_formula_sum  Nd4B4O2
_cell_volume  236.97253040267293
_cell_formula_units_Z  4
loop_
  _symmetry_equiv_pos_site_id
 _symmetry_equiv_pos_as_xyz
 1  'x, y, z'
loop_
 _atom_site_type_symbol
 _atom_site_label
 _atom_site_symmetry_multiplicity
 _atom_site_fract_x
 _atom_site_fract_y
 _atom_site_fract_z
 _atom_site_fract_occupancy
 B  B1  1  0.25000  0.91652  0.73704  1
 B  B2  1  0.75000  0.08348  0.26296  1
 B  B3  1  0.25000  0.41652  0.76296  1
 B  B4  1  0.75000  0.58348  0.23704  1
 Nd  Nd1  1  0.25000  0.75841  0.08490  1
 Nd  Nd2  1  0.75000  0.24159  0.91510  1
 Nd  Nd3  1  0.25000  0.25841  0.41510  1
 Nd  Nd4  1  0.75000  0.74159  0.58490  1
 O  O1  1  0.01585  0.41229  0.67681  1
 O  O2  1  0.51585  0.08771  0.17681  1
 O  O3  1  0.48415  0.91229  0.82319  1
 O  O4  1  0.98415  0.08771  0.17681  1
 O  O5  1  0.51585  0.58771  0.32319  1
 O  O6  1  0.98415  0.58771  0.32319  1
 O  O7  1  0.75000  0.09980  0.43145  1
 O  O8  1  0.25000  0.90020  0.56855  1
 O  O9  1  0.75000  0.59980  0.06855  1
 O  O10  1  0.48415  0.41229  0.67681  1
 O  O11  1  0.25000  0.40020  0.93145  1
 O  O12  1  0.01585  0.91229  0.82319  1
