CIF file written using JARVIS-Tools package.
data_Na4Br2O
_symmetry_space_group_name_H-M  'I4/mmm'
_cell_length_a       4.49904
_cell_length_b       4.49904
_cell_length_c       8.0921
_cell_angle_alpha    106.14
_cell_angle_beta     106.14
_cell_angle_gamma    90

_symmetry_Int_Tables_number  139
_chemical_formula_structural  Na4Br2O
_chemical_formula_sum  Na4Br2O
_cell_volume  150.60638255832887
_cell_formula_units_Z  1
loop_
  _symmetry_equiv_pos_site_id
 _symmetry_equiv_pos_as_xyz
 1  'x, y, z'
loop_
 _atom_site_type_symbol
 _atom_site_label
 _atom_site_symmetry_multiplicity
 _atom_site_fract_x
 _atom_site_fract_y
 _atom_site_fract_z
 _atom_site_fract_occupancy
 Br  Br1  1  0.34900  0.34900  0.69801  1
 Br  Br2  1  0.65100  0.65100  0.30199  1
 Na  Na1  1  0.15310  0.15310  0.30620  1
 Na  Na2  1  -0.00000  0.50000  -0.00000  1
 Na  Na3  1  0.84690  0.84690  0.69380  1
 Na  Na4  1  0.50000  0.00000  0.00000  1
 O  O1  1  0.00000  0.00000  0.00000  1
