CIF file written using JARVIS-Tools package.
data_Ce2Ge3Rh
_symmetry_space_group_name_H-M  'Imm2'
_cell_length_a       8.03191
_cell_length_b       8.0319
_cell_length_c       8.0319
_cell_angle_alpha    150.751
_cell_angle_beta     148.875
_cell_angle_gamma    43.2351

_symmetry_Int_Tables_number  44
_chemical_formula_structural  Ce2Ge3Rh
_chemical_formula_sum  Ce2Ge3Rh
_cell_volume  130.51856838435396
_cell_formula_units_Z  1
loop_
  _symmetry_equiv_pos_site_id
 _symmetry_equiv_pos_as_xyz
 1  'x, y, z'
loop_
 _atom_site_type_symbol
 _atom_site_label
 _atom_site_symmetry_multiplicity
 _atom_site_fract_x
 _atom_site_fract_y
 _atom_site_fract_z
 _atom_site_fract_occupancy
 Ce  Ce1  1  0.12191  0.12191  0.00000  1
 Ce  Ce2  1  0.37818  0.87818  0.50000  1
 Ge  Ge1  1  0.70366  0.70366  0.00000  1
 Ge  Ge2  1  0.53769  0.53769  0.00000  1
 Ge  Ge3  1  0.79808  0.29808  0.50000  1
 Rh  Rh1  1  0.96048  0.46048  0.50000  1
