CIF file written using JARVIS-Tools package.
data_SnH12C6F2
_symmetry_space_group_name_H-M  'P1'
_cell_length_a       4.43081
_cell_length_b       4.4443
_cell_length_c       19.2523
_cell_angle_alpha    86.1565
_cell_angle_beta     86.4797
_cell_angle_gamma    71.8431

_symmetry_Int_Tables_number  1
_chemical_formula_structural  SnH12C6F2
_chemical_formula_sum  Sn2H24C2F4
_cell_volume  359.0979013582245
_cell_formula_units_Z  2
loop_
  _symmetry_equiv_pos_site_id
 _symmetry_equiv_pos_as_xyz
 1  'x, y, z'
loop_
 _atom_site_type_symbol
 _atom_site_label
 _atom_site_symmetry_multiplicity
 _atom_site_fract_x
 _atom_site_fract_y
 _atom_site_fract_z
 _atom_site_fract_occupancy
 C  C1  1  0.67471  0.84329  0.91707  1
 C  C2  1  0.44453  0.36083  0.31764  1
 C  C3  1  0.54836  0.72817  0.85640  1
 C  C4  1  0.38116  -0.00574  0.80383  1
 C  C5  1  0.44872  0.50206  0.63832  1
 C  C6  1  0.84637  0.61090  0.14591  1
 C  C7  1  0.26968  0.86367  0.74148  1
 C  C8  1  0.54513  0.68248  0.69329  1
 C  C9  1  0.74053  0.39556  0.20047  1
 C  C10  1  0.56072  0.57290  0.26375  1
 C  C11  1  0.48752  0.60214  0.43175  1
 C  C12  1  0.26779  0.52366  0.38297  1
 F  F1  1  0.87412  0.55892  0.95370  1
 F  F2  1  0.08360  0.99062  0.04078  1
 F  F3  1  0.19603  0.20063  0.53909  1
 F  F4  1  0.82296  0.82494  0.53697  1
 H  H1  1  0.10445  0.05789  0.71111  1
 H  H2  1  0.13255  0.70474  0.76120  1
 H  H3  1  0.64138  0.78221  0.12033  1
 H  H4  1  0.96195  0.75760  0.17171  1
 H  H5  1  0.94715  0.20101  0.21913  1
 H  H6  1  0.25473  0.40996  0.65718  1
 H  H7  1  0.64999  0.30040  0.62156  1
 H  H8  1  0.83086  -0.01211  0.90219  1
 H  H9  1  0.49052  0.96242  0.95535  1
 H  H10  1  0.38414  0.59801  0.87669  1
 H  H11  1  0.75037  0.55706  0.82996  1
 H  H12  1  0.07757  0.74029  0.36727  1
 H  H13  1  0.69509  0.39413  0.44220  1
 H  H14  1  0.57397  0.79829  0.41185  1
 H  H15  1  0.59005  0.27459  0.17746  1
 H  H16  1  0.28672  0.25668  0.29238  1
 H  H17  1  0.35554  0.77050  0.24567  1
 H  H18  1  0.71749  0.68256  0.28771  1
 H  H19  1  0.15061  0.36418  0.41086  1
 H  H20  1  0.54376  0.12870  0.78500  1
 H  H21  1  0.17724  0.16307  0.83043  1
 H  H22  1  0.72168  0.50676  0.72538  1
 H  H23  1  0.66940  0.84433  0.66918  1
 H  H24  1  0.65011  0.15964  0.33418  1
 Sn  Sn1  1  0.21252  0.44338  0.05970  1
 Sn  Sn2  1  0.31444  0.71466  0.53651  1
