CIF file written using JARVIS-Tools package.
data_K6Fe2O5
_symmetry_space_group_name_H-M  'Cm'
_cell_length_a       6.61687
_cell_length_b       6.59729
_cell_length_c       6.59728
_cell_angle_alpha    116.256
_cell_angle_beta     92.4788
_cell_angle_gamma    92.4789

_symmetry_Int_Tables_number  8
_chemical_formula_structural  K6Fe2O5
_chemical_formula_sum  K6Fe2O5
_cell_volume  257.4128560670741
_cell_formula_units_Z  1
loop_
  _symmetry_equiv_pos_site_id
 _symmetry_equiv_pos_as_xyz
 1  'x, y, z'
loop_
 _atom_site_type_symbol
 _atom_site_label
 _atom_site_symmetry_multiplicity
 _atom_site_fract_x
 _atom_site_fract_y
 _atom_site_fract_z
 _atom_site_fract_occupancy
 Fe  Fe1  1  0.33625  0.79449  0.79449  1
 Fe  Fe2  1  0.68901  0.19001  0.19001  1
 K  K1  1  0.99002  0.19943  0.79548  1
 K  K2  1  0.17491  0.36121  0.36121  1
 K  K3  1  0.49944  0.75926  0.24879  1
 K  K4  1  0.49944  0.24879  0.75926  1
 K  K5  1  0.83580  0.63992  0.63992  1
 K  K6  1  0.99002  0.79548  0.19943  1
 O  O1  1  0.21755  0.84313  0.56250  1
 O  O2  1  0.21755  0.56250  0.84313  1
 O  O3  1  0.60242  0.92254  0.92254  1
 O  O4  1  0.76834  0.16425  0.44736  1
 O  O5  1  0.76834  0.44736  0.16425  1
