CIF file written using JARVIS-Tools package.
data_Ce2Ga7Pd
_symmetry_space_group_name_H-M  'P4mm'
_cell_length_a       4.37328
_cell_length_b       4.37328
_cell_length_c       10.4334
_cell_angle_alpha    90
_cell_angle_beta     90
_cell_angle_gamma    90

_symmetry_Int_Tables_number  99
_chemical_formula_structural  Ce2Ga7Pd
_chemical_formula_sum  Ce2Ga7Pd
_cell_volume  199.5440245306352
_cell_formula_units_Z  1
loop_
  _symmetry_equiv_pos_site_id
 _symmetry_equiv_pos_as_xyz
 1  'x, y, z'
loop_
 _atom_site_type_symbol
 _atom_site_label
 _atom_site_symmetry_multiplicity
 _atom_site_fract_x
 _atom_site_fract_y
 _atom_site_fract_z
 _atom_site_fract_occupancy
 Ce  Ce1  1  0.00000  0.00000  0.99430  1
 Ce  Ce2  1  0.50000  0.50000  0.48665  1
 Ga  Ga1  1  0.00000  0.50000  0.24534  1
 Ga  Ga2  1  0.50000  0.00000  0.75042  1
 Ga  Ga3  1  0.50000  0.00000  0.24534  1
 Ga  Ga4  1  0.00000  0.50000  0.75042  1
 Ga  Ga5  1  0.00000  0.00000  0.61905  1
 Ga  Ga6  1  0.00000  0.00000  0.38514  1
 Ga  Ga7  1  0.50000  0.50000  0.89464  1
 Pd  Pd1  1  0.50000  0.50000  0.12870  1
