CIF file written using JARVIS-Tools package.
data_Cr2HgS4
_symmetry_space_group_name_H-M  'C2/m'
_cell_length_a       8.24562
_cell_length_b       8.24562
_cell_length_c       5.5375
_cell_angle_alpha    88.9822
_cell_angle_beta     88.9823
_cell_angle_gamma    21.2613

_symmetry_Int_Tables_number  12
_chemical_formula_structural  Cr2HgS4
_chemical_formula_sum  Cr2HgS4
_cell_volume  136.50259063059315
_cell_formula_units_Z  1
loop_
  _symmetry_equiv_pos_site_id
 _symmetry_equiv_pos_as_xyz
 1  'x, y, z'
loop_
 _atom_site_type_symbol
 _atom_site_label
 _atom_site_symmetry_multiplicity
 _atom_site_fract_x
 _atom_site_fract_y
 _atom_site_fract_z
 _atom_site_fract_occupancy
 Cr  Cr1  1  0.75506  0.75506  0.19758  1
 Cr  Cr2  1  0.24494  0.24494  0.80242  1
 Hg  Hg1  1  0.50000  0.50000  0.50000  1
 S  S1  1  0.35012  0.35012  0.06594  1
 S  S2  1  0.64988  0.64988  0.93406  1
 S  S3  1  0.82364  0.82364  0.57146  1
 S  S4  1  0.17636  0.17636  0.42854  1
