CIF file written using JARVIS-Tools package.
data_ZnH16C10O4
_symmetry_space_group_name_H-M  'P1'
_cell_length_a       3.89037
_cell_length_b       4.78757
_cell_length_c       15.0298
_cell_angle_alpha    78.3122
_cell_angle_beta     93.1016
_cell_angle_gamma    65.3229

_symmetry_Int_Tables_number  1
_chemical_formula_structural  ZnH16C10O4
_chemical_formula_sum  ZnH6C0O4
_cell_volume  246.05369331881167
_cell_formula_units_Z  1
loop_
  _symmetry_equiv_pos_site_id
 _symmetry_equiv_pos_as_xyz
 1  'x, y, z'
loop_
 _atom_site_type_symbol
 _atom_site_label
 _atom_site_symmetry_multiplicity
 _atom_site_fract_x
 _atom_site_fract_y
 _atom_site_fract_z
 _atom_site_fract_occupancy
 C  C1  1  0.85677  0.15356  0.38802  1
 C  C2  1  0.49192  0.64929  0.62592  1
 C  C3  1  0.14253  0.87024  0.46319  1
 C  C4  1  0.20435  0.94542  0.55528  1
 C  C5  1  0.82215  0.06896  0.29621  1
 C  C6  1  0.54485  0.34666  0.21831  1
 C  C7  1  0.54505  0.25746  0.12619  1
 C  C8  1  0.28258  0.53619  0.04679  1
 C  C9  1  0.33252  0.47713  0.95185  1
 C  C10  1  0.61787  0.69036  0.71753  1
 H  H1  1  0.42090  0.76997  0.43848  1
 H  H2  1  0.38772  0.46546  0.64015  1
 H  H3  1  0.75946  0.53752  0.59769  1
 H  H4  1  0.84004  0.16271  0.11029  1
 H  H5  1  0.46289  0.06058  0.13187  1
 H  H6  1  0.30684  0.13097  0.54532  1
 H  H7  1  0.93069  0.04371  0.58176  1
 H  H8  1  -0.05330  0.34726  0.37838  1
 H  H9  1  0.57299  0.24948  0.41028  1
 H  H10  1  0.62428  0.54597  0.21136  1
 H  H11  1  0.25237  0.43730  0.23610  1
 H  H12  1  0.32789  0.74937  0.04635  1
 H  H13  1  0.97751  0.61055  0.05364  1
 H  H14  1  0.04703  0.67972  0.47387  1
 H  H15  1  0.73302  0.87483  0.30577  1
 H  H16  1  0.10864  0.97068  0.27525  1
 O  O1  1  0.81366  0.44467  0.78204  1
 O  O2  1  0.51206  0.18943  0.94654  1
 O  O3  1  0.53511  0.97236  0.72447  1
 O  O4  1  0.20776  0.71224  0.88225  1
 Zn  Zn1  1  0.69930  0.07981  0.83339  1
