CIF file written using JARVIS-Tools package.
data_TiSnO4
_symmetry_space_group_name_H-M  'Cm'
_cell_length_a       7.41236
_cell_length_b       5.66441
_cell_length_c       5.66441
_cell_angle_alpha    72.034
_cell_angle_beta     72.1737
_cell_angle_gamma    72.1737

_symmetry_Int_Tables_number  8
_chemical_formula_structural  TiSnO4
_chemical_formula_sum  Ti3Sn3O2
_cell_volume  209.40385831941978
_cell_formula_units_Z  3
loop_
  _symmetry_equiv_pos_site_id
 _symmetry_equiv_pos_as_xyz
 1  'x, y, z'
loop_
 _atom_site_type_symbol
 _atom_site_label
 _atom_site_symmetry_multiplicity
 _atom_site_fract_x
 _atom_site_fract_y
 _atom_site_fract_z
 _atom_site_fract_occupancy
 O  O1  1  0.02571  0.77920  0.77920  1
 O  O2  1  0.32363  0.36761  0.98401  1
 O  O3  1  0.66007  0.03347  0.62578  1
 O  O4  1  0.32363  0.98401  0.36761  1
 O  O5  1  0.63428  0.55242  0.55242  1
 O  O6  1  0.28465  0.90668  0.90668  1
 O  O7  1  0.71141  0.09970  0.09970  1
 O  O8  1  0.37085  0.42978  0.42978  1
 O  O9  1  0.01062  0.69161  0.29461  1
 O  O10  1  0.66007  0.62578  0.03347  1
 O  O11  1  0.01062  0.29461  0.69161  1
 O  O12  1  0.95784  0.22955  0.22955  1
 Sn  Sn1  1  0.49755  0.00149  0.00149  1
 Sn  Sn2  1  0.32993  0.66812  0.66812  1
 Sn  Sn3  1  0.83370  0.66317  0.66317  1
 Ti  Ti1  1  0.99841  0.00394  0.00394  1
 Ti  Ti2  1  0.17963  0.34473  0.34473  1
 Ti  Ti3  1  0.68741  0.32414  0.32414  1
