CIF file written using JARVIS-Tools package.
data_Ti4Pd
_symmetry_space_group_name_H-M  'I4/mmm'
_cell_length_a       8.79899
_cell_length_b       8.79899
_cell_length_c       8.799
_cell_angle_alpha    159.712
_cell_angle_beta     159.712
_cell_angle_gamma    28.8452

_symmetry_Int_Tables_number  139
_chemical_formula_structural  Ti4Pd
_chemical_formula_sum  Ti4Pd
_cell_volume  81.86007805674683
_cell_formula_units_Z  1
loop_
  _symmetry_equiv_pos_site_id
 _symmetry_equiv_pos_as_xyz
 1  'x, y, z'
loop_
 _atom_site_type_symbol
 _atom_site_label
 _atom_site_symmetry_multiplicity
 _atom_site_fract_x
 _atom_site_fract_y
 _atom_site_fract_z
 _atom_site_fract_occupancy
 Pd  Pd1  1  0.00000  0.00000  0.00000  1
 Ti  Ti1  1  0.40340  0.40340  -0.00000  1
 Ti  Ti2  1  0.80321  0.80321  -0.00000  1
 Ti  Ti3  1  0.19679  0.19679  0.00000  1
 Ti  Ti4  1  0.59660  0.59660  0.00000  1
