CIF file written using JARVIS-Tools package.
data_CCl3
_symmetry_space_group_name_H-M  'Fmmm'
_cell_length_a       7.43186
_cell_length_b       6.88836
_cell_length_c       6.17141
_cell_angle_alpha    69.1197
_cell_angle_beta     59.9969
_cell_angle_gamma    50.8834

_symmetry_Int_Tables_number  69
_chemical_formula_structural  CCl3
_chemical_formula_sum  C2Cl6
_cell_volume  211.88122057193945
_cell_formula_units_Z  2
loop_
  _symmetry_equiv_pos_site_id
 _symmetry_equiv_pos_as_xyz
 1  'x, y, z'
loop_
 _atom_site_type_symbol
 _atom_site_label
 _atom_site_symmetry_multiplicity
 _atom_site_fract_x
 _atom_site_fract_y
 _atom_site_fract_z
 _atom_site_fract_occupancy
 C  C1  1  0.92018  0.95971  0.07982  1
 C  C2  1  0.04029  0.07982  0.95971  1
 Cl  Cl1  1  0.68925  0.03275  0.00671  1
 Cl  Cl2  1  0.99329  0.72870  0.31075  1
 Cl  Cl3  1  0.61173  0.38827  0.38827  1
 Cl  Cl4  1  0.27130  0.00671  0.03275  1
 Cl  Cl5  1  0.96725  0.31075  0.72870  1
 Cl  Cl6  1  0.34872  0.65128  0.65128  1
