CIF file written using JARVIS-Tools package.
data_H6C11O4
_symmetry_space_group_name_H-M  'P-1'
_cell_length_a       7.8207
_cell_length_b       7.9093
_cell_length_c       7.88793
_cell_angle_alpha    85.2228
_cell_angle_beta     61.9313
_cell_angle_gamma    69.0838

_symmetry_Int_Tables_number  2
_chemical_formula_structural  H6C11O4
_chemical_formula_sum  H2C22O8
_cell_volume  400.0307939994574
_cell_formula_units_Z  2
loop_
  _symmetry_equiv_pos_site_id
 _symmetry_equiv_pos_as_xyz
 1  'x, y, z'
loop_
 _atom_site_type_symbol
 _atom_site_label
 _atom_site_symmetry_multiplicity
 _atom_site_fract_x
 _atom_site_fract_y
 _atom_site_fract_z
 _atom_site_fract_occupancy
 C  C1  1  0.07433  0.65617  0.19659  1
 C  C2  1  0.92567  0.34383  0.80341  1
 C  C3  1  0.13975  0.61454  0.00749  1
 C  C4  1  0.86025  0.38546  0.99251  1
 C  C5  1  0.00844  0.76248  0.94903  1
 C  C6  1  0.99156  0.23752  0.05097  1
 C  C7  1  0.90190  0.83579  0.27209  1
 C  C8  1  0.09810  0.16421  0.72791  1
 C  C9  1  0.32017  0.38317  0.21765  1
 C  C10  1  0.31038  0.44962  0.90346  1
 C  C11  1  0.68962  0.55038  0.09654  1
 C  C12  1  0.56970  0.17283  0.92239  1
 C  C13  1  0.40056  0.33640  0.01195  1
 C  C14  1  0.64790  0.12227  0.72801  1
 C  C15  1  0.35210  0.87773  0.27199  1
 C  C16  1  0.43030  0.82717  0.07761  1
 C  C17  1  0.44120  0.76586  0.37880  1
 C  C18  1  0.39095  0.39651  0.70753  1
 C  C19  1  0.60905  0.60349  0.29247  1
 C  C20  1  0.55880  0.23414  0.62120  1
 C  C21  1  0.59944  0.66360  0.98805  1
 C  C22  1  0.67983  0.61683  0.78235  1
 H  H1  1  0.63702  0.08720  0.00757  1
 H  H2  1  0.38012  0.80472  0.53164  1
 H  H3  1  0.94700  0.93767  0.31142  1
 H  H4  1  0.75858  0.82772  0.39411  1
 H  H5  1  0.67938  0.51764  0.37552  1
 H  H6  1  0.32062  0.48236  0.62448  1
 H  H7  1  0.24142  0.17228  0.60589  1
 H  H8  1  0.61988  0.19528  0.46836  1
 H  H9  1  0.22189  0.00624  0.33867  1
 H  H10  1  0.77811  0.99376  0.66133  1
 H  H11  1  0.36298  0.91280  -0.00757  1
 H  H12  1  0.05300  0.06233  0.68858  1
 O  O1  1  0.99262  0.21787  0.20583  1
 O  O2  1  0.86744  0.89054  0.10729  1
 O  O3  1  0.38214  0.29316  0.32368  1
 O  O4  1  0.61786  0.70684  0.67632  1
 O  O5  1  0.15313  0.55264  0.30415  1
 O  O6  1  0.84687  0.44736  0.69585  1
 O  O7  1  0.00738  0.78213  0.79417  1
 O  O8  1  0.13256  0.10946  0.89271  1
