CIF file written using JARVIS-Tools package.
data_H10C17SO
_symmetry_space_group_name_H-M  'Pm'
_cell_length_a       3.70509
_cell_length_b       5.55363
_cell_length_c       13.3959
_cell_angle_alpha    89.9466
_cell_angle_beta     89.7975
_cell_angle_gamma    86.1158

_symmetry_Int_Tables_number  6
_chemical_formula_structural  H10C17SO
_chemical_formula_sum  H0C7SO
_cell_volume  275.0089037388526
_cell_formula_units_Z  1
loop_
  _symmetry_equiv_pos_site_id
 _symmetry_equiv_pos_as_xyz
 1  'x, y, z'
loop_
 _atom_site_type_symbol
 _atom_site_label
 _atom_site_symmetry_multiplicity
 _atom_site_fract_x
 _atom_site_fract_y
 _atom_site_fract_z
 _atom_site_fract_occupancy
 C  C1  1  0.06546  0.33284  0.09188  1
 C  C2  1  0.11227  0.36133  0.37393  1
 C  C3  1  0.13959  0.26961  0.74540  1
 C  C4  1  0.27200  0.15128  0.41536  1
 C  C5  1  0.77344  0.65564  0.96831  1
 C  C6  1  0.13871  0.26931  0.19082  1
 C  C7  1  0.05039  0.42858  0.27014  1
 C  C8  1  0.27187  0.15126  0.52069  1
 C  C9  1  0.89384  0.55954  0.06814  1
 C  C10  1  0.89399  0.55965  0.86832  1
 C  C11  1  0.89031  0.65843  0.69095  1
 C  C12  1  0.81352  0.72021  0.14776  1
 C  C13  1  0.81269  0.72006  0.78870  1
 C  C14  1  0.89132  0.65861  0.24540  1
 C  C15  1  0.05021  0.42860  0.66611  1
 C  C16  1  0.11204  0.36130  0.56225  1
 C  C17  1  0.06657  0.33320  0.84444  1
 H  H1  1  0.26261  0.09019  0.20656  1
 H  H2  1  0.82689  0.79071  0.63223  1
 H  H3  1  0.14069  0.19870  0.90088  1
 H  H4  1  0.38468  0.00064  0.56510  1
 H  H5  1  0.68823  0.89712  0.12972  1
 H  H6  1  0.26426  0.09069  0.72957  1
 H  H7  1  0.82883  0.79111  0.30413  1
 H  H8  1  0.68666  0.89678  0.80685  1
 H  H9  1  0.13847  0.19802  0.03544  1
 H  H10  1  0.38488  0.00068  0.37084  1
 O  O1  1  0.55598  0.83767  0.96847  1
 S  S1  1  0.96305  0.55839  0.46815  1
