CIF file written using JARVIS-Tools package.
data_AlPd
_symmetry_space_group_name_H-M  'P2_13'
_cell_length_a       4.9089
_cell_length_b       4.9089
_cell_length_c       4.9089
_cell_angle_alpha    90
_cell_angle_beta     90
_cell_angle_gamma    90

_symmetry_Int_Tables_number  198
_chemical_formula_structural  AlPd
_chemical_formula_sum  Al4Pd4
_cell_volume  118.291219302948
_cell_formula_units_Z  4
loop_
  _symmetry_equiv_pos_site_id
 _symmetry_equiv_pos_as_xyz
 1  'x, y, z'
loop_
 _atom_site_type_symbol
 _atom_site_label
 _atom_site_symmetry_multiplicity
 _atom_site_fract_x
 _atom_site_fract_y
 _atom_site_fract_z
 _atom_site_fract_occupancy
 Al  Al1  1  0.84402  0.84402  0.84402  1
 Al  Al2  1  0.65598  0.15598  0.34402  1
 Al  Al3  1  0.34402  0.65598  0.15598  1
 Al  Al4  1  0.15598  0.34402  0.65598  1
 Pd  Pd1  1  0.14830  0.14830  0.14830  1
 Pd  Pd2  1  0.35170  0.85170  0.64830  1
 Pd  Pd3  1  0.64830  0.35170  0.85170  1
 Pd  Pd4  1  0.85170  0.64830  0.35170  1
