CIF file written using JARVIS-Tools package.
data_CoRe3
_symmetry_space_group_name_H-M  'P6_3/mmc'
_cell_length_a       5.42918
_cell_length_b       5.42918
_cell_length_c       4.35645
_cell_angle_alpha    90
_cell_angle_beta     90
_cell_angle_gamma    120

_symmetry_Int_Tables_number  194
_chemical_formula_structural  CoRe3
_chemical_formula_sum  Co2Re6
_cell_volume  111.20696460523455
_cell_formula_units_Z  2
loop_
  _symmetry_equiv_pos_site_id
 _symmetry_equiv_pos_as_xyz
 1  'x, y, z'
loop_
 _atom_site_type_symbol
 _atom_site_label
 _atom_site_symmetry_multiplicity
 _atom_site_fract_x
 _atom_site_fract_y
 _atom_site_fract_z
 _atom_site_fract_occupancy
 Co  Co1  1  0.33333  0.66667  0.75000  1
 Co  Co2  1  0.66667  0.33333  0.25000  1
 Re  Re1  1  0.16700  0.33399  0.25000  1
 Re  Re2  1  0.66601  0.83301  0.25000  1
 Re  Re3  1  0.16700  0.83301  0.25000  1
 Re  Re4  1  0.83300  0.66601  0.75000  1
 Re  Re5  1  0.33399  0.16699  0.75000  1
 Re  Re6  1  0.83300  0.16699  0.75000  1
