CIF file written using JARVIS-Tools package.
data_CrB2W
_symmetry_space_group_name_H-M  'Amm2'
_cell_length_a       4.38668
_cell_length_b       4.38669
_cell_length_c       3.00718
_cell_angle_alpha    90
_cell_angle_beta     90
_cell_angle_gamma    138.829

_symmetry_Int_Tables_number  38
_chemical_formula_structural  CrB2W
_chemical_formula_sum  CrB2W
_cell_volume  38.094649291415784
_cell_formula_units_Z  1
loop_
  _symmetry_equiv_pos_site_id
 _symmetry_equiv_pos_as_xyz
 1  'x, y, z'
loop_
 _atom_site_type_symbol
 _atom_site_label
 _atom_site_symmetry_multiplicity
 _atom_site_fract_x
 _atom_site_fract_y
 _atom_site_fract_z
 _atom_site_fract_occupancy
 B  B1  1  0.43491  0.56509  0.50000  1
 B  B2  1  0.55719  0.44281  0.00000  1
 Cr  Cr1  1  0.85857  0.14143  0.00000  1
 W  W1  1  0.14933  0.85067  0.50000  1
