CIF file written using JARVIS-Tools package.
data_Mn2AsP
_symmetry_space_group_name_H-M  'Pmc2_1'
_cell_length_a       3.32298
_cell_length_b       5.3534
_cell_length_c       5.97146
_cell_angle_alpha    90
_cell_angle_beta     90
_cell_angle_gamma    90

_symmetry_Int_Tables_number  26
_chemical_formula_structural  Mn2AsP
_chemical_formula_sum  Mn4As2P2
_cell_volume  106.22788995566906
_cell_formula_units_Z  2
loop_
  _symmetry_equiv_pos_site_id
 _symmetry_equiv_pos_as_xyz
 1  'x, y, z'
loop_
 _atom_site_type_symbol
 _atom_site_label
 _atom_site_symmetry_multiplicity
 _atom_site_fract_x
 _atom_site_fract_y
 _atom_site_fract_z
 _atom_site_fract_occupancy
 As  As1  1  0.50000  0.30651  0.67288  1
 As  As2  1  0.50000  0.80651  0.32712  1
 Mn  Mn1  1  0.50000  0.49413  0.04996  1
 Mn  Mn2  1  0.50000  0.99413  0.95004  1
 Mn  Mn3  1  0.00000  0.49655  0.43753  1
 Mn  Mn4  1  0.00000  0.99655  0.56247  1
 P  P1  1  0.00000  0.70282  0.83211  1
 P  P2  1  0.00000  0.20282  0.16789  1
