CIF file written using JARVIS-Tools package.
data_Ge2N2O
_symmetry_space_group_name_H-M  'Imm2'
_cell_length_a       5.45139
_cell_length_b       5.45139
_cell_length_c       5.45139
_cell_angle_alpha    147.017
_cell_angle_beta     127.078
_cell_angle_gamma    63.7857

_symmetry_Int_Tables_number  44
_chemical_formula_structural  Ge2N2O
_chemical_formula_sum  Ge2N2O
_cell_volume  69.59355336554684
_cell_formula_units_Z  1
loop_
  _symmetry_equiv_pos_site_id
 _symmetry_equiv_pos_as_xyz
 1  'x, y, z'
loop_
 _atom_site_type_symbol
 _atom_site_label
 _atom_site_symmetry_multiplicity
 _atom_site_fract_x
 _atom_site_fract_y
 _atom_site_fract_z
 _atom_site_fract_occupancy
 Ge  Ge1  1  0.57666  0.32581  0.25086  1
 Ge  Ge2  1  0.92505  0.67419  0.25086  1
 N  N1  1  0.75318  0.80063  0.95256  1
 N  N2  1  0.15193  0.19937  0.95256  1
 O  O1  1  0.59368  0.50000  0.09368  1
