CIF file written using JARVIS-Tools package.
data_H4C8S2O
_symmetry_space_group_name_H-M  'P1'
_cell_length_a       3.87227
_cell_length_b       6.85559
_cell_length_c       7.32287
_cell_angle_alpha    99.2174
_cell_angle_beta     90.3167
_cell_angle_gamma    106.375

_symmetry_Int_Tables_number  1
_chemical_formula_structural  H4C8S2O
_chemical_formula_sum  H4C8S2O
_cell_volume  183.8402629624426
_cell_formula_units_Z  1
loop_
  _symmetry_equiv_pos_site_id
 _symmetry_equiv_pos_as_xyz
 1  'x, y, z'
loop_
 _atom_site_type_symbol
 _atom_site_label
 _atom_site_symmetry_multiplicity
 _atom_site_fract_x
 _atom_site_fract_y
 _atom_site_fract_z
 _atom_site_fract_occupancy
 C  C1  1  0.14602  0.71027  0.54140  1
 C  C2  1  0.10072  0.64643  0.71206  1
 C  C3  1  0.08297  0.56363  0.37769  1
 C  C4  1  0.01794  0.43475  0.72307  1
 C  C5  1  0.95265  0.35201  0.38857  1
 C  C6  1  0.93351  0.28814  0.55932  1
 C  C7  1  0.05719  0.37288  0.90234  1
 C  C8  1  0.18420  0.62543  0.19882  1
 H  H1  1  0.88961  0.23907  0.26191  1
 H  H2  1  0.15138  0.75942  0.83867  1
 H  H3  1  0.23218  0.87406  0.53307  1
 H  H4  1  0.85497  0.12434  0.56764  1
 O  O1  1  0.96253  0.49929  0.05012  1
 S  S1  1  0.51666  0.82334  0.16839  1
 S  S2  1  0.19085  0.17473  0.93402  1
