CIF file written using JARVIS-Tools package.
data_Ga2HgS4
_symmetry_space_group_name_H-M  'I-4'
_cell_length_a       5.58119
_cell_length_b       5.5812
_cell_length_c       6.5018
_cell_angle_alpha    115.417
_cell_angle_beta     115.417
_cell_angle_gamma    90

_symmetry_Int_Tables_number  82
_chemical_formula_structural  Ga2HgS4
_chemical_formula_sum  Ga2HgS4
_cell_volume  160.95259269945805
_cell_formula_units_Z  1
loop_
  _symmetry_equiv_pos_site_id
 _symmetry_equiv_pos_as_xyz
 1  'x, y, z'
loop_
 _atom_site_type_symbol
 _atom_site_label
 _atom_site_symmetry_multiplicity
 _atom_site_fract_x
 _atom_site_fract_y
 _atom_site_fract_z
 _atom_site_fract_occupancy
 Ga  Ga1  1  0.25000  0.75000  0.50000  1
 Ga  Ga2  1  0.50000  0.50000  0.00000  1
 Hg  Hg1  1  0.00000  0.00000  0.00000  1
 S  S1  1  0.86427  0.87112  0.27816  1
 S  S2  1  0.59297  0.13573  0.72184  1
 S  S3  1  0.12888  0.58612  0.72184  1
 S  S4  1  0.41388  0.40703  0.27816  1
