CIF file written using JARVIS-Tools package.
data_YFeNi
_symmetry_space_group_name_H-M  'Imma'
_cell_length_a       5.10108
_cell_length_b       5.10109
_cell_length_c       5.10109
_cell_angle_alpha    93.4707
_cell_angle_beta     55.4662
_cell_angle_gamma    119.58

_symmetry_Int_Tables_number  74
_chemical_formula_structural  YFeNi
_chemical_formula_sum  Y2Fe2Ni2
_cell_volume  90.52978440551128
_cell_formula_units_Z  2
loop_
  _symmetry_equiv_pos_site_id
 _symmetry_equiv_pos_as_xyz
 1  'x, y, z'
loop_
 _atom_site_type_symbol
 _atom_site_label
 _atom_site_symmetry_multiplicity
 _atom_site_fract_x
 _atom_site_fract_y
 _atom_site_fract_z
 _atom_site_fract_occupancy
 Fe  Fe1  1  0.75000  0.37500  0.87500  1
 Fe  Fe2  1  0.25000  0.37500  0.37500  1
 Ni  Ni1  1  0.25000  0.87500  0.37500  1
 Ni  Ni2  1  0.75000  0.37500  0.37500  1
 Y  Y1  1  0.50000  0.74476  0.75524  1
 Y  Y2  1  0.00000  0.00524  0.99476  1
