CIF file written using JARVIS-Tools package.
data_BaS2
_symmetry_space_group_name_H-M  'C2/c'
_cell_length_a       4.77987
_cell_length_b       5.25408
_cell_length_c       8.34452
_cell_angle_alpha    79.7943
_cell_angle_beta     73.357
_cell_angle_gamma    62.9433

_symmetry_Int_Tables_number  15
_chemical_formula_structural  BaS2
_chemical_formula_sum  Ba2S4
_cell_volume  178.53897109286237
_cell_formula_units_Z  2
loop_
  _symmetry_equiv_pos_site_id
 _symmetry_equiv_pos_as_xyz
 1  'x, y, z'
loop_
 _atom_site_type_symbol
 _atom_site_label
 _atom_site_symmetry_multiplicity
 _atom_site_fract_x
 _atom_site_fract_y
 _atom_site_fract_z
 _atom_site_fract_occupancy
 Ba  Ba1  1  0.14211  0.25000  0.75000  1
 Ba  Ba2  1  0.85789  0.75000  0.25000  1
 S  S1  1  0.48294  0.30049  0.02226  1
 S  S2  1  0.80569  0.19951  0.47774  1
 S  S3  1  0.19431  0.80049  0.52226  1
 S  S4  1  0.51706  0.69951  0.97774  1
