CIF file written using JARVIS-Tools package.
data_ZrH12C8O4
_symmetry_space_group_name_H-M  'P1'
_cell_length_a       4.11984
_cell_length_b       4.16728
_cell_length_c       11.9689
_cell_angle_alpha    85.914
_cell_angle_beta     81.3897
_cell_angle_gamma    71.4624

_symmetry_Int_Tables_number  1
_chemical_formula_structural  ZrH12C8O4
_chemical_formula_sum  ZrH2C8O4
_cell_volume  192.56972910773558
_cell_formula_units_Z  1
loop_
  _symmetry_equiv_pos_site_id
 _symmetry_equiv_pos_as_xyz
 1  'x, y, z'
loop_
 _atom_site_type_symbol
 _atom_site_label
 _atom_site_symmetry_multiplicity
 _atom_site_fract_x
 _atom_site_fract_y
 _atom_site_fract_z
 _atom_site_fract_occupancy
 C  C1  1  0.92463  0.89423  0.45753  1
 C  C2  1  0.99064  0.05292  0.56127  1
 C  C3  1  0.45212  0.84554  0.96220  1
 C  C4  1  0.23124  0.61635  0.39827  1
 C  C5  1  0.43167  0.72890  0.29238  1
 C  C6  1  0.25956  0.78700  0.18444  1
 C  C7  1  0.50346  0.86760  0.08368  1
 C  C8  1  0.96400  0.85315  0.66974  1
 H  H1  1  0.19863  0.55712  0.16831  1
 H  H2  1  0.49198  0.95837  0.30872  1
 H  H3  1  0.76259  0.68240  0.09152  1
 H  H4  1  0.68347  0.53112  0.27450  1
 H  H5  1  0.70814  0.79505  0.48421  1
 H  H6  1  0.40800  0.49699  0.46007  1
 H  H7  1  0.13857  0.41623  0.37326  1
 H  H8  1  0.24484  0.09049  0.54816  1
 H  H9  1  0.79492  0.30053  0.57656  1
 H  H10  1  0.83292  0.09955  0.39611  1
 H  H11  1  0.53410  0.11612  0.09315  1
 H  H12  1  0.01322  0.99452  0.19429  1
 O  O1  1  0.71009  0.96498  0.74703  1
 O  O2  1  0.13180  0.04846  0.92625  1
 O  O3  1  0.19557  0.57145  0.69183  1
 O  O4  1  0.48291  0.50842  0.93382  1
 Zr  Zr1  1  0.98574  0.59506  0.87620  1
