CIF file written using JARVIS-Tools package.
data_DyTlO2
_symmetry_space_group_name_H-M  'R-3m'
_cell_length_a       3.49504
_cell_length_b       3.49504
_cell_length_c       6.7564
_cell_angle_alpha    75.0103
_cell_angle_beta     90
_cell_angle_gamma    60

_symmetry_Int_Tables_number  166
_chemical_formula_structural  DyTlO2
_chemical_formula_sum  DyTlO2
_cell_volume  68.21215605833804
_cell_formula_units_Z  1
loop_
  _symmetry_equiv_pos_site_id
 _symmetry_equiv_pos_as_xyz
 1  'x, y, z'
loop_
 _atom_site_type_symbol
 _atom_site_label
 _atom_site_symmetry_multiplicity
 _atom_site_fract_x
 _atom_site_fract_y
 _atom_site_fract_z
 _atom_site_fract_occupancy
 Dy  Dy1  1  0.50000  -0.00000  0.50000  1
 O  O1  1  0.77555  0.44890  0.32665  1
 O  O2  1  0.22445  0.55110  0.67335  1
 Tl  Tl1  1  0.00000  0.00000  0.00000  1
