CIF file written using JARVIS-Tools package.
data_VCr2S4
_symmetry_space_group_name_H-M  'Cm'
_cell_length_a       3.34971
_cell_length_b       5.83952
_cell_length_c       6.39109
_cell_angle_alpha    114.707
_cell_angle_beta     74.8077
_cell_angle_gamma    90

_symmetry_Int_Tables_number  8
_chemical_formula_structural  VCr2S4
_chemical_formula_sum  VCr2S4
_cell_volume  108.74239388596853
_cell_formula_units_Z  1
loop_
  _symmetry_equiv_pos_site_id
 _symmetry_equiv_pos_as_xyz
 1  'x, y, z'
loop_
 _atom_site_type_symbol
 _atom_site_label
 _atom_site_symmetry_multiplicity
 _atom_site_fract_x
 _atom_site_fract_y
 _atom_site_fract_z
 _atom_site_fract_occupancy
 Cr  Cr1  1  0.73826  0.31336  0.52348  1
 Cr  Cr2  1  0.00520  0.99728  0.98960  1
 S  S1  1  0.36285  0.98301  0.27429  1
 S  S2  1  0.63745  0.02441  0.72509  1
 S  S3  1  0.10923  0.54665  0.78154  1
 S  S4  1  0.88847  0.44501  0.22305  1
 V  V1  1  0.25853  0.69028  0.48294  1
