CIF file written using JARVIS-Tools package.
data_Er3GaS6
_symmetry_space_group_name_H-M  'Cmc2_1'
_cell_length_a       6.40353
_cell_length_b       8.43127
_cell_length_c       8.43127
_cell_angle_alpha    102.235
_cell_angle_beta     90
_cell_angle_gamma    90

_symmetry_Int_Tables_number  36
_chemical_formula_structural  Er3GaS6
_chemical_formula_sum  Er6Ga2S2
_cell_volume  444.86395092439335
_cell_formula_units_Z  2
loop_
  _symmetry_equiv_pos_site_id
 _symmetry_equiv_pos_as_xyz
 1  'x, y, z'
loop_
 _atom_site_type_symbol
 _atom_site_label
 _atom_site_symmetry_multiplicity
 _atom_site_fract_x
 _atom_site_fract_y
 _atom_site_fract_z
 _atom_site_fract_occupancy
 Er  Er1  1  0.74558  0.28352  0.08573  1
 Er  Er2  1  0.74558  0.91427  0.71648  1
 Er  Er3  1  0.24558  0.08573  0.28352  1
 Er  Er4  1  0.83763  0.40281  0.59719  1
 Er  Er5  1  0.33763  0.59719  0.40281  1
 Er  Er6  1  0.24558  0.71648  0.91427  1
 Ga  Ga1  1  0.21228  0.20187  0.79813  1
 Ga  Ga2  1  0.71228  0.79813  0.20187  1
 S  S1  1  0.56308  0.96065  0.03935  1
 S  S2  1  0.06608  0.78128  0.21872  1
 S  S3  1  0.56608  0.21872  0.78128  1
 S  S4  1  0.04304  0.69495  0.63057  1
 S  S5  1  0.54304  0.30505  0.36943  1
 S  S6  1  0.52814  0.89904  0.43530  1
 S  S7  1  0.54304  0.63057  0.69495  1
 S  S8  1  0.06308  0.03935  0.96065  1
 S  S9  1  0.52814  0.56470  0.10096  1
 S  S10  1  0.02814  0.10096  0.56470  1
 S  S11  1  0.04304  0.36943  0.30505  1
 S  S12  1  0.02814  0.43530  0.89904  1
