CIF file written using JARVIS-Tools package.
data_SrSmAlO4
_symmetry_space_group_name_H-M  'I4mm'
_cell_length_a       6.71024
_cell_length_b       6.71024
_cell_length_c       6.71024
_cell_angle_alpha    147.7
_cell_angle_beta     147.7
_cell_angle_gamma    46.3283

_symmetry_Int_Tables_number  107
_chemical_formula_structural  SrSmAlO4
_chemical_formula_sum  SrSmAlO4
_cell_volume  85.96769036674748
_cell_formula_units_Z  1
loop_
  _symmetry_equiv_pos_site_id
 _symmetry_equiv_pos_as_xyz
 1  'x, y, z'
loop_
 _atom_site_type_symbol
 _atom_site_label
 _atom_site_symmetry_multiplicity
 _atom_site_fract_x
 _atom_site_fract_y
 _atom_site_fract_z
 _atom_site_fract_occupancy
 Al  Al1  1  0.00311  0.00311  0.00000  1
 O  O1  1  0.83899  0.83899  0.00000  1
 O  O2  1  0.16743  0.16743  -0.00000  1
 O  O3  1  0.99298  0.49298  0.50000  1
 O  O4  1  0.49298  0.99298  0.50000  1
 Sm  Sm1  1  0.36003  0.36003  -0.00000  1
 Sr  Sr1  1  0.64448  0.64448  -0.00000  1
