CIF file written using JARVIS-Tools package.
data_Pr3B2N4
_symmetry_space_group_name_H-M  'Immm'
_cell_length_a       3.59075
_cell_length_b       6.35995
_cell_length_c       6.57286
_cell_angle_alpha    118.934
_cell_angle_beta     105.852
_cell_angle_gamma    90

_symmetry_Int_Tables_number  71
_chemical_formula_structural  Pr3B2N4
_chemical_formula_sum  Pr3B2N4
_cell_volume  124.80530073993789
_cell_formula_units_Z  1
loop_
  _symmetry_equiv_pos_site_id
 _symmetry_equiv_pos_as_xyz
 1  'x, y, z'
loop_
 _atom_site_type_symbol
 _atom_site_label
 _atom_site_symmetry_multiplicity
 _atom_site_fract_x
 _atom_site_fract_y
 _atom_site_fract_z
 _atom_site_fract_occupancy
 B  B1  1  0.50000  0.35767  0.00000  1
 B  B2  1  0.50000  0.64233  -0.00000  1
 N  N1  1  0.61780  0.36313  0.23560  1
 N  N2  1  0.61780  0.87247  0.23560  1
 N  N3  1  0.38220  0.12753  0.76440  1
 N  N4  1  0.38220  0.63687  0.76440  1
 Pr  Pr1  1  0.20283  0.70283  0.40566  1
 Pr  Pr2  1  0.79717  0.29717  0.59434  1
 Pr  Pr3  1  0.00000  0.00000  0.00000  1
