CIF file written using JARVIS-Tools package.
data_MgBi5
_symmetry_space_group_name_H-M  'R32'
_cell_length_a       6.74418
_cell_length_b       6.74417
_cell_length_c       6.74417
_cell_angle_alpha    53.3897
_cell_angle_beta     53.3897
_cell_angle_gamma    53.3898

_symmetry_Int_Tables_number  155
_chemical_formula_structural  MgBi5
_chemical_formula_sum  MgBi5
_cell_volume  183.3435054734698
_cell_formula_units_Z  1
loop_
  _symmetry_equiv_pos_site_id
 _symmetry_equiv_pos_as_xyz
 1  'x, y, z'
loop_
 _atom_site_type_symbol
 _atom_site_label
 _atom_site_symmetry_multiplicity
 _atom_site_fract_x
 _atom_site_fract_y
 _atom_site_fract_z
 _atom_site_fract_occupancy
 Bi  Bi1  1  0.50000  0.15241  0.84759  1
 Bi  Bi2  1  0.84759  0.50000  0.15241  1
 Bi  Bi3  1  0.15241  0.84759  0.50000  1
 Bi  Bi4  1  0.32992  0.32992  0.32992  1
 Bi  Bi5  1  0.67008  0.67008  0.67008  1
 Mg  Mg1  1  0.00000  0.00000  0.00000  1
