CIF file written using JARVIS-Tools package.
data_TiH8C5O4
_symmetry_space_group_name_H-M  'P1'
_cell_length_a       5.22693
_cell_length_b       5.62199
_cell_length_c       6.09991
_cell_angle_alpha    103.704
_cell_angle_beta     92.2283
_cell_angle_gamma    96.8266

_symmetry_Int_Tables_number  1
_chemical_formula_structural  TiH8C5O4
_chemical_formula_sum  TiH8C5O4
_cell_volume  172.49466181046282
_cell_formula_units_Z  1
loop_
  _symmetry_equiv_pos_site_id
 _symmetry_equiv_pos_as_xyz
 1  'x, y, z'
loop_
 _atom_site_type_symbol
 _atom_site_label
 _atom_site_symmetry_multiplicity
 _atom_site_fract_x
 _atom_site_fract_y
 _atom_site_fract_z
 _atom_site_fract_occupancy
 C  C1  1  0.31411  0.35812  0.76419  1
 C  C2  1  0.23763  0.96125  0.08860  1
 C  C3  1  0.80000  0.37608  0.29029  1
 C  C4  1  0.81148  0.78596  0.56314  1
 C  C5  1  0.67240  0.61074  0.35716  1
 H  H1  1  0.41864  0.24624  0.63321  1
 H  H2  1  0.26606  0.08034  0.26067  1
 H  H3  1  0.12461  0.78394  0.09185  1
 H  H4  1  0.45016  0.44627  0.91127  1
 H  H5  1  0.42238  0.92701  0.01447  1
 H  H6  1  0.22521  0.49832  0.70154  1
 H  H7  1  0.47036  0.56460  0.39213  1
 H  H8  1  0.67525  0.71068  0.22239  1
 O  O1  1  0.88060  0.32859  0.08241  1
 O  O2  1  0.06011  0.81424  0.58983  1
 O  O3  1  0.82313  0.24337  0.42127  1
 O  O4  1  0.69183  0.92100  0.71363  1
 Ti  Ti1  1  0.04855  0.11320  0.86456  1
