CIF file written using JARVIS-Tools package.
data_Pr2CdAu2
_symmetry_space_group_name_H-M  'P4/mbm'
_cell_length_a       8.1366
_cell_length_b       8.1366
_cell_length_c       3.92877
_cell_angle_alpha    90
_cell_angle_beta     90
_cell_angle_gamma    90

_symmetry_Int_Tables_number  127
_chemical_formula_structural  Pr2CdAu2
_chemical_formula_sum  Pr4Cd2Au4
_cell_volume  260.1009341905433
_cell_formula_units_Z  2
loop_
  _symmetry_equiv_pos_site_id
 _symmetry_equiv_pos_as_xyz
 1  'x, y, z'
loop_
 _atom_site_type_symbol
 _atom_site_label
 _atom_site_symmetry_multiplicity
 _atom_site_fract_x
 _atom_site_fract_y
 _atom_site_fract_z
 _atom_site_fract_occupancy
 Au  Au1  1  0.12816  0.62816  0.00000  1
 Au  Au2  1  0.87184  0.37184  0.00000  1
 Au  Au3  1  0.62816  0.87184  0.00000  1
 Au  Au4  1  0.37184  0.12816  0.00000  1
 Cd  Cd1  1  0.00000  0.00000  0.00000  1
 Cd  Cd2  1  0.50000  0.50000  0.00000  1
 Pr  Pr1  1  0.67182  0.17182  0.50000  1
 Pr  Pr2  1  0.32818  0.82818  0.50000  1
 Pr  Pr3  1  0.17182  0.32818  0.50000  1
 Pr  Pr4  1  0.82818  0.67182  0.50000  1
