CIF file written using JARVIS-Tools package.
data_CaTm2Te4
_symmetry_space_group_name_H-M  'P2/m'
_cell_length_a       4.34984
_cell_length_b       7.4399
_cell_length_c       7.65071
_cell_angle_alpha    72.0137
_cell_angle_beta     90
_cell_angle_gamma    90

_symmetry_Int_Tables_number  10
_chemical_formula_structural  CaTm2Te4
_chemical_formula_sum  CaTm2Te4
_cell_volume  235.49526650766722
_cell_formula_units_Z  1
loop_
  _symmetry_equiv_pos_site_id
 _symmetry_equiv_pos_as_xyz
 1  'x, y, z'
loop_
 _atom_site_type_symbol
 _atom_site_label
 _atom_site_symmetry_multiplicity
 _atom_site_fract_x
 _atom_site_fract_y
 _atom_site_fract_z
 _atom_site_fract_occupancy
 Ca  Ca1  1  0.00000  0.50000  0.50000  1
 Te  Te1  1  0.50000  0.76146  0.24485  1
 Te  Te2  1  0.00000  0.25243  0.23915  1
 Te  Te3  1  0.50000  0.23854  0.75515  1
 Te  Te4  1  0.00000  0.74757  0.76085  1
 Tm  Tm1  1  0.00000  0.00000  0.00000  1
 Tm  Tm2  1  0.50000  0.50000  -0.00000  1
