CIF file written using JARVIS-Tools package.
data_CeB2Ir2Rh
_symmetry_space_group_name_H-M  'Cmmm'
_cell_length_a       5.47714
_cell_length_b       5.47715
_cell_length_c       3.17771
_cell_angle_alpha    90
_cell_angle_beta     90
_cell_angle_gamma    119.838

_symmetry_Int_Tables_number  65
_chemical_formula_structural  CeB2Ir2Rh
_chemical_formula_sum  CeB2Ir2Rh
_cell_volume  82.69160330231801
_cell_formula_units_Z  1
loop_
  _symmetry_equiv_pos_site_id
 _symmetry_equiv_pos_as_xyz
 1  'x, y, z'
loop_
 _atom_site_type_symbol
 _atom_site_label
 _atom_site_symmetry_multiplicity
 _atom_site_fract_x
 _atom_site_fract_y
 _atom_site_fract_z
 _atom_site_fract_occupancy
 B  B1  1  0.16698  0.83302  0.00000  1
 B  B2  1  0.83302  0.16698  0.00000  1
 Ce  Ce1  1  0.50000  0.50000  0.00000  1
 Ir  Ir1  1  0.00000  0.50000  0.50000  1
 Ir  Ir2  1  0.50000  0.00000  0.50000  1
 Rh  Rh1  1  0.00000  0.00000  0.50000  1
