CIF file written using JARVIS-Tools package.
data_BNF8
_symmetry_space_group_name_H-M  'P-42_1m'
_cell_length_a       9.80263
_cell_length_b       9.80263
_cell_length_c       5.04458
_cell_angle_alpha    90
_cell_angle_beta     90
_cell_angle_gamma    90

_symmetry_Int_Tables_number  113
_chemical_formula_structural  BNF8
_chemical_formula_sum  B4N4F32
_cell_volume  484.74079423950167
_cell_formula_units_Z  4
loop_
  _symmetry_equiv_pos_site_id
 _symmetry_equiv_pos_as_xyz
 1  'x, y, z'
loop_
 _atom_site_type_symbol
 _atom_site_label
 _atom_site_symmetry_multiplicity
 _atom_site_fract_x
 _atom_site_fract_y
 _atom_site_fract_z
 _atom_site_fract_occupancy
 B  B1  1  0.24192  0.25808  0.59681  1
 B  B2  1  0.74192  0.24192  0.40319  1
 B  B3  1  0.25808  0.75808  0.40319  1
 B  B4  1  0.75808  0.74192  0.59681  1
 F  F1  1  0.92060  0.57940  0.11305  1
 F  F2  1  0.42122  0.07878  0.19345  1
 F  F3  1  0.07878  0.57878  0.80655  1
 F  F4  1  0.16315  0.66315  0.30254  1
 F  F5  1  0.42060  0.92060  0.88695  1
 F  F6  1  0.57940  0.07940  0.88695  1
 F  F7  1  0.07940  0.42060  0.11305  1
 F  F8  1  0.40222  0.44642  0.15400  1
 F  F9  1  0.92122  0.42122  0.80655  1
 F  F10  1  0.55358  0.40222  0.84600  1
 F  F11  1  0.44642  0.59778  0.84600  1
 F  F12  1  0.05358  0.09778  0.15400  1
 F  F13  1  0.90222  0.05358  0.84600  1
 F  F14  1  0.09778  0.94642  0.84600  1
 F  F15  1  0.94642  0.90222  0.15400  1
 F  F16  1  0.59778  0.55358  0.15400  1
 F  F17  1  0.10866  0.22418  0.68426  1
 F  F18  1  0.33685  0.16315  0.69746  1
 F  F19  1  0.57878  0.92122  0.19345  1
 F  F20  1  0.60866  0.27582  0.31574  1
 F  F21  1  0.39134  0.72418  0.31574  1
 F  F22  1  0.72418  0.60866  0.68426  1
 F  F23  1  0.83685  0.33685  0.30254  1
 F  F24  1  0.22418  0.89134  0.31574  1
 F  F25  1  0.77582  0.10866  0.31574  1
 F  F26  1  0.25571  0.75571  0.68446  1
 F  F27  1  0.24429  0.25571  0.31554  1
 F  F28  1  0.74429  0.24429  0.68446  1
 F  F29  1  0.27582  0.39134  0.68426  1
 F  F30  1  0.75571  0.74429  0.31554  1
 F  F31  1  0.89134  0.77582  0.68426  1
 F  F32  1  0.66315  0.83685  0.69746  1
 N  N1  1  0.50000  0.00000  0.03982  1
 N  N2  1  0.00000  0.50000  0.96018  1
 N  N3  1  0.50000  0.50000  0.00000  1
 N  N4  1  0.00000  0.00000  0.00000  1
