CIF file written using JARVIS-Tools package.
data_TiH8C5O4
_symmetry_space_group_name_H-M  'P1'
_cell_length_a       4.52552
_cell_length_b       6.22708
_cell_length_c       6.4179
_cell_angle_alpha    66.0418
_cell_angle_beta     82.7347
_cell_angle_gamma    84.0093

_symmetry_Int_Tables_number  1
_chemical_formula_structural  TiH8C5O4
_chemical_formula_sum  TiH8C5O4
_cell_volume  163.67066396898764
_cell_formula_units_Z  1
loop_
  _symmetry_equiv_pos_site_id
 _symmetry_equiv_pos_as_xyz
 1  'x, y, z'
loop_
 _atom_site_type_symbol
 _atom_site_label
 _atom_site_symmetry_multiplicity
 _atom_site_fract_x
 _atom_site_fract_y
 _atom_site_fract_z
 _atom_site_fract_occupancy
 C  C1  1  0.65323  0.29057  0.28527  1
 C  C2  1  0.86251  0.93458  0.88512  1
 C  C3  1  0.08348  0.43200  0.79642  1
 C  C4  1  0.11972  0.78156  0.37906  1
 C  C5  1  0.24967  0.61808  0.59850  1
 H  H1  1  0.49520  0.19837  0.43490  1
 H  H2  1  0.08018  0.00175  0.80315  1
 H  H3  1  0.88551  0.74548  0.99159  1
 H  H4  1  0.56559  0.47240  0.19579  1
 H  H5  1  0.71108  0.96522  0.75224  1
 H  H6  1  0.87241  0.28558  0.34327  1
 H  H7  1  0.45382  0.53093  0.55056  1
 H  H8  1  0.33608  0.73169  0.66874  1
 O  O1  1  0.81143  0.39865  0.80605  1
 O  O2  1  0.84941  0.84665  0.36113  1
 O  O3  1  0.24299  0.30235  0.95993  1
 O  O4  1  0.32484  0.85668  0.20992  1
 Ti  Ti1  1  0.60659  0.10435  0.08056  1
