CIF file written using JARVIS-Tools package.
data_LiCr2O4
_symmetry_space_group_name_H-M  'P2/m'
_cell_length_a       5.08588
_cell_length_b       2.9112
_cell_length_c       5.01943
_cell_angle_alpha    90.0024
_cell_angle_beta     70.3088
_cell_angle_gamma    89.9975

_symmetry_Int_Tables_number  10
_chemical_formula_structural  LiCr2O4
_chemical_formula_sum  LiCr2O4
_cell_volume  69.97164428843841
_cell_formula_units_Z  1
loop_
  _symmetry_equiv_pos_site_id
 _symmetry_equiv_pos_as_xyz
 1  'x, y, z'
loop_
 _atom_site_type_symbol
 _atom_site_label
 _atom_site_symmetry_multiplicity
 _atom_site_fract_x
 _atom_site_fract_y
 _atom_site_fract_z
 _atom_site_fract_occupancy
 Cr  Cr1  1  0.50000  -0.00000  0.50000  1
 Cr  Cr2  1  0.50000  0.50000  -0.00000  1
 Li  Li1  1  -0.00000  0.50000  0.50000  1
 O  O1  1  0.71587  -0.00002  0.75528  1
 O  O2  1  0.70542  0.49997  0.26745  1
 O  O3  1  0.29458  0.50003  0.73255  1
 O  O4  1  0.28413  0.00002  0.24472  1
