CIF file written using JARVIS-Tools package.
data_YOF
_symmetry_space_group_name_H-M  'R-3m'
_cell_length_a       6.69848
_cell_length_b       6.69848
_cell_length_c       6.69848
_cell_angle_alpha    33.0542
_cell_angle_beta     33.0542
_cell_angle_gamma    33.0542

_symmetry_Int_Tables_number  166
_chemical_formula_structural  YOF
_chemical_formula_sum  Y2O2F2
_cell_volume  79.57862847785302
_cell_formula_units_Z  2
loop_
  _symmetry_equiv_pos_site_id
 _symmetry_equiv_pos_as_xyz
 1  'x, y, z'
loop_
 _atom_site_type_symbol
 _atom_site_label
 _atom_site_symmetry_multiplicity
 _atom_site_fract_x
 _atom_site_fract_y
 _atom_site_fract_z
 _atom_site_fract_occupancy
 F  F1  1  0.13045  0.13045  0.13045  1
 F  F2  1  0.86955  0.86955  0.86955  1
 O  O1  1  0.62127  0.62127  0.62127  1
 O  O2  1  0.37873  0.37873  0.37873  1
 Y  Y1  1  0.74152  0.74152  0.74152  1
 Y  Y2  1  0.25848  0.25848  0.25848  1
