CIF file written using JARVIS-Tools package.
data_CaSi2
_symmetry_space_group_name_H-M  'I4_1/amd'
_cell_length_a       4.294
_cell_length_b       4.29401
_cell_length_c       7.43851
_cell_angle_alpha    106.776
_cell_angle_beta     106.776
_cell_angle_gamma    90

_symmetry_Int_Tables_number  141
_chemical_formula_structural  CaSi2
_chemical_formula_sum  Ca2Si4
_cell_volume  125.20832030874146
_cell_formula_units_Z  2
loop_
  _symmetry_equiv_pos_site_id
 _symmetry_equiv_pos_as_xyz
 1  'x, y, z'
loop_
 _atom_site_type_symbol
 _atom_site_label
 _atom_site_symmetry_multiplicity
 _atom_site_fract_x
 _atom_site_fract_y
 _atom_site_fract_z
 _atom_site_fract_occupancy
 Ca  Ca1  1  0.62500  0.87500  0.75000  1
 Ca  Ca2  1  0.37500  0.12500  0.25000  1
 Si  Si1  1  0.21013  0.46013  0.92025  1
 Si  Si2  1  0.96013  0.71013  0.42025  1
 Si  Si3  1  0.03987  0.28987  0.57975  1
 Si  Si4  1  0.78987  0.53987  0.07975  1
