CIF file written using JARVIS-Tools package.
data_Pr2CdS4
_symmetry_space_group_name_H-M  'I-42d'
_cell_length_a       7.47399
_cell_length_b       7.47399
_cell_length_c       7.474
_cell_angle_alpha    110.854
_cell_angle_beta     110.854
_cell_angle_gamma    106.74

_symmetry_Int_Tables_number  122
_chemical_formula_structural  Pr2CdS4
_chemical_formula_sum  Pr4Cd2S8
_cell_volume  320.84841651548396
_cell_formula_units_Z  2
loop_
  _symmetry_equiv_pos_site_id
 _symmetry_equiv_pos_as_xyz
 1  'x, y, z'
loop_
 _atom_site_type_symbol
 _atom_site_label
 _atom_site_symmetry_multiplicity
 _atom_site_fract_x
 _atom_site_fract_y
 _atom_site_fract_z
 _atom_site_fract_occupancy
 Cd  Cd1  1  0.62500  0.37500  0.25000  1
 Cd  Cd2  1  0.87500  0.12500  0.75000  1
 Pr  Pr1  1  0.11515  0.75000  0.86515  1
 Pr  Pr2  1  0.25000  0.61515  0.36515  1
 Pr  Pr3  1  0.38485  0.25000  0.63485  1
 Pr  Pr4  1  0.75000  0.88485  0.13485  1
 S  S1  1  0.99193  0.36526  0.48599  1
 S  S2  1  0.50807  0.99406  0.37333  1
 S  S3  1  0.12073  0.13474  0.12667  1
 S  S4  1  0.37927  0.50594  0.01401  1
 S  S5  1  0.49406  0.00807  0.87333  1
 S  S6  1  0.63474  0.62073  0.62667  1
 S  S7  1  0.00594  0.87927  0.51401  1
 S  S8  1  0.86526  0.49193  0.98599  1
