CIF file written using JARVIS-Tools package.
data_Bi4Te3
_symmetry_space_group_name_H-M  'R-3m'
_cell_length_a       14.4621
_cell_length_b       14.4621
_cell_length_c       14.4621
_cell_angle_alpha    17.9305
_cell_angle_beta     17.9305
_cell_angle_gamma    17.9306

_symmetry_Int_Tables_number  166
_chemical_formula_structural  Bi4Te3
_chemical_formula_sum  Bi4Te3
_cell_volume  250.30773171020758
_cell_formula_units_Z  1
loop_
  _symmetry_equiv_pos_site_id
 _symmetry_equiv_pos_as_xyz
 1  'x, y, z'
loop_
 _atom_site_type_symbol
 _atom_site_label
 _atom_site_symmetry_multiplicity
 _atom_site_fract_x
 _atom_site_fract_y
 _atom_site_fract_z
 _atom_site_fract_occupancy
 Bi  Bi1  1  0.28617  0.28617  0.28617  1
 Bi  Bi2  1  0.71383  0.71383  0.71383  1
 Bi  Bi3  1  0.14708  0.14708  0.14708  1
 Bi  Bi4  1  0.85292  0.85292  0.85292  1
 Te  Te1  1  0.00000  0.00000  0.00000  1
 Te  Te2  1  0.57929  0.57929  0.57929  1
 Te  Te3  1  0.42071  0.42071  0.42071  1
