CIF file written using JARVIS-Tools package.
data_Sn3F8
_symmetry_space_group_name_H-M  'P2_1/c'
_cell_length_a       5.16277
_cell_length_b       5.35893
_cell_length_c       13.4183
_cell_angle_alpha    90
_cell_angle_beta     111.346
_cell_angle_gamma    90

_symmetry_Int_Tables_number  14
_chemical_formula_structural  Sn3F8
_chemical_formula_sum  Sn6F6
_cell_volume  345.77577869797017
_cell_formula_units_Z  2
loop_
  _symmetry_equiv_pos_site_id
 _symmetry_equiv_pos_as_xyz
 1  'x, y, z'
loop_
 _atom_site_type_symbol
 _atom_site_label
 _atom_site_symmetry_multiplicity
 _atom_site_fract_x
 _atom_site_fract_y
 _atom_site_fract_z
 _atom_site_fract_occupancy
 F  F1  1  -0.01262  0.46093  0.64742  1
 F  F2  1  0.41393  0.10616  0.75436  1
 F  F3  1  0.58607  0.60616  0.74564  1
 F  F4  1  0.58607  0.89384  0.24564  1
 F  F5  1  0.41393  0.39384  0.25436  1
 F  F6  1  0.35265  0.19418  0.03990  1
 F  F7  1  0.64735  0.80582  0.96010  1
 F  F8  1  0.35265  0.30582  0.53990  1
 F  F9  1  0.01262  0.53907  0.35258  1
 F  F10  1  0.01262  0.96093  0.85258  1
 F  F11  1  0.64735  0.69418  0.46010  1
 F  F12  1  0.78153  0.18259  0.44868  1
 F  F13  1  0.21847  0.68259  0.05132  1
 F  F14  1  0.21847  0.81741  0.55132  1
 F  F15  1  0.78153  0.31741  0.94868  1
 F  F16  1  -0.01262  0.03907  0.14742  1
 Sn  Sn1  1  0.00000  0.00000  0.00000  1
 Sn  Sn2  1  -0.00000  0.50000  0.50000  1
 Sn  Sn3  1  0.35092  0.04941  0.33381  1
 Sn  Sn4  1  0.64908  0.54941  0.16619  1
 Sn  Sn5  1  0.64908  0.95059  0.66619  1
 Sn  Sn6  1  0.35092  0.45059  0.83381  1
