CIF file written using JARVIS-Tools package.
data_ZnCu2O4
_symmetry_space_group_name_H-M  'Fd-3m'
_cell_length_a       5.92641
_cell_length_b       5.92642
_cell_length_c       5.92792
_cell_angle_alpha    119.992
_cell_angle_beta     119.992
_cell_angle_gamma    90

_symmetry_Int_Tables_number  227
_chemical_formula_structural  ZnCu2O4
_chemical_formula_sum  Zn2Cu4O8
_cell_volume  147.2587764020097
_cell_formula_units_Z  2
loop_
  _symmetry_equiv_pos_site_id
 _symmetry_equiv_pos_as_xyz
 1  'x, y, z'
loop_
 _atom_site_type_symbol
 _atom_site_label
 _atom_site_symmetry_multiplicity
 _atom_site_fract_x
 _atom_site_fract_y
 _atom_site_fract_z
 _atom_site_fract_occupancy
 Cu  Cu1  1  0.00000  -0.00000  0.50000  1
 Cu  Cu2  1  0.00000  0.50000  0.00000  1
 Cu  Cu3  1  0.50000  -0.00000  0.50000  1
 Cu  Cu4  1  0.00000  0.00000  0.00000  1
 O  O1  1  0.76100  0.78288  0.52201  1
 O  O2  1  0.76088  0.23900  0.97799  1
 O  O3  1  0.21712  0.23900  0.97799  1
 O  O4  1  0.23900  0.21712  0.47799  1
 O  O5  1  0.23900  0.76088  0.47799  1
 O  O6  1  0.23912  0.76100  0.02201  1
 O  O7  1  0.76100  0.23912  0.52201  1
 O  O8  1  0.78288  0.76100  0.02201  1
 Zn  Zn1  1  0.37500  0.62500  0.75000  1
 Zn  Zn2  1  0.62500  0.37500  0.25000  1
