CIF file written using JARVIS-Tools package.
data_MgAu5
_symmetry_space_group_name_H-M  'R32'
_cell_length_a       5.63343
_cell_length_b       5.63344
_cell_length_c       5.63343
_cell_angle_alpha    53.5083
_cell_angle_beta     53.5083
_cell_angle_gamma    53.5083

_symmetry_Int_Tables_number  155
_chemical_formula_structural  MgAu5
_chemical_formula_sum  MgAu5
_cell_volume  107.21468520923906
_cell_formula_units_Z  1
loop_
  _symmetry_equiv_pos_site_id
 _symmetry_equiv_pos_as_xyz
 1  'x, y, z'
loop_
 _atom_site_type_symbol
 _atom_site_label
 _atom_site_symmetry_multiplicity
 _atom_site_fract_x
 _atom_site_fract_y
 _atom_site_fract_z
 _atom_site_fract_occupancy
 Au  Au1  1  0.00000  0.66587  0.33413  1
 Au  Au2  1  0.66587  0.33413  -0.00000  1
 Au  Au3  1  0.33413  -0.00000  0.66587  1
 Au  Au4  1  0.83237  0.83237  0.83237  1
 Au  Au5  1  0.16763  0.16763  0.16763  1
 Mg  Mg1  1  0.50000  0.50000  0.50000  1
