CIF file written using JARVIS-Tools package.
data_YAlN2
_symmetry_space_group_name_H-M  'I-42d'
_cell_length_a       5.19586
_cell_length_b       5.39469
_cell_length_c       7.05568
_cell_angle_alpha    90
_cell_angle_beta     132.763
_cell_angle_gamma    121.274

_symmetry_Int_Tables_number  122
_chemical_formula_structural  YAlN2
_chemical_formula_sum  Y2Al2N4
_cell_volume  102.669626252964
_cell_formula_units_Z  2
loop_
  _symmetry_equiv_pos_site_id
 _symmetry_equiv_pos_as_xyz
 1  'x, y, z'
loop_
 _atom_site_type_symbol
 _atom_site_label
 _atom_site_symmetry_multiplicity
 _atom_site_fract_x
 _atom_site_fract_y
 _atom_site_fract_z
 _atom_site_fract_occupancy
 Al  Al1  1  -0.00000  0.50000  0.25000  1
 Al  Al2  1  0.00000  0.00000  0.00000  1
 N  N1  1  0.50000  0.05868  0.12500  1
 N  N2  1  0.50000  0.94132  0.62500  1
 N  N3  1  0.38264  0.44132  0.31632  1
 N  N4  1  0.61736  0.55868  0.93368  1
 Y  Y1  1  -0.00000  0.50000  0.75000  1
 Y  Y2  1  0.00000  0.00000  0.50000  1
