CIF file written using JARVIS-Tools package.
data_H9C11SN
_symmetry_space_group_name_H-M  'P1'
_cell_length_a       3.77052
_cell_length_b       8.45371
_cell_length_c       13.0534
_cell_angle_alpha    93.901
_cell_angle_beta     97.168
_cell_angle_gamma    86.2997

_symmetry_Int_Tables_number  1
_chemical_formula_structural  H9C11SN
_chemical_formula_sum  H8C22S2N2
_cell_volume  411.2067238226788
_cell_formula_units_Z  2
loop_
  _symmetry_equiv_pos_site_id
 _symmetry_equiv_pos_as_xyz
 1  'x, y, z'
loop_
 _atom_site_type_symbol
 _atom_site_label
 _atom_site_symmetry_multiplicity
 _atom_site_fract_x
 _atom_site_fract_y
 _atom_site_fract_z
 _atom_site_fract_occupancy
 C  C1  1  0.02305  0.54677  0.04487  1
 C  C2  1  0.87105  0.82648  0.16823  1
 C  C3  1  0.42520  0.53843  0.64459  1
 C  C4  1  0.97786  0.83459  0.06963  1
 C  C5  1  0.47784  0.83459  0.56962  1
 C  C6  1  0.55506  0.69846  0.50955  1
 C  C7  1  0.92520  0.53843  0.14459  1
 C  C8  1  0.52304  0.54677  0.54487  1
 C  C9  1  0.35004  0.67648  0.70527  1
 C  C10  1  0.43405  0.41143  0.36801  1
 C  C11  1  0.24645  0.98123  0.71961  1
 C  C12  1  0.74646  0.98123  0.21961  1
 C  C13  1  0.69309  0.15346  0.36874  1
 C  C14  1  0.19310  0.15346  0.86873  1
 C  C15  1  0.56219  0.41065  0.47112  1
 C  C16  1  0.06221  0.41065  0.97112  1
 C  C17  1  0.93407  0.41143  0.86801  1
 C  C18  1  0.50457  0.26815  0.30987  1
 C  C19  1  0.00459  0.26815  0.80987  1
 C  C20  1  0.85004  0.67647  0.20527  1
 C  C21  1  0.37104  0.82649  0.66823  1
 C  C22  1  0.05509  0.69846  0.00956  1
 H  H1  1  0.00165  0.95059  0.03994  1
 H  H2  1  0.86957  0.07885  0.18681  1
 H  H3  1  0.04715  0.95993  0.36508  1
 H  H4  1  0.54716  0.95993  0.86508  1
 H  H5  1  0.64457  0.70923  0.43434  1
 H  H6  1  0.26066  0.66611  0.78064  1
 H  H7  1  0.76065  0.66610  0.28064  1
 H  H8  1  0.39216  0.42309  0.67386  1
 H  H9  1  0.36956  0.07885  0.68681  1
 H  H10  1  0.89215  0.42309  0.17385  1
 H  H11  1  0.28430  0.51372  0.33510  1
 H  H12  1  0.78432  0.51372  0.83510  1
 H  H13  1  0.42085  0.25167  0.22749  1
 H  H14  1  0.92086  0.25168  0.72749  1
 H  H15  1  0.95658  0.99869  0.69612  1
 H  H16  1  0.45659  0.99869  0.19612  1
 H  H17  1  0.50162  0.95059  0.53993  1
 H  H18  1  0.14461  0.70924  0.93435  1
 N  N1  1  0.29794  -0.00068  0.83333  1
 N  N2  1  0.79793  -0.00068  0.33333  1
 S  S1  1  0.27711  0.22539  -0.00197  1
 S  S2  1  0.77710  0.22539  0.49803  1
