CIF file written using JARVIS-Tools package.
data_Pr3Ag
_symmetry_space_group_name_H-M  'P6_3/mmc'
_cell_length_a       7.13925
_cell_length_b       7.13926
_cell_length_c       5.41026
_cell_angle_alpha    90
_cell_angle_beta     90
_cell_angle_gamma    120

_symmetry_Int_Tables_number  194
_chemical_formula_structural  Pr3Ag
_chemical_formula_sum  Pr6Ag2
_cell_volume  238.81092942456874
_cell_formula_units_Z  2
loop_
  _symmetry_equiv_pos_site_id
 _symmetry_equiv_pos_as_xyz
 1  'x, y, z'
loop_
 _atom_site_type_symbol
 _atom_site_label
 _atom_site_symmetry_multiplicity
 _atom_site_fract_x
 _atom_site_fract_y
 _atom_site_fract_z
 _atom_site_fract_occupancy
 Ag  Ag1  1  0.33333  0.66667  0.75000  1
 Ag  Ag2  1  0.66667  0.33333  0.25000  1
 Pr  Pr1  1  0.17548  0.35096  0.25000  1
 Pr  Pr2  1  0.64904  0.82452  0.25000  1
 Pr  Pr3  1  0.17548  0.82452  0.25000  1
 Pr  Pr4  1  0.82452  0.64904  0.75000  1
 Pr  Pr5  1  0.35096  0.17548  0.75000  1
 Pr  Pr6  1  0.82452  0.17548  0.75000  1
