CIF file written using JARVIS-Tools package.
data_CaAl2Se4
_symmetry_space_group_name_H-M  'Cccm'
_cell_length_a       6.16335
_cell_length_b       6.16336
_cell_length_c       10.6343
_cell_angle_alpha    90
_cell_angle_beta     90
_cell_angle_gamma    118.862

_symmetry_Int_Tables_number  66
_chemical_formula_structural  CaAl2Se4
_chemical_formula_sum  Ca2Al4Se8
_cell_volume  353.78558111805154
_cell_formula_units_Z  2
loop_
  _symmetry_equiv_pos_site_id
 _symmetry_equiv_pos_as_xyz
 1  'x, y, z'
loop_
 _atom_site_type_symbol
 _atom_site_label
 _atom_site_symmetry_multiplicity
 _atom_site_fract_x
 _atom_site_fract_y
 _atom_site_fract_z
 _atom_site_fract_occupancy
 Al  Al1  1  0.23564  0.76120  0.00000  1
 Al  Al2  1  0.23880  0.76436  0.50000  1
 Al  Al3  1  0.76120  0.23564  0.50000  1
 Al  Al4  1  0.76436  0.23880  0.00000  1
 Ca  Ca1  1  0.50000  0.50000  0.25000  1
 Ca  Ca2  1  0.50000  0.50000  0.75000  1
 Se  Se1  1  -0.00000  0.50000  0.17327  1
 Se  Se2  1  0.19136  0.34692  0.50000  1
 Se  Se3  1  0.34692  0.19136  0.00000  1
 Se  Se4  1  0.65308  0.80864  0.00000  1
 Se  Se5  1  0.50000  -0.00000  0.32673  1
 Se  Se6  1  0.50000  -0.00000  0.67327  1
 Se  Se7  1  0.80864  0.65308  0.50000  1
 Se  Se8  1  -0.00000  0.50000  0.82673  1
