CIF file written using JARVIS-Tools package.
data_Te2MoWSe2
_symmetry_space_group_name_H-M  'P-6m2'
_cell_length_a       3.44783
_cell_length_b       3.44785
_cell_length_c       13.8684
_cell_angle_alpha    90.0208
_cell_angle_beta     90
_cell_angle_gamma    120

_symmetry_Int_Tables_number  187
_chemical_formula_structural  Te2MoWSe2
_chemical_formula_sum  Te2MoWSe2
_cell_volume  142.7750607539988
_cell_formula_units_Z  1
loop_
  _symmetry_equiv_pos_site_id
 _symmetry_equiv_pos_as_xyz
 1  'x, y, z'
loop_
 _atom_site_type_symbol
 _atom_site_label
 _atom_site_symmetry_multiplicity
 _atom_site_fract_x
 _atom_site_fract_y
 _atom_site_fract_z
 _atom_site_fract_occupancy
 Mo  Mo1  1  0.66674  0.33348  0.55094  1
 Se  Se1  1  0.33353  0.66706  0.66882  1
 Se  Se2  1  0.33328  0.66657  0.43306  1
 Te  Te1  1  0.66646  0.33291  0.91625  1
 Te  Te2  1  0.66673  0.33346  0.18561  1
 W  W1  1  0.33326  0.66652  0.05093  1
