CIF file written using JARVIS-Tools package.
data_SbTe
_symmetry_space_group_name_H-M  'Fm-3m'
_cell_length_a       4.49766
_cell_length_b       4.49765
_cell_length_c       4.49766
_cell_angle_alpha    59.9074
_cell_angle_beta     59.9073
_cell_angle_gamma    59.9074

_symmetry_Int_Tables_number  225
_chemical_formula_structural  SbTe
_chemical_formula_sum  SbTe
_cell_volume  64.1991864233682
_cell_formula_units_Z  1
loop_
  _symmetry_equiv_pos_site_id
 _symmetry_equiv_pos_as_xyz
 1  'x, y, z'
loop_
 _atom_site_type_symbol
 _atom_site_label
 _atom_site_symmetry_multiplicity
 _atom_site_fract_x
 _atom_site_fract_y
 _atom_site_fract_z
 _atom_site_fract_occupancy
 Sb  Sb1  1  0.50000  0.50000  0.50000  1
 Te  Te1  1  0.00000  0.00000  0.00000  1
