CIF file written using JARVIS-Tools package.
data_CrB2Mo2
_symmetry_space_group_name_H-M  'P4/mbm'
_cell_length_a       5.83013
_cell_length_b       5.83013
_cell_length_c       3.12643
_cell_angle_alpha    90
_cell_angle_beta     90
_cell_angle_gamma    90

_symmetry_Int_Tables_number  127
_chemical_formula_structural  CrB2Mo2
_chemical_formula_sum  Cr2B4Mo4
_cell_volume  106.2684849991272
_cell_formula_units_Z  2
loop_
  _symmetry_equiv_pos_site_id
 _symmetry_equiv_pos_as_xyz
 1  'x, y, z'
loop_
 _atom_site_type_symbol
 _atom_site_label
 _atom_site_symmetry_multiplicity
 _atom_site_fract_x
 _atom_site_fract_y
 _atom_site_fract_z
 _atom_site_fract_occupancy
 B  B1  1  0.11374  0.61374  0.00000  1
 B  B2  1  0.88626  0.38626  0.00000  1
 B  B3  1  0.61374  0.88626  0.00000  1
 B  B4  1  0.38626  0.11374  0.00000  1
 Cr  Cr1  1  0.00000  0.00000  0.00000  1
 Cr  Cr2  1  0.50000  0.50000  0.00000  1
 Mo  Mo1  1  0.67770  0.17770  0.50000  1
 Mo  Mo2  1  0.32230  0.82230  0.50000  1
 Mo  Mo3  1  0.17770  0.32230  0.50000  1
 Mo  Mo4  1  0.82230  0.67770  0.50000  1
