CIF file written using JARVIS-Tools package.
data_Ca4Cd3Au
_symmetry_space_group_name_H-M  'P4/mmm'
_cell_length_a       3.73123
_cell_length_b       3.73123
_cell_length_c       15.169
_cell_angle_alpha    90
_cell_angle_beta     90
_cell_angle_gamma    90

_symmetry_Int_Tables_number  123
_chemical_formula_structural  Ca4Cd3Au
_chemical_formula_sum  Ca4Cd3Au
_cell_volume  211.18275240589102
_cell_formula_units_Z  1
loop_
  _symmetry_equiv_pos_site_id
 _symmetry_equiv_pos_as_xyz
 1  'x, y, z'
loop_
 _atom_site_type_symbol
 _atom_site_label
 _atom_site_symmetry_multiplicity
 _atom_site_fract_x
 _atom_site_fract_y
 _atom_site_fract_z
 _atom_site_fract_occupancy
 Au  Au1  1  0.00000  0.00000  0.00000  1
 Ca  Ca1  1  0.50000  0.50000  0.11360  1
 Ca  Ca2  1  0.50000  0.50000  0.37191  1
 Ca  Ca3  1  0.50000  0.50000  0.62809  1
 Ca  Ca4  1  0.50000  0.50000  0.88640  1
 Cd  Cd1  1  0.00000  0.00000  0.24515  1
 Cd  Cd2  1  0.00000  0.00000  0.50000  1
 Cd  Cd3  1  0.00000  0.00000  0.75485  1
