CIF file written using JARVIS-Tools package.
data_CdH16C10O4
_symmetry_space_group_name_H-M  'P1'
_cell_length_a       3.92652
_cell_length_b       4.32104
_cell_length_c       15.561
_cell_angle_alpha    95.9153
_cell_angle_beta     98.2388
_cell_angle_gamma    104.041

_symmetry_Int_Tables_number  1
_chemical_formula_structural  CdH16C10O4
_chemical_formula_sum  CdH6C0O4
_cell_volume  250.860274359483
_cell_formula_units_Z  1
loop_
  _symmetry_equiv_pos_site_id
 _symmetry_equiv_pos_as_xyz
 1  'x, y, z'
loop_
 _atom_site_type_symbol
 _atom_site_label
 _atom_site_symmetry_multiplicity
 _atom_site_fract_x
 _atom_site_fract_y
 _atom_site_fract_z
 _atom_site_fract_occupancy
 C  C1  1  0.52247  0.22834  0.61847  1
 C  C2  1  0.92700  0.93063  0.29442  1
 C  C3  1  0.09697  0.83469  0.37727  1
 C  C4  1  0.37461  0.97165  0.53768  1
 C  C5  1  0.23949  0.10283  0.45542  1
 C  C6  1  0.64520  0.08962  0.70048  1
 C  C7  1  0.77172  0.33892  0.78334  1
 C  C8  1  0.86594  0.19026  0.86568  1
 C  C9  1  -0.03999  0.43491  0.94988  1
 C  C10  1  -0.02044  0.27630  0.03226  1
 Cd  Cd1  1  0.44759  0.96272  0.15258  1
 H  H1  1  0.15488  0.78296  0.55273  1
 H  H2  1  0.30258  0.71688  0.36191  1
 H  H3  1  0.88343  0.64341  0.39357  1
 H  H4  1  0.85876  0.97364  0.68882  1
 H  H5  1  0.58119  0.84941  0.52406  1
 H  H6  1  0.20981  0.61944  0.95184  1
 H  H7  1  0.74897  0.56131  0.95224  1
 H  H8  1  0.00238  0.53016  0.77443  1
 H  H9  1  0.42258  0.89507  0.71177  1
 H  H10  1  0.74635  0.41554  0.60463  1
 H  H11  1  0.55988  0.45968  0.79282  1
 H  H12  1  0.45680  0.28883  0.43901  1
 H  H13  1  0.02872  0.22003  0.46804  1
 H  H14  1  0.08843  0.08034  0.85930  1
 H  H15  1  0.63704  -0.00692  0.87165  1
 H  H16  1  0.31678  0.35236  0.63152  1
 O  O1  1  0.72991  0.12262  0.29862  1
 O  O2  1  0.24580  0.39257  0.09574  1
 O  O3  1  0.95513  0.79083  0.21876  1
 O  O4  1  0.73111  0.02830  0.03479  1
