CIF file written using JARVIS-Tools package.
data_NdTlS2
_symmetry_space_group_name_H-M  'R-3m'
_cell_length_a       7.82299
_cell_length_b       7.82298
_cell_length_c       7.82299
_cell_angle_alpha    30.917
_cell_angle_beta     30.9171
_cell_angle_gamma    30.917

_symmetry_Int_Tables_number  166
_chemical_formula_structural  NdTlS2
_chemical_formula_sum  NdTlS2
_cell_volume  112.10502614100596
_cell_formula_units_Z  1
loop_
  _symmetry_equiv_pos_site_id
 _symmetry_equiv_pos_as_xyz
 1  'x, y, z'
loop_
 _atom_site_type_symbol
 _atom_site_label
 _atom_site_symmetry_multiplicity
 _atom_site_fract_x
 _atom_site_fract_y
 _atom_site_fract_z
 _atom_site_fract_occupancy
 Nd  Nd1  1  0.00000  0.00000  0.00000  1
 S  S1  1  0.73549  0.73549  0.73549  1
 S  S2  1  0.26451  0.26451  0.26451  1
 Tl  Tl1  1  0.50000  0.50000  0.50000  1
