CIF file written using JARVIS-Tools package.
data_V4HC3
_symmetry_space_group_name_H-M  'R-3m'
_cell_length_a       9.61896
_cell_length_b       9.61896
_cell_length_c       9.61896
_cell_angle_alpha    17.4975
_cell_angle_beta     17.4975
_cell_angle_gamma    17.4975

_symmetry_Int_Tables_number  166
_chemical_formula_structural  V4HC3
_chemical_formula_sum  V4HC3
_cell_volume  70.21665210902817
_cell_formula_units_Z  1
loop_
  _symmetry_equiv_pos_site_id
 _symmetry_equiv_pos_as_xyz
 1  'x, y, z'
loop_
 _atom_site_type_symbol
 _atom_site_label
 _atom_site_symmetry_multiplicity
 _atom_site_fract_x
 _atom_site_fract_y
 _atom_site_fract_z
 _atom_site_fract_occupancy
 C  C1  1  0.25297  0.25297  0.25297  1
 C  C2  1  0.50000  0.50000  0.50000  1
 C  C3  1  0.74703  0.74703  0.74703  1
 H  H1  1  0.00000  0.00000  0.00000  1
 V  V1  1  0.87700  0.87700  0.87700  1
 V  V2  1  0.12300  0.12300  0.12300  1
 V  V3  1  0.37615  0.37615  0.37615  1
 V  V4  1  0.62385  0.62385  0.62385  1
