CIF file written using JARVIS-Tools package.
data_BaNaP
_symmetry_space_group_name_H-M  'P-62m'
_cell_length_a       7.95612
_cell_length_b       7.95612
_cell_length_c       4.6903
_cell_angle_alpha    90
_cell_angle_beta     90
_cell_angle_gamma    120

_symmetry_Int_Tables_number  189
_chemical_formula_structural  BaNaP
_chemical_formula_sum  Ba3Na3P3
_cell_volume  257.1188230137146
_cell_formula_units_Z  3
loop_
  _symmetry_equiv_pos_site_id
 _symmetry_equiv_pos_as_xyz
 1  'x, y, z'
loop_
 _atom_site_type_symbol
 _atom_site_label
 _atom_site_symmetry_multiplicity
 _atom_site_fract_x
 _atom_site_fract_y
 _atom_site_fract_z
 _atom_site_fract_occupancy
 Ba  Ba1  1  0.41270  0.41270  0.50000  1
 Ba  Ba2  1  0.00000  0.58730  0.50000  1
 Ba  Ba3  1  0.58730  0.00000  0.50000  1
 Na  Na1  1  -0.00000  0.24232  0.00000  1
 Na  Na2  1  0.24232  -0.00000  0.00000  1
 Na  Na3  1  0.75768  0.75768  0.00000  1
 P  P1  1  0.66667  0.33333  0.00000  1
 P  P2  1  0.00000  0.00000  0.50000  1
 P  P3  1  0.33333  0.66667  0.00000  1
