CIF file written using JARVIS-Tools package.
data_DyMnGa
_symmetry_space_group_name_H-M  'Amm2'
_cell_length_a       6.75924
_cell_length_b       6.75924
_cell_length_c       4.26661
_cell_angle_alpha    90
_cell_angle_beta     90
_cell_angle_gamma    123.666

_symmetry_Int_Tables_number  38
_chemical_formula_structural  DyMnGa
_chemical_formula_sum  Dy3Mn3Ga3
_cell_volume  162.23655664300998
_cell_formula_units_Z  3
loop_
  _symmetry_equiv_pos_site_id
 _symmetry_equiv_pos_as_xyz
 1  'x, y, z'
loop_
 _atom_site_type_symbol
 _atom_site_label
 _atom_site_symmetry_multiplicity
 _atom_site_fract_x
 _atom_site_fract_y
 _atom_site_fract_z
 _atom_site_fract_occupancy
 Dy  Dy1  1  0.11015  0.54766  0.50000  1
 Dy  Dy2  1  0.54766  0.11015  0.50000  1
 Dy  Dy3  1  0.94759  0.94759  0.50000  1
 Ga  Ga1  1  0.48582  0.48582  0.50000  1
 Ga  Ga2  1  0.51695  0.78101  0.00000  1
 Ga  Ga3  1  0.78101  0.51695  0.00000  1
 Mn  Mn1  1  0.20538  0.91174  0.00000  1
 Mn  Mn2  1  0.91174  0.20538  0.00000  1
 Mn  Mn3  1  0.26769  0.26769  0.00000  1
