CIF file written using JARVIS-Tools package.
data_LiCuS
_symmetry_space_group_name_H-M  'P4/nmm'
_cell_length_a       3.71699
_cell_length_b       3.7168
_cell_length_c       12.2822
_cell_angle_alpha    90
_cell_angle_beta     90
_cell_angle_gamma    90

_symmetry_Int_Tables_number  129
_chemical_formula_structural  LiCuS
_chemical_formula_sum  Li4Cu4S4
_cell_volume  169.68225819418956
_cell_formula_units_Z  4
loop_
  _symmetry_equiv_pos_site_id
 _symmetry_equiv_pos_as_xyz
 1  'x, y, z'
loop_
 _atom_site_type_symbol
 _atom_site_label
 _atom_site_symmetry_multiplicity
 _atom_site_fract_x
 _atom_site_fract_y
 _atom_site_fract_z
 _atom_site_fract_occupancy
 Cu  Cu1  1  0.25000  0.75013  0.24999  1
 Cu  Cu2  1  0.75000  0.25013  0.25001  1
 Cu  Cu3  1  0.25000  0.74987  0.74999  1
 Cu  Cu4  1  0.75000  0.24987  0.75001  1
 Li  Li1  1  0.25000  0.24990  0.07698  1
 Li  Li2  1  0.75000  0.74990  0.42302  1
 Li  Li3  1  0.25000  0.25010  0.57698  1
 Li  Li4  1  0.75000  0.75010  0.92302  1
 S  S1  1  0.75000  0.75007  0.12192  1
 S  S2  1  0.25000  0.25007  0.37808  1
 S  S3  1  0.75000  0.74993  0.62192  1
 S  S4  1  0.25000  0.24993  0.87808  1
