CIF file written using JARVIS-Tools package.
data_LiCo3O4
_symmetry_space_group_name_H-M  'Cmmm'
_cell_length_a       5.06183
_cell_length_b       5.06184
_cell_length_c       2.89609
_cell_angle_alpha    90
_cell_angle_beta     90
_cell_angle_gamma    110.56

_symmetry_Int_Tables_number  65
_chemical_formula_structural  LiCo3O4
_chemical_formula_sum  LiCo3O4
_cell_volume  69.47766537133118
_cell_formula_units_Z  1
loop_
  _symmetry_equiv_pos_site_id
 _symmetry_equiv_pos_as_xyz
 1  'x, y, z'
loop_
 _atom_site_type_symbol
 _atom_site_label
 _atom_site_symmetry_multiplicity
 _atom_site_fract_x
 _atom_site_fract_y
 _atom_site_fract_z
 _atom_site_fract_occupancy
 Co  Co1  1  0.50000  -0.00000  0.00000  1
 Co  Co2  1  0.00000  0.00000  0.50000  1
 Co  Co3  1  -0.00000  0.50000  0.00000  1
 Li  Li1  1  0.50000  0.50000  0.50000  1
 O  O1  1  0.77110  0.77110  0.00000  1
 O  O2  1  0.23177  0.76823  0.50000  1
 O  O3  1  0.76823  0.23177  0.50000  1
 O  O4  1  0.22890  0.22890  0.00000  1
