CIF file written using JARVIS-Tools package.
data_Ba2Hg
_symmetry_space_group_name_H-M  'I4/mmm'
_cell_length_a       4.20737
_cell_length_b       4.20737
_cell_length_c       8.04734
_cell_angle_alpha    105.154
_cell_angle_beta     105.154
_cell_angle_gamma    90.0001

_symmetry_Int_Tables_number  139
_chemical_formula_structural  Ba2Hg
_chemical_formula_sum  Ba2Hg
_cell_volume  132.36134248260132
_cell_formula_units_Z  1
loop_
  _symmetry_equiv_pos_site_id
 _symmetry_equiv_pos_as_xyz
 1  'x, y, z'
loop_
 _atom_site_type_symbol
 _atom_site_label
 _atom_site_symmetry_multiplicity
 _atom_site_fract_x
 _atom_site_fract_y
 _atom_site_fract_z
 _atom_site_fract_occupancy
 Ba  Ba1  1  0.36950  0.36950  0.73901  1
 Ba  Ba2  1  0.63050  0.63050  0.26099  1
 Hg  Hg1  1  0.00000  0.00000  0.00000  1
