CIF file written using JARVIS-Tools package.
data_H6C12S2O
_symmetry_space_group_name_H-M  'P1'
_cell_length_a       3.76722
_cell_length_b       6.24323
_cell_length_c       10.3781
_cell_angle_alpha    86.7517
_cell_angle_beta     80.8408
_cell_angle_gamma    73.7949

_symmetry_Int_Tables_number  1
_chemical_formula_structural  H6C12S2O
_chemical_formula_sum  H6C2S2O
_cell_volume  231.38355074236907
_cell_formula_units_Z  1
loop_
  _symmetry_equiv_pos_site_id
 _symmetry_equiv_pos_as_xyz
 1  'x, y, z'
loop_
 _atom_site_type_symbol
 _atom_site_label
 _atom_site_symmetry_multiplicity
 _atom_site_fract_x
 _atom_site_fract_y
 _atom_site_fract_z
 _atom_site_fract_occupancy
 C  C1  1  0.09193  0.49851  0.82610  1
 C  C2  1  0.14196  0.29177  0.76825  1
 C  C3  1  0.76910  0.62046  0.22651  1
 C  C4  1  0.69693  0.65347  0.36140  1
 C  C5  1  0.90981  0.48111  0.43127  1
 C  C6  1  0.04257  0.42233  0.19048  1
 C  C7  1  0.87494  0.68721  0.63065  1
 C  C8  1  0.95164  0.69578  0.75590  1
 C  C9  1  0.23216  0.35337  0.06294  1
 C  C10  1  0.94610  0.48069  0.56877  1
 C  C11  1  0.18613  0.53010  0.95591  1
 C  C12  1  0.07552  0.28381  0.64077  1
 H  H1  1  0.90508  0.85546  0.80219  1
 H  H2  1  0.77382  0.84190  0.57703  1
 H  H3  1  0.24442  0.13777  0.82181  1
 H  H4  1  0.12343  0.12214  0.59605  1
 H  H5  1  0.49609  0.79964  0.40733  1
 H  H6  1  0.63259  0.73784  0.15635  1
 O  O1  1  0.25081  0.70673  0.97983  1
 S  S1  1  0.57300  0.12162  0.03205  1
 S  S2  1  0.19201  0.27155  0.32817  1
