CIF file written using JARVIS-Tools package.
data_SrHgO2
_symmetry_space_group_name_H-M  'P3_221'
_cell_length_a       3.84502
_cell_length_b       3.84502
_cell_length_c       19.2523
_cell_angle_alpha    90
_cell_angle_beta     90
_cell_angle_gamma    120

_symmetry_Int_Tables_number  154
_chemical_formula_structural  SrHgO2
_chemical_formula_sum  Sr3Hg3O6
_cell_volume  246.4951759623469
_cell_formula_units_Z  3
loop_
  _symmetry_equiv_pos_site_id
 _symmetry_equiv_pos_as_xyz
 1  'x, y, z'
loop_
 _atom_site_type_symbol
 _atom_site_label
 _atom_site_symmetry_multiplicity
 _atom_site_fract_x
 _atom_site_fract_y
 _atom_site_fract_z
 _atom_site_fract_occupancy
 Hg  Hg1  1  0.66448  0.66448  0.00000  1
 Hg  Hg2  1  0.00000  0.33552  0.33333  1
 Hg  Hg3  1  0.33552  0.00000  0.66667  1
 O  O1  1  0.66676  0.66217  0.89643  1
 O  O2  1  0.33783  0.00460  0.56309  1
 O  O3  1  0.99540  0.33324  0.22976  1
 O  O4  1  0.00460  0.33783  0.43691  1
 O  O5  1  0.66217  0.66676  0.10357  1
 O  O6  1  0.33324  0.99540  0.77024  1
 Sr  Sr1  1  0.32894  -0.00000  0.16667  1
 Sr  Sr2  1  -0.00000  0.32894  0.83333  1
 Sr  Sr3  1  0.67106  0.67106  0.50000  1
