CIF file written using JARVIS-Tools package.
data_Pb2SeS
_symmetry_space_group_name_H-M  'P4/mmm'
_cell_length_a       4.314
_cell_length_b       4.314
_cell_length_c       6.10136
_cell_angle_alpha    90
_cell_angle_beta     90
_cell_angle_gamma    90

_symmetry_Int_Tables_number  123
_chemical_formula_structural  Pb2SeS
_chemical_formula_sum  Pb2SeS
_cell_volume  113.5500903830482
_cell_formula_units_Z  1
loop_
  _symmetry_equiv_pos_site_id
 _symmetry_equiv_pos_as_xyz
 1  'x, y, z'
loop_
 _atom_site_type_symbol
 _atom_site_label
 _atom_site_symmetry_multiplicity
 _atom_site_fract_x
 _atom_site_fract_y
 _atom_site_fract_z
 _atom_site_fract_occupancy
 Pb  Pb1  1  0.00000  0.00000  0.00000  1
 Pb  Pb2  1  0.50000  0.50000  0.50000  1
 S  S1  1  0.00000  0.00000  0.50000  1
 Se  Se1  1  0.50000  0.50000  0.00000  1
