CIF file written using JARVIS-Tools package.
data_ZnSeO3
_symmetry_space_group_name_H-M  'Pnma'
_cell_length_a       5.11189
_cell_length_b       5.94175
_cell_length_c       7.72985
_cell_angle_alpha    90
_cell_angle_beta     90
_cell_angle_gamma    90

_symmetry_Int_Tables_number  62
_chemical_formula_structural  ZnSeO3
_chemical_formula_sum  Zn4Se4O2
_cell_volume  234.78305447093766
_cell_formula_units_Z  4
loop_
  _symmetry_equiv_pos_site_id
 _symmetry_equiv_pos_as_xyz
 1  'x, y, z'
loop_
 _atom_site_type_symbol
 _atom_site_label
 _atom_site_symmetry_multiplicity
 _atom_site_fract_x
 _atom_site_fract_y
 _atom_site_fract_z
 _atom_site_fract_occupancy
 O  O1  1  0.32008  0.07625  0.25000  1
 O  O2  1  0.86442  0.18590  0.42251  1
 O  O3  1  0.17992  0.57625  0.25000  1
 O  O4  1  0.63558  0.68590  0.07749  1
 O  O5  1  0.13558  0.81410  0.92251  1
 O  O6  1  0.36442  0.31410  0.57749  1
 O  O7  1  0.63558  0.68590  0.42251  1
 O  O8  1  0.36442  0.31410  0.92251  1
 O  O9  1  0.86442  0.18590  0.07749  1
 O  O10  1  0.67992  0.92375  0.75000  1
 O  O11  1  0.82008  0.42375  0.75000  1
 O  O12  1  0.13558  0.81410  0.57749  1
 Se  Se1  1  0.98431  0.02183  0.25000  1
 Se  Se2  1  0.48431  0.47817  0.75000  1
 Se  Se3  1  0.51569  0.52183  0.25000  1
 Se  Se4  1  0.01569  0.97817  0.75000  1
 Zn  Zn1  1  0.50000  0.00000  0.00000  1
 Zn  Zn2  1  0.00000  0.50000  0.00000  1
 Zn  Zn3  1  0.00000  0.50000  0.50000  1
 Zn  Zn4  1  0.50000  0.00000  0.50000  1
