CIF file written using JARVIS-Tools package.
data_LiMnF4
_symmetry_space_group_name_H-M  'Cmmm'
_cell_length_a       4.54133
_cell_length_b       4.54133
_cell_length_c       3.13819
_cell_angle_alpha    90
_cell_angle_beta     90
_cell_angle_gamma    92.2752

_symmetry_Int_Tables_number  65
_chemical_formula_structural  LiMnF4
_chemical_formula_sum  LiMnF4
_cell_volume  64.66985206973821
_cell_formula_units_Z  1
loop_
  _symmetry_equiv_pos_site_id
 _symmetry_equiv_pos_as_xyz
 1  'x, y, z'
loop_
 _atom_site_type_symbol
 _atom_site_label
 _atom_site_symmetry_multiplicity
 _atom_site_fract_x
 _atom_site_fract_y
 _atom_site_fract_z
 _atom_site_fract_occupancy
 F  F1  1  0.69565  0.30435  0.00000  1
 F  F2  1  0.30435  0.69565  0.00000  1
 F  F3  1  0.20947  0.20947  0.50000  1
 F  F4  1  0.79053  0.79053  0.50000  1
 Li  Li1  1  0.00000  0.00000  0.00000  1
 Mn  Mn1  1  0.50000  0.50000  0.50000  1
