CIF file written using JARVIS-Tools package.
data_Li2Co2OF6
_symmetry_space_group_name_H-M  'P-1'
_cell_length_a       5.30543
_cell_length_b       6.80689
_cell_length_c       8.333
_cell_angle_alpha    70.4906
_cell_angle_beta     72.4666
_cell_angle_gamma    80.7614

_symmetry_Int_Tables_number  2
_chemical_formula_structural  Li2Co2OF6
_chemical_formula_sum  Li4Co4O2F2
_cell_volume  269.87569480515083
_cell_formula_units_Z  2
loop_
  _symmetry_equiv_pos_site_id
 _symmetry_equiv_pos_as_xyz
 1  'x, y, z'
loop_
 _atom_site_type_symbol
 _atom_site_label
 _atom_site_symmetry_multiplicity
 _atom_site_fract_x
 _atom_site_fract_y
 _atom_site_fract_z
 _atom_site_fract_occupancy
 Co  Co1  1  0.26872  0.00726  0.19069  1
 Co  Co2  1  0.75277  0.78362  0.29780  1
 Co  Co3  1  0.24723  0.21638  0.70220  1
 Co  Co4  1  0.73128  0.99274  0.80931  1
 F  F1  1  0.29813  0.08179  0.93776  1
 F  F2  1  0.11245  0.93025  0.72285  1
 F  F3  1  0.88755  0.06975  0.27715  1
 F  F4  1  0.70187  0.91821  0.06224  1
 F  F5  1  0.12506  0.73833  0.20278  1
 F  F6  1  0.37401  0.28070  0.15712  1
 F  F7  1  0.22187  0.31729  0.47068  1
 F  F8  1  0.77813  0.68271  0.52932  1
 F  F9  1  0.62599  0.71930  0.84288  1
 F  F10  1  0.87494  0.26167  0.79722  1
 F  F11  1  0.74714  0.50379  0.27950  1
 F  F12  1  0.25286  0.49621  0.72050  1
 Li  Li1  1  0.88940  0.55504  0.73699  1
 Li  Li2  1  0.41922  0.73164  0.67931  1
 Li  Li3  1  0.58078  0.26836  0.32069  1
 Li  Li4  1  0.11060  0.44496  0.26301  1
 O  O1  1  0.58041  0.13537  0.63262  1
 O  O2  1  0.41959  0.86463  0.36738  1
