CIF file written using JARVIS-Tools package.
data_NaZnP
_symmetry_space_group_name_H-M  'P4/nmm'
_cell_length_a       4.06874
_cell_length_b       4.06874
_cell_length_c       6.89133
_cell_angle_alpha    90
_cell_angle_beta     90
_cell_angle_gamma    90

_symmetry_Int_Tables_number  129
_chemical_formula_structural  NaZnP
_chemical_formula_sum  Na2Zn2P2
_cell_volume  114.08341879810354
_cell_formula_units_Z  2
loop_
  _symmetry_equiv_pos_site_id
 _symmetry_equiv_pos_as_xyz
 1  'x, y, z'
loop_
 _atom_site_type_symbol
 _atom_site_label
 _atom_site_symmetry_multiplicity
 _atom_site_fract_x
 _atom_site_fract_y
 _atom_site_fract_z
 _atom_site_fract_occupancy
 Na  Na1  1  0.00000  0.50000  0.64419  1
 Na  Na2  1  0.50000  0.00000  0.35581  1
 P  P1  1  0.50000  0.00000  0.78459  1
 P  P2  1  0.00000  0.50000  0.21541  1
 Zn  Zn1  1  0.00000  0.00000  0.00000  1
 Zn  Zn2  1  0.50000  0.50000  0.00000  1
