CIF file written using JARVIS-Tools package.
data_KLiZn3O4
_symmetry_space_group_name_H-M  'Cm'
_cell_length_a       6.06194
_cell_length_b       6.06194
_cell_length_c       8.17855
_cell_angle_alpha    47.5319
_cell_angle_beta     47.5319
_cell_angle_gamma    31.9441

_symmetry_Int_Tables_number  8
_chemical_formula_structural  KLiZn3O4
_chemical_formula_sum  KLiZn3O4
_cell_volume  113.19972726751661
_cell_formula_units_Z  1
loop_
  _symmetry_equiv_pos_site_id
 _symmetry_equiv_pos_as_xyz
 1  'x, y, z'
loop_
 _atom_site_type_symbol
 _atom_site_label
 _atom_site_symmetry_multiplicity
 _atom_site_fract_x
 _atom_site_fract_y
 _atom_site_fract_z
 _atom_site_fract_occupancy
 K  K1  1  0.99509  0.99509  -0.00121  1
 Li  Li1  1  0.18175  0.18175  0.18830  1
 O  O1  1  0.24070  0.24070  0.35965  1
 O  O2  1  0.76668  0.76668  0.63701  1
 O  O3  1  0.40550  0.40550  0.82098  1
 O  O4  1  0.60304  0.60304  0.17828  1
 Zn  Zn1  1  0.80084  0.80084  0.84185  1
 Zn  Zn2  1  0.63047  0.63047  0.53245  1
 Zn  Zn3  1  0.37592  0.37592  0.44269  1
