CIF file written using JARVIS-Tools package.
data_Li2B4O7
_symmetry_space_group_name_H-M  'I4_1cd'
_cell_length_a       8.44881
_cell_length_b       8.4488
_cell_length_c       8.44881
_cell_angle_alpha    111.862
_cell_angle_beta     111.862
_cell_angle_gamma    104.79

_symmetry_Int_Tables_number  110
_chemical_formula_structural  Li2B4O7
_chemical_formula_sum  Li8B6O28
_cell_volume  461.9628787853103
_cell_formula_units_Z  4
loop_
  _symmetry_equiv_pos_site_id
 _symmetry_equiv_pos_as_xyz
 1  'x, y, z'
loop_
 _atom_site_type_symbol
 _atom_site_label
 _atom_site_symmetry_multiplicity
 _atom_site_fract_x
 _atom_site_fract_y
 _atom_site_fract_z
 _atom_site_fract_occupancy
 B  B1  1  0.13768  0.71626  0.75734  1
 B  B2  1  0.46626  0.20892  0.07858  1
 B  B3  1  0.63768  0.88034  0.42142  1
 B  B4  1  0.96626  0.88768  0.25734  1
 B  B5  1  0.63034  0.70892  0.74266  1
 B  B6  1  0.45892  0.21626  0.57858  1
 B  B7  1  0.95892  0.38034  0.24266  1
 B  B8  1  0.13034  0.38768  0.92142  1
 B  B9  1  0.55550  0.11209  0.33203  1
 B  B10  1  0.78006  0.22347  0.66797  1
 B  B11  1  0.86209  0.03006  0.05659  1
 B  B12  1  0.97347  0.80550  0.94341  1
 B  B13  1  0.36209  0.30550  0.83203  1
 B  B14  1  0.05550  0.72347  0.44341  1
 B  B15  1  0.47347  0.53006  0.16797  1
 B  B16  1  0.28006  0.61209  0.55659  1
 Li  Li1  1  0.00167  0.98674  0.68375  1
 Li  Li2  1  0.23674  0.75167  0.18375  1
 Li  Li3  1  0.80299  0.48674  0.98507  1
 Li  Li4  1  0.50167  0.81792  0.01493  1
 Li  Li5  1  0.30299  0.31792  0.31625  1
 Li  Li6  1  0.73674  0.55299  0.48507  1
 Li  Li7  1  0.06792  0.25167  0.51493  1
 Li  Li8  1  0.56792  0.05299  0.81625  1
 O  O1  1  0.77817  0.66362  0.75562  1
 O  O2  1  0.90800  0.02255  0.24438  1
 O  O3  1  0.77255  0.02817  0.61455  1
 O  O4  1  0.51623  0.09265  0.14072  1
 O  O5  1  0.95193  0.37551  0.85928  1
 O  O6  1  0.45193  0.59265  0.57642  1
 O  O7  1  0.12551  0.76623  0.92358  1
 O  O8  1  0.34265  0.26623  0.64072  1
 O  O9  1  -0.00018  -0.00018  -0.00000  1
 O  O10  1  0.62551  0.70193  0.35928  1
 O  O11  1  0.41362  0.15800  0.38545  1
 O  O12  1  0.84265  0.20193  0.07642  1
 O  O13  1  0.01623  0.87551  0.42358  1
 O  O14  1  0.51387  0.91068  0.28757  1
 O  O15  1  0.01387  0.72630  0.60320  1
 O  O16  1  0.27817  0.52255  0.11455  1
 O  O17  1  0.24982  0.74982  0.50000  1
 O  O18  1  0.49982  0.49982  -0.00000  1
 O  O19  1  0.16068  0.26387  0.78757  1
 O  O20  1  0.12310  0.41068  0.39680  1
 O  O21  1  0.47630  0.37310  0.21243  1
 O  O22  1  0.62310  0.22630  0.71243  1
 O  O23  1  0.66068  0.87310  0.89680  1
 O  O24  1  0.97630  0.76387  0.10320  1
 O  O25  1  0.27255  0.65800  0.74438  1
 O  O26  1  0.40800  0.16362  0.88545  1
 O  O27  1  0.91362  0.52817  0.25562  1
 O  O28  1  0.74982  0.24982  0.50000  1
