CIF file written using JARVIS-Tools package.
data_Ca2Zn3Ga
_symmetry_space_group_name_H-M  'Cm'
_cell_length_a       5.74533
_cell_length_b       5.74532
_cell_length_c       7.27703
_cell_angle_alpha    50.9972
_cell_angle_beta     50.9972
_cell_angle_gamma    45.9179

_symmetry_Int_Tables_number  8
_chemical_formula_structural  Ca2Zn3Ga
_chemical_formula_sum  Ca2Zn3Ga
_cell_volume  125.95276414432087
_cell_formula_units_Z  1
loop_
  _symmetry_equiv_pos_site_id
 _symmetry_equiv_pos_as_xyz
 1  'x, y, z'
loop_
 _atom_site_type_symbol
 _atom_site_label
 _atom_site_symmetry_multiplicity
 _atom_site_fract_x
 _atom_site_fract_y
 _atom_site_fract_z
 _atom_site_fract_occupancy
 Ca  Ca1  1  0.45847  0.45847  0.79230  1
 Ca  Ca2  1  0.54227  0.54227  0.20591  1
 Ga  Ga1  1  0.83575  0.83575  0.61033  1
 Zn  Zn1  1  0.16347  0.16347  0.38387  1
 Zn  Zn2  1  0.16485  0.16485  0.78671  1
 Zn  Zn3  1  0.83519  0.83519  0.22088  1
