CIF file written using JARVIS-Tools package.
data_Cd2InCuSe4
_symmetry_space_group_name_H-M  'Cm'
_cell_length_a       8.18911
_cell_length_b       8.18911
_cell_length_c       7.3485
_cell_angle_alpha    63.3286
_cell_angle_beta     63.3286
_cell_angle_gamma    30.0933

_symmetry_Int_Tables_number  8
_chemical_formula_structural  Cd2InCuSe4
_chemical_formula_sum  Cd2InCuSe4
_cell_volume  218.78115261588002
_cell_formula_units_Z  1
loop_
  _symmetry_equiv_pos_site_id
 _symmetry_equiv_pos_as_xyz
 1  'x, y, z'
loop_
 _atom_site_type_symbol
 _atom_site_label
 _atom_site_symmetry_multiplicity
 _atom_site_fract_x
 _atom_site_fract_y
 _atom_site_fract_z
 _atom_site_fract_occupancy
 Cd  Cd1  1  0.49729  0.49729  0.18473  1
 Cd  Cd2  1  0.99662  0.99662  0.65411  1
 Cu  Cu1  1  0.25212  0.25212  0.06601  1
 In  In1  1  0.75090  0.75090  0.59622  1
 Se  Se1  1  0.07651  0.07651  0.25214  1
 Se  Se2  1  0.56208  0.56208  0.77400  1
 Se  Se3  1  0.80680  0.80680  0.88234  1
 Se  Se4  1  0.30504  0.30504  0.34046  1
