CIF file written using JARVIS-Tools package.
data_Mn2Ga5
_symmetry_space_group_name_H-M  'P4/mbm'
_cell_length_a       2.69067
_cell_length_b       8.79444
_cell_length_c       8.79463
_cell_angle_alpha    90.0009
_cell_angle_beta     90.0003
_cell_angle_gamma    90.0026

_symmetry_Int_Tables_number  127
_chemical_formula_structural  Mn2Ga5
_chemical_formula_sum  Mn4Ga0
_cell_volume  208.1064914830017
_cell_formula_units_Z  2
loop_
  _symmetry_equiv_pos_site_id
 _symmetry_equiv_pos_as_xyz
 1  'x, y, z'
loop_
 _atom_site_type_symbol
 _atom_site_label
 _atom_site_symmetry_multiplicity
 _atom_site_fract_x
 _atom_site_fract_y
 _atom_site_fract_z
 _atom_site_fract_occupancy
 Ga  Ga1  1  0.99987  0.29471  0.43504  1
 Ga  Ga2  1  0.00007  0.79475  0.06495  1
 Ga  Ga3  1  0.99974  0.56494  0.29472  1
 Ga  Ga4  1  0.00020  -0.00000  0.50000  1
 Ga  Ga5  1  0.00012  0.20527  0.93506  1
 Ga  Ga6  1  0.00006  0.93504  0.79471  1
 Ga  Ga7  1  0.99993  0.06496  0.20530  1
 Ga  Ga8  1  0.99982  0.50001  -0.00001  1
 Ga  Ga9  1  0.00031  0.43504  0.70527  1
 Ga  Ga10  1  0.99988  0.70528  0.56495  1
 Mn  Mn1  1  0.49994  0.67806  0.82193  1
 Mn  Mn2  1  0.49981  0.32194  0.17806  1
 Mn  Mn3  1  0.50002  0.82194  0.32194  1
 Mn  Mn4  1  0.50023  0.17805  0.67807  1
