CIF file written using JARVIS-Tools package.
data_LiV6O7F5
_symmetry_space_group_name_H-M  'P1'
_cell_length_a       4.82555
_cell_length_b       5.59333
_cell_length_c       7.55495
_cell_angle_alpha    83.8285
_cell_angle_beta     88.8591
_cell_angle_gamma    88.9688

_symmetry_Int_Tables_number  1
_chemical_formula_structural  LiV6O7F5
_chemical_formula_sum  LiV6O7F5
_cell_volume  202.6672855783459
_cell_formula_units_Z  1
loop_
  _symmetry_equiv_pos_site_id
 _symmetry_equiv_pos_as_xyz
 1  'x, y, z'
loop_
 _atom_site_type_symbol
 _atom_site_label
 _atom_site_symmetry_multiplicity
 _atom_site_fract_x
 _atom_site_fract_y
 _atom_site_fract_z
 _atom_site_fract_occupancy
 F  F1  1  0.80224  0.03167  0.76029  1
 F  F2  1  0.19670  0.64655  0.56202  1
 F  F3  1  0.20090  0.96667  0.23728  1
 F  F4  1  0.69631  0.53039  0.75425  1
 F  F5  1  0.30295  0.47527  0.24184  1
 Li  Li1  1  0.49528  0.90446  0.09177  1
 O  O1  1  0.81529  0.36977  0.43765  1
 O  O2  1  0.78937  0.69008  0.09387  1
 O  O3  1  0.31214  0.79511  0.89995  1
 O  O4  1  0.30942  0.14848  0.56249  1
 O  O5  1  0.18473  0.29289  0.90201  1
 O  O6  1  0.68049  0.18587  0.10813  1
 O  O7  1  0.69927  0.86624  0.43242  1
 V  V1  1  0.95144  0.66682  0.32657  1
 V  V2  1  0.49473  0.48136  0.99471  1
 V  V3  1  0.48381  0.85429  0.66013  1
 V  V4  1  0.02851  0.33064  0.66735  1
 V  V5  1  0.00032  -0.00234  0.99782  1
 V  V6  1  0.55212  0.17827  0.35784  1
