CIF file written using JARVIS-Tools package.
data_SiO2
_symmetry_space_group_name_H-M  'P4_32_12'
_cell_length_a       4.96693
_cell_length_b       4.96693
_cell_length_c       6.85178
_cell_angle_alpha    90
_cell_angle_beta     90
_cell_angle_gamma    90

_symmetry_Int_Tables_number  96
_chemical_formula_structural  SiO2
_chemical_formula_sum  Si4O8
_cell_volume  169.03592566824747
_cell_formula_units_Z  4
loop_
  _symmetry_equiv_pos_site_id
 _symmetry_equiv_pos_as_xyz
 1  'x, y, z'
loop_
 _atom_site_type_symbol
 _atom_site_label
 _atom_site_symmetry_multiplicity
 _atom_site_fract_x
 _atom_site_fract_y
 _atom_site_fract_z
 _atom_site_fract_occupancy
 O  O1  1  0.62366  0.73512  0.68827  1
 O  O2  1  0.37634  0.26488  0.18827  1
 O  O3  1  0.73512  0.62366  0.31173  1
 O  O4  1  0.23512  0.87634  0.93827  1
 O  O5  1  0.26488  0.37634  0.81173  1
 O  O6  1  0.12366  0.76488  0.56173  1
 O  O7  1  0.87634  0.23512  0.06173  1
 O  O8  1  0.76488  0.12366  0.43827  1
 Si  Si1  1  0.18980  0.18980  0.00000  1
 Si  Si2  1  0.31020  0.68980  0.75000  1
 Si  Si3  1  0.68980  0.31020  0.25000  1
 Si  Si4  1  0.81020  0.81020  0.50000  1
