CIF file written using JARVIS-Tools package.
data_LaTiNO2
_symmetry_space_group_name_H-M  'Pmma'
_cell_length_a       3.86707
_cell_length_b       5.63408
_cell_length_c       5.69931
_cell_angle_alpha    90
_cell_angle_beta     90
_cell_angle_gamma    90

_symmetry_Int_Tables_number  51
_chemical_formula_structural  LaTiNO2
_chemical_formula_sum  La2Ti2N2O4
_cell_volume  124.17285529546477
_cell_formula_units_Z  2
loop_
  _symmetry_equiv_pos_site_id
 _symmetry_equiv_pos_as_xyz
 1  'x, y, z'
loop_
 _atom_site_type_symbol
 _atom_site_label
 _atom_site_symmetry_multiplicity
 _atom_site_fract_x
 _atom_site_fract_y
 _atom_site_fract_z
 _atom_site_fract_occupancy
 La  La1  1  0.00000  0.25000  0.22947  1
 La  La2  1  0.00000  0.75000  0.77053  1
 N  N1  1  0.50000  0.00000  0.50000  1
 N  N2  1  0.50000  0.50000  0.50000  1
 O  O1  1  0.50000  0.00000  0.00000  1
 O  O2  1  0.50000  0.50000  0.00000  1
 O  O3  1  0.00000  0.75000  0.21894  1
 O  O4  1  0.00000  0.25000  0.78106  1
 Ti  Ti1  1  0.50000  0.25000  0.72893  1
 Ti  Ti2  1  0.50000  0.75000  0.27107  1
