CIF file written using JARVIS-Tools package.
data_AsPRh4
_symmetry_space_group_name_H-M  'R-3m'
_cell_length_a       6.92546
_cell_length_b       6.92546
_cell_length_c       6.92546
_cell_angle_alpha    33.5625
_cell_angle_beta     33.5625
_cell_angle_gamma    33.5626

_symmetry_Int_Tables_number  166
_chemical_formula_structural  AsPRh4
_chemical_formula_sum  AsPRh4
_cell_volume  90.42779632570193
_cell_formula_units_Z  1
loop_
  _symmetry_equiv_pos_site_id
 _symmetry_equiv_pos_as_xyz
 1  'x, y, z'
loop_
 _atom_site_type_symbol
 _atom_site_label
 _atom_site_symmetry_multiplicity
 _atom_site_fract_x
 _atom_site_fract_y
 _atom_site_fract_z
 _atom_site_fract_occupancy
 As  As1  1  0.50000  0.50000  0.50000  1
 P  P1  1  0.00000  0.00000  0.00000  1
 Rh  Rh1  1  0.62797  0.62797  0.62797  1
 Rh  Rh2  1  0.12159  0.12159  0.12159  1
 Rh  Rh3  1  0.87841  0.87841  0.87841  1
 Rh  Rh4  1  0.37203  0.37203  0.37203  1
