CIF file written using JARVIS-Tools package.
data_H8PbC6SO4
_symmetry_space_group_name_H-M  'P1'
_cell_length_a       4.30113
_cell_length_b       5.08809
_cell_length_c       10.1612
_cell_angle_alpha    88.361
_cell_angle_beta     86.2559
_cell_angle_gamma    65.0844

_symmetry_Int_Tables_number  1
_chemical_formula_structural  H8PbC6SO4
_chemical_formula_sum  H8PbC6SO4
_cell_volume  201.2465438398372
_cell_formula_units_Z  1
loop_
  _symmetry_equiv_pos_site_id
 _symmetry_equiv_pos_as_xyz
 1  'x, y, z'
loop_
 _atom_site_type_symbol
 _atom_site_label
 _atom_site_symmetry_multiplicity
 _atom_site_fract_x
 _atom_site_fract_y
 _atom_site_fract_z
 _atom_site_fract_occupancy
 C  C1  1  0.11423  0.33953  0.90932  1
 C  C2  1  0.21645  0.40359  0.47969  1
 C  C3  1  0.96576  0.54491  0.37250  1
 C  C4  1  0.95041  0.33844  0.27113  1
 C  C5  1  0.78362  0.40477  0.70059  1
 C  C6  1  0.89335  0.54608  0.80768  1
 H  H1  1  0.65439  0.69616  0.86130  1
 H  H2  1  0.05521  0.69485  0.31861  1
 H  H3  1  0.60253  0.57640  0.64054  1
 H  H4  1  0.65209  0.27680  0.74403  1
 H  H5  1  0.22751  0.57519  0.53926  1
 H  H6  1  0.47522  0.27478  0.43634  1
 H  H7  1  0.70397  0.67841  0.41285  1
 H  H8  1  0.02231  0.67945  0.76722  1
 O  O1  1  0.29221  0.42834  0.97765  1
 O  O2  1  0.11660  0.08940  0.92620  1
 O  O3  1  0.19739  0.08840  0.25436  1
 O  O4  1  0.68369  0.42736  0.20284  1
 Pb  Pb1  1  0.69525  0.01138  0.09018  1
 S  S1  1  0.12484  0.15334  0.59051  1
