CIF file written using JARVIS-Tools package.
data_K3SO4F
_symmetry_space_group_name_H-M  'P-43m'
_cell_length_a       5.37939
_cell_length_b       5.37939
_cell_length_c       5.37939
_cell_angle_alpha    90
_cell_angle_beta     90
_cell_angle_gamma    90

_symmetry_Int_Tables_number  215
_chemical_formula_structural  K3SO4F
_chemical_formula_sum  K3SO4F
_cell_volume  155.66788129268448
_cell_formula_units_Z  1
loop_
  _symmetry_equiv_pos_site_id
 _symmetry_equiv_pos_as_xyz
 1  'x, y, z'
loop_
 _atom_site_type_symbol
 _atom_site_label
 _atom_site_symmetry_multiplicity
 _atom_site_fract_x
 _atom_site_fract_y
 _atom_site_fract_z
 _atom_site_fract_occupancy
 F  F1  1  0.00000  0.00000  0.00000  1
 K  K1  1  0.50000  0.00000  0.00000  1
 K  K2  1  0.00000  0.00000  0.50000  1
 K  K3  1  0.00000  0.50000  0.00000  1
 O  O1  1  0.33968  0.33968  0.66032  1
 O  O2  1  0.33968  0.66032  0.33968  1
 O  O3  1  0.66032  0.33968  0.33968  1
 O  O4  1  0.66032  0.66032  0.66032  1
 S  S1  1  0.50000  0.50000  0.50000  1
