CIF file written using JARVIS-Tools package.
data_U5SiS4
_symmetry_space_group_name_H-M  'I4/m'
_cell_length_a       6.78068
_cell_length_b       6.78068
_cell_length_c       6.78068
_cell_angle_alpha    99.5915
_cell_angle_beta     99.5914
_cell_angle_gamma    131.817

_symmetry_Int_Tables_number  87
_chemical_formula_structural  U5SiS4
_chemical_formula_sum  U5SiS4
_cell_volume  212.10855199026116
_cell_formula_units_Z  1
loop_
  _symmetry_equiv_pos_site_id
 _symmetry_equiv_pos_as_xyz
 1  'x, y, z'
loop_
 _atom_site_type_symbol
 _atom_site_label
 _atom_site_symmetry_multiplicity
 _atom_site_fract_x
 _atom_site_fract_y
 _atom_site_fract_z
 _atom_site_fract_occupancy
 S  S1  1  0.10371  0.70214  0.80585  1
 S  S2  1  0.70214  0.89629  0.59843  1
 S  S3  1  0.29786  0.10371  0.40157  1
 S  S4  1  0.89629  0.29786  0.19415  1
 Si  Si1  1  0.50000  0.50000  0.00000  1
 U  U1  1  0.39991  0.80540  0.20531  1
 U  U2  1  0.00000  0.00000  0.00000  1
 U  U3  1  0.60009  0.19460  0.79469  1
 U  U4  1  0.19460  0.39991  0.59451  1
 U  U5  1  0.80540  0.60009  0.40549  1
