CIF file written using JARVIS-Tools package.
data_Al2Fe3Si3
_symmetry_space_group_name_H-M  'P-1'
_cell_length_a       4.62834
_cell_length_b       6.34295
_cell_length_c       7.4928
_cell_angle_alpha    101.947
_cell_angle_beta     106.797
_cell_angle_gamma    100.667

_symmetry_Int_Tables_number  2
_chemical_formula_structural  Al2Fe3Si3
_chemical_formula_sum  Al4Fe6Si6
_cell_volume  198.85285811369337
_cell_formula_units_Z  2
loop_
  _symmetry_equiv_pos_site_id
 _symmetry_equiv_pos_as_xyz
 1  'x, y, z'
loop_
 _atom_site_type_symbol
 _atom_site_label
 _atom_site_symmetry_multiplicity
 _atom_site_fract_x
 _atom_site_fract_y
 _atom_site_fract_z
 _atom_site_fract_occupancy
 Al  Al1  1  0.41437  0.67550  0.05341  1
 Al  Al2  1  0.95010  0.35775  0.72884  1
 Al  Al3  1  0.04990  0.64225  0.27116  1
 Al  Al4  1  0.58563  0.32450  0.94659  1
 Fe  Fe1  1  0.63451  0.97292  0.76717  1
 Fe  Fe2  1  0.36549  0.02708  0.23283  1
 Fe  Fe3  1  0.86369  0.68185  0.94383  1
 Fe  Fe4  1  0.13631  0.31815  0.05617  1
 Fe  Fe5  1  0.95889  0.70743  0.58266  1
 Fe  Fe6  1  0.04111  0.29257  0.41734  1
 Si  Si1  1  0.54224  0.41163  0.34751  1
 Si  Si2  1  0.27455  0.04005  0.53109  1
 Si  Si3  1  0.45776  0.58837  0.65249  1
 Si  Si4  1  0.82292  0.02485  0.11427  1
 Si  Si5  1  0.17708  0.97515  0.88573  1
 Si  Si6  1  0.72545  0.95995  0.46891  1
