CIF file written using JARVIS-Tools package.
data_Bi2SO2
_symmetry_space_group_name_H-M  'Pnnm'
_cell_length_a       3.86982
_cell_length_b       3.88179
_cell_length_c       12.0967
_cell_angle_alpha    90
_cell_angle_beta     90
_cell_angle_gamma    90

_symmetry_Int_Tables_number  58
_chemical_formula_structural  Bi2SO2
_chemical_formula_sum  Bi4S2O4
_cell_volume  181.714094448435
_cell_formula_units_Z  2
loop_
  _symmetry_equiv_pos_site_id
 _symmetry_equiv_pos_as_xyz
 1  'x, y, z'
loop_
 _atom_site_type_symbol
 _atom_site_label
 _atom_site_symmetry_multiplicity
 _atom_site_fract_x
 _atom_site_fract_y
 _atom_site_fract_z
 _atom_site_fract_occupancy
 Bi  Bi1  1  0.50000  0.45138  0.85687  1
 Bi  Bi2  1  0.50000  0.54862  0.14313  1
 Bi  Bi3  1  0.00000  0.95138  0.64313  1
 Bi  Bi4  1  0.00000  0.04862  0.35687  1
 O  O1  1  0.00000  0.46359  0.74967  1
 O  O2  1  0.00000  0.53641  0.25033  1
 O  O3  1  0.50000  0.96359  0.75033  1
 O  O4  1  0.50000  0.03641  0.24967  1
 S  S1  1  0.00000  0.00000  0.00000  1
 S  S2  1  0.50000  0.50000  0.50000  1
