CIF file written using JARVIS-Tools package.
data_H4C2O
_symmetry_space_group_name_H-M  'P-1'
_cell_length_a       4.081
_cell_length_b       4.43873
_cell_length_c       6.22618
_cell_angle_alpha    82.2437
_cell_angle_beta     84.5449
_cell_angle_gamma    70.6228

_symmetry_Int_Tables_number  2
_chemical_formula_structural  H4C2O
_chemical_formula_sum  H8C4O2
_cell_volume  105.26917024346142
_cell_formula_units_Z  2
loop_
  _symmetry_equiv_pos_site_id
 _symmetry_equiv_pos_as_xyz
 1  'x, y, z'
loop_
 _atom_site_type_symbol
 _atom_site_label
 _atom_site_symmetry_multiplicity
 _atom_site_fract_x
 _atom_site_fract_y
 _atom_site_fract_z
 _atom_site_fract_occupancy
 C  C1  1  0.85832  0.11017  0.06787  1
 C  C2  1  0.56093  0.11030  0.41380  1
 C  C3  1  0.14168  0.88983  0.93213  1
 C  C4  1  0.43907  0.88970  0.58620  1
 H  H1  1  0.05051  0.70482  0.87958  1
 H  H2  1  0.37252  0.76863  0.02788  1
 H  H3  1  0.66502  0.70281  0.66028  1
 H  H4  1  0.28577  0.76932  0.51428  1
 H  H5  1  0.94949  0.29518  0.12042  1
 H  H6  1  0.62748  0.23137  0.97212  1
 H  H7  1  0.33498  0.29719  0.33972  1
 H  H8  1  0.71423  0.23068  0.48572  1
 O  O1  1  0.77251  0.91553  0.25359  1
 O  O2  1  0.22749  0.08447  0.74641  1
