CIF file written using JARVIS-Tools package.
data_MgHg2
_symmetry_space_group_name_H-M  'C2/m'
_cell_length_a       6.4436
_cell_length_b       6.4436
_cell_length_c       6.72914
_cell_angle_alpha    71.9971
_cell_angle_beta     71.997
_cell_angle_gamma    30.7018

_symmetry_Int_Tables_number  12
_chemical_formula_structural  MgHg2
_chemical_formula_sum  Mg2Hg4
_cell_volume  135.12503541146063
_cell_formula_units_Z  2
loop_
  _symmetry_equiv_pos_site_id
 _symmetry_equiv_pos_as_xyz
 1  'x, y, z'
loop_
 _atom_site_type_symbol
 _atom_site_label
 _atom_site_symmetry_multiplicity
 _atom_site_fract_x
 _atom_site_fract_y
 _atom_site_fract_z
 _atom_site_fract_occupancy
 Hg  Hg1  1  0.65394  0.65394  0.91761  1
 Hg  Hg2  1  0.34606  0.34606  0.08239  1
 Hg  Hg3  1  0.65404  0.65404  0.41707  1
 Hg  Hg4  1  0.34596  0.34596  0.58293  1
 Mg  Mg1  1  0.00024  0.00024  0.74986  1
 Mg  Mg2  1  -0.00024  -0.00024  0.25014  1
