CIF file written using JARVIS-Tools package.
data_TmHO2
_symmetry_space_group_name_H-M  'Pnma'
_cell_length_a       3.44603
_cell_length_b       4.97263
_cell_length_c       10.7663
_cell_angle_alpha    90
_cell_angle_beta     90
_cell_angle_gamma    90

_symmetry_Int_Tables_number  62
_chemical_formula_structural  TmHO2
_chemical_formula_sum  Tm4H4O8
_cell_volume  184.48888795571318
_cell_formula_units_Z  4
loop_
  _symmetry_equiv_pos_site_id
 _symmetry_equiv_pos_as_xyz
 1  'x, y, z'
loop_
 _atom_site_type_symbol
 _atom_site_label
 _atom_site_symmetry_multiplicity
 _atom_site_fract_x
 _atom_site_fract_y
 _atom_site_fract_z
 _atom_site_fract_occupancy
 H  H1  1  0.25000  0.13012  0.59790  1
 H  H2  1  0.25000  0.36988  0.09790  1
 H  H3  1  0.75000  0.63012  0.90210  1
 H  H4  1  0.75000  0.86988  0.40210  1
 O  O1  1  0.25000  0.18016  0.06560  1
 O  O2  1  0.75000  0.15737  0.30989  1
 O  O3  1  0.75000  0.34263  0.80989  1
 O  O4  1  0.25000  0.31984  0.56560  1
 O  O5  1  0.75000  0.68016  0.43440  1
 O  O6  1  0.25000  0.65737  0.19011  1
 O  O7  1  0.25000  0.84263  0.69011  1
 O  O8  1  0.75000  0.81984  0.93440  1
 Tm  Tm1  1  0.25000  0.09369  0.85615  1
 Tm  Tm2  1  0.25000  0.40631  0.35615  1
 Tm  Tm3  1  0.75000  0.59369  0.64385  1
 Tm  Tm4  1  0.75000  0.90631  0.14385  1
