CIF file written using JARVIS-Tools package.
data_Ca2WN2
_symmetry_space_group_name_H-M  'P-1'
_cell_length_a       5.21089
_cell_length_b       6.25696
_cell_length_c       6.61209
_cell_angle_alpha    89.5957
_cell_angle_beta     112.172
_cell_angle_gamma    114.436

_symmetry_Int_Tables_number  2
_chemical_formula_structural  Ca2WN2
_chemical_formula_sum  Ca4W2N4
_cell_volume  178.89527596529416
_cell_formula_units_Z  2
loop_
  _symmetry_equiv_pos_site_id
 _symmetry_equiv_pos_as_xyz
 1  'x, y, z'
loop_
 _atom_site_type_symbol
 _atom_site_label
 _atom_site_symmetry_multiplicity
 _atom_site_fract_x
 _atom_site_fract_y
 _atom_site_fract_z
 _atom_site_fract_occupancy
 Ca  Ca1  1  0.09639  0.42338  0.78172  1
 Ca  Ca2  1  0.90361  0.57662  0.21828  1
 Ca  Ca3  1  0.28849  0.21932  0.33944  1
 Ca  Ca4  1  0.71151  0.78068  0.66056  1
 N  N1  1  0.58527  0.39360  0.77632  1
 N  N2  1  0.41473  0.60640  0.22368  1
 N  N3  1  0.18886  0.78865  0.60566  1
 N  N4  1  0.81114  0.21135  0.39434  1
 W  W1  1  0.42685  0.06816  0.80916  1
 W  W2  1  0.57315  0.93184  0.19084  1
