CIF file written using JARVIS-Tools package.
data_Ca2CoO3
_symmetry_space_group_name_H-M  'Fmm2'
_cell_length_a       3.33475
_cell_length_b       3.33475
_cell_length_c       7.07579
_cell_angle_alpha    75.9532
_cell_angle_beta     75.9531
_cell_angle_gamma    88.3311

_symmetry_Int_Tables_number  42
_chemical_formula_structural  Ca2CoO3
_chemical_formula_sum  Ca2CoO3
_cell_volume  74.01405285821211
_cell_formula_units_Z  1
loop_
  _symmetry_equiv_pos_site_id
 _symmetry_equiv_pos_as_xyz
 1  'x, y, z'
loop_
 _atom_site_type_symbol
 _atom_site_label
 _atom_site_symmetry_multiplicity
 _atom_site_fract_x
 _atom_site_fract_y
 _atom_site_fract_z
 _atom_site_fract_occupancy
 Ca  Ca1  1  0.41309  0.41309  0.17672  1
 Ca  Ca2  1  0.09445  0.09445  0.81491  1
 Co  Co1  1  0.76391  0.76391  0.49574  1
 O  O1  1  0.59417  0.59417  0.80608  1
 O  O2  1  0.16434  0.16434  0.49585  1
 O  O3  1  0.90405  0.90405  0.18571  1
