CIF file written using JARVIS-Tools package.
data_AgF2
_symmetry_space_group_name_H-M  'P2_1/c'
_cell_length_a       3.85292
_cell_length_b       5.20447
_cell_length_c       5.78774
_cell_angle_alpha    90
_cell_angle_beta     130.824
_cell_angle_gamma    90

_symmetry_Int_Tables_number  14
_chemical_formula_structural  AgF2
_chemical_formula_sum  Ag2F4
_cell_volume  87.8238653340576
_cell_formula_units_Z  2
loop_
  _symmetry_equiv_pos_site_id
 _symmetry_equiv_pos_as_xyz
 1  'x, y, z'
loop_
 _atom_site_type_symbol
 _atom_site_label
 _atom_site_symmetry_multiplicity
 _atom_site_fract_x
 _atom_site_fract_y
 _atom_site_fract_z
 _atom_site_fract_occupancy
 Ag  Ag1  1  -0.00000  0.50000  0.50000  1
 Ag  Ag2  1  0.00000  0.00000  0.00000  1
 F  F1  1  0.27184  0.76021  0.85851  1
 F  F2  1  0.72816  0.26021  0.64149  1
 F  F3  1  0.27184  0.73979  0.35851  1
 F  F4  1  0.72816  0.23979  0.14149  1
