CIF file written using JARVIS-Tools package.
data_CrB2Ru
_symmetry_space_group_name_H-M  'Pmc2_1'
_cell_length_a       2.90373
_cell_length_b       4.31232
_cell_length_c       5.84683
_cell_angle_alpha    90
_cell_angle_beta     90
_cell_angle_gamma    90

_symmetry_Int_Tables_number  26
_chemical_formula_structural  CrB2Ru
_chemical_formula_sum  Cr2B4Ru2
_cell_volume  73.21303520386351
_cell_formula_units_Z  2
loop_
  _symmetry_equiv_pos_site_id
 _symmetry_equiv_pos_as_xyz
 1  'x, y, z'
loop_
 _atom_site_type_symbol
 _atom_site_label
 _atom_site_symmetry_multiplicity
 _atom_site_fract_x
 _atom_site_fract_y
 _atom_site_fract_z
 _atom_site_fract_occupancy
 B  B1  1  0.00000  0.65402  0.52884  1
 B  B2  1  0.00000  0.34598  0.02884  1
 B  B3  1  0.50000  0.86862  0.46557  1
 B  B4  1  0.50000  0.13138  0.96557  1
 Cr  Cr1  1  0.00000  0.12963  0.68360  1
 Cr  Cr2  1  0.00000  0.87037  0.18360  1
 Ru  Ru1  1  0.50000  0.36299  0.32200  1
 Ru  Ru2  1  0.50000  0.63701  0.82200  1
