CIF file written using JARVIS-Tools package.
data_As2O5
_symmetry_space_group_name_H-M  'P2_12_12_1'
_cell_length_a       4.71528
_cell_length_b       8.53299
_cell_length_c       8.8217
_cell_angle_alpha    90
_cell_angle_beta     90
_cell_angle_gamma    90

_symmetry_Int_Tables_number  19
_chemical_formula_structural  As2O5
_chemical_formula_sum  As8O20
_cell_volume  354.945024526105
_cell_formula_units_Z  4
loop_
  _symmetry_equiv_pos_site_id
 _symmetry_equiv_pos_as_xyz
 1  'x, y, z'
loop_
 _atom_site_type_symbol
 _atom_site_label
 _atom_site_symmetry_multiplicity
 _atom_site_fract_x
 _atom_site_fract_y
 _atom_site_fract_z
 _atom_site_fract_occupancy
 As  As1  1  0.38836  0.03054  0.21626  1
 As  As2  1  0.88836  0.46946  0.78374  1
 As  As3  1  0.61164  0.53054  0.28374  1
 As  As4  1  0.11164  0.96946  0.71626  1
 As  As5  1  0.37993  0.65346  0.59850  1
 As  As6  1  0.87993  0.84654  0.40150  1
 As  As7  1  0.62007  0.15346  0.90150  1
 As  As8  1  0.12007  0.34654  0.09850  1
 O  O1  1  0.28470  0.22211  0.25088  1
 O  O2  1  0.80875  0.97662  0.82434  1
 O  O3  1  0.71530  0.72211  0.24912  1
 O  O4  1  0.55171  0.50278  0.47607  1
 O  O5  1  0.44829  0.00278  0.02393  1
 O  O6  1  0.05171  0.99722  0.52393  1
 O  O7  1  0.78470  0.27789  0.74912  1
 O  O8  1  0.94829  0.49722  0.97607  1
 O  O9  1  0.21530  0.77789  0.75088  1
 O  O10  1  0.19125  0.47662  0.67566  1
 O  O11  1  0.34582  0.11838  0.74910  1
 O  O12  1  0.58355  0.82183  0.53394  1
 O  O13  1  0.41645  0.32183  0.96606  1
 O  O14  1  0.84582  0.38162  0.25090  1
 O  O15  1  0.69125  0.02338  0.32434  1
 O  O16  1  0.15418  0.88162  0.24910  1
 O  O17  1  0.65418  0.61838  0.75090  1
 O  O18  1  0.08355  0.67817  0.46606  1
 O  O19  1  0.91645  0.17817  0.03394  1
 O  O20  1  0.30875  0.52338  0.17566  1
