CIF file written using JARVIS-Tools package.
data_NaTaO3
_symmetry_space_group_name_H-M  'Cmcm'
_cell_length_a       5.52627
_cell_length_b       5.52627
_cell_length_c       7.8699
_cell_angle_alpha    90
_cell_angle_beta     90
_cell_angle_gamma    90.6456

_symmetry_Int_Tables_number  63
_chemical_formula_structural  NaTaO3
_chemical_formula_sum  Na4Ta4O2
_cell_volume  240.32869612113254
_cell_formula_units_Z  4
loop_
  _symmetry_equiv_pos_site_id
 _symmetry_equiv_pos_as_xyz
 1  'x, y, z'
loop_
 _atom_site_type_symbol
 _atom_site_label
 _atom_site_symmetry_multiplicity
 _atom_site_fract_x
 _atom_site_fract_y
 _atom_site_fract_z
 _atom_site_fract_occupancy
 Na  Na1  1  0.50331  0.49669  0.25000  1
 Na  Na2  1  0.49669  0.50331  0.75000  1
 Na  Na3  1  0.01163  0.98837  0.25000  1
 Na  Na4  1  0.98837  0.01163  0.75000  1
 O  O1  1  0.03508  0.54886  0.25000  1
 O  O2  1  0.45114  0.96492  0.25000  1
 O  O3  1  0.54886  0.03508  0.75000  1
 O  O4  1  0.20719  0.79281  0.54088  1
 O  O5  1  0.79281  0.20719  0.04088  1
 O  O6  1  0.79281  0.20719  0.45912  1
 O  O7  1  0.20719  0.79281  0.95912  1
 O  O8  1  0.70511  0.70511  0.00000  1
 O  O9  1  0.29489  0.29489  0.00000  1
 O  O10  1  0.29489  0.29489  0.50000  1
 O  O11  1  0.96492  0.45114  0.75000  1
 O  O12  1  0.70511  0.70511  0.50000  1
 Ta  Ta1  1  -0.00000  0.50000  0.00000  1
 Ta  Ta2  1  0.50000  -0.00000  0.00000  1
 Ta  Ta3  1  0.50000  -0.00000  0.50000  1
 Ta  Ta4  1  -0.00000  0.50000  0.50000  1
