CIF file written using JARVIS-Tools package.
data_CrGaO4
_symmetry_space_group_name_H-M  'Cmm2'
_cell_length_a       4.4661
_cell_length_b       5.372
_cell_length_c       4.46533
_cell_angle_alpha    92.2905
_cell_angle_beta     87.2444
_cell_angle_gamma    146.239

_symmetry_Int_Tables_number  35
_chemical_formula_structural  CrGaO4
_chemical_formula_sum  CrGaO4
_cell_volume  59.46657877196481
_cell_formula_units_Z  1
loop_
  _symmetry_equiv_pos_site_id
 _symmetry_equiv_pos_as_xyz
 1  'x, y, z'
loop_
 _atom_site_type_symbol
 _atom_site_label
 _atom_site_symmetry_multiplicity
 _atom_site_fract_x
 _atom_site_fract_y
 _atom_site_fract_z
 _atom_site_fract_occupancy
 Cr  Cr1  1  0.57182  0.06730  0.49818  1
 Ga  Ga1  1  0.48491  0.48038  0.99817  1
 O  O1  1  0.19191  0.97806  0.78865  1
 O  O2  1  0.19104  0.49688  0.68804  1
 O  O3  1  0.77323  0.97806  0.20771  1
 O  O4  1  0.81171  0.49686  0.30833  1
