CIF file written using JARVIS-Tools package.
data_Tb3Mn3Ga2Ge
_symmetry_space_group_name_H-M  'P-6'
_cell_length_a       6.94636
_cell_length_b       6.94636
_cell_length_c       4.1554
_cell_angle_alpha    90
_cell_angle_beta     90
_cell_angle_gamma    120

_symmetry_Int_Tables_number  174
_chemical_formula_structural  Tb3Mn3Ga2Ge
_chemical_formula_sum  Tb3Mn3Ga2Ge
_cell_volume  173.64324662177268
_cell_formula_units_Z  1
loop_
  _symmetry_equiv_pos_site_id
 _symmetry_equiv_pos_as_xyz
 1  'x, y, z'
loop_
 _atom_site_type_symbol
 _atom_site_label
 _atom_site_symmetry_multiplicity
 _atom_site_fract_x
 _atom_site_fract_y
 _atom_site_fract_z
 _atom_site_fract_occupancy
 Ga  Ga1  1  0.33333  0.66667  0.00000  1
 Ga  Ga2  1  0.66667  0.33333  0.50000  1
 Ge  Ge1  1  0.00000  0.00000  0.00000  1
 Mn  Mn1  1  0.88810  0.32825  0.00000  1
 Mn  Mn2  1  0.44015  0.11190  0.00000  1
 Mn  Mn3  1  0.67175  0.55985  0.00000  1
 Tb  Tb1  1  0.24607  0.33184  0.50000  1
 Tb  Tb2  1  0.08577  0.75393  0.50000  1
 Tb  Tb3  1  0.66816  0.91423  0.50000  1
