CIF file written using JARVIS-Tools package.
data_CaMnSe2
_symmetry_space_group_name_H-M  'R-3m'
_cell_length_a       6.91977
_cell_length_b       6.91977
_cell_length_c       6.91977
_cell_angle_alpha    33.8715
_cell_angle_beta     33.8716
_cell_angle_gamma    33.8715

_symmetry_Int_Tables_number  166
_chemical_formula_structural  CaMnSe2
_chemical_formula_sum  CaMnSe2
_cell_volume  91.72155156993678
_cell_formula_units_Z  1
loop_
  _symmetry_equiv_pos_site_id
 _symmetry_equiv_pos_as_xyz
 1  'x, y, z'
loop_
 _atom_site_type_symbol
 _atom_site_label
 _atom_site_symmetry_multiplicity
 _atom_site_fract_x
 _atom_site_fract_y
 _atom_site_fract_z
 _atom_site_fract_occupancy
 Ca  Ca1  1  0.00000  0.00000  0.00000  1
 Mn  Mn1  1  0.50000  0.50000  0.50000  1
 Se  Se1  1  0.24226  0.24226  0.24226  1
 Se  Se2  1  0.75774  0.75774  0.75774  1
