CIF file written using JARVIS-Tools package.
data_Yb3CaIn2Ge4
_symmetry_space_group_name_H-M  'Amm2'
_cell_length_a       7.32712
_cell_length_b       7.32712
_cell_length_c       4.37988
_cell_angle_alpha    90
_cell_angle_beta     90
_cell_angle_gamma    90.2172

_symmetry_Int_Tables_number  38
_chemical_formula_structural  Yb3CaIn2Ge4
_chemical_formula_sum  Yb3CaIn2Ge4
_cell_volume  235.13952821517964
_cell_formula_units_Z  1
loop_
  _symmetry_equiv_pos_site_id
 _symmetry_equiv_pos_as_xyz
 1  'x, y, z'
loop_
 _atom_site_type_symbol
 _atom_site_label
 _atom_site_symmetry_multiplicity
 _atom_site_fract_x
 _atom_site_fract_y
 _atom_site_fract_z
 _atom_site_fract_occupancy
 Ca  Ca1  1  0.82529  0.17471  0.00000  1
 Ge  Ge1  1  0.37668  0.62332  0.50000  1
 Ge  Ge2  1  0.62051  0.37949  0.50000  1
 Ge  Ge3  1  0.12489  0.12095  0.50000  1
 Ge  Ge4  1  0.87905  0.87511  0.50000  1
 In  In1  1  0.50008  0.99972  0.50000  1
 In  In2  1  0.00028  0.49992  0.50000  1
 Yb  Yb1  1  0.17407  0.82593  0.00000  1
 Yb  Yb2  1  0.67272  0.67357  0.00000  1
 Yb  Yb3  1  0.32643  0.32728  0.00000  1
