CIF file written using JARVIS-Tools package.
data_H5C6SNO
_symmetry_space_group_name_H-M  'P1'
_cell_length_a       3.95474
_cell_length_b       6.00786
_cell_length_c       6.51673
_cell_angle_alpha    99.4798
_cell_angle_beta     92.4057
_cell_angle_gamma    114.085

_symmetry_Int_Tables_number  1
_chemical_formula_structural  H5C6SNO
_chemical_formula_sum  H5C6SNO
_cell_volume  138.39515908359505
_cell_formula_units_Z  1
loop_
  _symmetry_equiv_pos_site_id
 _symmetry_equiv_pos_as_xyz
 1  'x, y, z'
loop_
 _atom_site_type_symbol
 _atom_site_label
 _atom_site_symmetry_multiplicity
 _atom_site_fract_x
 _atom_site_fract_y
 _atom_site_fract_z
 _atom_site_fract_occupancy
 C  C1  1  0.28836  0.20210  0.70373  1
 C  C2  1  0.10632  0.19541  0.51221  1
 C  C3  1  0.88103  0.95615  0.40090  1
 C  C4  1  0.20182  0.96236  0.74181  1
 C  C5  1  0.59733  0.04778  0.08148  1
 C  C6  1  0.64452  0.86492  0.20818  1
 H  H1  1  0.86348  0.15845  0.02628  1
 H  H2  1  0.46944  0.37032  0.81476  1
 H  H3  1  0.13679  0.36098  0.45311  1
 H  H4  1  0.51576  0.18047  0.18065  1
 H  H5  1  0.22774  0.70787  0.91175  1
 N  N1  1  0.31236  0.89298  0.90848  1
 O  O1  1  0.46478  0.63460  0.13815  1
 S  S1  1  0.89839  0.73247  0.53754  1
