CIF file written using JARVIS-Tools package.
data_HC
_symmetry_space_group_name_H-M  'C2/m'
_cell_length_a       6.11539
_cell_length_b       6.11538
_cell_length_c       3.90979
_cell_angle_alpha    90.2686
_cell_angle_beta     90.2686
_cell_angle_gamma    93.8237

_symmetry_Int_Tables_number  12
_chemical_formula_structural  HC
_chemical_formula_sum  H8C8
_cell_volume  145.88943084207168
_cell_formula_units_Z  8
loop_
  _symmetry_equiv_pos_site_id
 _symmetry_equiv_pos_as_xyz
 1  'x, y, z'
loop_
 _atom_site_type_symbol
 _atom_site_label
 _atom_site_symmetry_multiplicity
 _atom_site_fract_x
 _atom_site_fract_y
 _atom_site_fract_z
 _atom_site_fract_occupancy
 C  C1  1  0.43269  0.70933  0.91795  1
 C  C2  1  0.29067  0.56731  0.08205  1
 C  C3  1  0.56731  0.29067  0.08205  1
 C  C4  1  0.70933  0.43269  0.91795  1
 C  C5  1  0.79788  0.79788  0.67419  1
 C  C6  1  0.65252  0.65252  0.82870  1
 C  C7  1  0.20212  0.20212  0.32581  1
 C  C8  1  0.34748  0.34748  0.17130  1
 H  H1  1  0.38468  0.87235  0.85122  1
 H  H2  1  0.96237  0.75403  0.61000  1
 H  H3  1  0.12765  0.61532  0.14878  1
 H  H4  1  0.24597  0.03763  0.39000  1
 H  H5  1  0.61532  0.12765  0.14878  1
 H  H6  1  0.03763  0.24597  0.39000  1
 H  H7  1  0.87235  0.38468  0.85122  1
 H  H8  1  0.75403  0.96237  0.61000  1
