CIF file written using JARVIS-Tools package.
data_PrNdSb
_symmetry_space_group_name_H-M  'I4/mmm'
_cell_length_a       9.48871
_cell_length_b       9.48871
_cell_length_c       9.48871
_cell_angle_alpha    152.025
_cell_angle_beta     152.025
_cell_angle_gamma    39.977

_symmetry_Int_Tables_number  139
_chemical_formula_structural  PrNdSb
_chemical_formula_sum  Pr2Nd2Sb2
_cell_volume  187.62627516719905
_cell_formula_units_Z  2
loop_
  _symmetry_equiv_pos_site_id
 _symmetry_equiv_pos_as_xyz
 1  'x, y, z'
loop_
 _atom_site_type_symbol
 _atom_site_label
 _atom_site_symmetry_multiplicity
 _atom_site_fract_x
 _atom_site_fract_y
 _atom_site_fract_z
 _atom_site_fract_occupancy
 Nd  Nd1  1  0.00000  0.50000  0.50000  1
 Nd  Nd2  1  0.50000  0.00000  0.50000  1
 Pr  Pr1  1  0.67903  0.67903  -0.00000  1
 Pr  Pr2  1  0.32097  0.32097  -0.00000  1
 Sb  Sb1  1  0.86218  0.86218  -0.00000  1
 Sb  Sb2  1  0.13782  0.13782  -0.00000  1
