CIF file written using JARVIS-Tools package.
data_LiCaSn
_symmetry_space_group_name_H-M  'P-6m2'
_cell_length_a       4.87765
_cell_length_b       4.87765
_cell_length_c       10.7522
_cell_angle_alpha    90
_cell_angle_beta     90
_cell_angle_gamma    120

_symmetry_Int_Tables_number  187
_chemical_formula_structural  LiCaSn
_chemical_formula_sum  Li3Ca3Sn3
_cell_volume  221.53958795066595
_cell_formula_units_Z  3
loop_
  _symmetry_equiv_pos_site_id
 _symmetry_equiv_pos_as_xyz
 1  'x, y, z'
loop_
 _atom_site_type_symbol
 _atom_site_label
 _atom_site_symmetry_multiplicity
 _atom_site_fract_x
 _atom_site_fract_y
 _atom_site_fract_z
 _atom_site_fract_occupancy
 Ca  Ca1  1  0.00000  0.00000  0.67219  1
 Ca  Ca2  1  0.00000  0.00000  0.33758  1
 Ca  Ca3  1  0.00000  0.00000  0.00486  1
 Li  Li1  1  0.33333  0.66667  0.19990  1
 Li  Li2  1  0.66667  0.33333  0.50492  1
 Li  Li3  1  0.33333  0.66667  0.80994  1
 Sn  Sn1  1  0.33333  0.66667  0.50487  1
 Sn  Sn2  1  0.66667  0.33333  0.85480  1
 Sn  Sn3  1  0.66667  0.33333  0.15494  1
