CIF file written using JARVIS-Tools package.
data_Ce2CoRu3
_symmetry_space_group_name_H-M  'R-3m'
_cell_length_a       5.21242
_cell_length_b       5.21242
_cell_length_c       5.21243
_cell_angle_alpha    61.5025
_cell_angle_beta     61.5024
_cell_angle_gamma    61.5025

_symmetry_Int_Tables_number  166
_chemical_formula_structural  Ce2CoRu3
_chemical_formula_sum  Ce2CoRu3
_cell_volume  103.51663517884367
_cell_formula_units_Z  1
loop_
  _symmetry_equiv_pos_site_id
 _symmetry_equiv_pos_as_xyz
 1  'x, y, z'
loop_
 _atom_site_type_symbol
 _atom_site_label
 _atom_site_symmetry_multiplicity
 _atom_site_fract_x
 _atom_site_fract_y
 _atom_site_fract_z
 _atom_site_fract_occupancy
 Ce  Ce1  1  0.62483  0.62483  0.62483  1
 Ce  Ce2  1  0.37517  0.37517  0.37517  1
 Co  Co1  1  0.00000  0.00000  0.00000  1
 Ru  Ru1  1  -0.00000  0.50000  0.00000  1
 Ru  Ru2  1  0.50000  -0.00000  -0.00000  1
 Ru  Ru3  1  0.00000  -0.00000  0.50000  1
