CIF file written using JARVIS-Tools package.
data_TmNi2B2C
_symmetry_space_group_name_H-M  'I4/mmm'
_cell_length_a       3.49735
_cell_length_b       3.49735
_cell_length_c       5.79958
_cell_angle_alpha    107.549
_cell_angle_beta     107.549
_cell_angle_gamma    90.0001

_symmetry_Int_Tables_number  139
_chemical_formula_structural  TmNi2B2C
_chemical_formula_sum  TmNi2B2C
_cell_volume  64.1652030417328
_cell_formula_units_Z  1
loop_
  _symmetry_equiv_pos_site_id
 _symmetry_equiv_pos_as_xyz
 1  'x, y, z'
loop_
 _atom_site_type_symbol
 _atom_site_label
 _atom_site_symmetry_multiplicity
 _atom_site_fract_x
 _atom_site_fract_y
 _atom_site_fract_z
 _atom_site_fract_occupancy
 B  B1  1  0.35870  0.35870  0.71739  1
 B  B2  1  0.64130  0.64130  0.28261  1
 C  C1  1  0.50000  0.50000  -0.00000  1
 Ni  Ni1  1  0.25000  0.75000  0.50000  1
 Ni  Ni2  1  0.75000  0.25000  0.50000  1
 Tm  Tm1  1  0.00000  0.00000  0.00000  1
