CIF file written using JARVIS-Tools package.
data_CeSiRh2
_symmetry_space_group_name_H-M  'Cmcm'
_cell_length_a       3.97006
_cell_length_b       4.03005
_cell_length_c       9.3824
_cell_angle_alpha    90
_cell_angle_beta     102.214
_cell_angle_gamma    90

_symmetry_Int_Tables_number  63
_chemical_formula_structural  CeSiRh2
_chemical_formula_sum  Ce2Si2Rh4
_cell_volume  146.71590062884005
_cell_formula_units_Z  2
loop_
  _symmetry_equiv_pos_site_id
 _symmetry_equiv_pos_as_xyz
 1  'x, y, z'
loop_
 _atom_site_type_symbol
 _atom_site_label
 _atom_site_symmetry_multiplicity
 _atom_site_fract_x
 _atom_site_fract_y
 _atom_site_fract_z
 _atom_site_fract_occupancy
 Ce  Ce1  1  0.09780  0.75000  0.19561  1
 Ce  Ce2  1  0.90220  0.25000  0.80439  1
 Rh  Rh1  1  0.55016  0.25000  0.10032  1
 Rh  Rh2  1  0.44984  0.75000  0.89968  1
 Rh  Rh3  1  0.25020  0.25000  0.50040  1
 Rh  Rh4  1  0.74980  0.75000  0.49960  1
 Si  Si1  1  0.32083  0.75000  0.64167  1
 Si  Si2  1  0.67917  0.25000  0.35833  1
