CIF file written using JARVIS-Tools package.
data_Ni3S2
_symmetry_space_group_name_H-M  'R3m'
_cell_length_a       7.24487
_cell_length_b       7.24487
_cell_length_c       7.24488
_cell_angle_alpha    27.0643
_cell_angle_beta     27.0643
_cell_angle_gamma    27.0643

_symmetry_Int_Tables_number  160
_chemical_formula_structural  Ni3S2
_chemical_formula_sum  Ni3S2
_cell_volume  69.44170510641244
_cell_formula_units_Z  1
loop_
  _symmetry_equiv_pos_site_id
 _symmetry_equiv_pos_as_xyz
 1  'x, y, z'
loop_
 _atom_site_type_symbol
 _atom_site_label
 _atom_site_symmetry_multiplicity
 _atom_site_fract_x
 _atom_site_fract_y
 _atom_site_fract_z
 _atom_site_fract_occupancy
 Ni  Ni1  1  0.10478  0.10478  0.10478  1
 Ni  Ni2  1  0.99080  0.99080  0.99080  1
 Ni  Ni3  1  0.50966  0.50966  0.50966  1
 S  S1  1  0.38167  0.38167  0.38167  1
 S  S2  1  0.88808  0.88808  0.88808  1
