CIF file written using JARVIS-Tools package.
data_Sc6Te2Rh
_symmetry_space_group_name_H-M  'P-62m'
_cell_length_a       7.76717
_cell_length_b       7.76717
_cell_length_c       3.78611
_cell_angle_alpha    90
_cell_angle_beta     90
_cell_angle_gamma    120

_symmetry_Int_Tables_number  189
_chemical_formula_structural  Sc6Te2Rh
_chemical_formula_sum  Sc6Te2Rh
_cell_volume  197.81046983967894
_cell_formula_units_Z  1
loop_
  _symmetry_equiv_pos_site_id
 _symmetry_equiv_pos_as_xyz
 1  'x, y, z'
loop_
 _atom_site_type_symbol
 _atom_site_label
 _atom_site_symmetry_multiplicity
 _atom_site_fract_x
 _atom_site_fract_y
 _atom_site_fract_z
 _atom_site_fract_occupancy
 Rh  Rh1  1  0.00000  0.00000  0.50000  1
 Sc  Sc1  1  -0.00000  0.75844  0.00000  1
 Sc  Sc2  1  0.24156  0.24156  0.00000  1
 Sc  Sc3  1  0.75844  -0.00000  0.00000  1
 Sc  Sc4  1  0.00000  0.39103  0.50000  1
 Sc  Sc5  1  0.60897  0.60897  0.50000  1
 Sc  Sc6  1  0.39103  0.00000  0.50000  1
 Te  Te1  1  0.66667  0.33333  0.00000  1
 Te  Te2  1  0.33333  0.66667  0.00000  1
