CIF file written using JARVIS-Tools package.
data_UH2O4
_symmetry_space_group_name_H-M  'Pbca'
_cell_length_a       5.7057
_cell_length_b       6.10447
_cell_length_c       9.87954
_cell_angle_alpha    90
_cell_angle_beta     90
_cell_angle_gamma    90

_symmetry_Int_Tables_number  61
_chemical_formula_structural  UH2O4
_chemical_formula_sum  U4H8O6
_cell_volume  344.1073578000762
_cell_formula_units_Z  4
loop_
  _symmetry_equiv_pos_site_id
 _symmetry_equiv_pos_as_xyz
 1  'x, y, z'
loop_
 _atom_site_type_symbol
 _atom_site_label
 _atom_site_symmetry_multiplicity
 _atom_site_fract_x
 _atom_site_fract_y
 _atom_site_fract_z
 _atom_site_fract_occupancy
 H  H1  1  0.34649  0.65714  0.67792  1
 H  H2  1  0.65351  0.34286  0.32208  1
 H  H3  1  0.15351  0.15714  0.67792  1
 H  H4  1  0.34649  0.84286  0.17792  1
 H  H5  1  0.84649  0.65714  0.82208  1
 H  H6  1  0.15351  0.34286  0.17792  1
 H  H7  1  0.84649  0.84286  0.32208  1
 H  H8  1  0.65351  0.15714  0.82208  1
 O  O1  1  0.14350  0.04153  0.83502  1
 O  O2  1  0.35650  0.95847  0.33502  1
 O  O3  1  0.85650  0.54153  0.66498  1
 O  O4  1  0.18152  0.19605  0.58059  1
 O  O5  1  0.35650  0.54153  0.83502  1
 O  O6  1  0.85650  0.95847  0.16498  1
 O  O7  1  0.64350  0.04153  0.66498  1
 O  O8  1  0.64350  0.45847  0.16498  1
 O  O9  1  0.18152  0.30395  0.08059  1
 O  O10  1  0.31848  0.80395  0.08059  1
 O  O11  1  0.81848  0.80395  0.41941  1
 O  O12  1  0.31848  0.69605  0.58059  1
 O  O13  1  0.14350  0.45847  0.33502  1
 O  O14  1  0.81848  0.69605  0.91941  1
 O  O15  1  0.68152  0.30395  0.41941  1
 O  O16  1  0.68152  0.19605  0.91941  1
 U  U1  1  0.00000  0.50000  0.50000  1
 U  U2  1  0.00000  0.00000  0.00000  1
 U  U3  1  0.50000  0.50000  0.00000  1
 U  U4  1  0.50000  0.00000  0.50000  1
