CIF file written using JARVIS-Tools package.
data_YbAl4Mo2
_symmetry_space_group_name_H-M  'I4/mmm'
_cell_length_a       5.32878
_cell_length_b       5.48527
_cell_length_c       5.48527
_cell_angle_alpha    76.3529
_cell_angle_beta     60.9393
_cell_angle_gamma    60.9393

_symmetry_Int_Tables_number  139
_chemical_formula_structural  YbAl4Mo2
_chemical_formula_sum  YbAl4Mo2
_cell_volume  122.50415455664886
_cell_formula_units_Z  1
loop_
  _symmetry_equiv_pos_site_id
 _symmetry_equiv_pos_as_xyz
 1  'x, y, z'
loop_
 _atom_site_type_symbol
 _atom_site_label
 _atom_site_symmetry_multiplicity
 _atom_site_fract_x
 _atom_site_fract_y
 _atom_site_fract_z
 _atom_site_fract_occupancy
 Al  Al1  1  0.30435  -0.00000  0.39130  1
 Al  Al2  1  0.69565  0.60870  0.00000  1
 Al  Al3  1  0.30435  0.39130  -0.00000  1
 Al  Al4  1  0.69565  0.00000  0.60870  1
 Mo  Mo1  1  0.25000  0.50000  0.50000  1
 Mo  Mo2  1  0.75000  0.50000  0.50000  1
 Yb  Yb1  1  0.00000  0.00000  0.00000  1
