CIF file written using JARVIS-Tools package.
data_Hg3B2O6
_symmetry_space_group_name_H-M  'R-3c'
_cell_length_a       6.7964
_cell_length_b       6.7964
_cell_length_c       6.7964
_cell_angle_alpha    84.0563
_cell_angle_beta     84.0563
_cell_angle_gamma    84.0564

_symmetry_Int_Tables_number  167
_chemical_formula_structural  Hg3B2O6
_chemical_formula_sum  Hg6B4O2
_cell_volume  309.19650520754664
_cell_formula_units_Z  2
loop_
  _symmetry_equiv_pos_site_id
 _symmetry_equiv_pos_as_xyz
 1  'x, y, z'
loop_
 _atom_site_type_symbol
 _atom_site_label
 _atom_site_symmetry_multiplicity
 _atom_site_fract_x
 _atom_site_fract_y
 _atom_site_fract_z
 _atom_site_fract_occupancy
 B  B1  1  0.11419  0.11419  0.11419  1
 B  B2  1  0.38581  0.38581  0.38581  1
 B  B3  1  0.61419  0.61419  0.61419  1
 B  B4  1  0.88581  0.88581  0.88581  1
 Hg  Hg1  1  0.60844  0.89156  0.25000  1
 Hg  Hg2  1  0.89156  0.25000  0.60844  1
 Hg  Hg3  1  0.39156  0.10844  0.75000  1
 Hg  Hg4  1  0.75000  0.39156  0.10844  1
 Hg  Hg5  1  0.10844  0.75000  0.39156  1
 Hg  Hg6  1  0.25000  0.60844  0.89156  1
 O  O1  1  0.96305  0.71119  0.98413  1
 O  O2  1  0.21119  0.46305  0.48413  1
 O  O3  1  0.46305  0.48413  0.21119  1
 O  O4  1  0.48413  0.21119  0.46305  1
 O  O5  1  0.01587  0.03695  0.28881  1
 O  O6  1  0.78881  0.53695  0.51587  1
 O  O7  1  0.71119  0.98413  0.96305  1
 O  O8  1  0.53695  0.51587  0.78881  1
 O  O9  1  0.51587  0.78881  0.53695  1
 O  O10  1  0.98413  0.96305  0.71119  1
 O  O11  1  0.03695  0.28881  0.01587  1
 O  O12  1  0.28881  0.01587  0.03695  1
