CIF file written using JARVIS-Tools package.
data_V2Cr2Fe
_symmetry_space_group_name_H-M  'Fmm2'
_cell_length_a       10.405
_cell_length_b       10.3077
_cell_length_c       2.49094
_cell_angle_alpha    85.3202
_cell_angle_beta     80.8757
_cell_angle_gamma    13.804

_symmetry_Int_Tables_number  42
_chemical_formula_structural  V2Cr2Fe
_chemical_formula_sum  V2Cr2Fe
_cell_volume  59.89052060656698
_cell_formula_units_Z  1
loop_
  _symmetry_equiv_pos_site_id
 _symmetry_equiv_pos_as_xyz
 1  'x, y, z'
loop_
 _atom_site_type_symbol
 _atom_site_label
 _atom_site_symmetry_multiplicity
 _atom_site_fract_x
 _atom_site_fract_y
 _atom_site_fract_z
 _atom_site_fract_occupancy
 Cr  Cr1  1  0.59939  0.59939  0.40061  1
 Cr  Cr2  1  0.19527  0.19527  0.80473  1
 Fe  Fe1  1  0.00400  0.00400  0.99600  1
 V  V1  1  0.79688  0.79688  0.20312  1
 V  V2  1  0.40447  0.40447  0.59553  1
