CIF file written using JARVIS-Tools package.
data_H6C11S2O
_symmetry_space_group_name_H-M  'P1'
_cell_length_a       3.79184
_cell_length_b       11.0431
_cell_length_c       11.7999
_cell_angle_alpha    63.5464
_cell_angle_beta     87.9786
_cell_angle_gamma    82.6616

_symmetry_Int_Tables_number  1
_chemical_formula_structural  H6C11S2O
_chemical_formula_sum  H2C22S4O2
_cell_volume  438.6142886582779
_cell_formula_units_Z  2
loop_
  _symmetry_equiv_pos_site_id
 _symmetry_equiv_pos_as_xyz
 1  'x, y, z'
loop_
 _atom_site_type_symbol
 _atom_site_label
 _atom_site_symmetry_multiplicity
 _atom_site_fract_x
 _atom_site_fract_y
 _atom_site_fract_z
 _atom_site_fract_occupancy
 C  C1  1  0.56875  0.56072  0.46255  1
 C  C2  1  0.46003  0.63127  0.33439  1
 C  C3  1  0.78042  0.05308  0.13729  1
 C  C4  1  0.28042  0.05308  0.63729  1
 C  C5  1  0.28147  0.76683  0.94462  1
 C  C6  1  0.78146  0.76683  0.44462  1
 C  C7  1  0.23182  0.63149  0.01615  1
 C  C8  1  0.73181  0.63150  0.51615  1
 C  C9  1  0.16574  0.83485  0.81791  1
 C  C10  1  0.34548  0.18412  0.62425  1
 C  C11  1  0.50287  0.76801  0.26166  1
 C  C12  1  0.00288  0.76801  0.76166  1
 C  C13  1  0.84548  0.18412  0.12425  1
 C  C14  1  0.49522  0.42162  0.54120  1
 C  C15  1  0.99523  0.42162  0.04120  1
 C  C16  1  0.44163  0.36100  0.67116  1
 C  C17  1  0.94164  0.36099  0.17116  1
 C  C18  1  0.35385  0.22778  0.71797  1
 C  C19  1  0.85386  0.22778  0.21797  1
 C  C20  1  0.96004  0.63126  0.83439  1
 C  C21  1  0.06876  0.56072  0.96255  1
 C  C22  1  0.66574  0.83485  0.31791  1
 H  H1  1  0.41586  0.82159  0.98389  1
 H  H2  1  0.45666  0.41350  0.72973  1
 H  H3  1  0.32917  0.57808  0.11393  1
 H  H4  1  0.39660  0.82269  0.16556  1
 H  H5  1  0.31455  0.58100  0.29308  1
 H  H6  1  0.81456  0.58100  0.79308  1
 H  H7  1  0.89661  0.82269  0.66556  1
 H  H8  1  0.95667  0.41350  0.22973  1
 H  H9  1  0.29584  0.16435  0.81621  1
 H  H10  1  0.79585  0.16435  0.31621  1
 H  H11  1  0.91585  0.82159  0.48389  1
 H  H12  1  0.82917  0.57808  0.61393  1
 O  O1  1  0.20734  0.97277  0.76127  1
 O  O2  1  0.70733  0.97277  0.26127  1
 S  S1  1  0.94369  0.31042  0.97749  1
 S  S2  1  0.44369  0.31042  0.47749  1
 S  S3  1  0.80744  0.01000  0.01965  1
 S  S4  1  0.30744  0.01000  0.51965  1
