CIF file written using JARVIS-Tools package.
data_HfH6C5O4
_symmetry_space_group_name_H-M  'P1'
_cell_length_a       3.49428
_cell_length_b       4.0804
_cell_length_c       8.99575
_cell_angle_alpha    81.5953
_cell_angle_beta     83.2619
_cell_angle_gamma    67.6887

_symmetry_Int_Tables_number  1
_chemical_formula_structural  HfH6C5O4
_chemical_formula_sum  HfH6C5O4
_cell_volume  117.1169544014213
_cell_formula_units_Z  1
loop_
  _symmetry_equiv_pos_site_id
 _symmetry_equiv_pos_as_xyz
 1  'x, y, z'
loop_
 _atom_site_type_symbol
 _atom_site_label
 _atom_site_symmetry_multiplicity
 _atom_site_fract_x
 _atom_site_fract_y
 _atom_site_fract_z
 _atom_site_fract_occupancy
 C  C1  1  0.45796  0.49113  0.48284  1
 C  C2  1  0.65461  0.45590  0.63040  1
 C  C3  1  0.40043  0.45878  0.06823  1
 C  C4  1  0.39584  0.61308  0.77263  1
 C  C5  1  0.57322  0.36122  0.91255  1
 H  H1  1  0.56130  0.09827  0.90867  1
 H  H2  1  0.90655  0.30200  0.91347  1
 H  H3  1  0.88584  0.57725  0.60246  1
 H  H4  1  0.82687  0.17037  0.65922  1
 H  H5  1  0.06949  0.65559  0.77127  1
 H  H6  1  0.40318  0.87770  0.77618  1
 Hf  Hf1  1  0.07581  0.96519  0.32827  1
 O  O1  1  0.74517  0.56656  0.34494  1
 O  O2  1  0.48087  0.14375  0.46065  1
 O  O3  1  0.20156  0.77471  0.09568  1
 O  O4  1  0.48121  0.19805  0.17517  1
