CIF file written using JARVIS-Tools package.
data_CuAg2O2
_symmetry_space_group_name_H-M  'Immm'
_cell_length_a       5.61832
_cell_length_b       5.61832
_cell_length_c       5.61832
_cell_angle_alpha    149.681
_cell_angle_beta     132.373
_cell_angle_gamma    57.5086

_symmetry_Int_Tables_number  71
_chemical_formula_structural  CuAg2O2
_chemical_formula_sum  CuAg2O2
_cell_volume  65.66614775054518
_cell_formula_units_Z  1
loop_
  _symmetry_equiv_pos_site_id
 _symmetry_equiv_pos_as_xyz
 1  'x, y, z'
loop_
 _atom_site_type_symbol
 _atom_site_label
 _atom_site_symmetry_multiplicity
 _atom_site_fract_x
 _atom_site_fract_y
 _atom_site_fract_z
 _atom_site_fract_occupancy
 Ag  Ag1  1  0.64755  0.64755  -0.00000  1
 Ag  Ag2  1  0.35245  0.35245  0.00000  1
 Cu  Cu1  1  0.00000  0.00000  0.00000  1
 O  O1  1  0.86729  0.36729  0.50000  1
 O  O2  1  0.13271  0.63271  0.50000  1
