CIF file written using JARVIS-Tools package.
data_SrCa3Br2N2
_symmetry_space_group_name_H-M  'Pm'
_cell_length_a       3.75355
_cell_length_b       6.50432
_cell_length_c       7.33356
_cell_angle_alpha    72.7263
_cell_angle_beta     90
_cell_angle_gamma    90

_symmetry_Int_Tables_number  6
_chemical_formula_structural  SrCa3Br2N2
_chemical_formula_sum  SrCa3Br2N2
_cell_volume  170.9682152192055
_cell_formula_units_Z  1
loop_
  _symmetry_equiv_pos_site_id
 _symmetry_equiv_pos_as_xyz
 1  'x, y, z'
loop_
 _atom_site_type_symbol
 _atom_site_label
 _atom_site_symmetry_multiplicity
 _atom_site_fract_x
 _atom_site_fract_y
 _atom_site_fract_z
 _atom_site_fract_occupancy
 Br  Br1  1  0.00000  0.99034  0.01240  1
 Br  Br2  1  0.50000  0.50614  0.00392  1
 Ca  Ca1  1  0.00000  0.77572  0.66624  1
 Ca  Ca2  1  0.50000  0.72578  0.32108  1
 Ca  Ca3  1  0.00000  0.22659  0.32127  1
 N  N1  1  0.00000  0.50825  0.49216  1
 N  N2  1  0.50000  0.99622  0.49457  1
 Sr  Sr1  1  0.50000  0.27097  0.68836  1
