CIF file written using JARVIS-Tools package.
data_TbOF
_symmetry_space_group_name_H-M  'C2/m'
_cell_length_a       6.50077
_cell_length_b       6.50077
_cell_length_c       4.32161
_cell_angle_alpha    72.3591
_cell_angle_beta     72.3591
_cell_angle_gamma    38.983

_symmetry_Int_Tables_number  12
_chemical_formula_structural  TbOF
_chemical_formula_sum  Tb2O2F2
_cell_volume  108.79279234182928
_cell_formula_units_Z  2
loop_
  _symmetry_equiv_pos_site_id
 _symmetry_equiv_pos_as_xyz
 1  'x, y, z'
loop_
 _atom_site_type_symbol
 _atom_site_label
 _atom_site_symmetry_multiplicity
 _atom_site_fract_x
 _atom_site_fract_y
 _atom_site_fract_z
 _atom_site_fract_occupancy
 F  F1  1  0.17646  0.17646  0.58459  1
 F  F2  1  0.82354  0.82354  0.41541  1
 O  O1  1  0.42443  0.42443  0.81898  1
 O  O2  1  0.57557  0.57557  0.18102  1
 Tb  Tb1  1  0.38633  0.38633  0.35338  1
 Tb  Tb2  1  0.61367  0.61367  0.64662  1
