CIF file written using JARVIS-Tools package.
data_H2CO
_symmetry_space_group_name_H-M  'P2_12_12_1'
_cell_length_a       3.58226
_cell_length_b       4.63054
_cell_length_c       7.27222
_cell_angle_alpha    90
_cell_angle_beta     90
_cell_angle_gamma    90

_symmetry_Int_Tables_number  19
_chemical_formula_structural  H2CO
_chemical_formula_sum  H8C4O4
_cell_volume  120.630292461862
_cell_formula_units_Z  4
loop_
  _symmetry_equiv_pos_site_id
 _symmetry_equiv_pos_as_xyz
 1  'x, y, z'
loop_
 _atom_site_type_symbol
 _atom_site_label
 _atom_site_symmetry_multiplicity
 _atom_site_fract_x
 _atom_site_fract_y
 _atom_site_fract_z
 _atom_site_fract_occupancy
 C  C1  1  0.33923  0.37193  0.57658  1
 C  C2  1  0.83923  0.12807  0.42342  1
 C  C3  1  0.16077  0.62807  0.07658  1
 C  C4  1  0.66077  0.87193  0.92342  1
 H  H1  1  0.00898  0.64098  0.20760  1
 H  H2  1  0.31308  0.42264  0.06560  1
 H  H3  1  0.50898  0.85902  0.79240  1
 H  H4  1  0.81308  0.07736  0.93440  1
 H  H5  1  0.49102  0.35902  0.70760  1
 H  H6  1  0.18692  0.57736  0.56560  1
 H  H7  1  0.99102  0.14098  0.29240  1
 H  H8  1  0.68692  0.92264  0.43440  1
 O  O1  1  0.09173  0.13217  0.57507  1
 O  O2  1  0.59173  0.36783  0.42493  1
 O  O3  1  0.40827  0.86783  0.07507  1
 O  O4  1  0.90827  0.63217  0.92493  1
