CIF file written using JARVIS-Tools package.
data_Pr5Mg
_symmetry_space_group_name_H-M  'Amm2'
_cell_length_a       9.37646
_cell_length_b       9.37645
_cell_length_c       5.88108
_cell_angle_alpha    90
_cell_angle_beta     90
_cell_angle_gamma    157.083

_symmetry_Int_Tables_number  38
_chemical_formula_structural  Pr5Mg
_chemical_formula_sum  Pr5Mg
_cell_volume  201.34284223551495
_cell_formula_units_Z  1
loop_
  _symmetry_equiv_pos_site_id
 _symmetry_equiv_pos_as_xyz
 1  'x, y, z'
loop_
 _atom_site_type_symbol
 _atom_site_label
 _atom_site_symmetry_multiplicity
 _atom_site_fract_x
 _atom_site_fract_y
 _atom_site_fract_z
 _atom_site_fract_occupancy
 Mg  Mg1  1  0.21679  0.78321  0.50000  1
 Pr  Pr1  1  0.00764  0.99236  0.00000  1
 Pr  Pr2  1  0.67616  0.32384  0.00000  1
 Pr  Pr3  1  0.33609  0.66391  0.00000  1
 Pr  Pr4  1  0.55390  0.44610  0.50000  1
 Pr  Pr5  1  0.87608  0.12392  0.50000  1
