CIF file written using JARVIS-Tools package.
data_H6C11SO2
_symmetry_space_group_name_H-M  'P1'
_cell_length_a       3.75658
_cell_length_b       5.93152
_cell_length_c       10.2543
_cell_angle_alpha    83.6367
_cell_angle_beta     79.6385
_cell_angle_gamma    73.8183

_symmetry_Int_Tables_number  1
_chemical_formula_structural  H6C11SO2
_chemical_formula_sum  H6CSO2
_cell_volume  215.41271649033112
_cell_formula_units_Z  1
loop_
  _symmetry_equiv_pos_site_id
 _symmetry_equiv_pos_as_xyz
 1  'x, y, z'
loop_
 _atom_site_type_symbol
 _atom_site_label
 _atom_site_symmetry_multiplicity
 _atom_site_fract_x
 _atom_site_fract_y
 _atom_site_fract_z
 _atom_site_fract_occupancy
 C  C1  1  0.42375  0.50825  0.17268  1
 C  C2  1  0.21716  0.72631  0.22114  1
 C  C3  1  0.58422  0.35411  0.77180  1
 C  C4  1  0.72252  0.33365  0.63554  1
 C  C5  1  0.84289  0.52349  0.57210  1
 C  C6  1  0.63916  0.46843  0.03873  1
 C  C7  1  0.23892  0.31347  0.38350  1
 C  C8  1  0.43327  0.30268  0.25586  1
 C  C9  1  0.03449  0.53119  0.43551  1
 C  C10  1  0.60147  0.56278  0.81274  1
 C  C11  1  0.03215  0.73683  0.35218  1
 H  H1  1  0.59202  0.13466  0.21673  1
 H  H2  1  0.25157  0.15205  0.44664  1
 H  H3  1  0.20387  0.88689  0.15686  1
 H  H4  1  0.87540  0.90710  0.38965  1
 H  H5  1  0.72801  0.18362  0.58298  1
 H  H6  1  0.47304  0.22490  0.83762  1
 O  O1  1  0.90630  0.29989  0.01213  1
 O  O2  1  0.49368  0.63694  0.94056  1
 S  S1  1  0.77920  0.73648  0.68479  1
