CIF file written using JARVIS-Tools package.
data_TlCoO3
_symmetry_space_group_name_H-M  'R-3'
_cell_length_a       5.92084
_cell_length_b       5.92084
_cell_length_c       5.92083
_cell_angle_alpha    51.8592
_cell_angle_beta     51.8592
_cell_angle_gamma    51.8592

_symmetry_Int_Tables_number  148
_chemical_formula_structural  TlCoO3
_chemical_formula_sum  Tl2Co2O6
_cell_volume  118.66669341230018
_cell_formula_units_Z  2
loop_
  _symmetry_equiv_pos_site_id
 _symmetry_equiv_pos_as_xyz
 1  'x, y, z'
loop_
 _atom_site_type_symbol
 _atom_site_label
 _atom_site_symmetry_multiplicity
 _atom_site_fract_x
 _atom_site_fract_y
 _atom_site_fract_z
 _atom_site_fract_occupancy
 Co  Co1  1  0.66216  0.66216  0.66216  1
 Co  Co2  1  0.33784  0.33784  0.33784  1
 O  O1  1  0.32107  0.53114  0.94150  1
 O  O2  1  0.94150  0.32107  0.53114  1
 O  O3  1  0.53114  0.94150  0.32107  1
 O  O4  1  0.46886  0.05850  0.67893  1
 O  O5  1  0.05850  0.67893  0.46886  1
 O  O6  1  0.67893  0.46886  0.05850  1
 Tl  Tl1  1  0.87285  0.87285  0.87285  1
 Tl  Tl2  1  0.12715  0.12715  0.12715  1
