CIF file written using JARVIS-Tools package.
data_TiH16C9O4
_symmetry_space_group_name_H-M  'P1'
_cell_length_a       5.06587
_cell_length_b       6.83987
_cell_length_c       8.03856
_cell_angle_alpha    101.54
_cell_angle_beta     103.6
_cell_angle_gamma    94.7767

_symmetry_Int_Tables_number  1
_chemical_formula_structural  TiH16C9O4
_chemical_formula_sum  TiH6C9O4
_cell_volume  262.7572452101552
_cell_formula_units_Z  1
loop_
  _symmetry_equiv_pos_site_id
 _symmetry_equiv_pos_as_xyz
 1  'x, y, z'
loop_
 _atom_site_type_symbol
 _atom_site_label
 _atom_site_symmetry_multiplicity
 _atom_site_fract_x
 _atom_site_fract_y
 _atom_site_fract_z
 _atom_site_fract_occupancy
 C  C1  1  0.64982  0.82233  0.11499  1
 C  C2  1  0.14250  0.63903  0.72463  1
 C  C3  1  0.32055  0.47069  0.35276  1
 C  C4  1  0.87182  0.24267  0.89495  1
 C  C5  1  0.44685  0.75963  0.21464  1
 C  C6  1  0.52711  0.57015  0.27759  1
 C  C7  1  0.85681  0.06241  0.97372  1
 C  C8  1  0.62430  0.02227  0.05867  1
 C  C9  1  0.03344  0.11958  0.52768  1
 H  H1  1  0.23562  0.72840  0.13103  1
 H  H2  1  0.64210  0.14542  0.17371  1
 H  H3  1  0.84551  0.93390  0.86233  1
 H  H4  1  0.42502  0.01717  -0.03397  1
 H  H5  1  0.72886  0.60288  0.37151  1
 H  H6  1  0.45198  0.88237  0.32830  1
 H  H7  1  0.26759  0.75551  0.68948  1
 H  H8  1  0.11623  0.68972  0.85708  1
 H  H9  1  0.85830  0.82948  0.19817  1
 H  H10  1  0.00643  -0.00562  0.59191  1
 H  H11  1  0.83795  0.17994  0.49107  1
 H  H12  1  0.10374  0.06870  0.40943  1
 H  H13  1  0.93945  0.59939  0.62965  1
 H  H14  1  0.63332  0.70122  -0.00213  1
 H  H15  1  0.54707  0.45742  0.16396  1
 H  H16  1  0.05650  0.06886  0.06625  1
 O  O1  1  0.10294  0.30436  0.87394  1
 O  O2  1  0.07515  0.42866  0.27704  1
 O  O3  1  0.65617  0.32150  0.84001  1
 O  O4  1  0.42556  0.42599  0.50816  1
 Ti  Ti1  1  0.30408  0.36466  0.69941  1
