data_image0
_chemical_formula_structural       Ag8Gd8S16
_chemical_formula_sum              "Ag8 Gd8 S16"
_cell_length_a       7.70511
_cell_length_b       7.70731
_cell_length_c       12.6778
_cell_angle_alpha    90
_cell_angle_beta     90.0719
_cell_angle_gamma    90

_space_group_name_H-M_alt    "P 1"
_space_group_IT_number       1

loop_
  _space_group_symop_operation_xyz
  'x, y, z'

loop_
  _atom_site_type_symbol
  _atom_site_label
  _atom_site_symmetry_multiplicity
  _atom_site_fract_x
  _atom_site_fract_y
  _atom_site_fract_z
  _atom_site_occupancy
  Ag  Ag1       1.0  0.26800  0.99400  0.43800  1.0000
  Ag  Ag2       1.0  0.73200  0.49400  0.56200  1.0000
  Ag  Ag3       1.0  0.23100  0.51300  0.93400  1.0000
  Ag  Ag4       1.0  0.76900  0.01320  0.06570  1.0000
  Ag  Ag5       1.0  0.99300  0.26200  0.31800  1.0000
  Ag  Ag6       1.0  0.00698  0.76200  0.68200  1.0000
  Ag  Ag7       1.0  0.49200  0.73900  0.18200  1.0000
  Ag  Ag8       1.0  0.50800  0.23900  0.81800  1.0000
  Gd  Gd1       1.0  0.25200  0.00166  0.99700  1.0000
  Gd  Gd2       1.0  0.74800  0.50200  0.00274  1.0000
  Gd  Gd3       1.0  0.99800  0.75400  0.24600  1.0000
  Gd  Gd4       1.0  0.00166  0.25400  0.75400  1.0000
  Gd  Gd5       1.0  0.49800  0.25300  0.25300  1.0000
  Gd  Gd6       1.0  0.50200  0.75300  0.74700  1.0000
  Gd  Gd7       1.0  0.24800  0.50400  0.49700  1.0000
  Gd  Gd8       1.0  0.75200  0.00394  0.50300  1.0000
  S   S1        1.0  0.27400  0.02540  0.77800  1.0000
  S   S2        1.0  0.72600  0.52500  0.22200  1.0000
  S   S3        1.0  0.51900  0.73400  0.52600  1.0000
  S   S4        1.0  0.48100  0.23400  0.47400  1.0000
  S   S5        1.0  0.97400  0.28200  0.53400  1.0000
  S   S6        1.0  0.02600  0.78200  0.46600  1.0000
  S   S7        1.0  0.97900  0.77300  0.02660  1.0000
  S   S8        1.0  0.02080  0.27300  0.97300  1.0000
  S   S9        1.0  0.77500  0.02930  0.28300  1.0000
  S   S10       1.0  0.22500  0.52900  0.71700  1.0000
  S   S11       1.0  0.22400  0.47900  0.27800  1.0000
  S   S12       1.0  0.77600  0.97900  0.72200  1.0000
  S   S13       1.0  0.27700  0.97500  0.21800  1.0000
  S   S14       1.0  0.72300  0.47500  0.78200  1.0000
  S   S15       1.0  0.52700  0.22500  0.03420  1.0000
  S   S16       1.0  0.47300  0.72500  0.96600  1.0000
