CIF file written using JARVIS-Tools package.
data_MgInSe3
_symmetry_space_group_name_H-M  'C2/m'
_cell_length_a       7.10714
_cell_length_b       7.10715
_cell_length_c       6.76005
_cell_angle_alpha    76.2273
_cell_angle_beta     76.2272
_cell_angle_gamma    120.128

_symmetry_Int_Tables_number  12
_chemical_formula_structural  MgInSe3
_chemical_formula_sum  Mg2In2Se6
_cell_volume  259.556586089574
_cell_formula_units_Z  2
loop_
  _symmetry_equiv_pos_site_id
 _symmetry_equiv_pos_as_xyz
 1  'x, y, z'
loop_
 _atom_site_type_symbol
 _atom_site_label
 _atom_site_symmetry_multiplicity
 _atom_site_fract_x
 _atom_site_fract_y
 _atom_site_fract_z
 _atom_site_fract_occupancy
 In  In1  1  0.83707  0.83707  0.34643  1
 In  In2  1  0.16293  0.16293  0.65357  1
 Mg  Mg1  1  0.67039  0.32961  0.00000  1
 Mg  Mg2  1  0.32961  0.67039  -0.00000  1
 Se  Se1  1  0.51320  0.87448  0.26414  1
 Se  Se2  1  0.48680  0.12552  0.73586  1
 Se  Se3  1  0.12552  0.48680  0.73586  1
 Se  Se4  1  0.87448  0.51320  0.26414  1
 Se  Se5  1  0.74957  0.74957  0.77503  1
 Se  Se6  1  0.25043  0.25043  0.22497  1
