CIF file written using JARVIS-Tools package.
data_Sm2Se2O
_symmetry_space_group_name_H-M  'Pnma'
_cell_length_a       4.0032
_cell_length_b       7.14284
_cell_length_c       16.3313
_cell_angle_alpha    90
_cell_angle_beta     90
_cell_angle_gamma    90

_symmetry_Int_Tables_number  62
_chemical_formula_structural  Sm2Se2O
_chemical_formula_sum  Sm8Se8O4
_cell_volume  466.97955826526544
_cell_formula_units_Z  4
loop_
  _symmetry_equiv_pos_site_id
 _symmetry_equiv_pos_as_xyz
 1  'x, y, z'
loop_
 _atom_site_type_symbol
 _atom_site_label
 _atom_site_symmetry_multiplicity
 _atom_site_fract_x
 _atom_site_fract_y
 _atom_site_fract_z
 _atom_site_fract_occupancy
 O  O1  1  0.75000  0.62851  0.96947  1
 O  O2  1  0.25000  0.37149  0.03053  1
 O  O3  1  0.25000  0.12851  0.53053  1
 O  O4  1  0.75000  0.87149  0.46947  1
 Se  Se1  1  0.25000  0.51018  0.40021  1
 Se  Se2  1  0.75000  0.01018  0.09979  1
 Se  Se3  1  0.25000  0.05277  0.32068  1
 Se  Se4  1  0.75000  0.55277  0.17932  1
 Se  Se5  1  0.75000  0.48982  0.59979  1
 Se  Se6  1  0.75000  0.94723  0.67932  1
 Se  Se7  1  0.25000  0.44723  0.82068  1
 Se  Se8  1  0.25000  0.98982  0.90021  1
 Sm  Sm1  1  0.75000  0.30046  0.96130  1
 Sm  Sm2  1  0.75000  0.74045  0.83750  1
 Sm  Sm3  1  0.25000  0.24045  0.66250  1
 Sm  Sm4  1  0.25000  0.80046  0.53870  1
 Sm  Sm5  1  0.75000  0.19954  0.46130  1
 Sm  Sm6  1  0.75000  0.75955  0.33750  1
 Sm  Sm7  1  0.25000  0.25955  0.16250  1
 Sm  Sm8  1  0.25000  0.69954  0.03870  1
