CIF file written using JARVIS-Tools package.
data_V4C3
_symmetry_space_group_name_H-M  'R3m'
_cell_length_a       9.45649
_cell_length_b       9.45649
_cell_length_c       9.45649
_cell_angle_alpha    17.8543
_cell_angle_beta     17.8542
_cell_angle_gamma    17.8543

_symmetry_Int_Tables_number  160
_chemical_formula_structural  V4C3
_chemical_formula_sum  V4C3
_cell_volume  69.39918291058012
_cell_formula_units_Z  1
loop_
  _symmetry_equiv_pos_site_id
 _symmetry_equiv_pos_as_xyz
 1  'x, y, z'
loop_
 _atom_site_type_symbol
 _atom_site_label
 _atom_site_symmetry_multiplicity
 _atom_site_fract_x
 _atom_site_fract_y
 _atom_site_fract_z
 _atom_site_fract_occupancy
 C  C1  1  0.49494  0.49494  0.49494  1
 C  C2  1  0.00548  0.00548  0.00548  1
 C  C3  1  0.91581  0.91581  0.91581  1
 V  V1  1  0.62623  0.62623  0.62623  1
 V  V2  1  0.37581  0.37581  0.37581  1
 V  V3  1  0.79061  0.79061  0.79061  1
 V  V4  1  0.20611  0.20611  0.20611  1
