CIF file written using JARVIS-Tools package.
data_ErSi2Os2
_symmetry_space_group_name_H-M  'I4/mmm'
_cell_length_a       4.19258
_cell_length_b       4.19258
_cell_length_c       5.63172
_cell_angle_alpha    111.853
_cell_angle_beta     111.853
_cell_angle_gamma    90

_symmetry_Int_Tables_number  139
_chemical_formula_structural  ErSi2Os2
_chemical_formula_sum  ErSi2Os2
_cell_volume  84.16685792443633
_cell_formula_units_Z  1
loop_
  _symmetry_equiv_pos_site_id
 _symmetry_equiv_pos_as_xyz
 1  'x, y, z'
loop_
 _atom_site_type_symbol
 _atom_site_label
 _atom_site_symmetry_multiplicity
 _atom_site_fract_x
 _atom_site_fract_y
 _atom_site_fract_z
 _atom_site_fract_occupancy
 Er  Er1  1  0.00000  0.00000  0.00000  1
 Os  Os1  1  0.25000  0.75000  0.50000  1
 Os  Os2  1  0.75000  0.25000  0.50000  1
 Si  Si1  1  0.62748  0.62748  0.25497  1
 Si  Si2  1  0.37252  0.37252  0.74503  1
