CIF file written using JARVIS-Tools package.
data_ZnH16C10O4
_symmetry_space_group_name_H-M  'P1'
_cell_length_a       3.89004
_cell_length_b       4.72547
_cell_length_c       14.6168
_cell_angle_alpha    86.747
_cell_angle_beta     86.8848
_cell_angle_gamma    66.5638

_symmetry_Int_Tables_number  1
_chemical_formula_structural  ZnH16C10O4
_chemical_formula_sum  ZnH6C0O4
_cell_volume  245.97955715373124
_cell_formula_units_Z  1
loop_
  _symmetry_equiv_pos_site_id
 _symmetry_equiv_pos_as_xyz
 1  'x, y, z'
loop_
 _atom_site_type_symbol
 _atom_site_label
 _atom_site_symmetry_multiplicity
 _atom_site_fract_x
 _atom_site_fract_y
 _atom_site_fract_z
 _atom_site_fract_occupancy
 C  C1  1  0.98627  0.56940  0.61170  1
 C  C2  1  0.84250  0.30473  0.37322  1
 C  C3  1  0.97956  0.36119  0.53600  1
 C  C4  1  0.83917  0.53041  0.44428  1
 C  C5  1  0.10497  0.39148  0.70326  1
 C  C6  1  0.10688  0.59131  0.78186  1
 C  C7  1  0.18726  0.40983  0.87385  1
 C  C8  1  0.17228  0.60982  0.95381  1
 C  C9  1  0.17136  0.45781  0.04813  1
 C  C10  1  0.67454  0.43921  0.28149  1
 H  H1  1  0.80160  0.23719  0.55975  1
 H  H2  1  0.12798  0.13316  0.35964  1
 H  H3  1  0.68428  0.16761  0.40038  1
 H  H4  1  0.98182  0.30469  0.88742  1
 H  H5  1  0.46263  0.21504  0.86976  1
 H  H6  1  0.55314  0.70682  0.45417  1
 H  H7  1  0.01460  0.65384  0.41868  1
 H  H8  1  0.70486  0.75502  0.62082  1
 H  H9  1  0.17575  0.68521  0.59072  1
 H  H10  1  0.83170  0.78713  0.78735  1
 H  H11  1  0.31356  0.69454  0.76627  1
 H  H12  1  0.91900  0.82587  0.95266  1
 H  H13  1  0.40766  0.68439  0.94937  1
 H  H14  1  0.26377  0.18082  0.52548  1
 H  H15  1  0.38625  0.20558  0.69439  1
 H  H16  1  0.91529  0.27423  0.72270  1
 O  O1  1  0.72195  0.25824  0.21641  1
 O  O2  1  0.27838  0.16356  0.05308  1
 O  O3  1  0.47620  0.72977  0.27509  1
 O  O4  1  0.05465  0.62534  0.11740  1
 Zn  Zn1  1  0.20179  0.94533  0.16591  1
