CIF file written using JARVIS-Tools package.
data_SrCu2GeS4
_symmetry_space_group_name_H-M  'I-42m'
_cell_length_a       6.05926
_cell_length_b       6.05925
_cell_length_c       6.05926
_cell_angle_alpha    116.826
_cell_angle_beta     116.826
_cell_angle_gamma    95.5917

_symmetry_Int_Tables_number  121
_chemical_formula_structural  SrCu2GeS4
_chemical_formula_sum  SrCu2GeS4
_cell_volume  164.00648251864627
_cell_formula_units_Z  1
loop_
  _symmetry_equiv_pos_site_id
 _symmetry_equiv_pos_as_xyz
 1  'x, y, z'
loop_
 _atom_site_type_symbol
 _atom_site_label
 _atom_site_symmetry_multiplicity
 _atom_site_fract_x
 _atom_site_fract_y
 _atom_site_fract_z
 _atom_site_fract_occupancy
 Cu  Cu1  1  0.25000  0.75000  0.50000  1
 Cu  Cu2  1  0.75000  0.25000  0.50000  1
 Ge  Ge1  1  0.50000  0.50000  -0.00000  1
 S  S1  1  0.53946  0.13591  -0.00000  1
 S  S2  1  0.13591  0.53946  -0.00000  1
 S  S3  1  0.86409  0.86409  0.40355  1
 S  S4  1  0.46054  0.46054  0.59645  1
 Sr  Sr1  1  0.00000  0.00000  0.00000  1
