data_image0
_chemical_formula_structural       Ag8Ho8S16
_chemical_formula_sum              "Ag8 Ho8 S16"
_cell_length_a       7.65563
_cell_length_b       7.65813
_cell_length_c       12.0054
_cell_angle_alpha    90
_cell_angle_beta     90.0327
_cell_angle_gamma    90

_space_group_name_H-M_alt    "P 1"
_space_group_IT_number       1

loop_
  _space_group_symop_operation_xyz
  'x, y, z'

loop_
  _atom_site_type_symbol
  _atom_site_label
  _atom_site_symmetry_multiplicity
  _atom_site_fract_x
  _atom_site_fract_y
  _atom_site_fract_z
  _atom_site_occupancy
  Ag  Ag1       1.0  0.23900  0.01950  0.47100  1.0000
  Ag  Ag2       1.0  0.76100  0.52000  0.52900  1.0000
  Ag  Ag3       1.0  0.24800  0.50100  0.98000  1.0000
  Ag  Ag4       1.0  0.75200  0.00142  0.02010  1.0000
  Ag  Ag5       1.0  0.00086  0.26500  0.26500  1.0000
  Ag  Ag6       1.0  0.99900  0.76500  0.73500  1.0000
  Ag  Ag7       1.0  0.51900  0.77000  0.23600  1.0000
  Ag  Ag8       1.0  0.48100  0.27000  0.76400  1.0000
  Ho  Ho1       1.0  0.24800  0.49400  0.49600  1.0000
  Ho  Ho2       1.0  0.75200  0.99400  0.50400  1.0000
  Ho  Ho3       1.0  0.99800  0.74900  0.24800  1.0000
  Ho  Ho4       1.0  0.00158  0.24900  0.75200  1.0000
  Ho  Ho5       1.0  0.49900  0.24400  0.25300  1.0000
  Ho  Ho6       1.0  0.50100  0.74400  0.74700  1.0000
  Ho  Ho7       1.0  0.25300  0.99800  0.99800  1.0000
  Ho  Ho8       1.0  0.74700  0.49800  0.00241  1.0000
  S   S1        1.0  0.51700  0.23100  0.02610  1.0000
  S   S2        1.0  0.48300  0.73100  0.97400  1.0000
  S   S3        1.0  0.26800  0.01680  0.77000  1.0000
  S   S4        1.0  0.73200  0.51700  0.23000  1.0000
  S   S5        1.0  0.51200  0.73500  0.52000  1.0000
  S   S6        1.0  0.48800  0.23500  0.48000  1.0000
  S   S7        1.0  0.97800  0.26900  0.52600  1.0000
  S   S8        1.0  0.02210  0.76900  0.47400  1.0000
  S   S9        1.0  0.98300  0.76700  0.01990  1.0000
  S   S10       1.0  0.01740  0.26700  0.98000  1.0000
  S   S11       1.0  0.77500  0.02280  0.27800  1.0000
  S   S12       1.0  0.22500  0.52300  0.72200  1.0000
  S   S13       1.0  0.24000  0.48800  0.26900  1.0000
  S   S14       1.0  0.76000  0.98800  0.73100  1.0000
  S   S15       1.0  0.26600  0.98200  0.22400  1.0000
  S   S16       1.0  0.73400  0.48200  0.77600  1.0000
