CIF file written using JARVIS-Tools package.
data_NbSiGe
_symmetry_space_group_name_H-M  'P3_212'
_cell_length_a       4.93604
_cell_length_b       4.93604
_cell_length_c       6.74019
_cell_angle_alpha    90
_cell_angle_beta     90
_cell_angle_gamma    120

_symmetry_Int_Tables_number  153
_chemical_formula_structural  NbSiGe
_chemical_formula_sum  Nb3Si3Ge3
_cell_volume  142.21961139584715
_cell_formula_units_Z  3
loop_
  _symmetry_equiv_pos_site_id
 _symmetry_equiv_pos_as_xyz
 1  'x, y, z'
loop_
 _atom_site_type_symbol
 _atom_site_label
 _atom_site_symmetry_multiplicity
 _atom_site_fract_x
 _atom_site_fract_y
 _atom_site_fract_z
 _atom_site_fract_occupancy
 Ge  Ge1  1  0.32455  0.16228  0.50000  1
 Ge  Ge2  1  0.83772  0.16228  0.16667  1
 Ge  Ge3  1  0.83772  0.67545  0.83333  1
 Nb  Nb1  1  0.00404  0.50202  0.50000  1
 Nb  Nb2  1  0.49798  0.50202  0.16667  1
 Nb  Nb3  1  0.49798  0.99596  0.83333  1
 Si  Si1  1  0.67623  0.83812  0.50000  1
 Si  Si2  1  0.16188  0.83812  0.16667  1
 Si  Si3  1  0.16188  0.32377  0.83333  1
