CIF file written using JARVIS-Tools package.
data_Na2CuP
_symmetry_space_group_name_H-M  'Cmcm'
_cell_length_a       5.24848
_cell_length_b       5.54101
_cell_length_c       5.54101
_cell_angle_alpha    102.421
_cell_angle_beta     90
_cell_angle_gamma    90

_symmetry_Int_Tables_number  63
_chemical_formula_structural  Na2CuP
_chemical_formula_sum  Na4Cu2P2
_cell_volume  157.37171819570924
_cell_formula_units_Z  2
loop_
  _symmetry_equiv_pos_site_id
 _symmetry_equiv_pos_as_xyz
 1  'x, y, z'
loop_
 _atom_site_type_symbol
 _atom_site_label
 _atom_site_symmetry_multiplicity
 _atom_site_fract_x
 _atom_site_fract_y
 _atom_site_fract_z
 _atom_site_fract_occupancy
 Cu  Cu1  1  0.50000  0.50000  0.50000  1
 Cu  Cu2  1  0.00000  0.50000  0.50000  1
 Na  Na1  1  0.25000  0.68278  0.03083  1
 Na  Na2  1  0.75000  0.31722  0.96917  1
 Na  Na3  1  0.25000  0.03083  0.68278  1
 Na  Na4  1  0.75000  0.96917  0.31722  1
 P  P1  1  0.75000  0.76435  0.76435  1
 P  P2  1  0.25000  0.23565  0.23565  1
