CIF file written using JARVIS-Tools package.
data_CuAsS
_symmetry_space_group_name_H-M  'Pnma'
_cell_length_a       3.83168
_cell_length_b       5.47664
_cell_length_c       11.4217
_cell_angle_alpha    90
_cell_angle_beta     90
_cell_angle_gamma    90

_symmetry_Int_Tables_number  62
_chemical_formula_structural  CuAsS
_chemical_formula_sum  Cu4As4S4
_cell_volume  239.68017365474054
_cell_formula_units_Z  4
loop_
  _symmetry_equiv_pos_site_id
 _symmetry_equiv_pos_as_xyz
 1  'x, y, z'
loop_
 _atom_site_type_symbol
 _atom_site_label
 _atom_site_symmetry_multiplicity
 _atom_site_fract_x
 _atom_site_fract_y
 _atom_site_fract_z
 _atom_site_fract_occupancy
 As  As1  1  0.77964  0.65091  0.98484  1
 As  As2  1  0.27964  0.15091  0.51516  1
 As  As3  1  0.77964  0.84909  0.48484  1
 As  As4  1  0.27964  0.34909  0.01516  1
 Cu  Cu1  1  0.27944  0.43899  0.67653  1
 Cu  Cu2  1  0.77944  0.93899  0.82347  1
 Cu  Cu3  1  0.77944  0.56101  0.32347  1
 Cu  Cu4  1  0.27944  0.06101  0.17653  1
 S  S1  1  0.77950  0.82803  0.16782  1
 S  S2  1  0.77950  0.67197  0.66782  1
 S  S3  1  0.27950  0.17197  0.83218  1
 S  S4  1  0.27950  0.32803  0.33218  1
