CIF file written using JARVIS-Tools package.
data_TiAl3
_symmetry_space_group_name_H-M  'Pmm2'
_cell_length_a       2.79831
_cell_length_b       4.71809
_cell_length_c       4.93077
_cell_angle_alpha    90
_cell_angle_beta     90
_cell_angle_gamma    90

_symmetry_Int_Tables_number  25
_chemical_formula_structural  TiAl3
_chemical_formula_sum  TiAl3
_cell_volume  65.09937937668776
_cell_formula_units_Z  1
loop_
  _symmetry_equiv_pos_site_id
 _symmetry_equiv_pos_as_xyz
 1  'x, y, z'
loop_
 _atom_site_type_symbol
 _atom_site_label
 _atom_site_symmetry_multiplicity
 _atom_site_fract_x
 _atom_site_fract_y
 _atom_site_fract_z
 _atom_site_fract_occupancy
 Al  Al1  1  0.50000  0.50000  0.66408  1
 Al  Al2  1  0.50000  0.00000  0.33339  1
 Al  Al3  1  0.00000  0.00000  0.84024  1
 Ti  Ti1  1  0.00000  0.50000  0.16230  1
