CIF file written using JARVIS-Tools package.
data_Ta2VC2
_symmetry_space_group_name_H-M  'R-3m'
_cell_length_a       7.45092
_cell_length_b       7.45092
_cell_length_c       7.45092
_cell_angle_alpha    24.0125
_cell_angle_beta     24.0125
_cell_angle_gamma    24.0125

_symmetry_Int_Tables_number  166
_chemical_formula_structural  Ta2VC2
_chemical_formula_sum  Ta2VC2
_cell_volume  60.18928643246868
_cell_formula_units_Z  1
loop_
  _symmetry_equiv_pos_site_id
 _symmetry_equiv_pos_as_xyz
 1  'x, y, z'
loop_
 _atom_site_type_symbol
 _atom_site_label
 _atom_site_symmetry_multiplicity
 _atom_site_fract_x
 _atom_site_fract_y
 _atom_site_fract_z
 _atom_site_fract_occupancy
 C  C1  1  0.61149  0.61149  0.61149  1
 C  C2  1  0.38851  0.38851  0.38851  1
 Ta  Ta1  1  0.77684  0.77684  0.77684  1
 Ta  Ta2  1  0.22316  0.22316  0.22316  1
 V  V1  1  0.00000  0.00000  0.00000  1
