CIF file written using JARVIS-Tools package.
data_Li2VCrS4
_symmetry_space_group_name_H-M  'C2/m'
_cell_length_a       6.91924
_cell_length_b       6.91923
_cell_length_c       6.11206
_cell_angle_alpha    63.9222
_cell_angle_beta     63.9223
_cell_angle_gamma    29.0125

_symmetry_Int_Tables_number  12
_chemical_formula_structural  Li2VCrS4
_chemical_formula_sum  Li2VCrS4
_cell_volume  126.44702793595461
_cell_formula_units_Z  1
loop_
  _symmetry_equiv_pos_site_id
 _symmetry_equiv_pos_as_xyz
 1  'x, y, z'
loop_
 _atom_site_type_symbol
 _atom_site_label
 _atom_site_symmetry_multiplicity
 _atom_site_fract_x
 _atom_site_fract_y
 _atom_site_fract_z
 _atom_site_fract_occupancy
 Cr  Cr1  1  0.00000  0.00000  0.00000  1
 Li  Li1  1  0.24967  0.24967  0.75063  1
 Li  Li2  1  0.75033  0.75033  0.24937  1
 S  S1  1  0.88572  0.88572  0.78465  1
 S  S2  1  0.38669  0.38669  0.27841  1
 S  S3  1  0.11428  0.11428  0.21535  1
 S  S4  1  0.61331  0.61331  0.72159  1
 V  V1  1  0.50000  0.50000  0.50000  1
