CIF file written using JARVIS-Tools package.
data_FeCo2N2
_symmetry_space_group_name_H-M  'P-3m1'
_cell_length_a       2.80615
_cell_length_b       2.80683
_cell_length_c       6.40711
_cell_angle_alpha    90.004
_cell_angle_beta     90
_cell_angle_gamma    119.993

_symmetry_Int_Tables_number  164
_chemical_formula_structural  FeCo2N2
_chemical_formula_sum  FeCo2N2
_cell_volume  43.70722195367472
_cell_formula_units_Z  1
loop_
  _symmetry_equiv_pos_site_id
 _symmetry_equiv_pos_as_xyz
 1  'x, y, z'
loop_
 _atom_site_type_symbol
 _atom_site_label
 _atom_site_symmetry_multiplicity
 _atom_site_fract_x
 _atom_site_fract_y
 _atom_site_fract_z
 _atom_site_fract_occupancy
 Co  Co1  1  0.66665  0.33321  0.16026  1
 Co  Co2  1  0.33335  0.66678  0.83974  1
 Fe  Fe1  1  0.00001  0.00003  0.50000  1
 N  N1  1  0.66661  0.33330  0.68953  1
 N  N2  1  0.33339  0.66668  0.31047  1
