CIF file written using JARVIS-Tools package.
data_Mn2CoN2
_symmetry_space_group_name_H-M  'C2/m'
_cell_length_a       3.04238
_cell_length_b       3.5486
_cell_length_c       5.60521
_cell_angle_alpha    90
_cell_angle_beta     101.113
_cell_angle_gamma    125.676

_symmetry_Int_Tables_number  12
_chemical_formula_structural  Mn2CoN2
_chemical_formula_sum  Mn2CoN2
_cell_volume  47.75439693657596
_cell_formula_units_Z  1
loop_
  _symmetry_equiv_pos_site_id
 _symmetry_equiv_pos_as_xyz
 1  'x, y, z'
loop_
 _atom_site_type_symbol
 _atom_site_label
 _atom_site_symmetry_multiplicity
 _atom_site_fract_x
 _atom_site_fract_y
 _atom_site_fract_z
 _atom_site_fract_occupancy
 Co  Co1  1  -0.00000  -0.00000  0.50000  1
 Mn  Mn1  1  0.73337  0.36669  0.16019  1
 Mn  Mn2  1  0.26663  0.63331  0.83981  1
 N  N1  1  0.50607  0.25304  0.80045  1
 N  N2  1  0.49393  0.74696  0.19955  1
