CIF file written using JARVIS-Tools package.
data_SiO2
_symmetry_space_group_name_H-M  'I-4'
_cell_length_a       5.00994
_cell_length_b       6.68596
_cell_length_c       6.68612
_cell_angle_alpha    81.9299
_cell_angle_beta     67.9972
_cell_angle_gamma    67.9967

_symmetry_Int_Tables_number  82
_chemical_formula_structural  SiO2
_chemical_formula_sum  Si4O8
_cell_volume  192.52316468563944
_cell_formula_units_Z  4
loop_
  _symmetry_equiv_pos_site_id
 _symmetry_equiv_pos_as_xyz
 1  'x, y, z'
loop_
 _atom_site_type_symbol
 _atom_site_label
 _atom_site_symmetry_multiplicity
 _atom_site_fract_x
 _atom_site_fract_y
 _atom_site_fract_z
 _atom_site_fract_occupancy
 O  O1  1  0.87260  0.54432  0.05962  1
 O  O2  1  0.58309  0.94039  0.54432  1
 O  O3  1  0.06778  0.05962  0.45569  1
 O  O4  1  0.08443  0.78626  0.19877  1
 O  O5  1  0.06946  0.21374  0.80122  1
 O  O6  1  0.71680  0.19877  0.21374  1
 O  O7  1  0.47653  0.45568  0.94039  1
 O  O8  1  0.12930  0.80123  0.78626  1
 Si  Si1  1  0.78428  0.35339  0.00370  1
 Si  Si2  1  0.21203  0.00370  0.64661  1
 Si  Si3  1  0.86234  0.99630  0.35339  1
 Si  Si4  1  0.14137  0.64661  0.99630  1
