CIF file written using JARVIS-Tools package.
data_HoUTe4
_symmetry_space_group_name_H-M  'Imm2'
_cell_length_a       7.97084
_cell_length_b       7.97084
_cell_length_c       7.97084
_cell_angle_alpha    149.567
_cell_angle_beta     134.49
_cell_angle_gamma    55.7357

_symmetry_Int_Tables_number  44
_chemical_formula_structural  HoUTe4
_chemical_formula_sum  HoUTe4
_cell_volume  181.79723477949958
_cell_formula_units_Z  1
loop_
  _symmetry_equiv_pos_site_id
 _symmetry_equiv_pos_as_xyz
 1  'x, y, z'
loop_
 _atom_site_type_symbol
 _atom_site_label
 _atom_site_symmetry_multiplicity
 _atom_site_fract_x
 _atom_site_fract_y
 _atom_site_fract_z
 _atom_site_fract_occupancy
 Ho  Ho1  1  0.13833  0.13833  0.00000  1
 Te  Te1  1  0.70448  0.20448  0.50000  1
 Te  Te2  1  0.29592  0.79592  0.50000  1
 Te  Te3  1  0.75006  0.49873  0.25132  1
 Te  Te4  1  0.24741  0.49873  0.74868  1
 U  U1  1  0.86381  0.86381  -0.00000  1
