CIF file written using JARVIS-Tools package.
data_Sr2PtAu
_symmetry_space_group_name_H-M  'Amm2'
_cell_length_a       6.06997
_cell_length_b       6.06997
_cell_length_c       4.62968
_cell_angle_alpha    90
_cell_angle_beta     90
_cell_angle_gamma    139.365

_symmetry_Int_Tables_number  38
_chemical_formula_structural  Sr2PtAu
_chemical_formula_sum  Sr2PtAu
_cell_volume  111.08761366261608
_cell_formula_units_Z  1
loop_
  _symmetry_equiv_pos_site_id
 _symmetry_equiv_pos_as_xyz
 1  'x, y, z'
loop_
 _atom_site_type_symbol
 _atom_site_label
 _atom_site_symmetry_multiplicity
 _atom_site_fract_x
 _atom_site_fract_y
 _atom_site_fract_z
 _atom_site_fract_occupancy
 Au  Au1  1  0.57879  0.42121  0.00000  1
 Pt  Pt1  1  0.42008  0.57992  0.50000  1
 Sr  Sr1  1  0.13933  0.86067  0.50000  1
 Sr  Sr2  1  0.86179  0.13821  0.00000  1
