CIF file written using JARVIS-Tools package.
data_Na2FeO2
_symmetry_space_group_name_H-M  'Cmc2_1'
_cell_length_a       2.81801
_cell_length_b       5.32503
_cell_length_c       8.47807
_cell_angle_alpha    90
_cell_angle_beta     90
_cell_angle_gamma    105.343

_symmetry_Int_Tables_number  36
_chemical_formula_structural  Na2FeO2
_chemical_formula_sum  Na4Fe2O4
_cell_volume  122.68732128246575
_cell_formula_units_Z  2
loop_
  _symmetry_equiv_pos_site_id
 _symmetry_equiv_pos_as_xyz
 1  'x, y, z'
loop_
 _atom_site_type_symbol
 _atom_site_label
 _atom_site_symmetry_multiplicity
 _atom_site_fract_x
 _atom_site_fract_y
 _atom_site_fract_z
 _atom_site_fract_occupancy
 Fe  Fe1  1  0.12159  0.24318  0.00399  1
 Fe  Fe2  1  0.87841  0.75682  0.50399  1
 Na  Na1  1  0.14773  0.29547  0.67079  1
 Na  Na2  1  0.39361  0.78723  0.84446  1
 Na  Na3  1  0.85227  0.70453  0.17079  1
 Na  Na4  1  0.60639  0.21277  0.34446  1
 O  O1  1  0.27981  0.55962  0.40842  1
 O  O2  1  0.48231  0.96462  0.58723  1
 O  O3  1  0.72019  0.44038  0.90842  1
 O  O4  1  0.51769  0.03538  0.08723  1
