CIF file written using JARVIS-Tools package.
data_BaY2O4
_symmetry_space_group_name_H-M  'Pnma'
_cell_length_a       3.47335
_cell_length_b       10.4549
_cell_length_c       12.1713
_cell_angle_alpha    90
_cell_angle_beta     90
_cell_angle_gamma    90

_symmetry_Int_Tables_number  62
_chemical_formula_structural  BaY2O4
_chemical_formula_sum  Ba4Y8O6
_cell_volume  441.9824424322478
_cell_formula_units_Z  4
loop_
  _symmetry_equiv_pos_site_id
 _symmetry_equiv_pos_as_xyz
 1  'x, y, z'
loop_
 _atom_site_type_symbol
 _atom_site_label
 _atom_site_symmetry_multiplicity
 _atom_site_fract_x
 _atom_site_fract_y
 _atom_site_fract_z
 _atom_site_fract_occupancy
 Ba  Ba1  1  0.25000  0.25293  0.14946  1
 Ba  Ba2  1  0.75000  0.74707  0.85054  1
 Ba  Ba3  1  0.25000  0.75293  0.35054  1
 Ba  Ba4  1  0.75000  0.24707  0.64946  1
 O  O1  1  0.75000  0.79014  0.15936  1
 O  O2  1  0.75000  0.07019  0.07437  1
 O  O3  1  0.75000  0.29014  0.34064  1
 O  O4  1  0.25000  0.70986  0.65936  1
 O  O5  1  0.75000  0.88406  0.48245  1
 O  O6  1  0.25000  0.11594  0.51755  1
 O  O7  1  0.25000  0.20986  0.84064  1
 O  O8  1  0.25000  0.61594  0.98245  1
 O  O9  1  0.25000  0.51811  0.21728  1
 O  O10  1  0.75000  0.98189  0.71728  1
 O  O11  1  0.25000  0.01811  0.28272  1
 O  O12  1  0.25000  0.42981  0.57437  1
 O  O13  1  0.75000  0.38406  0.01755  1
 O  O14  1  0.75000  0.48189  0.78272  1
 O  O15  1  0.75000  0.57019  0.42563  1
 O  O16  1  0.25000  0.92981  0.92563  1
 Y  Y1  1  0.75000  0.57414  0.61076  1
 Y  Y2  1  0.25000  0.92586  0.11076  1
 Y  Y3  1  0.75000  0.07414  0.88924  1
 Y  Y4  1  0.25000  0.42586  0.38924  1
 Y  Y5  1  0.25000  0.42242  0.89096  1
 Y  Y6  1  0.75000  0.57758  0.10904  1
 Y  Y7  1  0.75000  0.07758  0.39096  1
 Y  Y8  1  0.25000  0.92242  0.60904  1
