CIF file written using JARVIS-Tools package.
data_Nd3B2N4
_symmetry_space_group_name_H-M  'Immm'
_cell_length_a       3.55046
_cell_length_b       6.31187
_cell_length_c       6.52454
_cell_angle_alpha    118.927
_cell_angle_beta     105.788
_cell_angle_gamma    90

_symmetry_Int_Tables_number  71
_chemical_formula_structural  Nd3B2N4
_chemical_formula_sum  Nd3B2N4
_cell_volume  121.63150812815958
_cell_formula_units_Z  1
loop_
  _symmetry_equiv_pos_site_id
 _symmetry_equiv_pos_as_xyz
 1  'x, y, z'
loop_
 _atom_site_type_symbol
 _atom_site_label
 _atom_site_symmetry_multiplicity
 _atom_site_fract_x
 _atom_site_fract_y
 _atom_site_fract_z
 _atom_site_fract_occupancy
 B  B1  1  0.50000  0.35753  -0.00000  1
 B  B2  1  0.50000  0.64247  0.00000  1
 N  N1  1  0.61856  0.36294  0.23711  1
 N  N2  1  0.61856  0.87418  0.23711  1
 N  N3  1  0.38144  0.12582  0.76289  1
 N  N4  1  0.38144  0.63706  0.76289  1
 Nd  Nd1  1  0.20277  0.70277  0.40554  1
 Nd  Nd2  1  0.79723  0.29723  0.59446  1
 Nd  Nd3  1  0.00000  0.00000  0.00000  1
