CIF file written using JARVIS-Tools package.
data_AgTe3
_symmetry_space_group_name_H-M  'Im-3m'
_cell_length_a       5.32459
_cell_length_b       5.32459
_cell_length_c       5.3246
_cell_angle_alpha    109.471
_cell_angle_beta     109.47
_cell_angle_gamma    109.471

_symmetry_Int_Tables_number  229
_chemical_formula_structural  AgTe3
_chemical_formula_sum  AgTe3
_cell_volume  116.21119394192631
_cell_formula_units_Z  1
loop_
  _symmetry_equiv_pos_site_id
 _symmetry_equiv_pos_as_xyz
 1  'x, y, z'
loop_
 _atom_site_type_symbol
 _atom_site_label
 _atom_site_symmetry_multiplicity
 _atom_site_fract_x
 _atom_site_fract_y
 _atom_site_fract_z
 _atom_site_fract_occupancy
 Ag  Ag1  1  0.00607  0.00607  0.00607  1
 Te  Te1  1  0.50596  0.00591  0.50596  1
 Te  Te2  1  0.50596  0.50596  0.00591  1
 Te  Te3  1  0.00591  0.50596  0.50596  1
