CIF file written using JARVIS-Tools package.
data_H4C9SO2
_symmetry_space_group_name_H-M  'P1'
_cell_length_a       4.28181
_cell_length_b       5.87029
_cell_length_c       7.54385
_cell_angle_alpha    88.9918
_cell_angle_beta     103.535
_cell_angle_gamma    107.531

_symmetry_Int_Tables_number  1
_chemical_formula_structural  H4C9SO2
_chemical_formula_sum  H4C9SO2
_cell_volume  175.50287157681984
_cell_formula_units_Z  1
loop_
  _symmetry_equiv_pos_site_id
 _symmetry_equiv_pos_as_xyz
 1  'x, y, z'
loop_
 _atom_site_type_symbol
 _atom_site_label
 _atom_site_symmetry_multiplicity
 _atom_site_fract_x
 _atom_site_fract_y
 _atom_site_fract_z
 _atom_site_fract_occupancy
 C  C1  1  0.57882  0.48540  0.93889  1
 C  C2  1  0.65384  0.55635  0.26924  1
 C  C3  1  0.09299  0.27144  0.66967  1
 C  C4  1  0.87545  0.28791  0.50381  1
 C  C5  1  0.33714  0.47788  0.76114  1
 C  C6  1  0.88702  0.51359  0.43506  1
 C  C7  1  0.36327  0.70153  0.68544  1
 C  C8  1  0.13509  0.71977  0.52668  1
 C  C9  1  0.47334  0.37876  0.10753  1
 H  H1  1  0.55641  0.85982  0.75759  1
 H  H2  1  0.69415  0.12636  0.43009  1
 H  H3  1  0.07757  0.09821  0.72683  1
 H  H4  1  0.14695  0.89182  0.46796  1
 O  O1  1  0.59436  0.75018  0.25045  1
 O  O2  1  0.88129  0.59630  0.96057  1
 S  S1  1  0.19668  0.12248  0.11636  1
