CIF file written using JARVIS-Tools package.
data_V2ZnO6
_symmetry_space_group_name_H-M  'C2/m'
_cell_length_a       4.99208
_cell_length_b       4.99208
_cell_length_c       6.61446
_cell_angle_alpha    69.4942
_cell_angle_beta     69.4942
_cell_angle_gamma    41.2213

_symmetry_Int_Tables_number  12
_chemical_formula_structural  V2ZnO6
_chemical_formula_sum  V2ZnO6
_cell_volume  100.72874234234908
_cell_formula_units_Z  1
loop_
  _symmetry_equiv_pos_site_id
 _symmetry_equiv_pos_as_xyz
 1  'x, y, z'
loop_
 _atom_site_type_symbol
 _atom_site_label
 _atom_site_symmetry_multiplicity
 _atom_site_fract_x
 _atom_site_fract_y
 _atom_site_fract_z
 _atom_site_fract_occupancy
 O  O1  1  0.28635  0.33244  0.56316  1
 O  O2  1  0.31929  0.36554  0.10945  1
 O  O3  1  0.66756  0.71365  0.43684  1
 O  O4  1  0.63446  0.68071  0.89055  1
 O  O5  1  0.94782  0.99394  0.71902  1
 O  O6  1  0.00606  0.05218  0.28098  1
 V  V1  1  0.16571  0.21178  0.34746  1
 V  V2  1  0.78822  0.83429  0.65254  1
 Zn  Zn1  1  0.97652  0.02348  0.00000  1
