CIF file written using JARVIS-Tools package.
data_ScNi3
_symmetry_space_group_name_H-M  'P6_3/mmc'
_cell_length_a       5.28478
_cell_length_b       5.28479
_cell_length_c       4.19894
_cell_angle_alpha    90
_cell_angle_beta     90
_cell_angle_gamma    120

_symmetry_Int_Tables_number  194
_chemical_formula_structural  ScNi3
_chemical_formula_sum  Sc2Ni6
_cell_volume  101.56057918091733
_cell_formula_units_Z  2
loop_
  _symmetry_equiv_pos_site_id
 _symmetry_equiv_pos_as_xyz
 1  'x, y, z'
loop_
 _atom_site_type_symbol
 _atom_site_label
 _atom_site_symmetry_multiplicity
 _atom_site_fract_x
 _atom_site_fract_y
 _atom_site_fract_z
 _atom_site_fract_occupancy
 Ni  Ni1  1  0.15723  0.31445  0.25000  1
 Ni  Ni2  1  0.68555  0.84277  0.25000  1
 Ni  Ni3  1  0.15723  0.84277  0.25000  1
 Ni  Ni4  1  0.84277  0.68555  0.75000  1
 Ni  Ni5  1  0.31445  0.15723  0.75000  1
 Ni  Ni6  1  0.84277  0.15723  0.75000  1
 Sc  Sc1  1  0.33333  0.66667  0.75000  1
 Sc  Sc2  1  0.66667  0.33333  0.25000  1
