CIF file written using JARVIS-Tools package.
data_CaAg2Ge2
_symmetry_space_group_name_H-M  'I4/mmm'
_cell_length_a       4.35683
_cell_length_b       4.35683
_cell_length_c       6.27876
_cell_angle_alpha    110.301
_cell_angle_beta     110.301
_cell_angle_gamma    90

_symmetry_Int_Tables_number  139
_chemical_formula_structural  CaAg2Ge2
_chemical_formula_sum  CaAg2Ge2
_cell_volume  103.85040153665574
_cell_formula_units_Z  1
loop_
  _symmetry_equiv_pos_site_id
 _symmetry_equiv_pos_as_xyz
 1  'x, y, z'
loop_
 _atom_site_type_symbol
 _atom_site_label
 _atom_site_symmetry_multiplicity
 _atom_site_fract_x
 _atom_site_fract_y
 _atom_site_fract_z
 _atom_site_fract_occupancy
 Ag  Ag1  1  0.75000  0.25000  0.50000  1
 Ag  Ag2  1  0.25000  0.75000  0.50000  1
 Ca  Ca1  1  0.00000  0.00000  0.00000  1
 Ge  Ge1  1  0.38919  0.38919  0.77838  1
 Ge  Ge2  1  0.61081  0.61081  0.22162  1
