CIF file written using JARVIS-Tools package.
data_Hf2Cu
_symmetry_space_group_name_H-M  'I4/mmm'
_cell_length_a       3.16747
_cell_length_b       3.16748
_cell_length_c       5.98607
_cell_angle_alpha    105.341
_cell_angle_beta     105.341
_cell_angle_gamma    90

_symmetry_Int_Tables_number  139
_chemical_formula_structural  Hf2Cu
_chemical_formula_sum  Hf2Cu
_cell_volume  55.69525072194499
_cell_formula_units_Z  1
loop_
  _symmetry_equiv_pos_site_id
 _symmetry_equiv_pos_as_xyz
 1  'x, y, z'
loop_
 _atom_site_type_symbol
 _atom_site_label
 _atom_site_symmetry_multiplicity
 _atom_site_fract_x
 _atom_site_fract_y
 _atom_site_fract_z
 _atom_site_fract_occupancy
 Cu  Cu1  1  0.00000  0.00000  0.00000  1
 Hf  Hf1  1  0.34336  0.34336  0.68673  1
 Hf  Hf2  1  0.65664  0.65664  0.31327  1
