CIF file written using JARVIS-Tools package.
data_KErO2
_symmetry_space_group_name_H-M  'R-3m'
_cell_length_a       6.49212
_cell_length_b       6.49212
_cell_length_c       6.49213
_cell_angle_alpha    30.5784
_cell_angle_beta     30.5783
_cell_angle_gamma    30.5783

_symmetry_Int_Tables_number  166
_chemical_formula_structural  KErO2
_chemical_formula_sum  KErO2
_cell_volume  62.7789255354841
_cell_formula_units_Z  1
loop_
  _symmetry_equiv_pos_site_id
 _symmetry_equiv_pos_as_xyz
 1  'x, y, z'
loop_
 _atom_site_type_symbol
 _atom_site_label
 _atom_site_symmetry_multiplicity
 _atom_site_fract_x
 _atom_site_fract_y
 _atom_site_fract_z
 _atom_site_fract_occupancy
 Er  Er1  1  0.50000  0.50000  0.50000  1
 K  K1  1  0.00000  0.00000  0.00000  1
 O  O1  1  0.77139  0.77139  0.77139  1
 O  O2  1  0.22861  0.22861  0.22861  1
