CIF file written using JARVIS-Tools package.
data_CdH18C11O4
_symmetry_space_group_name_H-M  'P1'
_cell_length_a       3.82453
_cell_length_b       4.37971
_cell_length_c       16.2337
_cell_angle_alpha    101.442
_cell_angle_beta     90.3231
_cell_angle_gamma    101.288

_symmetry_Int_Tables_number  1
_chemical_formula_structural  CdH18C11O4
_chemical_formula_sum  CdH8CO4
_cell_volume  261.08135928493317
_cell_formula_units_Z  1
loop_
  _symmetry_equiv_pos_site_id
 _symmetry_equiv_pos_as_xyz
 1  'x, y, z'
loop_
 _atom_site_type_symbol
 _atom_site_label
 _atom_site_symmetry_multiplicity
 _atom_site_fract_x
 _atom_site_fract_y
 _atom_site_fract_z
 _atom_site_fract_occupancy
 C  C1  1  0.23625  0.24258  0.64381  1
 C  C2  1  0.60432  0.01548  0.26375  1
 C  C3  1  0.71856  0.92480  0.34319  1
 C  C4  1  0.99055  0.09250  0.49187  1
 C  C5  1  0.14769  0.36244  0.56544  1
 C  C6  1  0.90099  0.20281  0.41200  1
 C  C7  1  0.38287  0.50509  0.71995  1
 C  C8  1  0.46588  0.37234  0.79647  1
 C  C9  1  0.61264  0.62242  0.87517  1
 C  C10  1  0.67095  0.46199  0.94794  1
 C  C11  1  0.83394  0.66739  0.03068  1
 Cd  Cd1  1  0.24925  0.30196  0.15119  1
 H  H1  1  0.72743  0.37827  0.42723  1
 H  H2  1  0.48048  0.78695  0.36653  1
 H  H3  1  0.99334  0.09037  0.66141  1
 H  H4  1  0.89555  0.75557  0.32386  1
 H  H5  1  0.39126  0.50831  0.54611  1
 H  H6  1  0.22023  0.21775  0.81201  1
 H  H7  1  0.65710  0.21334  0.77941  1
 H  H8  1  0.42028  0.31153  0.96151  1
 H  H9  1  0.85088  0.29296  0.92977  1
 H  H10  1  0.86546  0.77149  0.86189  1
 H  H11  1  0.74595  0.95034  0.51192  1
 H  H12  1  0.95834  0.52393  0.58100  1
 H  H13  1  0.42970  0.08490  0.62834  1
 H  H14  1  0.18932  0.66206  0.73623  1
 H  H15  1  0.62690  0.65798  0.70315  1
 H  H16  1  0.42543  0.78355  0.89325  1
 H  H17  1  0.14591  0.32915  0.38811  1
 H  H18  1  0.17676  0.92761  0.47742  1
 O  O1  1  0.33404  0.84498  0.21933  1
 O  O2  1  0.76760  0.27224  0.24319  1
 O  O3  1  0.03638  0.93568  0.03147  1
 O  O4  1  0.77458  0.54824  0.09662  1
