CIF file written using JARVIS-Tools package.
data_UGa3Ni
_symmetry_space_group_name_H-M  'I-4m2'
_cell_length_a       4.05521
_cell_length_b       4.05521
_cell_length_c       5.9778
_cell_angle_alpha    109.828
_cell_angle_beta     109.828
_cell_angle_gamma    89.9999

_symmetry_Int_Tables_number  119
_chemical_formula_structural  UGa3Ni
_chemical_formula_sum  UGa3Ni
_cell_volume  86.2553084811836
_cell_formula_units_Z  1
loop_
  _symmetry_equiv_pos_site_id
 _symmetry_equiv_pos_as_xyz
 1  'x, y, z'
loop_
 _atom_site_type_symbol
 _atom_site_label
 _atom_site_symmetry_multiplicity
 _atom_site_fract_x
 _atom_site_fract_y
 _atom_site_fract_z
 _atom_site_fract_occupancy
 Ga  Ga1  1  0.61608  0.61608  0.23215  1
 Ga  Ga2  1  0.75000  0.25000  0.50000  1
 Ga  Ga3  1  0.38392  0.38392  0.76785  1
 Ni  Ni1  1  0.25000  0.75000  0.50000  1
 U  U1  1  0.00000  0.00000  0.00000  1
