CIF file written using JARVIS-Tools package.
data_Na2Sn2O3
_symmetry_space_group_name_H-M  'I2_13'
_cell_length_a       6.72282
_cell_length_b       6.72282
_cell_length_c       6.72282
_cell_angle_alpha    109.471
_cell_angle_beta     109.471
_cell_angle_gamma    109.471

_symmetry_Int_Tables_number  199
_chemical_formula_structural  Na2Sn2O3
_chemical_formula_sum  Na4Sn4O6
_cell_volume  233.90073606063802
_cell_formula_units_Z  2
loop_
  _symmetry_equiv_pos_site_id
 _symmetry_equiv_pos_as_xyz
 1  'x, y, z'
loop_
 _atom_site_type_symbol
 _atom_site_label
 _atom_site_symmetry_multiplicity
 _atom_site_fract_x
 _atom_site_fract_y
 _atom_site_fract_z
 _atom_site_fract_occupancy
 Na  Na1  1  0.50000  -0.00000  0.43858  1
 Na  Na2  1  0.06142  0.06142  0.06142  1
 Na  Na3  1  0.43858  0.50000  0.00000  1
 Na  Na4  1  0.00000  0.43858  0.50000  1
 O  O1  1  0.54951  0.29951  0.25000  1
 O  O2  1  0.95049  0.20049  0.75000  1
 O  O3  1  0.75000  0.95049  0.20049  1
 O  O4  1  0.29951  0.25000  0.54951  1
 O  O5  1  0.25000  0.54951  0.29951  1
 O  O6  1  0.20049  0.75000  0.95049  1
 Sn  Sn1  1  0.96301  0.50000  -0.00000  1
 Sn  Sn2  1  0.50000  0.00000  0.96301  1
 Sn  Sn3  1  0.53699  0.53699  0.53699  1
 Sn  Sn4  1  -0.00000  0.96301  0.50000  1
