CIF file written using JARVIS-Tools package.
data_H8C13S3
_symmetry_space_group_name_H-M  'P1'
_cell_length_a       3.82154
_cell_length_b       5.45998
_cell_length_c       12.9031
_cell_angle_alpha    89.7997
_cell_angle_beta     89.5409
_cell_angle_gamma    81.6273

_symmetry_Int_Tables_number  1
_chemical_formula_structural  H8C13S3
_chemical_formula_sum  H8C3S3
_cell_volume  266.35084022676824
_cell_formula_units_Z  1
loop_
  _symmetry_equiv_pos_site_id
 _symmetry_equiv_pos_as_xyz
 1  'x, y, z'
loop_
 _atom_site_type_symbol
 _atom_site_label
 _atom_site_symmetry_multiplicity
 _atom_site_fract_x
 _atom_site_fract_y
 _atom_site_fract_z
 _atom_site_fract_occupancy
 C  C1  1  0.21598  0.48795  0.75364  1
 C  C2  1  0.11187  0.50118  0.94688  1
 C  C3  1  0.29758  0.28021  0.91312  1
 C  C4  1  0.35341  0.27135  0.29196  1
 C  C5  1  0.35776  0.27274  0.80414  1
 C  C6  1  0.04641  0.77551  0.60242  1
 C  C7  1  0.04569  0.77531  0.49350  1
 C  C8  1  0.29351  0.27895  0.18324  1
 C  C9  1  0.94552  0.59064  0.04842  1
 C  C10  1  0.20181  0.55349  0.64550  1
 C  C11  1  0.20045  0.55307  0.45037  1
 C  C12  1  0.21338  0.48710  0.34241  1
 C  C13  1  0.10985  0.50051  0.14960  1
 H  H1  1  0.91639  0.79514  0.04832  1
 H  H2  1  0.67101  0.54866  0.04883  1
 H  H3  1  0.93093  0.93342  0.44721  1
 H  H4  1  0.49243  0.11050  0.33181  1
 H  H5  1  0.38677  0.12428  0.96377  1
 H  H6  1  0.93255  0.93386  0.64878  1
 H  H7  1  0.49795  0.11223  0.76416  1
 H  H8  1  0.38135  0.12267  0.13268  1
 S  S1  1  0.01167  0.70050  0.25310  1
 S  S2  1  0.01237  0.70082  0.84321  1
 S  S3  1  0.35639  0.34438  0.54788  1
