CIF file written using JARVIS-Tools package.
data_KIO2F2
_symmetry_space_group_name_H-M  'Pca2_1'
_cell_length_a       5.70555
_cell_length_b       8.63919
_cell_length_c       8.3699
_cell_angle_alpha    90
_cell_angle_beta     90
_cell_angle_gamma    90

_symmetry_Int_Tables_number  29
_chemical_formula_structural  KIO2F2
_chemical_formula_sum  K4I4O8F8
_cell_volume  412.563285741785
_cell_formula_units_Z  4
loop_
  _symmetry_equiv_pos_site_id
 _symmetry_equiv_pos_as_xyz
 1  'x, y, z'
loop_
 _atom_site_type_symbol
 _atom_site_label
 _atom_site_symmetry_multiplicity
 _atom_site_fract_x
 _atom_site_fract_y
 _atom_site_fract_z
 _atom_site_fract_occupancy
 F  F1  1  0.32365  0.09429  0.91779  1
 F  F2  1  0.30620  0.93416  0.59305  1
 F  F3  1  0.32365  0.59429  0.58221  1
 F  F4  1  0.67635  0.09429  0.41779  1
 F  F5  1  0.69380  0.43416  0.40695  1
 F  F6  1  0.69380  0.93416  0.09305  1
 F  F7  1  0.67635  0.59429  0.08221  1
 F  F8  1  0.30620  0.43416  0.90695  1
 I  I1  1  0.00869  0.02079  0.01416  1
 I  I2  1  0.99131  0.52079  0.98584  1
 I  I3  1  0.00869  0.52079  0.48584  1
 I  I4  1  0.99131  0.02079  0.51416  1
 K  K1  1  0.47036  0.26502  0.19152  1
 K  K2  1  0.52964  0.76502  0.80848  1
 K  K3  1  0.52964  0.26502  0.69152  1
 K  K4  1  0.47036  0.76502  0.30848  1
 O  O1  1  0.14927  0.50770  0.29215  1
 O  O2  1  0.14927  0.00770  0.20785  1
 O  O3  1  0.10914  0.71464  0.97537  1
 O  O4  1  0.85073  0.00770  0.70785  1
 O  O5  1  0.85073  0.50770  0.79215  1
 O  O6  1  -0.10914  0.21464  0.02463  1
 O  O7  1  0.10914  0.21464  0.52463  1
 O  O8  1  -0.10914  0.71464  0.47537  1
