CIF file written using JARVIS-Tools package.
data_LiFeF4
_symmetry_space_group_name_H-M  'Cmmm'
_cell_length_a       4.62918
_cell_length_b       4.62918
_cell_length_c       3.06684
_cell_angle_alpha    90
_cell_angle_beta     90
_cell_angle_gamma    92.2154

_symmetry_Int_Tables_number  65
_chemical_formula_structural  LiFeF4
_chemical_formula_sum  LiFeF4
_cell_volume  65.6712753644007
_cell_formula_units_Z  1
loop_
  _symmetry_equiv_pos_site_id
 _symmetry_equiv_pos_as_xyz
 1  'x, y, z'
loop_
 _atom_site_type_symbol
 _atom_site_label
 _atom_site_symmetry_multiplicity
 _atom_site_fract_x
 _atom_site_fract_y
 _atom_site_fract_z
 _atom_site_fract_occupancy
 F  F1  1  0.79389  0.79389  0.00000  1
 F  F2  1  0.69438  0.30562  0.50000  1
 F  F3  1  0.20611  0.20611  0.00000  1
 F  F4  1  0.30562  0.69438  0.50000  1
 Fe  Fe1  1  0.50000  0.50000  0.00000  1
 Li  Li1  1  0.00000  0.00000  0.50000  1
