CIF file written using JARVIS-Tools package.
data_HoAlNi4
_symmetry_space_group_name_H-M  'Cmmm'
_cell_length_a       4.85396
_cell_length_b       4.85396
_cell_length_c       4.0058
_cell_angle_alpha    90
_cell_angle_beta     90
_cell_angle_gamma    118.168

_symmetry_Int_Tables_number  65
_chemical_formula_structural  HoAlNi4
_chemical_formula_sum  HoAlNi4
_cell_volume  83.20262041111714
_cell_formula_units_Z  1
loop_
  _symmetry_equiv_pos_site_id
 _symmetry_equiv_pos_as_xyz
 1  'x, y, z'
loop_
 _atom_site_type_symbol
 _atom_site_label
 _atom_site_symmetry_multiplicity
 _atom_site_fract_x
 _atom_site_fract_y
 _atom_site_fract_z
 _atom_site_fract_occupancy
 Al  Al1  1  0.50000  0.50000  0.50000  1
 Ho  Ho1  1  0.00000  0.00000  0.00000  1
 Ni  Ni1  1  0.66754  0.33246  0.00000  1
 Ni  Ni2  1  0.33246  0.66754  0.00000  1
 Ni  Ni3  1  0.50000  0.00000  0.50000  1
 Ni  Ni4  1  -0.00000  0.50000  0.50000  1
