CIF file written using JARVIS-Tools package.
data_FeRe3
_symmetry_space_group_name_H-M  'P6_3/mmc'
_cell_length_a       5.43303
_cell_length_b       5.43304
_cell_length_c       4.36066
_cell_angle_alpha    90
_cell_angle_beta     90
_cell_angle_gamma    120

_symmetry_Int_Tables_number  194
_chemical_formula_structural  FeRe3
_chemical_formula_sum  Fe2Re6
_cell_volume  111.47236643507331
_cell_formula_units_Z  2
loop_
  _symmetry_equiv_pos_site_id
 _symmetry_equiv_pos_as_xyz
 1  'x, y, z'
loop_
 _atom_site_type_symbol
 _atom_site_label
 _atom_site_symmetry_multiplicity
 _atom_site_fract_x
 _atom_site_fract_y
 _atom_site_fract_z
 _atom_site_fract_occupancy
 Fe  Fe1  1  0.33333  0.66667  0.75000  1
 Fe  Fe2  1  0.66667  0.33333  0.25000  1
 Re  Re1  1  0.16815  0.33629  0.25000  1
 Re  Re2  1  0.66371  0.83185  0.25000  1
 Re  Re3  1  0.16815  0.83185  0.25000  1
 Re  Re4  1  0.83185  0.66371  0.75000  1
 Re  Re5  1  0.33629  0.16815  0.75000  1
 Re  Re6  1  0.83185  0.16815  0.75000  1
