CIF file written using JARVIS-Tools package.
data_Al4SiPd
_symmetry_space_group_name_H-M  'R-3m'
_cell_length_a       7.26645
_cell_length_b       7.26645
_cell_length_c       7.26644
_cell_angle_alpha    34.0672
_cell_angle_beta     34.0672
_cell_angle_gamma    34.0672

_symmetry_Int_Tables_number  166
_chemical_formula_structural  Al4SiPd
_chemical_formula_sum  Al4SiPd
_cell_volume  107.32656947403895
_cell_formula_units_Z  1
loop_
  _symmetry_equiv_pos_site_id
 _symmetry_equiv_pos_as_xyz
 1  'x, y, z'
loop_
 _atom_site_type_symbol
 _atom_site_label
 _atom_site_symmetry_multiplicity
 _atom_site_fract_x
 _atom_site_fract_y
 _atom_site_fract_z
 _atom_site_fract_occupancy
 Al  Al1  1  0.63075  0.63075  0.63075  1
 Al  Al2  1  0.12106  0.12106  0.12106  1
 Al  Al3  1  0.87894  0.87894  0.87894  1
 Al  Al4  1  0.36925  0.36925  0.36925  1
 Pd  Pd1  1  0.00000  0.00000  0.00000  1
 Si  Si1  1  0.50000  0.50000  0.50000  1
