CIF file written using JARVIS-Tools package.
data_TaVO4
_symmetry_space_group_name_H-M  'I4_1md'
_cell_length_a       5.60049
_cell_length_b       5.60049
_cell_length_c       5.60049
_cell_angle_alpha    73.0876
_cell_angle_beta     106.912
_cell_angle_gamma    65.2802

_symmetry_Int_Tables_number  109
_chemical_formula_structural  TaVO4
_chemical_formula_sum  Ta2V2O8
_cell_volume  134.36563574979337
_cell_formula_units_Z  2
loop_
  _symmetry_equiv_pos_site_id
 _symmetry_equiv_pos_as_xyz
 1  'x, y, z'
loop_
 _atom_site_type_symbol
 _atom_site_label
 _atom_site_symmetry_multiplicity
 _atom_site_fract_x
 _atom_site_fract_y
 _atom_site_fract_z
 _atom_site_fract_occupancy
 O  O1  1  0.54217  0.25488  0.79705  1
 O  O2  1  0.05419  0.74769  0.80187  1
 O  O3  1  0.99512  0.30193  0.70295  1
 O  O4  1  0.50231  0.79956  0.69813  1
 O  O5  1  0.99512  0.70783  0.29705  1
 O  O6  1  0.50231  0.19581  0.30187  1
 O  O7  1  0.94807  0.25488  0.20295  1
 O  O8  1  0.45044  0.74769  0.19813  1
 Ta  Ta1  1  0.75934  0.74066  0.50000  1
 Ta  Ta2  1  0.50934  0.49066  0.00000  1
 V  V1  1  0.24579  0.25421  0.50000  1
 V  V2  1  0.99579  0.00421  0.00000  1
