CIF file written using JARVIS-Tools package.
data_NaYSiO4
_symmetry_space_group_name_H-M  'Pnma'
_cell_length_a       5.16296
_cell_length_b       6.43861
_cell_length_c       11.2148
_cell_angle_alpha    90
_cell_angle_beta     90
_cell_angle_gamma    90

_symmetry_Int_Tables_number  62
_chemical_formula_structural  NaYSiO4
_chemical_formula_sum  Na4Y4Si4O6
_cell_volume  372.8056596015041
_cell_formula_units_Z  4
loop_
  _symmetry_equiv_pos_site_id
 _symmetry_equiv_pos_as_xyz
 1  'x, y, z'
loop_
 _atom_site_type_symbol
 _atom_site_label
 _atom_site_symmetry_multiplicity
 _atom_site_fract_x
 _atom_site_fract_y
 _atom_site_fract_z
 _atom_site_fract_occupancy
 Na  Na1  1  0.50000  0.75186  -0.00000  1
 Na  Na2  1  0.50000  0.25186  0.00000  1
 Na  Na3  1  -0.00000  0.25186  0.50000  1
 Na  Na4  1  0.00000  0.75186  0.50000  1
 O  O1  1  0.74860  0.50186  0.88843  1
 O  O2  1  0.29672  0.70075  0.32942  1
 O  O3  1  0.75140  0.50186  0.38843  1
 O  O4  1  0.24860  0.00186  0.61157  1
 O  O5  1  0.82980  0.00186  0.96113  1
 O  O6  1  0.17020  0.50186  0.03887  1
 O  O7  1  0.25140  0.00186  0.11157  1
 O  O8  1  0.32980  0.50186  0.53887  1
 O  O9  1  0.70328  0.80296  0.67058  1
 O  O10  1  0.29672  0.30296  0.32942  1
 O  O11  1  0.79672  0.80296  0.17058  1
 O  O12  1  0.20328  0.70075  0.82942  1
 O  O13  1  0.67020  0.00186  0.46113  1
 O  O14  1  0.79672  0.20075  0.17058  1
 O  O15  1  0.20328  0.30296  0.82942  1
 O  O16  1  0.70328  0.20075  0.67058  1
 Si  Si1  1  0.56242  0.00186  0.59864  1
 Si  Si2  1  0.93758  0.00186  0.09864  1
 Si  Si3  1  0.43758  0.50186  0.40136  1
 Si  Si4  1  0.06242  0.50186  0.90136  1
 Y  Y1  1  0.00099  0.00186  0.77993  1
 Y  Y2  1  -0.00099  0.50186  0.22007  1
 Y  Y3  1  0.49901  0.00186  0.27993  1
 Y  Y4  1  0.50099  0.50186  0.72007  1
