CIF file written using JARVIS-Tools package.
data_Sc2V2O7
_symmetry_space_group_name_H-M  'C2/m'
_cell_length_a       5.47312
_cell_length_b       5.47312
_cell_length_c       5.12622
_cell_angle_alpha    84.2659
_cell_angle_beta     95.7341
_cell_angle_gamma    70.2689

_symmetry_Int_Tables_number  12
_chemical_formula_structural  Sc2V2O7
_chemical_formula_sum  Sc2V2O7
_cell_volume  142.34552977827272
_cell_formula_units_Z  1
loop_
  _symmetry_equiv_pos_site_id
 _symmetry_equiv_pos_as_xyz
 1  'x, y, z'
loop_
 _atom_site_type_symbol
 _atom_site_label
 _atom_site_symmetry_multiplicity
 _atom_site_fract_x
 _atom_site_fract_y
 _atom_site_fract_z
 _atom_site_fract_occupancy
 O  O1  1  0.05627  0.60194  0.70264  1
 O  O2  1  0.39806  0.94373  0.70264  1
 O  O3  1  0.42788  0.57212  0.23059  1
 O  O4  1  0.57212  0.42788  0.76941  1
 O  O5  1  0.00000  0.00000  0.00000  1
 O  O6  1  0.60194  0.05627  0.29736  1
 O  O7  1  0.94373  0.39806  0.29736  1
 Sc  Sc1  1  0.31332  0.31332  0.50000  1
 Sc  Sc2  1  0.68668  0.68668  0.50000  1
 V  V1  1  0.25310  0.74690  0.89639  1
 V  V2  1  0.74690  0.25310  0.10361  1
