CIF file written using JARVIS-Tools package.
data_NdO2
_symmetry_space_group_name_H-M  'C2/m'
_cell_length_a       3.93497
_cell_length_b       3.93498
_cell_length_c       6.53289
_cell_angle_alpha    83.3129
_cell_angle_beta     83.3129
_cell_angle_gamma    61.8025

_symmetry_Int_Tables_number  12
_chemical_formula_structural  NdO2
_chemical_formula_sum  Nd2O4
_cell_volume  88.32586125827866
_cell_formula_units_Z  2
loop_
  _symmetry_equiv_pos_site_id
 _symmetry_equiv_pos_as_xyz
 1  'x, y, z'
loop_
 _atom_site_type_symbol
 _atom_site_label
 _atom_site_symmetry_multiplicity
 _atom_site_fract_x
 _atom_site_fract_y
 _atom_site_fract_z
 _atom_site_fract_occupancy
 Nd  Nd1  1  0.80246  0.80246  0.23117  1
 Nd  Nd2  1  0.19754  0.19754  0.76883  1
 O  O1  1  0.84776  0.84776  0.85816  1
 O  O2  1  0.15224  0.15224  0.14184  1
 O  O3  1  0.57891  0.57891  0.57187  1
 O  O4  1  0.42109  0.42109  0.42813  1
