CIF file written using JARVIS-Tools package.
data_H14C9O3
_symmetry_space_group_name_H-M  'P-1'
_cell_length_a       5.12938
_cell_length_b       6.72835
_cell_length_c       12.126
_cell_angle_alpha    93.6207
_cell_angle_beta     92.7313
_cell_angle_gamma    94.237

_symmetry_Int_Tables_number  2
_chemical_formula_structural  H14C9O3
_chemical_formula_sum  H28C8O6
_cell_volume  415.9432266447707
_cell_formula_units_Z  2
loop_
  _symmetry_equiv_pos_site_id
 _symmetry_equiv_pos_as_xyz
 1  'x, y, z'
loop_
 _atom_site_type_symbol
 _atom_site_label
 _atom_site_symmetry_multiplicity
 _atom_site_fract_x
 _atom_site_fract_y
 _atom_site_fract_z
 _atom_site_fract_occupancy
 C  C1  1  0.05713  0.45394  0.64959  1
 C  C2  1  0.90429  0.34970  0.12258  1
 C  C3  1  0.73508  0.91256  0.10008  1
 C  C4  1  0.94287  0.54606  0.35041  1
 C  C5  1  0.26492  0.08744  0.89992  1
 C  C6  1  0.37346  0.94123  0.81510  1
 C  C7  1  0.54298  0.94822  0.28703  1
 C  C8  1  0.09571  0.65030  0.87742  1
 C  C9  1  0.64705  0.26339  0.41074  1
 C  C10  1  0.54670  0.91047  0.62385  1
 C  C11  1  0.35295  0.73661  0.58926  1
 C  C12  1  0.73158  0.38083  0.31112  1
 C  C13  1  0.26842  0.61917  0.68888  1
 C  C14  1  0.82985  0.23423  0.22071  1
 C  C15  1  0.17015  0.76577  0.77929  1
 C  C16  1  0.45702  0.05178  0.71297  1
 C  C17  1  0.45330  0.08953  0.37615  1
 C  C18  1  0.62654  0.05877  0.18490  1
 H  H1  1  -0.00168  0.64084  0.28355  1
 H  H2  1  0.00168  0.35916  0.71645  1
 H  H3  1  0.87568  0.64319  0.41782  1
 H  H4  1  0.00762  0.17412  0.25527  1
 H  H5  1  0.08212  0.14293  0.86646  1
 H  H6  1  0.12432  0.35681  0.58218  1
 H  H7  1  0.40515  0.21651  0.92198  1
 H  H8  1  0.11984  0.48011  0.38136  1
 H  H9  1  0.88016  0.51989  0.61864  1
 H  H10  1  0.54611  0.87848  0.85279  1
 H  H11  1  0.38871  0.82880  0.26367  1
 H  H12  1  0.61129  0.17120  0.73633  1
 H  H13  1  0.71494  0.88094  0.32252  1
 H  H14  1  0.28506  0.11906  0.67748  1
 H  H15  1  0.82133  0.20316  0.44887  1
 H  H16  1  0.91788  0.85707  0.13354  1
 H  H17  1  0.56271  0.36128  0.47323  1
 H  H18  1  0.17867  0.79684  0.55113  1
 H  H19  1  0.55964  0.44755  0.27485  1
 H  H20  1  0.44036  0.55245  0.72515  1
 H  H21  1  0.45389  0.12152  0.14721  1
 H  H22  1  0.99238  0.82588  0.74473  1
 H  H23  1  0.19801  0.47717  0.05118  1
 H  H24  1  0.80199  0.52283  0.94882  1
 H  H25  1  0.77790  0.98435  0.02342  1
 H  H26  1  0.22210  0.01565  0.97658  1
 H  H27  1  0.59485  0.78349  0.07802  1
 H  H28  1  0.43729  0.63872  0.52677  1
 O  O1  1  0.73903  0.39737  0.05268  1
 O  O2  1  0.84074  0.60125  0.88086  1
 O  O3  1  0.76263  0.93353  0.58370  1
 O  O4  1  0.23737  0.06647  0.41630  1
 O  O5  1  0.26097  0.60263  0.94732  1
 O  O6  1  0.15926  0.39875  0.11914  1
