CIF file written using JARVIS-Tools package.
data_Li5FeS4
_symmetry_space_group_name_H-M  'Immm'
_cell_length_a       7.67726
_cell_length_b       7.67725
_cell_length_c       7.67726
_cell_angle_alpha    152.248
_cell_angle_beta     128.378
_cell_angle_gamma    59.6146

_symmetry_Int_Tables_number  71
_chemical_formula_structural  Li5FeS4
_chemical_formula_sum  Li5FeS4
_cell_volume  163.99479760380422
_cell_formula_units_Z  1
loop_
  _symmetry_equiv_pos_site_id
 _symmetry_equiv_pos_as_xyz
 1  'x, y, z'
loop_
 _atom_site_type_symbol
 _atom_site_label
 _atom_site_symmetry_multiplicity
 _atom_site_fract_x
 _atom_site_fract_y
 _atom_site_fract_z
 _atom_site_fract_occupancy
 Fe  Fe1  1  0.00000  0.50000  0.50000  1
 Li  Li1  1  0.39463  0.17719  0.21745  1
 Li  Li2  1  0.95974  0.17719  0.78255  1
 Li  Li3  1  0.04026  0.82281  0.21745  1
 Li  Li4  1  0.60537  0.82281  0.78255  1
 Li  Li5  1  0.50000  0.50000  0.00000  1
 S  S1  1  0.75654  0.00000  0.75654  1
 S  S2  1  0.20475  0.70475  0.50000  1
 S  S3  1  0.79525  0.29525  0.50000  1
 S  S4  1  0.24346  -0.00000  0.24346  1
