CIF file written using JARVIS-Tools package.
data_HfH6C5O4
_symmetry_space_group_name_H-M  'P1'
_cell_length_a       4.59918
_cell_length_b       4.05175
_cell_length_c       8.37362
_cell_angle_alpha    75.0031
_cell_angle_beta     84.8776
_cell_angle_gamma    57.3663

_symmetry_Int_Tables_number  1
_chemical_formula_structural  HfH6C5O4
_chemical_formula_sum  HfH6C5O4
_cell_volume  126.68844223368475
_cell_formula_units_Z  1
loop_
  _symmetry_equiv_pos_site_id
 _symmetry_equiv_pos_as_xyz
 1  'x, y, z'
loop_
 _atom_site_type_symbol
 _atom_site_label
 _atom_site_symmetry_multiplicity
 _atom_site_fract_x
 _atom_site_fract_y
 _atom_site_fract_z
 _atom_site_fract_occupancy
 C  C1  1  0.67235  0.78539  0.47919  1
 C  C2  1  0.77952  0.51347  0.65606  1
 C  C3  1  0.65802  0.24499  0.05983  1
 C  C4  1  0.51205  0.43240  0.74345  1
 C  C5  1  0.63233  0.11348  0.91174  1
 H  H1  1  0.44443  0.02188  0.93947  1
 H  H2  1  0.88738  0.84696  0.90544  1
 H  H3  1  0.85950  0.64475  0.72758  1
 H  H4  1  0.01753  0.21958  0.65146  1
 H  H5  1  0.42440  0.32921  0.66064  1
 H  H6  1  0.28515  0.71543  0.76158  1
 Hf  Hf1  1  0.14387  0.18461  0.33368  1
 O  O1  1  -0.00526  0.75757  0.41745  1
 O  O2  1  0.61859  0.59188  0.36971  1
 O  O3  1  0.93463  0.22003  0.09209  1
 O  O4  1  0.39881  0.37245  0.15128  1
