CIF file written using JARVIS-Tools package.
data_Sc2Sb
_symmetry_space_group_name_H-M  'P4/nmm'
_cell_length_a       4.2067
_cell_length_b       4.2067
_cell_length_c       7.82925
_cell_angle_alpha    90
_cell_angle_beta     90
_cell_angle_gamma    90

_symmetry_Int_Tables_number  129
_chemical_formula_structural  Sc2Sb
_chemical_formula_sum  Sc4Sb2
_cell_volume  138.5491730023298
_cell_formula_units_Z  2
loop_
  _symmetry_equiv_pos_site_id
 _symmetry_equiv_pos_as_xyz
 1  'x, y, z'
loop_
 _atom_site_type_symbol
 _atom_site_label
 _atom_site_symmetry_multiplicity
 _atom_site_fract_x
 _atom_site_fract_y
 _atom_site_fract_z
 _atom_site_fract_occupancy
 Sb  Sb1  1  0.00000  0.50000  0.71889  1
 Sb  Sb2  1  0.50000  0.00000  0.28111  1
 Sc  Sc1  1  0.50000  0.50000  0.00000  1
 Sc  Sc2  1  0.00000  0.00000  0.00000  1
 Sc  Sc3  1  0.00000  0.50000  0.34319  1
 Sc  Sc4  1  0.50000  0.00000  0.65681  1
