CIF file written using JARVIS-Tools package.
data_Ce2CuN2O2
_symmetry_space_group_name_H-M  'I4/mmm'
_cell_length_a       6.57913
_cell_length_b       6.57912
_cell_length_c       6.57913
_cell_angle_alpha    145.442
_cell_angle_beta     145.442
_cell_angle_gamma    49.6766

_symmetry_Int_Tables_number  139
_chemical_formula_structural  Ce2CuN2O2
_chemical_formula_sum  Ce2CuN2O2
_cell_volume  91.20085919019323
_cell_formula_units_Z  1
loop_
  _symmetry_equiv_pos_site_id
 _symmetry_equiv_pos_as_xyz
 1  'x, y, z'
loop_
 _atom_site_type_symbol
 _atom_site_label
 _atom_site_symmetry_multiplicity
 _atom_site_fract_x
 _atom_site_fract_y
 _atom_site_fract_z
 _atom_site_fract_occupancy
 Ce  Ce1  1  0.64046  0.64046  0.00000  1
 Ce  Ce2  1  0.35954  0.35954  -0.00000  1
 Cu  Cu1  1  0.00000  0.00000  0.00000  1
 N  N1  1  0.00000  0.50000  0.50000  1
 N  N2  1  0.50000  0.00000  0.50000  1
 O  O1  1  0.25000  0.75000  0.50000  1
 O  O2  1  0.75000  0.25000  0.50000  1
