CIF file written using JARVIS-Tools package.
data_VOsCl
_symmetry_space_group_name_H-M  'F-43m'
_cell_length_a       4.14214
_cell_length_b       4.14212
_cell_length_c       4.14214
_cell_angle_alpha    59.9997
_cell_angle_beta     59.9998
_cell_angle_gamma    59.9998

_symmetry_Int_Tables_number  216
_chemical_formula_structural  VOsCl
_chemical_formula_sum  VOsCl
_cell_volume  50.252190587005146
_cell_formula_units_Z  1
loop_
  _symmetry_equiv_pos_site_id
 _symmetry_equiv_pos_as_xyz
 1  'x, y, z'
loop_
 _atom_site_type_symbol
 _atom_site_label
 _atom_site_symmetry_multiplicity
 _atom_site_fract_x
 _atom_site_fract_y
 _atom_site_fract_z
 _atom_site_fract_occupancy
 Cl  Cl1  1  0.00000  1.00000  1.00000  1
 Os  Os1  1  0.50000  0.50000  0.50000  1
 V  V1  1  0.75000  0.75000  0.75000  1
