CIF file written using JARVIS-Tools package.
data_LaClO2
_symmetry_space_group_name_H-M  'P2_1/m'
_cell_length_a       4.45299
_cell_length_b       4.96894
_cell_length_c       6.66225
_cell_angle_alpha    73.5449
_cell_angle_beta     90
_cell_angle_gamma    90

_symmetry_Int_Tables_number  11
_chemical_formula_structural  LaClO2
_chemical_formula_sum  La2Cl2O4
_cell_volume  141.37539718033122
_cell_formula_units_Z  2
loop_
  _symmetry_equiv_pos_site_id
 _symmetry_equiv_pos_as_xyz
 1  'x, y, z'
loop_
 _atom_site_type_symbol
 _atom_site_label
 _atom_site_symmetry_multiplicity
 _atom_site_fract_x
 _atom_site_fract_y
 _atom_site_fract_z
 _atom_site_fract_occupancy
 Cl  Cl1  1  0.25000  0.22148  0.09708  1
 Cl  Cl2  1  0.75000  0.77852  0.90292  1
 La  La1  1  0.25000  0.18266  0.67200  1
 La  La2  1  0.75000  0.81734  0.32800  1
 O  O1  1  0.25000  0.75753  0.53872  1
 O  O2  1  0.75000  0.24247  0.46128  1
 O  O3  1  0.25000  0.60860  0.37139  1
 O  O4  1  0.75000  0.39140  0.62861  1
