CIF file written using JARVIS-Tools package.
data_NaNbO3
_symmetry_space_group_name_H-M  'Cmcm'
_cell_length_a       5.55504
_cell_length_b       5.55504
_cell_length_c       7.92058
_cell_angle_alpha    90
_cell_angle_beta     90
_cell_angle_gamma    90.7271

_symmetry_Int_Tables_number  63
_chemical_formula_structural  NaNbO3
_chemical_formula_sum  Na4Nb4O2
_cell_volume  244.39701120155337
_cell_formula_units_Z  4
loop_
  _symmetry_equiv_pos_site_id
 _symmetry_equiv_pos_as_xyz
 1  'x, y, z'
loop_
 _atom_site_type_symbol
 _atom_site_label
 _atom_site_symmetry_multiplicity
 _atom_site_fract_x
 _atom_site_fract_y
 _atom_site_fract_z
 _atom_site_fract_occupancy
 Na  Na1  1  0.00280  0.99720  0.75000  1
 Na  Na2  1  0.99720  0.00280  0.25000  1
 Na  Na3  1  0.51292  0.48708  0.75000  1
 Na  Na4  1  0.48708  0.51292  0.25000  1
 Nb  Nb1  1  0.50000  0.00000  0.00000  1
 Nb  Nb2  1  0.00000  0.50000  0.00000  1
 Nb  Nb3  1  0.00000  0.50000  0.50000  1
 Nb  Nb4  1  0.50000  0.00000  0.50000  1
 O  O1  1  0.05272  0.53709  0.25000  1
 O  O2  1  0.46291  0.94728  0.25000  1
 O  O3  1  0.53709  0.05272  0.75000  1
 O  O4  1  0.29616  0.70384  0.54357  1
 O  O5  1  0.70384  0.29616  0.04357  1
 O  O6  1  0.79872  0.79872  0.00000  1
 O  O7  1  0.29616  0.70384  0.95643  1
 O  O8  1  0.94728  0.46291  0.75000  1
 O  O9  1  0.20128  0.20128  0.00000  1
 O  O10  1  0.20128  0.20128  0.50000  1
 O  O11  1  0.70384  0.29616  0.45643  1
 O  O12  1  0.79872  0.79872  0.50000  1
