CIF file written using JARVIS-Tools package.
data_Sr2LiN
_symmetry_space_group_name_H-M  'I4mm'
_cell_length_a       7.39273
_cell_length_b       7.39273
_cell_length_c       7.39273
_cell_angle_alpha    149.514
_cell_angle_beta     149.514
_cell_angle_gamma    43.6558

_symmetry_Int_Tables_number  107
_chemical_formula_structural  Sr2LiN
_chemical_formula_sum  Sr2LiN
_cell_volume  103.70492797651579
_cell_formula_units_Z  1
loop_
  _symmetry_equiv_pos_site_id
 _symmetry_equiv_pos_as_xyz
 1  'x, y, z'
loop_
 _atom_site_type_symbol
 _atom_site_label
 _atom_site_symmetry_multiplicity
 _atom_site_fract_x
 _atom_site_fract_y
 _atom_site_fract_z
 _atom_site_fract_occupancy
 Li  Li1  1  0.97985  0.97985  0.00000  1
 N  N1  1  0.83903  0.83903  -0.00000  1
 Sr  Sr1  1  0.66395  0.66395  -0.00000  1
 Sr  Sr2  1  0.35017  0.35017  0.00000  1
