CIF file written using JARVIS-Tools package.
data_Li2VCo3O8
_symmetry_space_group_name_H-M  'R-3m'
_cell_length_a       5.7572
_cell_length_b       5.7572
_cell_length_c       5.62239
_cell_angle_alpha    59.2037
_cell_angle_beta     120.796
_cell_angle_gamma    120

_symmetry_Int_Tables_number  166
_chemical_formula_structural  Li2VCo3O8
_chemical_formula_sum  Li2VCo3O8
_cell_volume  130.16507407886616
_cell_formula_units_Z  1
loop_
  _symmetry_equiv_pos_site_id
 _symmetry_equiv_pos_as_xyz
 1  'x, y, z'
loop_
 _atom_site_type_symbol
 _atom_site_label
 _atom_site_symmetry_multiplicity
 _atom_site_fract_x
 _atom_site_fract_y
 _atom_site_fract_z
 _atom_site_fract_occupancy
 Co  Co1  1  0.50000  0.50000  -0.00000  1
 Co  Co2  1  0.50000  0.00000  -0.00000  1
 Co  Co3  1  0.00000  0.50000  0.00000  1
 Li  Li1  1  0.87713  0.12287  0.63138  1
 Li  Li2  1  0.12287  0.87713  0.36862  1
 O  O1  1  0.73791  0.71577  0.76006  1
 O  O2  1  0.73791  0.26209  0.76006  1
 O  O3  1  0.26394  0.73606  0.79182  1
 O  O4  1  0.28423  0.26209  0.76006  1
 O  O5  1  0.71577  0.73791  0.23994  1
 O  O6  1  0.73606  0.26394  0.20818  1
 O  O7  1  0.26209  0.73791  0.23994  1
 O  O8  1  0.26209  0.28423  0.23994  1
 V  V1  1  0.50000  0.50000  0.50000  1
