CIF file written using JARVIS-Tools package.
data_SnB4O7
_symmetry_space_group_name_H-M  'Pmn2_1'
_cell_length_a       4.25746
_cell_length_b       4.47
_cell_length_c       10.9171
_cell_angle_alpha    90
_cell_angle_beta     90
_cell_angle_gamma    90

_symmetry_Int_Tables_number  31
_chemical_formula_structural  SnB4O7
_chemical_formula_sum  Sn2B8O4
_cell_volume  207.7618398683558
_cell_formula_units_Z  2
loop_
  _symmetry_equiv_pos_site_id
 _symmetry_equiv_pos_as_xyz
 1  'x, y, z'
loop_
 _atom_site_type_symbol
 _atom_site_label
 _atom_site_symmetry_multiplicity
 _atom_site_fract_x
 _atom_site_fract_y
 _atom_site_fract_z
 _atom_site_fract_occupancy
 B  B1  1  0.55623  0.67251  0.12219  1
 B  B2  1  0.02809  0.82362  0.75115  1
 B  B3  1  0.52809  0.17638  0.74885  1
 B  B4  1  0.05623  0.32749  0.37781  1
 B  B5  1  0.05623  0.32749  0.62219  1
 B  B6  1  0.55623  0.67251  0.87781  1
 B  B7  1  0.02809  0.82362  0.24885  1
 B  B8  1  0.52809  0.17638  0.25115  1
 O  O1  1  0.88737  0.72851  0.13751  1
 O  O2  1  0.94786  0.23189  0.50000  1
 O  O3  1  0.38737  0.27149  0.63751  1
 O  O4  1  0.38214  0.87083  0.21937  1
 O  O5  1  0.88214  0.12917  0.28063  1
 O  O6  1  0.88214  0.12917  0.71937  1
 O  O7  1  0.44786  0.76811  0.00000  1
 O  O8  1  0.88737  0.72851  0.86249  1
 O  O9  1  0.97814  0.64080  0.35669  1
 O  O10  1  0.97814  0.64080  0.64331  1
 O  O11  1  0.47814  0.35920  0.85669  1
 O  O12  1  0.38214  0.87083  0.78063  1
 O  O13  1  0.38737  0.27149  0.36249  1
 O  O14  1  0.47814  0.35920  0.14331  1
 Sn  Sn1  1  0.09497  0.17429  0.00000  1
 Sn  Sn2  1  0.59497  0.82571  0.50000  1
