CIF file written using JARVIS-Tools package.
data_Nb3In
_symmetry_space_group_name_H-M  'Cmmm'
_cell_length_a       2.92197
_cell_length_b       2.92197
_cell_length_c       9.40714
_cell_angle_alpha    90
_cell_angle_beta     90
_cell_angle_gamma    107.377

_symmetry_Int_Tables_number  65
_chemical_formula_structural  Nb3In
_chemical_formula_sum  Nb3In
_cell_volume  76.65157072976285
_cell_formula_units_Z  1
loop_
  _symmetry_equiv_pos_site_id
 _symmetry_equiv_pos_as_xyz
 1  'x, y, z'
loop_
 _atom_site_type_symbol
 _atom_site_label
 _atom_site_symmetry_multiplicity
 _atom_site_fract_x
 _atom_site_fract_y
 _atom_site_fract_z
 _atom_site_fract_occupancy
 In  In1  1  0.00000  0.00000  0.00000  1
 Nb  Nb1  1  0.50000  0.50000  0.74107  1
 Nb  Nb2  1  0.00000  0.00000  0.50000  1
 Nb  Nb3  1  0.50000  0.50000  0.25893  1
