CIF file written using JARVIS-Tools package.
data_LaTi2O6
_symmetry_space_group_name_H-M  'I-42m'
_cell_length_a       5.48919
_cell_length_b       5.48919
_cell_length_c       5.48918
_cell_angle_alpha    120.355
_cell_angle_beta     120.355
_cell_angle_gamma    89.386

_symmetry_Int_Tables_number  121
_chemical_formula_structural  LaTi2O6
_chemical_formula_sum  LaTi2O6
_cell_volume  116.31724453534702
_cell_formula_units_Z  1
loop_
  _symmetry_equiv_pos_site_id
 _symmetry_equiv_pos_as_xyz
 1  'x, y, z'
loop_
 _atom_site_type_symbol
 _atom_site_label
 _atom_site_symmetry_multiplicity
 _atom_site_fract_x
 _atom_site_fract_y
 _atom_site_fract_z
 _atom_site_fract_occupancy
 La  La1  1  0.00000  0.00000  0.00000  1
 O  O1  1  0.53989  0.97505  0.00000  1
 O  O2  1  0.46011  0.46011  0.43516  1
 O  O3  1  0.02495  0.02495  0.56484  1
 O  O4  1  0.97505  0.53989  0.00000  1
 O  O5  1  0.50000  0.00000  0.50000  1
 O  O6  1  -0.00000  0.50000  0.50000  1
 Ti  Ti1  1  0.25000  0.75000  0.50000  1
 Ti  Ti2  1  0.75000  0.25000  0.50000  1
