CIF file written using JARVIS-Tools package.
data_TiVO3
_symmetry_space_group_name_H-M  'R3c'
_cell_length_a       4.99883
_cell_length_b       5.52887
_cell_length_c       4.99897
_cell_angle_alpha    116.877
_cell_angle_beta     120
_cell_angle_gamma    63.1226

_symmetry_Int_Tables_number  161
_chemical_formula_structural  TiVO3
_chemical_formula_sum  Ti2V2O6
_cell_volume  102.054086995955
_cell_formula_units_Z  2
loop_
  _symmetry_equiv_pos_site_id
 _symmetry_equiv_pos_as_xyz
 1  'x, y, z'
loop_
 _atom_site_type_symbol
 _atom_site_label
 _atom_site_symmetry_multiplicity
 _atom_site_fract_x
 _atom_site_fract_y
 _atom_site_fract_z
 _atom_site_fract_occupancy
 O  O1  1  0.06548  0.75216  0.25084  1
 O  O2  1  0.74916  0.75215  0.56678  1
 O  O3  1  0.43318  0.75218  0.93455  1
 O  O4  1  0.24917  0.25216  0.43455  1
 O  O5  1  0.56547  0.25216  0.06678  1
 O  O6  1  0.93318  0.25218  0.75082  1
 Ti  Ti1  1  0.84616  0.46158  0.15386  1
 Ti  Ti2  1  0.34616  0.96158  0.65388  1
 V  V1  1  0.65602  0.03193  0.34396  1
 V  V2  1  0.15602  0.53193  0.84398  1
