CIF file written using JARVIS-Tools package.
data_Ca2CeO4
_symmetry_space_group_name_H-M  'Pbam'
_cell_length_a       3.52385
_cell_length_b       5.83138
_cell_length_c       9.94725
_cell_angle_alpha    90
_cell_angle_beta     90
_cell_angle_gamma    90

_symmetry_Int_Tables_number  55
_chemical_formula_structural  Ca2CeO4
_chemical_formula_sum  Ca4Ce2O8
_cell_volume  204.4054319120041
_cell_formula_units_Z  2
loop_
  _symmetry_equiv_pos_site_id
 _symmetry_equiv_pos_as_xyz
 1  'x, y, z'
loop_
 _atom_site_type_symbol
 _atom_site_label
 _atom_site_symmetry_multiplicity
 _atom_site_fract_x
 _atom_site_fract_y
 _atom_site_fract_z
 _atom_site_fract_occupancy
 Ca  Ca1  1  0.50000  0.06017  0.67856  1
 Ca  Ca2  1  0.50000  0.43983  0.17856  1
 Ca  Ca3  1  0.50000  0.56017  0.82144  1
 Ca  Ca4  1  0.50000  0.93983  0.32144  1
 Ce  Ce1  1  0.00000  0.00000  0.00000  1
 Ce  Ce2  1  0.00000  0.50000  0.50000  1
 O  O1  1  0.00000  0.15502  0.20373  1
 O  O2  1  0.50000  0.24128  0.96080  1
 O  O3  1  0.50000  0.25872  0.46080  1
 O  O4  1  0.00000  0.34498  0.70373  1
 O  O5  1  0.00000  0.65502  0.29627  1
 O  O6  1  0.50000  0.74128  0.53920  1
 O  O7  1  0.50000  0.75872  0.03920  1
 O  O8  1  0.00000  0.84498  0.79627  1
