CIF file written using JARVIS-Tools package.
data_TaSeN
_symmetry_space_group_name_H-M  'P4/nmm'
_cell_length_a       3.65222
_cell_length_b       3.65222
_cell_length_c       6.39094
_cell_angle_alpha    90
_cell_angle_beta     90
_cell_angle_gamma    90

_symmetry_Int_Tables_number  129
_chemical_formula_structural  TaSeN
_chemical_formula_sum  Ta2Se2N2
_cell_volume  85.24671877908537
_cell_formula_units_Z  2
loop_
  _symmetry_equiv_pos_site_id
 _symmetry_equiv_pos_as_xyz
 1  'x, y, z'
loop_
 _atom_site_type_symbol
 _atom_site_label
 _atom_site_symmetry_multiplicity
 _atom_site_fract_x
 _atom_site_fract_y
 _atom_site_fract_z
 _atom_site_fract_occupancy
 N  N1  1  0.50000  0.50000  0.00000  1
 N  N2  1  0.00000  0.00000  0.00000  1
 Se  Se1  1  0.50000  0.00000  0.62175  1
 Se  Se2  1  0.00000  0.50000  0.37825  1
 Ta  Ta1  1  0.50000  0.00000  0.17287  1
 Ta  Ta2  1  0.00000  0.50000  0.82713  1
