CIF file written using JARVIS-Tools package.
data_SnPb4S5
_symmetry_space_group_name_H-M  'I4/mmm'
_cell_length_a       15.2119
_cell_length_b       15.2119
_cell_length_c       15.2119
_cell_angle_alpha    164.06
_cell_angle_beta     164.06
_cell_angle_gamma    22.6163

_symmetry_Int_Tables_number  139
_chemical_formula_structural  SnPb4S5
_chemical_formula_sum  SnPb4S5
_cell_volume  265.433794917692
_cell_formula_units_Z  1
loop_
  _symmetry_equiv_pos_site_id
 _symmetry_equiv_pos_as_xyz
 1  'x, y, z'
loop_
 _atom_site_type_symbol
 _atom_site_label
 _atom_site_symmetry_multiplicity
 _atom_site_fract_x
 _atom_site_fract_y
 _atom_site_fract_z
 _atom_site_fract_occupancy
 Pb  Pb1  1  0.40069  0.40069  0.00000  1
 Pb  Pb2  1  0.80032  0.80032  -0.00000  1
 Pb  Pb3  1  0.19968  0.19968  -0.00000  1
 Pb  Pb4  1  0.59931  0.59931  -0.00000  1
 S  S1  1  0.50000  0.50000  0.00000  1
 S  S2  1  0.70032  0.70032  -0.00000  1
 S  S3  1  0.09808  0.09808  -0.00000  1
 S  S4  1  0.90192  0.90192  0.00000  1
 S  S5  1  0.29968  0.29968  0.00000  1
 Sn  Sn1  1  0.00000  0.00000  0.00000  1
