CIF file written using JARVIS-Tools package.
data_HfCrCuS4
_symmetry_space_group_name_H-M  'Cm'
_cell_length_a       6.75039
_cell_length_b       6.7504
_cell_length_c       5.92654
_cell_angle_alpha    64.7835
_cell_angle_beta     64.7835
_cell_angle_gamma    30.1498

_symmetry_Int_Tables_number  8
_chemical_formula_structural  HfCrCuS4
_chemical_formula_sum  HfCrCuS4
_cell_volume  121.72345370296588
_cell_formula_units_Z  1
loop_
  _symmetry_equiv_pos_site_id
 _symmetry_equiv_pos_as_xyz
 1  'x, y, z'
loop_
 _atom_site_type_symbol
 _atom_site_label
 _atom_site_symmetry_multiplicity
 _atom_site_fract_x
 _atom_site_fract_y
 _atom_site_fract_z
 _atom_site_fract_occupancy
 Cr  Cr1  1  0.75646  0.75646  0.26223  1
 Cu  Cu1  1  0.49842  0.49842  0.48060  1
 Hf  Hf1  1  0.24557  0.24557  0.74537  1
 S  S1  1  0.37557  0.37557  0.27783  1
 S  S2  1  0.61961  0.61961  0.70171  1
 S  S3  1  0.87138  0.87138  0.81299  1
 S  S4  1  0.13298  0.13298  0.21928  1
