CIF file written using JARVIS-Tools package.
data_YFe2Bi2Se2O4
_symmetry_space_group_name_H-M  'I4/mmm'
_cell_length_a       3.86029
_cell_length_b       3.86023
_cell_length_c       12.9205
_cell_angle_alpha    98.5909
_cell_angle_beta     98.5913
_cell_angle_gamma    90.0001

_symmetry_Int_Tables_number  139
_chemical_formula_structural  YFe2Bi2Se2O4
_chemical_formula_sum  YFe2Bi2Se2O4
_cell_volume  188.19068615348107
_cell_formula_units_Z  1
loop_
  _symmetry_equiv_pos_site_id
 _symmetry_equiv_pos_as_xyz
 1  'x, y, z'
loop_
 _atom_site_type_symbol
 _atom_site_label
 _atom_site_symmetry_multiplicity
 _atom_site_fract_x
 _atom_site_fract_y
 _atom_site_fract_z
 _atom_site_fract_occupancy
 Bi  Bi1  1  0.39955  0.39955  0.79910  1
 Bi  Bi2  1  0.60044  0.60042  0.20088  1
 Fe  Fe1  1  0.25001  0.75007  0.50002  1
 Fe  Fe2  1  0.75001  0.24998  0.50002  1
 O  O1  1  0.55484  0.05483  0.10968  1
 O  O2  1  0.94515  0.44514  0.89029  1
 O  O3  1  0.05484  0.55482  0.10969  1
 O  O4  1  0.44515  0.94514  0.89030  1
 Se  Se1  1  0.81299  0.81296  0.62597  1
 Se  Se2  1  0.18703  0.18709  0.37406  1
 Y  Y1  1  0.99999  0.99998  0.99999  1
