CIF file written using JARVIS-Tools package.
data_MnBO3
_symmetry_space_group_name_H-M  'R-3c'
_cell_length_a       5.5468
_cell_length_b       5.5468
_cell_length_c       5.5468
_cell_angle_alpha    49.502
_cell_angle_beta     49.502
_cell_angle_gamma    49.502

_symmetry_Int_Tables_number  167
_chemical_formula_structural  MnBO3
_chemical_formula_sum  Mn2B2O6
_cell_volume  90.71257163404427
_cell_formula_units_Z  2
loop_
  _symmetry_equiv_pos_site_id
 _symmetry_equiv_pos_as_xyz
 1  'x, y, z'
loop_
 _atom_site_type_symbol
 _atom_site_label
 _atom_site_symmetry_multiplicity
 _atom_site_fract_x
 _atom_site_fract_y
 _atom_site_fract_z
 _atom_site_fract_occupancy
 B  B1  1  0.25000  0.25000  0.25000  1
 B  B2  1  0.75000  0.75000  0.75000  1
 Mn  Mn1  1  0.00000  0.00000  0.00000  1
 Mn  Mn2  1  0.50000  0.50000  0.50000  1
 O  O1  1  0.25000  0.95152  0.54848  1
 O  O2  1  0.04848  0.45152  0.75000  1
 O  O3  1  0.45152  0.75000  0.04848  1
 O  O4  1  0.54848  0.25000  0.95152  1
 O  O5  1  0.95152  0.54848  0.25000  1
 O  O6  1  0.75000  0.04848  0.45152  1
