CIF file written using JARVIS-Tools package.
data_Ba4Sb2O
_symmetry_space_group_name_H-M  'I4/mmm'
_cell_length_a       5.30237
_cell_length_b       5.30238
_cell_length_c       9.86697
_cell_angle_alpha    105.587
_cell_angle_beta     105.587
_cell_angle_gamma    90

_symmetry_Int_Tables_number  139
_chemical_formula_structural  Ba4Sb2O
_chemical_formula_sum  Ba4Sb2O
_cell_volume  256.603236082838
_cell_formula_units_Z  1
loop_
  _symmetry_equiv_pos_site_id
 _symmetry_equiv_pos_as_xyz
 1  'x, y, z'
loop_
 _atom_site_type_symbol
 _atom_site_label
 _atom_site_symmetry_multiplicity
 _atom_site_fract_x
 _atom_site_fract_y
 _atom_site_fract_z
 _atom_site_fract_occupancy
 Ba  Ba1  1  0.67042  0.67042  0.34085  1
 Ba  Ba2  1  0.32958  0.32958  0.65915  1
 Ba  Ba3  1  0.00000  0.50000  0.00000  1
 Ba  Ba4  1  0.50000  0.00000  -0.00000  1
 O  O1  1  0.50000  0.50000  -0.00000  1
 Sb  Sb1  1  0.86229  0.86229  0.72458  1
 Sb  Sb2  1  0.13771  0.13771  0.27542  1
