CIF file written using JARVIS-Tools package.
data_ZrAl3
_symmetry_space_group_name_H-M  'I4/mmm'
_cell_length_a       4.03017
_cell_length_b       4.03016
_cell_length_c       9.15416
_cell_angle_alpha    102.716
_cell_angle_beta     102.716
_cell_angle_gamma    90

_symmetry_Int_Tables_number  139
_chemical_formula_structural  ZrAl3
_chemical_formula_sum  Zr2Al6
_cell_volume  141.29601533348088
_cell_formula_units_Z  2
loop_
  _symmetry_equiv_pos_site_id
 _symmetry_equiv_pos_as_xyz
 1  'x, y, z'
loop_
 _atom_site_type_symbol
 _atom_site_label
 _atom_site_symmetry_multiplicity
 _atom_site_fract_x
 _atom_site_fract_y
 _atom_site_fract_z
 _atom_site_fract_occupancy
 Al  Al1  1  0.50000  0.00000  -0.00000  1
 Al  Al2  1  0.00000  0.50000  -0.00000  1
 Al  Al3  1  0.75000  0.25000  0.50000  1
 Al  Al4  1  0.25000  0.75000  0.50000  1
 Al  Al5  1  0.37495  0.37495  0.74991  1
 Al  Al6  1  0.62505  0.62505  0.25009  1
 Zr  Zr1  1  0.11862  0.11862  0.23724  1
 Zr  Zr2  1  0.88138  0.88138  0.76276  1
