data_image0
_chemical_formula_structural       B40H64
_chemical_formula_sum              "B40 H64"
_cell_length_a       10.3469
_cell_length_b       5.49489
_cell_length_c       14.4507
_cell_angle_alpha    90
_cell_angle_beta     90
_cell_angle_gamma    90

_space_group_name_H-M_alt    "P 1"
_space_group_IT_number       1

loop_
  _space_group_symop_operation_xyz
  'x, y, z'

loop_
  _atom_site_type_symbol
  _atom_site_label
  _atom_site_symmetry_multiplicity
  _atom_site_fract_x
  _atom_site_fract_y
  _atom_site_fract_z
  _atom_site_occupancy
  B   B1        1.0  0.64700  0.46300  0.60400  1.0000
  B   B2        1.0  0.35300  0.53700  0.10400  1.0000
  B   B3        1.0  0.85300  0.96300  0.10400  1.0000
  B   B4        1.0  0.14700  0.03660  0.60400  1.0000
  B   B5        1.0  0.84000  0.22900  0.84000  1.0000
  B   B6        1.0  0.16000  0.77100  0.34000  1.0000
  B   B7        1.0  0.66000  0.72900  0.34000  1.0000
  B   B8        1.0  0.34000  0.27100  0.84000  1.0000
  B   B9        1.0  0.84900  0.94300  0.78300  1.0000
  B   B10       1.0  0.15100  0.05700  0.28300  1.0000
  B   B11       1.0  0.65100  0.44300  0.28300  1.0000
  B   B12       1.0  0.34900  0.55700  0.78300  1.0000
  B   B13       1.0  0.65300  0.17100  0.56900  1.0000
  B   B14       1.0  0.34700  0.82900  0.06860  1.0000
  B   B15       1.0  0.84700  0.67100  0.06860  1.0000
  B   B16       1.0  0.15300  0.32900  0.56900  1.0000
  B   B17       1.0  0.63300  0.21500  0.68400  1.0000
  B   B18       1.0  0.36700  0.78500  0.18400  1.0000
  B   B19       1.0  0.86700  0.71500  0.18400  1.0000
  B   B20       1.0  0.13300  0.28500  0.68400  1.0000
  B   B21       1.0  0.71400  0.11800  0.77700  1.0000
  B   B22       1.0  0.28600  0.88200  0.27700  1.0000
  B   B23       1.0  0.78600  0.61800  0.27700  1.0000
  B   B24       1.0  0.21400  0.38200  0.77700  1.0000
  B   B25       1.0  0.70300  0.85300  0.83600  1.0000
  B   B26       1.0  0.29700  0.14700  0.33600  1.0000
  B   B27       1.0  0.79700  0.35300  0.33600  1.0000
  B   B28       1.0  0.20300  0.64700  0.83600  1.0000
  B   B29       1.0  0.69300  0.13700  0.89300  1.0000
  B   B30       1.0  0.30700  0.86300  0.39300  1.0000
  B   B31       1.0  0.80700  0.63700  0.39300  1.0000
  B   B32       1.0  0.19300  0.36300  0.89300  1.0000
  B   B33       1.0  0.50800  0.08940  0.61200  1.0000
  B   B34       1.0  0.49200  0.91100  0.11200  1.0000
  B   B35       1.0  0.99200  0.58900  0.11200  1.0000
  B   B36       1.0  0.00850  0.41100  0.61200  1.0000
  B   B37       1.0  0.52400  0.33400  0.53300  1.0000
  B   B38       1.0  0.47600  0.66600  0.03300  1.0000
  B   B39       1.0  0.97600  0.83400  0.03300  1.0000
  B   B40       1.0  0.02430  0.16600  0.53300  1.0000
  H   H1        1.0  0.91500  0.85900  0.72300  1.0000
  H   H2        1.0  0.08540  0.14100  0.22300  1.0000
  H   H3        1.0  0.58500  0.35900  0.22300  1.0000
  H   H4        1.0  0.41500  0.64100  0.72300  1.0000
  H   H5        1.0  0.73200  0.05920  0.52600  1.0000
  H   H6        1.0  0.26800  0.94100  0.02610  1.0000
  H   H7        1.0  0.76800  0.55900  0.02610  1.0000
  H   H8        1.0  0.23200  0.44100  0.52600  1.0000
  H   H9        1.0  0.45100  0.90200  0.61000  1.0000
  H   H10       1.0  0.54900  0.09840  0.11000  1.0000
  H   H11       1.0  0.04870  0.40200  0.11000  1.0000
  H   H12       1.0  0.95100  0.59800  0.61000  1.0000
  H   H13       1.0  0.71900  0.63100  0.59600  1.0000
  H   H14       1.0  0.28100  0.36900  0.09620  1.0000
  H   H15       1.0  0.78100  0.13100  0.09620  1.0000
  H   H16       1.0  0.21900  0.86900  0.59600  1.0000
  H   H17       1.0  0.48300  0.37300  0.45800  1.0000
  H   H18       1.0  0.51700  0.62700  0.95800  1.0000
  H   H19       1.0  0.01670  0.87300  0.95800  1.0000
  H   H20       1.0  0.98300  0.12700  0.45800  1.0000
  H   H21       1.0  0.60900  0.45800  0.69300  1.0000
  H   H22       1.0  0.39100  0.54200  0.19300  1.0000
  H   H23       1.0  0.89100  0.95800  0.19300  1.0000
  H   H24       1.0  0.10900  0.04210  0.69300  1.0000
  H   H25       1.0  0.52800  0.54600  0.57800  1.0000
  H   H26       1.0  0.47200  0.45400  0.07840  1.0000
  H   H27       1.0  0.97200  0.04650  0.07840  1.0000
  H   H28       1.0  0.02840  0.95400  0.57800  1.0000
  H   H29       1.0  0.61400  0.23600  0.94000  1.0000
  H   H30       1.0  0.38600  0.76400  0.44000  1.0000
  H   H31       1.0  0.88600  0.73600  0.44000  1.0000
  H   H32       1.0  0.11400  0.26400  0.94000  1.0000
  H   H33       1.0  0.90000  0.41300  0.83500  1.0000
  H   H34       1.0  0.09990  0.58700  0.33500  1.0000
  H   H35       1.0  0.60000  0.91300  0.33500  1.0000
  H   H36       1.0  0.40000  0.08690  0.83500  1.0000
  H   H37       1.0  0.92800  0.04770  0.84500  1.0000
  H   H38       1.0  0.07220  0.95200  0.34500  1.0000
  H   H39       1.0  0.57200  0.54800  0.34500  1.0000
  H   H40       1.0  0.42800  0.45200  0.84500  1.0000
  H   H41       1.0  0.42400  0.26300  0.58500  1.0000
  H   H42       1.0  0.57600  0.73700  0.08510  1.0000
  H   H43       1.0  0.07630  0.76300  0.08510  1.0000
  H   H44       1.0  0.92400  0.23700  0.58500  1.0000
  H   H45       1.0  0.70600  0.90900  0.92700  1.0000
  H   H46       1.0  0.29400  0.09110  0.42700  1.0000
  H   H47       1.0  0.79400  0.40900  0.42700  1.0000
  H   H48       1.0  0.20600  0.59100  0.92700  1.0000
  H   H49       1.0  0.50400  0.17200  0.69800  1.0000
  H   H50       1.0  0.49600  0.82800  0.19800  1.0000
  H   H51       1.0  0.99600  0.67200  0.19800  1.0000
  H   H52       1.0  0.00448  0.32800  0.69800  1.0000
  H   H53       1.0  0.63300  0.68300  0.82700  1.0000
  H   H54       1.0  0.36700  0.31700  0.32700  1.0000
  H   H55       1.0  0.86700  0.18300  0.32700  1.0000
  H   H56       1.0  0.13300  0.81700  0.82700  1.0000
  H   H57       1.0  0.80900  0.19600  0.92900  1.0000
  H   H58       1.0  0.19100  0.80400  0.42900  1.0000
  H   H59       1.0  0.69100  0.69600  0.42900  1.0000
  H   H60       1.0  0.30900  0.30400  0.92900  1.0000
  H   H61       1.0  0.82400  0.76300  0.84300  1.0000
  H   H62       1.0  0.17600  0.23700  0.34300  1.0000
  H   H63       1.0  0.67600  0.26300  0.34300  1.0000
  H   H64       1.0  0.32400  0.73700  0.84300  1.0000
