CIF file written using JARVIS-Tools package.
data_KSiH3
_symmetry_space_group_name_H-M  'Pnma'
_cell_length_a       5.32281
_cell_length_b       6.80291
_cell_length_c       8.75309
_cell_angle_alpha    90
_cell_angle_beta     90
_cell_angle_gamma    90

_symmetry_Int_Tables_number  62
_chemical_formula_structural  KSiH3
_chemical_formula_sum  K4Si4H2
_cell_volume  316.9548583516112
_cell_formula_units_Z  4
loop_
  _symmetry_equiv_pos_site_id
 _symmetry_equiv_pos_as_xyz
 1  'x, y, z'
loop_
 _atom_site_type_symbol
 _atom_site_label
 _atom_site_symmetry_multiplicity
 _atom_site_fract_x
 _atom_site_fract_y
 _atom_site_fract_z
 _atom_site_fract_occupancy
 H  H1  1  0.25000  0.69678  0.87335  1
 H  H2  1  0.96244  0.30595  0.41955  1
 H  H3  1  0.75000  0.19678  0.62665  1
 H  H4  1  0.03756  0.80595  0.08045  1
 H  H5  1  0.53756  0.19405  0.91955  1
 H  H6  1  0.46244  0.69405  0.58045  1
 H  H7  1  0.53756  0.30595  0.41955  1
 H  H8  1  0.96244  0.19405  0.91955  1
 H  H9  1  0.46244  0.80595  0.08045  1
 H  H10  1  0.25000  0.80322  0.37335  1
 H  H11  1  0.75000  0.30322  0.12665  1
 H  H12  1  0.03756  0.69405  0.58045  1
 K  K1  1  0.25000  0.15364  0.18711  1
 K  K2  1  0.75000  0.84636  0.81289  1
 K  K3  1  0.75000  0.65364  0.31289  1
 K  K4  1  0.25000  0.34636  0.68711  1
 Si  Si1  1  0.25000  0.65301  0.04723  1
 Si  Si2  1  0.75000  0.34699  0.95277  1
 Si  Si3  1  0.75000  0.15301  0.45277  1
 Si  Si4  1  0.25000  0.84699  0.54723  1
