CIF file written using JARVIS-Tools package.
data_Sb2S2O
_symmetry_space_group_name_H-M  'P-1'
_cell_length_a       5.88127
_cell_length_b       8.19579
_cell_length_c       10.7691
_cell_angle_alpha    100.944
_cell_angle_beta     102.903
_cell_angle_gamma    110.428

_symmetry_Int_Tables_number  2
_chemical_formula_structural  Sb2S2O
_chemical_formula_sum  Sb8S8O4
_cell_volume  453.32675154711137
_cell_formula_units_Z  4
loop_
  _symmetry_equiv_pos_site_id
 _symmetry_equiv_pos_as_xyz
 1  'x, y, z'
loop_
 _atom_site_type_symbol
 _atom_site_label
 _atom_site_symmetry_multiplicity
 _atom_site_fract_x
 _atom_site_fract_y
 _atom_site_fract_z
 _atom_site_fract_occupancy
 O  O1  1  0.03885  0.90042  0.56921  1
 O  O2  1  0.92645  0.58679  0.42871  1
 O  O3  1  0.96115  0.09958  0.43079  1
 O  O4  1  0.07355  0.41321  0.57129  1
 S  S1  1  0.22532  0.04531  0.91251  1
 S  S2  1  0.77483  0.47571  0.08713  1
 S  S3  1  0.77468  0.95469  0.08749  1
 S  S4  1  0.22517  0.52429  0.91287  1
 S  S5  1  0.50202  0.80871  0.70172  1
 S  S6  1  0.49798  0.19129  0.29828  1
 S  S7  1  0.51738  0.29469  0.69509  1
 S  S8  1  0.48262  0.70531  0.30491  1
 Sb  Sb1  1  0.03615  0.16797  0.63355  1
 Sb  Sb2  1  0.96385  0.83203  0.36645  1
 Sb  Sb3  1  0.01745  0.66156  0.63221  1
 Sb  Sb4  1  0.98255  0.33844  0.36779  1
 Sb  Sb5  1  0.63913  0.12972  0.86563  1
 Sb  Sb6  1  0.36087  0.87028  0.13437  1
 Sb  Sb7  1  0.66384  0.64416  0.89943  1
 Sb  Sb8  1  0.33616  0.35584  0.10057  1
