CIF file written using JARVIS-Tools package.
data_Sr2RuN2
_symmetry_space_group_name_H-M  'I4/mmm'
_cell_length_a       3.89195
_cell_length_b       3.89249
_cell_length_c       6.8884
_cell_angle_alpha    106.412
_cell_angle_beta     106.409
_cell_angle_gamma    90

_symmetry_Int_Tables_number  139
_chemical_formula_structural  Sr2RuN2
_chemical_formula_sum  Sr2RuN2
_cell_volume  95.66334335075227
_cell_formula_units_Z  1
loop_
  _symmetry_equiv_pos_site_id
 _symmetry_equiv_pos_as_xyz
 1  'x, y, z'
loop_
 _atom_site_type_symbol
 _atom_site_label
 _atom_site_symmetry_multiplicity
 _atom_site_fract_x
 _atom_site_fract_y
 _atom_site_fract_z
 _atom_site_fract_occupancy
 N  N1  1  0.64494  0.64494  0.78988  1
 N  N2  1  0.35506  0.35506  0.21012  1
 Ru  Ru1  1  0.50000  0.50000  0.50000  1
 Sr  Sr1  1  0.14267  0.14267  0.78535  1
 Sr  Sr2  1  0.85733  0.85733  0.21465  1
