CIF file written using JARVIS-Tools package.
data_Ti2FeNiSb2
_symmetry_space_group_name_H-M  'R3m'
_cell_length_a       7.19621
_cell_length_b       7.19621
_cell_length_c       7.1962
_cell_angle_alpha    33.9347
_cell_angle_beta     33.9346
_cell_angle_gamma    33.9347

_symmetry_Int_Tables_number  160
_chemical_formula_structural  Ti2FeNiSb2
_chemical_formula_sum  Ti2FeNiSb2
_cell_volume  103.50918374622317
_cell_formula_units_Z  1
loop_
  _symmetry_equiv_pos_site_id
 _symmetry_equiv_pos_as_xyz
 1  'x, y, z'
loop_
 _atom_site_type_symbol
 _atom_site_label
 _atom_site_symmetry_multiplicity
 _atom_site_fract_x
 _atom_site_fract_y
 _atom_site_fract_z
 _atom_site_fract_occupancy
 Fe  Fe1  1  0.99710  0.99710  0.99710  1
 Ni  Ni1  1  0.50109  0.50109  0.50109  1
 Sb  Sb1  1  0.12363  0.12363  0.12363  1
 Sb  Sb2  1  0.62742  0.62742  0.62742  1
 Ti  Ti1  1  0.37189  0.37189  0.37189  1
 Ti  Ti2  1  0.87886  0.87886  0.87886  1
