CIF file written using JARVIS-Tools package.
data_NbPd4
_symmetry_space_group_name_H-M  'R-3m'
_cell_length_a       11.5681
_cell_length_b       11.5681
_cell_length_c       11.5681
_cell_angle_alpha    14.0236
_cell_angle_beta     14.0236
_cell_angle_gamma    14.0236

_symmetry_Int_Tables_number  166
_chemical_formula_structural  NbPd4
_chemical_formula_sum  NbPd4
_cell_volume  79.11683505471473
_cell_formula_units_Z  1
loop_
  _symmetry_equiv_pos_site_id
 _symmetry_equiv_pos_as_xyz
 1  'x, y, z'
loop_
 _atom_site_type_symbol
 _atom_site_label
 _atom_site_symmetry_multiplicity
 _atom_site_fract_x
 _atom_site_fract_y
 _atom_site_fract_z
 _atom_site_fract_occupancy
 Nb  Nb1  1  0.00000  0.00000  0.00000  1
 Pd  Pd1  1  0.60045  0.60045  0.60045  1
 Pd  Pd2  1  0.19987  0.19987  0.19987  1
 Pd  Pd3  1  0.80013  0.80013  0.80013  1
 Pd  Pd4  1  0.39955  0.39955  0.39955  1
