CIF file written using JARVIS-Tools package.
data_In4S3N2
_symmetry_space_group_name_H-M  'C2/m'
_cell_length_a       6.61478
_cell_length_b       3.76713
_cell_length_c       9.94696
_cell_angle_alpha    90
_cell_angle_beta     50.7888
_cell_angle_gamma    73.4561

_symmetry_Int_Tables_number  12
_chemical_formula_structural  In4S3N2
_chemical_formula_sum  In4S3N2
_cell_volume  178.6118474490648
_cell_formula_units_Z  1
loop_
  _symmetry_equiv_pos_site_id
 _symmetry_equiv_pos_as_xyz
 1  'x, y, z'
loop_
 _atom_site_type_symbol
 _atom_site_label
 _atom_site_symmetry_multiplicity
 _atom_site_fract_x
 _atom_site_fract_y
 _atom_site_fract_z
 _atom_site_fract_occupancy
 In  In1  1  0.24763  0.87619  0.65316  1
 In  In2  1  0.75237  0.12381  0.34684  1
 In  In3  1  0.57386  0.71307  0.13462  1
 In  In4  1  0.42614  0.28693  0.86538  1
 N  N1  1  0.54672  0.72664  0.36079  1
 N  N2  1  0.45328  0.27336  0.63921  1
 S  S1  1  0.00000  0.00000  0.00000  1
 S  S2  1  0.78010  0.60995  0.79705  1
 S  S3  1  0.21990  0.39005  0.20295  1
