CIF file written using JARVIS-Tools package.
data_H4C8SO2
_symmetry_space_group_name_H-M  'P1'
_cell_length_a       3.73031
_cell_length_b       6.48635
_cell_length_c       7.08103
_cell_angle_alpha    76.3073
_cell_angle_beta     78.553
_cell_angle_gamma    80.4549

_symmetry_Int_Tables_number  1
_chemical_formula_structural  H4C8SO2
_chemical_formula_sum  H4C8SO2
_cell_volume  161.87724351548366
_cell_formula_units_Z  1
loop_
  _symmetry_equiv_pos_site_id
 _symmetry_equiv_pos_as_xyz
 1  'x, y, z'
loop_
 _atom_site_type_symbol
 _atom_site_label
 _atom_site_symmetry_multiplicity
 _atom_site_fract_x
 _atom_site_fract_y
 _atom_site_fract_z
 _atom_site_fract_occupancy
 C  C1  1  0.34118  0.71972  0.42618  1
 C  C2  1  0.55981  0.65695  0.26206  1
 C  C3  1  0.29320  0.57250  0.60737  1
 C  C4  1  0.71775  0.44252  0.27352  1
 C  C5  1  0.46706  0.36130  0.62174  1
 C  C6  1  0.66805  0.29553  0.45472  1
 C  C7  1  0.91304  0.37384  0.09277  1
 C  C8  1  0.04415  0.64287  0.77501  1
 H  H1  1  0.43240  0.24677  0.76146  1
 H  H2  1  0.59777  0.77028  0.12177  1
 H  H3  1  0.21089  0.88399  0.41568  1
 H  H4  1  0.78892  0.12953  0.46529  1
 O  O1  1  0.80155  0.79280  0.76555  1
 O  O2  1  0.11440  0.52744  0.96512  1
 S  S1  1  0.90811  0.13954  0.04697  1
