CIF file written using JARVIS-Tools package.
data_ZrCuF6
_symmetry_space_group_name_H-M  'R-3'
_cell_length_a       5.59914
_cell_length_b       5.59914
_cell_length_c       5.59913
_cell_angle_alpha    54.843
_cell_angle_beta     54.8431
_cell_angle_gamma    54.843

_symmetry_Int_Tables_number  148
_chemical_formula_structural  ZrCuF6
_chemical_formula_sum  ZrCuF6
_cell_volume  109.21928256508613
_cell_formula_units_Z  1
loop_
  _symmetry_equiv_pos_site_id
 _symmetry_equiv_pos_as_xyz
 1  'x, y, z'
loop_
 _atom_site_type_symbol
 _atom_site_label
 _atom_site_symmetry_multiplicity
 _atom_site_fract_x
 _atom_site_fract_y
 _atom_site_fract_z
 _atom_site_fract_occupancy
 Cu  Cu1  1  0.00000  0.00000  0.00000  1
 F  F1  1  0.88681  0.61452  0.24778  1
 F  F2  1  0.75222  0.11319  0.38548  1
 F  F3  1  0.61452  0.24778  0.88681  1
 F  F4  1  0.11319  0.38548  0.75222  1
 F  F5  1  0.38548  0.75222  0.11319  1
 F  F6  1  0.24778  0.88681  0.61452  1
 Zr  Zr1  1  0.50000  0.50000  0.50000  1
