CIF file written using JARVIS-Tools package.
data_Ho3Er3MnBi2
_symmetry_space_group_name_H-M  'P-62m'
_cell_length_a       4.19721
_cell_length_b       8.21733
_cell_length_c       8.21733
_cell_angle_alpha    59.9991
_cell_angle_beta     90
_cell_angle_gamma    90

_symmetry_Int_Tables_number  189
_chemical_formula_structural  Ho3Er3MnBi2
_chemical_formula_sum  Ho3Er3MnBi2
_cell_volume  245.44234717100824
_cell_formula_units_Z  1
loop_
  _symmetry_equiv_pos_site_id
 _symmetry_equiv_pos_as_xyz
 1  'x, y, z'
loop_
 _atom_site_type_symbol
 _atom_site_label
 _atom_site_symmetry_multiplicity
 _atom_site_fract_x
 _atom_site_fract_y
 _atom_site_fract_z
 _atom_site_fract_occupancy
 Bi  Bi1  1  0.00000  0.33333  0.33334  1
 Bi  Bi2  1  0.00000  0.66666  0.66667  1
 Er  Er1  1  0.50000  0.61112  0.38888  1
 Er  Er2  1  0.50000  0.38886  0.00001  1
 Er  Er3  1  0.50000  0.99999  0.61114  1
 Ho  Ho1  1  0.00000  0.23219  0.76781  1
 Ho  Ho2  1  0.00000  0.76779  0.00001  1
 Ho  Ho3  1  0.00000  -0.00001  0.23221  1
 Mn  Mn1  1  0.50000  -0.00000  0.00000  1
