CIF file written using JARVIS-Tools package.
data_V2NiS4
_symmetry_space_group_name_H-M  'C2/m'
_cell_length_a       3.24439
_cell_length_b       5.85044
_cell_length_c       6.3229
_cell_angle_alpha    115.017
_cell_angle_beta     104.866
_cell_angle_gamma    90

_symmetry_Int_Tables_number  12
_chemical_formula_structural  V2NiS4
_chemical_formula_sum  V2NiS4
_cell_volume  104.30630866370808
_cell_formula_units_Z  1
loop_
  _symmetry_equiv_pos_site_id
 _symmetry_equiv_pos_as_xyz
 1  'x, y, z'
loop_
 _atom_site_type_symbol
 _atom_site_label
 _atom_site_symmetry_multiplicity
 _atom_site_fract_x
 _atom_site_fract_y
 _atom_site_fract_z
 _atom_site_fract_occupancy
 Ni  Ni1  1  0.00000  0.00000  0.00000  1
 S  S1  1  0.10782  0.44710  0.21564  1
 S  S2  1  0.36194  0.02071  0.72389  1
 S  S3  1  0.89218  0.55290  0.78436  1
 S  S4  1  0.63806  0.97929  0.27611  1
 V  V1  1  0.74199  0.69173  0.48398  1
 V  V2  1  0.25801  0.30827  0.51602  1
