CIF file written using JARVIS-Tools package.
data_La2CuN2F2
_symmetry_space_group_name_H-M  'I4/mmm'
_cell_length_a       7.07904
_cell_length_b       7.07904
_cell_length_c       7.07905
_cell_angle_alpha    146.954
_cell_angle_beta     146.954
_cell_angle_gamma    47.4313

_symmetry_Int_Tables_number  139
_chemical_formula_structural  La2CuN2F2
_chemical_formula_sum  La2CuN2F2
_cell_volume  105.07927515395924
_cell_formula_units_Z  1
loop_
  _symmetry_equiv_pos_site_id
 _symmetry_equiv_pos_as_xyz
 1  'x, y, z'
loop_
 _atom_site_type_symbol
 _atom_site_label
 _atom_site_symmetry_multiplicity
 _atom_site_fract_x
 _atom_site_fract_y
 _atom_site_fract_z
 _atom_site_fract_occupancy
 Cu  Cu1  1  0.00000  0.00000  0.00000  1
 F  F1  1  0.75000  0.25000  0.50000  1
 F  F2  1  0.25000  0.75000  0.50000  1
 La  La1  1  0.37637  0.37637  -0.00000  1
 La  La2  1  0.62363  0.62363  0.00000  1
 N  N1  1  0.50000  -0.00000  0.50000  1
 N  N2  1  0.00000  0.50000  0.50000  1
