CIF file written using JARVIS-Tools package.
data_U2GaCo2
_symmetry_space_group_name_H-M  'P4/mbm'
_cell_length_a       7.07783
_cell_length_b       7.07783
_cell_length_c       3.39806
_cell_angle_alpha    90
_cell_angle_beta     90
_cell_angle_gamma    90

_symmetry_Int_Tables_number  127
_chemical_formula_structural  U2GaCo2
_chemical_formula_sum  U4Ga2Co4
_cell_volume  170.22784498419975
_cell_formula_units_Z  2
loop_
  _symmetry_equiv_pos_site_id
 _symmetry_equiv_pos_as_xyz
 1  'x, y, z'
loop_
 _atom_site_type_symbol
 _atom_site_label
 _atom_site_symmetry_multiplicity
 _atom_site_fract_x
 _atom_site_fract_y
 _atom_site_fract_z
 _atom_site_fract_occupancy
 Co  Co1  1  0.13488  0.63488  0.00000  1
 Co  Co2  1  0.86512  0.36512  0.00000  1
 Co  Co3  1  0.63488  0.86512  0.00000  1
 Co  Co4  1  0.36512  0.13488  0.00000  1
 Ga  Ga1  1  0.00000  0.00000  0.00000  1
 Ga  Ga2  1  0.50000  0.50000  0.00000  1
 U  U1  1  0.67312  0.17312  0.50000  1
 U  U2  1  0.32688  0.82688  0.50000  1
 U  U3  1  0.17312  0.32688  0.50000  1
 U  U4  1  0.82688  0.67312  0.50000  1
