CIF file written using JARVIS-Tools package.
data_H5C5SNO
_symmetry_space_group_name_H-M  'P1'
_cell_length_a       5.16719
_cell_length_b       6.20703
_cell_length_c       8.57787
_cell_angle_alpha    82.8517
_cell_angle_beta     80.5174
_cell_angle_gamma    74.1516

_symmetry_Int_Tables_number  1
_chemical_formula_structural  H5C5SNO
_chemical_formula_sum  H0C0S2N2O2
_cell_volume  260.12631017277926
_cell_formula_units_Z  2
loop_
  _symmetry_equiv_pos_site_id
 _symmetry_equiv_pos_as_xyz
 1  'x, y, z'
loop_
 _atom_site_type_symbol
 _atom_site_label
 _atom_site_symmetry_multiplicity
 _atom_site_fract_x
 _atom_site_fract_y
 _atom_site_fract_z
 _atom_site_fract_occupancy
 C  C1  1  0.33546  0.55279  0.87022  1
 C  C2  1  0.95889  0.89753  0.52037  1
 C  C3  1  0.17044  0.19478  0.47672  1
 C  C4  1  0.17044  0.69478  0.97672  1
 C  C5  1  0.95159  0.60608  0.06146  1
 C  C6  1  0.95159  0.10608  0.56146  1
 C  C7  1  0.95889  0.39753  0.02037  1
 C  C8  1  0.33545  0.05279  0.37022  1
 C  C9  1  0.60736  0.78290  0.71681  1
 C  C10  1  0.60736  0.28290  0.21681  1
 H  H1  1  0.40746  0.89813  0.70071  1
 H  H2  1  0.71846  0.70067  0.48733  1
 H  H3  1  0.69873  0.33922  0.30650  1
 H  H4  1  0.69873  0.83922  0.80650  1
 H  H5  1  0.79440  0.69938  0.14681  1
 H  H6  1  0.79440  0.19938  0.64681  1
 H  H7  1  0.20032  0.85505  0.99752  1
 H  H8  1  0.20032  0.35505  0.49752  1
 H  H9  1  0.40746  0.39813  0.20071  1
 H  H10  1  0.71846  0.20067  0.98733  1
 N  N1  1  0.79691  0.75027  0.57441  1
 N  N2  1  0.79691  0.25027  0.07441  1
 O  O1  1  0.56408  0.06165  0.26787  1
 O  O2  1  0.56408  0.56165  0.76787  1
 S  S1  1  0.23365  0.80595  0.37312  1
 S  S2  1  0.23365  0.30595  0.87312  1
