CIF file written using JARVIS-Tools package.
data_Tm2Sb2O7
_symmetry_space_group_name_H-M  'Ima2'
_cell_length_a       7.53483
_cell_length_b       7.53483
_cell_length_c       10.6443
_cell_angle_alpha    45.062
_cell_angle_beta     134.938
_cell_angle_gamma    119.598

_symmetry_Int_Tables_number  46
_chemical_formula_structural  Tm2Sb2O7
_chemical_formula_sum  Tm4Sb4O4
_cell_volume  302.79707798311017
_cell_formula_units_Z  2
loop_
  _symmetry_equiv_pos_site_id
 _symmetry_equiv_pos_as_xyz
 1  'x, y, z'
loop_
 _atom_site_type_symbol
 _atom_site_label
 _atom_site_symmetry_multiplicity
 _atom_site_fract_x
 _atom_site_fract_y
 _atom_site_fract_z
 _atom_site_fract_occupancy
 O  O1  1  0.04054  0.42490  0.05782  1
 O  O2  1  0.91333  0.00621  0.08244  1
 O  O3  1  0.91333  0.00621  0.32467  1
 O  O4  1  0.00621  0.91333  0.67533  1
 O  O5  1  0.43586  0.56946  0.04904  1
 O  O6  1  0.42490  0.04054  -0.05782  1
 O  O7  1  0.49627  0.00010  0.36644  1
 O  O8  1  0.49627  0.00010  0.62974  1
 O  O9  1  0.00010  0.49627  0.37026  1
 O  O10  1  0.56946  0.43586  0.68265  1
 O  O11  1  0.00621  0.91333  0.91756  1
 O  O12  1  0.56946  0.43586  0.95096  1
 O  O13  1  0.00010  0.49627  0.63356  1
 O  O14  1  0.43586  0.56946  0.31735  1
 Sb  Sb1  1  0.73590  0.22808  0.00391  1
 Sb  Sb2  1  0.27141  0.27141  0.50000  1
 Sb  Sb3  1  0.22808  0.73590  0.99609  1
 Sb  Sb4  1  0.27141  0.27141  0.00000  1
 Tm  Tm1  1  0.19292  0.78311  0.45490  1
 Tm  Tm2  1  0.74204  0.74204  0.50000  1
 Tm  Tm3  1  0.78311  0.19292  0.54510  1
 Tm  Tm4  1  0.74204  0.74204  0.00000  1
