CIF file written using JARVIS-Tools package.
data_Pb3SeO5
_symmetry_space_group_name_H-M  'Cmc2_1'
_cell_length_a       5.81921
_cell_length_b       7.59358
_cell_length_c       7.59358
_cell_angle_alpha    90.2959
_cell_angle_beta     90
_cell_angle_gamma    90

_symmetry_Int_Tables_number  36
_chemical_formula_structural  Pb3SeO5
_chemical_formula_sum  Pb6Se2O0
_cell_volume  335.5451591878875
_cell_formula_units_Z  2
loop_
  _symmetry_equiv_pos_site_id
 _symmetry_equiv_pos_as_xyz
 1  'x, y, z'
loop_
 _atom_site_type_symbol
 _atom_site_label
 _atom_site_symmetry_multiplicity
 _atom_site_fract_x
 _atom_site_fract_y
 _atom_site_fract_z
 _atom_site_fract_occupancy
 O  O1  1  0.78745  0.44009  0.30339  1
 O  O2  1  0.28745  0.30339  0.44009  1
 O  O3  1  0.45170  0.86894  0.86367  1
 O  O4  1  0.95170  0.86367  0.86894  1
 O  O5  1  0.95170  0.13106  0.13633  1
 O  O6  1  0.22227  0.22084  0.77916  1
 O  O7  1  0.72227  0.77916  0.22084  1
 O  O8  1  0.28745  0.55991  0.69661  1
 O  O9  1  0.78745  0.69661  0.55991  1
 O  O10  1  0.45170  0.13633  0.13106  1
 Pb  Pb1  1  0.68863  0.13236  0.36028  1
 Pb  Pb2  1  0.18863  0.86764  0.63972  1
 Pb  Pb3  1  0.68863  0.63972  0.86764  1
 Pb  Pb4  1  0.18863  0.36028  0.13236  1
 Pb  Pb5  1  0.68744  0.11769  0.88231  1
 Pb  Pb6  1  0.18744  0.88231  0.11769  1
 Se  Se1  1  0.63773  0.62603  0.37397  1
 Se  Se2  1  0.13773  0.37397  0.62603  1
