CIF file written using JARVIS-Tools package.
data_Sr2AlIn3
_symmetry_space_group_name_H-M  'P3m1'
_cell_length_a       4.9864
_cell_length_b       4.9864
_cell_length_c       8.01523
_cell_angle_alpha    90
_cell_angle_beta     90
_cell_angle_gamma    120

_symmetry_Int_Tables_number  156
_chemical_formula_structural  Sr2AlIn3
_chemical_formula_sum  Sr2AlIn3
_cell_volume  172.592106194928
_cell_formula_units_Z  1
loop_
  _symmetry_equiv_pos_site_id
 _symmetry_equiv_pos_as_xyz
 1  'x, y, z'
loop_
 _atom_site_type_symbol
 _atom_site_label
 _atom_site_symmetry_multiplicity
 _atom_site_fract_x
 _atom_site_fract_y
 _atom_site_fract_z
 _atom_site_fract_occupancy
 Al  Al1  1  0.33333  0.66667  0.54704  1
 In  In1  1  0.66667  0.33333  0.46413  1
 In  In2  1  0.66667  0.33333  0.04509  1
 In  In3  1  0.33333  0.66667  0.94624  1
 Sr  Sr1  1  0.00000  0.00000  0.74609  1
 Sr  Sr2  1  0.00000  0.00000  0.25142  1
