CIF file written using JARVIS-Tools package.
data_K2SrCl4
_symmetry_space_group_name_H-M  'R-3m'
_cell_length_a       9.23801
_cell_length_b       9.23801
_cell_length_c       9.238
_cell_angle_alpha    32.8331
_cell_angle_beta     32.8331
_cell_angle_gamma    32.8331

_symmetry_Int_Tables_number  166
_chemical_formula_structural  K2SrCl4
_chemical_formula_sum  K2SrCl4
_cell_volume  206.1934666709645
_cell_formula_units_Z  1
loop_
  _symmetry_equiv_pos_site_id
 _symmetry_equiv_pos_as_xyz
 1  'x, y, z'
loop_
 _atom_site_type_symbol
 _atom_site_label
 _atom_site_symmetry_multiplicity
 _atom_site_fract_x
 _atom_site_fract_y
 _atom_site_fract_z
 _atom_site_fract_occupancy
 Cl  Cl1  1  0.88812  0.88812  0.88812  1
 Cl  Cl2  1  0.11188  0.11188  0.11188  1
 Cl  Cl3  1  0.63712  0.63712  0.63712  1
 Cl  Cl4  1  0.36288  0.36288  0.36288  1
 K  K1  1  0.76952  0.76952  0.76952  1
 K  K2  1  0.23048  0.23048  0.23048  1
 Sr  Sr1  1  0.00000  0.00000  0.00000  1
