CIF file written using JARVIS-Tools package.
data_K2AgAs
_symmetry_space_group_name_H-M  'Cmcm'
_cell_length_a       6.02728
_cell_length_b       6.33781
_cell_length_c       6.33781
_cell_angle_alpha    103.174
_cell_angle_beta     90
_cell_angle_gamma    90

_symmetry_Int_Tables_number  63
_chemical_formula_structural  K2AgAs
_chemical_formula_sum  K4Ag2As2
_cell_volume  235.7318354227474
_cell_formula_units_Z  2
loop_
  _symmetry_equiv_pos_site_id
 _symmetry_equiv_pos_as_xyz
 1  'x, y, z'
loop_
 _atom_site_type_symbol
 _atom_site_label
 _atom_site_symmetry_multiplicity
 _atom_site_fract_x
 _atom_site_fract_y
 _atom_site_fract_z
 _atom_site_fract_occupancy
 Ag  Ag1  1  0.50000  0.50000  0.50000  1
 Ag  Ag2  1  0.00000  0.50000  0.50000  1
 As  As1  1  0.75000  0.76368  0.76368  1
 As  As2  1  0.25000  0.23632  0.23632  1
 K  K1  1  0.24995  0.68369  0.02910  1
 K  K2  1  0.74995  0.31631  0.97090  1
 K  K3  1  0.25005  0.02910  0.68369  1
 K  K4  1  0.75005  0.97090  0.31631  1
