CIF file written using JARVIS-Tools package.
data_Te2Mo
_symmetry_space_group_name_H-M  'P-6m2'
_cell_length_a       3.56996
_cell_length_b       3.56996
_cell_length_c       32.8796
_cell_angle_alpha    90
_cell_angle_beta     90
_cell_angle_gamma    120

_symmetry_Int_Tables_number  187
_chemical_formula_structural  Te2Mo
_chemical_formula_sum  Te6Mo3
_cell_volume  362.8970998662902
_cell_formula_units_Z  3
loop_
  _symmetry_equiv_pos_site_id
 _symmetry_equiv_pos_as_xyz
 1  'x, y, z'
loop_
 _atom_site_type_symbol
 _atom_site_label
 _atom_site_symmetry_multiplicity
 _atom_site_fract_x
 _atom_site_fract_y
 _atom_site_fract_z
 _atom_site_fract_occupancy
 Mo  Mo1  1  0.33333  0.66667  0.11619  1
 Mo  Mo2  1  0.33333  0.66667  0.58096  1
 Mo  Mo3  1  0.66667  0.33333  0.34858  1
 Te  Te1  1  0.33333  0.66667  0.29341  1
 Te  Te2  1  0.66667  0.33333  0.06128  1
 Te  Te3  1  0.66667  0.33333  0.52579  1
 Te  Te4  1  0.66667  0.33333  0.17136  1
 Te  Te5  1  0.66667  0.33333  0.63587  1
 Te  Te6  1  0.33333  0.66667  0.40374  1
