CIF file written using JARVIS-Tools package.
data_Fe3O5F
_symmetry_space_group_name_H-M  'P-1'
_cell_length_a       4.3756
_cell_length_b       5.2523
_cell_length_c       7.20012
_cell_angle_alpha    85.4332
_cell_angle_beta     88.6288
_cell_angle_gamma    88.1941

_symmetry_Int_Tables_number  2
_chemical_formula_structural  Fe3O5F
_chemical_formula_sum  Fe6O0F2
_cell_volume  164.8276568522867
_cell_formula_units_Z  2
loop_
  _symmetry_equiv_pos_site_id
 _symmetry_equiv_pos_as_xyz
 1  'x, y, z'
loop_
 _atom_site_type_symbol
 _atom_site_label
 _atom_site_symmetry_multiplicity
 _atom_site_fract_x
 _atom_site_fract_y
 _atom_site_fract_z
 _atom_site_fract_occupancy
 F  F1  1  0.20735  0.46189  0.73167  1
 F  F2  1  0.79265  0.53811  0.26833  1
 Fe  Fe1  1  0.01389  0.84959  0.16953  1
 Fe  Fe2  1  0.00000  0.50000  0.50000  1
 Fe  Fe3  1  0.52298  0.67895  0.83990  1
 Fe  Fe4  1  0.50000  0.00000  0.50000  1
 Fe  Fe5  1  0.47702  0.32105  0.16010  1
 Fe  Fe6  1  0.98611  0.15041  0.83047  1
 O  O1  1  0.20002  0.12723  0.06274  1
 O  O2  1  0.19380  0.79683  0.39666  1
 O  O3  1  0.29696  0.29723  0.39596  1
 O  O4  1  0.30460  0.95973  0.73158  1
 O  O5  1  0.69540  0.04027  0.26842  1
 O  O6  1  0.70360  0.37004  0.93723  1
 O  O7  1  0.79998  0.87277  0.93726  1
 O  O8  1  0.80620  0.20317  0.60334  1
 O  O9  1  0.70304  0.70277  0.60404  1
 O  O10  1  0.29640  0.62996  0.06277  1
