CIF file written using JARVIS-Tools package.
data_CeCoSi2Rh
_symmetry_space_group_name_H-M  'I-4m2'
_cell_length_a       5.75025
_cell_length_b       5.75025
_cell_length_c       5.75025
_cell_angle_alpha    138.995
_cell_angle_beta     138.995
_cell_angle_gamma    59.3829

_symmetry_Int_Tables_number  119
_chemical_formula_structural  CeCoSi2Rh
_chemical_formula_sum  CeCoSi2Rh
_cell_volume  81.04945654514633
_cell_formula_units_Z  1
loop_
  _symmetry_equiv_pos_site_id
 _symmetry_equiv_pos_as_xyz
 1  'x, y, z'
loop_
 _atom_site_type_symbol
 _atom_site_label
 _atom_site_symmetry_multiplicity
 _atom_site_fract_x
 _atom_site_fract_y
 _atom_site_fract_z
 _atom_site_fract_occupancy
 Ce  Ce1  1  0.00000  0.00000  0.00000  1
 Co  Co1  1  0.25000  0.75000  0.50000  1
 Rh  Rh1  1  0.75000  0.25000  0.50000  1
 Si  Si1  1  0.62550  0.62550  -0.00000  1
 Si  Si2  1  0.37450  0.37450  0.00000  1
