CIF file written using JARVIS-Tools package.
data_SrCdGa
_symmetry_space_group_name_H-M  'C2/m'
_cell_length_a       6.22618
_cell_length_b       6.22619
_cell_length_c       7.884
_cell_angle_alpha    50.5591
_cell_angle_beta     50.559
_cell_angle_gamma    45.7573

_symmetry_Int_Tables_number  12
_chemical_formula_structural  SrCdGa
_chemical_formula_sum  Sr2Cd2Ga2
_cell_volume  158.57496195657507
_cell_formula_units_Z  2
loop_
  _symmetry_equiv_pos_site_id
 _symmetry_equiv_pos_as_xyz
 1  'x, y, z'
loop_
 _atom_site_type_symbol
 _atom_site_label
 _atom_site_symmetry_multiplicity
 _atom_site_fract_x
 _atom_site_fract_y
 _atom_site_fract_z
 _atom_site_fract_occupancy
 Cd  Cd1  1  0.82717  0.82717  0.11373  1
 Cd  Cd2  1  0.17283  0.17283  0.88627  1
 Ga  Ga1  1  0.15246  0.15246  0.30212  1
 Ga  Ga2  1  0.84754  0.84754  0.69788  1
 Sr  Sr1  1  0.54246  0.54246  0.71093  1
 Sr  Sr2  1  0.45754  0.45754  0.28907  1
