CIF file written using JARVIS-Tools package.
data_BiSe
_symmetry_space_group_name_H-M  'Pnnm'
_cell_length_a       7.20438
_cell_length_b       5.85463
_cell_length_c       8.41194
_cell_angle_alpha    45.9003
_cell_angle_beta     90
_cell_angle_gamma    90

_symmetry_Int_Tables_number  58
_chemical_formula_structural  BiSe
_chemical_formula_sum  Bi4Se4
_cell_volume  254.79761538136304
_cell_formula_units_Z  4
loop_
  _symmetry_equiv_pos_site_id
 _symmetry_equiv_pos_as_xyz
 1  'x, y, z'
loop_
 _atom_site_type_symbol
 _atom_site_label
 _atom_site_symmetry_multiplicity
 _atom_site_fract_x
 _atom_site_fract_y
 _atom_site_fract_z
 _atom_site_fract_occupancy
 Bi  Bi1  1  0.81411  0.63336  0.86665  1
 Bi  Bi2  1  0.68589  0.63336  0.36665  1
 Bi  Bi3  1  0.18589  0.36664  0.13335  1
 Bi  Bi4  1  0.31411  0.36664  0.63335  1
 Se  Se1  1  0.84414  0.21597  0.78405  1
 Se  Se2  1  0.65586  0.21597  0.28405  1
 Se  Se3  1  0.15586  0.78403  0.21595  1
 Se  Se4  1  0.34414  0.78403  0.71595  1
