CIF file written using JARVIS-Tools package.
data_TiH24C13O4
_symmetry_space_group_name_H-M  'P1'
_cell_length_a       4.9435
_cell_length_b       7.17929
_cell_length_c       10.972
_cell_angle_alpha    109.139
_cell_angle_beta     98.251
_cell_angle_gamma    93.2286

_symmetry_Int_Tables_number  1
_chemical_formula_structural  TiH24C13O4
_chemical_formula_sum  TiH24C3O4
_cell_volume  361.84075032843714
_cell_formula_units_Z  1
loop_
  _symmetry_equiv_pos_site_id
 _symmetry_equiv_pos_as_xyz
 1  'x, y, z'
loop_
 _atom_site_type_symbol
 _atom_site_label
 _atom_site_symmetry_multiplicity
 _atom_site_fract_x
 _atom_site_fract_y
 _atom_site_fract_z
 _atom_site_fract_occupancy
 C  C1  1  0.67624  0.05214  0.70255  1
 C  C2  1  0.54922  0.68292  0.44053  1
 C  C3  1  0.64385  0.47690  0.42112  1
 C  C4  1  0.80697  0.40787  0.30887  1
 C  C5  1  0.06059  0.13417  0.17395  1
 C  C6  1  0.88603  0.19663  0.28244  1
 C  C7  1  0.90915  0.11872  0.03640  1
 C  C8  1  0.70661  0.05160  0.56388  1
 C  C9  1  0.78700  0.85096  0.48221  1
 C  C10  1  0.58641  0.24310  0.78106  1
 C  C11  1  0.22417  0.60784  0.72060  1
 C  C12  1  0.72614  0.92833  0.97448  1
 C  C13  1  0.34616  0.56944  0.05232  1
 H  H1  1  0.68413  0.41862  0.21991  1
 H  H2  1  0.24105  0.24447  0.19797  1
 H  H3  1  0.46324  0.36791  0.40292  1
 H  H4  1  0.77085  0.47937  0.51303  1
 H  H5  1  0.78909  0.24428  0.04247  1
 H  H6  1  0.06288  0.11947  0.97363  1
 H  H7  1  0.41993  0.68288  0.34973  1
 H  H8  1  0.96254  0.81350  0.54067  1
 H  H9  1  0.31002  0.52759  0.63312  1
 H  H10  1  0.20256  0.76216  0.72761  1
 H  H11  1  0.48806  0.67338  0.13728  1
 H  H12  1  0.13703  0.61361  0.05204  1
 H  H13  1  0.86137  0.86495  0.39531  1
 H  H14  1  0.02371  0.53213  0.71834  1
 H  H15  1  -0.00427  0.51045  0.32987  1
 H  H16  1  0.51191  0.08274  0.51498  1
 H  H17  1  0.87773  0.03449  0.75189  1
 H  H18  1  0.52475  0.93041  0.69629  1
 H  H19  1  0.34665  0.41738  0.05417  1
 H  H20  1  0.00460  0.18732  0.37311  1
 H  H21  1  0.69867  0.09108  0.25807  1
 H  H22  1  0.41502  0.71303  0.51489  1
 H  H23  1  0.86529  0.17202  0.57436  1
 H  H24  1  0.14078  0.99211  0.16786  1
 O  O1  1  0.83113  0.76872  0.91400  1
 O  O2  1  0.33470  0.27313  0.78334  1
 O  O3  1  0.47050  0.90666  0.97985  1
 O  O4  1  0.76758  0.39376  0.84674  1
 Ti  Ti1  1  0.47878  0.58760  0.88388  1
