CIF file written using JARVIS-Tools package.
data_CaFe2BiO6
_symmetry_space_group_name_H-M  'I4mm'
_cell_length_a       5.40419
_cell_length_b       5.40418
_cell_length_c       5.40419
_cell_angle_alpha    120.065
_cell_angle_beta     120.065
_cell_angle_gamma    89.8871

_symmetry_Int_Tables_number  107
_chemical_formula_structural  CaFe2BiO6
_chemical_formula_sum  CaFe2BiO6
_cell_volume  111.49278872207309
_cell_formula_units_Z  1
loop_
  _symmetry_equiv_pos_site_id
 _symmetry_equiv_pos_as_xyz
 1  'x, y, z'
loop_
 _atom_site_type_symbol
 _atom_site_label
 _atom_site_symmetry_multiplicity
 _atom_site_fract_x
 _atom_site_fract_y
 _atom_site_fract_z
 _atom_site_fract_occupancy
 Bi  Bi1  1  0.46182  0.46182  -0.00000  1
 Ca  Ca1  1  0.98575  0.98575  0.00000  1
 Fe  Fe1  1  0.25298  0.75298  0.50000  1
 Fe  Fe2  1  0.75298  0.25298  0.50000  1
 O  O1  1  0.51035  0.02347  0.00000  1
 O  O2  1  0.02347  0.51035  0.00000  1
 O  O3  1  0.02347  0.02347  0.51312  1
 O  O4  1  0.51035  0.51035  0.48688  1
 O  O5  1  0.00787  0.50787  0.50000  1
 O  O6  1  0.50787  0.00787  0.50000  1
