CIF file written using JARVIS-Tools package.
data_Nb4C3
_symmetry_space_group_name_H-M  'R-3m'
_cell_length_a       10.4354
_cell_length_b       10.4354
_cell_length_c       10.4354
_cell_angle_alpha    17.4474
_cell_angle_beta     17.4475
_cell_angle_gamma    17.4475

_symmetry_Int_Tables_number  166
_chemical_formula_structural  Nb4C3
_chemical_formula_sum  Nb4C3
_cell_volume  89.15637161249
_cell_formula_units_Z  1
loop_
  _symmetry_equiv_pos_site_id
 _symmetry_equiv_pos_as_xyz
 1  'x, y, z'
loop_
 _atom_site_type_symbol
 _atom_site_label
 _atom_site_symmetry_multiplicity
 _atom_site_fract_x
 _atom_site_fract_y
 _atom_site_fract_z
 _atom_site_fract_occupancy
 C  C1  1  0.75283  0.75283  0.75283  1
 C  C2  1  0.00000  0.00000  0.00000  1
 C  C3  1  0.24717  0.24717  0.24717  1
 Nb  Nb1  1  0.62290  0.62290  0.62290  1
 Nb  Nb2  1  0.37710  0.37710  0.37710  1
 Nb  Nb3  1  0.87522  0.87522  0.87522  1
 Nb  Nb4  1  0.12478  0.12478  0.12478  1
