CIF file written using JARVIS-Tools package.
data_MgAg2
_symmetry_space_group_name_H-M  'Cmcm'
_cell_length_a       5.1094
_cell_length_b       5.1094
_cell_length_c       4.84329
_cell_angle_alpha    90
_cell_angle_beta     90
_cell_angle_gamma    121.979

_symmetry_Int_Tables_number  63
_chemical_formula_structural  MgAg2
_chemical_formula_sum  Mg2Ag4
_cell_volume  107.25098776085741
_cell_formula_units_Z  2
loop_
  _symmetry_equiv_pos_site_id
 _symmetry_equiv_pos_as_xyz
 1  'x, y, z'
loop_
 _atom_site_type_symbol
 _atom_site_label
 _atom_site_symmetry_multiplicity
 _atom_site_fract_x
 _atom_site_fract_y
 _atom_site_fract_z
 _atom_site_fract_occupancy
 Ag  Ag1  1  0.53137  0.86088  0.25000  1
 Ag  Ag2  1  0.13912  0.46863  0.75000  1
 Ag  Ag3  1  0.46863  0.13912  0.75000  1
 Ag  Ag4  1  0.86088  0.53137  0.25000  1
 Mg  Mg1  1  0.79523  0.79523  0.75000  1
 Mg  Mg2  1  0.20477  0.20477  0.25000  1
