CIF file written using JARVIS-Tools package.
data_YMgZn
_symmetry_space_group_name_H-M  'P-62m'
_cell_length_a       7.53075
_cell_length_b       7.53075
_cell_length_c       4.13419
_cell_angle_alpha    90
_cell_angle_beta     90
_cell_angle_gamma    120

_symmetry_Int_Tables_number  189
_chemical_formula_structural  YMgZn
_chemical_formula_sum  Y3Mg3Zn3
_cell_volume  203.04710327133128
_cell_formula_units_Z  3
loop_
  _symmetry_equiv_pos_site_id
 _symmetry_equiv_pos_as_xyz
 1  'x, y, z'
loop_
 _atom_site_type_symbol
 _atom_site_label
 _atom_site_symmetry_multiplicity
 _atom_site_fract_x
 _atom_site_fract_y
 _atom_site_fract_z
 _atom_site_fract_occupancy
 Mg  Mg1  1  0.24695  0.24695  0.50000  1
 Mg  Mg2  1  -0.00000  0.75305  0.50000  1
 Mg  Mg3  1  0.75305  -0.00000  0.50000  1
 Y  Y1  1  0.41197  0.00000  0.00000  1
 Y  Y2  1  0.58803  0.58803  0.00000  1
 Y  Y3  1  0.00000  0.41197  0.00000  1
 Zn  Zn1  1  0.66667  0.33333  0.50000  1
 Zn  Zn2  1  0.00000  0.00000  0.00000  1
 Zn  Zn3  1  0.33333  0.66667  0.50000  1
