CIF file written using JARVIS-Tools package.
data_YAlSi
_symmetry_space_group_name_H-M  'Cmcm'
_cell_length_a       4.01702
_cell_length_b       5.55555
_cell_length_c       5.73749
_cell_angle_alpha    90
_cell_angle_beta     90
_cell_angle_gamma    111.194

_symmetry_Int_Tables_number  63
_chemical_formula_structural  YAlSi
_chemical_formula_sum  Y2Al2Si2
_cell_volume  119.3813173716013
_cell_formula_units_Z  2
loop_
  _symmetry_equiv_pos_site_id
 _symmetry_equiv_pos_as_xyz
 1  'x, y, z'
loop_
 _atom_site_type_symbol
 _atom_site_label
 _atom_site_symmetry_multiplicity
 _atom_site_fract_x
 _atom_site_fract_y
 _atom_site_fract_z
 _atom_site_fract_occupancy
 Al  Al1  1  0.00000  0.00000  0.50000  1
 Al  Al2  1  0.00000  0.00000  0.00000  1
 Si  Si1  1  0.60148  0.20296  0.75000  1
 Si  Si2  1  0.39852  0.79704  0.25000  1
 Y  Y1  1  0.69331  0.38662  0.25000  1
 Y  Y2  1  0.30669  0.61338  0.75000  1
