CIF file written using JARVIS-Tools package.
data_Sr2CoRuO6
_symmetry_space_group_name_H-M  'R-3'
_cell_length_a       5.43753
_cell_length_b       5.43753
_cell_length_c       5.43754
_cell_angle_alpha    61.008
_cell_angle_beta     61.0081
_cell_angle_gamma    61.0081

_symmetry_Int_Tables_number  148
_chemical_formula_structural  Sr2CoRuO6
_chemical_formula_sum  Sr2CoRuO6
_cell_volume  116.26281568841043
_cell_formula_units_Z  1
loop_
  _symmetry_equiv_pos_site_id
 _symmetry_equiv_pos_as_xyz
 1  'x, y, z'
loop_
 _atom_site_type_symbol
 _atom_site_label
 _atom_site_symmetry_multiplicity
 _atom_site_fract_x
 _atom_site_fract_y
 _atom_site_fract_z
 _atom_site_fract_occupancy
 Co  Co1  1  0.50000  0.50000  0.50000  1
 O  O1  1  0.69687  0.25019  0.79939  1
 O  O2  1  0.30313  0.74981  0.20061  1
 O  O3  1  0.74981  0.20061  0.30313  1
 O  O4  1  0.79939  0.69687  0.25019  1
 O  O5  1  0.25019  0.79939  0.69687  1
 O  O6  1  0.20061  0.30313  0.74981  1
 Ru  Ru1  1  0.00000  0.00000  0.00000  1
 Sr  Sr1  1  0.25074  0.25074  0.25074  1
 Sr  Sr2  1  0.74926  0.74926  0.74926  1
