CIF file written using JARVIS-Tools package.
data_NaCu4S4
_symmetry_space_group_name_H-M  'P-3m1'
_cell_length_a       3.839
_cell_length_b       3.839
_cell_length_c       12.1316
_cell_angle_alpha    90
_cell_angle_beta     90
_cell_angle_gamma    120

_symmetry_Int_Tables_number  164
_chemical_formula_structural  NaCu4S4
_chemical_formula_sum  NaCu4S4
_cell_volume  154.83989676052164
_cell_formula_units_Z  1
loop_
  _symmetry_equiv_pos_site_id
 _symmetry_equiv_pos_as_xyz
 1  'x, y, z'
loop_
 _atom_site_type_symbol
 _atom_site_label
 _atom_site_symmetry_multiplicity
 _atom_site_fract_x
 _atom_site_fract_y
 _atom_site_fract_z
 _atom_site_fract_occupancy
 Cu  Cu1  1  0.66667  0.33333  0.14792  1
 Cu  Cu2  1  0.33333  0.66667  0.85208  1
 Cu  Cu3  1  0.33333  0.66667  0.31510  1
 Cu  Cu4  1  0.66667  0.33333  0.68490  1
 Na  Na1  1  0.00000  0.00000  0.50000  1
 S  S1  1  0.00000  0.00000  0.08724  1
 S  S2  1  0.00000  0.00000  0.91276  1
 S  S3  1  0.66667  0.33333  0.34276  1
 S  S4  1  0.33333  0.66667  0.65724  1
