CIF file written using JARVIS-Tools package.
data_Ni4W
_symmetry_space_group_name_H-M  'I4/m'
_cell_length_a       3.56029
_cell_length_b       4.43343
_cell_length_c       4.43342
_cell_angle_alpha    80.722
_cell_angle_beta     66.3262
_cell_angle_gamma    66.3263

_symmetry_Int_Tables_number  87
_chemical_formula_structural  Ni4W
_chemical_formula_sum  Ni4W
_cell_volume  58.6961626323849
_cell_formula_units_Z  1
loop_
  _symmetry_equiv_pos_site_id
 _symmetry_equiv_pos_as_xyz
 1  'x, y, z'
loop_
 _atom_site_type_symbol
 _atom_site_label
 _atom_site_symmetry_multiplicity
 _atom_site_fract_x
 _atom_site_fract_y
 _atom_site_fract_z
 _atom_site_fract_occupancy
 Ni  Ni1  1  0.19938  0.20063  0.40062  1
 Ni  Ni2  1  0.59999  0.59938  0.20063  1
 Ni  Ni3  1  0.40001  0.40062  0.79937  1
 Ni  Ni4  1  0.80062  0.79937  0.59938  1
 W  W1  1  0.00000  0.00000  0.00000  1
