CIF file written using JARVIS-Tools package.
data_UNiGe
_symmetry_space_group_name_H-M  'C2/m'
_cell_length_a       5.33768
_cell_length_b       5.33768
_cell_length_c       6.69627
_cell_angle_alpha    53.7416
_cell_angle_beta     53.7416
_cell_angle_gamma    45.4346

_symmetry_Int_Tables_number  12
_chemical_formula_structural  UNiGe
_chemical_formula_sum  U2Ni2Ge2
_cell_volume  104.30715040682738
_cell_formula_units_Z  2
loop_
  _symmetry_equiv_pos_site_id
 _symmetry_equiv_pos_as_xyz
 1  'x, y, z'
loop_
 _atom_site_type_symbol
 _atom_site_label
 _atom_site_symmetry_multiplicity
 _atom_site_fract_x
 _atom_site_fract_y
 _atom_site_fract_z
 _atom_site_fract_occupancy
 Ge  Ge1  1  0.16379  0.16379  0.90447  1
 Ge  Ge2  1  0.83621  0.83621  0.09553  1
 Ni  Ni1  1  0.83794  0.83794  0.71224  1
 Ni  Ni2  1  0.16206  0.16206  0.28776  1
 U  U1  1  0.44194  0.44194  0.33167  1
 U  U2  1  0.55806  0.55806  0.66833  1
