CIF file written using JARVIS-Tools package.
data_VF4
_symmetry_space_group_name_H-M  'C2/m'
_cell_length_a       3.0479
_cell_length_b       4.6664
_cell_length_c       10.1548
_cell_angle_alpha    60.2406
_cell_angle_beta     90
_cell_angle_gamma    90

_symmetry_Int_Tables_number  12
_chemical_formula_structural  VF4
_chemical_formula_sum  V2F8
_cell_volume  125.38127368220282
_cell_formula_units_Z  2
loop_
  _symmetry_equiv_pos_site_id
 _symmetry_equiv_pos_as_xyz
 1  'x, y, z'
loop_
 _atom_site_type_symbol
 _atom_site_label
 _atom_site_symmetry_multiplicity
 _atom_site_fract_x
 _atom_site_fract_y
 _atom_site_fract_z
 _atom_site_fract_occupancy
 F  F1  1  0.24961  0.15729  0.87322  1
 F  F2  1  0.25053  0.70414  0.36785  1
 F  F3  1  0.24962  0.80729  0.63737  1
 F  F4  1  0.25053  0.26042  0.14273  1
 F  F5  1  0.75039  0.15729  0.37322  1
 F  F6  1  0.74947  0.70414  0.86785  1
 F  F7  1  0.75038  0.80729  0.13737  1
 F  F8  1  0.74947  0.26042  0.64273  1
 V  V1  1  0.75070  0.98229  0.25529  1
 V  V2  1  0.24930  0.98229  0.75529  1
