CIF file written using JARVIS-Tools package.
data_PtW
_symmetry_space_group_name_H-M  'R-3m'
_cell_length_a       4.90269
_cell_length_b       4.9027
_cell_length_c       4.9027
_cell_angle_alpha    33.2776
_cell_angle_beta     33.2775
_cell_angle_gamma    33.2775

_symmetry_Int_Tables_number  166
_chemical_formula_structural  PtW
_chemical_formula_sum  PtW
_cell_volume  31.58716214698547
_cell_formula_units_Z  1
loop_
  _symmetry_equiv_pos_site_id
 _symmetry_equiv_pos_as_xyz
 1  'x, y, z'
loop_
 _atom_site_type_symbol
 _atom_site_label
 _atom_site_symmetry_multiplicity
 _atom_site_fract_x
 _atom_site_fract_y
 _atom_site_fract_z
 _atom_site_fract_occupancy
 Pt  Pt1  1  0.00000  0.00000  0.00000  1
 W  W1  1  0.50000  0.50000  0.50000  1
