CIF file written using JARVIS-Tools package.
data_TaBi3O7
_symmetry_space_group_name_H-M  'P1'
_cell_length_a       3.79363
_cell_length_b       3.84221
_cell_length_c       12.8565
_cell_angle_alpha    81.9472
_cell_angle_beta     81.7998
_cell_angle_gamma    63.1285

_symmetry_Int_Tables_number  1
_chemical_formula_structural  TaBi3O7
_chemical_formula_sum  TaBi3O7
_cell_volume  164.84389225452415
_cell_formula_units_Z  1
loop_
  _symmetry_equiv_pos_site_id
 _symmetry_equiv_pos_as_xyz
 1  'x, y, z'
loop_
 _atom_site_type_symbol
 _atom_site_label
 _atom_site_symmetry_multiplicity
 _atom_site_fract_x
 _atom_site_fract_y
 _atom_site_fract_z
 _atom_site_fract_occupancy
 Bi  Bi1  1  0.01566  0.93723  0.01296  1
 Bi  Bi2  1  0.75031  0.71425  0.73871  1
 Bi  Bi3  1  0.25836  0.19006  0.27520  1
 O  O1  1  0.45453  0.37079  0.66085  1
 O  O2  1  0.20750  0.11820  0.47040  1
 O  O3  1  0.07615  0.99264  0.82328  1
 O  O4  1  0.95333  0.87515  0.19748  1
 O  O5  1  0.83719  0.73920  0.54641  1
 O  O6  1  0.57352  0.50499  0.35476  1
 O  O7  1  0.35077  0.27775  0.02524  1
 Ta  Ta1  1  0.42541  0.54087  0.50732  1
