CIF file written using JARVIS-Tools package.
data_LiFeF3
_symmetry_space_group_name_H-M  'P6_322'
_cell_length_a       5.03766
_cell_length_b       5.03881
_cell_length_c       4.73751
_cell_angle_alpha    90.0017
_cell_angle_beta     89.9988
_cell_angle_gamma    119.991

_symmetry_Int_Tables_number  182
_chemical_formula_structural  LiFeF3
_chemical_formula_sum  Li2Fe2F6
_cell_volume  104.1538865257832
_cell_formula_units_Z  2
loop_
  _symmetry_equiv_pos_site_id
 _symmetry_equiv_pos_as_xyz
 1  'x, y, z'
loop_
 _atom_site_type_symbol
 _atom_site_label
 _atom_site_symmetry_multiplicity
 _atom_site_fract_x
 _atom_site_fract_y
 _atom_site_fract_z
 _atom_site_fract_occupancy
 F  F1  1  0.31541  -0.00002  0.68165  1
 F  F2  1  -0.00001  0.31540  0.68166  1
 F  F3  1  0.31539  0.31540  0.18165  1
 F  F4  1  0.68459  0.68460  0.68167  1
 F  F5  1  -0.00002  0.68460  0.18166  1
 F  F6  1  0.68456  0.00000  0.18167  1
 Fe  Fe1  1  0.33332  0.66664  0.93167  1
 Fe  Fe2  1  0.66667  0.33336  0.43167  1
 Li  Li1  1  -0.00000  0.00001  0.43165  1
 Li  Li2  1  -0.00001  -0.00000  0.93165  1
