CIF file written using JARVIS-Tools package.
data_HfH8C6O4
_symmetry_space_group_name_H-M  'P1'
_cell_length_a       3.81581
_cell_length_b       4.69105
_cell_length_c       9.70587
_cell_angle_alpha    81.9901
_cell_angle_beta     98.9495
_cell_angle_gamma    71.0629

_symmetry_Int_Tables_number  1
_chemical_formula_structural  HfH8C6O4
_chemical_formula_sum  HfH8C6O4
_cell_volume  158.94697767149788
_cell_formula_units_Z  1
loop_
  _symmetry_equiv_pos_site_id
 _symmetry_equiv_pos_as_xyz
 1  'x, y, z'
loop_
 _atom_site_type_symbol
 _atom_site_label
 _atom_site_symmetry_multiplicity
 _atom_site_fract_x
 _atom_site_fract_y
 _atom_site_fract_z
 _atom_site_fract_occupancy
 C  C1  1  0.51254  0.38958  0.93219  1
 C  C2  1  0.57065  0.40027  0.08879  1
 C  C3  1  0.22527  0.67982  0.83183  1
 C  C4  1  0.24082  0.69322  0.67428  1
 C  C5  1  0.26592  0.43504  0.46070  1
 C  C6  1  0.24867  0.40470  0.61767  1
 H  H1  1  0.79351  0.32823  0.90497  1
 H  H2  1  0.43301  0.18625  0.92330  1
 H  H3  1  0.27597  0.88131  0.86345  1
 H  H4  1  0.93910  0.70426  0.84780  1
 H  H5  1  0.50133  0.20798  0.67629  1
 H  H6  1  0.99947  0.34345  0.63310  1
 H  H7  1  0.99797  0.88970  0.60943  1
 H  H8  1  0.49383  0.74331  0.65634  1
 Hf  Hf1  1  0.32678  0.82797  0.31756  1
 O  O1  1  0.37841  0.64376  0.12685  1
 O  O2  1  0.33088  0.15192  0.42127  1
 O  O3  1  0.91241  0.65861  0.37000  1
 O  O4  1  0.79886  0.15953  0.17622  1
