CIF file written using JARVIS-Tools package.
data_NaHg3
_symmetry_space_group_name_H-M  'P6_3/mmc'
_cell_length_a       6.69204
_cell_length_b       6.69204
_cell_length_c       5.22592
_cell_angle_alpha    90
_cell_angle_beta     90
_cell_angle_gamma    120

_symmetry_Int_Tables_number  194
_chemical_formula_structural  NaHg3
_chemical_formula_sum  Na2Hg6
_cell_volume  202.67960756900948
_cell_formula_units_Z  2
loop_
  _symmetry_equiv_pos_site_id
 _symmetry_equiv_pos_as_xyz
 1  'x, y, z'
loop_
 _atom_site_type_symbol
 _atom_site_label
 _atom_site_symmetry_multiplicity
 _atom_site_fract_x
 _atom_site_fract_y
 _atom_site_fract_z
 _atom_site_fract_occupancy
 Hg  Hg1  1  0.83230  0.16770  0.75000  1
 Hg  Hg2  1  0.33540  0.16770  0.75000  1
 Hg  Hg3  1  0.83230  0.66460  0.75000  1
 Hg  Hg4  1  0.16770  0.83230  0.25000  1
 Hg  Hg5  1  0.66460  0.83230  0.25000  1
 Hg  Hg6  1  0.16770  0.33540  0.25000  1
 Na  Na1  1  0.66667  0.33333  0.25000  1
 Na  Na2  1  0.33333  0.66667  0.75000  1
