CIF file written using JARVIS-Tools package.
data_NaSrAs
_symmetry_space_group_name_H-M  'P-62m'
_cell_length_a       7.82304
_cell_length_b       7.82304
_cell_length_c       4.58634
_cell_angle_alpha    90
_cell_angle_beta     90
_cell_angle_gamma    120

_symmetry_Int_Tables_number  189
_chemical_formula_structural  NaSrAs
_chemical_formula_sum  Na3Sr3As3
_cell_volume  243.07871199523552
_cell_formula_units_Z  3
loop_
  _symmetry_equiv_pos_site_id
 _symmetry_equiv_pos_as_xyz
 1  'x, y, z'
loop_
 _atom_site_type_symbol
 _atom_site_label
 _atom_site_symmetry_multiplicity
 _atom_site_fract_x
 _atom_site_fract_y
 _atom_site_fract_z
 _atom_site_fract_occupancy
 As  As1  1  0.33333  0.66667  0.00000  1
 As  As2  1  0.00000  0.00000  0.50000  1
 As  As3  1  0.66667  0.33333  0.00000  1
 Na  Na1  1  0.24209  0.00000  0.00000  1
 Na  Na2  1  0.00000  0.24209  0.00000  1
 Na  Na3  1  0.75791  0.75791  0.00000  1
 Sr  Sr1  1  0.41516  0.41516  0.50000  1
 Sr  Sr2  1  0.58484  -0.00000  0.50000  1
 Sr  Sr3  1  -0.00000  0.58484  0.50000  1
