CIF file written using JARVIS-Tools package.
data_H14C8O5
_symmetry_space_group_name_H-M  'P2_1'
_cell_length_a       6.24455
_cell_length_b       6.151
_cell_length_c       10.7655
_cell_angle_alpha    90.0001
_cell_angle_beta     92.3295
_cell_angle_gamma    90

_symmetry_Int_Tables_number  4
_chemical_formula_structural  H14C8O5
_chemical_formula_sum  H28C6O0
_cell_volume  413.16402695994356
_cell_formula_units_Z  2
loop_
  _symmetry_equiv_pos_site_id
 _symmetry_equiv_pos_as_xyz
 1  'x, y, z'
loop_
 _atom_site_type_symbol
 _atom_site_label
 _atom_site_symmetry_multiplicity
 _atom_site_fract_x
 _atom_site_fract_y
 _atom_site_fract_z
 _atom_site_fract_occupancy
 C  C1  1  0.91694  0.74012  0.30082  1
 C  C2  1  0.49891  0.84863  0.62060  1
 C  C3  1  0.52505  0.27406  0.06778  1
 C  C4  1  0.47495  0.77405  0.93222  1
 C  C5  1  0.93036  0.91375  0.40309  1
 C  C6  1  0.06964  0.41375  0.59691  1
 C  C7  1  0.08306  0.24012  0.69918  1
 C  C8  1  0.50109  0.34863  0.37940  1
 C  C9  1  0.90141  0.30578  0.78512  1
 C  C10  1  0.74416  0.43415  0.69980  1
 C  C11  1  0.28803  0.15015  0.22749  1
 C  C12  1  0.71197  0.65015  0.77251  1
 C  C13  1  0.07855  0.17165  0.14963  1
 C  C14  1  0.92146  0.67165  0.85037  1
 C  C15  1  0.09859  0.80578  0.21488  1
 C  C16  1  0.25585  0.93415  0.30020  1
 H  H1  1  0.95356  0.57942  0.34077  1
 H  H2  1  0.16428  0.55814  0.62554  1
 H  H3  1  0.04198  0.74967  0.79270  1
 H  H4  1  0.04644  0.07942  0.65923  1
 H  H5  1  0.83024  0.16520  0.83033  1
 H  H6  1  0.16976  0.66520  0.16967  1
 H  H7  1  0.83572  0.05814  0.37446  1
 H  H8  1  0.40880  0.85139  0.31923  1
 H  H9  1  0.67787  0.86407  0.19849  1
 H  H10  1  0.49600  0.22118  0.45049  1
 H  H11  1  0.50400  0.72118  0.54951  1
 H  H12  1  0.64670  0.33277  0.32665  1
 H  H13  1  0.35330  0.83277  0.67335  1
 H  H14  1  0.90972  0.76480  0.93655  1
 H  H15  1  0.49833  0.00846  0.57697  1
 H  H16  1  0.39530  0.29537  -0.00277  1
 H  H17  1  0.60470  0.79537  0.00278  1
 H  H18  1  0.56033  0.42782  0.11606  1
 H  H19  1  0.50167  0.50847  0.42303  1
 H  H20  1  0.66850  0.21654  0.02285  1
 H  H21  1  0.33150  0.71654  0.97715  1
 H  H22  1  0.32213  0.36407  0.80151  1
 H  H23  1  0.12180  0.35532  0.50684  1
 H  H24  1  0.95802  0.24967  0.20730  1
 H  H25  1  0.87820  0.85532  0.49316  1
 H  H26  1  0.09028  0.26480  0.06345  1
 H  H27  1  0.59120  0.35138  0.68077  1
 H  H28  1  0.43968  0.92782  0.88394  1
 O  O1  1  0.84465  0.46701  0.58263  1
 O  O2  1  0.28720  0.22351  0.76178  1
 O  O3  1  0.52891  0.60560  0.84457  1
 O  O4  1  0.71281  0.72351  0.23822  1
 O  O5  1  0.01828  0.95239  0.11749  1
 O  O6  1  0.31212  0.34136  0.29850  1
 O  O7  1  0.98172  0.45239  0.88251  1
 O  O8  1  0.47110  0.10560  0.15543  1
 O  O9  1  0.68788  0.84136  0.70150  1
 O  O10  1  0.15535  0.96701  0.41737  1
