CIF file written using JARVIS-Tools package.
data_SmSbPd
_symmetry_space_group_name_H-M  'P6_3mc'
_cell_length_a       4.64088
_cell_length_b       4.64088
_cell_length_c       7.56609
_cell_angle_alpha    90
_cell_angle_beta     90
_cell_angle_gamma    120

_symmetry_Int_Tables_number  186
_chemical_formula_structural  SmSbPd
_chemical_formula_sum  Sm2Sb2Pd2
_cell_volume  141.12474708168435
_cell_formula_units_Z  2
loop_
  _symmetry_equiv_pos_site_id
 _symmetry_equiv_pos_as_xyz
 1  'x, y, z'
loop_
 _atom_site_type_symbol
 _atom_site_label
 _atom_site_symmetry_multiplicity
 _atom_site_fract_x
 _atom_site_fract_y
 _atom_site_fract_z
 _atom_site_fract_occupancy
 Pd  Pd1  1  0.66667  0.33333  0.31149  1
 Pd  Pd2  1  0.33333  0.66667  0.81149  1
 Sb  Sb1  1  0.66667  0.33333  0.71251  1
 Sb  Sb2  1  0.33333  0.66667  0.21251  1
 Sm  Sm1  1  0.00000  0.00000  0.98500  1
 Sm  Sm2  1  0.00000  0.00000  0.48500  1
