CIF file written using JARVIS-Tools package.
data_Ti2N
_symmetry_space_group_name_H-M  'P4_2/mnm'
_cell_length_a       4.95308
_cell_length_b       4.95308
_cell_length_c       3.03713
_cell_angle_alpha    90
_cell_angle_beta     90
_cell_angle_gamma    90

_symmetry_Int_Tables_number  136
_chemical_formula_structural  Ti2N
_chemical_formula_sum  Ti4N2
_cell_volume  74.5099813706147
_cell_formula_units_Z  2
loop_
  _symmetry_equiv_pos_site_id
 _symmetry_equiv_pos_as_xyz
 1  'x, y, z'
loop_
 _atom_site_type_symbol
 _atom_site_label
 _atom_site_symmetry_multiplicity
 _atom_site_fract_x
 _atom_site_fract_y
 _atom_site_fract_z
 _atom_site_fract_occupancy
 N  N1  1  0.50000  0.50000  0.50000  1
 N  N2  1  0.00000  0.00000  0.00000  1
 Ti  Ti1  1  0.20328  0.79672  0.50000  1
 Ti  Ti2  1  0.70328  0.70328  0.00000  1
 Ti  Ti3  1  0.79672  0.20328  0.50000  1
 Ti  Ti4  1  0.29672  0.29672  0.00000  1
