CIF file written using JARVIS-Tools package.
data_La2AlGe
_symmetry_space_group_name_H-M  'Amm2'
_cell_length_a       6.23911
_cell_length_b       6.23911
_cell_length_c       4.1678
_cell_angle_alpha    90
_cell_angle_beta     90
_cell_angle_gamma    136.716

_symmetry_Int_Tables_number  38
_chemical_formula_structural  La2AlGe
_chemical_formula_sum  La2AlGe
_cell_volume  111.2320256913236
_cell_formula_units_Z  1
loop_
  _symmetry_equiv_pos_site_id
 _symmetry_equiv_pos_as_xyz
 1  'x, y, z'
loop_
 _atom_site_type_symbol
 _atom_site_label
 _atom_site_symmetry_multiplicity
 _atom_site_fract_x
 _atom_site_fract_y
 _atom_site_fract_z
 _atom_site_fract_occupancy
 Al  Al1  1  0.06834  0.93166  0.00000  1
 Ge  Ge1  1  0.92838  0.07162  0.50000  1
 La  La1  1  0.35849  0.64151  0.00000  1
 La  La2  1  0.64478  0.35522  0.50000  1
