CIF file written using JARVIS-Tools package.
data_Na2CrCl4
_symmetry_space_group_name_H-M  'P2_1/c'
_cell_length_a       3.93789
_cell_length_b       11.4667
_cell_length_c       6.91663
_cell_angle_alpha    90
_cell_angle_beta     92.0858
_cell_angle_gamma    90

_symmetry_Int_Tables_number  14
_chemical_formula_structural  Na2CrCl4
_chemical_formula_sum  Na4Cr2Cl8
_cell_volume  312.1112989586633
_cell_formula_units_Z  2
loop_
  _symmetry_equiv_pos_site_id
 _symmetry_equiv_pos_as_xyz
 1  'x, y, z'
loop_
 _atom_site_type_symbol
 _atom_site_label
 _atom_site_symmetry_multiplicity
 _atom_site_fract_x
 _atom_site_fract_y
 _atom_site_fract_z
 _atom_site_fract_occupancy
 Cl  Cl1  1  0.01280  0.80359  0.11406  1
 Cl  Cl2  1  0.98720  0.30359  0.38594  1
 Cl  Cl3  1  0.98720  0.19641  0.88594  1
 Cl  Cl4  1  0.01280  0.69641  0.61406  1
 Cl  Cl5  1  0.43321  0.04770  0.24307  1
 Cl  Cl6  1  0.56679  0.54770  0.25693  1
 Cl  Cl7  1  0.56679  0.95230  0.75693  1
 Cl  Cl8  1  0.43321  0.45230  0.74307  1
 Cr  Cr1  1  0.00000  0.00000  0.00000  1
 Cr  Cr2  1  0.00000  0.50000  0.50000  1
 Na  Na1  1  0.51755  0.81897  0.40457  1
 Na  Na2  1  0.48245  0.31897  0.09543  1
 Na  Na3  1  0.48245  0.18103  0.59543  1
 Na  Na4  1  0.51755  0.68103  0.90457  1
