CIF file written using JARVIS-Tools package.
data_SrZrN2
_symmetry_space_group_name_H-M  'R-3m'
_cell_length_a       6.23993
_cell_length_b       6.23993
_cell_length_c       6.23993
_cell_angle_alpha    31.4692
_cell_angle_beta     31.4693
_cell_angle_gamma    31.4693

_symmetry_Int_Tables_number  166
_chemical_formula_structural  SrZrN2
_chemical_formula_sum  SrZrN2
_cell_volume  58.78200786981335
_cell_formula_units_Z  1
loop_
  _symmetry_equiv_pos_site_id
 _symmetry_equiv_pos_as_xyz
 1  'x, y, z'
loop_
 _atom_site_type_symbol
 _atom_site_label
 _atom_site_symmetry_multiplicity
 _atom_site_fract_x
 _atom_site_fract_y
 _atom_site_fract_z
 _atom_site_fract_occupancy
 N  N1  1  0.76631  0.76631  0.76631  1
 N  N2  1  0.23369  0.23369  0.23369  1
 Sr  Sr1  1  0.00000  0.00000  0.00000  1
 Zr  Zr1  1  0.50000  0.50000  0.50000  1
