CIF file written using JARVIS-Tools package.
data_SbN9
_symmetry_space_group_name_H-M  'R-3'
_cell_length_a       7.73011
_cell_length_b       7.7301
_cell_length_c       7.7301
_cell_angle_alpha    54.8708
_cell_angle_beta     54.8708
_cell_angle_gamma    54.8708

_symmetry_Int_Tables_number  148
_chemical_formula_structural  SbN9
_chemical_formula_sum  Sb2N8
_cell_volume  287.6193595423388
_cell_formula_units_Z  2
loop_
  _symmetry_equiv_pos_site_id
 _symmetry_equiv_pos_as_xyz
 1  'x, y, z'
loop_
 _atom_site_type_symbol
 _atom_site_label
 _atom_site_symmetry_multiplicity
 _atom_site_fract_x
 _atom_site_fract_y
 _atom_site_fract_z
 _atom_site_fract_occupancy
 N  N1  1  0.25733  0.75734  0.73654  1
 N  N2  1  0.63234  0.37592  0.86919  1
 N  N3  1  0.86919  0.63234  0.37592  1
 N  N4  1  0.37592  0.86919  0.63234  1
 N  N5  1  0.36766  0.62408  0.13081  1
 N  N6  1  0.13081  0.36766  0.62408  1
 N  N7  1  0.62408  0.13081  0.36766  1
 N  N8  1  0.73654  0.25733  0.75734  1
 N  N9  1  0.75734  0.73654  0.25733  1
 N  N10  1  0.85535  0.34629  0.16596  1
 N  N11  1  0.26346  0.74267  0.24266  1
 N  N12  1  0.24266  0.26346  0.74267  1
 N  N13  1  0.74267  0.24266  0.26346  1
 N  N14  1  0.83404  0.14465  0.65371  1
 N  N15  1  0.65371  0.83404  0.14465  1
 N  N16  1  0.14465  0.65371  0.83404  1
 N  N17  1  0.16596  0.85535  0.34629  1
 N  N18  1  0.34629  0.16596  0.85535  1
 Sb  Sb1  1  0.30682  0.30682  0.30682  1
 Sb  Sb2  1  0.69318  0.69318  0.69318  1
