CIF file written using JARVIS-Tools package.
data_SmZnAgP2
_symmetry_space_group_name_H-M  'P3m1'
_cell_length_a       4.15223
_cell_length_b       4.15222
_cell_length_c       6.75248
_cell_angle_alpha    90
_cell_angle_beta     90
_cell_angle_gamma    120

_symmetry_Int_Tables_number  156
_chemical_formula_structural  SmZnAgP2
_chemical_formula_sum  SmZnAgP2
_cell_volume  100.8222125650405
_cell_formula_units_Z  1
loop_
  _symmetry_equiv_pos_site_id
 _symmetry_equiv_pos_as_xyz
 1  'x, y, z'
loop_
 _atom_site_type_symbol
 _atom_site_label
 _atom_site_symmetry_multiplicity
 _atom_site_fract_x
 _atom_site_fract_y
 _atom_site_fract_z
 _atom_site_fract_occupancy
 Ag  Ag1  1  0.66667  0.33333  0.36403  1
 P  P1  1  0.66667  0.33333  0.75303  1
 P  P2  1  0.00000  0.00000  0.24250  1
 Sm  Sm1  1  0.33333  0.66667  0.01378  1
 Zn  Zn1  1  0.00000  0.00000  0.62667  1
