CIF file written using JARVIS-Tools package.
data_Ti3N2O3
_symmetry_space_group_name_H-M  'Cm'
_cell_length_a       3.80315
_cell_length_b       5.28668
_cell_length_c       9.95722
_cell_angle_alpha    90.5601
_cell_angle_beta     90
_cell_angle_gamma    111.081

_symmetry_Int_Tables_number  8
_chemical_formula_structural  Ti3N2O3
_chemical_formula_sum  Ti6N4O6
_cell_volume  186.790950639384
_cell_formula_units_Z  2
loop_
  _symmetry_equiv_pos_site_id
 _symmetry_equiv_pos_as_xyz
 1  'x, y, z'
loop_
 _atom_site_type_symbol
 _atom_site_label
 _atom_site_symmetry_multiplicity
 _atom_site_fract_x
 _atom_site_fract_y
 _atom_site_fract_z
 _atom_site_fract_occupancy
 N  N1  1  0.30569  0.61138  0.07721  1
 N  N2  1  0.04549  0.09098  0.38196  1
 N  N3  1  0.69475  0.38949  0.57559  1
 N  N4  1  0.69287  0.38574  0.92148  1
 O  O1  1  0.31503  0.63007  0.42409  1
 O  O2  1  0.24892  0.49784  0.75254  1
 O  O3  1  0.04557  0.09113  0.11711  1
 O  O4  1  0.75273  0.50546  0.25791  1
 O  O5  1  0.95441  0.90882  0.88290  1
 O  O6  1  0.95567  0.91134  0.62132  1
 Ti  Ti1  1  0.19023  0.38045  0.24868  1
 Ti  Ti2  1  0.14387  0.28774  0.94542  1
 Ti  Ti3  1  0.13485  0.26970  0.55434  1
 Ti  Ti4  1  0.79907  0.59814  0.74735  1
 Ti  Ti5  1  0.85624  0.71249  0.04967  1
 Ti  Ti6  1  0.86462  0.72923  0.44243  1
