CIF file written using JARVIS-Tools package.
data_Li3Cu2F8
_symmetry_space_group_name_H-M  'P2_1/c'
_cell_length_a       5.86182
_cell_length_b       5.19394
_cell_length_c       9.49857
_cell_angle_alpha    90
_cell_angle_beta     95.7856
_cell_angle_gamma    90

_symmetry_Int_Tables_number  14
_chemical_formula_structural  Li3Cu2F8
_chemical_formula_sum  Li6Cu4F6
_cell_volume  287.7199344917734
_cell_formula_units_Z  2
loop_
  _symmetry_equiv_pos_site_id
 _symmetry_equiv_pos_as_xyz
 1  'x, y, z'
loop_
 _atom_site_type_symbol
 _atom_site_label
 _atom_site_symmetry_multiplicity
 _atom_site_fract_x
 _atom_site_fract_y
 _atom_site_fract_z
 _atom_site_fract_occupancy
 Cu  Cu1  1  0.63917  0.98066  0.37061  1
 Cu  Cu2  1  0.63917  0.51934  0.87061  1
 Cu  Cu3  1  0.36083  0.01934  0.62939  1
 Cu  Cu4  1  0.36083  0.48066  0.12939  1
 F  F1  1  0.77459  0.84200  0.92450  1
 F  F2  1  0.09134  0.87086  0.68783  1
 F  F3  1  0.09134  0.62914  0.18783  1
 F  F4  1  0.90866  0.37086  0.81217  1
 F  F5  1  0.22541  0.15800  0.07550  1
 F  F6  1  0.34707  0.64893  0.92949  1
 F  F7  1  0.34707  0.85107  0.42949  1
 F  F8  1  0.22541  0.34200  0.57550  1
 F  F9  1  0.46525  0.30110  0.31779  1
 F  F10  1  0.53475  0.80110  0.18221  1
 F  F11  1  0.90866  0.12914  0.31217  1
 F  F12  1  0.65293  0.35107  0.07051  1
 F  F13  1  0.46525  0.19890  0.81779  1
 F  F14  1  0.77459  0.65800  0.42450  1
 F  F15  1  0.53475  0.69890  0.68221  1
 F  F16  1  0.65293  0.14893  0.57051  1
 Li  Li1  1  0.84842  0.47053  0.26034  1
 Li  Li2  1  0.84842  0.02947  0.76034  1
 Li  Li3  1  0.50000  0.00000  -0.00000  1
 Li  Li4  1  0.50000  0.50000  0.50000  1
 Li  Li5  1  0.15158  0.97053  0.23966  1
 Li  Li6  1  0.15158  0.52947  0.73966  1
