CIF file written using JARVIS-Tools package.
data_ZnH20C12O4
_symmetry_space_group_name_H-M  'P1'
_cell_length_a       3.90487
_cell_length_b       4.79137
_cell_length_c       17.3251
_cell_angle_alpha    79.717
_cell_angle_beta     90.6849
_cell_angle_gamma    65.2404

_symmetry_Int_Tables_number  1
_chemical_formula_structural  ZnH20C12O4
_chemical_formula_sum  ZnH20C2O4
_cell_volume  288.25411531120085
_cell_formula_units_Z  1
loop_
  _symmetry_equiv_pos_site_id
 _symmetry_equiv_pos_as_xyz
 1  'x, y, z'
loop_
 _atom_site_type_symbol
 _atom_site_label
 _atom_site_symmetry_multiplicity
 _atom_site_fract_x
 _atom_site_fract_y
 _atom_site_fract_z
 _atom_site_fract_occupancy
 C  C1  1  -0.03914  0.99118  0.38772  1
 C  C2  1  0.56462  0.61974  0.66920  1
 C  C3  1  0.25083  0.81659  0.53011  1
 C  C4  1  -0.01917  0.08925  0.46641  1
 C  C5  1  0.29299  0.90546  0.60916  1
 C  C6  1  0.69652  0.25787  0.32204  1
 C  C7  1  0.69462  0.15355  0.24362  1
 C  C8  1  0.44022  0.41644  0.17604  1
 C  C9  1  0.47483  0.31012  0.09713  1
 C  C10  1  0.23562  0.57478  0.02850  1
 C  C11  1  0.32151  0.50024  0.94737  1
 C  C12  1  0.67074  0.67552  0.74759  1
 H  H1  1  0.53234  0.71380  0.50833  1
 H  H2  1  0.83627  0.50441  0.64452  1
 H  H3  1  0.24820  0.89045  0.36844  1
 H  H4  1  0.45714  0.43941  0.68157  1
 H  H5  1  0.60572  0.96059  0.25159  1
 H  H6  1  0.15342  0.62849  0.53932  1
 H  H7  1  0.01555  0.00691  0.63232  1
 H  H8  1  0.27489  0.78905  0.02913  1
 H  H9  1  0.14288  0.50736  0.18994  1
 H  H10  1  0.51711  0.61574  0.17075  1
 H  H11  1  0.40637  0.35571  0.33996  1
 H  H12  1  -0.01303  0.05299  0.22683  1
 H  H13  1  0.78445  0.45145  0.31381  1
 H  H14  1  0.07370  0.27996  0.45772  1
 H  H15  1  0.93026  0.64573  0.03281  1
 H  H16  1  0.39743  0.08853  0.60055  1
 H  H17  1  0.39559  0.11310  0.10118  1
 H  H18  1  0.77409  0.21571  0.08490  1
 H  H19  1  0.69528  0.18843  0.48647  1
 H  H20  1  0.86935  0.79965  0.39659  1
 O  O1  1  0.85271  0.44035  0.80281  1
 O  O2  1  0.50580  0.21112  0.94320  1
 O  O3  1  0.58654  0.95919  0.75331  1
 O  O4  1  0.22104  0.72379  0.88771  1
 Zn  Zn1  1  0.72551  0.08441  0.84645  1
