CIF file written using JARVIS-Tools package.
data_BaMn2N2
_symmetry_space_group_name_H-M  'I4/mcm'
_cell_length_a       6.45144
_cell_length_b       6.21847
_cell_length_c       9.44169
_cell_angle_alpha    90
_cell_angle_beta     42.9666
_cell_angle_gamma    61.1876

_symmetry_Int_Tables_number  140
_chemical_formula_structural  BaMn2N2
_chemical_formula_sum  Ba2Mn4N4
_cell_volume  182.55205355635408
_cell_formula_units_Z  2
loop_
  _symmetry_equiv_pos_site_id
 _symmetry_equiv_pos_as_xyz
 1  'x, y, z'
loop_
 _atom_site_type_symbol
 _atom_site_label
 _atom_site_symmetry_multiplicity
 _atom_site_fract_x
 _atom_site_fract_y
 _atom_site_fract_z
 _atom_site_fract_occupancy
 Ba  Ba1  1  0.00000  0.00000  0.25000  1
 Ba  Ba2  1  0.00000  0.00000  0.75000  1
 Mn  Mn1  1  0.72906  0.50000  0.63547  1
 Mn  Mn2  1  0.27094  0.50000  0.36453  1
 Mn  Mn3  1  0.27094  0.22906  0.86453  1
 Mn  Mn4  1  0.72906  0.77094  0.13547  1
 N  N1  1  0.68034  0.50000  0.15983  1
 N  N2  1  0.31966  0.50000  0.84017  1
 N  N3  1  0.31966  0.18034  0.34017  1
 N  N4  1  0.68034  0.81966  0.65983  1
