CIF file written using JARVIS-Tools package.
data_Ti4Al2CN
_symmetry_space_group_name_H-M  'P-3m1'
_cell_length_a       3.03636
_cell_length_b       3.03636
_cell_length_c       13.6063
_cell_angle_alpha    90
_cell_angle_beta     90
_cell_angle_gamma    120

_symmetry_Int_Tables_number  164
_chemical_formula_structural  Ti4Al2CN
_chemical_formula_sum  Ti4Al2CN
_cell_volume  108.63671457104635
_cell_formula_units_Z  1
loop_
  _symmetry_equiv_pos_site_id
 _symmetry_equiv_pos_as_xyz
 1  'x, y, z'
loop_
 _atom_site_type_symbol
 _atom_site_label
 _atom_site_symmetry_multiplicity
 _atom_site_fract_x
 _atom_site_fract_y
 _atom_site_fract_z
 _atom_site_fract_occupancy
 Al  Al1  1  0.66667  0.33333  0.74814  1
 Al  Al2  1  0.33333  0.66667  0.25186  1
 C  C1  1  0.00000  0.00000  0.00000  1
 N  N1  1  0.00000  0.00000  0.50000  1
 Ti  Ti1  1  0.66667  0.33333  0.41586  1
 Ti  Ti2  1  0.33333  0.66667  0.58414  1
 Ti  Ti3  1  0.33333  0.66667  0.91469  1
 Ti  Ti4  1  0.66667  0.33333  0.08531  1
