CIF file written using JARVIS-Tools package.
data_SrFe2Se4O12
_symmetry_space_group_name_H-M  'P2/m'
_cell_length_a       7.03162
_cell_length_b       5.35888
_cell_length_c       7.06512
_cell_angle_alpha    90
_cell_angle_beta     91.7562
_cell_angle_gamma    90

_symmetry_Int_Tables_number  10
_chemical_formula_structural  SrFe2Se4O12
_chemical_formula_sum  SrFe2Se4O2
_cell_volume  266.1004565970844
_cell_formula_units_Z  1
loop_
  _symmetry_equiv_pos_site_id
 _symmetry_equiv_pos_as_xyz
 1  'x, y, z'
loop_
 _atom_site_type_symbol
 _atom_site_label
 _atom_site_symmetry_multiplicity
 _atom_site_fract_x
 _atom_site_fract_y
 _atom_site_fract_z
 _atom_site_fract_occupancy
 Fe  Fe1  1  0.00000  0.00000  0.50000  1
 Fe  Fe2  1  0.50000  0.50000  0.00000  1
 O  O1  1  0.18762  0.73640  0.59268  1
 O  O2  1  0.43679  0.75242  0.18354  1
 O  O3  1  0.76877  0.50000  0.06676  1
 O  O4  1  0.56321  0.75242  0.81646  1
 O  O5  1  0.43679  0.24758  0.18354  1
 O  O6  1  0.81238  0.73640  0.40732  1
 O  O7  1  0.23123  0.50000  0.93324  1
 O  O8  1  0.81238  0.26360  0.40732  1
 O  O9  1  0.56321  0.24758  0.81646  1
 O  O10  1  0.10590  0.00000  0.23665  1
 O  O11  1  0.18762  0.26360  0.59268  1
 O  O12  1  0.89410  0.00000  0.76335  1
 Se  Se1  1  0.91044  0.50000  0.27145  1
 Se  Se2  1  0.29268  0.00000  0.08991  1
 Se  Se3  1  0.70732  0.00000  0.91009  1
 Se  Se4  1  0.08956  0.50000  0.72855  1
 Sr  Sr1  1  0.50000  0.50000  0.50000  1
