CIF file written using JARVIS-Tools package.
data_SbPbIO2
_symmetry_space_group_name_H-M  'I4mm'
_cell_length_a       7.44741
_cell_length_b       7.44741
_cell_length_c       7.44741
_cell_angle_alpha    149.053
_cell_angle_beta     149.053
_cell_angle_gamma    44.3332

_symmetry_Int_Tables_number  107
_chemical_formula_structural  SbPbIO2
_chemical_formula_sum  SbPbIO2
_cell_volume  108.91187609226581
_cell_formula_units_Z  1
loop_
  _symmetry_equiv_pos_site_id
 _symmetry_equiv_pos_as_xyz
 1  'x, y, z'
loop_
 _atom_site_type_symbol
 _atom_site_label
 _atom_site_symmetry_multiplicity
 _atom_site_fract_x
 _atom_site_fract_y
 _atom_site_fract_z
 _atom_site_fract_occupancy
 I  I1  1  0.99384  0.99384  0.00000  1
 O  O1  1  0.75390  0.25390  0.50000  1
 O  O2  1  0.25390  0.75390  0.50000  1
 Pb  Pb1  1  0.64809  0.64809  0.00000  1
 Sb  Sb1  1  0.32308  0.32308  0.00000  1
