CIF file written using JARVIS-Tools package.
data_K4NaCl5
_symmetry_space_group_name_H-M  'I4/mmm'
_cell_length_a       15.6049
_cell_length_b       15.6049
_cell_length_c       15.6049
_cell_angle_alpha    163.934
_cell_angle_beta     163.934
_cell_angle_gamma    22.796

_symmetry_Int_Tables_number  139
_chemical_formula_structural  K4NaCl5
_chemical_formula_sum  K4NaCl5
_cell_volume  290.96119517507793
_cell_formula_units_Z  1
loop_
  _symmetry_equiv_pos_site_id
 _symmetry_equiv_pos_as_xyz
 1  'x, y, z'
loop_
 _atom_site_type_symbol
 _atom_site_label
 _atom_site_symmetry_multiplicity
 _atom_site_fract_x
 _atom_site_fract_y
 _atom_site_fract_z
 _atom_site_fract_occupancy
 Cl  Cl1  1  0.09403  0.09403  -0.00000  1
 Cl  Cl2  1  0.50000  0.50000  -0.00000  1
 Cl  Cl3  1  0.90597  0.90597  0.00000  1
 Cl  Cl4  1  0.30028  0.30028  -0.00000  1
 Cl  Cl5  1  0.69972  0.69972  0.00000  1
 K  K1  1  0.40206  0.40206  0.00000  1
 K  K2  1  0.80215  0.80215  -0.00000  1
 K  K3  1  0.19785  0.19785  0.00000  1
 K  K4  1  0.59794  0.59794  -0.00000  1
 Na  Na1  1  0.00000  0.00000  0.00000  1
