CIF file written using JARVIS-Tools package.
data_Li2MnSiO4
_symmetry_space_group_name_H-M  'I-42m'
_cell_length_a       4.46616
_cell_length_b       5.26023
_cell_length_c       4.46616
_cell_angle_alpha    64.8796
_cell_angle_beta     90
_cell_angle_gamma    115.12

_symmetry_Int_Tables_number  121
_chemical_formula_structural  Li2MnSiO4
_chemical_formula_sum  Li2MnSiO4
_cell_volume  83.91020460797492
_cell_formula_units_Z  1
loop_
  _symmetry_equiv_pos_site_id
 _symmetry_equiv_pos_as_xyz
 1  'x, y, z'
loop_
 _atom_site_type_symbol
 _atom_site_label
 _atom_site_symmetry_multiplicity
 _atom_site_fract_x
 _atom_site_fract_y
 _atom_site_fract_z
 _atom_site_fract_occupancy
 Li  Li1  1  0.25000  0.50000  0.25000  1
 Li  Li2  1  0.75000  0.50000  0.75000  1
 Mn  Mn1  1  0.00000  0.00000  0.00000  1
 O  O1  1  0.40194  0.23015  0.17179  1
 O  O2  1  0.82821  0.23015  0.59806  1
 O  O3  1  0.59806  0.76985  0.40194  1
 O  O4  1  0.17179  0.76985  0.82821  1
 Si  Si1  1  0.50000  0.00000  0.50000  1
