CIF file written using JARVIS-Tools package.
data_H7C8NO
_symmetry_space_group_name_H-M  'P1'
_cell_length_a       5.86148
_cell_length_b       7.59309
_cell_length_c       7.40529
_cell_angle_alpha    99.4143
_cell_angle_beta     104.587
_cell_angle_gamma    104.723

_symmetry_Int_Tables_number  1
_chemical_formula_structural  H7C8NO
_chemical_formula_sum  H4C6N2O2
_cell_volume  299.2328026811182
_cell_formula_units_Z  2
loop_
  _symmetry_equiv_pos_site_id
 _symmetry_equiv_pos_as_xyz
 1  'x, y, z'
loop_
 _atom_site_type_symbol
 _atom_site_label
 _atom_site_symmetry_multiplicity
 _atom_site_fract_x
 _atom_site_fract_y
 _atom_site_fract_z
 _atom_site_fract_occupancy
 C  C1  1  0.82134  0.69907  0.97212  1
 C  C2  1  0.53604  0.10433  0.54993  1
 C  C3  1  0.55162  0.08435  0.04079  1
 C  C4  1  0.61366  0.07441  0.23130  1
 C  C5  1  0.47737  0.12450  0.35185  1
 C  C6  1  0.31483  0.03369  0.62341  1
 C  C7  1  0.21688  0.20438  0.08666  1
 C  C8  1  0.27656  0.18821  0.27448  1
 C  C9  1  0.35111  0.15015  0.96472  1
 C  C10  1  0.10427  0.60201  0.74250  1
 C  C11  1  0.89617  0.65818  0.66249  1
 C  C12  1  0.02960  0.64442  0.05357  1
 C  C13  1  0.86631  0.54062  0.32147  1
 C  C14  1  0.76124  0.71255  0.78370  1
 C  C15  1  0.17226  0.60135  0.93557  1
 C  C16  1  0.08727  0.62350  0.25104  1
 H  H1  1  0.06085  0.25301  0.02780  1
 H  H2  1  0.33889  0.90813  0.67149  1
 H  H3  1  0.90274  0.41871  0.37146  1
 H  H4  1  0.69531  0.48640  0.19989  1
 H  H5  1  0.70978  0.73686  0.06043  1
 H  H6  1  0.33192  0.55730  0.99582  1
 H  H7  1  0.60434  0.75918  0.72333  1
 H  H8  1  0.65282  0.68600  0.42920  1
 H  H9  1  0.14191  0.98593  0.50398  1
 H  H10  1  0.16958  0.22964  0.36535  1
 H  H11  1  0.65839  0.04470  0.94916  1
 H  H12  1  0.76692  0.02242  0.28957  1
 H  H13  1  0.11717  0.19020  0.73514  1
 H  H14  1  0.21162  0.56053  0.65213  1
 N  N1  1  0.28196  0.16272  0.77683  1
 N  N2  1  0.82038  0.66283  0.47267  1
 O  O1  1  0.74969  0.12430  0.65135  1
 O  O2  1  0.30194  0.65102  0.35634  1
