CIF file written using JARVIS-Tools package.
data_DySiOs2C
_symmetry_space_group_name_H-M  'Cmcm'
_cell_length_a       5.91398
_cell_length_b       5.91397
_cell_length_c       7.12579
_cell_angle_alpha    90
_cell_angle_beta     90
_cell_angle_gamma    141.848

_symmetry_Int_Tables_number  63
_chemical_formula_structural  DySiOs2C
_chemical_formula_sum  Dy2Si2Os4C2
_cell_volume  153.95793799349536
_cell_formula_units_Z  2
loop_
  _symmetry_equiv_pos_site_id
 _symmetry_equiv_pos_as_xyz
 1  'x, y, z'
loop_
 _atom_site_type_symbol
 _atom_site_label
 _atom_site_symmetry_multiplicity
 _atom_site_fract_x
 _atom_site_fract_y
 _atom_site_fract_z
 _atom_site_fract_occupancy
 C  C1  1  0.00000  0.00000  0.00000  1
 C  C2  1  0.00000  0.00000  0.50000  1
 Dy  Dy1  1  0.54763  0.45237  0.25000  1
 Dy  Dy2  1  0.45237  0.54763  0.75000  1
 Os  Os1  1  0.83512  0.16488  0.05726  1
 Os  Os2  1  0.16488  0.83512  0.94274  1
 Os  Os3  1  0.16488  0.83512  0.55726  1
 Os  Os4  1  0.83512  0.16488  0.44274  1
 Si  Si1  1  0.26919  0.73081  0.25000  1
 Si  Si2  1  0.73081  0.26919  0.75000  1
