CIF file written using JARVIS-Tools package.
data_NbSnS2
_symmetry_space_group_name_H-M  'P6_3/mmc'
_cell_length_a       3.36377
_cell_length_b       3.36377
_cell_length_c       17.616
_cell_angle_alpha    90
_cell_angle_beta     90
_cell_angle_gamma    120

_symmetry_Int_Tables_number  194
_chemical_formula_structural  NbSnS2
_chemical_formula_sum  Nb2Sn2S4
_cell_volume  172.6204203639955
_cell_formula_units_Z  2
loop_
  _symmetry_equiv_pos_site_id
 _symmetry_equiv_pos_as_xyz
 1  'x, y, z'
loop_
 _atom_site_type_symbol
 _atom_site_label
 _atom_site_symmetry_multiplicity
 _atom_site_fract_x
 _atom_site_fract_y
 _atom_site_fract_z
 _atom_site_fract_occupancy
 Nb  Nb1  1  0.33333  0.66667  0.25000  1
 Nb  Nb2  1  0.66667  0.33333  0.75000  1
 S  S1  1  0.00000  0.00000  0.66097  1
 S  S2  1  0.00000  0.00000  0.16097  1
 S  S3  1  0.00000  0.00000  0.83903  1
 S  S4  1  0.00000  0.00000  0.33903  1
 Sn  Sn1  1  0.00000  0.00000  0.00000  1
 Sn  Sn2  1  0.00000  0.00000  0.50000  1
