CIF file written using JARVIS-Tools package.
data_H6C11SO2
_symmetry_space_group_name_H-M  'P1'
_cell_length_a       6.05361
_cell_length_b       6.23773
_cell_length_c       7.10632
_cell_angle_alpha    115.788
_cell_angle_beta     91.2632
_cell_angle_gamma    116.647

_symmetry_Int_Tables_number  1
_chemical_formula_structural  H6C11SO2
_chemical_formula_sum  H6CSO2
_cell_volume  207.9443883469004
_cell_formula_units_Z  1
loop_
  _symmetry_equiv_pos_site_id
 _symmetry_equiv_pos_as_xyz
 1  'x, y, z'
loop_
 _atom_site_type_symbol
 _atom_site_label
 _atom_site_symmetry_multiplicity
 _atom_site_fract_x
 _atom_site_fract_y
 _atom_site_fract_z
 _atom_site_fract_occupancy
 C  C1  1  0.43697  0.12392  0.82000  1
 C  C2  1  0.44030  0.87803  0.75326  1
 C  C3  1  0.44759  0.63827  0.16920  1
 C  C4  1  0.48464  0.90435  0.29458  1
 C  C5  1  0.65274  0.63500  0.08866  1
 C  C6  1  0.67818  0.39663  0.95269  1
 C  C7  1  0.99485  0.85086  0.60251  1
 C  C8  1  0.20955  0.10537  0.74285  1
 C  C9  1  0.00356  0.60977  0.53781  1
 C  C10  1  0.72129  0.10657  0.31226  1
 C  C11  1  0.22542  0.62036  0.61297  1
 H  H1  1  0.19773  0.28935  0.78944  1
 H  H2  1  0.81924  0.83556  0.54091  1
 H  H3  1  0.61550  0.89081  0.81261  1
 H  H4  1  0.23225  0.43257  0.56317  1
 H  H5  1  0.27410  0.45221  0.13877  1
 H  H6  1  0.34376  0.95024  0.36585  1
 O  O1  1  0.77440  0.37197  0.39902  1
 O  O2  1  0.89251  0.42013  0.94089  1
 S  S1  1  0.90398  0.97173  0.17403  1
