CIF file written using JARVIS-Tools package.
data_TbBi5O9
_symmetry_space_group_name_H-M  'P1'
_cell_length_a       3.80475
_cell_length_b       6.94973
_cell_length_c       9.56169
_cell_angle_alpha    84.3601
_cell_angle_beta     76.8222
_cell_angle_gamma    87.6079

_symmetry_Int_Tables_number  1
_chemical_formula_structural  TbBi5O9
_chemical_formula_sum  TbBi5O9
_cell_volume  244.93227157561148
_cell_formula_units_Z  1
loop_
  _symmetry_equiv_pos_site_id
 _symmetry_equiv_pos_as_xyz
 1  'x, y, z'
loop_
 _atom_site_type_symbol
 _atom_site_label
 _atom_site_symmetry_multiplicity
 _atom_site_fract_x
 _atom_site_fract_y
 _atom_site_fract_z
 _atom_site_fract_occupancy
 Bi  Bi1  1  0.17295  0.40358  0.65459  1
 Bi  Bi2  1  0.52572  0.45967  0.99433  1
 Bi  Bi3  1  0.33022  0.10795  0.34822  1
 Bi  Bi4  1  0.84645  0.61660  0.32792  1
 Bi  Bi5  1  0.64783  0.87627  0.66033  1
 O  O1  1  0.82444  0.19663  0.55319  1
 O  O2  1  0.17520  0.75447  0.53972  1
 O  O3  1  0.35796  0.44004  0.30189  1
 O  O4  1  0.47073  0.14864  0.10673  1
 O  O5  1  0.08187  0.29719  0.88969  1
 O  O6  1  0.62534  0.90482  0.88743  1
 O  O7  1  0.64059  0.54856  0.74189  1
 O  O8  1  0.90776  0.94408  0.27535  1
 O  O9  1  0.96523  0.64810  0.09307  1
 Tb  Tb1  1  0.03196  0.98761  0.01796  1
