CIF file written using JARVIS-Tools package.
data_LiSbPHO5
_symmetry_space_group_name_H-M  'P-1'
_cell_length_a       5.25264
_cell_length_b       5.84183
_cell_length_c       7.85464
_cell_angle_alpha    106.06
_cell_angle_beta     107.283
_cell_angle_gamma    98.1107

_symmetry_Int_Tables_number  2
_chemical_formula_structural  LiSbPHO5
_chemical_formula_sum  Li2Sb2P2H2O0
_cell_volume  214.50860353850166
_cell_formula_units_Z  2
loop_
  _symmetry_equiv_pos_site_id
 _symmetry_equiv_pos_as_xyz
 1  'x, y, z'
loop_
 _atom_site_type_symbol
 _atom_site_label
 _atom_site_symmetry_multiplicity
 _atom_site_fract_x
 _atom_site_fract_y
 _atom_site_fract_z
 _atom_site_fract_occupancy
 H  H1  1  0.39743  0.04662  0.32710  1
 H  H2  1  0.60257  0.95338  0.67290  1
 Li  Li1  1  0.73546  0.40045  0.83447  1
 Li  Li2  1  0.26454  0.59955  0.16553  1
 O  O1  1  0.28435  0.79221  0.65375  1
 O  O2  1  0.71565  0.20779  0.34625  1
 O  O3  1  0.32830  0.36333  0.66450  1
 O  O4  1  0.78786  0.07085  0.72286  1
 O  O5  1  0.90821  0.38294  0.13397  1
 O  O6  1  0.09179  0.61706  0.86603  1
 O  O7  1  0.67170  0.63667  0.33550  1
 O  O8  1  0.39417  0.27237  0.05838  1
 O  O9  1  0.60583  0.72763  0.94162  1
 O  O10  1  0.21214  0.92915  0.27714  1
 P  P1  1  0.32122  0.62475  0.77724  1
 P  P2  1  0.67878  0.37525  0.22276  1
 Sb  Sb1  1  0.00000  0.00000  0.00000  1
 Sb  Sb2  1  0.00000  -0.00000  0.50000  1
