CIF file written using JARVIS-Tools package.
data_Ce2NiRu3
_symmetry_space_group_name_H-M  'R-3m'
_cell_length_a       5.22096
_cell_length_b       5.22096
_cell_length_c       5.22095
_cell_angle_alpha    61.4435
_cell_angle_beta     61.4435
_cell_angle_gamma    61.4436

_symmetry_Int_Tables_number  166
_chemical_formula_structural  Ce2NiRu3
_chemical_formula_sum  Ce2NiRu3
_cell_volume  103.89359648534266
_cell_formula_units_Z  1
loop_
  _symmetry_equiv_pos_site_id
 _symmetry_equiv_pos_as_xyz
 1  'x, y, z'
loop_
 _atom_site_type_symbol
 _atom_site_label
 _atom_site_symmetry_multiplicity
 _atom_site_fract_x
 _atom_site_fract_y
 _atom_site_fract_z
 _atom_site_fract_occupancy
 Ce  Ce1  1  0.62381  0.62381  0.62381  1
 Ce  Ce2  1  0.37619  0.37619  0.37619  1
 Ni  Ni1  1  0.00000  0.00000  0.00000  1
 Ru  Ru1  1  -0.00000  0.50000  -0.00000  1
 Ru  Ru2  1  0.50000  0.00000  -0.00000  1
 Ru  Ru3  1  -0.00000  -0.00000  0.50000  1
