CIF file written using JARVIS-Tools package.
data_H20PbC12O4
_symmetry_space_group_name_H-M  'P1'
_cell_length_a       3.86056
_cell_length_b       4.95315
_cell_length_c       15.9047
_cell_angle_alpha    91.3322
_cell_angle_beta     94.0961
_cell_angle_gamma    97.1377

_symmetry_Int_Tables_number  1
_chemical_formula_structural  H20PbC12O4
_chemical_formula_sum  H20PbC2O4
_cell_volume  300.842761643105
_cell_formula_units_Z  1
loop_
  _symmetry_equiv_pos_site_id
 _symmetry_equiv_pos_as_xyz
 1  'x, y, z'
loop_
 _atom_site_type_symbol
 _atom_site_label
 _atom_site_symmetry_multiplicity
 _atom_site_fract_x
 _atom_site_fract_y
 _atom_site_fract_z
 _atom_site_fract_occupancy
 C  C1  1  0.93075  -0.03623  0.61931  1
 C  C2  1  0.45637  0.45976  0.27293  1
 C  C3  1  0.29969  0.44098  0.35824  1
 C  C4  1  0.11266  0.18545  0.48486  1
 C  C5  1  0.02138  0.91696  0.52849  1
 C  C6  1  0.20677  0.15925  0.39328  1
 C  C7  1  0.82594  0.70542  0.66724  1
 C  C8  1  0.74288  0.77574  0.75713  1
 C  C9  1  0.61943  0.53595  0.81137  1
 C  C10  1  0.55312  0.64259  0.89911  1
 C  C11  1  0.39635  0.43151  0.95919  1
 C  C12  1  0.29523  0.56634  0.03917  1
 H  H1  1  0.49564  0.56249  0.40239  1
 H  H2  1  0.33404  0.30611  0.52199  1
 H  H3  1  0.15663  0.08478  0.65471  1
 H  H4  1  0.71658  0.09184  0.61914  1
 H  H5  1  0.07342  0.55622  0.35529  1
 H  H6  1  0.54103  0.91526  0.75409  1
 H  H7  1  0.89178  0.30602  0.48746  1
 H  H8  1  0.16034  0.30734  0.92978  1
 H  H9  1  0.58005  0.28696  0.97826  1
 H  H10  1  0.37782  0.42087  0.78100  1
 H  H11  1  0.81517  0.39178  0.81575  1
 H  H12  1  0.59561  0.58524  0.63346  1
 H  H13  1  0.97698  0.89399  0.79003  1
 H  H14  1  0.03714  0.57471  0.66849  1
 H  H15  1  0.24119  0.79512  0.52771  1
 H  H16  1  -0.01536  0.04632  0.35454  1
 H  H17  1  0.42816  0.04123  0.38905  1
 H  H18  1  0.37733  0.80084  0.89153  1
 H  H19  1  0.79921  0.74981  0.92937  1
 H  H20  1  0.79797  0.79498  0.49274  1
 O  O1  1  0.53679  0.24910  0.23620  1
 O  O2  1  0.07265  0.44237  0.08462  1
 O  O3  1  0.50794  0.70021  0.24461  1
 O  O4  1  0.43050  0.81553  0.05669  1
 Pb  Pb1  1  0.00882  0.93578  0.16114  1
