CIF file written using JARVIS-Tools package.
data_H10C15S2
_symmetry_space_group_name_H-M  'P2'
_cell_length_a       3.81779
_cell_length_b       6.22309
_cell_length_c       12.4853
_cell_angle_alpha    90
_cell_angle_beta     91.8046
_cell_angle_gamma    90

_symmetry_Int_Tables_number  3
_chemical_formula_structural  H10C15S2
_chemical_formula_sum  H0C5S2
_cell_volume  296.4849473970266
_cell_formula_units_Z  1
loop_
  _symmetry_equiv_pos_site_id
 _symmetry_equiv_pos_as_xyz
 1  'x, y, z'
loop_
 _atom_site_type_symbol
 _atom_site_label
 _atom_site_symmetry_multiplicity
 _atom_site_fract_x
 _atom_site_fract_y
 _atom_site_fract_z
 _atom_site_fract_occupancy
 C  C1  1  0.13757  0.51059  0.89521  1
 C  C2  1  0.27369  0.51236  0.78764  1
 C  C3  1  0.52664  0.62151  0.62780  1
 C  C4  1  0.47336  0.62151  0.37220  1
 C  C5  1  0.56589  0.67692  0.26654  1
 C  C6  1  0.43411  0.41486  0.59939  1
 C  C7  1  0.56589  0.41486  0.40061  1
 C  C8  1  0.72631  0.51236  0.21236  1
 C  C9  1  0.43411  0.67692  0.73346  1
 C  C10  1  0.50000  0.28675  0.50000  1
 C  C11  1  0.93354  0.70370  0.05103  1
 C  C12  1  0.06754  0.31792  0.94909  1
 C  C13  1  0.93246  0.31792  0.05091  1
 C  C14  1  0.06646  0.70370  0.94897  1
 C  C15  1  0.86243  0.51059  0.10479  1
 H  H1  1  0.87639  0.16574  0.08974  1
 H  H2  1  0.49217  0.83282  0.76928  1
 H  H3  1  0.12361  0.16574  0.91026  1
 H  H4  1  0.72454  0.17764  0.51620  1
 H  H5  1  0.27546  0.17764  0.48380  1
 H  H6  1  0.11428  0.85546  0.90885  1
 H  H7  1  0.50783  0.83282  0.23072  1
 H  H8  1  0.33162  0.72882  0.42418  1
 H  H9  1  0.66838  0.72882  0.57582  1
 H  H10  1  0.88572  0.85546  0.09115  1
 S  S1  1  0.23808  0.28710  0.70525  1
 S  S2  1  0.76192  0.28710  0.29475  1
