CIF file written using JARVIS-Tools package.
data_Er5Mg
_symmetry_space_group_name_H-M  'R32'
_cell_length_a       6.47555
_cell_length_b       6.47555
_cell_length_c       6.47555
_cell_angle_alpha    55.274
_cell_angle_beta     55.274
_cell_angle_gamma    55.274

_symmetry_Int_Tables_number  155
_chemical_formula_structural  Er5Mg
_chemical_formula_sum  Er5Mg
_cell_volume  170.91714781226767
_cell_formula_units_Z  1
loop_
  _symmetry_equiv_pos_site_id
 _symmetry_equiv_pos_as_xyz
 1  'x, y, z'
loop_
 _atom_site_type_symbol
 _atom_site_label
 _atom_site_symmetry_multiplicity
 _atom_site_fract_x
 _atom_site_fract_y
 _atom_site_fract_z
 _atom_site_fract_occupancy
 Er  Er1  1  0.50000  0.16106  0.83894  1
 Er  Er2  1  0.16106  0.83894  0.50000  1
 Er  Er3  1  0.83894  0.50000  0.16106  1
 Er  Er4  1  0.33291  0.33291  0.33291  1
 Er  Er5  1  0.66709  0.66709  0.66709  1
 Mg  Mg1  1  0.00000  0.00000  0.00000  1
