CIF file written using JARVIS-Tools package.
data_CaH2C3O4
_symmetry_space_group_name_H-M  'P1'
_cell_length_a       4.25811
_cell_length_b       6.53022
_cell_length_c       7.55415
_cell_angle_alpha    85.1678
_cell_angle_beta     80.4457
_cell_angle_gamma    82.134

_symmetry_Int_Tables_number  1
_chemical_formula_structural  CaH2C3O4
_chemical_formula_sum  Ca2H4C6O8
_cell_volume  204.7834566694898
_cell_formula_units_Z  2
loop_
  _symmetry_equiv_pos_site_id
 _symmetry_equiv_pos_as_xyz
 1  'x, y, z'
loop_
 _atom_site_type_symbol
 _atom_site_label
 _atom_site_symmetry_multiplicity
 _atom_site_fract_x
 _atom_site_fract_y
 _atom_site_fract_z
 _atom_site_fract_occupancy
 C  C1  1  0.42645  0.59586  0.71031  1
 C  C2  1  0.51354  0.20109  0.33188  1
 C  C3  1  0.42645  0.59587  0.21031  1
 C  C4  1  0.51354  0.20109  0.83188  1
 C  C5  1  0.29967  0.39638  0.28945  1
 C  C6  1  0.29967  0.39638  0.78945  1
 Ca  Ca1  1  0.93754  0.91306  0.51347  1
 Ca  Ca2  1  0.93753  0.91306  0.01347  1
 H  H1  1  0.11897  0.43043  0.40790  1
 H  H2  1  0.15853  0.35370  0.69101  1
 H  H3  1  0.15853  0.35370  0.19101  1
 H  H4  1  0.11897  0.43043  0.90790  1
 O  O1  1  0.78958  0.14874  0.74188  1
 O  O2  1  0.22966  0.76055  0.25143  1
 O  O3  1  0.68675  0.60138  0.10361  1
 O  O4  1  0.68675  0.60138  0.60361  1
 O  O5  1  0.40254  0.08292  0.46501  1
 O  O6  1  0.40254  0.08292  0.96501  1
 O  O7  1  0.78958  0.14874  0.24188  1
 O  O8  1  0.22966  0.76055  0.75143  1
