CIF file written using JARVIS-Tools package.
data_TlBSe3
_symmetry_space_group_name_H-M  'Cc'
_cell_length_a       6.22116
_cell_length_b       7.09935
_cell_length_c       7.11739
_cell_angle_alpha    108.78
_cell_angle_beta     103.618
_cell_angle_gamma    113.862

_symmetry_Int_Tables_number  9
_chemical_formula_structural  TlBSe3
_chemical_formula_sum  Tl2B2Se6
_cell_volume  246.70898899390983
_cell_formula_units_Z  2
loop_
  _symmetry_equiv_pos_site_id
 _symmetry_equiv_pos_as_xyz
 1  'x, y, z'
loop_
 _atom_site_type_symbol
 _atom_site_label
 _atom_site_symmetry_multiplicity
 _atom_site_fract_x
 _atom_site_fract_y
 _atom_site_fract_z
 _atom_site_fract_occupancy
 B  B1  1  0.35030  0.77197  0.04705  1
 B  B2  1  0.80329  0.72496  0.95298  1
 Se  Se1  1  0.58312  0.69380  0.66471  1
 Se  Se2  1  0.41851  0.02902  0.33537  1
 Se  Se3  1  0.09474  0.07875  0.12997  1
 Se  Se4  1  0.46460  0.94877  0.87006  1
 Se  Se5  1  0.96041  0.51838  0.89553  1
 Se  Se6  1  0.56495  0.62290  0.10448  1
 Tl  Tl1  1  0.93602  0.46026  0.35099  1
 Tl  Tl2  1  0.08494  0.10927  0.64884  1
