CIF file written using JARVIS-Tools package.
data_MgH2C3O4
_symmetry_space_group_name_H-M  'P1'
_cell_length_a       4.54435
_cell_length_b       5.77852
_cell_length_c       7.66465
_cell_angle_alpha    86.2752
_cell_angle_beta     108.438
_cell_angle_gamma    95.8356

_symmetry_Int_Tables_number  1
_chemical_formula_structural  MgH2C3O4
_chemical_formula_sum  Mg2H4C6O8
_cell_volume  189.83525403285873
_cell_formula_units_Z  2
loop_
  _symmetry_equiv_pos_site_id
 _symmetry_equiv_pos_as_xyz
 1  'x, y, z'
loop_
 _atom_site_type_symbol
 _atom_site_label
 _atom_site_symmetry_multiplicity
 _atom_site_fract_x
 _atom_site_fract_y
 _atom_site_fract_z
 _atom_site_fract_occupancy
 C  C1  1  0.56721  0.47512  0.28725  1
 C  C2  1  0.41383  0.89402  0.70100  1
 C  C3  1  0.48046  0.71675  0.20696  1
 C  C4  1  0.50545  0.65356  0.67988  1
 C  C5  1  0.75787  0.88605  0.20841  1
 C  C6  1  0.45198  0.47312  0.82015  1
 H  H1  1  0.34590  0.60334  0.54406  1
 H  H2  1  0.36172  0.78656  0.29456  1
 H  H3  1  0.74753  0.66373  0.68150  1
 H  H4  1  0.31373  0.70423  0.06828  1
 Mg  Mg1  1  0.93249  0.16090  0.56686  1
 Mg  Mg2  1  0.03062  0.22939  0.00808  1
 O  O1  1  0.17166  0.37788  0.79725  1
 O  O2  1  0.67757  0.42057  0.95670  1
 O  O3  1  0.82623  0.45443  0.41103  1
 O  O4  1  0.17356  0.90980  0.74803  1
 O  O5  1  0.81577  0.93119  0.05631  1
 O  O6  1  0.56118  0.07421  0.65089  1
 O  O7  1  0.92139  0.97407  0.35864  1
 O  O8  1  0.36502  0.30393  0.23310  1
