CIF file written using JARVIS-Tools package.
data_Al3GaN4
_symmetry_space_group_name_H-M  'Pm'
_cell_length_a       3.14246
_cell_length_b       5.07698
_cell_length_c       5.44108
_cell_angle_alpha    89.9542
_cell_angle_beta     90
_cell_angle_gamma    90

_symmetry_Int_Tables_number  6
_chemical_formula_structural  Al3GaN4
_chemical_formula_sum  Al3GaN4
_cell_volume  86.80813404381563
_cell_formula_units_Z  1
loop_
  _symmetry_equiv_pos_site_id
 _symmetry_equiv_pos_as_xyz
 1  'x, y, z'
loop_
 _atom_site_type_symbol
 _atom_site_label
 _atom_site_symmetry_multiplicity
 _atom_site_fract_x
 _atom_site_fract_y
 _atom_site_fract_z
 _atom_site_fract_occupancy
 Al  Al1  1  0.50000  0.49989  0.83262  1
 Al  Al2  1  0.50000  0.00050  0.16492  1
 Al  Al3  1  0.00000  0.00079  0.66858  1
 Ga  Ga1  1  0.00000  0.49916  0.33387  1
 N  N1  1  0.00000  0.10969  0.33375  1
 N  N2  1  0.50000  0.12314  0.83283  1
 N  N3  1  0.50000  0.62636  0.15822  1
 N  N4  1  0.00000  0.62406  0.67522  1
