CIF file written using JARVIS-Tools package.
data_H6C9S2O
_symmetry_space_group_name_H-M  'P1'
_cell_length_a       5.67928
_cell_length_b       8.57351
_cell_length_c       8.53686
_cell_angle_alpha    108.318
_cell_angle_beta     93.5105
_cell_angle_gamma    91.7613

_symmetry_Int_Tables_number  1
_chemical_formula_structural  H6C9S2O
_chemical_formula_sum  H2C8S4O2
_cell_volume  393.319087873763
_cell_formula_units_Z  2
loop_
  _symmetry_equiv_pos_site_id
 _symmetry_equiv_pos_as_xyz
 1  'x, y, z'
loop_
 _atom_site_type_symbol
 _atom_site_label
 _atom_site_symmetry_multiplicity
 _atom_site_fract_x
 _atom_site_fract_y
 _atom_site_fract_z
 _atom_site_fract_occupancy
 C  C1  1  0.68513  0.55985  0.89884  1
 C  C2  1  0.73762  0.42613  0.75653  1
 C  C3  1  0.70021  0.16711  0.51311  1
 C  C4  1  0.59862  0.01536  0.38332  1
 C  C5  1  0.48538  0.72345  0.12049  1
 C  C6  1  0.90872  0.25640  0.52378  1
 C  C7  1  0.48372  0.57743  0.98361  1
 C  C8  1  0.21149  0.83932  0.67621  1
 C  C9  1  0.20813  0.20317  0.03498  1
 C  C10  1  0.24740  0.44909  0.29063  1
 C  C11  1  0.19979  0.59679  0.41963  1
 C  C12  1  0.44826  0.36042  0.26516  1
 C  C13  1  0.42589  0.22090  0.11951  1
 C  C14  1  0.00550  0.82459  0.57804  1
 C  C15  1  0.00019  0.68631  0.43282  1
 C  C16  1  0.11325  0.07995  0.87625  1
 C  C17  1  0.69143  0.81780  0.13886  1
 C  C18  1  0.93026  0.40338  0.66190  1
 H  H1  1  0.86350  0.90787  0.60934  1
 H  H2  1  0.03992  0.21975  0.43333  1
 H  H3  1  0.56262  0.91416  0.43423  1
 H  H4  1  0.43007  0.03926  0.32518  1
 H  H5  1  0.08148  0.49122  0.68917  1
 H  H6  1  0.33643  0.48604  0.94935  1
 H  H7  1  0.08357  0.13755  0.77820  1
 H  H8  1  0.34108  0.75509  0.20046  1
 H  H9  1  0.60791  0.39481  0.34814  1
 H  H10  1  0.85129  0.65279  0.33984  1
 H  H11  1  0.56538  0.13676  0.07814  1
 H  H12  1  0.94325  0.02128  0.89020  1
 O  O1  1  0.28174  0.95373  0.82365  1
 O  O2  1  0.76398  0.96232  0.25685  1
 S  S1  1  0.40204  0.68403  0.59188  1
 S  S2  1  0.02773  0.35803  0.13302  1
 S  S3  1  0.88466  0.72988  -0.01169  1
 S  S4  1  0.52973  0.26093  0.67492  1
