CIF file written using JARVIS-Tools package.
data_BeZnS2
_symmetry_space_group_name_H-M  'R3m'
_cell_length_a       6.34832
_cell_length_b       6.34831
_cell_length_c       6.34832
_cell_angle_alpha    33.3312
_cell_angle_beta     33.3313
_cell_angle_gamma    33.3313

_symmetry_Int_Tables_number  160
_chemical_formula_structural  BeZnS2
_chemical_formula_sum  BeZnS2
_cell_volume  68.77966382644505
_cell_formula_units_Z  1
loop_
  _symmetry_equiv_pos_site_id
 _symmetry_equiv_pos_as_xyz
 1  'x, y, z'
loop_
 _atom_site_type_symbol
 _atom_site_label
 _atom_site_symmetry_multiplicity
 _atom_site_fract_x
 _atom_site_fract_y
 _atom_site_fract_z
 _atom_site_fract_occupancy
 Be  Be1  1  0.50044  0.50044  0.50044  1
 S  S1  1  0.13141  0.13141  0.13141  1
 S  S2  1  0.61665  0.61665  0.61665  1
 Zn  Zn1  1  0.00151  0.00151  0.00151  1
