CIF file written using JARVIS-Tools package.
data_Si2Rh3
_symmetry_space_group_name_H-M  'P-3m1'
_cell_length_a       3.98192
_cell_length_b       3.98192
_cell_length_c       5.18141
_cell_angle_alpha    90
_cell_angle_beta     90
_cell_angle_gamma    120

_symmetry_Int_Tables_number  164
_chemical_formula_structural  Si2Rh3
_chemical_formula_sum  Si2Rh3
_cell_volume  71.14818292492087
_cell_formula_units_Z  1
loop_
  _symmetry_equiv_pos_site_id
 _symmetry_equiv_pos_as_xyz
 1  'x, y, z'
loop_
 _atom_site_type_symbol
 _atom_site_label
 _atom_site_symmetry_multiplicity
 _atom_site_fract_x
 _atom_site_fract_y
 _atom_site_fract_z
 _atom_site_fract_occupancy
 Rh  Rh1  1  0.33333  0.66667  0.67288  1
 Rh  Rh2  1  0.66667  0.33333  0.32712  1
 Rh  Rh3  1  0.00000  0.00000  0.00000  1
 Si  Si1  1  0.33333  0.66667  0.20670  1
 Si  Si2  1  0.66667  0.33333  0.79330  1
