CIF file written using JARVIS-Tools package.
data_Sn3As
_symmetry_space_group_name_H-M  'P6_3/mmc'
_cell_length_a       6.60751
_cell_length_b       6.60751
_cell_length_c       5.50774
_cell_angle_alpha    90
_cell_angle_beta     90
_cell_angle_gamma    120

_symmetry_Int_Tables_number  194
_chemical_formula_structural  Sn3As
_chemical_formula_sum  Sn6As2
_cell_volume  208.24752874478688
_cell_formula_units_Z  2
loop_
  _symmetry_equiv_pos_site_id
 _symmetry_equiv_pos_as_xyz
 1  'x, y, z'
loop_
 _atom_site_type_symbol
 _atom_site_label
 _atom_site_symmetry_multiplicity
 _atom_site_fract_x
 _atom_site_fract_y
 _atom_site_fract_z
 _atom_site_fract_occupancy
 As  As1  1  0.33333  0.66667  0.75000  1
 As  As2  1  0.66667  0.33333  0.25000  1
 Sn  Sn1  1  0.17014  0.34028  0.25000  1
 Sn  Sn2  1  0.65972  0.82986  0.25000  1
 Sn  Sn3  1  0.17014  0.82986  0.25000  1
 Sn  Sn4  1  0.82986  0.65972  0.75000  1
 Sn  Sn5  1  0.34028  0.17014  0.75000  1
 Sn  Sn6  1  0.82986  0.17014  0.75000  1
