CIF file written using JARVIS-Tools package.
data_PtS2Cl8
_symmetry_space_group_name_H-M  'P2_1/c'
_cell_length_a       6.22426
_cell_length_b       7.127
_cell_length_c       12.3408
_cell_angle_alpha    90
_cell_angle_beta     98.8938
_cell_angle_gamma    90

_symmetry_Int_Tables_number  14
_chemical_formula_structural  PtS2Cl8
_chemical_formula_sum  Pt2S4Cl6
_cell_volume  540.8623379973042
_cell_formula_units_Z  2
loop_
  _symmetry_equiv_pos_site_id
 _symmetry_equiv_pos_as_xyz
 1  'x, y, z'
loop_
 _atom_site_type_symbol
 _atom_site_label
 _atom_site_symmetry_multiplicity
 _atom_site_fract_x
 _atom_site_fract_y
 _atom_site_fract_z
 _atom_site_fract_occupancy
 Cl  Cl1  1  0.29810  0.15913  0.66687  1
 Cl  Cl2  1  0.17158  0.60538  0.35421  1
 Cl  Cl3  1  0.82842  0.10538  0.14579  1
 Cl  Cl4  1  0.78055  0.92513  0.58671  1
 Cl  Cl5  1  0.21945  0.42513  0.91329  1
 Cl  Cl6  1  0.17158  0.89462  0.85421  1
 Cl  Cl7  1  0.78055  0.57487  0.08671  1
 Cl  Cl8  1  0.21945  0.07487  0.41329  1
 Cl  Cl9  1  0.70190  0.84087  0.33313  1
 Cl  Cl10  1  0.70190  0.65913  0.83313  1
 Cl  Cl11  1  0.82842  0.39462  0.64579  1
 Cl  Cl12  1  0.25687  0.83580  0.12457  1
 Cl  Cl13  1  0.74313  0.33580  0.37543  1
 Cl  Cl14  1  0.74313  0.16420  0.87543  1
 Cl  Cl15  1  0.25687  0.66420  0.62457  1
 Cl  Cl16  1  0.29810  0.34087  0.16687  1
 Pt  Pt1  1  0.00000  0.00000  0.00000  1
 Pt  Pt2  1  0.00000  0.50000  0.50000  1
 S  S1  1  0.29963  0.28813  0.52103  1
 S  S2  1  0.29963  0.21187  0.02103  1
 S  S3  1  0.70037  0.71187  0.47897  1
 S  S4  1  0.70037  0.78813  0.97897  1
