CIF file written using JARVIS-Tools package.
data_BaCeN2
_symmetry_space_group_name_H-M  'P6_3/mmc'
_cell_length_a       3.67984
_cell_length_b       3.67984
_cell_length_c       12.6895
_cell_angle_alpha    90
_cell_angle_beta     90
_cell_angle_gamma    120

_symmetry_Int_Tables_number  194
_chemical_formula_structural  BaCeN2
_chemical_formula_sum  Ba2Ce2N4
_cell_volume  148.81029476245743
_cell_formula_units_Z  2
loop_
  _symmetry_equiv_pos_site_id
 _symmetry_equiv_pos_as_xyz
 1  'x, y, z'
loop_
 _atom_site_type_symbol
 _atom_site_label
 _atom_site_symmetry_multiplicity
 _atom_site_fract_x
 _atom_site_fract_y
 _atom_site_fract_z
 _atom_site_fract_occupancy
 Ba  Ba1  1  0.33333  0.66667  0.25000  1
 Ba  Ba2  1  0.66667  0.33333  0.75000  1
 Ce  Ce1  1  0.00000  0.00000  0.00000  1
 Ce  Ce2  1  0.00000  0.00000  0.50000  1
 N  N1  1  0.33333  0.66667  0.59636  1
 N  N2  1  0.66667  0.33333  0.09636  1
 N  N3  1  0.33333  0.66667  0.90364  1
 N  N4  1  0.66667  0.33333  0.40364  1
