CIF file written using JARVIS-Tools package.
data_LaPdO4
_symmetry_space_group_name_H-M  'R-3m'
_cell_length_a       6.32118
_cell_length_b       6.32118
_cell_length_c       6.32118
_cell_angle_alpha    35.5152
_cell_angle_beta     35.5152
_cell_angle_gamma    35.5152

_symmetry_Int_Tables_number  166
_chemical_formula_structural  LaPdO4
_chemical_formula_sum  LaPdO4
_cell_volume  76.17347048657535
_cell_formula_units_Z  1
loop_
  _symmetry_equiv_pos_site_id
 _symmetry_equiv_pos_as_xyz
 1  'x, y, z'
loop_
 _atom_site_type_symbol
 _atom_site_label
 _atom_site_symmetry_multiplicity
 _atom_site_fract_x
 _atom_site_fract_y
 _atom_site_fract_z
 _atom_site_fract_occupancy
 La  La1  1  0.00000  0.00000  0.00000  1
 O  O1  1  0.61222  0.61222  0.61222  1
 O  O2  1  0.15756  0.15756  0.15756  1
 O  O3  1  0.84244  0.84244  0.84244  1
 O  O4  1  0.38778  0.38778  0.38778  1
 Pd  Pd1  1  0.50000  0.50000  0.50000  1
