CIF file written using JARVIS-Tools package.
data_Si2Hg6O7
_symmetry_space_group_name_H-M  'C2/m'
_cell_length_a       6.16106
_cell_length_b       7.09404
_cell_length_c       7.09403
_cell_angle_alpha    65.1303
_cell_angle_beta     72.1038
_cell_angle_gamma    72.1039

_symmetry_Int_Tables_number  12
_chemical_formula_structural  Si2Hg6O7
_chemical_formula_sum  Si2Hg6O7
_cell_volume  261.9387736994777
_cell_formula_units_Z  1
loop_
  _symmetry_equiv_pos_site_id
 _symmetry_equiv_pos_as_xyz
 1  'x, y, z'
loop_
 _atom_site_type_symbol
 _atom_site_label
 _atom_site_symmetry_multiplicity
 _atom_site_fract_x
 _atom_site_fract_y
 _atom_site_fract_z
 _atom_site_fract_occupancy
 Hg  Hg1  1  0.41598  0.87673  0.35515  1
 Hg  Hg2  1  0.58402  0.64485  0.12327  1
 Hg  Hg3  1  0.58402  0.12327  0.64485  1
 Hg  Hg4  1  0.41598  0.35515  0.87673  1
 Hg  Hg5  1  0.04821  0.88521  0.88521  1
 Hg  Hg6  1  0.95179  0.11479  0.11479  1
 O  O1  1  -0.00000  0.50000  0.50000  1
 O  O2  1  0.26093  0.12871  0.48563  1
 O  O3  1  0.73907  0.51437  0.87129  1
 O  O4  1  0.73907  0.87129  0.51437  1
 O  O5  1  0.26093  0.48563  0.12871  1
 O  O6  1  0.12125  0.69328  0.69328  1
 O  O7  1  0.87875  0.30672  0.30672  1
 Si  Si1  1  0.10225  0.35322  0.35322  1
 Si  Si2  1  0.89775  0.64678  0.64678  1
