CIF file written using JARVIS-Tools package.
data_Tl2Co3NiSe4
_symmetry_space_group_name_H-M  'C222'
_cell_length_a       7.36998
_cell_length_b       7.36998
_cell_length_c       5.42308
_cell_angle_alpha    90
_cell_angle_beta     90
_cell_angle_gamma    136.817

_symmetry_Int_Tables_number  21
_chemical_formula_structural  Tl2Co3NiSe4
_chemical_formula_sum  Tl2Co3NiSe4
_cell_volume  201.57875697128648
_cell_formula_units_Z  1
loop_
  _symmetry_equiv_pos_site_id
 _symmetry_equiv_pos_as_xyz
 1  'x, y, z'
loop_
 _atom_site_type_symbol
 _atom_site_label
 _atom_site_symmetry_multiplicity
 _atom_site_fract_x
 _atom_site_fract_y
 _atom_site_fract_z
 _atom_site_fract_occupancy
 Co  Co1  1  0.50000  0.50000  0.50000  1
 Co  Co2  1  0.50000  0.50000  0.00000  1
 Co  Co3  1  0.00000  0.00000  0.50000  1
 Ni  Ni1  1  0.00000  0.00000  0.00000  1
 Se  Se1  1  0.64526  0.84664  0.74587  1
 Se  Se2  1  0.15336  0.35474  0.25413  1
 Se  Se3  1  0.84664  0.64526  0.25413  1
 Se  Se4  1  0.35474  0.15336  0.74587  1
 Tl  Tl1  1  0.50000  0.00000  0.24973  1
 Tl  Tl2  1  -0.00000  0.50000  0.75027  1
