CIF file written using JARVIS-Tools package.
data_RbHgN3O6
_symmetry_space_group_name_H-M  'Pm-3'
_cell_length_a       5.85428
_cell_length_b       5.85428
_cell_length_c       5.85428
_cell_angle_alpha    90
_cell_angle_beta     90
_cell_angle_gamma    90

_symmetry_Int_Tables_number  200
_chemical_formula_structural  RbHgN3O6
_chemical_formula_sum  RbHgN3O6
_cell_volume  200.6418172430688
_cell_formula_units_Z  1
loop_
  _symmetry_equiv_pos_site_id
 _symmetry_equiv_pos_as_xyz
 1  'x, y, z'
loop_
 _atom_site_type_symbol
 _atom_site_label
 _atom_site_symmetry_multiplicity
 _atom_site_fract_x
 _atom_site_fract_y
 _atom_site_fract_z
 _atom_site_fract_occupancy
 Hg  Hg1  1  0.50000  0.50000  0.50000  1
 N  N1  1  0.50000  0.50000  0.00000  1
 N  N2  1  0.50000  0.00000  0.50000  1
 N  N3  1  0.00000  0.50000  0.50000  1
 O  O1  1  0.50000  0.00000  0.71252  1
 O  O2  1  0.00000  0.71252  0.50000  1
 O  O3  1  0.00000  0.28748  0.50000  1
 O  O4  1  0.50000  0.00000  0.28748  1
 O  O5  1  0.28748  0.50000  0.00000  1
 O  O6  1  0.71252  0.50000  0.00000  1
 Rb  Rb1  1  0.00000  0.00000  0.00000  1
