CIF file written using JARVIS-Tools package.
data_Li2UO4
_symmetry_space_group_name_H-M  'Pnma'
_cell_length_a       5.11666
_cell_length_b       6.06803
_cell_length_c       10.5875
_cell_angle_alpha    90
_cell_angle_beta     90
_cell_angle_gamma    90

_symmetry_Int_Tables_number  62
_chemical_formula_structural  Li2UO4
_chemical_formula_sum  Li8U4O6
_cell_volume  328.7196583880417
_cell_formula_units_Z  4
loop_
  _symmetry_equiv_pos_site_id
 _symmetry_equiv_pos_as_xyz
 1  'x, y, z'
loop_
 _atom_site_type_symbol
 _atom_site_label
 _atom_site_symmetry_multiplicity
 _atom_site_fract_x
 _atom_site_fract_y
 _atom_site_fract_z
 _atom_site_fract_occupancy
 Li  Li1  1  0.54301  0.75000  0.92698  1
 Li  Li2  1  0.04301  0.25000  0.57302  1
 Li  Li3  1  0.45699  0.25000  0.07302  1
 Li  Li4  1  0.95699  0.75000  0.42698  1
 Li  Li5  1  0.50000  0.00000  0.50000  1
 Li  Li6  1  0.00000  0.00000  0.00000  1
 Li  Li7  1  0.50000  0.50000  0.50000  1
 Li  Li8  1  0.00000  0.50000  0.00000  1
 O  O1  1  0.22582  0.25000  0.41428  1
 O  O2  1  0.76741  0.98606  0.33596  1
 O  O3  1  0.26741  0.01394  0.16404  1
 O  O4  1  0.18009  0.75000  0.89791  1
 O  O5  1  0.27418  0.25000  0.91428  1
 O  O6  1  0.77418  0.75000  0.58572  1
 O  O7  1  0.23259  0.48606  0.66404  1
 O  O8  1  0.72582  0.75000  0.08572  1
 O  O9  1  0.73259  0.98606  0.83596  1
 O  O10  1  0.81991  0.25000  0.10209  1
 O  O11  1  0.26741  0.48606  0.16404  1
 O  O12  1  0.76741  0.51394  0.33596  1
 O  O13  1  0.73259  0.51394  0.83596  1
 O  O14  1  0.31991  0.75000  0.39791  1
 O  O15  1  0.23259  0.01394  0.66404  1
 O  O16  1  0.68009  0.25000  0.60209  1
 U  U1  1  0.98687  0.75000  0.73782  1
 U  U2  1  0.48687  0.25000  0.76218  1
 U  U3  1  0.01313  0.25000  0.26218  1
 U  U4  1  0.51313  0.75000  0.23782  1
