CIF file written using JARVIS-Tools package.
data_NpPt3
_symmetry_space_group_name_H-M  'P6_3/mmc'
_cell_length_a       5.7593
_cell_length_b       5.7593
_cell_length_c       4.97457
_cell_angle_alpha    90
_cell_angle_beta     90
_cell_angle_gamma    120

_symmetry_Int_Tables_number  194
_chemical_formula_structural  NpPt3
_chemical_formula_sum  Np2Pt6
_cell_volume  142.89791052501002
_cell_formula_units_Z  2
loop_
  _symmetry_equiv_pos_site_id
 _symmetry_equiv_pos_as_xyz
 1  'x, y, z'
loop_
 _atom_site_type_symbol
 _atom_site_label
 _atom_site_symmetry_multiplicity
 _atom_site_fract_x
 _atom_site_fract_y
 _atom_site_fract_z
 _atom_site_fract_occupancy
 Np  Np1  1  0.66667  0.33333  0.25000  1
 Np  Np2  1  0.33333  0.66667  0.75000  1
 Pt  Pt1  1  0.83452  0.16548  0.75000  1
 Pt  Pt2  1  0.33096  0.16548  0.75000  1
 Pt  Pt3  1  0.83452  0.66904  0.75000  1
 Pt  Pt4  1  0.16548  0.83452  0.25000  1
 Pt  Pt5  1  0.66904  0.83452  0.25000  1
 Pt  Pt6  1  0.16548  0.33096  0.25000  1
