CIF file written using JARVIS-Tools package.
data_Ba2S2O3F2
_symmetry_space_group_name_H-M  'P1'
_cell_length_a       4.59861
_cell_length_b       4.66225
_cell_length_c       7.94794
_cell_angle_alpha    103.431
_cell_angle_beta     101.624
_cell_angle_gamma    87.505

_symmetry_Int_Tables_number  1
_chemical_formula_structural  Ba2S2O3F2
_chemical_formula_sum  Ba2S2O3F2
_cell_volume  162.3423827841913
_cell_formula_units_Z  1
loop_
  _symmetry_equiv_pos_site_id
 _symmetry_equiv_pos_as_xyz
 1  'x, y, z'
loop_
 _atom_site_type_symbol
 _atom_site_label
 _atom_site_symmetry_multiplicity
 _atom_site_fract_x
 _atom_site_fract_y
 _atom_site_fract_z
 _atom_site_fract_occupancy
 Ba  Ba1  1  0.80857  0.80709  0.68593  1
 Ba  Ba2  1  0.19866  0.19313  0.31000  1
 F  F1  1  0.24020  0.77606  0.49508  1
 F  F2  1  0.76001  0.24897  0.51559  1
 O  O1  1  0.11524  0.25693  0.94332  1
 O  O2  1  0.36354  0.56976  0.80164  1
 O  O3  1  0.67316  0.93706  0.12813  1
 S  S1  1  0.41189  0.33363  0.90733  1
 S  S2  1  0.63554  0.62318  0.17258  1
