CIF file written using JARVIS-Tools package.
data_CdGeP2
_symmetry_space_group_name_H-M  'I-42d'
_cell_length_a       5.80519
_cell_length_b       5.80519
_cell_length_c       6.85739
_cell_angle_alpha    115.042
_cell_angle_beta     115.042
_cell_angle_gamma    90

_symmetry_Int_Tables_number  122
_chemical_formula_structural  CdGeP2
_chemical_formula_sum  Cd2Ge2P4
_cell_volume  185.1176215669222
_cell_formula_units_Z  2
loop_
  _symmetry_equiv_pos_site_id
 _symmetry_equiv_pos_as_xyz
 1  'x, y, z'
loop_
 _atom_site_type_symbol
 _atom_site_label
 _atom_site_symmetry_multiplicity
 _atom_site_fract_x
 _atom_site_fract_y
 _atom_site_fract_z
 _atom_site_fract_occupancy
 Cd  Cd1  1  0.25000  0.75000  0.50000  1
 Cd  Cd2  1  0.00000  0.00000  0.00000  1
 Ge  Ge1  1  0.50000  0.50000  0.00000  1
 Ge  Ge2  1  0.75000  0.25000  0.50000  1
 P  P1  1  0.84419  0.87500  0.25000  1
 P  P2  1  0.62500  0.15581  0.75000  1
 P  P3  1  0.40581  0.37500  0.25000  1
 P  P4  1  0.12500  0.59419  0.75000  1
