CIF file written using JARVIS-Tools package.
data_CaBe3O4
_symmetry_space_group_name_H-M  'P-62c'
_cell_length_a       4.57913
_cell_length_b       4.57913
_cell_length_c       8.77446
_cell_angle_alpha    90
_cell_angle_beta     90
_cell_angle_gamma    120

_symmetry_Int_Tables_number  190
_chemical_formula_structural  CaBe3O4
_chemical_formula_sum  Ca2Be6O8
_cell_volume  159.33655249910728
_cell_formula_units_Z  2
loop_
  _symmetry_equiv_pos_site_id
 _symmetry_equiv_pos_as_xyz
 1  'x, y, z'
loop_
 _atom_site_type_symbol
 _atom_site_label
 _atom_site_symmetry_multiplicity
 _atom_site_fract_x
 _atom_site_fract_y
 _atom_site_fract_z
 _atom_site_fract_occupancy
 Be  Be1  1  0.33333  0.66667  0.42952  1
 Be  Be2  1  0.00000  0.00000  0.00000  1
 Be  Be3  1  0.00000  0.00000  0.50000  1
 Be  Be4  1  0.33333  0.66667  0.07048  1
 Be  Be5  1  0.66667  0.33333  0.92952  1
 Be  Be6  1  0.66667  0.33333  0.57048  1
 Ca  Ca1  1  0.33333  0.66667  0.75000  1
 Ca  Ca2  1  0.66667  0.33333  0.25000  1
 O  O1  1  0.00000  0.33577  0.00000  1
 O  O2  1  0.00000  0.33577  0.50000  1
 O  O3  1  0.33333  0.66667  0.25000  1
 O  O4  1  0.33577  0.00000  0.00000  1
 O  O5  1  0.33577  0.00000  0.50000  1
 O  O6  1  0.66667  0.33333  0.75000  1
 O  O7  1  0.66423  0.66423  0.00000  1
 O  O8  1  0.66423  0.66423  0.50000  1
