CIF file written using JARVIS-Tools package.
data_GaAu
_symmetry_space_group_name_H-M  'Pnma'
_cell_length_a       3.67721
_cell_length_b       6.36031
_cell_length_c       6.33146
_cell_angle_alpha    90
_cell_angle_beta     90
_cell_angle_gamma    90

_symmetry_Int_Tables_number  62
_chemical_formula_structural  GaAu
_chemical_formula_sum  Ga4Au4
_cell_volume  148.08127894223733
_cell_formula_units_Z  4
loop_
  _symmetry_equiv_pos_site_id
 _symmetry_equiv_pos_as_xyz
 1  'x, y, z'
loop_
 _atom_site_type_symbol
 _atom_site_label
 _atom_site_symmetry_multiplicity
 _atom_site_fract_x
 _atom_site_fract_y
 _atom_site_fract_z
 _atom_site_fract_occupancy
 Au  Au1  1  0.75000  0.69123  0.49298  1
 Au  Au2  1  0.25000  0.30877  0.50702  1
 Au  Au3  1  0.75000  0.80877  0.99298  1
 Au  Au4  1  0.25000  0.19123  0.00702  1
 Ga  Ga1  1  0.75000  0.07733  0.31545  1
 Ga  Ga2  1  0.25000  0.92267  0.68455  1
 Ga  Ga3  1  0.75000  0.42267  0.81545  1
 Ga  Ga4  1  0.25000  0.57733  0.18455  1
