CIF file written using JARVIS-Tools package.
data_K2AgSb
_symmetry_space_group_name_H-M  'Cmcm'
_cell_length_a       6.27076
_cell_length_b       6.64168
_cell_length_c       6.64167
_cell_angle_alpha    103.091
_cell_angle_beta     90
_cell_angle_gamma    90

_symmetry_Int_Tables_number  63
_chemical_formula_structural  K2AgSb
_chemical_formula_sum  K4Ag2Sb2
_cell_volume  269.4261665368676
_cell_formula_units_Z  2
loop_
  _symmetry_equiv_pos_site_id
 _symmetry_equiv_pos_as_xyz
 1  'x, y, z'
loop_
 _atom_site_type_symbol
 _atom_site_label
 _atom_site_symmetry_multiplicity
 _atom_site_fract_x
 _atom_site_fract_y
 _atom_site_fract_z
 _atom_site_fract_occupancy
 Ag  Ag1  1  0.00000  0.50001  0.49999  1
 Ag  Ag2  1  0.50000  0.49999  0.50001  1
 K  K1  1  0.25001  0.67730  0.02339  1
 K  K2  1  0.75001  0.32270  0.97661  1
 K  K3  1  0.24999  0.02339  0.67730  1
 K  K4  1  0.74999  0.97661  0.32270  1
 Sb  Sb1  1  0.25000  0.23050  0.23050  1
 Sb  Sb2  1  0.75000  0.76950  0.76950  1
