CIF file written using JARVIS-Tools package.
data_Sr2FeIrO6
_symmetry_space_group_name_H-M  'P-1'
_cell_length_a       5.60442
_cell_length_b       5.51682
_cell_length_c       5.60514
_cell_angle_alpha    60.5494
_cell_angle_beta     58.9674
_cell_angle_gamma    60.5505

_symmetry_Int_Tables_number  2
_chemical_formula_structural  Sr2FeIrO6
_chemical_formula_sum  Sr2FeIrO6
_cell_volume  122.54453123919762
_cell_formula_units_Z  1
loop_
  _symmetry_equiv_pos_site_id
 _symmetry_equiv_pos_as_xyz
 1  'x, y, z'
loop_
 _atom_site_type_symbol
 _atom_site_label
 _atom_site_symmetry_multiplicity
 _atom_site_fract_x
 _atom_site_fract_y
 _atom_site_fract_z
 _atom_site_fract_occupancy
 Fe  Fe1  1  0.50000  0.50000  0.50000  1
 Ir  Ir1  1  0.00000  0.00000  0.00000  1
 O  O1  1  0.75280  0.24802  0.75026  1
 O  O2  1  0.24720  0.75198  0.24974  1
 O  O3  1  0.21387  0.70842  0.78775  1
 O  O4  1  0.78613  0.29158  0.21225  1
 O  O5  1  0.70882  0.78729  0.29043  1
 O  O6  1  0.29118  0.21271  0.70957  1
 Sr  Sr1  1  0.75007  0.75002  0.74991  1
 Sr  Sr2  1  0.24993  0.24998  0.25009  1
