CIF file written using JARVIS-Tools package.
data_YZrSb
_symmetry_space_group_name_H-M  'I4/mmm'
_cell_length_a       4.26837
_cell_length_b       4.26837
_cell_length_c       8.85591
_cell_angle_alpha    103.945
_cell_angle_beta     103.945
_cell_angle_gamma    90

_symmetry_Int_Tables_number  139
_chemical_formula_structural  YZrSb
_chemical_formula_sum  Y2Zr2Sb2
_cell_volume  151.68651462661404
_cell_formula_units_Z  2
loop_
  _symmetry_equiv_pos_site_id
 _symmetry_equiv_pos_as_xyz
 1  'x, y, z'
loop_
 _atom_site_type_symbol
 _atom_site_label
 _atom_site_symmetry_multiplicity
 _atom_site_fract_x
 _atom_site_fract_y
 _atom_site_fract_z
 _atom_site_fract_occupancy
 Sb  Sb1  1  0.13379  0.13379  0.26757  1
 Sb  Sb2  1  0.86621  0.86621  0.73243  1
 Y  Y1  1  0.32317  0.32317  0.64635  1
 Y  Y2  1  0.67683  0.67683  0.35365  1
 Zr  Zr1  1  0.50000  -0.00000  -0.00000  1
 Zr  Zr2  1  0.00000  0.50000  0.00000  1
