CIF file written using JARVIS-Tools package.
data_MgPt5
_symmetry_space_group_name_H-M  'P-62m'
_cell_length_a       4.88451
_cell_length_b       4.88451
_cell_length_c       4.59366
_cell_angle_alpha    90
_cell_angle_beta     90
_cell_angle_gamma    120

_symmetry_Int_Tables_number  189
_chemical_formula_structural  MgPt5
_chemical_formula_sum  MgPt5
_cell_volume  94.91443235979371
_cell_formula_units_Z  1
loop_
  _symmetry_equiv_pos_site_id
 _symmetry_equiv_pos_as_xyz
 1  'x, y, z'
loop_
 _atom_site_type_symbol
 _atom_site_label
 _atom_site_symmetry_multiplicity
 _atom_site_fract_x
 _atom_site_fract_y
 _atom_site_fract_z
 _atom_site_fract_occupancy
 Mg  Mg1  1  0.00000  0.00000  0.00000  1
 Pt  Pt1  1  0.66081  -0.00000  0.50000  1
 Pt  Pt2  1  0.66667  0.33333  0.00000  1
 Pt  Pt3  1  0.33919  0.33919  0.50000  1
 Pt  Pt4  1  -0.00000  0.66081  0.50000  1
 Pt  Pt5  1  0.33333  0.66667  0.00000  1
