CIF file written using JARVIS-Tools package.
data_NdFeSi2
_symmetry_space_group_name_H-M  'Cmcm'
_cell_length_a       4.02626
_cell_length_b       4.1119
_cell_length_c       8.74511
_cell_angle_alpha    103.597
_cell_angle_beta     90
_cell_angle_gamma    90

_symmetry_Int_Tables_number  63
_chemical_formula_structural  NdFeSi2
_chemical_formula_sum  Nd2Fe2Si4
_cell_volume  140.72262216209492
_cell_formula_units_Z  2
loop_
  _symmetry_equiv_pos_site_id
 _symmetry_equiv_pos_as_xyz
 1  'x, y, z'
loop_
 _atom_site_type_symbol
 _atom_site_label
 _atom_site_symmetry_multiplicity
 _atom_site_fract_x
 _atom_site_fract_y
 _atom_site_fract_z
 _atom_site_fract_occupancy
 Fe  Fe1  1  0.75000  0.74948  0.49896  1
 Fe  Fe2  1  0.25000  0.25052  0.50104  1
 Nd  Nd1  1  0.25000  0.89295  0.78590  1
 Nd  Nd2  1  0.75000  0.10705  0.21410  1
 Si  Si1  1  0.25000  0.68935  0.37869  1
 Si  Si2  1  0.75000  0.31065  0.62131  1
 Si  Si3  1  0.75000  0.46152  0.92304  1
 Si  Si4  1  0.25000  0.53848  0.07696  1
