CIF file written using JARVIS-Tools package.
data_K2Zn3GeAs4
_symmetry_space_group_name_H-M  'C222'
_cell_length_a       7.67081
_cell_length_b       7.67081
_cell_length_c       5.82112
_cell_angle_alpha    90
_cell_angle_beta     90
_cell_angle_gamma    135.339

_symmetry_Int_Tables_number  21
_chemical_formula_structural  K2Zn3GeAs4
_chemical_formula_sum  K2Zn3GeAs4
_cell_volume  240.760744196892
_cell_formula_units_Z  1
loop_
  _symmetry_equiv_pos_site_id
 _symmetry_equiv_pos_as_xyz
 1  'x, y, z'
loop_
 _atom_site_type_symbol
 _atom_site_label
 _atom_site_symmetry_multiplicity
 _atom_site_fract_x
 _atom_site_fract_y
 _atom_site_fract_z
 _atom_site_fract_occupancy
 As  As1  1  0.64553  0.86687  0.75574  1
 As  As2  1  0.13313  0.35447  0.24426  1
 As  As3  1  0.86687  0.64553  0.24426  1
 As  As4  1  0.35447  0.13313  0.75574  1
 Ge  Ge1  1  0.00000  0.00000  0.00000  1
 K  K1  1  0.50000  0.00000  0.24795  1
 K  K2  1  -0.00000  0.50000  0.75205  1
 Zn  Zn1  1  0.50000  0.50000  0.50000  1
 Zn  Zn2  1  0.50000  0.50000  0.00000  1
 Zn  Zn3  1  0.00000  0.00000  0.50000  1
