CIF file written using JARVIS-Tools package.
data_TiVO4
_symmetry_space_group_name_H-M  'I4_1md'
_cell_length_a       5.45462
_cell_length_b       5.45462
_cell_length_c       5.45462
_cell_angle_alpha    73.1164
_cell_angle_beta     106.884
_cell_angle_gamma    65.2194

_symmetry_Int_Tables_number  109
_chemical_formula_structural  TiVO4
_chemical_formula_sum  Ti2V2O8
_cell_volume  124.11958984743463
_cell_formula_units_Z  2
loop_
  _symmetry_equiv_pos_site_id
 _symmetry_equiv_pos_as_xyz
 1  'x, y, z'
loop_
 _atom_site_type_symbol
 _atom_site_label
 _atom_site_symmetry_multiplicity
 _atom_site_fract_x
 _atom_site_fract_y
 _atom_site_fract_z
 _atom_site_fract_occupancy
 O  O1  1  0.56031  0.23877  0.79908  1
 O  O2  1  0.05463  0.74810  0.80273  1
 O  O3  1  0.01123  0.28785  0.70092  1
 O  O4  1  0.50190  0.80084  0.69727  1
 O  O5  1  0.01123  0.68969  0.29908  1
 O  O6  1  0.50190  0.19537  0.30273  1
 O  O7  1  0.96215  0.23877  0.20092  1
 O  O8  1  0.44916  0.74810  0.19727  1
 Ti  Ti1  1  0.73663  0.76337  0.50000  1
 Ti  Ti2  1  0.48663  0.51337  0.00000  1
 V  V1  1  0.23712  0.26288  0.50000  1
 V  V2  1  0.98712  0.01288  0.00000  1
