CIF file written using JARVIS-Tools package.
data_K2PdF6
_symmetry_space_group_name_H-M  'P-3m1'
_cell_length_a       5.74198
_cell_length_b       5.74198
_cell_length_c       4.6164
_cell_angle_alpha    90
_cell_angle_beta     90
_cell_angle_gamma    120

_symmetry_Int_Tables_number  164
_chemical_formula_structural  K2PdF6
_chemical_formula_sum  K2PdF6
_cell_volume  131.81241013899233
_cell_formula_units_Z  1
loop_
  _symmetry_equiv_pos_site_id
 _symmetry_equiv_pos_as_xyz
 1  'x, y, z'
loop_
 _atom_site_type_symbol
 _atom_site_label
 _atom_site_symmetry_multiplicity
 _atom_site_fract_x
 _atom_site_fract_y
 _atom_site_fract_z
 _atom_site_fract_occupancy
 F  F1  1  0.83607  0.67213  0.77186  1
 F  F2  1  0.32787  0.16393  0.77186  1
 F  F3  1  0.83607  0.16393  0.77186  1
 F  F4  1  0.16393  0.32787  0.22814  1
 F  F5  1  0.67213  0.83607  0.22814  1
 F  F6  1  0.16393  0.83607  0.22814  1
 K  K1  1  0.33333  0.66667  0.71716  1
 K  K2  1  0.66667  0.33333  0.28284  1
 Pd  Pd1  1  0.00000  0.00000  0.00000  1
