CIF file written using JARVIS-Tools package.
data_Sr2Bi
_symmetry_space_group_name_H-M  'I4/mmm'
_cell_length_a       5.08438
_cell_length_b       5.08438
_cell_length_c       9.71683
_cell_angle_alpha    105.167
_cell_angle_beta     105.167
_cell_angle_gamma    90.0001

_symmetry_Int_Tables_number  139
_chemical_formula_structural  Sr2Bi
_chemical_formula_sum  Sr4Bi2
_cell_volume  233.36275275977263
_cell_formula_units_Z  2
loop_
  _symmetry_equiv_pos_site_id
 _symmetry_equiv_pos_as_xyz
 1  'x, y, z'
loop_
 _atom_site_type_symbol
 _atom_site_label
 _atom_site_symmetry_multiplicity
 _atom_site_fract_x
 _atom_site_fract_y
 _atom_site_fract_z
 _atom_site_fract_occupancy
 Bi  Bi1  1  0.13575  0.13575  0.27149  1
 Bi  Bi2  1  0.86425  0.86425  0.72851  1
 Sr  Sr1  1  0.50000  -0.00000  -0.00000  1
 Sr  Sr2  1  0.00000  0.50000  -0.00000  1
 Sr  Sr3  1  0.32314  0.32314  0.64628  1
 Sr  Sr4  1  0.67686  0.67686  0.35372  1
