CIF file written using JARVIS-Tools package.
data_Te2Mo3WSe2S4
_symmetry_space_group_name_H-M  'P3m1'
_cell_length_a       3.32758
_cell_length_b       3.32742
_cell_length_c       37.0519
_cell_angle_alpha    90.0015
_cell_angle_beta     90
_cell_angle_gamma    120.002

_symmetry_Int_Tables_number  156
_chemical_formula_structural  Te2Mo3WSe2S4
_chemical_formula_sum  Te2Mo3WSe2S4
_cell_volume  355.27821396502264
_cell_formula_units_Z  1
loop_
  _symmetry_equiv_pos_site_id
 _symmetry_equiv_pos_as_xyz
 1  'x, y, z'
loop_
 _atom_site_type_symbol
 _atom_site_label
 _atom_site_symmetry_multiplicity
 _atom_site_fract_x
 _atom_site_fract_y
 _atom_site_fract_z
 _atom_site_fract_occupancy
 Mo  Mo1  1  0.33334  0.66668  0.09393  1
 Mo  Mo2  1  0.66668  0.33337  0.28176  1
 Mo  Mo3  1  0.66668  0.33336  0.65765  1
 S  S1  1  0.66663  0.33325  0.05314  1
 S  S2  1  0.66664  0.33329  0.42816  1
 S  S3  1  0.66663  0.33325  0.13521  1
 S  S4  1  0.66663  0.33327  0.51099  1
 Se  Se1  1  0.33336  0.66672  0.32680  1
 Se  Se2  1  0.33337  0.66674  0.23683  1
 Te  Te1  1  0.33336  0.66671  0.70864  1
 Te  Te2  1  0.33336  0.66672  0.60603  1
 W  W1  1  0.33332  0.66663  0.46962  1
