CIF file written using JARVIS-Tools package.
data_Li4ZrGe2
_symmetry_space_group_name_H-M  'R-3m'
_cell_length_a       7.61961
_cell_length_b       7.61961
_cell_length_c       7.61962
_cell_angle_alpha    33.815
_cell_angle_beta     33.815
_cell_angle_gamma    33.815

_symmetry_Int_Tables_number  166
_chemical_formula_structural  Li4ZrGe2
_chemical_formula_sum  Li4ZrGe2
_cell_volume  122.0894471230691
_cell_formula_units_Z  1
loop_
  _symmetry_equiv_pos_site_id
 _symmetry_equiv_pos_as_xyz
 1  'x, y, z'
loop_
 _atom_site_type_symbol
 _atom_site_label
 _atom_site_symmetry_multiplicity
 _atom_site_fract_x
 _atom_site_fract_y
 _atom_site_fract_z
 _atom_site_fract_occupancy
 Ge  Ge1  1  0.62296  0.62296  0.62296  1
 Ge  Ge2  1  0.37704  0.37704  0.37704  1
 Li  Li1  1  0.92604  0.92604  0.92604  1
 Li  Li2  1  0.74730  0.74730  0.74730  1
 Li  Li3  1  0.07396  0.07396  0.07396  1
 Li  Li4  1  0.25270  0.25270  0.25270  1
 Zr  Zr1  1  0.50000  0.50000  0.50000  1
