CIF file written using JARVIS-Tools package.
data_Li2MnV3O8
_symmetry_space_group_name_H-M  'R3m'
_cell_length_a       5.92415
_cell_length_b       5.92415
_cell_length_c       5.92415
_cell_angle_alpha    58.4673
_cell_angle_beta     58.4673
_cell_angle_gamma    58.4673

_symmetry_Int_Tables_number  160
_chemical_formula_structural  Li2MnV3O8
_chemical_formula_sum  Li2MnV3O8
_cell_volume  141.86011012299383
_cell_formula_units_Z  1
loop_
  _symmetry_equiv_pos_site_id
 _symmetry_equiv_pos_as_xyz
 1  'x, y, z'
loop_
 _atom_site_type_symbol
 _atom_site_label
 _atom_site_symmetry_multiplicity
 _atom_site_fract_x
 _atom_site_fract_y
 _atom_site_fract_z
 _atom_site_fract_occupancy
 Li  Li1  1  0.11976  0.11976  0.11976  1
 Li  Li2  1  0.50295  0.50295  0.50295  1
 Mn  Mn1  1  0.87430  0.87430  0.87430  1
 O  O1  1  0.25285  0.25285  0.25285  1
 O  O2  1  0.25271  0.25271  0.71687  1
 O  O3  1  0.25271  0.71687  0.25271  1
 O  O4  1  0.71687  0.25271  0.25271  1
 O  O5  1  0.28547  0.75140  0.75140  1
 O  O6  1  0.75140  0.28547  0.75140  1
 O  O7  1  0.75140  0.75140  0.28547  1
 O  O8  1  0.73833  0.73833  0.73833  1
 V  V1  1  0.02020  0.49053  0.49053  1
 V  V2  1  0.49053  0.02020  0.49053  1
 V  V3  1  0.49053  0.49053  0.02020  1
