CIF file written using JARVIS-Tools package.
data_NdSi2Rh2
_symmetry_space_group_name_H-M  'I4/mmm'
_cell_length_a       4.12007
_cell_length_b       4.12007
_cell_length_c       5.86484
_cell_angle_alpha    110.564
_cell_angle_beta     110.564
_cell_angle_gamma    90

_symmetry_Int_Tables_number  139
_chemical_formula_structural  NdSi2Rh2
_chemical_formula_sum  NdSi2Rh2
_cell_volume  86.40404921903915
_cell_formula_units_Z  1
loop_
  _symmetry_equiv_pos_site_id
 _symmetry_equiv_pos_as_xyz
 1  'x, y, z'
loop_
 _atom_site_type_symbol
 _atom_site_label
 _atom_site_symmetry_multiplicity
 _atom_site_fract_x
 _atom_site_fract_y
 _atom_site_fract_z
 _atom_site_fract_occupancy
 Nd  Nd1  1  0.00000  0.00000  0.00000  1
 Rh  Rh1  1  0.25000  0.75000  0.50000  1
 Rh  Rh2  1  0.75000  0.25000  0.50000  1
 Si  Si1  1  0.62486  0.62486  0.24972  1
 Si  Si2  1  0.37514  0.37514  0.75028  1
