CIF file written using JARVIS-Tools package.
data_CdH18C11O4
_symmetry_space_group_name_H-M  'P1'
_cell_length_a       4.08476
_cell_length_b       4.3121
_cell_length_c       15.631
_cell_angle_alpha    93.4826
_cell_angle_beta     94.2463
_cell_angle_gamma    105.826

_symmetry_Int_Tables_number  1
_chemical_formula_structural  CdH18C11O4
_chemical_formula_sum  CdH8CO4
_cell_volume  263.2184704528555
_cell_formula_units_Z  1
loop_
  _symmetry_equiv_pos_site_id
 _symmetry_equiv_pos_as_xyz
 1  'x, y, z'
loop_
 _atom_site_type_symbol
 _atom_site_label
 _atom_site_symmetry_multiplicity
 _atom_site_fract_x
 _atom_site_fract_y
 _atom_site_fract_z
 _atom_site_fract_occupancy
 C  C1  1  0.38793  0.39534  0.64146  1
 C  C2  1  0.33861  0.69189  0.26769  1
 C  C3  1  0.18279  0.61180  0.35224  1
 C  C4  1  0.50019  0.70718  0.50558  1
 C  C5  1  0.23864  0.53199  0.56406  1
 C  C6  1  0.35120  0.85396  0.43007  1
 C  C7  1  0.56025  0.64881  0.71584  1
 C  C8  1  0.68462  0.50038  0.79404  1
 C  C9  1  0.82811  0.74467  0.87200  1
 C  C10  1  0.93817  0.58175  0.94986  1
 C  C11  1  0.04024  0.81648  0.02963  1
 Cd  Cd1  1  0.67361  0.24522  0.14697  1
 H  H1  1  0.16692  0.97568  0.45312  1
 H  H2  1  0.90934  0.59387  0.33966  1
 H  H3  1  0.17969  0.21345  0.66660  1
 H  H4  1  0.19150  0.36426  0.36257  1
 H  H5  1  0.09997  0.69957  0.58823  1
 H  H6  1  0.46951  0.30725  0.81269  1
 H  H7  1  0.87886  0.38010  0.77622  1
 H  H8  1  0.72658  0.37547  0.96212  1
 H  H9  1  0.15781  0.49177  0.93627  1
 H  H10  1  0.04743  0.93775  0.85571  1
 H  H11  1  0.63670  0.54004  0.47994  1
 H  H12  1  0.04604  0.33497  0.52524  1
 H  H13  1  0.56936  0.26484  0.62080  1
 H  H14  1  0.37713  0.78003  0.73529  1
 H  H15  1  0.77680  0.83209  0.69434  1
 H  H16  1  0.63252  0.86287  0.88980  1
 H  H17  1  0.55757  0.04270  0.40718  1
 H  H18  1  0.69408  0.90179  0.54474  1
 O  O1  1  0.24260  0.47305  0.20355  1
 O  O2  1  0.55826  0.96063  0.26427  1
 O  O3  1  0.30198  0.05759  0.02871  1
 O  O4  1  0.85449  0.77234  0.09328  1
