CIF file written using JARVIS-Tools package.
data_K2AgP
_symmetry_space_group_name_H-M  'Cmcm'
_cell_length_a       5.94932
_cell_length_b       6.21109
_cell_length_c       6.2111
_cell_angle_alpha    103.65
_cell_angle_beta     90
_cell_angle_gamma    90

_symmetry_Int_Tables_number  63
_chemical_formula_structural  K2AgP
_chemical_formula_sum  K4Ag2P2
_cell_volume  223.0290715464322
_cell_formula_units_Z  2
loop_
  _symmetry_equiv_pos_site_id
 _symmetry_equiv_pos_as_xyz
 1  'x, y, z'
loop_
 _atom_site_type_symbol
 _atom_site_label
 _atom_site_symmetry_multiplicity
 _atom_site_fract_x
 _atom_site_fract_y
 _atom_site_fract_z
 _atom_site_fract_occupancy
 Ag  Ag1  1  0.50000  0.50000  0.50000  1
 Ag  Ag2  1  0.00000  0.50000  0.50000  1
 K  K1  1  0.75000  0.31221  0.96855  1
 K  K2  1  0.75000  0.96855  0.31221  1
 K  K3  1  0.25000  0.68779  0.03145  1
 K  K4  1  0.25000  0.03145  0.68779  1
 P  P1  1  0.75000  0.75658  0.75658  1
 P  P2  1  0.25000  0.24342  0.24342  1
