CIF file written using JARVIS-Tools package.
data_NaTiVS4
_symmetry_space_group_name_H-M  'Cm'
_cell_length_a       7.16129
_cell_length_b       7.1613
_cell_length_c       5.89867
_cell_angle_alpha    82.3674
_cell_angle_beta     82.3674
_cell_angle_gamma    27.7835

_symmetry_Int_Tables_number  8
_chemical_formula_structural  NaTiVS4
_chemical_formula_sum  NaTiVS4
_cell_volume  139.68296339124095
_cell_formula_units_Z  1
loop_
  _symmetry_equiv_pos_site_id
 _symmetry_equiv_pos_as_xyz
 1  'x, y, z'
loop_
 _atom_site_type_symbol
 _atom_site_label
 _atom_site_symmetry_multiplicity
 _atom_site_fract_x
 _atom_site_fract_y
 _atom_site_fract_z
 _atom_site_fract_occupancy
 Na  Na1  1  0.24391  0.24391  0.89863  1
 S  S1  1  0.89249  0.89249  0.70466  1
 S  S2  1  0.38761  0.38761  0.20519  1
 S  S3  1  0.59246  0.59246  0.81045  1
 S  S4  1  0.09891  0.09891  0.30525  1
 Ti  Ti1  1  0.49383  0.49383  0.49229  1
 V  V1  1  0.99179  0.99179  0.01653  1
