CIF file written using JARVIS-Tools package.
data_Ti3AlC
_symmetry_space_group_name_H-M  'Pm-3m'
_cell_length_a       4.18213
_cell_length_b       4.18213
_cell_length_c       4.18213
_cell_angle_alpha    90
_cell_angle_beta     90
_cell_angle_gamma    90

_symmetry_Int_Tables_number  221
_chemical_formula_structural  Ti3AlC
_chemical_formula_sum  Ti3AlC
_cell_volume  73.14655487305704
_cell_formula_units_Z  1
loop_
  _symmetry_equiv_pos_site_id
 _symmetry_equiv_pos_as_xyz
 1  'x, y, z'
loop_
 _atom_site_type_symbol
 _atom_site_label
 _atom_site_symmetry_multiplicity
 _atom_site_fract_x
 _atom_site_fract_y
 _atom_site_fract_z
 _atom_site_fract_occupancy
 Al  Al1  1  0.00000  0.00000  0.00000  1
 C  C1  1  0.50000  0.50000  0.50000  1
 Ti  Ti1  1  0.50000  0.50000  0.00000  1
 Ti  Ti2  1  0.50000  0.00000  0.50000  1
 Ti  Ti3  1  0.00000  0.50000  0.50000  1
