CIF file written using JARVIS-Tools package.
data_ZrMo2O8
_symmetry_space_group_name_H-M  'P-3m1'
_cell_length_a       5.95074
_cell_length_b       5.95074
_cell_length_c       5.75057
_cell_angle_alpha    90
_cell_angle_beta     90
_cell_angle_gamma    120

_symmetry_Int_Tables_number  164
_chemical_formula_structural  ZrMo2O8
_chemical_formula_sum  ZrMo2O8
_cell_volume  176.35313968717514
_cell_formula_units_Z  1
loop_
  _symmetry_equiv_pos_site_id
 _symmetry_equiv_pos_as_xyz
 1  'x, y, z'
loop_
 _atom_site_type_symbol
 _atom_site_label
 _atom_site_symmetry_multiplicity
 _atom_site_fract_x
 _atom_site_fract_y
 _atom_site_fract_z
 _atom_site_fract_occupancy
 Mo  Mo1  1  0.33333  0.66667  0.30388  1
 Mo  Mo2  1  0.66667  0.33333  0.69612  1
 O  O1  1  0.66667  0.33333  0.39857  1
 O  O2  1  0.33333  0.66667  0.60143  1
 O  O3  1  0.83218  0.16782  0.79533  1
 O  O4  1  0.16782  0.83218  0.20468  1
 O  O5  1  0.16782  0.33564  0.20468  1
 O  O6  1  0.83218  0.66436  0.79533  1
 O  O7  1  0.33564  0.16782  0.79533  1
 O  O8  1  0.66436  0.83218  0.20468  1
 Zr  Zr1  1  0.00000  0.00000  0.00000  1
