CIF file written using JARVIS-Tools package.
data_YbSi2Pd2
_symmetry_space_group_name_H-M  'I4/mmm'
_cell_length_a       4.24266
_cell_length_b       4.24266
_cell_length_c       5.72409
_cell_angle_alpha    111.752
_cell_angle_beta     111.752
_cell_angle_gamma    90

_symmetry_Int_Tables_number  139
_chemical_formula_structural  YbSi2Pd2
_chemical_formula_sum  YbSi2Pd2
_cell_volume  87.74953631846144
_cell_formula_units_Z  1
loop_
  _symmetry_equiv_pos_site_id
 _symmetry_equiv_pos_as_xyz
 1  'x, y, z'
loop_
 _atom_site_type_symbol
 _atom_site_label
 _atom_site_symmetry_multiplicity
 _atom_site_fract_x
 _atom_site_fract_y
 _atom_site_fract_z
 _atom_site_fract_occupancy
 Pd  Pd1  1  0.75000  0.25000  0.50000  1
 Pd  Pd2  1  0.25000  0.75000  0.50000  1
 Si  Si1  1  0.62152  0.62152  0.24303  1
 Si  Si2  1  0.37848  0.37848  0.75697  1
 Yb  Yb1  1  0.00000  0.00000  0.00000  1
