CIF file written using JARVIS-Tools package.
data_SrHfN2
_symmetry_space_group_name_H-M  'R-3m'
_cell_length_a       6.21746
_cell_length_b       6.21746
_cell_length_c       6.21745
_cell_angle_alpha    31.2426
_cell_angle_beta     31.2426
_cell_angle_gamma    31.2426

_symmetry_Int_Tables_number  166
_chemical_formula_structural  SrHfN2
_chemical_formula_sum  SrHfN2
_cell_volume  57.378749000659305
_cell_formula_units_Z  1
loop_
  _symmetry_equiv_pos_site_id
 _symmetry_equiv_pos_as_xyz
 1  'x, y, z'
loop_
 _atom_site_type_symbol
 _atom_site_label
 _atom_site_symmetry_multiplicity
 _atom_site_fract_x
 _atom_site_fract_y
 _atom_site_fract_z
 _atom_site_fract_occupancy
 Hf  Hf1  1  0.50000  0.50000  0.50000  1
 N  N1  1  0.76722  0.76722  0.76722  1
 N  N2  1  0.23278  0.23278  0.23278  1
 Sr  Sr1  1  0.00000  0.00000  0.00000  1
