CIF file written using JARVIS-Tools package.
data_U2Pd3Rh3
_symmetry_space_group_name_H-M  'Pmmm'
_cell_length_a       3.93774
_cell_length_b       4.06741
_cell_length_c       8.41298
_cell_angle_alpha    90
_cell_angle_beta     90
_cell_angle_gamma    90

_symmetry_Int_Tables_number  47
_chemical_formula_structural  U2Pd3Rh3
_chemical_formula_sum  U2Pd3Rh3
_cell_volume  134.74597507963475
_cell_formula_units_Z  1
loop_
  _symmetry_equiv_pos_site_id
 _symmetry_equiv_pos_as_xyz
 1  'x, y, z'
loop_
 _atom_site_type_symbol
 _atom_site_label
 _atom_site_symmetry_multiplicity
 _atom_site_fract_x
 _atom_site_fract_y
 _atom_site_fract_z
 _atom_site_fract_occupancy
 Pd  Pd1  1  0.50000  0.00000  0.50000  1
 Pd  Pd2  1  0.00000  0.50000  0.00000  1
 Pd  Pd3  1  0.00000  0.50000  0.50000  1
 Rh  Rh1  1  0.50000  0.50000  0.74974  1
 Rh  Rh2  1  0.50000  0.50000  0.25026  1
 Rh  Rh3  1  0.50000  0.00000  0.00000  1
 U  U1  1  0.00000  0.00000  0.75690  1
 U  U2  1  0.00000  0.00000  0.24310  1
