CIF file written using JARVIS-Tools package.
data_La2Bi2S4OF
_symmetry_space_group_name_H-M  'P-4m2'
_cell_length_a       4.09193
_cell_length_b       4.09193
_cell_length_c       13.2523
_cell_angle_alpha    90
_cell_angle_beta     90
_cell_angle_gamma    90

_symmetry_Int_Tables_number  115
_chemical_formula_structural  La2Bi2S4OF
_chemical_formula_sum  La2Bi2S4OF
_cell_volume  221.89408722532434
_cell_formula_units_Z  1
loop_
  _symmetry_equiv_pos_site_id
 _symmetry_equiv_pos_as_xyz
 1  'x, y, z'
loop_
 _atom_site_type_symbol
 _atom_site_label
 _atom_site_symmetry_multiplicity
 _atom_site_fract_x
 _atom_site_fract_y
 _atom_site_fract_z
 _atom_site_fract_occupancy
 Bi  Bi1  1  0.50000  0.00000  0.61552  1
 Bi  Bi2  1  0.00000  0.50000  0.38448  1
 F  F1  1  0.00000  0.00000  0.00000  1
 La  La1  1  0.50000  0.00000  0.10628  1
 La  La2  1  0.00000  0.50000  0.89372  1
 O  O1  1  0.50000  0.50000  0.00000  1
 S  S1  1  0.50000  0.00000  0.37988  1
 S  S2  1  0.00000  0.50000  0.62012  1
 S  S3  1  0.50000  0.00000  0.81513  1
 S  S4  1  0.00000  0.50000  0.18487  1
