CIF file written using JARVIS-Tools package.
data_Ti3Al5
_symmetry_space_group_name_H-M  'P4/mmm'
_cell_length_a       3.9146
_cell_length_b       3.9146
_cell_length_c       8.34287
_cell_angle_alpha    90
_cell_angle_beta     90
_cell_angle_gamma    90

_symmetry_Int_Tables_number  123
_chemical_formula_structural  Ti3Al5
_chemical_formula_sum  Ti3Al5
_cell_volume  127.84697829355633
_cell_formula_units_Z  1
loop_
  _symmetry_equiv_pos_site_id
 _symmetry_equiv_pos_as_xyz
 1  'x, y, z'
loop_
 _atom_site_type_symbol
 _atom_site_label
 _atom_site_symmetry_multiplicity
 _atom_site_fract_x
 _atom_site_fract_y
 _atom_site_fract_z
 _atom_site_fract_occupancy
 Al  Al1  1  0.00000  0.50000  0.25240  1
 Al  Al2  1  0.00000  0.50000  0.74760  1
 Al  Al3  1  0.50000  0.00000  0.25240  1
 Al  Al4  1  0.50000  0.00000  0.74760  1
 Al  Al5  1  0.00000  0.00000  0.00000  1
 Ti  Ti1  1  0.00000  0.00000  0.50000  1
 Ti  Ti2  1  0.50000  0.50000  0.00000  1
 Ti  Ti3  1  0.50000  0.50000  0.50000  1
