CIF file written using JARVIS-Tools package.
data_Pr4OsI5
_symmetry_space_group_name_H-M  'C2/m'
_cell_length_a       10.0422
_cell_length_b       10.0422
_cell_length_c       9.18475
_cell_angle_alpha    76.2819
_cell_angle_beta     76.2819
_cell_angle_gamma    24.7102

_symmetry_Int_Tables_number  12
_chemical_formula_structural  Pr4OsI5
_chemical_formula_sum  Pr4OsI5
_cell_volume  375.6154636158362
_cell_formula_units_Z  1
loop_
  _symmetry_equiv_pos_site_id
 _symmetry_equiv_pos_as_xyz
 1  'x, y, z'
loop_
 _atom_site_type_symbol
 _atom_site_label
 _atom_site_symmetry_multiplicity
 _atom_site_fract_x
 _atom_site_fract_y
 _atom_site_fract_z
 _atom_site_fract_occupancy
 I  I1  1  0.67254  0.67254  0.17738  1
 I  I2  1  0.32746  0.32746  0.82262  1
 I  I3  1  0.67152  0.67152  0.64955  1
 I  I4  1  0.32848  0.32848  0.35045  1
 I  I5  1  -0.00000  -0.00000  0.50000  1
 Os  Os1  1  0.00000  0.00000  0.00000  1
 Pr  Pr1  1  0.85530  0.85530  0.07599  1
 Pr  Pr2  1  0.14470  0.14470  0.92401  1
 Pr  Pr3  1  0.49867  0.49867  0.21268  1
 Pr  Pr4  1  0.50133  0.50133  0.78732  1
