CIF file written using JARVIS-Tools package.
data_Ag3Sn
_symmetry_space_group_name_H-M  'Pmmn'
_cell_length_a       4.84622
_cell_length_b       5.25041
_cell_length_c       6.05585
_cell_angle_alpha    90
_cell_angle_beta     90
_cell_angle_gamma    90

_symmetry_Int_Tables_number  59
_chemical_formula_structural  Ag3Sn
_chemical_formula_sum  Ag6Sn2
_cell_volume  154.08894122661033
_cell_formula_units_Z  2
loop_
  _symmetry_equiv_pos_site_id
 _symmetry_equiv_pos_as_xyz
 1  'x, y, z'
loop_
 _atom_site_type_symbol
 _atom_site_label
 _atom_site_symmetry_multiplicity
 _atom_site_fract_x
 _atom_site_fract_y
 _atom_site_fract_z
 _atom_site_fract_occupancy
 Ag  Ag1  1  0.50000  0.67899  0.00000  1
 Ag  Ag2  1  0.00000  0.32101  0.50000  1
 Ag  Ag3  1  0.00000  0.83737  0.25072  1
 Ag  Ag4  1  0.50000  0.16263  0.24928  1
 Ag  Ag5  1  0.00000  0.83737  0.74928  1
 Ag  Ag6  1  0.50000  0.16263  0.75072  1
 Sn  Sn1  1  0.00000  0.33576  0.00000  1
 Sn  Sn2  1  0.50000  0.66424  0.50000  1
