CIF file written using JARVIS-Tools package.
data_H12PbC8O4
_symmetry_space_group_name_H-M  'P-1'
_cell_length_a       3.97912
_cell_length_b       4.33335
_cell_length_c       12.963
_cell_angle_alpha    90.7482
_cell_angle_beta     93.5886
_cell_angle_gamma    103.105

_symmetry_Int_Tables_number  2
_chemical_formula_structural  H12PbC8O4
_chemical_formula_sum  H2PbC8O4
_cell_volume  217.18685865561855
_cell_formula_units_Z  1
loop_
  _symmetry_equiv_pos_site_id
 _symmetry_equiv_pos_as_xyz
 1  'x, y, z'
loop_
 _atom_site_type_symbol
 _atom_site_label
 _atom_site_symmetry_multiplicity
 _atom_site_fract_x
 _atom_site_fract_y
 _atom_site_fract_z
 _atom_site_fract_occupancy
 C  C1  1  0.62157  0.26468  0.99231  1
 C  C2  1  0.82387  0.27782  0.18239  1
 C  C3  1  0.94946  0.49109  0.27860  1
 C  C4  1  0.05155  0.31183  0.37198  1
 C  C5  1  0.17728  0.52508  0.46818  1
 C  C6  1  0.27358  0.33593  0.56040  1
 C  C7  1  0.37982  0.53810  0.65825  1
 C  C8  1  0.72750  0.46689  0.09016  1
 H  H1  1  0.82827  0.12251  0.39023  1
 H  H2  1  0.49228  0.23182  0.54304  1
 H  H3  1  0.94467  0.66356  0.07515  1
 H  H4  1  0.74629  0.61276  0.29881  1
 H  H5  1  0.17271  0.68045  0.26036  1
 H  H6  1  0.25466  0.19010  0.35176  1
 H  H7  1  0.40253  0.71330  0.45141  1
 H  H8  1  0.59868  0.08951  0.19915  1
 H  H9  1  0.02720  0.15769  0.16153  1
 H  H10  1  0.05632  0.13938  0.57543  1
 H  H11  1  0.50864  0.57082  0.10750  1
 H  H12  1  0.97405  0.64531  0.48905  1
 O  O1  1  0.60994  0.79408  0.65626  1
 O  O2  1  0.39142  0.00871  -0.00574  1
 O  O3  1  0.77294  0.35463  0.90885  1
 O  O4  1  0.22878  0.44811  0.74176  1
 Pb  Pb1  1  0.00063  0.90137  0.82528  1
