CIF file written using JARVIS-Tools package.
data_KCdF3
_symmetry_space_group_name_H-M  'Pnma'
_cell_length_a       6.10576
_cell_length_b       6.24215
_cell_length_c       8.69024
_cell_angle_alpha    90
_cell_angle_beta     90
_cell_angle_gamma    90

_symmetry_Int_Tables_number  62
_chemical_formula_structural  KCdF3
_chemical_formula_sum  K4Cd4F2
_cell_volume  331.2116511991976
_cell_formula_units_Z  4
loop_
  _symmetry_equiv_pos_site_id
 _symmetry_equiv_pos_as_xyz
 1  'x, y, z'
loop_
 _atom_site_type_symbol
 _atom_site_label
 _atom_site_symmetry_multiplicity
 _atom_site_fract_x
 _atom_site_fract_y
 _atom_site_fract_z
 _atom_site_fract_occupancy
 Cd  Cd1  1  0.50000  0.00000  0.00000  1
 Cd  Cd2  1  0.00000  0.50000  0.50000  1
 Cd  Cd3  1  0.00000  0.50000  0.00000  1
 Cd  Cd4  1  0.50000  0.00000  0.50000  1
 F  F1  1  0.08658  0.47207  0.25000  1
 F  F2  1  0.70401  0.29354  0.45459  1
 F  F3  1  0.58658  0.02793  0.75000  1
 F  F4  1  0.20401  0.20646  0.54541  1
 F  F5  1  0.29599  0.70646  0.95459  1
 F  F6  1  0.79599  0.79354  0.04541  1
 F  F7  1  0.20401  0.20646  0.95459  1
 F  F8  1  0.91342  0.52793  0.75000  1
 F  F9  1  0.70401  0.29354  0.04541  1
 F  F10  1  0.29599  0.70646  0.54541  1
 F  F11  1  0.41342  0.97207  0.25000  1
 F  F12  1  0.79599  0.79354  0.45459  1
 K  K1  1  0.01160  0.95316  0.75000  1
 K  K2  1  0.48840  0.45316  0.75000  1
 K  K3  1  0.51160  0.54684  0.25000  1
 K  K4  1  0.98840  0.04684  0.25000  1
