CIF file written using JARVIS-Tools package.
data_Na2BiO3
_symmetry_space_group_name_H-M  'C2/m'
_cell_length_a       5.94261
_cell_length_b       5.94261
_cell_length_c       5.89562
_cell_angle_alpha    80.1878
_cell_angle_beta     99.8122
_cell_angle_gamma    60.1435

_symmetry_Int_Tables_number  12
_chemical_formula_structural  Na2BiO3
_chemical_formula_sum  Na4Bi2O6
_cell_volume  169.80440943443776
_cell_formula_units_Z  2
loop_
  _symmetry_equiv_pos_site_id
 _symmetry_equiv_pos_as_xyz
 1  'x, y, z'
loop_
 _atom_site_type_symbol
 _atom_site_label
 _atom_site_symmetry_multiplicity
 _atom_site_fract_x
 _atom_site_fract_y
 _atom_site_fract_z
 _atom_site_fract_occupancy
 Bi  Bi1  1  0.66711  0.66711  0.00000  1
 Bi  Bi2  1  0.33289  0.33289  0.00000  1
 Na  Na1  1  0.15852  0.15852  0.50000  1
 Na  Na2  1  0.84148  0.84148  0.50000  1
 Na  Na3  1  0.50000  0.50000  0.50000  1
 Na  Na4  1  0.00000  0.00000  0.00000  1
 O  O1  1  0.27941  0.72059  0.77062  1
 O  O2  1  0.07613  0.56622  0.22595  1
 O  O3  1  0.43378  0.92387  0.22595  1
 O  O4  1  0.92387  0.43378  0.77405  1
 O  O5  1  0.56622  0.07613  0.77405  1
 O  O6  1  0.72059  0.27941  0.22938  1
