CIF file written using JARVIS-Tools package.
data_CaH2C3O4
_symmetry_space_group_name_H-M  'P1'
_cell_length_a       3.76258
_cell_length_b       6.32454
_cell_length_c       9.91717
_cell_angle_alpha    97.0818
_cell_angle_beta     91.2533
_cell_angle_gamma    106.845

_symmetry_Int_Tables_number  1
_chemical_formula_structural  CaH2C3O4
_chemical_formula_sum  Ca2H4C6O8
_cell_volume  223.7321974253684
_cell_formula_units_Z  2
loop_
  _symmetry_equiv_pos_site_id
 _symmetry_equiv_pos_as_xyz
 1  'x, y, z'
loop_
 _atom_site_type_symbol
 _atom_site_label
 _atom_site_symmetry_multiplicity
 _atom_site_fract_x
 _atom_site_fract_y
 _atom_site_fract_z
 _atom_site_fract_occupancy
 C  C1  1  0.84468  0.55732  0.26670  1
 C  C2  1  0.13713  0.13707  0.72464  1
 C  C3  1  0.34474  0.55732  0.76669  1
 C  C4  1  0.63707  0.13707  0.22463  1
 C  C5  1  0.47018  0.34667  0.75106  1
 C  C6  1  0.97011  0.34667  0.25106  1
 Ca  Ca1  1  0.43963  0.84890  0.49581  1
 Ca  Ca2  1  0.93962  0.84888  0.99581  1
 H  H1  1  0.64365  0.35429  0.66349  1
 H  H2  1  0.12135  0.33877  0.34499  1
 H  H3  1  0.62142  0.33878  0.84499  1
 H  H4  1  0.14358  0.35430  0.16348  1
 O  O1  1  0.47180  0.05966  0.32443  1
 O  O2  1  0.26243  0.62814  0.66104  1
 O  O3  1  0.32888  0.65008  0.88867  1
 O  O4  1  0.82889  0.65009  0.38868  1
 O  O5  1  0.03975  0.05186  0.59963  1
 O  O6  1  0.53974  0.05185  0.09962  1
 O  O7  1  0.97188  0.05966  0.82444  1
 O  O8  1  0.76232  0.62814  0.16105  1
