CIF file written using JARVIS-Tools package.
data_Sr3Mn2O7
_symmetry_space_group_name_H-M  'I4/mmm'
_cell_length_a       3.82866
_cell_length_b       3.82866
_cell_length_c       10.4204
_cell_angle_alpha    100.586
_cell_angle_beta     100.586
_cell_angle_gamma    90

_symmetry_Int_Tables_number  139
_chemical_formula_structural  Sr3Mn2O7
_chemical_formula_sum  Sr3Mn2O7
_cell_volume  147.50417631543198
_cell_formula_units_Z  1
loop_
  _symmetry_equiv_pos_site_id
 _symmetry_equiv_pos_as_xyz
 1  'x, y, z'
loop_
 _atom_site_type_symbol
 _atom_site_label
 _atom_site_symmetry_multiplicity
 _atom_site_fract_x
 _atom_site_fract_y
 _atom_site_fract_z
 _atom_site_fract_occupancy
 Mn  Mn1  1  0.09704  0.09704  0.19407  1
 Mn  Mn2  1  0.90296  0.90296  0.80593  1
 O  O1  1  0.90450  0.40450  0.80901  1
 O  O2  1  0.40450  0.90450  0.80901  1
 O  O3  1  0.09550  0.59550  0.19099  1
 O  O4  1  0.59550  0.09550  0.19099  1
 O  O5  1  0.80799  0.80799  0.61597  1
 O  O6  1  0.00000  0.00000  0.00000  1
 O  O7  1  0.19201  0.19201  0.38403  1
 Sr  Sr1  1  0.50000  0.50000  0.00000  1
 Sr  Sr2  1  0.31699  0.31699  0.63398  1
 Sr  Sr3  1  0.68301  0.68301  0.36602  1
