CIF file written using JARVIS-Tools package.
data_LiMnPO4
_symmetry_space_group_name_H-M  'Pnma'
_cell_length_a       5.73877
_cell_length_b       4.98482
_cell_length_c       10.5647
_cell_angle_alpha    90
_cell_angle_beta     90
_cell_angle_gamma    90

_symmetry_Int_Tables_number  62
_chemical_formula_structural  LiMnPO4
_chemical_formula_sum  Li4Mn4P4O6
_cell_volume  302.2214190634764
_cell_formula_units_Z  4
loop_
  _symmetry_equiv_pos_site_id
 _symmetry_equiv_pos_as_xyz
 1  'x, y, z'
loop_
 _atom_site_type_symbol
 _atom_site_label
 _atom_site_symmetry_multiplicity
 _atom_site_fract_x
 _atom_site_fract_y
 _atom_site_fract_z
 _atom_site_fract_occupancy
 Li  Li1  1  -0.00977  0.59033  0.05264  1
 Li  Li2  1  0.49023  0.09033  0.44736  1
 Li  Li3  1  -0.00977  0.90967  0.55264  1
 Li  Li4  1  0.49023  0.40967  0.94736  1
 Mn  Mn1  1  0.99013  -0.02908  0.23458  1
 Mn  Mn2  1  0.49013  0.47092  0.26542  1
 Mn  Mn3  1  0.99013  0.52908  0.73458  1
 Mn  Mn4  1  0.49013  0.02908  0.76542  1
 O  O1  1  0.49013  0.19228  0.10140  1
 O  O2  1  0.70553  0.75096  0.15170  1
 O  O3  1  0.27474  0.75097  0.15171  1
 O  O4  1  0.49013  0.79876  0.94376  1
 O  O5  1  0.20553  0.25096  0.34830  1
 O  O6  1  0.99013  0.80772  0.89860  1
 O  O7  1  0.99013  0.29876  0.55624  1
 O  O8  1  0.77474  0.25097  0.34829  1
 O  O9  1  0.49013  0.70124  0.44376  1
 O  O10  1  0.27474  0.74903  0.65171  1
 O  O11  1  0.20553  0.24904  0.84830  1
 O  O12  1  0.77474  0.24903  0.84829  1
 O  O13  1  0.99013  0.69228  0.39860  1
 O  O14  1  0.70553  0.74904  0.65170  1
 O  O15  1  0.49013  0.30772  0.60140  1
 O  O16  1  0.99013  0.20124  0.05624  1
 P  P1  1  0.49013  0.88766  0.08312  1
 P  P2  1  0.99013  0.38766  0.41688  1
 P  P3  1  0.49013  0.61234  0.58312  1
 P  P4  1  0.99013  0.11234  0.91688  1
