CIF file written using JARVIS-Tools package.
data_HfH10C7O4
_symmetry_space_group_name_H-M  'P1'
_cell_length_a       4.52491
_cell_length_b       4.93077
_cell_length_c       9.19253
_cell_angle_alpha    89.889
_cell_angle_beta     101.244
_cell_angle_gamma    69.6732

_symmetry_Int_Tables_number  1
_chemical_formula_structural  HfH10C7O4
_chemical_formula_sum  HfH0C7O4
_cell_volume  188.09114982350954
_cell_formula_units_Z  1
loop_
  _symmetry_equiv_pos_site_id
 _symmetry_equiv_pos_as_xyz
 1  'x, y, z'
loop_
 _atom_site_type_symbol
 _atom_site_label
 _atom_site_symmetry_multiplicity
 _atom_site_fract_x
 _atom_site_fract_y
 _atom_site_fract_z
 _atom_site_fract_occupancy
 C  C1  1  0.12444  0.46937  0.20099  1
 C  C2  1  0.76926  0.69188  0.38334  1
 C  C3  1  0.12207  0.12158  -0.01530  1
 C  C4  1  0.05599  0.60927  0.51708  1
 C  C5  1  -0.02231  0.56628  0.66792  1
 C  C6  1  0.25325  0.24328  0.09796  1
 C  C7  1  0.82433  0.48772  0.25693  1
 H  H1  1  0.51703  0.17270  0.11458  1
 H  H2  1  0.84885  0.26904  0.29813  1
 H  H3  1  0.08841  0.68497  0.14943  1
 H  H4  1  0.55229  0.69540  0.42078  1
 H  H5  1  0.61421  0.56509  0.16476  1
 H  H6  1  0.24315  0.40306  0.50237  1
 H  H7  1  0.17029  0.77378  0.52890  1
 H  H8  1  -0.28222  0.91474  0.33935  1
 H  H9  1  0.32167  0.43263  0.29796  1
 H  H10  1  0.33701  0.78503  0.85696  1
 Hf  Hf1  1  0.67591  0.16347  0.80640  1
 O  O1  1  0.88197  0.32839  0.67495  1
 O  O2  1  0.27181  0.51303  0.77915  1
 O  O3  1  0.74121  0.81294  0.70144  1
 O  O4  1  0.38307  0.95062  0.91041  1
