CIF file written using JARVIS-Tools package.
data_NbCo3
_symmetry_space_group_name_H-M  'P6_3/mmc'
_cell_length_a       5.18262
_cell_length_b       5.18261
_cell_length_c       4.14506
_cell_angle_alpha    90
_cell_angle_beta     90
_cell_angle_gamma    120

_symmetry_Int_Tables_number  194
_chemical_formula_structural  NbCo3
_chemical_formula_sum  Nb2Co6
_cell_volume  96.418324816538
_cell_formula_units_Z  2
loop_
  _symmetry_equiv_pos_site_id
 _symmetry_equiv_pos_as_xyz
 1  'x, y, z'
loop_
 _atom_site_type_symbol
 _atom_site_label
 _atom_site_symmetry_multiplicity
 _atom_site_fract_x
 _atom_site_fract_y
 _atom_site_fract_z
 _atom_site_fract_occupancy
 Co  Co1  1  0.31495  0.15748  0.75000  1
 Co  Co2  1  0.84252  0.68504  0.75000  1
 Co  Co3  1  0.15748  0.84252  0.25000  1
 Co  Co4  1  0.68504  0.84252  0.25000  1
 Co  Co5  1  0.15747  0.31495  0.25000  1
 Co  Co6  1  0.84253  0.15748  0.75000  1
 Nb  Nb1  1  0.66667  0.33334  0.25000  1
 Nb  Nb2  1  0.33334  0.66667  0.75000  1
