CIF file written using JARVIS-Tools package.
data_SnSb
_symmetry_space_group_name_H-M  'R3m'
_cell_length_a       4.34514
_cell_length_b       4.34514
_cell_length_c       4.34514
_cell_angle_alpha    72.4857
_cell_angle_beta     72.4856
_cell_angle_gamma    72.4856

_symmetry_Int_Tables_number  160
_chemical_formula_structural  SnSb
_chemical_formula_sum  SnSb
_cell_volume  72.58382372649882
_cell_formula_units_Z  1
loop_
  _symmetry_equiv_pos_site_id
 _symmetry_equiv_pos_as_xyz
 1  'x, y, z'
loop_
 _atom_site_type_symbol
 _atom_site_label
 _atom_site_symmetry_multiplicity
 _atom_site_fract_x
 _atom_site_fract_y
 _atom_site_fract_z
 _atom_site_fract_occupancy
 Sb  Sb1  1  0.65260  0.65260  0.65260  1
 Sn  Sn1  1  0.34740  0.34740  0.34740  1
