CIF file written using JARVIS-Tools package.
data_MoSeS
_symmetry_space_group_name_H-M  'P-6m2'
_cell_length_a       3.25708
_cell_length_b       3.25704
_cell_length_c       12.953
_cell_angle_alpha    89.9888
_cell_angle_beta     90
_cell_angle_gamma    120

_symmetry_Int_Tables_number  187
_chemical_formula_structural  MoSeS
_chemical_formula_sum  Mo2Se2S2
_cell_volume  119.00138859079253
_cell_formula_units_Z  2
loop_
  _symmetry_equiv_pos_site_id
 _symmetry_equiv_pos_as_xyz
 1  'x, y, z'
loop_
 _atom_site_type_symbol
 _atom_site_label
 _atom_site_symmetry_multiplicity
 _atom_site_fract_x
 _atom_site_fract_y
 _atom_site_fract_z
 _atom_site_fract_occupancy
 Mo  Mo1  1  0.33350  0.66701  0.05099  1
 Mo  Mo2  1  0.66649  0.33299  0.55088  1
 S  S1  1  0.66690  0.33380  -0.06840  1
 S  S2  1  0.66677  0.33354  0.17037  1
 Se  Se1  1  0.33309  0.66619  0.68203  1
 Se  Se2  1  0.33324  0.66647  0.41974  1
