CIF file written using JARVIS-Tools package.
data_HfUNb2C4
_symmetry_space_group_name_H-M  'R3m'
_cell_length_a       11.0756
_cell_length_b       11.0756
_cell_length_c       11.0756
_cell_angle_alpha    16.9096
_cell_angle_beta     16.9096
_cell_angle_gamma    16.9096

_symmetry_Int_Tables_number  160
_chemical_formula_structural  HfUNb2C4
_chemical_formula_sum  HfUNb2C4
_cell_volume  100.26371901990503
_cell_formula_units_Z  1
loop_
  _symmetry_equiv_pos_site_id
 _symmetry_equiv_pos_as_xyz
 1  'x, y, z'
loop_
 _atom_site_type_symbol
 _atom_site_label
 _atom_site_symmetry_multiplicity
 _atom_site_fract_x
 _atom_site_fract_y
 _atom_site_fract_z
 _atom_site_fract_occupancy
 C  C1  1  0.50654  0.50654  0.50654  1
 C  C2  1  0.25165  0.25165  0.25165  1
 C  C3  1  0.99641  0.99641  0.99641  1
 C  C4  1  0.74556  0.74556  0.74556  1
 Hf  Hf1  1  0.37055  0.37055  0.37055  1
 Nb  Nb1  1  0.87953  0.87953  0.87953  1
 Nb  Nb2  1  0.62373  0.62373  0.62373  1
 U  U1  1  0.12603  0.12603  0.12603  1
