CIF file written using JARVIS-Tools package.
data_Ti4Fe
_symmetry_space_group_name_H-M  'I4/mmm'
_cell_length_a       8.96391
_cell_length_b       8.96178
_cell_length_c       2.95691
_cell_angle_alpha    80.5461
_cell_angle_beta     80.4648
_cell_angle_gamma    18.9891

_symmetry_Int_Tables_number  139
_chemical_formula_structural  Ti4Fe
_chemical_formula_sum  Ti4Fe
_cell_volume  76.20215626244946
_cell_formula_units_Z  1
loop_
  _symmetry_equiv_pos_site_id
 _symmetry_equiv_pos_as_xyz
 1  'x, y, z'
loop_
 _atom_site_type_symbol
 _atom_site_label
 _atom_site_symmetry_multiplicity
 _atom_site_fract_x
 _atom_site_fract_y
 _atom_site_fract_z
 _atom_site_fract_occupancy
 Fe  Fe1  1  0.00000  0.00000  0.00000  1
 Ti  Ti1  1  0.41609  0.41609  0.58391  1
 Ti  Ti2  1  0.80724  0.80724  0.19276  1
 Ti  Ti3  1  0.19276  0.19276  0.80724  1
 Ti  Ti4  1  0.58391  0.58391  0.41609  1
