CIF file written using JARVIS-Tools package.
data_ZrH
_symmetry_space_group_name_H-M  'P4_2/mmc'
_cell_length_a       4.57216
_cell_length_b       4.57215
_cell_length_c       5.03515
_cell_angle_alpha    90
_cell_angle_beta     90.0002
_cell_angle_gamma    90

_symmetry_Int_Tables_number  131
_chemical_formula_structural  ZrH
_chemical_formula_sum  Zr4H4
_cell_volume  105.25771016529313
_cell_formula_units_Z  4
loop_
  _symmetry_equiv_pos_site_id
 _symmetry_equiv_pos_as_xyz
 1  'x, y, z'
loop_
 _atom_site_type_symbol
 _atom_site_label
 _atom_site_symmetry_multiplicity
 _atom_site_fract_x
 _atom_site_fract_y
 _atom_site_fract_z
 _atom_site_fract_occupancy
 H  H1  1  0.50000  0.50000  0.50000  1
 H  H2  1  0.00000  0.00000  1.00000  1
 H  H3  1  0.50000  0.50000  1.00000  1
 H  H4  1  1.00000  1.00000  0.50000  1
 Zr  Zr1  1  0.75000  0.25000  0.75000  1
 Zr  Zr2  1  0.25000  0.75000  0.75000  1
 Zr  Zr3  1  0.25000  0.25000  0.25000  1
 Zr  Zr4  1  0.75000  0.75000  0.25000  1
