CIF file written using JARVIS-Tools package.
data_KNa4Cl5
_symmetry_space_group_name_H-M  'R-3m'
_cell_length_a       16.8368
_cell_length_b       16.8368
_cell_length_c       16.8368
_cell_angle_alpha    13.7853
_cell_angle_beta     13.7853
_cell_angle_gamma    13.7853

_symmetry_Int_Tables_number  166
_chemical_formula_structural  KNa4Cl5
_chemical_formula_sum  KNa4Cl5
_cell_volume  235.82768936367427
_cell_formula_units_Z  1
loop_
  _symmetry_equiv_pos_site_id
 _symmetry_equiv_pos_as_xyz
 1  'x, y, z'
loop_
 _atom_site_type_symbol
 _atom_site_label
 _atom_site_symmetry_multiplicity
 _atom_site_fract_x
 _atom_site_fract_y
 _atom_site_fract_z
 _atom_site_fract_occupancy
 Cl  Cl1  1  0.70620  0.70620  0.70620  1
 Cl  Cl2  1  0.50000  0.50000  0.50000  1
 Cl  Cl3  1  0.10301  0.10301  0.10301  1
 Cl  Cl4  1  0.29380  0.29380  0.29380  1
 Cl  Cl5  1  0.89699  0.89699  0.89699  1
 K  K1  1  0.00000  0.00000  0.00000  1
 Na  Na1  1  0.59550  0.59550  0.59550  1
 Na  Na2  1  0.19848  0.19848  0.19848  1
 Na  Na3  1  0.80152  0.80152  0.80152  1
 Na  Na4  1  0.40450  0.40450  0.40450  1
