CIF file written using JARVIS-Tools package.
data_PS
_symmetry_space_group_name_H-M  'C2/c'
_cell_length_a       6.62901
_cell_length_b       6.62901
_cell_length_c       8.78176
_cell_angle_alpha    80.3688
_cell_angle_beta     80.3688
_cell_angle_gamma    84.9782

_symmetry_Int_Tables_number  15
_chemical_formula_structural  PS
_chemical_formula_sum  P8S8
_cell_volume  374.3966480496416
_cell_formula_units_Z  8
loop_
  _symmetry_equiv_pos_site_id
 _symmetry_equiv_pos_as_xyz
 1  'x, y, z'
loop_
 _atom_site_type_symbol
 _atom_site_label
 _atom_site_symmetry_multiplicity
 _atom_site_fract_x
 _atom_site_fract_y
 _atom_site_fract_z
 _atom_site_fract_occupancy
 P  P1  1  0.19794  0.79383  0.43649  1
 P  P2  1  0.20617  0.80206  0.06351  1
 P  P3  1  0.80206  0.20617  0.56351  1
 P  P4  1  0.79383  0.19794  0.93649  1
 P  P5  1  0.54740  0.76199  0.13028  1
 P  P6  1  0.23801  0.45260  0.36972  1
 P  P7  1  0.45260  0.23801  0.86972  1
 P  P8  1  0.76199  0.54740  0.63028  1
 S  S1  1  0.54721  0.45279  0.25000  1
 S  S2  1  0.45279  0.54721  0.75000  1
 S  S3  1  0.04813  0.95187  0.25000  1
 S  S4  1  0.95187  0.04813  0.75000  1
 S  S5  1  0.49456  0.89858  0.33724  1
 S  S6  1  0.10142  0.50544  0.16276  1
 S  S7  1  0.50544  0.10142  0.66276  1
 S  S8  1  0.89858  0.49456  0.83724  1
