CIF file written using JARVIS-Tools package.
data_AlGaN2
_symmetry_space_group_name_H-M  'P3m1'
_cell_length_a       3.16391
_cell_length_b       3.1639
_cell_length_c       5.13786
_cell_angle_alpha    90
_cell_angle_beta     90
_cell_angle_gamma    120

_symmetry_Int_Tables_number  156
_chemical_formula_structural  AlGaN2
_chemical_formula_sum  AlGaN2
_cell_volume  44.54100430246914
_cell_formula_units_Z  1
loop_
  _symmetry_equiv_pos_site_id
 _symmetry_equiv_pos_as_xyz
 1  'x, y, z'
loop_
 _atom_site_type_symbol
 _atom_site_label
 _atom_site_symmetry_multiplicity
 _atom_site_fract_x
 _atom_site_fract_y
 _atom_site_fract_z
 _atom_site_fract_occupancy
 Al  Al1  1  0.00000  0.00000  0.99918  1
 Ga  Ga1  1  0.66667  0.33333  0.49691  1
 N  N1  1  0.66667  0.33333  0.11140  1
 N  N2  1  0.00000  0.00000  0.62890  1
