CIF file written using JARVIS-Tools package.
data_DySI
_symmetry_space_group_name_H-M  'Pmmn'
_cell_length_a       4.17258
_cell_length_b       5.3489
_cell_length_c       9.12494
_cell_angle_alpha    90
_cell_angle_beta     90
_cell_angle_gamma    90

_symmetry_Int_Tables_number  59
_chemical_formula_structural  DySI
_chemical_formula_sum  Dy2S2I2
_cell_volume  203.65696734689962
_cell_formula_units_Z  2
loop_
  _symmetry_equiv_pos_site_id
 _symmetry_equiv_pos_as_xyz
 1  'x, y, z'
loop_
 _atom_site_type_symbol
 _atom_site_label
 _atom_site_symmetry_multiplicity
 _atom_site_fract_x
 _atom_site_fract_y
 _atom_site_fract_z
 _atom_site_fract_occupancy
 Dy  Dy1  1  0.00000  0.00000  0.12249  1
 Dy  Dy2  1  0.50000  0.50000  0.87751  1
 I  I1  1  0.00000  0.50000  0.63615  1
 I  I2  1  0.50000  0.00000  0.36385  1
 S  S1  1  0.50000  0.00000  0.92737  1
 S  S2  1  0.00000  0.50000  0.07263  1
