CIF file written using JARVIS-Tools package.
data_Pr5CuSe8
_symmetry_space_group_name_H-M  'I-4'
_cell_length_a       7.73893
_cell_length_b       7.73893
_cell_length_c       7.73893
_cell_angle_alpha    110.304
_cell_angle_beta     110.304
_cell_angle_gamma    107.818

_symmetry_Int_Tables_number  82
_chemical_formula_structural  Pr5CuSe8
_chemical_formula_sum  Pr5CuSe8
_cell_volume  356.5744048925092
_cell_formula_units_Z  1
loop_
  _symmetry_equiv_pos_site_id
 _symmetry_equiv_pos_as_xyz
 1  'x, y, z'
loop_
 _atom_site_type_symbol
 _atom_site_label
 _atom_site_symmetry_multiplicity
 _atom_site_fract_x
 _atom_site_fract_y
 _atom_site_fract_z
 _atom_site_fract_occupancy
 Cu  Cu1  1  0.87500  0.12500  0.75000  1
 Pr  Pr1  1  0.11447  0.74363  0.87302  1
 Pr  Pr2  1  0.25637  0.62939  0.37084  1
 Pr  Pr3  1  0.37061  0.24145  0.62698  1
 Pr  Pr4  1  0.62500  0.37500  0.25000  1
 Pr  Pr5  1  0.75855  0.88553  0.12916  1
 Se  Se1  1  0.48025  0.99008  0.85251  1
 Se  Se2  1  0.52560  0.01727  0.37795  1
 Se  Se3  1  0.13932  0.14765  0.12205  1
 Se  Se4  1  0.37226  0.51975  0.00984  1
 Se  Se5  1  0.63758  0.62774  0.64749  1
 Se  Se6  1  0.98273  0.86068  0.50833  1
 Se  Se7  1  0.85235  0.47440  0.99167  1
 Se  Se8  1  0.00992  0.36242  0.49016  1
