CIF file written using JARVIS-Tools package.
data_Y4Cu2O7
_symmetry_space_group_name_H-M  'C2/m'
_cell_length_a       8.3326
_cell_length_b       6.31675
_cell_length_c       6.31675
_cell_angle_alpha    33.7194
_cell_angle_beta     108.605
_cell_angle_gamma    108.605

_symmetry_Int_Tables_number  12
_chemical_formula_structural  Y4Cu2O7
_chemical_formula_sum  Y4Cu2O7
_cell_volume  174.01119972631275
_cell_formula_units_Z  1
loop_
  _symmetry_equiv_pos_site_id
 _symmetry_equiv_pos_as_xyz
 1  'x, y, z'
loop_
 _atom_site_type_symbol
 _atom_site_label
 _atom_site_symmetry_multiplicity
 _atom_site_fract_x
 _atom_site_fract_y
 _atom_site_fract_z
 _atom_site_fract_occupancy
 Cu  Cu1  1  0.00000  0.00000  0.00000  1
 Cu  Cu2  1  0.50000  0.00000  0.00000  1
 O  O1  1  0.12049  0.74901  0.74901  1
 O  O2  1  -0.00000  0.50000  0.50000  1
 O  O3  1  0.71175  0.98610  0.98610  1
 O  O4  1  0.38729  0.28041  0.28041  1
 O  O5  1  0.61271  0.71959  0.71959  1
 O  O6  1  0.28825  0.01390  0.01390  1
 O  O7  1  0.87951  0.25099  0.25099  1
 Y  Y1  1  0.16278  0.35754  0.35754  1
 Y  Y2  1  0.32113  0.66283  0.66283  1
 Y  Y3  1  0.67887  0.33717  0.33717  1
 Y  Y4  1  0.83722  0.64246  0.64246  1
