CIF file written using JARVIS-Tools package.
data_Pr2Si3Ni
_symmetry_space_group_name_H-M  'P-6m2'
_cell_length_a       4.07861
_cell_length_b       4.07861
_cell_length_c       8.51583
_cell_angle_alpha    90
_cell_angle_beta     90
_cell_angle_gamma    120

_symmetry_Int_Tables_number  187
_chemical_formula_structural  Pr2Si3Ni
_chemical_formula_sum  Pr2Si3Ni
_cell_volume  122.68202041897385
_cell_formula_units_Z  1
loop_
  _symmetry_equiv_pos_site_id
 _symmetry_equiv_pos_as_xyz
 1  'x, y, z'
loop_
 _atom_site_type_symbol
 _atom_site_label
 _atom_site_symmetry_multiplicity
 _atom_site_fract_x
 _atom_site_fract_y
 _atom_site_fract_z
 _atom_site_fract_occupancy
 Ni  Ni1  1  0.66667  0.33333  0.00000  1
 Pr  Pr1  1  0.33333  0.66667  0.24358  1
 Pr  Pr2  1  0.33333  0.66667  0.75642  1
 Si  Si1  1  0.66667  0.33333  0.50000  1
 Si  Si2  1  0.00000  0.00000  0.00000  1
 Si  Si3  1  0.00000  0.00000  0.50000  1
