CIF file written using JARVIS-Tools package.
data_Al2CdSe4
_symmetry_space_group_name_H-M  'I-4'
_cell_length_a       5.80767
_cell_length_b       5.80767
_cell_length_c       6.8011
_cell_angle_alpha    115.275
_cell_angle_beta     115.275
_cell_angle_gamma    90

_symmetry_Int_Tables_number  82
_chemical_formula_structural  Al2CdSe4
_chemical_formula_sum  Al2CdSe4
_cell_volume  182.85486691035646
_cell_formula_units_Z  1
loop_
  _symmetry_equiv_pos_site_id
 _symmetry_equiv_pos_as_xyz
 1  'x, y, z'
loop_
 _atom_site_type_symbol
 _atom_site_label
 _atom_site_symmetry_multiplicity
 _atom_site_fract_x
 _atom_site_fract_y
 _atom_site_fract_z
 _atom_site_fract_occupancy
 Al  Al1  1  0.25000  0.75000  0.50000  1
 Al  Al2  1  0.50000  0.50000  -0.00000  1
 Cd  Cd1  1  0.00000  0.00000  0.00000  1
 Se  Se1  1  0.86471  0.87389  0.27681  1
 Se  Se2  1  0.41210  0.40292  0.27681  1
 Se  Se3  1  0.12611  0.58790  0.72319  1
 Se  Se4  1  0.59708  0.13529  0.72319  1
