CIF file written using JARVIS-Tools package.
data_KOsF6
_symmetry_space_group_name_H-M  'R-3'
_cell_length_a       4.94746
_cell_length_b       4.94746
_cell_length_c       4.94746
_cell_angle_alpha    97.5155
_cell_angle_beta     97.5155
_cell_angle_gamma    97.5155

_symmetry_Int_Tables_number  148
_chemical_formula_structural  KOsF6
_chemical_formula_sum  KOsF6
_cell_volume  117.67378129676399
_cell_formula_units_Z  1
loop_
  _symmetry_equiv_pos_site_id
 _symmetry_equiv_pos_as_xyz
 1  'x, y, z'
loop_
 _atom_site_type_symbol
 _atom_site_label
 _atom_site_symmetry_multiplicity
 _atom_site_fract_x
 _atom_site_fract_y
 _atom_site_fract_z
 _atom_site_fract_occupancy
 F  F1  1  0.92474  0.32451  0.21699  1
 F  F2  1  0.32451  0.21699  0.92474  1
 F  F3  1  0.78301  0.07526  0.67549  1
 F  F4  1  0.67549  0.78301  0.07526  1
 F  F5  1  0.07526  0.67549  0.78301  1
 F  F6  1  0.21699  0.92474  0.32451  1
 K  K1  1  0.50000  0.50000  0.50000  1
 Os  Os1  1  0.00000  0.00000  0.00000  1
