CIF file written using JARVIS-Tools package.
data_NaSn2Pd3
_symmetry_space_group_name_H-M  'P6mm'
_cell_length_a       5.80821
_cell_length_b       5.80821
_cell_length_c       4.30898
_cell_angle_alpha    90
_cell_angle_beta     90
_cell_angle_gamma    120

_symmetry_Int_Tables_number  183
_chemical_formula_structural  NaSn2Pd3
_chemical_formula_sum  NaSn2Pd3
_cell_volume  125.889476318775
_cell_formula_units_Z  1
loop_
  _symmetry_equiv_pos_site_id
 _symmetry_equiv_pos_as_xyz
 1  'x, y, z'
loop_
 _atom_site_type_symbol
 _atom_site_label
 _atom_site_symmetry_multiplicity
 _atom_site_fract_x
 _atom_site_fract_y
 _atom_site_fract_z
 _atom_site_fract_occupancy
 Na  Na1  1  0.00000  0.00000  0.19005  1
 Pd  Pd1  1  0.50000  0.00000  0.99548  1
 Pd  Pd2  1  0.50000  0.50000  0.99548  1
 Pd  Pd3  1  0.00000  0.50000  0.99548  1
 Sn  Sn1  1  0.33333  0.66667  0.49675  1
 Sn  Sn2  1  0.66667  0.33333  0.49675  1
