CIF file written using JARVIS-Tools package.
data_HoNiC2
_symmetry_space_group_name_H-M  'Amm2'
_cell_length_a       3.54797
_cell_length_b       3.76169
_cell_length_c       3.76169
_cell_angle_alpha    106.419
_cell_angle_beta     90
_cell_angle_gamma    90

_symmetry_Int_Tables_number  38
_chemical_formula_structural  HoNiC2
_chemical_formula_sum  HoNiC2
_cell_volume  48.15758386563092
_cell_formula_units_Z  1
loop_
  _symmetry_equiv_pos_site_id
 _symmetry_equiv_pos_as_xyz
 1  'x, y, z'
loop_
 _atom_site_type_symbol
 _atom_site_label
 _atom_site_symmetry_multiplicity
 _atom_site_fract_x
 _atom_site_fract_y
 _atom_site_fract_z
 _atom_site_fract_occupancy
 C  C1  1  0.50000  0.15011  0.54700  1
 C  C2  1  0.50000  0.45300  0.84989  1
 Ho  Ho1  1  0.00000  -0.00003  0.00003  1
 Ni  Ni1  1  0.50000  0.61293  0.38707  1
