CIF file written using JARVIS-Tools package.
data_Nb2CrSe4
_symmetry_space_group_name_H-M  'C2/m'
_cell_length_a       3.53166
_cell_length_b       6.36708
_cell_length_c       7.08288
_cell_angle_alpha    114.677
_cell_angle_beta     104.437
_cell_angle_gamma    90

_symmetry_Int_Tables_number  12
_chemical_formula_structural  Nb2CrSe4
_chemical_formula_sum  Nb2CrSe4
_cell_volume  139.16964357236958
_cell_formula_units_Z  1
loop_
  _symmetry_equiv_pos_site_id
 _symmetry_equiv_pos_as_xyz
 1  'x, y, z'
loop_
 _atom_site_type_symbol
 _atom_site_label
 _atom_site_symmetry_multiplicity
 _atom_site_fract_x
 _atom_site_fract_y
 _atom_site_fract_z
 _atom_site_fract_occupancy
 Cr  Cr1  1  0.00000  0.00000  0.00000  1
 Nb  Nb1  1  0.25721  0.32105  0.51442  1
 Nb  Nb2  1  0.74279  0.67895  0.48558  1
 Se  Se1  1  0.90043  0.55604  0.80085  1
 Se  Se2  1  0.36504  0.02454  0.73007  1
 Se  Se3  1  0.09957  0.44396  0.19915  1
 Se  Se4  1  0.63496  0.97546  0.26993  1
