CIF file written using JARVIS-Tools package.
data_PuGa
_symmetry_space_group_name_H-M  'I4/mmm'
_cell_length_a       6.1847
_cell_length_b       6.18471
_cell_length_c       6.1847
_cell_angle_alpha    93.9257
_cell_angle_beta     117.76
_cell_angle_gamma    117.76

_symmetry_Int_Tables_number  139
_chemical_formula_structural  PuGa
_chemical_formula_sum  Pu4Ga4
_cell_volume  172.50468075420423
_cell_formula_units_Z  4
loop_
  _symmetry_equiv_pos_site_id
 _symmetry_equiv_pos_as_xyz
 1  'x, y, z'
loop_
 _atom_site_type_symbol
 _atom_site_label
 _atom_site_symmetry_multiplicity
 _atom_site_fract_x
 _atom_site_fract_y
 _atom_site_fract_z
 _atom_site_fract_occupancy
 Ga  Ga1  1  0.41876  0.91500  0.91500  1
 Ga  Ga2  1  -0.00000  0.91500  0.49624  1
 Ga  Ga3  1  -0.00000  0.49624  0.91500  1
 Ga  Ga4  1  0.58124  0.49624  0.49624  1
 Pu  Pu1  1  0.50000  0.95564  0.45564  1
 Pu  Pu2  1  0.50000  0.45564  0.95564  1
 Pu  Pu3  1  0.00000  0.40429  0.40429  1
 Pu  Pu4  1  0.00000  0.00695  0.00695  1
