CIF file written using JARVIS-Tools package.
data_Te2Mo2WSe4
_symmetry_space_group_name_H-M  'Cm'
_cell_length_a       3.40471
_cell_length_b       3.40477
_cell_length_c       26.904
_cell_angle_alpha    89.8704
_cell_angle_beta     90.0145
_cell_angle_gamma    119.999

_symmetry_Int_Tables_number  8
_chemical_formula_structural  Te2Mo2WSe4
_chemical_formula_sum  Te2Mo2WSe4
_cell_volume  270.094833914989
_cell_formula_units_Z  1
loop_
  _symmetry_equiv_pos_site_id
 _symmetry_equiv_pos_as_xyz
 1  'x, y, z'
loop_
 _atom_site_type_symbol
 _atom_site_label
 _atom_site_symmetry_multiplicity
 _atom_site_fract_x
 _atom_site_fract_y
 _atom_site_fract_z
 _atom_site_fract_occupancy
 Mo  Mo1  1  0.33296  0.66574  0.09978  1
 Mo  Mo2  1  0.33355  0.66720  0.59926  1
 Se  Se1  1  0.33284  0.66548  0.40345  1
 Se  Se2  1  0.66704  0.33415  0.03861  1
 Se  Se3  1  0.66556  0.33068  0.16105  1
 Se  Se4  1  0.33411  0.66856  0.28040  1
 Te  Te1  1  0.66730  0.33505  0.52956  1
 Te  Te2  1  0.66643  0.33265  0.66882  1
 W  W1  1  0.66681  0.33368  0.34191  1
