CIF file written using JARVIS-Tools package.
data_H7C9S2N
_symmetry_space_group_name_H-M  'P1'
_cell_length_a       5.76483
_cell_length_b       8.43772
_cell_length_c       8.50479
_cell_angle_alpha    106.511
_cell_angle_beta     93.005
_cell_angle_gamma    90.6655

_symmetry_Int_Tables_number  1
_chemical_formula_structural  H7C9S2N
_chemical_formula_sum  H4C8S4N2
_cell_volume  395.933815986336
_cell_formula_units_Z  2
loop_
  _symmetry_equiv_pos_site_id
 _symmetry_equiv_pos_as_xyz
 1  'x, y, z'
loop_
 _atom_site_type_symbol
 _atom_site_label
 _atom_site_symmetry_multiplicity
 _atom_site_fract_x
 _atom_site_fract_y
 _atom_site_fract_z
 _atom_site_fract_occupancy
 C  C1  1  0.69577  0.82275  0.14784  1
 C  C2  1  0.60442  0.02623  0.39828  1
 C  C3  1  0.48300  0.73954  0.12320  1
 C  C4  1  0.67827  0.56714  0.90572  1
 C  C5  1  0.92194  0.41138  0.67115  1
 C  C6  1  0.90315  0.26693  0.53457  1
 C  C7  1  0.47510  0.59554  0.98653  1
 C  C8  1  0.19919  0.58316  0.40715  1
 C  C9  1  0.21309  0.19319  0.02584  1
 C  C10  1  0.24669  0.43734  0.27796  1
 C  C11  1  0.21442  0.81857  0.66788  1
 C  C12  1  0.44983  0.35145  0.24735  1
 C  C13  1  0.43074  0.21374  0.10408  1
 C  C14  1  0.00947  0.80955  0.57326  1
 C  C15  1  0.00181  0.67614  0.42696  1
 C  C16  1  0.12028  0.06840  0.87191  1
 C  C17  1  0.70059  0.17662  0.52654  1
 C  C18  1  0.73224  0.43227  0.76714  1
 H  H1  1  0.86660  0.89173  0.61161  1
 H  H2  1  0.03282  0.23557  0.44291  1
 H  H3  1  0.55542  0.92810  0.45473  1
 H  H4  1  0.94895  0.01844  0.89230  1
 H  H5  1  0.08835  0.12815  0.77319  1
 H  H6  1  0.06744  0.49986  0.69474  1
 H  H7  1  0.32379  0.51197  0.95123  1
 H  H8  1  0.93431  0.96612  0.31304  1
 H  H9  1  0.34167  0.77424  0.20473  1
 H  H10  1  0.35980  0.89137  0.90249  1
 H  H11  1  0.60876  0.38668  0.32517  1
 H  H12  1  0.85140  0.64622  0.33972  1
 H  H13  1  0.57464  0.13386  0.06044  1
 H  H14  1  0.44308  0.05764  0.33908  1
 N  N1  1  0.28354  0.93635  0.81321  1
 N  N2  1  0.76618  0.96573  0.26895  1
 S  S1  1  0.40190  0.66287  0.57336  1
 S  S2  1  0.02941  0.34494  0.12788  1
 S  S3  1  0.88422  0.72606  -0.00247  1
 S  S4  1  0.53351  0.26684  0.69056  1
