CIF file written using JARVIS-Tools package.
data_SnO2
_symmetry_space_group_name_H-M  'R-3m'
_cell_length_a       3.2471
_cell_length_b       3.24721
_cell_length_c       9.53482
_cell_angle_alpha    109.899
_cell_angle_beta     90.0038
_cell_angle_gamma    120

_symmetry_Int_Tables_number  166
_chemical_formula_structural  SnO2
_chemical_formula_sum  Sn2O4
_cell_volume  80.05872839003118
_cell_formula_units_Z  2
loop_
  _symmetry_equiv_pos_site_id
 _symmetry_equiv_pos_as_xyz
 1  'x, y, z'
loop_
 _atom_site_type_symbol
 _atom_site_label
 _atom_site_symmetry_multiplicity
 _atom_site_fract_x
 _atom_site_fract_y
 _atom_site_fract_z
 _atom_site_fract_occupancy
 O  O1  1  0.25977  0.51560  0.38842  1
 O  O2  1  0.41110  0.81779  0.11539  1
 O  O3  1  0.74462  0.48515  0.61568  1
 O  O4  1  0.59339  0.18249  0.88882  1
 Sn  Sn1  1  0.00220  0.00038  0.50205  1
 Sn  Sn2  1  0.00225  0.00014  0.00210  1
