CIF file written using JARVIS-Tools package.
data_MgNi
_symmetry_space_group_name_H-M  'R-3m'
_cell_length_a       4.95304
_cell_length_b       4.95304
_cell_length_c       4.95328
_cell_angle_alpha    119.062
_cell_angle_beta     60.9375
_cell_angle_gamma    119.065

_symmetry_Int_Tables_number  166
_chemical_formula_structural  MgNi
_chemical_formula_sum  Mg3Ni3
_cell_volume  87.73908247757622
_cell_formula_units_Z  3
loop_
  _symmetry_equiv_pos_site_id
 _symmetry_equiv_pos_as_xyz
 1  'x, y, z'
loop_
 _atom_site_type_symbol
 _atom_site_label
 _atom_site_symmetry_multiplicity
 _atom_site_fract_x
 _atom_site_fract_y
 _atom_site_fract_z
 _atom_site_fract_occupancy
 Mg  Mg1  1  0.50005  0.83339  0.00000  1
 Mg  Mg2  1  0.88029  0.45313  0.38023  1
 Mg  Mg3  1  0.11979  0.21362  0.61977  1
 Ni  Ni1  1  0.49992  0.33331  -0.00003  1
 Ni  Ni2  1  0.49997  0.83330  0.50000  1
 Ni  Ni3  1  0.99997  0.83325  0.00003  1
