CIF file written using JARVIS-Tools package.
data_H8C7N2
_symmetry_space_group_name_H-M  'P1'
_cell_length_a       4.04995
_cell_length_b       5.92921
_cell_length_c       12.367
_cell_angle_alpha    100.332
_cell_angle_beta     74.419
_cell_angle_gamma    95.7856

_symmetry_Int_Tables_number  1
_chemical_formula_structural  H8C7N2
_chemical_formula_sum  H6C4N4
_cell_volume  280.9825324201822
_cell_formula_units_Z  2
loop_
  _symmetry_equiv_pos_site_id
 _symmetry_equiv_pos_as_xyz
 1  'x, y, z'
loop_
 _atom_site_type_symbol
 _atom_site_label
 _atom_site_symmetry_multiplicity
 _atom_site_fract_x
 _atom_site_fract_y
 _atom_site_fract_z
 _atom_site_fract_occupancy
 C  C1  1  0.18645  0.82486  0.09416  1
 C  C2  1  0.59161  0.12366  0.94680  1
 C  C3  1  0.06705  0.69067  0.27890  1
 C  C4  1  0.51880  0.89252  0.90518  1
 C  C5  1  0.51880  0.39252  0.40518  1
 C  C6  1  0.32428  0.74668  0.97816  1
 C  C7  1  0.32428  0.24668  0.47816  1
 C  C8  1  0.06705  0.19067  0.77890  1
 C  C9  1  0.59161  0.62366  0.44680  1
 C  C10  1  0.18645  0.32486  0.59416  1
 C  C11  1  0.45266  0.20232  0.06305  1
 C  C12  1  0.45266  0.70232  0.56305  1
 C  C13  1  0.25037  0.05749  0.13500  1
 C  C14  1  0.25037  0.55749  0.63500  1
 H  H1  1  0.83281  0.93393  0.41669  1
 H  H2  1  0.50926  0.38029  0.09766  1
 H  H3  1  -0.00295  0.00868  0.62623  1
 H  H4  1  0.12599  0.01983  0.78868  1
 H  H5  1  0.12599  0.51983  0.28868  1
 H  H6  1  0.29876  0.30332  0.78070  1
 H  H7  1  0.29876  0.80332  0.28070  1
 H  H8  1  0.83281  0.43393  0.91669  1
 H  H9  1  0.28783  0.06552  0.44459  1
 H  H10  1  -0.00295  0.50868  0.12623  1
 H  H11  1  0.50926  0.88029  0.59765  1
 H  H12  1  0.28783  0.56552  0.94459  1
 H  H13  1  0.61817  0.82332  0.81555  1
 H  H14  1  0.61818  0.32332  0.31555  1
 H  H15  1  0.14634  0.12504  0.22460  1
 H  H16  1  0.14634  0.62504  0.72460  1
 N  N1  1  0.79034  0.27321  0.87607  1
 N  N2  1  0.79034  0.77321  0.37607  1
 N  N3  1  0.99673  0.67392  0.16702  1
 N  N4  1  0.99673  0.17392  0.66702  1
