CIF file written using JARVIS-Tools package.
data_Li7Si2Ni3O12
_symmetry_space_group_name_H-M  'C2/m'
_cell_length_a       4.87269
_cell_length_b       4.86922
_cell_length_c       9.58462
_cell_angle_alpha    94.7889
_cell_angle_beta     99.6048
_cell_angle_gamma    59.9764

_symmetry_Int_Tables_number  12
_chemical_formula_structural  Li7Si2Ni3O12
_chemical_formula_sum  Li7Si2Ni3O2
_cell_volume  194.1334539779473
_cell_formula_units_Z  1
loop_
  _symmetry_equiv_pos_site_id
 _symmetry_equiv_pos_as_xyz
 1  'x, y, z'
loop_
 _atom_site_type_symbol
 _atom_site_label
 _atom_site_symmetry_multiplicity
 _atom_site_fract_x
 _atom_site_fract_y
 _atom_site_fract_z
 _atom_site_fract_occupancy
 Li  Li1  1  0.67345  0.66667  0.99684  1
 Li  Li2  1  0.91667  0.66667  0.75000  1
 Li  Li3  1  0.83513  0.34276  0.50282  1
 Li  Li4  1  0.32211  0.34276  0.99718  1
 Li  Li5  1  0.15988  0.66667  0.50316  1
 Li  Li6  1  0.51122  0.99057  0.50282  1
 Li  Li7  1  0.99820  0.99057  0.99718  1
 Ni  Ni1  1  0.08196  0.33608  0.25000  1
 Ni  Ni2  1  0.75138  -0.00275  0.25000  1
 Ni  Ni3  1  0.41667  0.66667  0.25000  1
 O  O1  1  0.38372  -0.00502  0.13816  1
 O  O2  1  0.25287  0.29552  0.64439  1
 O  O3  1  0.79525  0.66667  0.37045  1
 O  O4  1  0.71203  0.33836  0.13816  1
 O  O5  1  0.95161  0.29552  0.85561  1
 O  O6  1  0.51137  0.66667  0.64458  1
 O  O7  1  0.88172  0.03781  0.64439  1
 O  O8  1  0.44962  0.33836  0.36184  1
 O  O9  1  0.32197  0.66667  0.85542  1
 O  O10  1  0.03809  0.66667  0.12955  1
 O  O11  1  0.58046  0.03781  0.85561  1
 O  O12  1  0.12131  -0.00502  0.36184  1
 Si  Si1  1  0.58339  0.33322  0.75000  1
 Si  Si2  1  0.24994  0.00011  0.75000  1
