CIF file written using JARVIS-Tools package.
data_DyCoO3
_symmetry_space_group_name_H-M  'Pnma'
_cell_length_a       5.13254
_cell_length_b       5.50339
_cell_length_c       7.37803
_cell_angle_alpha    90
_cell_angle_beta     90
_cell_angle_gamma    90

_symmetry_Int_Tables_number  62
_chemical_formula_structural  DyCoO3
_chemical_formula_sum  Dy4Co4O2
_cell_volume  208.4026679446023
_cell_formula_units_Z  4
loop_
  _symmetry_equiv_pos_site_id
 _symmetry_equiv_pos_as_xyz
 1  'x, y, z'
loop_
 _atom_site_type_symbol
 _atom_site_label
 _atom_site_symmetry_multiplicity
 _atom_site_fract_x
 _atom_site_fract_y
 _atom_site_fract_z
 _atom_site_fract_occupancy
 Co  Co1  1  0.50000  0.00000  0.50000  1
 Co  Co2  1  0.00000  0.50000  0.50000  1
 Co  Co3  1  0.00000  0.50000  0.00000  1
 Co  Co4  1  0.50000  0.00000  0.00000  1
 Dy  Dy1  1  0.02151  0.92440  0.75000  1
 Dy  Dy2  1  0.52151  0.57560  0.25000  1
 Dy  Dy3  1  0.47849  0.42440  0.75000  1
 Dy  Dy4  1  0.97849  0.07560  0.25000  1
 O  O1  1  0.69023  0.30205  0.45000  1
 O  O2  1  0.89862  0.52777  0.75000  1
 O  O3  1  0.80977  0.80205  0.05000  1
 O  O4  1  0.30977  0.69795  0.95000  1
 O  O5  1  0.19023  0.19795  0.55000  1
 O  O6  1  0.10138  0.47223  0.25000  1
 O  O7  1  0.19023  0.19795  0.95000  1
 O  O8  1  0.69023  0.30205  0.05000  1
 O  O9  1  0.30977  0.69795  0.55000  1
 O  O10  1  0.60138  0.02777  0.75000  1
 O  O11  1  0.80977  0.80205  0.45000  1
 O  O12  1  0.39862  0.97223  0.25000  1
