CIF file written using JARVIS-Tools package.
data_Tm2CoSi2
_symmetry_space_group_name_H-M  'C2/m'
_cell_length_a       5.50684
_cell_length_b       5.50684
_cell_length_c       9.85357
_cell_angle_alpha    63.3441
_cell_angle_beta     63.3441
_cell_angle_gamma    43.7206

_symmetry_Int_Tables_number  12
_chemical_formula_structural  Tm2CoSi2
_chemical_formula_sum  Tm4Co2Si4
_cell_volume  180.79036795653877
_cell_formula_units_Z  2
loop_
  _symmetry_equiv_pos_site_id
 _symmetry_equiv_pos_as_xyz
 1  'x, y, z'
loop_
 _atom_site_type_symbol
 _atom_site_label
 _atom_site_symmetry_multiplicity
 _atom_site_fract_x
 _atom_site_fract_y
 _atom_site_fract_z
 _atom_site_fract_occupancy
 Co  Co1  1  0.72686  0.72686  0.62620  1
 Co  Co2  1  0.27314  0.27314  0.37380  1
 Si  Si1  1  0.64977  0.64977  0.43363  1
 Si  Si2  1  0.35023  0.35023  0.56637  1
 Si  Si3  1  0.50913  0.50913  0.12501  1
 Si  Si4  1  0.49087  0.49087  0.87499  1
 Tm  Tm1  1  0.99947  0.99947  0.32876  1
 Tm  Tm2  1  0.00053  0.00053  0.67124  1
 Tm  Tm3  1  0.81375  0.81375  0.10700  1
 Tm  Tm4  1  0.18625  0.18625  0.89300  1
