CIF file written using JARVIS-Tools package.
data_MgH2Se2O6
_symmetry_space_group_name_H-M  'P2_1/c'
_cell_length_a       5.58097
_cell_length_b       5.1832
_cell_length_c       10.6637
_cell_angle_alpha    90
_cell_angle_beta     120.881
_cell_angle_gamma    90

_symmetry_Int_Tables_number  14
_chemical_formula_structural  MgH2Se2O6
_chemical_formula_sum  Mg2H4Se4O2
_cell_volume  264.74233404858126
_cell_formula_units_Z  2
loop_
  _symmetry_equiv_pos_site_id
 _symmetry_equiv_pos_as_xyz
 1  'x, y, z'
loop_
 _atom_site_type_symbol
 _atom_site_label
 _atom_site_symmetry_multiplicity
 _atom_site_fract_x
 _atom_site_fract_y
 _atom_site_fract_z
 _atom_site_fract_occupancy
 H  H1  1  0.69869  0.03086  0.46736  1
 H  H2  1  0.69869  0.46914  0.96736  1
 H  H3  1  0.30131  0.96914  0.53264  1
 H  H4  1  0.30131  0.53086  0.03264  1
 Mg  Mg1  1  -0.00000  0.50000  0.50000  1
 Mg  Mg2  1  0.00000  0.00000  0.00000  1
 O  O1  1  0.31478  0.79129  0.57798  1
 O  O2  1  0.15360  0.41526  0.71648  1
 O  O3  1  0.84640  0.91526  0.78352  1
 O  O4  1  0.84640  0.58474  0.28352  1
 O  O5  1  0.15360  0.08474  0.21648  1
 O  O6  1  0.27082  0.24079  0.97588  1
 O  O7  1  0.72918  0.74079  0.52412  1
 O  O8  1  0.68522  0.29129  0.92202  1
 O  O9  1  0.68522  0.20871  0.42202  1
 O  O10  1  0.27082  0.25921  0.47588  1
 O  O11  1  0.72918  0.75921  0.02412  1
 O  O12  1  0.31478  0.70871  0.07798  1
 Se  Se1  1  0.67891  0.82889  0.16699  1
 Se  Se2  1  0.67891  0.67111  0.66699  1
 Se  Se3  1  0.32109  0.17111  0.83301  1
 Se  Se4  1  0.32109  0.32889  0.33301  1
