CIF file written using JARVIS-Tools package.
data_InGaCuO4
_symmetry_space_group_name_H-M  'R3m'
_cell_length_a       8.59509
_cell_length_b       8.59509
_cell_length_c       8.59509
_cell_angle_alpha    22.7409
_cell_angle_beta     22.7409
_cell_angle_gamma    22.7409

_symmetry_Int_Tables_number  160
_chemical_formula_structural  InGaCuO4
_chemical_formula_sum  InGaCuO4
_cell_volume  83.25089561051163
_cell_formula_units_Z  1
loop_
  _symmetry_equiv_pos_site_id
 _symmetry_equiv_pos_as_xyz
 1  'x, y, z'
loop_
 _atom_site_type_symbol
 _atom_site_label
 _atom_site_symmetry_multiplicity
 _atom_site_fract_x
 _atom_site_fract_y
 _atom_site_fract_z
 _atom_site_fract_occupancy
 Cu  Cu1  1  0.78543  0.78543  0.78543  1
 Ga  Ga1  1  0.21201  0.21201  0.21201  1
 In  In1  1  -0.00005  -0.00005  -0.00005  1
 O  O1  1  0.87447  0.87447  0.87447  1
 O  O2  1  0.13327  0.13327  0.13327  1
 O  O3  1  0.70609  0.70609  0.70609  1
 O  O4  1  0.28878  0.28878  0.28878  1
