CIF file written using JARVIS-Tools package.
data_TaPO5
_symmetry_space_group_name_H-M  'Fddd'
_cell_length_a       7.08979
_cell_length_b       7.08979
_cell_length_c       9.06636
_cell_angle_alpha    101.51
_cell_angle_beta     101.51
_cell_angle_gamma    119.319

_symmetry_Int_Tables_number  70
_chemical_formula_structural  TaPO5
_chemical_formula_sum  Ta4P4O20
_cell_volume  365.0338659672863
_cell_formula_units_Z  4
loop_
  _symmetry_equiv_pos_site_id
 _symmetry_equiv_pos_as_xyz
 1  'x, y, z'
loop_
 _atom_site_type_symbol
 _atom_site_label
 _atom_site_symmetry_multiplicity
 _atom_site_fract_x
 _atom_site_fract_y
 _atom_site_fract_z
 _atom_site_fract_occupancy
 O  O1  1  0.85975  0.06293  0.46097  1
 O  O2  1  0.59637  0.55989  0.32073  1
 O  O3  1  0.66418  0.66397  0.83895  1
 O  O4  1  0.31293  0.60975  0.96097  1
 O  O5  1  0.80989  0.34637  0.82073  1
 O  O6  1  0.21354  0.25027  0.32080  1
 O  O7  1  0.52564  0.98916  0.17927  1
 O  O8  1  0.07522  0.57502  0.66105  1
 O  O9  1  0.82502  0.82522  0.16105  1
 O  O10  1  0.42651  0.62962  0.53917  1
 O  O11  1  0.14274  0.67947  0.17920  1
 O  O12  1  0.09045  0.88734  0.46083  1
 O  O13  1  0.23916  0.27564  0.67927  1
 O  O14  1  0.60196  0.39878  0.53903  1
 O  O15  1  0.87962  0.17651  0.03917  1
 O  O16  1  0.64878  0.35196  0.03903  1
 O  O17  1  0.13734  0.84045  0.96083  1
 O  O18  1  0.92947  0.89274  0.67920  1
 O  O19  1  0.50027  0.96354  0.82080  1
 O  O20  1  0.91397  0.41418  0.33895  1
 P  P1  1  0.28070  0.78075  0.07213  1
 P  P2  1  0.45857  0.45861  0.42787  1
 P  P3  1  0.70861  0.20857  0.92787  1
 P  P4  1  0.03075  0.03070  0.57213  1
 Ta  Ta1  1  0.86969  0.61953  0.74990  1
 Ta  Ta2  1  0.86963  0.11979  0.25010  1
 Ta  Ta3  1  0.36979  0.61963  0.75010  1
 Ta  Ta4  1  0.86953  0.61969  0.24990  1
