CIF file written using JARVIS-Tools package.
data_ZnGaPSe
_symmetry_space_group_name_H-M  'R3m'
_cell_length_a       6.92143
_cell_length_b       6.92143
_cell_length_c       6.92143
_cell_angle_alpha    33.1605
_cell_angle_beta     33.1606
_cell_angle_gamma    33.1605

_symmetry_Int_Tables_number  160
_chemical_formula_structural  ZnGaPSe
_chemical_formula_sum  ZnGaPSe
_cell_volume  88.30858361280916
_cell_formula_units_Z  1
loop_
  _symmetry_equiv_pos_site_id
 _symmetry_equiv_pos_as_xyz
 1  'x, y, z'
loop_
 _atom_site_type_symbol
 _atom_site_label
 _atom_site_symmetry_multiplicity
 _atom_site_fract_x
 _atom_site_fract_y
 _atom_site_fract_z
 _atom_site_fract_occupancy
 Ga  Ga1  1  0.49572  0.49572  0.49572  1
 P  P1  1  0.12564  0.12564  0.12564  1
 Se  Se1  1  0.62320  0.62320  0.62320  1
 Zn  Zn1  1  0.00544  0.00544  0.00544  1
