CIF file written using JARVIS-Tools package.
data_Rb2Zn3GeAs4
_symmetry_space_group_name_H-M  'C222'
_cell_length_a       7.8734
_cell_length_b       7.8734
_cell_length_c       5.86722
_cell_angle_alpha    90
_cell_angle_beta     90
_cell_angle_gamma    136.195

_symmetry_Int_Tables_number  21
_chemical_formula_structural  Rb2Zn3GeAs4
_chemical_formula_sum  Rb2Zn3GeAs4
_cell_volume  251.76152185446017
_cell_formula_units_Z  1
loop_
  _symmetry_equiv_pos_site_id
 _symmetry_equiv_pos_as_xyz
 1  'x, y, z'
loop_
 _atom_site_type_symbol
 _atom_site_label
 _atom_site_symmetry_multiplicity
 _atom_site_fract_x
 _atom_site_fract_y
 _atom_site_fract_z
 _atom_site_fract_occupancy
 As  As1  1  0.64989  0.86227  0.75608  1
 As  As2  1  0.13773  0.35011  0.24392  1
 As  As3  1  0.86227  0.64989  0.24392  1
 As  As4  1  0.35011  0.13773  0.75608  1
 Ge  Ge1  1  0.00000  0.00000  0.00000  1
 Rb  Rb1  1  0.50000  0.00000  0.25081  1
 Rb  Rb2  1  0.00000  0.50000  0.74919  1
 Zn  Zn1  1  0.50000  0.50000  0.50000  1
 Zn  Zn2  1  0.50000  0.50000  0.00000  1
 Zn  Zn3  1  0.00000  0.00000  0.50000  1
