CIF file written using JARVIS-Tools package.
data_BiAsPd6
_symmetry_space_group_name_H-M  'R-3m'
_cell_length_a       7.88002
_cell_length_b       7.88002
_cell_length_c       7.88002
_cell_angle_alpha    33.7435
_cell_angle_beta     33.7435
_cell_angle_gamma    33.7435

_symmetry_Int_Tables_number  166
_chemical_formula_structural  BiAsPd6
_chemical_formula_sum  BiAsPd6
_cell_volume  134.52090446343465
_cell_formula_units_Z  1
loop_
  _symmetry_equiv_pos_site_id
 _symmetry_equiv_pos_as_xyz
 1  'x, y, z'
loop_
 _atom_site_type_symbol
 _atom_site_label
 _atom_site_symmetry_multiplicity
 _atom_site_fract_x
 _atom_site_fract_y
 _atom_site_fract_z
 _atom_site_fract_occupancy
 As  As1  1  0.00000  0.00000  0.00000  1
 Bi  Bi1  1  0.50000  0.50000  0.50000  1
 Pd  Pd1  1  0.63346  0.63346  0.63346  1
 Pd  Pd2  1  0.11349  0.11349  0.11349  1
 Pd  Pd3  1  0.88651  0.88651  0.88651  1
 Pd  Pd4  1  0.36654  0.36654  0.36654  1
 Pd  Pd5  1  0.24390  0.24390  0.24390  1
 Pd  Pd6  1  0.75610  0.75610  0.75610  1
