CIF file written using JARVIS-Tools package.
data_Ti2Co3Te3O16
_symmetry_space_group_name_H-M  'Cm'
_cell_length_a       6.12581
_cell_length_b       6.11937
_cell_length_c       9.05017
_cell_angle_alpha    90.0004
_cell_angle_beta     89.8524
_cell_angle_gamma    119.965

_symmetry_Int_Tables_number  8
_chemical_formula_structural  Ti2Co3Te3O16
_chemical_formula_sum  Ti2Co3Te3O6
_cell_volume  293.906852669048
_cell_formula_units_Z  1
loop_
  _symmetry_equiv_pos_site_id
 _symmetry_equiv_pos_as_xyz
 1  'x, y, z'
loop_
 _atom_site_type_symbol
 _atom_site_label
 _atom_site_symmetry_multiplicity
 _atom_site_fract_x
 _atom_site_fract_y
 _atom_site_fract_z
 _atom_site_fract_occupancy
 Co  Co1  1  0.65374  0.82688  0.20493  1
 Co  Co2  1  0.84046  0.66716  0.70402  1
 Co  Co3  1  0.84046  0.17332  0.70402  1
 O  O1  1  0.51898  0.46921  0.84625  1
 O  O2  1  0.18933  0.84126  0.59880  1
 O  O3  1  0.02244  0.51123  0.34309  1
 O  O4  1  0.30690  0.65346  0.09193  1
 O  O5  1  0.96141  0.48072  0.84079  1
 O  O6  1  0.01467  0.00735  0.80918  1
 O  O7  1  0.18933  0.34809  0.59880  1
 O  O8  1  -0.00753  -0.00375  0.32503  1
 O  O9  1  0.45851  0.51514  0.33598  1
 O  O10  1  0.32036  0.16019  0.10277  1
 O  O11  1  0.83295  0.16830  0.10331  1
 O  O12  1  0.45851  0.94339  0.33598  1
 O  O13  1  0.51898  0.04979  0.84625  1
 O  O14  1  0.65440  0.32721  0.59762  1
 O  O15  1  0.83294  0.66466  0.10332  1
 O  O16  1  0.66344  0.83172  0.59891  1
 Te  Te1  1  0.34152  0.17077  0.71337  1
 Te  Te2  1  0.15597  0.32984  0.21478  1
 Te  Te3  1  0.15597  0.82614  0.21478  1
 Ti  Ti1  1  0.71094  0.35548  0.97192  1
 Ti  Ti2  1  0.36531  0.68266  0.50990  1
