CIF file written using JARVIS-Tools package.
data_TiO2
_symmetry_space_group_name_H-M  'Pbca'
_cell_length_a       5.17175
_cell_length_b       5.49527
_cell_length_c       9.2496
_cell_angle_alpha    90
_cell_angle_beta     90
_cell_angle_gamma    90

_symmetry_Int_Tables_number  61
_chemical_formula_structural  TiO2
_chemical_formula_sum  Ti8O6
_cell_volume  262.87516634231906
_cell_formula_units_Z  8
loop_
  _symmetry_equiv_pos_site_id
 _symmetry_equiv_pos_as_xyz
 1  'x, y, z'
loop_
 _atom_site_type_symbol
 _atom_site_label
 _atom_site_symmetry_multiplicity
 _atom_site_fract_x
 _atom_site_fract_y
 _atom_site_fract_z
 _atom_site_fract_occupancy
 O  O1  1  0.68445  0.35109  0.98999  1
 O  O2  1  0.46465  0.39085  0.26978  1
 O  O3  1  0.96465  0.60915  0.23022  1
 O  O4  1  0.03535  0.89085  0.73022  1
 O  O5  1  0.31555  0.64891  0.01001  1
 O  O6  1  0.53535  0.60915  0.73022  1
 O  O7  1  0.03535  0.39085  0.76978  1
 O  O8  1  0.53535  0.10915  0.76978  1
 O  O9  1  0.46465  0.89085  0.23022  1
 O  O10  1  0.81555  0.85109  0.01001  1
 O  O11  1  0.31555  0.14891  0.48999  1
 O  O12  1  0.81555  0.35109  0.48999  1
 O  O13  1  0.18445  0.64891  0.51001  1
 O  O14  1  0.18445  0.14891  0.98999  1
 O  O15  1  0.68445  0.85109  0.51001  1
 O  O16  1  0.96465  0.10915  0.26978  1
 Ti  Ti1  1  0.13913  0.90501  0.12896  1
 Ti  Ti2  1  0.63913  0.09499  0.37104  1
 Ti  Ti3  1  0.36087  0.40501  0.87104  1
 Ti  Ti4  1  0.86087  0.59499  0.62896  1
 Ti  Ti5  1  0.86087  0.09499  0.87104  1
 Ti  Ti6  1  0.36087  0.90501  0.62896  1
 Ti  Ti7  1  0.63913  0.59499  0.12896  1
 Ti  Ti8  1  0.13913  0.40501  0.37104  1
