CIF file written using JARVIS-Tools package.
data_MgH2C3O4
_symmetry_space_group_name_H-M  'P1'
_cell_length_a       4.71443
_cell_length_b       5.93457
_cell_length_c       6.953
_cell_angle_alpha    103.526
_cell_angle_beta     108.764
_cell_angle_gamma    94.5358

_symmetry_Int_Tables_number  1
_chemical_formula_structural  MgH2C3O4
_chemical_formula_sum  Mg2H4C6O8
_cell_volume  176.55039804530284
_cell_formula_units_Z  2
loop_
  _symmetry_equiv_pos_site_id
 _symmetry_equiv_pos_as_xyz
 1  'x, y, z'
loop_
 _atom_site_type_symbol
 _atom_site_label
 _atom_site_symmetry_multiplicity
 _atom_site_fract_x
 _atom_site_fract_y
 _atom_site_fract_z
 _atom_site_fract_occupancy
 C  C1  1  0.20918  0.70796  0.47352  1
 C  C2  1  0.91252  0.28441  0.89046  1
 C  C3  1  0.16778  0.77721  0.68522  1
 C  C4  1  0.66778  0.27721  0.68522  1
 C  C5  1  0.41252  0.78441  0.89046  1
 C  C6  1  0.70918  0.20796  0.47352  1
 H  H1  1  0.45150  0.18364  0.67369  1
 H  H2  1  0.95150  0.68365  0.67369  1
 H  H3  1  0.62560  0.45977  0.70197  1
 H  H4  1  0.12560  0.95977  0.70198  1
 Mg  Mg1  1  0.53969  0.49380  0.18076  1
 Mg  Mg2  1  0.03969  -0.00620  0.18076  1
 O  O1  1  0.47081  0.20873  0.31417  1
 O  O2  1  0.95636  0.16853  0.45212  1
 O  O3  1  0.45637  0.66853  0.45213  1
 O  O4  1  0.82779  0.27489  0.04746  1
 O  O5  1  0.68996  0.80450  0.90896  1
 O  O6  1  0.18996  0.30451  0.90896  1
 O  O7  1  0.32779  0.77489  0.04746  1
 O  O8  1  0.97082  0.70873  0.31417  1
