CIF file written using JARVIS-Tools package.
data_CuAsSe2
_symmetry_space_group_name_H-M  'R3m'
_cell_length_a       6.34869
_cell_length_b       6.34869
_cell_length_c       6.34868
_cell_angle_alpha    40.5149
_cell_angle_beta     40.5148
_cell_angle_gamma    40.515

_symmetry_Int_Tables_number  160
_chemical_formula_structural  CuAsSe2
_chemical_formula_sum  CuAsSe2
_cell_volume  97.40357096133991
_cell_formula_units_Z  1
loop_
  _symmetry_equiv_pos_site_id
 _symmetry_equiv_pos_as_xyz
 1  'x, y, z'
loop_
 _atom_site_type_symbol
 _atom_site_label
 _atom_site_symmetry_multiplicity
 _atom_site_fract_x
 _atom_site_fract_y
 _atom_site_fract_z
 _atom_site_fract_occupancy
 As  As1  1  0.99472  0.99472  0.99472  1
 Cu  Cu1  1  0.49159  0.49159  0.49159  1
 Se  Se1  1  0.13251  0.13251  0.13251  1
 Se  Se2  1  0.63218  0.63218  0.63218  1
