CIF file written using JARVIS-Tools package.
data_YbMgGa4
_symmetry_space_group_name_H-M  'P-6m2'
_cell_length_a       4.37445
_cell_length_b       4.37444
_cell_length_c       7.01554
_cell_angle_alpha    90
_cell_angle_beta     90
_cell_angle_gamma    120

_symmetry_Int_Tables_number  187
_chemical_formula_structural  YbMgGa4
_chemical_formula_sum  YbMgGa4
_cell_volume  116.26221245652603
_cell_formula_units_Z  1
loop_
  _symmetry_equiv_pos_site_id
 _symmetry_equiv_pos_as_xyz
 1  'x, y, z'
loop_
 _atom_site_type_symbol
 _atom_site_label
 _atom_site_symmetry_multiplicity
 _atom_site_fract_x
 _atom_site_fract_y
 _atom_site_fract_z
 _atom_site_fract_occupancy
 Ga  Ga1  1  0.66667  0.33333  0.29272  1
 Ga  Ga2  1  0.66667  0.33333  0.70728  1
 Ga  Ga3  1  0.33333  0.66667  0.19854  1
 Ga  Ga4  1  0.33333  0.66667  0.80146  1
 Mg  Mg1  1  0.00000  0.00000  0.00000  1
 Yb  Yb1  1  0.00000  0.00000  0.50000  1
