CIF file written using JARVIS-Tools package.
data_Li2TiCo3O8
_symmetry_space_group_name_H-M  'R-3m'
_cell_length_a       5.74904
_cell_length_b       5.74904
_cell_length_c       5.70491
_cell_angle_alpha    59.7438
_cell_angle_beta     120.256
_cell_angle_gamma    120

_symmetry_Int_Tables_number  166
_chemical_formula_structural  Li2TiCo3O8
_chemical_formula_sum  Li2TiCo3O8
_cell_volume  132.81028715576656
_cell_formula_units_Z  1
loop_
  _symmetry_equiv_pos_site_id
 _symmetry_equiv_pos_as_xyz
 1  'x, y, z'
loop_
 _atom_site_type_symbol
 _atom_site_label
 _atom_site_symmetry_multiplicity
 _atom_site_fract_x
 _atom_site_fract_y
 _atom_site_fract_z
 _atom_site_fract_occupancy
 Co  Co1  1  0.50000  0.50000  0.00000  1
 Co  Co2  1  0.50000  0.00000  0.00000  1
 Co  Co3  1  0.00000  0.50000  0.00000  1
 Li  Li1  1  0.87831  0.12169  0.63492  1
 Li  Li2  1  0.12169  0.87831  0.36508  1
 O  O1  1  0.74274  0.71484  0.77064  1
 O  O2  1  0.74274  0.25726  0.77064  1
 O  O3  1  0.26435  0.73565  0.79306  1
 O  O4  1  0.28516  0.25726  0.77064  1
 O  O5  1  0.71484  0.74274  0.22936  1
 O  O6  1  0.73565  0.26435  0.20694  1
 O  O7  1  0.25726  0.74274  0.22936  1
 O  O8  1  0.25726  0.28516  0.22936  1
 Ti  Ti1  1  0.50000  0.50000  0.50000  1
