CIF file written using JARVIS-Tools package.
data_VCoN2
_symmetry_space_group_name_H-M  'P6_3/mmc'
_cell_length_a       2.83355
_cell_length_b       2.83369
_cell_length_c       9.593
_cell_angle_alpha    90
_cell_angle_beta     90
_cell_angle_gamma    119.999

_symmetry_Int_Tables_number  194
_chemical_formula_structural  VCoN2
_chemical_formula_sum  V2Co2N4
_cell_volume  66.70747334943489
_cell_formula_units_Z  2
loop_
  _symmetry_equiv_pos_site_id
 _symmetry_equiv_pos_as_xyz
 1  'x, y, z'
loop_
 _atom_site_type_symbol
 _atom_site_label
 _atom_site_symmetry_multiplicity
 _atom_site_fract_x
 _atom_site_fract_y
 _atom_site_fract_z
 _atom_site_fract_occupancy
 Co  Co1  1  -0.00000  -0.00000  -0.00000  1
 Co  Co2  1  -0.00000  -0.00000  0.50000  1
 N  N1  1  0.66666  0.33335  0.87913  1
 N  N2  1  0.33334  0.66669  0.12088  1
 N  N3  1  0.33334  0.66669  0.37912  1
 N  N4  1  0.66666  0.33335  0.62087  1
 V  V1  1  0.66661  0.33320  0.25000  1
 V  V2  1  0.33339  0.66682  0.75000  1
