CIF file written using JARVIS-Tools package.
data_CuMoF6
_symmetry_space_group_name_H-M  'R-3'
_cell_length_a       4.99035
_cell_length_b       4.99234
_cell_length_c       5.53146
_cell_angle_alpha    63.2167
_cell_angle_beta     63.2519
_cell_angle_gamma    60.0605

_symmetry_Int_Tables_number  148
_chemical_formula_structural  CuMoF6
_chemical_formula_sum  CuMoF6
_cell_volume  101.99038124184099
_cell_formula_units_Z  1
loop_
  _symmetry_equiv_pos_site_id
 _symmetry_equiv_pos_as_xyz
 1  'x, y, z'
loop_
 _atom_site_type_symbol
 _atom_site_label
 _atom_site_symmetry_multiplicity
 _atom_site_fract_x
 _atom_site_fract_y
 _atom_site_fract_z
 _atom_site_fract_occupancy
 Cu  Cu1  1  0.00000  0.00000  0.00000  1
 F  F1  1  0.26284  0.89200  0.26115  1
 F  F2  1  0.73716  0.10800  0.73885  1
 F  F3  1  0.41612  0.73684  0.73912  1
 F  F4  1  0.58388  0.26316  0.26088  1
 F  F5  1  0.89182  0.58430  0.26110  1
 F  F6  1  0.10818  0.41570  0.73890  1
 Mo  Mo1  1  0.50000  0.50000  0.50000  1
