CIF file written using JARVIS-Tools package.
data_SnPb3
_symmetry_space_group_name_H-M  'P6_3/mmc'
_cell_length_a       6.98467
_cell_length_b       6.98467
_cell_length_c       5.81789
_cell_angle_alpha    90
_cell_angle_beta     90
_cell_angle_gamma    120

_symmetry_Int_Tables_number  194
_chemical_formula_structural  SnPb3
_chemical_formula_sum  Sn2Pb6
_cell_volume  245.80310221891017
_cell_formula_units_Z  2
loop_
  _symmetry_equiv_pos_site_id
 _symmetry_equiv_pos_as_xyz
 1  'x, y, z'
loop_
 _atom_site_type_symbol
 _atom_site_label
 _atom_site_symmetry_multiplicity
 _atom_site_fract_x
 _atom_site_fract_y
 _atom_site_fract_z
 _atom_site_fract_occupancy
 Pb  Pb1  1  0.16831  0.33661  0.25000  1
 Pb  Pb2  1  0.66339  0.83169  0.25000  1
 Pb  Pb3  1  0.16831  0.83169  0.25000  1
 Pb  Pb4  1  0.83169  0.66339  0.75000  1
 Pb  Pb5  1  0.33661  0.16831  0.75000  1
 Pb  Pb6  1  0.83169  0.16831  0.75000  1
 Sn  Sn1  1  0.33333  0.66667  0.75000  1
 Sn  Sn2  1  0.66667  0.33333  0.25000  1
