CIF file written using JARVIS-Tools package.
data_H3C5SNO2
_symmetry_space_group_name_H-M  'P1'
_cell_length_a       5.44463
_cell_length_b       5.33474
_cell_length_c       5.39391
_cell_angle_alpha    74.5735
_cell_angle_beta     83.8709
_cell_angle_gamma    71.7289

_symmetry_Int_Tables_number  1
_chemical_formula_structural  H3C5SNO2
_chemical_formula_sum  H3C5SNO2
_cell_volume  143.3645130857231
_cell_formula_units_Z  1
loop_
  _symmetry_equiv_pos_site_id
 _symmetry_equiv_pos_as_xyz
 1  'x, y, z'
loop_
 _atom_site_type_symbol
 _atom_site_label
 _atom_site_symmetry_multiplicity
 _atom_site_fract_x
 _atom_site_fract_y
 _atom_site_fract_z
 _atom_site_fract_occupancy
 C  C1  1  0.96166  0.17067  0.64761  1
 C  C2  1  0.11048  0.28971  0.46618  1
 C  C3  1  0.00590  0.58554  0.38184  1
 C  C4  1  0.73582  0.36168  0.72262  1
 C  C5  1  0.55567  0.28703  0.94014  1
 H  H1  1  0.00200  0.94737  0.19502  1
 H  H2  1  0.01264  0.95459  0.74210  1
 H  H3  1  0.29468  0.19121  0.38336  1
 N  N1  1  0.11329  0.74510  0.22629  1
 O  O1  1  0.66137  0.20298  0.15758  1
 O  O2  1  0.32944  0.31430  0.88672  1
 S  S1  1  0.69142  0.68867  0.55794  1
