CIF file written using JARVIS-Tools package.
data_Li5Nb2Fe5O12
_symmetry_space_group_name_H-M  'P1'
_cell_length_a       5.03653
_cell_length_b       5.16059
_cell_length_c       9.92592
_cell_angle_alpha    84.6737
_cell_angle_beta     101.381
_cell_angle_gamma    118.541

_symmetry_Int_Tables_number  1
_chemical_formula_structural  Li5Nb2Fe5O12
_chemical_formula_sum  Li5Nb2Fe5O2
_cell_volume  222.18016256923383
_cell_formula_units_Z  1
loop_
  _symmetry_equiv_pos_site_id
 _symmetry_equiv_pos_as_xyz
 1  'x, y, z'
loop_
 _atom_site_type_symbol
 _atom_site_label
 _atom_site_symmetry_multiplicity
 _atom_site_fract_x
 _atom_site_fract_y
 _atom_site_fract_z
 _atom_site_fract_occupancy
 Fe  Fe1  1  0.49406  0.49317  0.02501  1
 Fe  Fe2  1  0.04943  0.17374  0.75233  1
 Fe  Fe3  1  0.58747  0.18440  0.24733  1
 Fe  Fe4  1  0.00475  0.50367  0.49252  1
 Fe  Fe5  1  0.44680  0.87978  0.74984  1
 Li  Li1  1  0.68415  0.85587  0.49231  1
 Li  Li2  1  0.93390  0.84535  0.25286  1
 Li  Li3  1  0.30332  0.12137  0.49369  1
 Li  Li4  1  0.15727  0.84557  0.00196  1
 Li  Li5  1  0.81363  0.13705  0.01134  1
 Nb  Nb1  1  0.74230  0.46530  0.74576  1
 Nb  Nb2  1  0.26737  0.50103  0.24775  1
 O  O1  1  0.89121  0.50453  0.12799  1
 O  O2  1  0.46836  0.18197  0.87918  1
 O  O3  1  0.70544  0.17973  0.59918  1
 O  O4  1  0.28611  0.81173  0.37498  1
 O  O5  1  0.54138  0.84017  0.13209  1
 O  O6  1  0.98400  0.19502  0.37831  1
 O  O7  1  0.36006  0.49390  0.62641  1
 O  O8  1  0.18097  0.14868  0.12850  1
 O  O9  1  0.03154  0.80369  0.62285  1
 O  O10  1  0.65013  0.51384  0.37434  1
 O  O11  1  0.12655  0.50381  0.87840  1
 O  O12  1  0.78982  0.81664  0.86505  1
