CIF file written using JARVIS-Tools package.
data_Na5Br4Cl
_symmetry_space_group_name_H-M  'I4/mmm'
_cell_length_a       14.9849
_cell_length_b       14.9849
_cell_length_c       14.9849
_cell_angle_alpha    164.03
_cell_angle_beta     164.03
_cell_angle_gamma    22.6588

_symmetry_Int_Tables_number  139
_chemical_formula_structural  Na5Br4Cl
_chemical_formula_sum  Na5Br4Cl
_cell_volume  254.65363745570824
_cell_formula_units_Z  1
loop_
  _symmetry_equiv_pos_site_id
 _symmetry_equiv_pos_as_xyz
 1  'x, y, z'
loop_
 _atom_site_type_symbol
 _atom_site_label
 _atom_site_symmetry_multiplicity
 _atom_site_fract_x
 _atom_site_fract_y
 _atom_site_fract_z
 _atom_site_fract_occupancy
 Br  Br1  1  0.90145  0.90145  -0.00000  1
 Br  Br2  1  0.30116  0.30116  -0.00000  1
 Br  Br3  1  0.69884  0.69884  0.00000  1
 Br  Br4  1  0.09855  0.09855  0.00000  1
 Cl  Cl1  1  0.50000  0.50000  0.00000  1
 Na  Na1  1  0.80014  0.80014  0.00000  1
 Na  Na2  1  0.19986  0.19986  0.00000  1
 Na  Na3  1  0.59619  0.59619  0.00000  1
 Na  Na4  1  0.00000  0.00000  0.00000  1
 Na  Na5  1  0.40381  0.40381  -0.00000  1
