CIF file written using JARVIS-Tools package.
data_Sr2Fe2S2OF2
_symmetry_space_group_name_H-M  'I4/mmm'
_cell_length_a       4.00372
_cell_length_b       4.00376
_cell_length_c       9.46431
_cell_angle_alpha    102.211
_cell_angle_beta     102.211
_cell_angle_gamma    89.9997

_symmetry_Int_Tables_number  139
_chemical_formula_structural  Sr2Fe2S2OF2
_chemical_formula_sum  Sr2Fe2S2OF2
_cell_volume  144.76586992583387
_cell_formula_units_Z  1
loop_
  _symmetry_equiv_pos_site_id
 _symmetry_equiv_pos_as_xyz
 1  'x, y, z'
loop_
 _atom_site_type_symbol
 _atom_site_label
 _atom_site_symmetry_multiplicity
 _atom_site_fract_x
 _atom_site_fract_y
 _atom_site_fract_z
 _atom_site_fract_occupancy
 F  F1  1  0.75000  0.24999  0.50000  1
 F  F2  1  0.25000  0.75000  0.50000  1
 Fe  Fe1  1  0.00002  0.50002  1.00000  1
 Fe  Fe2  1  0.49995  0.00000  1.00000  1
 O  O1  1  0.50002  0.50000  -0.00001  1
 S  S1  1  0.09306  0.09306  0.18612  1
 S  S2  1  0.90696  0.90694  0.81387  1
 Sr  Sr1  1  0.33052  0.33051  0.66103  1
 Sr  Sr2  1  0.66948  0.66948  0.33898  1
