CIF file written using JARVIS-Tools package.
data_MgSc3
_symmetry_space_group_name_H-M  'Imm2'
_cell_length_a       6.1246
_cell_length_b       6.1246
_cell_length_c       6.1246
_cell_angle_alpha    149.281
_cell_angle_beta     126.073
_cell_angle_gamma    63.3531

_symmetry_Int_Tables_number  44
_chemical_formula_structural  MgSc3
_chemical_formula_sum  MgSc3
_cell_volume  93.92554532068752
_cell_formula_units_Z  1
loop_
  _symmetry_equiv_pos_site_id
 _symmetry_equiv_pos_as_xyz
 1  'x, y, z'
loop_
 _atom_site_type_symbol
 _atom_site_label
 _atom_site_symmetry_multiplicity
 _atom_site_fract_x
 _atom_site_fract_y
 _atom_site_fract_z
 _atom_site_fract_occupancy
 Mg  Mg1  1  0.16906  0.50000  0.66906  1
 Sc  Sc1  1  0.75797  0.75399  0.00397  1
 Sc  Sc2  1  0.24999  0.24601  0.00397  1
 Sc  Sc3  1  0.65637  -0.00000  0.65637  1
