CIF file written using JARVIS-Tools package.
data_TiVS2
_symmetry_space_group_name_H-M  'Pmc2_1'
_cell_length_a       3.32392
_cell_length_b       5.84495
_cell_length_c       6.0024
_cell_angle_alpha    90
_cell_angle_beta     90
_cell_angle_gamma    90

_symmetry_Int_Tables_number  26
_chemical_formula_structural  TiVS2
_chemical_formula_sum  Ti2V2S4
_cell_volume  116.61545652001818
_cell_formula_units_Z  2
loop_
  _symmetry_equiv_pos_site_id
 _symmetry_equiv_pos_as_xyz
 1  'x, y, z'
loop_
 _atom_site_type_symbol
 _atom_site_label
 _atom_site_symmetry_multiplicity
 _atom_site_fract_x
 _atom_site_fract_y
 _atom_site_fract_z
 _atom_site_fract_occupancy
 S  S1  1  0.00000  0.66380  0.71972  1
 S  S2  1  0.00000  0.33620  0.21972  1
 S  S3  1  0.50000  0.82217  0.28531  1
 S  S4  1  0.50000  0.17783  0.78531  1
 Ti  Ti1  1  0.00000  0.05835  0.50903  1
 Ti  Ti2  1  0.00000  0.94165  0.00903  1
 V  V1  1  0.50000  0.44235  0.48594  1
 V  V2  1  0.50000  0.55765  0.98594  1
