CIF file written using JARVIS-Tools package.
data_Mn2OF2
_symmetry_space_group_name_H-M  'Cc'
_cell_length_a       5.44001
_cell_length_b       5.73143
_cell_length_c       5.83828
_cell_angle_alpha    120.619
_cell_angle_beta     57.5472
_cell_angle_gamma    117.388

_symmetry_Int_Tables_number  9
_chemical_formula_structural  Mn2OF2
_chemical_formula_sum  Mn4O2F4
_cell_volume  127.74427074572279
_cell_formula_units_Z  2
loop_
  _symmetry_equiv_pos_site_id
 _symmetry_equiv_pos_as_xyz
 1  'x, y, z'
loop_
 _atom_site_type_symbol
 _atom_site_label
 _atom_site_symmetry_multiplicity
 _atom_site_fract_x
 _atom_site_fract_y
 _atom_site_fract_z
 _atom_site_fract_occupancy
 F  F1  1  0.27585  0.79620  0.92445  1
 F  F2  1  0.77585  0.29620  0.09590  1
 F  F3  1  0.42102  0.23858  0.74895  1
 F  F4  1  0.92102  0.73858  0.56861  1
 Mn  Mn1  1  0.15226  0.40831  0.19050  1
 Mn  Mn2  1  0.65226  0.90831  0.56555  1
 Mn  Mn3  1  0.36384  0.06291  0.33794  1
 Mn  Mn4  1  0.86384  0.56291  0.86113  1
 O  O1  1  0.03703  0.24400  0.48208  1
 O  O2  1  0.53703  0.74400  0.22489  1
