CIF file written using JARVIS-Tools package.
data_PbCO3
_symmetry_space_group_name_H-M  'Pnma'
_cell_length_a       5.22911
_cell_length_b       6.08
_cell_length_c       8.5585
_cell_angle_alpha    90
_cell_angle_beta     90
_cell_angle_gamma    90

_symmetry_Int_Tables_number  62
_chemical_formula_structural  PbCO3
_chemical_formula_sum  Pb4C4O2
_cell_volume  272.10034609438645
_cell_formula_units_Z  4
loop_
  _symmetry_equiv_pos_site_id
 _symmetry_equiv_pos_as_xyz
 1  'x, y, z'
loop_
 _atom_site_type_symbol
 _atom_site_label
 _atom_site_symmetry_multiplicity
 _atom_site_fract_x
 _atom_site_fract_y
 _atom_site_fract_z
 _atom_site_fract_occupancy
 C  C1  1  0.25000  0.91060  0.73861  1
 C  C2  1  0.75000  0.08940  0.26139  1
 C  C3  1  0.25000  0.41060  0.76139  1
 C  C4  1  0.75000  0.58940  0.23861  1
 O  O1  1  0.53505  0.59119  0.31492  1
 O  O2  1  0.46495  0.40881  0.68508  1
 O  O3  1  0.96495  0.09119  0.18508  1
 O  O4  1  0.03505  0.90881  0.81492  1
 O  O5  1  0.53505  0.09119  0.18508  1
 O  O6  1  0.96495  0.59119  0.31492  1
 O  O7  1  0.25000  0.40065  0.91289  1
 O  O8  1  0.46495  0.90881  0.81492  1
 O  O9  1  0.25000  0.90065  0.58711  1
 O  O10  1  0.75000  0.59935  0.08711  1
 O  O11  1  0.03505  0.40881  0.68508  1
 O  O12  1  0.75000  0.09935  0.41289  1
 Pb  Pb1  1  0.75000  0.74458  0.58328  1
 Pb  Pb2  1  0.25000  0.25542  0.41672  1
 Pb  Pb3  1  0.75000  0.24458  0.91672  1
 Pb  Pb4  1  0.25000  0.75542  0.08328  1
