CIF file written using JARVIS-Tools package.
data_H8C11SO
_symmetry_space_group_name_H-M  'P1'
_cell_length_a       3.78311
_cell_length_b       8.57882
_cell_length_c       12.8015
_cell_angle_alpha    79.2227
_cell_angle_beta     85.6733
_cell_angle_gamma    87.8572

_symmetry_Int_Tables_number  1
_chemical_formula_structural  H8C11SO
_chemical_formula_sum  H6C22S2O2
_cell_volume  406.86084178715953
_cell_formula_units_Z  2
loop_
  _symmetry_equiv_pos_site_id
 _symmetry_equiv_pos_as_xyz
 1  'x, y, z'
loop_
 _atom_site_type_symbol
 _atom_site_label
 _atom_site_symmetry_multiplicity
 _atom_site_fract_x
 _atom_site_fract_y
 _atom_site_fract_z
 _atom_site_fract_occupancy
 C  C1  1  0.30051  0.68005  0.81374  1
 C  C2  1  0.24633  0.82756  0.84466  1
 C  C3  1  0.01749  0.54937  0.48405  1
 C  C4  1  0.01757  0.54937  0.98409  1
 C  C5  1  0.07277  0.83675  0.44413  1
 C  C6  1  0.30035  0.68007  0.31372  1
 C  C7  1  0.07294  0.83676  0.94414  1
 C  C8  1  0.24617  0.82758  0.34464  1
 C  C9  1  0.95900  0.70027  0.51185  1
 C  C10  1  0.89865  0.40974  0.06049  1
 C  C11  1  0.54892  0.97778  0.68516  1
 C  C12  1  0.54875  0.97779  0.18515  1
 C  C13  1  0.67294  0.14473  0.65418  1
 C  C14  1  0.67279  0.14476  0.15418  1
 C  C15  1  0.89865  0.40973  0.56047  1
 C  C16  1  0.72340  0.24627  0.72257  1
 C  C17  1  0.72304  0.24632  0.22257  1
 C  C18  1  0.84860  0.39578  0.66971  1
 C  C19  1  0.84833  0.39582  0.16972  1
 C  C20  1  0.95914  0.70028  0.01187  1
 C  C21  1  0.18947  0.54267  0.38402  1
 C  C22  1  0.18958  0.54266  0.88405  1
 H  H1  1  0.24329  0.42780  0.86047  1
 H  H2  1  0.90991  0.49009  0.71094  1
 H  H3  1  0.43087  0.66987  0.23646  1
 H  H4  1  0.43104  0.66983  0.73650  1
 H  H5  1  0.81552  0.70940  0.08749  1
 H  H6  1  0.02689  0.95372  0.46495  1
 H  H7  1  0.02709  0.95372  0.96496  1
 H  H8  1  0.38669  0.94462  0.62475  1
 H  H9  1  0.38652  0.94466  0.12474  1
 H  H10  1  0.90951  0.49014  0.21096  1
 H  H11  1  0.67195  0.21235  0.80829  1
 H  H12  1  0.67136  0.21241  0.30828  1
 H  H13  1  0.77348  0.89163  0.69689  1
 H  H14  1  0.77331  0.89166  0.19687  1
 H  H15  1  0.24321  0.42782  0.36043  1
 H  H16  1  0.81539  0.70937  0.58747  1
 O  O1  1  0.34399  0.97127  0.78513  1
 O  O2  1  0.34382  0.97129  0.28512  1
 S  S1  1  0.78024  0.23455  0.02346  1
 S  S2  1  0.78009  0.23456  0.52345  1
