CIF file written using JARVIS-Tools package.
data_HfMoP
_symmetry_space_group_name_H-M  'P-62m'
_cell_length_a       6.93605
_cell_length_b       6.93605
_cell_length_c       3.41907
_cell_angle_alpha    90
_cell_angle_beta     90
_cell_angle_gamma    120

_symmetry_Int_Tables_number  189
_chemical_formula_structural  HfMoP
_chemical_formula_sum  Hf3Mo3P3
_cell_volume  142.4501460259108
_cell_formula_units_Z  3
loop_
  _symmetry_equiv_pos_site_id
 _symmetry_equiv_pos_as_xyz
 1  'x, y, z'
loop_
 _atom_site_type_symbol
 _atom_site_label
 _atom_site_symmetry_multiplicity
 _atom_site_fract_x
 _atom_site_fract_y
 _atom_site_fract_z
 _atom_site_fract_occupancy
 Hf  Hf1  1  0.00000  0.59673  0.50000  1
 Hf  Hf2  1  0.40327  0.40327  0.50000  1
 Hf  Hf3  1  0.59673  0.00000  0.50000  1
 Mo  Mo1  1  0.25328  -0.00000  0.00000  1
 Mo  Mo2  1  0.74672  0.74672  0.00000  1
 Mo  Mo3  1  -0.00000  0.25328  0.00000  1
 P  P1  1  0.66667  0.33333  0.00000  1
 P  P2  1  0.33333  0.66667  0.00000  1
 P  P3  1  0.00000  0.00000  0.50000  1
