CIF file written using JARVIS-Tools package.
data_VPO5
_symmetry_space_group_name_H-M  'P4/n'
_cell_length_a       4.19114
_cell_length_b       6.24752
_cell_length_c       6.24752
_cell_angle_alpha    90
_cell_angle_beta     90
_cell_angle_gamma    90

_symmetry_Int_Tables_number  85
_chemical_formula_structural  VPO5
_chemical_formula_sum  V2P2O0
_cell_volume  163.58653427217382
_cell_formula_units_Z  2
loop_
  _symmetry_equiv_pos_site_id
 _symmetry_equiv_pos_as_xyz
 1  'x, y, z'
loop_
 _atom_site_type_symbol
 _atom_site_label
 _atom_site_symmetry_multiplicity
 _atom_site_fract_x
 _atom_site_fract_y
 _atom_site_fract_z
 _atom_site_fract_occupancy
 O  O1  1  0.24438  0.25000  0.25000  1
 O  O2  1  0.71484  0.25265  0.95113  1
 O  O3  1  0.75562  0.75000  0.75000  1
 O  O4  1  0.71484  0.54887  0.25265  1
 O  O5  1  0.28516  0.74735  0.04887  1
 O  O6  1  0.28516  0.04887  0.75265  1
 O  O7  1  0.28516  0.45113  0.74735  1
 O  O8  1  0.71484  0.95113  0.24735  1
 O  O9  1  0.71484  0.24735  0.54887  1
 O  O10  1  0.28516  0.75265  0.45113  1
 P  P1  1  0.50000  0.25000  0.75000  1
 P  P2  1  0.50000  0.75000  0.25000  1
 V  V1  1  0.37232  0.75000  0.75000  1
 V  V2  1  0.62768  0.25000  0.25000  1
