data_image0
_chemical_formula_structural       Eu8I20K4
_chemical_formula_sum              "Eu8 I20 K4"
_cell_length_a       9.95064
_cell_length_b       8.93651
_cell_length_c       14.2064
_cell_angle_alpha    90
_cell_angle_beta     90.062
_cell_angle_gamma    90

_space_group_name_H-M_alt    "P 1"
_space_group_IT_number       1

loop_
  _space_group_symop_operation_xyz
  'x, y, z'

loop_
  _atom_site_type_symbol
  _atom_site_label
  _atom_site_symmetry_multiplicity
  _atom_site_fract_x
  _atom_site_fract_y
  _atom_site_fract_z
  _atom_site_occupancy
  Eu  Eu1       1.0  0.00271  0.02200  0.81900  1.0000
  Eu  Eu2       1.0  0.99700  0.52200  0.68100  1.0000
  Eu  Eu3       1.0  0.99700  0.97800  0.18100  1.0000
  Eu  Eu4       1.0  0.00271  0.47800  0.31900  1.0000
  Eu  Eu5       1.0  0.24700  0.42400  0.00442  1.0000
  Eu  Eu6       1.0  0.75200  0.92400  0.49600  1.0000
  Eu  Eu7       1.0  0.75300  0.57600  0.99600  1.0000
  Eu  Eu8       1.0  0.24700  0.07610  0.50400  1.0000
  I   I1        1.0  0.95800  0.15800  0.60000  1.0000
  I   I2        1.0  0.04160  0.65800  0.90000  1.0000
  I   I3        1.0  0.04160  0.84200  0.40000  1.0000
  I   I4        1.0  0.95800  0.34200  0.09990  1.0000
  I   I5        1.0  0.53700  0.17400  0.58200  1.0000
  I   I6        1.0  0.46300  0.67400  0.91800  1.0000
  I   I7        1.0  0.46300  0.82600  0.41800  1.0000
  I   I8        1.0  0.53700  0.32600  0.08240  1.0000
  I   I9        1.0  0.21300  0.04260  0.00201  1.0000
  I   I10       1.0  0.78700  0.54300  0.49800  1.0000
  I   I11       1.0  0.78700  0.95700  0.99800  1.0000
  I   I12       1.0  0.21300  0.45700  0.50200  1.0000
  I   I13       1.0  0.78300  0.33500  0.81900  1.0000
  I   I14       1.0  0.21700  0.83500  0.68100  1.0000
  I   I15       1.0  0.21700  0.66500  0.18100  1.0000
  I   I16       1.0  0.78300  0.16500  0.31900  1.0000
  I   I17       1.0  0.23100  0.30700  0.78200  1.0000
  I   I18       1.0  0.76900  0.80700  0.71800  1.0000
  I   I19       1.0  0.76900  0.69300  0.21800  1.0000
  I   I20       1.0  0.23100  0.19300  0.28200  1.0000
  K   K1        1.0  0.50900  0.05050  0.83000  1.0000
  K   K2        1.0  0.49100  0.55000  0.67000  1.0000
  K   K3        1.0  0.49100  0.95000  0.17000  1.0000
  K   K4        1.0  0.50900  0.45000  0.33000  1.0000
