CIF file written using JARVIS-Tools package.
data_H12PbC8O4
_symmetry_space_group_name_H-M  'P-1'
_cell_length_a       3.97909
_cell_length_b       4.33326
_cell_length_c       12.9627
_cell_angle_alpha    90.7481
_cell_angle_beta     93.5829
_cell_angle_gamma    103.102

_symmetry_Int_Tables_number  2
_chemical_formula_structural  H12PbC8O4
_chemical_formula_sum  H2PbC8O4
_cell_volume  217.1803900159685
_cell_formula_units_Z  1
loop_
  _symmetry_equiv_pos_site_id
 _symmetry_equiv_pos_as_xyz
 1  'x, y, z'
loop_
 _atom_site_type_symbol
 _atom_site_label
 _atom_site_symmetry_multiplicity
 _atom_site_fract_x
 _atom_site_fract_y
 _atom_site_fract_z
 _atom_site_fract_occupancy
 C  C1  1  0.62720  0.26908  0.99179  1
 C  C2  1  0.82981  0.28215  0.18185  1
 C  C3  1  0.95552  0.49540  0.27805  1
 C  C4  1  0.05771  0.31614  0.37142  1
 C  C5  1  0.18329  0.52937  0.46763  1
 C  C6  1  0.27974  0.34026  0.55985  1
 C  C7  1  0.38557  0.54242  0.65771  1
 C  C8  1  0.73336  0.47127  0.08963  1
 H  H1  1  0.83451  0.12674  0.38967  1
 H  H2  1  0.49867  0.23645  0.54249  1
 H  H3  1  0.95053  0.66789  0.07459  1
 H  H4  1  0.75239  0.61711  0.29829  1
 H  H5  1  0.17874  0.68475  0.25978  1
 H  H6  1  0.26090  0.19450  0.35119  1
 H  H7  1  0.40844  0.71772  0.45087  1
 H  H8  1  0.60461  0.09387  0.19863  1
 H  H9  1  0.03309  0.16199  0.16096  1
 H  H10  1  0.06263  0.14352  0.57485  1
 H  H11  1  0.51458  0.57524  0.10702  1
 H  H12  1  -0.02008  0.64945  0.48851  1
 O  O1  1  0.61571  0.79840  0.65578  1
 O  O2  1  0.39708  0.01311  -0.00622  1
 O  O3  1  0.77833  0.35903  0.90829  1
 O  O4  1  0.23410  0.45242  0.74115  1
 Pb  Pb1  1  0.00653  0.90576  0.82475  1
