CIF file written using JARVIS-Tools package.
data_PuUN2
_symmetry_space_group_name_H-M  'R-3m'
_cell_length_a       3.46492
_cell_length_b       3.46492
_cell_length_c       5.97527
_cell_angle_alpha    73.1458
_cell_angle_beta     90
_cell_angle_gamma    120

_symmetry_Int_Tables_number  166
_chemical_formula_structural  PuUN2
_chemical_formula_sum  PuUN2
_cell_volume  58.54087547047723
_cell_formula_units_Z  1
loop_
  _symmetry_equiv_pos_site_id
 _symmetry_equiv_pos_as_xyz
 1  'x, y, z'
loop_
 _atom_site_type_symbol
 _atom_site_label
 _atom_site_symmetry_multiplicity
 _atom_site_fract_x
 _atom_site_fract_y
 _atom_site_fract_z
 _atom_site_fract_occupancy
 N  N1  1  0.24551  0.49102  0.26347  1
 N  N2  1  0.75449  0.50898  0.73653  1
 Pu  Pu1  1  0.00000  0.00000  0.00000  1
 U  U1  1  0.50000  0.00000  0.50000  1
