CIF file written using JARVIS-Tools package.
data_SrNd2S4
_symmetry_space_group_name_H-M  'I-42d'
_cell_length_a       7.51471
_cell_length_b       7.5147
_cell_length_c       7.51471
_cell_angle_alpha    109.428
_cell_angle_beta     109.557
_cell_angle_gamma    109.428

_symmetry_Int_Tables_number  122
_chemical_formula_structural  SrNd2S4
_chemical_formula_sum  Sr2Nd4S8
_cell_volume  326.67345575657424
_cell_formula_units_Z  2
loop_
  _symmetry_equiv_pos_site_id
 _symmetry_equiv_pos_as_xyz
 1  'x, y, z'
loop_
 _atom_site_type_symbol
 _atom_site_label
 _atom_site_symmetry_multiplicity
 _atom_site_fract_x
 _atom_site_fract_y
 _atom_site_fract_z
 _atom_site_fract_occupancy
 Nd  Nd1  1  0.25000  0.62747  0.37747  1
 Nd  Nd2  1  0.62253  0.37253  0.25000  1
 Nd  Nd3  1  0.75000  0.87253  0.12253  1
 Nd  Nd4  1  0.87747  0.12747  0.75000  1
 S  S1  1  0.99072  0.84726  0.49166  1
 S  S2  1  0.50928  0.00093  0.85654  1
 S  S3  1  0.14346  0.15274  0.14439  1
 S  S4  1  0.35654  0.50093  0.00928  1
 S  S5  1  0.64439  0.65274  0.64346  1
 S  S6  1  0.50834  0.99907  0.35561  1
 S  S7  1  0.85561  0.49907  0.00834  1
 S  S8  1  0.99166  0.34726  0.49072  1
 Sr  Sr1  1  0.12500  0.75000  0.87500  1
 Sr  Sr2  1  0.37500  0.25000  0.62500  1
