CIF file written using JARVIS-Tools package.
data_TbUTe4
_symmetry_space_group_name_H-M  'Imm2'
_cell_length_a       7.9982
_cell_length_b       7.9982
_cell_length_c       7.99819
_cell_angle_alpha    149.561
_cell_angle_beta     134.624
_cell_angle_gamma    55.6243

_symmetry_Int_Tables_number  44
_chemical_formula_structural  TbUTe4
_chemical_formula_sum  TbUTe4
_cell_volume  183.29556996573183
_cell_formula_units_Z  1
loop_
  _symmetry_equiv_pos_site_id
 _symmetry_equiv_pos_as_xyz
 1  'x, y, z'
loop_
 _atom_site_type_symbol
 _atom_site_label
 _atom_site_symmetry_multiplicity
 _atom_site_fract_x
 _atom_site_fract_y
 _atom_site_fract_z
 _atom_site_fract_occupancy
 Tb  Tb1  1  0.13822  0.13822  0.00000  1
 Te  Te1  1  0.70511  0.20511  0.50000  1
 Te  Te2  1  0.29717  0.79717  0.50000  1
 Te  Te3  1  0.74938  0.49801  0.25137  1
 Te  Te4  1  0.24665  0.49801  0.74863  1
 U  U1  1  0.86349  0.86349  0.00000  1
