CIF file written using JARVIS-Tools package.
data_YbNdSe3
_symmetry_space_group_name_H-M  'Cmcm'
_cell_length_a       4.09907
_cell_length_b       7.45297
_cell_length_c       9.27888
_cell_angle_alpha    90
_cell_angle_beta     90
_cell_angle_gamma    105.962

_symmetry_Int_Tables_number  63
_chemical_formula_structural  YbNdSe3
_chemical_formula_sum  Yb2Nd2Se6
_cell_volume  272.5430506312444
_cell_formula_units_Z  2
loop_
  _symmetry_equiv_pos_site_id
 _symmetry_equiv_pos_as_xyz
 1  'x, y, z'
loop_
 _atom_site_type_symbol
 _atom_site_label
 _atom_site_symmetry_multiplicity
 _atom_site_fract_x
 _atom_site_fract_y
 _atom_site_fract_z
 _atom_site_fract_occupancy
 Nd  Nd1  1  0.75110  0.50220  0.75000  1
 Nd  Nd2  1  0.24890  0.49780  0.25000  1
 Se  Se1  1  0.89242  0.78484  0.25000  1
 Se  Se2  1  0.10758  0.21516  0.75000  1
 Se  Se3  1  0.35912  0.71824  0.57435  1
 Se  Se4  1  0.64088  0.28176  0.42565  1
 Se  Se5  1  0.35912  0.71824  0.92565  1
 Se  Se6  1  0.64088  0.28176  0.07435  1
 Yb  Yb1  1  0.00000  0.00000  0.00000  1
 Yb  Yb2  1  0.00000  0.00000  0.50000  1
