CIF file written using JARVIS-Tools package.
data_MgH2C3O4
_symmetry_space_group_name_H-M  'C2'
_cell_length_a       4.74748
_cell_length_b       6.39774
_cell_length_c       6.70618
_cell_angle_alpha    74.8065
_cell_angle_beta     69.3133
_cell_angle_gamma    73.7478

_symmetry_Int_Tables_number  5
_chemical_formula_structural  MgH2C3O4
_chemical_formula_sum  Mg2H4C6O8
_cell_volume  179.89458538244327
_cell_formula_units_Z  2
loop_
  _symmetry_equiv_pos_site_id
 _symmetry_equiv_pos_as_xyz
 1  'x, y, z'
loop_
 _atom_site_type_symbol
 _atom_site_label
 _atom_site_symmetry_multiplicity
 _atom_site_fract_x
 _atom_site_fract_y
 _atom_site_fract_z
 _atom_site_fract_occupancy
 C  C1  1  0.49836  0.51768  0.66542  1
 C  C2  1  0.45438  0.09859  0.28119  1
 C  C3  1  0.47636  0.30813  0.83811  1
 C  C4  1  0.47637  0.30813  0.33811  1
 C  C5  1  0.45438  0.09859  0.78119  1
 C  C6  1  0.49836  0.51768  0.16542  1
 H  H1  1  0.26561  0.34620  0.47112  1
 H  H2  1  0.26561  0.34620  0.97112  1
 H  H3  1  0.68711  0.27006  0.38476  1
 H  H4  1  0.68711  0.27006  0.88476  1
 Mg  Mg1  1  0.97641  0.80815  0.43435  1
 Mg  Mg2  1  0.97641  0.80815  0.93435  1
 O  O1  1  0.24567  0.65828  0.15638  1
 O  O2  1  0.76016  0.54950  0.04950  1
 O  O3  1  0.76016  0.54950  0.54950  1
 O  O4  1  0.19258  0.06682  0.31203  1
 O  O5  1  0.19258  0.06682  0.81203  1
 O  O6  1  0.70705  0.95796  0.21615  1
 O  O7  1  0.70705  0.95796  0.71615  1
 O  O8  1  0.24568  0.65828  0.65638  1
