CIF file written using JARVIS-Tools package.
data_HoBeCu4
_symmetry_space_group_name_H-M  'P-6m2'
_cell_length_a       5.04253
_cell_length_b       5.04253
_cell_length_c       3.82548
_cell_angle_alpha    90
_cell_angle_beta     90
_cell_angle_gamma    120

_symmetry_Int_Tables_number  187
_chemical_formula_structural  HoBeCu4
_chemical_formula_sum  HoBeCu4
_cell_volume  84.23908807843809
_cell_formula_units_Z  1
loop_
  _symmetry_equiv_pos_site_id
 _symmetry_equiv_pos_as_xyz
 1  'x, y, z'
loop_
 _atom_site_type_symbol
 _atom_site_label
 _atom_site_symmetry_multiplicity
 _atom_site_fract_x
 _atom_site_fract_y
 _atom_site_fract_z
 _atom_site_fract_occupancy
 Be  Be1  1  0.00000  0.00000  0.00000  1
 Cu  Cu1  1  0.33333  0.66667  0.00000  1
 Cu  Cu2  1  0.67661  0.83830  0.50000  1
 Cu  Cu3  1  0.16170  0.83830  0.50000  1
 Cu  Cu4  1  0.16170  0.32339  0.50000  1
 Ho  Ho1  1  0.66667  0.33333  0.00000  1
