CIF file written using JARVIS-Tools package.
data_LiCo2OF3
_symmetry_space_group_name_H-M  'Pmc2_1'
_cell_length_a       6.11183
_cell_length_b       5.85499
_cell_length_c       8.5605
_cell_angle_alpha    90
_cell_angle_beta     90.0002
_cell_angle_gamma    90

_symmetry_Int_Tables_number  26
_chemical_formula_structural  LiCo2OF3
_chemical_formula_sum  Li4Co8O4F2
_cell_volume  306.33463500624174
_cell_formula_units_Z  4
loop_
  _symmetry_equiv_pos_site_id
 _symmetry_equiv_pos_as_xyz
 1  'x, y, z'
loop_
 _atom_site_type_symbol
 _atom_site_label
 _atom_site_symmetry_multiplicity
 _atom_site_fract_x
 _atom_site_fract_y
 _atom_site_fract_z
 _atom_site_fract_occupancy
 Co  Co1  1  0.00340  0.25816  0.36533  1
 Co  Co2  1  0.50340  0.25816  0.88467  1
 Co  Co3  1  0.50340  0.74184  0.88467  1
 Co  Co4  1  0.77128  0.00000  0.61069  1
 Co  Co5  1  0.27128  0.00000  0.63931  1
 Co  Co6  1  0.00340  0.74184  0.36533  1
 Co  Co7  1  0.70733  0.50000  0.09668  1
 Co  Co8  1  0.20733  0.50000  0.15332  1
 F  F1  1  0.23541  0.50000  0.90831  1
 F  F2  1  0.76306  0.00000  0.85325  1
 F  F3  1  0.52174  0.24560  0.62058  1
 F  F4  1  0.52174  0.75440  0.62058  1
 F  F5  1  0.96674  0.25209  0.11291  1
 F  F6  1  0.96674  0.74791  0.11291  1
 F  F7  1  0.02174  0.75441  0.62942  1
 F  F8  1  0.26306  0.00000  0.39675  1
 F  F9  1  0.46674  0.74791  0.13710  1
 F  F10  1  0.46674  0.25209  0.13710  1
 F  F11  1  0.73541  0.50000  0.34170  1
 F  F12  1  0.02174  0.24559  0.62942  1
 Li  Li1  1  0.02718  0.00000  0.97613  1
 Li  Li2  1  0.52718  0.00000  0.27387  1
 Li  Li3  1  0.48925  0.50000  0.48603  1
 Li  Li4  1  0.98925  0.50000  0.76398  1
 O  O1  1  0.71729  0.50000  0.87317  1
 O  O2  1  0.80546  0.00000  0.38817  1
 O  O3  1  0.30546  0.00000  0.86183  1
 O  O4  1  0.21729  0.50000  0.37683  1
