CIF file written using JARVIS-Tools package.
data_SrCaCu2O4
_symmetry_space_group_name_H-M  'I4/mmm'
_cell_length_a       5.12162
_cell_length_b       5.12162
_cell_length_c       5.12162
_cell_angle_alpha    114.72
_cell_angle_beta     114.72
_cell_angle_gamma    99.4171

_symmetry_Int_Tables_number  139
_chemical_formula_structural  SrCaCu2O4
_chemical_formula_sum  SrCaCu2O4
_cell_volume  101.09269993543764
_cell_formula_units_Z  1
loop_
  _symmetry_equiv_pos_site_id
 _symmetry_equiv_pos_as_xyz
 1  'x, y, z'
loop_
 _atom_site_type_symbol
 _atom_site_label
 _atom_site_symmetry_multiplicity
 _atom_site_fract_x
 _atom_site_fract_y
 _atom_site_fract_z
 _atom_site_fract_occupancy
 Ca  Ca1  1  0.00000  0.00000  0.00000  1
 Cu  Cu1  1  0.25000  0.75000  0.50000  1
 Cu  Cu2  1  0.75000  0.25000  0.50000  1
 O  O1  1  0.50000  0.50000  0.50000  1
 O  O2  1  0.00000  -0.00000  0.50000  1
 O  O3  1  -0.00000  0.50000  -0.00000  1
 O  O4  1  0.50000  0.00000  0.00000  1
 Sr  Sr1  1  0.50000  0.50000  -0.00000  1
