CIF file written using JARVIS-Tools package.
data_NiO2
_symmetry_space_group_name_H-M  'R-3m'
_cell_length_a       4.63663
_cell_length_b       4.63663
_cell_length_c       4.63663
_cell_angle_alpha    35.417
_cell_angle_beta     35.4169
_cell_angle_gamma    35.4169

_symmetry_Int_Tables_number  166
_chemical_formula_structural  NiO2
_chemical_formula_sum  NiO2
_cell_volume  29.912373060244853
_cell_formula_units_Z  1
loop_
  _symmetry_equiv_pos_site_id
 _symmetry_equiv_pos_as_xyz
 1  'x, y, z'
loop_
 _atom_site_type_symbol
 _atom_site_label
 _atom_site_symmetry_multiplicity
 _atom_site_fract_x
 _atom_site_fract_y
 _atom_site_fract_z
 _atom_site_fract_occupancy
 Ni  Ni1  1  0.00000  0.00000  0.00000  1
 O  O1  1  0.26089  0.26089  0.26089  1
 O  O2  1  0.73911  0.73911  0.73911  1
