CIF file written using JARVIS-Tools package.
data_V3O5F
_symmetry_space_group_name_H-M  'P-1'
_cell_length_a       4.59589
_cell_length_b       5.43237
_cell_length_c       7.45935
_cell_angle_alpha    84.2019
_cell_angle_beta     88.5233
_cell_angle_gamma    88.4986

_symmetry_Int_Tables_number  2
_chemical_formula_structural  V3O5F
_chemical_formula_sum  V6O0F2
_cell_volume  185.16765811990916
_cell_formula_units_Z  2
loop_
  _symmetry_equiv_pos_site_id
 _symmetry_equiv_pos_as_xyz
 1  'x, y, z'
loop_
 _atom_site_type_symbol
 _atom_site_label
 _atom_site_symmetry_multiplicity
 _atom_site_fract_x
 _atom_site_fract_y
 _atom_site_fract_z
 _atom_site_fract_occupancy
 F  F1  1  0.19918  0.80422  0.39557  1
 F  F2  1  0.80082  0.19578  0.60443  1
 O  O1  1  0.70419  0.03153  0.26990  1
 O  O2  1  0.80616  0.53935  0.26479  1
 O  O3  1  0.79498  0.86788  0.92929  1
 O  O4  1  0.69763  0.69771  0.59674  1
 O  O5  1  0.70285  0.36707  0.93190  1
 O  O6  1  0.30237  0.30229  0.40326  1
 O  O7  1  0.29715  0.63293  0.06810  1
 O  O8  1  0.29581  0.96847  0.73010  1
 O  O9  1  0.19384  0.46065  0.73521  1
 O  O10  1  0.20502  0.13212  0.07071  1
 V  V1  1  0.02767  0.17106  0.85800  1
 V  V2  1  0.97233  0.82894  0.14200  1
 V  V3  1  -0.00000  0.50000  0.50000  1
 V  V4  1  0.51181  0.34173  0.17098  1
 V  V5  1  0.48819  0.65827  0.82902  1
 V  V6  1  0.50000  0.00000  0.50000  1
