CIF file written using JARVIS-Tools package.
data_LuZrSb
_symmetry_space_group_name_H-M  'I4/mmm'
_cell_length_a       4.24331
_cell_length_b       4.24332
_cell_length_c       8.66432
_cell_angle_alpha    104.174
_cell_angle_beta     104.174
_cell_angle_gamma    90

_symmetry_Int_Tables_number  139
_chemical_formula_structural  LuZrSb
_chemical_formula_sum  Lu2Zr2Sb2
_cell_volume  146.35393255072344
_cell_formula_units_Z  2
loop_
  _symmetry_equiv_pos_site_id
 _symmetry_equiv_pos_as_xyz
 1  'x, y, z'
loop_
 _atom_site_type_symbol
 _atom_site_label
 _atom_site_symmetry_multiplicity
 _atom_site_fract_x
 _atom_site_fract_y
 _atom_site_fract_z
 _atom_site_fract_occupancy
 Lu  Lu1  1  0.67429  0.67429  0.34859  1
 Lu  Lu2  1  0.32571  0.32571  0.65141  1
 Sb  Sb1  1  0.13768  0.13768  0.27536  1
 Sb  Sb2  1  0.86232  0.86232  0.72464  1
 Zr  Zr1  1  -0.00000  0.50000  -0.00000  1
 Zr  Zr2  1  0.50000  -0.00000  -0.00000  1
