CIF file written using JARVIS-Tools package.
data_BiPO4
_symmetry_space_group_name_H-M  'P2_1/c'
_cell_length_a       6.62766
_cell_length_b       6.76385
_cell_length_c       8.73965
_cell_angle_alpha    90
_cell_angle_beta     124.962
_cell_angle_gamma    90

_symmetry_Int_Tables_number  14
_chemical_formula_structural  BiPO4
_chemical_formula_sum  Bi4P4O6
_cell_volume  321.08025373819083
_cell_formula_units_Z  4
loop_
  _symmetry_equiv_pos_site_id
 _symmetry_equiv_pos_as_xyz
 1  'x, y, z'
loop_
 _atom_site_type_symbol
 _atom_site_label
 _atom_site_symmetry_multiplicity
 _atom_site_fract_x
 _atom_site_fract_y
 _atom_site_fract_z
 _atom_site_fract_occupancy
 Bi  Bi1  1  0.70211  0.61560  0.26346  1
 Bi  Bi2  1  0.29789  0.11560  0.23654  1
 Bi  Bi3  1  0.29789  0.38440  0.73654  1
 Bi  Bi4  1  0.70211  0.88440  0.76346  1
 O  O1  1  0.29864  0.72482  0.43425  1
 O  O2  1  0.70136  0.22482  0.06575  1
 O  O3  1  0.70136  0.27518  0.56575  1
 O  O4  1  0.94902  0.32096  0.40487  1
 O  O5  1  0.51513  0.68778  0.93870  1
 O  O6  1  0.48487  0.18778  0.56130  1
 O  O7  1  0.29864  0.77518  0.93425  1
 O  O8  1  0.51513  0.81222  0.43870  1
 O  O9  1  0.23018  0.03044  0.69507  1
 O  O10  1  0.76982  0.96956  0.30493  1
 O  O11  1  0.48487  0.31222  0.06130  1
 O  O12  1  0.23018  0.46956  0.19507  1
 O  O13  1  0.05098  0.67904  0.59513  1
 O  O14  1  0.94902  0.17904  0.90487  1
 O  O15  1  0.76982  0.53044  0.80493  1
 O  O16  1  0.05098  0.82096  0.09513  1
 P  P1  1  0.09514  0.86235  0.72192  1
 P  P2  1  0.90486  0.36235  0.77808  1
 P  P3  1  0.90486  0.13765  0.27808  1
 P  P4  1  0.09514  0.63765  0.22192  1
