CIF file written using JARVIS-Tools package.
data_Be4AlNi
_symmetry_space_group_name_H-M  'F-43m'
_cell_length_a       4.24803
_cell_length_b       4.24803
_cell_length_c       4.24802
_cell_angle_alpha    60
_cell_angle_beta     60
_cell_angle_gamma    60

_symmetry_Int_Tables_number  216
_chemical_formula_structural  Be4AlNi
_chemical_formula_sum  Be4AlNi
_cell_volume  54.205846790625415
_cell_formula_units_Z  1
loop_
  _symmetry_equiv_pos_site_id
 _symmetry_equiv_pos_as_xyz
 1  'x, y, z'
loop_
 _atom_site_type_symbol
 _atom_site_label
 _atom_site_symmetry_multiplicity
 _atom_site_fract_x
 _atom_site_fract_y
 _atom_site_fract_z
 _atom_site_fract_occupancy
 Al  Al1  1  0.25000  0.25000  0.25000  1
 Be  Be1  1  0.62607  0.62607  0.12180  1
 Be  Be2  1  0.62607  0.12180  0.62607  1
 Be  Be3  1  0.12180  0.62607  0.62607  1
 Be  Be4  1  0.62607  0.62607  0.62607  1
 Ni  Ni1  1  0.00000  0.00000  0.00000  1
