CIF file written using JARVIS-Tools package.
data_YCuP2
_symmetry_space_group_name_H-M  'P4/nmm'
_cell_length_a       3.74696
_cell_length_b       3.74696
_cell_length_c       9.76343
_cell_angle_alpha    90
_cell_angle_beta     90
_cell_angle_gamma    90

_symmetry_Int_Tables_number  129
_chemical_formula_structural  YCuP2
_chemical_formula_sum  Y2Cu2P4
_cell_volume  137.07600248760247
_cell_formula_units_Z  2
loop_
  _symmetry_equiv_pos_site_id
 _symmetry_equiv_pos_as_xyz
 1  'x, y, z'
loop_
 _atom_site_type_symbol
 _atom_site_label
 _atom_site_symmetry_multiplicity
 _atom_site_fract_x
 _atom_site_fract_y
 _atom_site_fract_z
 _atom_site_fract_occupancy
 Cu  Cu1  1  0.50000  0.50000  0.50000  1
 Cu  Cu2  1  0.00000  0.00000  0.50000  1
 P  P1  1  0.00000  0.50000  0.65666  1
 P  P2  1  0.50000  0.00000  0.34334  1
 P  P3  1  0.50000  0.50000  0.00000  1
 P  P4  1  0.00000  0.00000  0.00000  1
 Y  Y1  1  0.00000  0.50000  0.23125  1
 Y  Y2  1  0.50000  0.00000  0.76875  1
