CIF file written using JARVIS-Tools package.
data_Ba2PdO2F2
_symmetry_space_group_name_H-M  'I4/mmm'
_cell_length_a       4.19695
_cell_length_b       4.19695
_cell_length_c       7.65414
_cell_angle_alpha    105.912
_cell_angle_beta     105.912
_cell_angle_gamma    90

_symmetry_Int_Tables_number  139
_chemical_formula_structural  Ba2PdO2F2
_chemical_formula_sum  Ba2PdO2F2
_cell_volume  124.27692931794145
_cell_formula_units_Z  1
loop_
  _symmetry_equiv_pos_site_id
 _symmetry_equiv_pos_as_xyz
 1  'x, y, z'
loop_
 _atom_site_type_symbol
 _atom_site_label
 _atom_site_symmetry_multiplicity
 _atom_site_fract_x
 _atom_site_fract_y
 _atom_site_fract_z
 _atom_site_fract_occupancy
 Ba  Ba1  1  0.63488  0.63488  0.26976  1
 Ba  Ba2  1  0.36512  0.36512  0.73024  1
 F  F1  1  0.75000  0.25000  0.50000  1
 F  F2  1  0.25000  0.75000  0.50000  1
 O  O1  1  0.50000  0.00000  -0.00000  1
 O  O2  1  0.00000  0.50000  0.00000  1
 Pd  Pd1  1  0.00000  0.00000  0.00000  1
