CIF file written using JARVIS-Tools package.
data_Al2Si4O11
_symmetry_space_group_name_H-M  'P-1'
_cell_length_a       5.3514
_cell_length_b       5.24295
_cell_length_c       9.46694
_cell_angle_alpha    85.5894
_cell_angle_beta     96.3069
_cell_angle_gamma    59.2481

_symmetry_Int_Tables_number  2
_chemical_formula_structural  Al2Si4O11
_chemical_formula_sum  Al2Si4O
_cell_volume  224.11491084362783
_cell_formula_units_Z  1
loop_
  _symmetry_equiv_pos_site_id
 _symmetry_equiv_pos_as_xyz
 1  'x, y, z'
loop_
 _atom_site_type_symbol
 _atom_site_label
 _atom_site_symmetry_multiplicity
 _atom_site_fract_x
 _atom_site_fract_y
 _atom_site_fract_z
 _atom_site_fract_occupancy
 Al  Al1  1  0.31224  0.37491  -0.00019  1
 Al  Al2  1  0.68776  0.62509  0.00019  1
 O  O1  1  0.50000  -0.00000  0.00000  1
 O  O2  1  0.38360  0.60650  0.87501  1
 O  O3  1  0.03782  0.10716  0.67592  1
 O  O4  1  0.94840  0.47676  0.87433  1
 O  O5  1  0.61640  0.39350  0.12499  1
 O  O6  1  0.56002  0.66091  0.63177  1
 O  O7  1  0.43998  0.33909  0.36823  1
 O  O8  1  0.09885  0.58450  0.63241  1
 O  O9  1  0.90115  0.41550  0.36759  1
 O  O10  1  0.05160  0.52324  0.12567  1
 O  O11  1  0.96218  0.89284  0.32408  1
 Si  Si1  1  0.08841  0.54718  0.29913  1
 Si  Si2  1  0.91159  0.45282  0.70087  1
 Si  Si3  1  0.73371  0.25439  0.29776  1
 Si  Si4  1  0.26629  0.74561  0.70224  1
