CIF file written using JARVIS-Tools package.
data_PdRhPb4
_symmetry_space_group_name_H-M  'I422'
_cell_length_a       5.70723
_cell_length_b       5.70722
_cell_length_c       5.70722
_cell_angle_alpha    105.646
_cell_angle_beta     105.646
_cell_angle_gamma    117.427

_symmetry_Int_Tables_number  97
_chemical_formula_structural  PdRhPb4
_chemical_formula_sum  PdRhPb4
_cell_volume  141.00799526496718
_cell_formula_units_Z  1
loop_
  _symmetry_equiv_pos_site_id
 _symmetry_equiv_pos_as_xyz
 1  'x, y, z'
loop_
 _atom_site_type_symbol
 _atom_site_label
 _atom_site_symmetry_multiplicity
 _atom_site_fract_x
 _atom_site_fract_y
 _atom_site_fract_z
 _atom_site_fract_occupancy
 Pb  Pb1  1  0.91385  0.41385  0.82770  1
 Pb  Pb2  1  0.58615  0.08615  0.17230  1
 Pb  Pb3  1  0.08615  0.91385  0.50000  1
 Pb  Pb4  1  0.41385  0.58615  0.50000  1
 Pd  Pd1  1  0.00000  0.00000  0.00000  1
 Rh  Rh1  1  0.50000  0.50000  -0.00000  1
