CIF file written using JARVIS-Tools package.
data_Yb4As2O
_symmetry_space_group_name_H-M  'I4/mmm'
_cell_length_a       4.47864
_cell_length_b       4.47863
_cell_length_c       8.20456
_cell_angle_alpha    105.839
_cell_angle_beta     105.839
_cell_angle_gamma    90

_symmetry_Int_Tables_number  139
_chemical_formula_structural  Yb4As2O
_chemical_formula_sum  Yb4As2O
_cell_volume  151.81488495141798
_cell_formula_units_Z  1
loop_
  _symmetry_equiv_pos_site_id
 _symmetry_equiv_pos_as_xyz
 1  'x, y, z'
loop_
 _atom_site_type_symbol
 _atom_site_label
 _atom_site_symmetry_multiplicity
 _atom_site_fract_x
 _atom_site_fract_y
 _atom_site_fract_z
 _atom_site_fract_occupancy
 As  As1  1  0.63719  0.63719  0.27437  1
 As  As2  1  0.36281  0.36281  0.72563  1
 O  O1  1  0.00000  0.00000  0.00000  1
 Yb  Yb1  1  0.83167  0.83167  0.66333  1
 Yb  Yb2  1  0.16833  0.16833  0.33667  1
 Yb  Yb3  1  -0.00000  0.50000  -0.00000  1
 Yb  Yb4  1  0.50000  0.00000  0.00000  1
