CIF file written using JARVIS-Tools package.
data_CeNd2S4
_symmetry_space_group_name_H-M  'I-42d'
_cell_length_a       7.42056
_cell_length_b       7.42056
_cell_length_c       7.42055
_cell_angle_alpha    109.625
_cell_angle_beta     109.625
_cell_angle_gamma    109.163

_symmetry_Int_Tables_number  122
_chemical_formula_structural  CeNd2S4
_chemical_formula_sum  Ce2Nd4S8
_cell_volume  314.5416193275653
_cell_formula_units_Z  2
loop_
  _symmetry_equiv_pos_site_id
 _symmetry_equiv_pos_as_xyz
 1  'x, y, z'
loop_
 _atom_site_type_symbol
 _atom_site_label
 _atom_site_symmetry_multiplicity
 _atom_site_fract_x
 _atom_site_fract_y
 _atom_site_fract_z
 _atom_site_fract_occupancy
 Ce  Ce1  1  0.62500  0.37500  0.25000  1
 Ce  Ce2  1  0.87500  0.12500  0.75000  1
 Nd  Nd1  1  0.13298  0.75000  0.88298  1
 Nd  Nd2  1  0.25000  0.63298  0.38298  1
 Nd  Nd3  1  0.36702  0.25000  0.61702  1
 Nd  Nd4  1  0.75000  0.86702  0.11702  1
 S  S1  1  -0.00065  0.85129  0.50192  1
 S  S2  1  0.99743  0.34937  0.49808  1
 S  S3  1  0.14871  0.15063  0.14806  1
 S  S4  1  0.35129  0.49935  0.00192  1
 S  S5  1  0.65063  0.64871  0.64806  1
 S  S6  1  0.50065  0.00257  0.85194  1
 S  S7  1  0.50257  0.00065  0.35194  1
 S  S8  1  0.84937  0.49743  0.99808  1
