CIF file written using JARVIS-Tools package.
data_Li2Fe3TeO8
_symmetry_space_group_name_H-M  'P3m1'
_cell_length_a       5.77062
_cell_length_b       5.77062
_cell_length_c       9.82872
_cell_angle_alpha    90
_cell_angle_beta     90
_cell_angle_gamma    120

_symmetry_Int_Tables_number  156
_chemical_formula_structural  Li2Fe3TeO8
_chemical_formula_sum  Li4Fe6Te2O6
_cell_volume  283.44681223372686
_cell_formula_units_Z  2
loop_
  _symmetry_equiv_pos_site_id
 _symmetry_equiv_pos_as_xyz
 1  'x, y, z'
loop_
 _atom_site_type_symbol
 _atom_site_label
 _atom_site_symmetry_multiplicity
 _atom_site_fract_x
 _atom_site_fract_y
 _atom_site_fract_z
 _atom_site_fract_occupancy
 Fe  Fe1  1  0.82721  0.17279  0.78516  1
 Fe  Fe2  1  0.82721  0.65443  0.78516  1
 Fe  Fe3  1  0.34557  0.17279  0.78516  1
 Fe  Fe4  1  0.17715  0.82285  0.28255  1
 Fe  Fe5  1  0.64570  0.82285  0.28255  1
 Fe  Fe6  1  0.17715  0.35430  0.28255  1
 Li  Li1  1  0.66667  0.33333  0.08785  1
 Li  Li2  1  0.00000  0.00000  0.51067  1
 Li  Li3  1  0.00000  0.00000  0.01360  1
 Li  Li4  1  0.33333  0.66667  0.60537  1
 O  O1  1  0.51346  0.02693  0.67564  1
 O  O2  1  0.83610  0.16390  0.40426  1
 O  O3  1  0.48604  0.97209  0.14702  1
 O  O4  1  0.66667  0.33333  0.89107  1
 O  O5  1  0.00000  0.00000  0.69861  1
 O  O6  1  0.00000  0.00000  0.20336  1
 O  O7  1  0.32781  0.16390  0.40426  1
 O  O8  1  0.51346  0.48654  0.67564  1
 O  O9  1  0.69202  0.84601  0.89645  1
 O  O10  1  0.48604  0.51396  0.14702  1
 O  O11  1  0.02791  0.51396  0.14702  1
 O  O12  1  0.33333  0.66667  0.39598  1
 O  O13  1  0.97307  0.48654  0.67564  1
 O  O14  1  0.15399  0.30798  0.89645  1
 O  O15  1  0.83610  0.67219  0.40426  1
 O  O16  1  0.15399  0.84601  0.89645  1
 Te  Te1  1  0.33333  0.66667  0.00314  1
 Te  Te2  1  0.66667  0.33333  0.50923  1
