CIF file written using JARVIS-Tools package.
data_Sr3UO6
_symmetry_space_group_name_H-M  'P2_1/c'
_cell_length_a       6.03071
_cell_length_b       6.26992
_cell_length_c       8.6502
_cell_angle_alpha    90
_cell_angle_beta     90.4618
_cell_angle_gamma    90

_symmetry_Int_Tables_number  14
_chemical_formula_structural  Sr3UO6
_chemical_formula_sum  Sr6U2O2
_cell_volume  327.0709626983646
_cell_formula_units_Z  2
loop_
  _symmetry_equiv_pos_site_id
 _symmetry_equiv_pos_as_xyz
 1  'x, y, z'
loop_
 _atom_site_type_symbol
 _atom_site_label
 _atom_site_symmetry_multiplicity
 _atom_site_fract_x
 _atom_site_fract_y
 _atom_site_fract_z
 _atom_site_fract_occupancy
 O  O1  1  0.36939  0.54296  0.47562  1
 O  O2  1  0.57695  0.25638  0.82574  1
 O  O3  1  0.46715  0.80522  0.80157  1
 O  O4  1  0.03287  0.15842  0.69843  1
 O  O5  1  0.96713  0.65842  0.30157  1
 O  O6  1  0.42305  0.75638  0.17426  1
 O  O7  1  0.86940  0.92068  0.97562  1
 O  O8  1  0.07694  0.20726  0.32575  1
 O  O9  1  0.92306  0.70726  0.67425  1
 O  O10  1  0.53285  0.30522  0.19843  1
 O  O11  1  0.63061  0.04296  0.52438  1
 O  O12  1  0.13060  0.42068  0.02438  1
 Sr  Sr1  1  0.73486  0.53318  0.00599  1
 Sr  Sr2  1  0.26514  0.03318  0.99401  1
 Sr  Sr3  1  0.23487  0.93047  0.50599  1
 Sr  Sr4  1  0.76513  0.43047  0.49401  1
 Sr  Sr5  1  0.25000  0.48182  0.75000  1
 Sr  Sr6  1  0.75000  0.98182  0.25000  1
 U  U1  1  0.24999  0.48182  0.25000  1
 U  U2  1  0.75001  0.98182  0.75000  1
