CIF file written using JARVIS-Tools package.
data_Mn3O5F
_symmetry_space_group_name_H-M  'C2/m'
_cell_length_a       7.06368
_cell_length_b       5.36949
_cell_length_c       5.36949
_cell_angle_alpha    70.8097
_cell_angle_beta     70.5723
_cell_angle_gamma    70.5723

_symmetry_Int_Tables_number  12
_chemical_formula_structural  Mn3O5F
_chemical_formula_sum  Mn6O0F2
_cell_volume  175.59595298364985
_cell_formula_units_Z  2
loop_
  _symmetry_equiv_pos_site_id
 _symmetry_equiv_pos_as_xyz
 1  'x, y, z'
loop_
 _atom_site_type_symbol
 _atom_site_label
 _atom_site_symmetry_multiplicity
 _atom_site_fract_x
 _atom_site_fract_y
 _atom_site_fract_z
 _atom_site_fract_occupancy
 F  F1  1  0.36988  0.41826  0.41826  1
 F  F2  1  0.29679  0.91507  0.91507  1
 Mn  Mn1  1  0.98851  0.99532  0.99532  1
 Mn  Mn2  1  0.51205  0.00988  0.00988  1
 Mn  Mn3  1  0.83333  0.66667  0.66667  1
 Mn  Mn4  1  0.33333  0.66667  0.66667  1
 Mn  Mn5  1  0.67816  0.33801  0.33801  1
 Mn  Mn6  1  0.15462  0.32346  0.32346  1
 O  O1  1  0.00013  0.69253  0.30517  1
 O  O2  1  0.00013  0.30517  0.69253  1
 O  O3  1  0.33333  0.96944  0.36389  1
 O  O4  1  0.03568  0.76943  0.76943  1
 O  O5  1  0.63099  0.56391  0.56391  1
 O  O6  1  0.96270  0.22767  0.22767  1
 O  O7  1  0.33333  0.36389  0.96944  1
 O  O8  1  0.66653  0.02817  0.64080  1
 O  O9  1  0.70396  0.10566  0.10566  1
 O  O10  1  0.66653  0.64080  0.02817  1
