CIF file written using JARVIS-Tools package.
data_LiCrSnO4
_symmetry_space_group_name_H-M  'P4_322'
_cell_length_a       6.05272
_cell_length_b       6.05272
_cell_length_c       8.45838
_cell_angle_alpha    90
_cell_angle_beta     90
_cell_angle_gamma    90

_symmetry_Int_Tables_number  95
_chemical_formula_structural  LiCrSnO4
_chemical_formula_sum  Li4Cr4Sn4O6
_cell_volume  309.87629870636295
_cell_formula_units_Z  4
loop_
  _symmetry_equiv_pos_site_id
 _symmetry_equiv_pos_as_xyz
 1  'x, y, z'
loop_
 _atom_site_type_symbol
 _atom_site_label
 _atom_site_symmetry_multiplicity
 _atom_site_fract_x
 _atom_site_fract_y
 _atom_site_fract_z
 _atom_site_fract_occupancy
 Cr  Cr1  1  0.24379  0.50000  0.25000  1
 Cr  Cr2  1  0.50000  0.24379  0.00000  1
 Cr  Cr3  1  0.50000  0.75621  0.50000  1
 Cr  Cr4  1  0.75621  0.50000  0.75000  1
 Li  Li1  1  0.00000  0.23515  0.00000  1
 Li  Li2  1  0.00000  0.76485  0.50000  1
 Li  Li3  1  0.23515  0.00000  0.25000  1
 Li  Li4  1  0.76485  0.00000  0.75000  1
 O  O1  1  0.02559  0.73714  0.24894  1
 O  O2  1  0.26336  0.52065  0.48478  1
 O  O3  1  0.26336  0.47935  0.01522  1
 O  O4  1  0.02559  0.26286  0.25106  1
 O  O5  1  0.26286  0.02559  0.99894  1
 O  O6  1  0.97441  0.26286  0.74894  1
 O  O7  1  0.47935  0.73664  0.26522  1
 O  O8  1  0.26286  0.97441  0.50106  1
 O  O9  1  0.52065  0.26336  0.76522  1
 O  O10  1  0.73714  0.02559  0.00106  1
 O  O11  1  0.73664  0.52065  0.51522  1
 O  O12  1  0.73664  0.47935  0.98478  1
 O  O13  1  0.47935  0.26336  0.23478  1
 O  O14  1  0.73714  0.97441  0.49894  1
 O  O15  1  0.52065  0.73664  0.73478  1
 O  O16  1  0.97441  0.73714  0.75106  1
 Sn  Sn1  1  0.25112  0.25112  0.62500  1
 Sn  Sn2  1  0.25112  0.74888  0.87500  1
 Sn  Sn3  1  0.74888  0.25112  0.37500  1
 Sn  Sn4  1  0.74888  0.74888  0.12500  1
