CIF file written using JARVIS-Tools package.
data_RbSbF6
_symmetry_space_group_name_H-M  'R-3'
_cell_length_a       5.06026
_cell_length_b       5.06025
_cell_length_c       5.06025
_cell_angle_alpha    96.9603
_cell_angle_beta     96.9602
_cell_angle_gamma    96.9603

_symmetry_Int_Tables_number  148
_chemical_formula_structural  RbSbF6
_chemical_formula_sum  RbSbF6
_cell_volume  126.45168733361317
_cell_formula_units_Z  1
loop_
  _symmetry_equiv_pos_site_id
 _symmetry_equiv_pos_as_xyz
 1  'x, y, z'
loop_
 _atom_site_type_symbol
 _atom_site_label
 _atom_site_symmetry_multiplicity
 _atom_site_fract_x
 _atom_site_fract_y
 _atom_site_fract_z
 _atom_site_fract_occupancy
 F  F1  1  0.20458  0.32025  0.92301  1
 F  F2  1  0.32025  0.92301  0.20458  1
 F  F3  1  0.07699  0.79542  0.67975  1
 F  F4  1  0.67975  0.07699  0.79542  1
 F  F5  1  0.79542  0.67975  0.07699  1
 F  F6  1  0.92301  0.20458  0.32025  1
 Rb  Rb1  1  0.50000  0.50000  0.50000  1
 Sb  Sb1  1  0.00000  0.00000  0.00000  1
