CIF file written using JARVIS-Tools package.
data_H6C10S2O
_symmetry_space_group_name_H-M  'P1'
_cell_length_a       4.62292
_cell_length_b       8.4341
_cell_length_c       10.8994
_cell_angle_alpha    108.497
_cell_angle_beta     92.4029
_cell_angle_gamma    94.8627

_symmetry_Int_Tables_number  1
_chemical_formula_structural  H6C10S2O
_chemical_formula_sum  H2C20S4O2
_cell_volume  400.4995341396644
_cell_formula_units_Z  2
loop_
  _symmetry_equiv_pos_site_id
 _symmetry_equiv_pos_as_xyz
 1  'x, y, z'
loop_
 _atom_site_type_symbol
 _atom_site_label
 _atom_site_symmetry_multiplicity
 _atom_site_fract_x
 _atom_site_fract_y
 _atom_site_fract_z
 _atom_site_fract_occupancy
 C  C1  1  0.69992  0.31445  0.40117  1
 C  C2  1  0.19992  0.31445  0.90117  1
 C  C3  1  0.58434  0.94174  0.77214  1
 C  C4  1  0.08434  0.94174  0.27214  1
 C  C5  1  0.84141  0.44002  0.51790  1
 C  C6  1  0.34141  0.44002  0.01790  1
 C  C7  1  0.83491  0.07178  0.78207  1
 C  C8  1  0.33491  0.07178  0.28207  1
 C  C9  1  0.69678  0.27605  0.26775  1
 C  C10  1  0.08052  0.56906  0.52862  1
 C  C11  1  0.19678  0.27605  0.76775  1
 C  C12  1  0.96044  0.76592  0.01920  1
 C  C13  1  0.46044  0.76592  0.51920  1
 C  C14  1  0.98685  0.13816  0.70019  1
 C  C15  1  0.48685  0.13816  0.20019  1
 C  C16  1  0.75495  0.62722  0.94833  1
 C  C17  1  0.25495  0.62722  0.44833  1
 C  C18  1  0.58052  0.56906  0.02862  1
 C  C19  1  0.44191  0.81088  0.65190  1
 C  C20  1  0.94191  0.81088  0.15190  1
 H  H1  1  0.64704  0.87293  0.83857  1
 H  H2  1  0.33784  0.34375  0.71941  1
 H  H3  1  0.90716  0.01315  0.31945  1
 H  H4  1  0.94819  0.09256  0.59513  1
 H  H5  1  0.74019  0.57169  0.84307  1
 H  H6  1  0.24019  0.57169  0.34307  1
 H  H7  1  0.44819  0.09256  0.09513  1
 H  H8  1  0.83784  0.34375  0.21941  1
 H  H9  1  0.11741  0.82821  0.97341  1
 H  H10  1  0.61741  0.82821  0.47341  1
 H  H11  1  0.14704  0.87293  0.33857  1
 H  H12  1  0.40716  0.01315  0.81945  1
 O  O1  1  0.74529  0.43535  0.62379  1
 O  O2  1  0.24529  0.43535  0.12379  1
 S  S1  1  0.17459  0.68326  0.69018  1
 S  S2  1  0.67459  0.68326  0.19018  1
 S  S3  1  0.44823  0.17812  0.44246  1
 S  S4  1  0.94823  0.17812  0.94246  1
