CIF file written using JARVIS-Tools package.
data_CaH8C6O4
_symmetry_space_group_name_H-M  'P1'
_cell_length_a       4.29464
_cell_length_b       7.36014
_cell_length_c       10.1856
_cell_angle_alpha    95.3903
_cell_angle_beta     92.5088
_cell_angle_gamma    89.0256

_symmetry_Int_Tables_number  1
_chemical_formula_structural  CaH8C6O4
_chemical_formula_sum  Ca2H6C2O8
_cell_volume  320.1997638771363
_cell_formula_units_Z  2
loop_
  _symmetry_equiv_pos_site_id
 _symmetry_equiv_pos_as_xyz
 1  'x, y, z'
loop_
 _atom_site_type_symbol
 _atom_site_label
 _atom_site_symmetry_multiplicity
 _atom_site_fract_x
 _atom_site_fract_y
 _atom_site_fract_z
 _atom_site_fract_occupancy
 C  C1  1  0.37762  0.27982  0.64192  1
 C  C2  1  0.59337  0.32612  0.53495  1
 C  C3  1  0.43148  0.36111  0.40448  1
 C  C4  1  0.44897  0.68076  0.01504  1
 C  C5  1  0.44898  0.18076  0.01504  1
 C  C6  1  0.59337  0.82613  0.53495  1
 C  C7  1  0.43148  0.86111  0.40448  1
 C  C8  1  0.37762  0.77982  0.64192  1
 C  C9  1  0.55201  0.74649  0.77216  1
 C  C10  1  0.55201  0.24649  0.77216  1
 C  C11  1  0.32313  0.71798  0.87849  1
 C  C12  1  0.32314  0.21798  0.87849  1
 Ca  Ca1  1  0.03514  0.51688  0.21792  1
 Ca  Ca2  1  0.03514  0.01688  0.21792  1
 H  H1  1  0.16253  0.33501  0.89167  1
 H  H2  1  0.20664  0.39135  0.66044  1
 H  H3  1  0.20664  0.89135  0.66044  1
 H  H4  1  0.23980  0.15932  0.60565  1
 H  H5  1  0.70972  0.62805  0.75732  1
 H  H6  1  0.76107  0.21443  0.51231  1
 H  H7  1  0.76107  0.71443  0.51231  1
 H  H8  1  0.73628  0.94519  0.56839  1
 H  H9  1  0.23980  0.65932  0.60565  1
 H  H10  1  0.69880  0.86383  0.80618  1
 H  H11  1  0.70972  0.12805  0.75732  1
 H  H12  1  0.69880  0.36383  0.80618  1
 H  H13  1  0.17242  0.60111  0.84588  1
 H  H14  1  0.17242  0.10111  0.84588  1
 H  H15  1  0.16253  0.83501  0.89167  1
 H  H16  1  0.73628  0.44519  0.56839  1
 O  O1  1  0.27976  0.24366  0.11121  1
 O  O2  1  0.56021  0.96397  0.32815  1
 O  O3  1  0.16352  0.79121  0.37393  1
 O  O4  1  0.16352  0.29121  0.37393  1
 O  O5  1  0.69093  0.58360  0.03152  1
 O  O6  1  0.69093  0.08360  0.03152  1
 O  O7  1  0.27976  0.74366  0.11120  1
 O  O8  1  0.56021  0.46397  0.32815  1
