CIF file written using JARVIS-Tools package.
data_Na2PtO3
_symmetry_space_group_name_H-M  'Immm'
_cell_length_a       5.57805
_cell_length_b       5.57806
_cell_length_c       5.57805
_cell_angle_alpha    147.018
_cell_angle_beta     133.097
_cell_angle_gamma    58.5281

_symmetry_Int_Tables_number  71
_chemical_formula_structural  Na2PtO3
_chemical_formula_sum  Na2PtO3
_cell_volume  68.41905078483721
_cell_formula_units_Z  1
loop_
  _symmetry_equiv_pos_site_id
 _symmetry_equiv_pos_as_xyz
 1  'x, y, z'
loop_
 _atom_site_type_symbol
 _atom_site_label
 _atom_site_symmetry_multiplicity
 _atom_site_fract_x
 _atom_site_fract_y
 _atom_site_fract_z
 _atom_site_fract_occupancy
 Na  Na1  1  0.67245  0.67245  -0.00000  1
 Na  Na2  1  0.32755  0.32755  -0.00000  1
 O  O1  1  0.50000  -0.00000  0.50000  1
 O  O2  1  0.13535  0.63535  0.50000  1
 O  O3  1  0.86465  0.36465  0.50000  1
 Pt  Pt1  1  0.00000  0.00000  0.00000  1
