CIF file written using JARVIS-Tools package.
data_H3C2O
_symmetry_space_group_name_H-M  'P-1'
_cell_length_a       5.10819
_cell_length_b       5.91641
_cell_length_c       13.0644
_cell_angle_alpha    81.2415
_cell_angle_beta     82.236
_cell_angle_gamma    81.5549

_symmetry_Int_Tables_number  2
_chemical_formula_structural  H3C2O
_chemical_formula_sum  H24C6O8
_cell_volume  383.4252074726127
_cell_formula_units_Z  8
loop_
  _symmetry_equiv_pos_site_id
 _symmetry_equiv_pos_as_xyz
 1  'x, y, z'
loop_
 _atom_site_type_symbol
 _atom_site_label
 _atom_site_symmetry_multiplicity
 _atom_site_fract_x
 _atom_site_fract_y
 _atom_site_fract_z
 _atom_site_fract_occupancy
 C  C1  1  0.48981  0.99324  0.77361  1
 C  C2  1  0.56656  0.88332  0.33568  1
 C  C3  1  0.43344  0.11668  0.66432  1
 C  C4  1  0.66445  0.62688  0.33288  1
 C  C5  1  0.33555  0.37312  0.66712  1
 C  C6  1  0.51019  0.00676  0.22639  1
 C  C7  1  0.67989  0.07177  0.58898  1
 C  C8  1  0.09071  0.40734  0.74821  1
 C  C9  1  0.23502  0.01354  0.84929  1
 C  C10  1  0.88129  0.73167  0.14313  1
 C  C11  1  0.11871  0.26833  0.85687  1
 C  C12  1  0.71124  0.63323  0.07995  1
 C  C13  1  0.28876  0.36677  0.92005  1
 C  C14  1  0.90929  0.59266  0.25179  1
 C  C15  1  0.76498  -0.01354  0.15071  1
 C  C16  1  0.32011  0.92823  0.41102  1
 H  H1  1  -0.03830  0.40758  0.24456  1
 H  H2  1  0.92055  0.26823  0.90238  1
 H  H3  1  0.03830  0.59242  0.75544  1
 H  H4  1  0.08108  0.64485  0.28086  1
 H  H5  1  0.91655  0.07154  0.17760  1
 H  H6  1  0.07945  0.73177  0.09762  1
 H  H7  1  0.90930  0.82591  0.52337  1
 H  H8  1  0.63975  0.61312  0.94023  1
 H  H9  1  0.36025  0.38688  0.05977  1
 H  H10  1  0.72193  0.96962  0.35994  1
 H  H11  1  0.27807  0.03038  0.64006  1
 H  H12  1  0.91892  0.35515  0.71914  1
 H  H13  1  0.49838  0.45876  0.68464  1
 H  H14  1  0.71559  0.54402  0.41029  1
 H  H15  1  0.28441  0.45598  0.58971  1
 H  H16  1  0.50162  0.54124  0.31536  1
 H  H17  1  0.64664  0.07154  0.80104  1
 H  H18  1  0.09070  0.17409  0.47663  1
 H  H19  1  0.56382  0.81083  0.76907  1
 H  H20  1  0.43618  0.18917  0.23093  1
 H  H21  1  0.26863  0.92320  0.92757  1
 H  H22  1  0.73137  0.07680  0.07243  1
 H  H23  1  0.08345  0.92846  0.82240  1
 H  H24  1  0.35336  0.92846  0.19896  1
 O  O1  1  0.26693  0.14587  0.42898  1
 O  O2  1  0.82532  0.22162  0.55064  1
 O  O3  1  0.46776  0.48514  0.88039  1
 O  O4  1  0.53224  0.51486  0.11961  1
 O  O5  1  0.23948  0.30996  0.02252  1
 O  O6  1  0.76052  0.69004  0.97748  1
 O  O7  1  0.73307  0.85413  0.57102  1
 O  O8  1  0.17468  0.77838  0.44936  1
