CIF file written using JARVIS-Tools package.
data_CaGa
_symmetry_space_group_name_H-M  'Cmcm'
_cell_length_a       4.04459
_cell_length_b       4.41016
_cell_length_c       6.06166
_cell_angle_alpha    90
_cell_angle_beta     109.489
_cell_angle_gamma    90

_symmetry_Int_Tables_number  63
_chemical_formula_structural  CaGa
_chemical_formula_sum  Ca2Ga2
_cell_volume  101.92910134712635
_cell_formula_units_Z  2
loop_
  _symmetry_equiv_pos_site_id
 _symmetry_equiv_pos_as_xyz
 1  'x, y, z'
loop_
 _atom_site_type_symbol
 _atom_site_label
 _atom_site_symmetry_multiplicity
 _atom_site_fract_x
 _atom_site_fract_y
 _atom_site_fract_z
 _atom_site_fract_occupancy
 Ca  Ca1  1  0.64557  0.25000  0.29114  1
 Ca  Ca2  1  0.35443  0.75000  0.70886  1
 Ga  Ga1  1  0.92992  0.25000  0.85984  1
 Ga  Ga2  1  0.07008  0.75000  0.14016  1
