CIF file written using JARVIS-Tools package.
data_H4N2O3
_symmetry_space_group_name_H-M  'C2'
_cell_length_a       4.5079
_cell_length_b       4.2183
_cell_length_c       4.2183
_cell_angle_alpha    86.2166
_cell_angle_beta     93.0598
_cell_angle_gamma    93.0598

_symmetry_Int_Tables_number  5
_chemical_formula_structural  H4N2O3
_chemical_formula_sum  H4N2O3
_cell_volume  79.82512025744064
_cell_formula_units_Z  1
loop_
  _symmetry_equiv_pos_site_id
 _symmetry_equiv_pos_as_xyz
 1  'x, y, z'
loop_
 _atom_site_type_symbol
 _atom_site_label
 _atom_site_symmetry_multiplicity
 _atom_site_fract_x
 _atom_site_fract_y
 _atom_site_fract_z
 _atom_site_fract_occupancy
 H  H1  1  -0.00000  0.23866  0.76134  1
 H  H2  1  -0.00000  0.70459  0.29541  1
 H  H3  1  0.37928  0.33794  0.08189  1
 H  H4  1  0.62072  0.91811  0.66206  1
 N  N1  1  0.00000  0.05439  0.94561  1
 N  N2  1  0.50000  0.58991  0.41009  1
 O  O1  1  -0.00000  0.53329  0.46671  1
 O  O2  1  0.46406  0.55999  0.09759  1
 O  O3  1  0.53594  0.90241  0.44001  1
