CIF file written using JARVIS-Tools package.
data_Sc3As
_symmetry_space_group_name_H-M  'P6_3/mmc'
_cell_length_a       6.14418
_cell_length_b       6.14417
_cell_length_c       4.86424
_cell_angle_alpha    90
_cell_angle_beta     90
_cell_angle_gamma    120

_symmetry_Int_Tables_number  194
_chemical_formula_structural  Sc3As
_chemical_formula_sum  Sc6As2
_cell_volume  159.02773610096222
_cell_formula_units_Z  2
loop_
  _symmetry_equiv_pos_site_id
 _symmetry_equiv_pos_as_xyz
 1  'x, y, z'
loop_
 _atom_site_type_symbol
 _atom_site_label
 _atom_site_symmetry_multiplicity
 _atom_site_fract_x
 _atom_site_fract_y
 _atom_site_fract_z
 _atom_site_fract_occupancy
 As  As1  1  0.33333  0.66667  0.75000  1
 As  As2  1  0.66667  0.33333  0.25000  1
 Sc  Sc1  1  0.17106  0.34212  0.25000  1
 Sc  Sc2  1  0.65788  0.82894  0.25000  1
 Sc  Sc3  1  0.17106  0.82894  0.25000  1
 Sc  Sc4  1  0.82894  0.65788  0.75000  1
 Sc  Sc5  1  0.34212  0.17106  0.75000  1
 Sc  Sc6  1  0.82894  0.17106  0.75000  1
