CIF file written using JARVIS-Tools package.
data_BaCdPb
_symmetry_space_group_name_H-M  'C2/m'
_cell_length_a       6.71834
_cell_length_b       6.71833
_cell_length_c       8.54949
_cell_angle_alpha    50.811
_cell_angle_beta     50.8111
_cell_angle_gamma    46.6174

_symmetry_Int_Tables_number  12
_chemical_formula_structural  BaCdPb
_chemical_formula_sum  Ba2Cd2Pb2
_cell_volume  203.52306713323497
_cell_formula_units_Z  2
loop_
  _symmetry_equiv_pos_site_id
 _symmetry_equiv_pos_as_xyz
 1  'x, y, z'
loop_
 _atom_site_type_symbol
 _atom_site_label
 _atom_site_symmetry_multiplicity
 _atom_site_fract_x
 _atom_site_fract_y
 _atom_site_fract_z
 _atom_site_fract_occupancy
 Ba  Ba1  1  0.54479  0.54479  0.20463  1
 Ba  Ba2  1  0.45521  0.45521  0.79537  1
 Cd  Cd1  1  0.15602  0.15602  0.39875  1
 Cd  Cd2  1  0.84398  0.84398  0.60125  1
 Pb  Pb1  1  0.83438  0.83438  0.23103  1
 Pb  Pb2  1  0.16562  0.16562  0.76897  1
