CIF file written using JARVIS-Tools package.
data_LiHfS2
_symmetry_space_group_name_H-M  'R3m'
_cell_length_a       6.8466
_cell_length_b       6.8466
_cell_length_c       6.8466
_cell_angle_alpha    30.0351
_cell_angle_beta     30.0351
_cell_angle_gamma    30.035

_symmetry_Int_Tables_number  160
_chemical_formula_structural  LiHfS2
_chemical_formula_sum  LiHfS2
_cell_volume  71.22522227489122
_cell_formula_units_Z  1
loop_
  _symmetry_equiv_pos_site_id
 _symmetry_equiv_pos_as_xyz
 1  'x, y, z'
loop_
 _atom_site_type_symbol
 _atom_site_label
 _atom_site_symmetry_multiplicity
 _atom_site_fract_x
 _atom_site_fract_y
 _atom_site_fract_z
 _atom_site_fract_occupancy
 Hf  Hf1  1  0.00202  0.00202  0.00202  1
 Li  Li1  1  0.83353  0.83353  0.83353  1
 S  S1  1  0.58889  0.58889  0.58889  1
 S  S2  1  0.41556  0.41556  0.41556  1
