CIF file written using JARVIS-Tools package.
data_Li6WN4
_symmetry_space_group_name_H-M  'P4_2/nmc'
_cell_length_a       6.66372
_cell_length_b       6.66372
_cell_length_c       4.88556
_cell_angle_alpha    90
_cell_angle_beta     90
_cell_angle_gamma    90

_symmetry_Int_Tables_number  137
_chemical_formula_structural  Li6WN4
_chemical_formula_sum  Li2W2N8
_cell_volume  216.94419153108774
_cell_formula_units_Z  2
loop_
  _symmetry_equiv_pos_site_id
 _symmetry_equiv_pos_as_xyz
 1  'x, y, z'
loop_
 _atom_site_type_symbol
 _atom_site_label
 _atom_site_symmetry_multiplicity
 _atom_site_fract_x
 _atom_site_fract_y
 _atom_site_fract_z
 _atom_site_fract_occupancy
 Li  Li1  1  0.21287  0.78713  0.00000  1
 Li  Li2  1  0.21287  0.21287  0.00000  1
 Li  Li3  1  0.71287  0.71287  0.50000  1
 Li  Li4  1  0.78713  0.21287  0.00000  1
 Li  Li5  1  0.28713  0.71287  0.50000  1
 Li  Li6  1  0.50000  0.00000  0.57689  1
 Li  Li7  1  0.28713  0.28713  0.50000  1
 Li  Li8  1  0.71287  0.28713  0.50000  1
 Li  Li9  1  0.00000  0.50000  0.42311  1
 Li  Li10  1  0.00000  0.50000  0.92311  1
 Li  Li11  1  0.50000  0.00000  0.07689  1
 Li  Li12  1  0.78713  0.78713  0.00000  1
 N  N1  1  0.50000  0.74288  0.79833  1
 N  N2  1  0.50000  0.25712  0.79833  1
 N  N3  1  0.00000  0.75712  0.70167  1
 N  N4  1  0.00000  0.24288  0.70167  1
 N  N5  1  0.74288  0.50000  0.20167  1
 N  N6  1  0.25712  0.50000  0.20167  1
 N  N7  1  0.75712  0.00000  0.29833  1
 N  N8  1  0.24288  0.00000  0.29833  1
 W  W1  1  0.50000  0.50000  0.00000  1
 W  W2  1  0.00000  0.00000  0.50000  1
