data_image0
_chemical_formula_structural       Te20U4
_chemical_formula_sum              "Te20 U4"
_cell_length_a       18.5763
_cell_length_b       10.2526
_cell_length_c       4.27694
_cell_angle_alpha    90
_cell_angle_beta     90
_cell_angle_gamma    90

_space_group_name_H-M_alt    "P 1"
_space_group_IT_number       1

loop_
  _space_group_symop_operation_xyz
  'x, y, z'

loop_
  _atom_site_type_symbol
  _atom_site_label
  _atom_site_symmetry_multiplicity
  _atom_site_fract_x
  _atom_site_fract_y
  _atom_site_fract_z
  _atom_site_occupancy
  Te  Te1       1.0  0.16100  0.56400  0.39400  1.0000
  Te  Te2       1.0  0.33900  0.43600  0.89400  1.0000
  Te  Te3       1.0  0.66100  0.93600  0.10600  1.0000
  Te  Te4       1.0  0.83900  0.06420  0.60600  1.0000
  Te  Te5       1.0  0.83900  0.43600  0.60600  1.0000
  Te  Te6       1.0  0.66100  0.56400  0.10600  1.0000
  Te  Te7       1.0  0.33900  0.06420  0.89400  1.0000
  Te  Te8       1.0  0.16100  0.93600  0.39400  1.0000
  Te  Te9       1.0  0.03500  0.25000  0.61800  1.0000
  Te  Te10      1.0  0.46500  0.75000  0.11800  1.0000
  Te  Te11      1.0  0.53500  0.25000  0.88200  1.0000
  Te  Te12      1.0  0.96500  0.75000  0.38200  1.0000
  Te  Te13      1.0  0.74500  0.25000  0.32800  1.0000
  Te  Te14      1.0  0.75500  0.75000  0.82800  1.0000
  Te  Te15      1.0  0.24500  0.25000  0.17200  1.0000
  Te  Te16      1.0  0.25500  0.75000  0.67200  1.0000
  Te  Te17      1.0  0.00000  0.00000  0.00000  1.0000
  Te  Te18      1.0  0.50000  0.00000  0.50000  1.0000
  Te  Te19      1.0  0.50000  0.50000  0.50000  1.0000
  Te  Te20      1.0  0.00000  0.50000  0.00000  1.0000
  U   U1        1.0  0.41000  0.25000  0.39300  1.0000
  U   U2        1.0  0.09020  0.75000  0.89300  1.0000
  U   U3        1.0  0.91000  0.25000  0.10700  1.0000
  U   U4        1.0  0.59000  0.75000  0.60700  1.0000
