CIF file written using JARVIS-Tools package.
data_ThTaN3
_symmetry_space_group_name_H-M  'Imma'
_cell_length_a       5.7094
_cell_length_b       5.70941
_cell_length_c       5.7094
_cell_angle_alpha    120.025
_cell_angle_beta     119.194
_cell_angle_gamma    90.6796

_symmetry_Int_Tables_number  74
_chemical_formula_structural  ThTaN3
_chemical_formula_sum  Th2Ta2N6
_cell_volume  132.3590724416035
_cell_formula_units_Z  2
loop_
  _symmetry_equiv_pos_site_id
 _symmetry_equiv_pos_as_xyz
 1  'x, y, z'
loop_
 _atom_site_type_symbol
 _atom_site_label
 _atom_site_symmetry_multiplicity
 _atom_site_fract_x
 _atom_site_fract_y
 _atom_site_fract_z
 _atom_site_fract_occupancy
 N  N1  1  0.35309  0.75000  0.60309  1
 N  N2  1  0.64691  0.25000  0.39691  1
 N  N3  1  0.80819  0.30819  -0.00000  1
 N  N4  1  0.19181  0.19181  0.50000  1
 N  N5  1  0.19181  0.69181  -0.00000  1
 N  N6  1  0.80819  0.80819  0.50000  1
 Ta  Ta1  1  0.50000  0.00000  0.50000  1
 Ta  Ta2  1  0.00000  0.50000  0.50000  1
 Th  Th1  1  0.23615  0.25000  0.98615  1
 Th  Th2  1  0.76385  0.75000  0.01385  1
