CIF file written using JARVIS-Tools package.
data_In2TeAs
_symmetry_space_group_name_H-M  'R3m'
_cell_length_a       8.31326
_cell_length_b       8.31326
_cell_length_c       8.31327
_cell_angle_alpha    31.9087
_cell_angle_beta     31.9088
_cell_angle_gamma    31.9087

_symmetry_Int_Tables_number  160
_chemical_formula_structural  In2TeAs
_chemical_formula_sum  In2TeAs
_cell_volume  142.59632176289855
_cell_formula_units_Z  1
loop_
  _symmetry_equiv_pos_site_id
 _symmetry_equiv_pos_as_xyz
 1  'x, y, z'
loop_
 _atom_site_type_symbol
 _atom_site_label
 _atom_site_symmetry_multiplicity
 _atom_site_fract_x
 _atom_site_fract_y
 _atom_site_fract_z
 _atom_site_fract_occupancy
 As  As1  1  0.87316  0.87316  0.87316  1
 In  In1  1  0.98886  0.98886  0.98886  1
 In  In2  1  0.50823  0.50823  0.50823  1
 Te  Te1  1  0.37975  0.37975  0.37975  1
