CIF file written using JARVIS-Tools package.
data_SbI2F6
_symmetry_space_group_name_H-M  'P-1'
_cell_length_a       5.73454
_cell_length_b       7.97992
_cell_length_c       8.26327
_cell_angle_alpha    77.0123
_cell_angle_beta     78.6533
_cell_angle_gamma    80.3277

_symmetry_Int_Tables_number  2
_chemical_formula_structural  SbI2F6
_chemical_formula_sum  Sb2I4F2
_cell_volume  358.2159638195617
_cell_formula_units_Z  2
loop_
  _symmetry_equiv_pos_site_id
 _symmetry_equiv_pos_as_xyz
 1  'x, y, z'
loop_
 _atom_site_type_symbol
 _atom_site_label
 _atom_site_symmetry_multiplicity
 _atom_site_fract_x
 _atom_site_fract_y
 _atom_site_fract_z
 _atom_site_fract_occupancy
 F  F1  1  0.41723  0.87976  0.80188  1
 F  F2  1  0.15548  0.18073  0.38674  1
 F  F3  1  0.84452  0.81927  0.61326  1
 F  F4  1  0.27214  0.48401  0.43065  1
 F  F5  1  0.28233  0.58636  0.75506  1
 F  F6  1  0.71767  0.41364  0.24494  1
 F  F7  1  0.69109  0.58055  0.88184  1
 F  F8  1  0.58277  0.12024  0.19812  1
 F  F9  1  0.72786  0.51599  0.56935  1
 F  F10  1  0.55478  0.17439  0.52180  1
 F  F11  1  0.44522  0.82561  0.47820  1
 F  F12  1  0.30891  0.41945  0.11816  1
 I  I1  1  0.12282  0.88888  0.23072  1
 I  I2  1  0.87718  0.11112  0.76928  1
 I  I3  1  0.88306  0.75280  0.06416  1
 I  I4  1  0.11694  0.24720  0.93584  1
 Sb  Sb1  1  0.56437  0.69984  0.67839  1
 Sb  Sb2  1  0.43563  0.30016  0.32161  1
