CIF file written using JARVIS-Tools package.
data_ThMn2Co3
_symmetry_space_group_name_H-M  'P6/mmm'
_cell_length_a       5.08792
_cell_length_b       5.08792
_cell_length_c       3.86584
_cell_angle_alpha    90
_cell_angle_beta     90
_cell_angle_gamma    120

_symmetry_Int_Tables_number  191
_chemical_formula_structural  ThMn2Co3
_chemical_formula_sum  ThMn2Co3
_cell_volume  86.66724354582934
_cell_formula_units_Z  1
loop_
  _symmetry_equiv_pos_site_id
 _symmetry_equiv_pos_as_xyz
 1  'x, y, z'
loop_
 _atom_site_type_symbol
 _atom_site_label
 _atom_site_symmetry_multiplicity
 _atom_site_fract_x
 _atom_site_fract_y
 _atom_site_fract_z
 _atom_site_fract_occupancy
 Co  Co1  1  0.50000  0.50000  0.50000  1
 Co  Co2  1  0.50000  0.00000  0.50000  1
 Co  Co3  1  0.00000  0.50000  0.50000  1
 Mn  Mn1  1  0.66667  0.33333  0.00000  1
 Mn  Mn2  1  0.33333  0.66667  0.00000  1
 Th  Th1  1  0.00000  0.00000  0.00000  1
