CIF file written using JARVIS-Tools package.
data_CrO
_symmetry_space_group_name_H-M  'P4_2/mmc'
_cell_length_a       2.96781
_cell_length_b       6.63825
_cell_length_c       6.00846
_cell_angle_alpha    63.8155
_cell_angle_beta     90.0189
_cell_angle_gamma    116.609

_symmetry_Int_Tables_number  131
_chemical_formula_structural  CrO
_chemical_formula_sum  Cr4O4
_cell_volume  92.05749483228338
_cell_formula_units_Z  4
loop_
  _symmetry_equiv_pos_site_id
 _symmetry_equiv_pos_as_xyz
 1  'x, y, z'
loop_
 _atom_site_type_symbol
 _atom_site_label
 _atom_site_symmetry_multiplicity
 _atom_site_fract_x
 _atom_site_fract_y
 _atom_site_fract_z
 _atom_site_fract_occupancy
 Cr  Cr1  1  0.59998  0.50001  0.90000  1
 Cr  Cr2  1  0.09999  0.50002  0.40000  1
 Cr  Cr3  1  0.09999  0.00001  0.90000  1
 Cr  Cr4  1  0.59999  0.00001  0.40000  1
 O  O1  1  0.97482  0.37490  0.14999  1
 O  O2  1  0.47483  0.87491  0.14998  1
 O  O3  1  0.72516  0.12512  0.65001  1
 O  O4  1  0.22515  0.62512  0.65001  1
