CIF file written using JARVIS-Tools package.
data_BaCu3O4
_symmetry_space_group_name_H-M  'Cmmm'
_cell_length_a       3.96453
_cell_length_b       5.55919
_cell_length_c       6.21889
_cell_angle_alpha    116.549
_cell_angle_beta     90
_cell_angle_gamma    90

_symmetry_Int_Tables_number  65
_chemical_formula_structural  BaCu3O4
_chemical_formula_sum  BaCu3O4
_cell_volume  122.60917978808914
_cell_formula_units_Z  1
loop_
  _symmetry_equiv_pos_site_id
 _symmetry_equiv_pos_as_xyz
 1  'x, y, z'
loop_
 _atom_site_type_symbol
 _atom_site_label
 _atom_site_symmetry_multiplicity
 _atom_site_fract_x
 _atom_site_fract_y
 _atom_site_fract_z
 _atom_site_fract_occupancy
 Ba  Ba1  1  0.50000  0.00000  0.00000  1
 Cu  Cu1  1  0.00000  0.50000  -0.00000  1
 Cu  Cu2  1  0.00000  0.24727  0.49453  1
 Cu  Cu3  1  0.00000  0.75273  0.50547  1
 O  O1  1  0.00000  0.38539  0.25877  1
 O  O2  1  0.00000  0.61461  0.74123  1
 O  O3  1  0.00000  0.12662  0.74123  1
 O  O4  1  0.00000  0.87338  0.25877  1
