CIF file written using JARVIS-Tools package.
data_In2S3
_symmetry_space_group_name_H-M  'Imm2'
_cell_length_a       6.90253
_cell_length_b       6.90253
_cell_length_c       6.90253
_cell_angle_alpha    146.56
_cell_angle_beta     132.793
_cell_angle_gamma    59.0819

_symmetry_Int_Tables_number  44
_chemical_formula_structural  In2S3
_chemical_formula_sum  In2S3
_cell_volume  131.83757117063257
_cell_formula_units_Z  1
loop_
  _symmetry_equiv_pos_site_id
 _symmetry_equiv_pos_as_xyz
 1  'x, y, z'
loop_
 _atom_site_type_symbol
 _atom_site_label
 _atom_site_symmetry_multiplicity
 _atom_site_fract_x
 _atom_site_fract_y
 _atom_site_fract_z
 _atom_site_fract_occupancy
 In  In1  1  0.66680  0.65679  0.01001  1
 In  In2  1  0.35322  0.34321  0.01001  1
 S  S1  1  0.37862  0.15630  0.22232  1
 S  S2  1  0.06602  0.84370  0.22232  1
 S  S3  1  0.78533  0.50000  0.28533  1
