CIF file written using JARVIS-Tools package.
data_HfH12C8O4
_symmetry_space_group_name_H-M  'P1'
_cell_length_a       4.09544
_cell_length_b       4.13049
_cell_length_c       11.9485
_cell_angle_alpha    85.6061
_cell_angle_beta     82.1593
_cell_angle_gamma    71.7324

_symmetry_Int_Tables_number  1
_chemical_formula_structural  HfH12C8O4
_chemical_formula_sum  HfH2C8O4
_cell_volume  190.01939621704756
_cell_formula_units_Z  1
loop_
  _symmetry_equiv_pos_site_id
 _symmetry_equiv_pos_as_xyz
 1  'x, y, z'
loop_
 _atom_site_type_symbol
 _atom_site_label
 _atom_site_symmetry_multiplicity
 _atom_site_fract_x
 _atom_site_fract_y
 _atom_site_fract_z
 _atom_site_fract_occupancy
 C  C1  1  0.96594  0.84470  0.67048  1
 C  C2  1  0.45217  0.85342  0.96069  1
 C  C3  1  0.23357  0.61580  0.39839  1
 C  C4  1  0.43039  0.73119  0.29217  1
 C  C5  1  0.25401  0.79031  0.18385  1
 C  C6  1  0.49834  0.87099  0.08345  1
 C  C7  1  0.92902  0.89359  0.45749  1
 C  C8  1  0.99879  0.04762  0.56228  1
 H  H1  1  0.19074  0.55880  0.16838  1
 H  H2  1  0.00816  -0.00042  0.19290  1
 H  H3  1  0.49269  0.96246  0.30787  1
 H  H4  1  0.68200  0.53253  0.27482  1
 H  H5  1  0.71112  0.79366  0.48305  1
 H  H6  1  0.41396  0.49447  0.46025  1
 H  H7  1  0.13886  0.41425  0.37374  1
 H  H8  1  0.25564  0.08183  0.55111  1
 H  H9  1  0.80589  0.29812  0.57675  1
 H  H10  1  0.83682  0.10334  0.39625  1
 H  H11  1  0.75647  0.68199  0.09249  1
 H  H12  1  0.53412  0.11936  0.09347  1
 Hf  Hf1  1  0.98027  0.60054  0.87662  1
 O  O1  1  0.47737  0.51235  0.93244  1
 O  O2  1  0.70406  0.95036  0.74431  1
 O  O3  1  0.19988  0.56581  0.69699  1
 O  O4  1  0.12452  0.05548  0.92329  1
