CIF file written using JARVIS-Tools package.
data_FeF3
_symmetry_space_group_name_H-M  'Fd-3m'
_cell_length_a       6.93072
_cell_length_b       6.93072
_cell_length_c       6.93072
_cell_angle_alpha    60
_cell_angle_beta     60
_cell_angle_gamma    60

_symmetry_Int_Tables_number  227
_chemical_formula_structural  FeF3
_chemical_formula_sum  Fe4F2
_cell_volume  235.4075127526408
_cell_formula_units_Z  4
loop_
  _symmetry_equiv_pos_site_id
 _symmetry_equiv_pos_as_xyz
 1  'x, y, z'
loop_
 _atom_site_type_symbol
 _atom_site_label
 _atom_site_symmetry_multiplicity
 _atom_site_fract_x
 _atom_site_fract_y
 _atom_site_fract_z
 _atom_site_fract_occupancy
 F  F1  1  0.93070  0.93070  0.31930  1
 F  F2  1  0.93070  0.31930  0.31930  1
 F  F3  1  0.31930  0.93070  0.31930  1
 F  F4  1  0.06930  0.68070  0.06930  1
 F  F5  1  0.68070  0.06930  0.06930  1
 F  F6  1  0.68070  0.68070  0.06930  1
 F  F7  1  0.93070  0.31930  0.93070  1
 F  F8  1  0.06930  0.06930  0.68070  1
 F  F9  1  0.68070  0.06930  0.68070  1
 F  F10  1  0.31930  0.31930  0.93070  1
 F  F11  1  0.06930  0.68070  0.68070  1
 F  F12  1  0.31930  0.93070  0.93070  1
 Fe  Fe1  1  0.00000  0.00000  0.50000  1
 Fe  Fe2  1  0.00000  0.00000  0.00000  1
 Fe  Fe3  1  0.00000  0.50000  -0.00000  1
 Fe  Fe4  1  0.50000  0.00000  0.00000  1
