CIF file written using JARVIS-Tools package.
data_Ti3B4Mo
_symmetry_space_group_name_H-M  'Pm'
_cell_length_a       3.05203
_cell_length_b       4.54781
_cell_length_c       6.04118
_cell_angle_alpha    89.6449
_cell_angle_beta     90
_cell_angle_gamma    90

_symmetry_Int_Tables_number  6
_chemical_formula_structural  Ti3B4Mo
_chemical_formula_sum  Ti3B4Mo
_cell_volume  83.85038908010672
_cell_formula_units_Z  1
loop_
  _symmetry_equiv_pos_site_id
 _symmetry_equiv_pos_as_xyz
 1  'x, y, z'
loop_
 _atom_site_type_symbol
 _atom_site_label
 _atom_site_symmetry_multiplicity
 _atom_site_fract_x
 _atom_site_fract_y
 _atom_site_fract_z
 _atom_site_fract_occupancy
 B  B1  1  0.50000  0.10124  0.52935  1
 B  B2  1  0.50000  0.39890  0.02914  1
 B  B3  1  0.00000  0.90163  0.46891  1
 B  B4  1  0.00000  0.60156  0.96888  1
 Mo  Mo1  1  0.50000  0.62231  0.67791  1
 Ti  Ti1  1  0.50000  0.87582  0.17503  1
 Ti  Ti2  1  0.00000  0.38058  0.32803  1
 Ti  Ti3  1  0.00000  0.11795  0.82273  1
