CIF file written using JARVIS-Tools package.
data_Na3BS3
_symmetry_space_group_name_H-M  'C2/c'
_cell_length_a       6.60532
_cell_length_b       6.71439
_cell_length_c       8.32726
_cell_angle_alpha    65.9741
_cell_angle_beta     66.6338
_cell_angle_gamma    60.536

_symmetry_Int_Tables_number  15
_chemical_formula_structural  Na3BS3
_chemical_formula_sum  Na6B2S6
_cell_volume  284.601816085155
_cell_formula_units_Z  2
loop_
  _symmetry_equiv_pos_site_id
 _symmetry_equiv_pos_as_xyz
 1  'x, y, z'
loop_
 _atom_site_type_symbol
 _atom_site_label
 _atom_site_symmetry_multiplicity
 _atom_site_fract_x
 _atom_site_fract_y
 _atom_site_fract_z
 _atom_site_fract_occupancy
 B  B1  1  0.92299  0.25000  0.75000  1
 B  B2  1  0.07701  0.75000  0.25000  1
 Na  Na1  1  0.19006  0.19318  0.00380  1
 Na  Na2  1  0.61296  0.69318  0.50380  1
 Na  Na3  1  0.50000  0.50000  0.00000  1
 Na  Na4  1  0.00000  -0.00000  0.50000  1
 Na  Na5  1  0.80994  0.80682  0.99620  1
 Na  Na6  1  0.38704  0.30682  0.49620  1
 S  S1  1  0.80354  0.02357  0.24914  1
 S  S2  1  0.07625  0.47643  0.25086  1
 S  S3  1  0.19646  0.97643  0.75086  1
 S  S4  1  0.92375  0.52357  0.74914  1
 S  S5  1  0.35890  0.75000  0.25000  1
 S  S6  1  0.64110  0.25000  0.75000  1
