CIF file written using JARVIS-Tools package.
data_MnBiAsO5
_symmetry_space_group_name_H-M  'P-1'
_cell_length_a       5.38475
_cell_length_b       6.9286
_cell_length_c       6.95859
_cell_angle_alpha    109.238
_cell_angle_beta     95.5231
_cell_angle_gamma    110.074

_symmetry_Int_Tables_number  2
_chemical_formula_structural  MnBiAsO5
_chemical_formula_sum  Mn2Bi2As2O0
_cell_volume  223.72117034013937
_cell_formula_units_Z  2
loop_
  _symmetry_equiv_pos_site_id
 _symmetry_equiv_pos_as_xyz
 1  'x, y, z'
loop_
 _atom_site_type_symbol
 _atom_site_label
 _atom_site_symmetry_multiplicity
 _atom_site_fract_x
 _atom_site_fract_y
 _atom_site_fract_z
 _atom_site_fract_occupancy
 As  As1  1  0.35211  0.11987  0.82200  1
 As  As2  1  0.64789  0.88013  0.17800  1
 Bi  Bi1  1  0.92404  0.48444  0.24503  1
 Bi  Bi2  1  0.07596  0.51556  0.75497  1
 Mn  Mn1  1  0.67502  0.78246  0.63681  1
 Mn  Mn2  1  0.32498  0.21754  0.36319  1
 O  O1  1  0.72978  0.44841  0.49627  1
 O  O2  1  0.56834  0.70244  0.91682  1
 O  O3  1  0.43166  0.29756  0.08318  1
 O  O4  1  0.22402  0.22127  0.65623  1
 O  O5  1  0.27022  0.55159  0.50373  1
 O  O6  1  0.77598  0.77873  0.34377  1
 O  O7  1  0.35633  0.90549  0.24032  1
 O  O8  1  0.09028  0.87068  0.78451  1
 O  O9  1  0.64367  0.09451  0.75968  1
 O  O10  1  0.90972  0.12932  0.21549  1
