CIF file written using JARVIS-Tools package.
data_H8PbC6O4
_symmetry_space_group_name_H-M  'P-1'
_cell_length_a       4.52563
_cell_length_b       7.90716
_cell_length_c       10.4349
_cell_angle_alpha    93.6696
_cell_angle_beta     93.9996
_cell_angle_gamma    104.549

_symmetry_Int_Tables_number  2
_chemical_formula_structural  H8PbC6O4
_chemical_formula_sum  H6Pb2C2O8
_cell_volume  359.2685732203475
_cell_formula_units_Z  2
loop_
  _symmetry_equiv_pos_site_id
 _symmetry_equiv_pos_as_xyz
 1  'x, y, z'
loop_
 _atom_site_type_symbol
 _atom_site_label
 _atom_site_symmetry_multiplicity
 _atom_site_fract_x
 _atom_site_fract_y
 _atom_site_fract_z
 _atom_site_fract_occupancy
 C  C1  1  0.24076  0.26435  0.31888  1
 C  C2  1  0.32070  0.20411  0.55167  1
 C  C3  1  0.43513  0.14415  0.78893  1
 C  C4  1  0.54893  0.69359  0.66334  1
 C  C5  1  0.55678  0.20460  0.66350  1
 C  C6  1  0.31952  0.70225  0.55076  1
 C  C7  1  0.40529  0.61687  0.78052  1
 C  C8  1  0.24856  0.77537  0.31905  1
 C  C9  1  0.47794  0.76671  0.43164  1
 C  C10  1  0.47680  0.26484  0.43072  1
 C  C11  1  0.39225  0.85210  0.20189  1
 C  C12  1  0.36251  0.32482  0.19347  1
 H  H1  1  0.17679  0.29120  0.57992  1
 H  H2  1  0.71837  0.33403  0.68316  1
 H  H3  1  0.70515  0.82324  0.69331  1
 H  H4  1  0.70090  0.11579  0.63730  1
 H  H5  1  0.07919  0.13492  0.29921  1
 H  H6  1  0.09234  0.64572  0.28907  1
 H  H7  1  0.09661  0.35315  0.34506  1
 H  H8  1  0.70161  0.61144  0.63473  1
 H  H9  1  0.63615  0.89736  0.45587  1
 H  H10  1  0.62072  0.17775  0.40248  1
 H  H11  1  0.61898  0.67911  0.40087  1
 H  H12  1  0.09586  0.85751  0.34765  1
 H  H13  1  0.17849  0.78985  0.58154  1
 H  H14  1  0.16586  0.07184  0.53052  1
 H  H15  1  0.16130  0.57160  0.52654  1
 H  H16  1  0.63163  0.39711  0.45188  1
 O  O1  1  0.61499  0.43700  0.19280  1
 O  O2  1  0.22837  0.82254  0.09188  1
 O  O3  1  0.13123  0.52418  0.76862  1
 O  O4  1  0.18271  0.03193  0.78963  1
 O  O5  1  0.56920  0.64649  0.89052  1
 O  O6  1  0.61575  0.20377  0.89389  1
 O  O7  1  0.66635  0.94474  0.21380  1
 O  O8  1  0.18194  0.26525  0.08848  1
 Pb  Pb1  1  0.85563  0.97855  0.99322  1
 Pb  Pb2  1  0.94193  0.49044  0.98919  1
