CIF file written using JARVIS-Tools package.
data_Rb2FeI4
_symmetry_space_group_name_H-M  'P2_1'
_cell_length_a       7.56311
_cell_length_b       8.01185
_cell_length_c       10.3245
_cell_angle_alpha    90
_cell_angle_beta     109.783
_cell_angle_gamma    90

_symmetry_Int_Tables_number  4
_chemical_formula_structural  Rb2FeI4
_chemical_formula_sum  Rb4Fe2I8
_cell_volume  588.6844709755778
_cell_formula_units_Z  2
loop_
  _symmetry_equiv_pos_site_id
 _symmetry_equiv_pos_as_xyz
 1  'x, y, z'
loop_
 _atom_site_type_symbol
 _atom_site_label
 _atom_site_symmetry_multiplicity
 _atom_site_fract_x
 _atom_site_fract_y
 _atom_site_fract_z
 _atom_site_fract_occupancy
 Fe  Fe1  1  0.19821  0.25509  0.78579  1
 Fe  Fe2  1  0.80179  0.75509  0.21421  1
 I  I1  1  0.36773  0.25276  0.05506  1
 I  I2  1  0.41784  0.25416  0.63773  1
 I  I3  1  0.97337  0.51261  0.72098  1
 I  I4  1  0.63227  0.75276  0.94494  1
 I  I5  1  0.03080  0.50033  0.28042  1
 I  I6  1  0.58216  0.75416  0.36227  1
 I  I7  1  0.02663  0.01261  0.27902  1
 I  I8  1  0.96920  0.00033  0.71958  1
 Rb  Rb1  1  0.80096  0.25805  0.96263  1
 Rb  Rb2  1  0.70261  0.25830  0.41225  1
 Rb  Rb3  1  0.29739  0.75830  0.58775  1
 Rb  Rb4  1  0.19904  0.75805  0.03737  1
