CIF file written using JARVIS-Tools package.
data_CdH2C3O4
_symmetry_space_group_name_H-M  'P1'
_cell_length_a       3.73671
_cell_length_b       4.19335
_cell_length_c       6.48129
_cell_angle_alpha    83.1734
_cell_angle_beta     85.5645
_cell_angle_gamma    79.202

_symmetry_Int_Tables_number  1
_chemical_formula_structural  CdH2C3O4
_chemical_formula_sum  CdH2C3O4
_cell_volume  98.89388081919246
_cell_formula_units_Z  1
loop_
  _symmetry_equiv_pos_site_id
 _symmetry_equiv_pos_as_xyz
 1  'x, y, z'
loop_
 _atom_site_type_symbol
 _atom_site_label
 _atom_site_symmetry_multiplicity
 _atom_site_fract_x
 _atom_site_fract_y
 _atom_site_fract_z
 _atom_site_fract_occupancy
 C  C1  1  0.12871  0.13664  0.80428  1
 C  C2  1  0.89990  0.04768  0.19916  1
 C  C3  1  0.06789  0.91598  -0.00037  1
 Cd  Cd1  1  0.50088  0.54595  0.50787  1
 H  H1  1  0.88188  0.76023  0.95854  1
 H  H2  1  0.31920  0.74166  0.03236  1
 O  O1  1  0.67938  0.31631  0.19953  1
 O  O2  1  0.97351  0.85493  0.36739  1
 O  O3  1  0.93137  0.41509  0.76282  1
 O  O4  1  0.39704  0.03208  0.67875  1
