CIF file written using JARVIS-Tools package.
data_TeMoSe
_symmetry_space_group_name_H-M  'P-3m1'
_cell_length_a       3.45072
_cell_length_b       3.45072
_cell_length_c       13.724
_cell_angle_alpha    90
_cell_angle_beta     90
_cell_angle_gamma    120

_symmetry_Int_Tables_number  164
_chemical_formula_structural  TeMoSe
_chemical_formula_sum  Te2Mo2Se2
_cell_volume  141.52362949291117
_cell_formula_units_Z  2
loop_
  _symmetry_equiv_pos_site_id
 _symmetry_equiv_pos_as_xyz
 1  'x, y, z'
loop_
 _atom_site_type_symbol
 _atom_site_label
 _atom_site_symmetry_multiplicity
 _atom_site_fract_x
 _atom_site_fract_y
 _atom_site_fract_z
 _atom_site_fract_occupancy
 Mo  Mo1  1  0.33333  0.66667  0.26582  1
 Mo  Mo2  1  0.66667  0.33333  0.73418  1
 Se  Se1  1  0.66667  0.33333  0.38403  1
 Se  Se2  1  0.33333  0.66667  0.61597  1
 Te  Te1  1  0.33333  0.66667  0.87047  1
 Te  Te2  1  0.66667  0.33333  0.12953  1
