CIF file written using JARVIS-Tools package.
data_CdH20C12O4
_symmetry_space_group_name_H-M  'P-1'
_cell_length_a       3.80489
_cell_length_b       4.57661
_cell_length_c       17.4448
_cell_angle_alpha    86.764
_cell_angle_beta     85.3778
_cell_angle_gamma    71.7026

_symmetry_Int_Tables_number  2
_chemical_formula_structural  CdH20C12O4
_chemical_formula_sum  CdH20C2O4
_cell_volume  287.32109553023054
_cell_formula_units_Z  1
loop_
  _symmetry_equiv_pos_site_id
 _symmetry_equiv_pos_as_xyz
 1  'x, y, z'
loop_
 _atom_site_type_symbol
 _atom_site_label
 _atom_site_symmetry_multiplicity
 _atom_site_fract_x
 _atom_site_fract_y
 _atom_site_fract_z
 _atom_site_fract_occupancy
 C  C1  1  0.74012  0.34512  0.38522  1
 C  C2  1  0.13292  0.40708  0.74188  1
 C  C3  1  0.29755  0.26199  0.66580  1
 C  C4  1  0.51596  0.31125  0.52638  1
 C  C5  1  0.58151  0.52015  0.45883  1
 C  C6  1  0.35330  0.48260  0.60035  1
 C  C7  1  0.80705  0.55173  0.31726  1
 C  C8  1  0.96536  0.37665  0.24365  1
 C  C9  1  0.03078  0.58544  0.17605  1
 C  C10  1  0.19294  0.41393  0.10209  1
 C  C11  1  0.24854  0.63436  0.03657  1
 C  C12  1  0.41273  0.48908  0.96049  1
 Cd  Cd1  1  0.77272  0.94813  0.85119  1
 H  H1  1  0.78045  0.13227  0.53774  1
 H  H2  1  0.55763  0.07940  0.67666  1
 H  H3  1  0.00337  0.16499  0.39676  1
 H  H4  1  0.11000  0.13747  0.64987  1
 H  H5  1  0.22908  0.19689  0.25504  1
 H  H6  1  0.33031  0.18615  0.50989  1
 H  H7  1  0.08713  0.65897  0.58969  1
 H  H8  1  0.43629  0.75883  0.05243  1
 H  H9  1  0.76632  0.76453  0.16473  1
 H  H10  1  0.21670  0.71042  0.19248  1
 H  H11  1  0.54384  0.73196  0.30574  1
 H  H12  1  0.55140  0.22182  0.36938  1
 H  H13  1  -0.00406  0.67490  0.33307  1
 H  H14  1  0.76982  0.64351  0.47481  1
 H  H15  1  -0.01154  0.81702  0.02574  1
 H  H16  1  0.53722  0.60721  0.61773  1
 H  H17  1  0.00877  0.28939  0.08479  1
 H  H18  1  0.45910  0.23747  0.11271  1
 H  H19  1  0.77688  0.25336  0.22771  1
 H  H20  1  0.31779  0.69986  0.44740  1
 O  O1  1  0.94980  0.69162  0.74163  1
 O  O2  1  0.36782  0.66322  0.89905  1
 O  O3  1  0.17773  0.23281  0.80331  1
 O  O4  1  0.59563  0.20448  0.96076  1
