CIF file written using JARVIS-Tools package.
data_H6C10S3
_symmetry_space_group_name_H-M  'Pm'
_cell_length_a       3.90042
_cell_length_b       6.22501
_cell_length_c       9.68366
_cell_angle_alpha    89.9958
_cell_angle_beta     90.0032
_cell_angle_gamma    100.515

_symmetry_Int_Tables_number  6
_chemical_formula_structural  H6C10S3
_chemical_formula_sum  H6C0S3
_cell_volume  231.17306135457014
_cell_formula_units_Z  1
loop_
  _symmetry_equiv_pos_site_id
 _symmetry_equiv_pos_as_xyz
 1  'x, y, z'
loop_
 _atom_site_type_symbol
 _atom_site_label
 _atom_site_symmetry_multiplicity
 _atom_site_fract_x
 _atom_site_fract_y
 _atom_site_fract_z
 _atom_site_fract_occupancy
 C  C1  1  0.87985  0.50209  0.21097  1
 C  C2  1  0.14011  0.54548  0.44781  1
 C  C3  1  0.02722  0.32880  0.40968  1
 C  C4  1  0.88321  0.30439  0.87996  1
 C  C5  1  0.88271  0.30439  0.27595  1
 C  C6  1  0.02773  0.32879  0.74623  1
 C  C7  1  0.25215  0.65021  0.57790  1
 C  C8  1  0.70200  0.54180  0.07790  1
 C  C9  1  0.14022  0.54549  0.70802  1
 C  C10  1  0.87995  0.50210  0.94485  1
 H  H1  1  0.64935  0.70946  0.07788  1
 H  H2  1  0.44470  0.43383  0.07788  1
 H  H3  1  0.76842  0.14672  0.92428  1
 H  H4  1  0.04875  0.19010  0.47469  1
 H  H5  1  0.04962  0.19008  0.68129  1
 H  H6  1  0.76760  0.14674  0.23169  1
 S  S1  1  0.07170  0.71828  0.84376  1
 S  S2  1  0.07194  0.71827  0.31200  1
 S  S3  1  0.45726  0.91154  0.57789  1
