CIF file written using JARVIS-Tools package.
data_AgBiTe2
_symmetry_space_group_name_H-M  'R-3m'
_cell_length_a       7.48797
_cell_length_b       7.48797
_cell_length_c       7.48797
_cell_angle_alpha    34.3572
_cell_angle_beta     34.3571
_cell_angle_gamma    34.3572

_symmetry_Int_Tables_number  166
_chemical_formula_structural  AgBiTe2
_chemical_formula_sum  AgBiTe2
_cell_volume  119.26412768492818
_cell_formula_units_Z  1
loop_
  _symmetry_equiv_pos_site_id
 _symmetry_equiv_pos_as_xyz
 1  'x, y, z'
loop_
 _atom_site_type_symbol
 _atom_site_label
 _atom_site_symmetry_multiplicity
 _atom_site_fract_x
 _atom_site_fract_y
 _atom_site_fract_z
 _atom_site_fract_occupancy
 Ag  Ag1  1  0.00000  0.00000  0.00000  1
 Bi  Bi1  1  0.50000  0.50000  0.50000  1
 Te  Te1  1  0.25663  0.25663  0.25663  1
 Te  Te2  1  0.74337  0.74337  0.74337  1
