CIF file written using JARVIS-Tools package.
data_NdAlSi
_symmetry_space_group_name_H-M  'I4_1md'
_cell_length_a       7.87289
_cell_length_b       7.87289
_cell_length_c       7.8729
_cell_angle_alpha    148.81
_cell_angle_beta     148.81
_cell_angle_gamma    44.6914

_symmetry_Int_Tables_number  109
_chemical_formula_structural  NdAlSi
_chemical_formula_sum  Nd2Al2Si2
_cell_volume  130.4795387148254
_cell_formula_units_Z  2
loop_
  _symmetry_equiv_pos_site_id
 _symmetry_equiv_pos_as_xyz
 1  'x, y, z'
loop_
 _atom_site_type_symbol
 _atom_site_label
 _atom_site_symmetry_multiplicity
 _atom_site_fract_x
 _atom_site_fract_y
 _atom_site_fract_z
 _atom_site_fract_occupancy
 Al  Al1  1  0.45832  0.45832  0.00000  1
 Al  Al2  1  0.20832  0.70832  0.50000  1
 Nd  Nd1  1  0.62454  0.12454  0.50000  1
 Nd  Nd2  1  0.87454  0.87454  0.00000  1
 Si  Si1  1  0.04214  0.54214  0.50000  1
 Si  Si2  1  0.29214  0.29214  0.00000  1
