CIF file written using JARVIS-Tools package.
data_Hg3Pb
_symmetry_space_group_name_H-M  'P6_3/mmc'
_cell_length_a       6.61105
_cell_length_b       6.61106
_cell_length_c       5.75342
_cell_angle_alpha    90
_cell_angle_beta     90
_cell_angle_gamma    120

_symmetry_Int_Tables_number  194
_chemical_formula_structural  Hg3Pb
_chemical_formula_sum  Hg6Pb2
_cell_volume  217.76978154453624
_cell_formula_units_Z  2
loop_
  _symmetry_equiv_pos_site_id
 _symmetry_equiv_pos_as_xyz
 1  'x, y, z'
loop_
 _atom_site_type_symbol
 _atom_site_label
 _atom_site_symmetry_multiplicity
 _atom_site_fract_x
 _atom_site_fract_y
 _atom_site_fract_z
 _atom_site_fract_occupancy
 Hg  Hg1  1  0.16517  0.33035  0.25000  1
 Hg  Hg2  1  0.66965  0.83483  0.25000  1
 Hg  Hg3  1  0.16517  0.83483  0.25000  1
 Hg  Hg4  1  0.83483  0.66965  0.75000  1
 Hg  Hg5  1  0.33035  0.16517  0.75000  1
 Hg  Hg6  1  0.83483  0.16517  0.75000  1
 Pb  Pb1  1  0.33333  0.66667  0.75000  1
 Pb  Pb2  1  0.66667  0.33333  0.25000  1
