CIF file written using JARVIS-Tools package.
data_Tb2Mn3Al
_symmetry_space_group_name_H-M  'R-3m'
_cell_length_a       5.076
_cell_length_b       5.29555
_cell_length_c       5.076
_cell_angle_alpha    90
_cell_angle_beta     60
_cell_angle_gamma    118.638

_symmetry_Int_Tables_number  166
_chemical_formula_structural  Tb2Mn3Al
_chemical_formula_sum  Tb2Mn3Al
_cell_volume  98.41968190392512
_cell_formula_units_Z  1
loop_
  _symmetry_equiv_pos_site_id
 _symmetry_equiv_pos_as_xyz
 1  'x, y, z'
loop_
 _atom_site_type_symbol
 _atom_site_label
 _atom_site_symmetry_multiplicity
 _atom_site_fract_x
 _atom_site_fract_y
 _atom_site_fract_z
 _atom_site_fract_occupancy
 Al  Al1  1  0.50000  0.50000  -0.00000  1
 Mn  Mn1  1  0.50000  0.00000  -0.00000  1
 Mn  Mn2  1  0.00000  0.00000  0.50000  1
 Mn  Mn3  1  0.00000  0.00000  0.00000  1
 Tb  Tb1  1  0.73879  0.35818  0.38061  1
 Tb  Tb2  1  0.26121  0.64182  0.61939  1
