CIF file written using JARVIS-Tools package.
data_LiAsH2OF6
_symmetry_space_group_name_H-M  'Imma'
_cell_length_a       7.16054
_cell_length_b       7.16054
_cell_length_c       7.16054
_cell_angle_alpha    117.435
_cell_angle_beta     84.5091
_cell_angle_gamma    129.416

_symmetry_Int_Tables_number  74
_chemical_formula_structural  LiAsH2OF6
_chemical_formula_sum  Li2As2H4O2F2
_cell_volume  241.14204465900957
_cell_formula_units_Z  2
loop_
  _symmetry_equiv_pos_site_id
 _symmetry_equiv_pos_as_xyz
 1  'x, y, z'
loop_
 _atom_site_type_symbol
 _atom_site_label
 _atom_site_symmetry_multiplicity
 _atom_site_fract_x
 _atom_site_fract_y
 _atom_site_fract_z
 _atom_site_fract_occupancy
 As  As1  1  0.50000  0.00000  0.50000  1
 As  As2  1  0.00000  0.00000  0.00000  1
 F  F1  1  0.08487  0.13654  0.28585  1
 F  F2  1  0.35069  0.13654  0.55167  1
 F  F3  1  0.75693  0.28438  0.47255  1
 F  F4  1  0.31182  0.28438  0.02745  1
 F  F5  1  0.68818  0.71562  0.97255  1
 F  F6  1  0.24307  0.71562  0.52745  1
 F  F7  1  0.91513  0.86346  0.71415  1
 F  F8  1  0.64931  0.86346  0.44833  1
 F  F9  1  0.35069  0.79902  0.21415  1
 F  F10  1  0.64931  0.20098  0.78585  1
 F  F11  1  0.08487  0.79902  0.94833  1
 F  F12  1  0.91513  0.20098  0.05167  1
 H  H1  1  0.34267  0.51860  0.82407  1
 H  H2  1  0.65733  0.48140  0.17593  1
 H  H3  1  0.80548  0.48140  0.32407  1
 H  H4  1  0.19452  0.51860  0.67593  1
 Li  Li1  1  0.00000  0.50000  -0.00000  1
 Li  Li2  1  -0.00000  -0.00000  0.50000  1
 O  O1  1  0.82823  0.57823  0.25000  1
 O  O2  1  0.17177  0.42177  0.75000  1
