CIF file written using JARVIS-Tools package.
data_Te4W3Se2
_symmetry_space_group_name_H-M  'P3m1'
_cell_length_a       3.4845
_cell_length_b       3.48448
_cell_length_c       30.3794
_cell_angle_alpha    90.0009
_cell_angle_beta     89.9994
_cell_angle_gamma    120

_symmetry_Int_Tables_number  156
_chemical_formula_structural  Te4W3Se2
_chemical_formula_sum  Te4W3Se2
_cell_volume  319.43887125193027
_cell_formula_units_Z  1
loop_
  _symmetry_equiv_pos_site_id
 _symmetry_equiv_pos_as_xyz
 1  'x, y, z'
loop_
 _atom_site_type_symbol
 _atom_site_label
 _atom_site_symmetry_multiplicity
 _atom_site_fract_x
 _atom_site_fract_y
 _atom_site_fract_z
 _atom_site_fract_occupancy
 Se  Se1  1  0.66668  0.33329  0.06398  1
 Se  Se2  1  0.66668  0.33331  0.17117  1
 Te  Te1  1  0.33332  0.66665  0.40367  1
 Te  Te2  1  0.66665  0.33334  0.51973  1
 Te  Te3  1  0.66664  0.33335  0.64157  1
 Te  Te4  1  0.33333  0.66664  0.28177  1
 W  W1  1  0.33334  0.66663  0.11753  1
 W  W2  1  0.33331  0.66669  0.58071  1
 W  W3  1  0.66665  0.33331  0.34271  1
