CIF file written using JARVIS-Tools package.
data_SrH4O3
_symmetry_space_group_name_H-M  'P1'
_cell_length_a       3.92266
_cell_length_b       5.68912
_cell_length_c       7.42586
_cell_angle_alpha    90.6259
_cell_angle_beta     92.4358
_cell_angle_gamma    94.0841

_symmetry_Int_Tables_number  1
_chemical_formula_structural  SrH4O3
_chemical_formula_sum  Sr2H8O6
_cell_volume  165.13251314595047
_cell_formula_units_Z  2
loop_
  _symmetry_equiv_pos_site_id
 _symmetry_equiv_pos_as_xyz
 1  'x, y, z'
loop_
 _atom_site_type_symbol
 _atom_site_label
 _atom_site_symmetry_multiplicity
 _atom_site_fract_x
 _atom_site_fract_y
 _atom_site_fract_z
 _atom_site_fract_occupancy
 H  H1  1  0.32300  0.96316  0.15470  1
 H  H2  1  0.78117  0.85367  0.13723  1
 H  H3  1  0.78587  0.10033  0.65873  1
 H  H4  1  0.20193  0.10489  0.65986  1
 H  H5  1  0.48278  0.39011  0.55745  1
 H  H6  1  0.48546  0.82485  0.57655  1
 H  H7  1  0.45273  0.27492  0.01030  1
 H  H8  1  0.59536  0.55221  0.01969  1
 O  O1  1  0.90685  0.71825  0.10068  1
 O  O2  1  0.00245  0.20687  0.63021  1
 O  O3  1  0.46403  0.11091  0.18072  1
 O  O4  1  0.48681  0.91761  0.69072  1
 O  O5  1  0.52669  0.52726  0.48137  1
 O  O6  1  0.45786  0.42901  0.93672  1
 Sr  Sr1  1  0.99149  0.36360  0.29283  1
 Sr  Sr2  1  0.98617  0.63369  0.76822  1
