CIF file written using JARVIS-Tools package.
data_H3C5S2NO
_symmetry_space_group_name_H-M  'P1'
_cell_length_a       4.53472
_cell_length_b       5.88897
_cell_length_c       5.96918
_cell_angle_alpha    104.55
_cell_angle_beta     95.1795
_cell_angle_gamma    111.546

_symmetry_Int_Tables_number  1
_chemical_formula_structural  H3C5S2NO
_chemical_formula_sum  H3C5S2NO
_cell_volume  140.53114605296514
_cell_formula_units_Z  1
loop_
  _symmetry_equiv_pos_site_id
 _symmetry_equiv_pos_as_xyz
 1  'x, y, z'
loop_
 _atom_site_type_symbol
 _atom_site_label
 _atom_site_symmetry_multiplicity
 _atom_site_fract_x
 _atom_site_fract_y
 _atom_site_fract_z
 _atom_site_fract_occupancy
 C  C1  1  0.64013  0.14213  0.31128  1
 C  C2  1  0.55459  0.26628  0.50973  1
 C  C3  1  0.36549  0.09553  0.61755  1
 C  C4  1  0.50963  0.87585  0.25602  1
 C  C5  1  0.55375  0.69880  0.06165  1
 H  H1  1  0.14759  0.00861  0.89251  1
 H  H2  1  0.79359  0.23986  0.20573  1
 H  H3  1  0.63718  0.47245  0.58536  1
 N  N1  1  0.27461  0.15592  0.83002  1
 O  O1  1  0.79272  0.74625  0.96648  1
 S  S1  1  0.27328  0.77864  0.45966  1
 S  S2  1  0.17921  0.41342  0.93661  1
