CIF file written using JARVIS-Tools package.
data_PrGePd
_symmetry_space_group_name_H-M  'C2/m'
_cell_length_a       5.76816
_cell_length_b       5.76816
_cell_length_c       7.5644
_cell_angle_alpha    50.6682
_cell_angle_beta     50.6682
_cell_angle_gamma    45.7812

_symmetry_Int_Tables_number  12
_chemical_formula_structural  PrGePd
_chemical_formula_sum  Pr2Ge2Pd2
_cell_volume  130.90161964260224
_cell_formula_units_Z  2
loop_
  _symmetry_equiv_pos_site_id
 _symmetry_equiv_pos_as_xyz
 1  'x, y, z'
loop_
 _atom_site_type_symbol
 _atom_site_label
 _atom_site_symmetry_multiplicity
 _atom_site_fract_x
 _atom_site_fract_y
 _atom_site_fract_z
 _atom_site_fract_occupancy
 Ge  Ge1  1  0.84034  0.84034  0.11152  1
 Ge  Ge2  1  0.15966  0.15966  0.88848  1
 Pd  Pd1  1  0.18153  0.18153  0.28428  1
 Pd  Pd2  1  0.81847  0.81847  0.71572  1
 Pr  Pr1  1  0.53447  0.53447  0.70440  1
 Pr  Pr2  1  0.46553  0.46553  0.29560  1
