CIF file written using JARVIS-Tools package.
data_Nd2CdS4
_symmetry_space_group_name_H-M  'I-42d'
_cell_length_a       7.43228
_cell_length_b       7.43228
_cell_length_c       7.43228
_cell_angle_alpha    110.769
_cell_angle_beta     110.769
_cell_angle_gamma    106.905

_symmetry_Int_Tables_number  122
_chemical_formula_structural  Nd2CdS4
_chemical_formula_sum  Nd4Cd2S8
_cell_volume  315.56907983327045
_cell_formula_units_Z  2
loop_
  _symmetry_equiv_pos_site_id
 _symmetry_equiv_pos_as_xyz
 1  'x, y, z'
loop_
 _atom_site_type_symbol
 _atom_site_label
 _atom_site_symmetry_multiplicity
 _atom_site_fract_x
 _atom_site_fract_y
 _atom_site_fract_z
 _atom_site_fract_occupancy
 Cd  Cd1  1  0.62500  0.37500  0.25000  1
 Cd  Cd2  1  0.87500  0.12500  0.75000  1
 Nd  Nd1  1  0.11431  0.75000  0.86431  1
 Nd  Nd2  1  0.25000  0.61431  0.36431  1
 Nd  Nd3  1  0.38569  0.25000  0.63569  1
 Nd  Nd4  1  0.75000  0.88569  0.13569  1
 S  S1  1  0.00656  0.87954  0.51316  1
 S  S2  1  0.12046  0.13363  0.12702  1
 S  S3  1  0.37954  0.50656  0.01316  1
 S  S4  1  0.49344  0.00661  0.87298  1
 S  S5  1  0.63363  0.62046  0.62702  1
 S  S6  1  0.50661  0.99344  0.37298  1
 S  S7  1  0.86637  0.49339  0.98684  1
 S  S8  1  0.99339  0.36637  0.48684  1
