CIF file written using JARVIS-Tools package.
data_ThTeO
_symmetry_space_group_name_H-M  'P4/nmm'
_cell_length_a       4.15522
_cell_length_b       4.15522
_cell_length_c       7.63141
_cell_angle_alpha    90
_cell_angle_beta     90
_cell_angle_gamma    90

_symmetry_Int_Tables_number  129
_chemical_formula_structural  ThTeO
_chemical_formula_sum  Th2Te2O2
_cell_volume  131.7626319083701
_cell_formula_units_Z  2
loop_
  _symmetry_equiv_pos_site_id
 _symmetry_equiv_pos_as_xyz
 1  'x, y, z'
loop_
 _atom_site_type_symbol
 _atom_site_label
 _atom_site_symmetry_multiplicity
 _atom_site_fract_x
 _atom_site_fract_y
 _atom_site_fract_z
 _atom_site_fract_occupancy
 O  O1  1  0.00000  0.00000  0.00000  1
 O  O2  1  0.50000  0.50000  0.00000  1
 Te  Te1  1  0.00000  0.50000  0.63649  1
 Te  Te2  1  0.50000  0.00000  0.36351  1
 Th  Th1  1  0.00000  0.50000  0.16880  1
 Th  Th2  1  0.50000  0.00000  0.83120  1
