CIF file written using JARVIS-Tools package.
data_MnZnS2
_symmetry_space_group_name_H-M  'P3m1'
_cell_length_a       3.89244
_cell_length_b       3.89244
_cell_length_c       6.39908
_cell_angle_alpha    90
_cell_angle_beta     90
_cell_angle_gamma    120

_symmetry_Int_Tables_number  156
_chemical_formula_structural  MnZnS2
_chemical_formula_sum  MnZnS2
_cell_volume  83.96365252280246
_cell_formula_units_Z  1
loop_
  _symmetry_equiv_pos_site_id
 _symmetry_equiv_pos_as_xyz
 1  'x, y, z'
loop_
 _atom_site_type_symbol
 _atom_site_label
 _atom_site_symmetry_multiplicity
 _atom_site_fract_x
 _atom_site_fract_y
 _atom_site_fract_z
 _atom_site_fract_occupancy
 Mn  Mn1  1  0.66667  0.33333  0.49629  1
 S  S1  1  0.66667  0.33333  0.12139  1
 S  S2  1  0.33333  0.66667  0.63124  1
 Zn  Zn1  1  0.33333  0.66667  0.99908  1
