CIF file written using JARVIS-Tools package.
data_CaZn
_symmetry_space_group_name_H-M  'Cmcm'
_cell_length_a       4.14093
_cell_length_b       4.43322
_cell_length_c       6.01477
_cell_angle_alpha    90
_cell_angle_beta     110.135
_cell_angle_gamma    90

_symmetry_Int_Tables_number  63
_chemical_formula_structural  CaZn
_chemical_formula_sum  Ca2Zn2
_cell_volume  103.6690162925433
_cell_formula_units_Z  2
loop_
  _symmetry_equiv_pos_site_id
 _symmetry_equiv_pos_as_xyz
 1  'x, y, z'
loop_
 _atom_site_type_symbol
 _atom_site_label
 _atom_site_symmetry_multiplicity
 _atom_site_fract_x
 _atom_site_fract_y
 _atom_site_fract_z
 _atom_site_fract_occupancy
 Ca  Ca1  1  0.85447  0.25000  0.70894  1
 Ca  Ca2  1  0.14553  0.75000  0.29106  1
 Zn  Zn1  1  0.56708  0.25000  0.13416  1
 Zn  Zn2  1  0.43292  0.75000  0.86584  1
