CIF file written using JARVIS-Tools package.
data_Li4Mn3V3Sn2O16
_symmetry_space_group_name_H-M  'Cm'
_cell_length_a       5.8387
_cell_length_b       5.90213
_cell_length_c       9.72582
_cell_angle_alpha    89.4905
_cell_angle_beta     89.9987
_cell_angle_gamma    119.646

_symmetry_Int_Tables_number  8
_chemical_formula_structural  Li4Mn3V3Sn2O16
_chemical_formula_sum  Li4Mn3V3Sn2O6
_cell_volume  291.2704597310127
_cell_formula_units_Z  1
loop_
  _symmetry_equiv_pos_site_id
 _symmetry_equiv_pos_as_xyz
 1  'x, y, z'
loop_
 _atom_site_type_symbol
 _atom_site_label
 _atom_site_symmetry_multiplicity
 _atom_site_fract_x
 _atom_site_fract_y
 _atom_site_fract_z
 _atom_site_fract_occupancy
 Li  Li1  1  0.66715  0.33428  0.89445  1
 Li  Li2  1  0.00058  0.00128  0.99453  1
 Li  Li3  1  -0.00269  -0.00541  0.49268  1
 Li  Li4  1  0.33197  0.66397  0.39856  1
 Mn  Mn1  1  0.83512  0.67031  0.21530  1
 Mn  Mn2  1  0.16888  0.82913  0.71486  1
 Mn  Mn3  1  0.66030  0.82914  0.71486  1
 O  O1  1  0.31385  0.15191  0.60246  1
 O  O2  1  0.48382  0.96764  0.83557  1
 O  O3  1  0.67211  0.34431  0.10333  1
 O  O4  1  0.00320  0.00649  0.30711  1
 O  O5  1  0.99648  0.99292  0.80914  1
 O  O6  1  0.83810  0.15192  0.60246  1
 O  O7  1  0.51345  0.02696  0.34236  1
 O  O8  1  0.96705  0.48082  0.33540  1
 O  O9  1  0.83990  0.67975  0.60160  1
 O  O10  1  0.16437  0.84514  0.10033  1
 O  O11  1  0.48714  0.51948  0.83338  1
 O  O12  1  0.33392  0.66780  0.61053  1
 O  O13  1  0.51372  0.48082  0.33540  1
 O  O14  1  0.15891  0.31791  0.09929  1
 O  O15  1  0.03235  0.51947  0.83338  1
 O  O16  1  0.68068  0.84515  0.10034  1
 Sn  Sn1  1  0.33354  0.66714  0.99160  1
 Sn  Sn2  1  0.66653  0.33305  0.49336  1
 V  V1  1  0.35003  0.17159  0.21442  1
 V  V2  1  0.16775  0.33546  0.71675  1
 V  V3  1  0.82148  0.17159  0.21441  1
