CIF file written using JARVIS-Tools package.
data_NaErSe2
_symmetry_space_group_name_H-M  'R-3m'
_cell_length_a       7.29971
_cell_length_b       7.29971
_cell_length_c       7.29971
_cell_angle_alpha    32.517
_cell_angle_beta     32.517
_cell_angle_gamma    32.517

_symmetry_Int_Tables_number  166
_chemical_formula_structural  NaErSe2
_chemical_formula_sum  NaErSe2
_cell_volume  99.94575778943737
_cell_formula_units_Z  1
loop_
  _symmetry_equiv_pos_site_id
 _symmetry_equiv_pos_as_xyz
 1  'x, y, z'
loop_
 _atom_site_type_symbol
 _atom_site_label
 _atom_site_symmetry_multiplicity
 _atom_site_fract_x
 _atom_site_fract_y
 _atom_site_fract_z
 _atom_site_fract_occupancy
 Er  Er1  1  0.00000  0.00000  0.00000  1
 Na  Na1  1  0.50000  0.50000  0.50000  1
 Se  Se1  1  0.25654  0.25654  0.25654  1
 Se  Se2  1  0.74346  0.74346  0.74346  1
