CIF file written using JARVIS-Tools package.
data_MoP2O7
_symmetry_space_group_name_H-M  'C2'
_cell_length_a       5.18614
_cell_length_b       5.18614
_cell_length_c       4.65531
_cell_angle_alpha    82.2008
_cell_angle_beta     82.2007
_cell_angle_gamma    100.111

_symmetry_Int_Tables_number  5
_chemical_formula_structural  MoP2O7
_chemical_formula_sum  MoP2O7
_cell_volume  120.4801748083521
_cell_formula_units_Z  1
loop_
  _symmetry_equiv_pos_site_id
 _symmetry_equiv_pos_as_xyz
 1  'x, y, z'
loop_
 _atom_site_type_symbol
 _atom_site_label
 _atom_site_symmetry_multiplicity
 _atom_site_fract_x
 _atom_site_fract_y
 _atom_site_fract_z
 _atom_site_fract_occupancy
 Mo  Mo1  1  0.11297  0.88703  -0.00000  1
 O  O1  1  0.54955  0.45045  0.50000  1
 O  O2  1  0.43324  0.84492  0.72492  1
 O  O3  1  0.80224  0.91589  0.29993  1
 O  O4  1  0.85088  0.66880  0.80199  1
 O  O5  1  0.08411  0.19776  0.70007  1
 O  O6  1  0.15508  0.56676  0.27508  1
 O  O7  1  0.33120  0.14912  0.19801  1
 P  P1  1  0.66337  0.73368  0.58676  1
 P  P2  1  0.26632  0.33663  0.41324  1
