CIF file written using JARVIS-Tools package.
data_Hf2Au
_symmetry_space_group_name_H-M  'I4/mmm'
_cell_length_a       3.24408
_cell_length_b       3.24407
_cell_length_c       6.2324
_cell_angle_alpha    105.085
_cell_angle_beta     105.085
_cell_angle_gamma    90

_symmetry_Int_Tables_number  139
_chemical_formula_structural  Hf2Au
_chemical_formula_sum  Hf2Au
_cell_volume  60.985607764983605
_cell_formula_units_Z  1
loop_
  _symmetry_equiv_pos_site_id
 _symmetry_equiv_pos_as_xyz
 1  'x, y, z'
loop_
 _atom_site_type_symbol
 _atom_site_label
 _atom_site_symmetry_multiplicity
 _atom_site_fract_x
 _atom_site_fract_y
 _atom_site_fract_z
 _atom_site_fract_occupancy
 Au  Au1  1  0.00000  0.00000  0.00000  1
 Hf  Hf1  1  0.66245  0.66245  0.32490  1
 Hf  Hf2  1  0.33755  0.33755  0.67510  1
