CIF file written using JARVIS-Tools package.
data_RbRuF6
_symmetry_space_group_name_H-M  'R-3m'
_cell_length_a       5.11091
_cell_length_b       5.11091
_cell_length_c       5.11091
_cell_angle_alpha    97.8217
_cell_angle_beta     97.8217
_cell_angle_gamma    97.8216

_symmetry_Int_Tables_number  166
_chemical_formula_structural  RbRuF6
_chemical_formula_sum  RbRuF6
_cell_volume  129.39543892366666
_cell_formula_units_Z  1
loop_
  _symmetry_equiv_pos_site_id
 _symmetry_equiv_pos_as_xyz
 1  'x, y, z'
loop_
 _atom_site_type_symbol
 _atom_site_label
 _atom_site_symmetry_multiplicity
 _atom_site_fract_x
 _atom_site_fract_y
 _atom_site_fract_z
 _atom_site_fract_occupancy
 F  F1  1  0.26190  0.26190  0.91912  1
 F  F2  1  0.26190  0.91912  0.26190  1
 F  F3  1  0.73810  0.08088  0.73810  1
 F  F4  1  0.73810  0.73810  0.08088  1
 F  F5  1  0.08088  0.73810  0.73810  1
 F  F6  1  0.91912  0.26190  0.26190  1
 Rb  Rb1  1  0.50000  0.50000  0.50000  1
 Ru  Ru1  1  0.00000  0.00000  0.00000  1
