CIF file written using JARVIS-Tools package.
data_MgF2
_symmetry_space_group_name_H-M  'Imma'
_cell_length_a       5.78497
_cell_length_b       5.78497
_cell_length_c       5.78497
_cell_angle_alpha    140.762
_cell_angle_beta     112.817
_cell_angle_gamma    80.6588

_symmetry_Int_Tables_number  74
_chemical_formula_structural  MgF2
_chemical_formula_sum  Mg2F4
_cell_volume  109.66880647488478
_cell_formula_units_Z  2
loop_
  _symmetry_equiv_pos_site_id
 _symmetry_equiv_pos_as_xyz
 1  'x, y, z'
loop_
 _atom_site_type_symbol
 _atom_site_label
 _atom_site_symmetry_multiplicity
 _atom_site_fract_x
 _atom_site_fract_y
 _atom_site_fract_z
 _atom_site_fract_occupancy
 F  F1  1  0.08902  0.83902  0.25000  1
 F  F2  1  0.50000  0.50000  0.00000  1
 F  F3  1  0.91098  0.16098  0.75000  1
 F  F4  1  0.00000  0.50000  0.50000  1
 Mg  Mg1  1  0.86043  0.61043  0.25000  1
 Mg  Mg2  1  0.13957  0.38957  0.75000  1
