CIF file written using JARVIS-Tools package.
data_H7C7NO
_symmetry_space_group_name_H-M  'P1'
_cell_length_a       5.59664
_cell_length_b       6.97548
_cell_length_c       7.65434
_cell_angle_alpha    102.78
_cell_angle_beta     97.1168
_cell_angle_gamma    109.281

_symmetry_Int_Tables_number  1
_chemical_formula_structural  H7C7NO
_chemical_formula_sum  H4C4N2O2
_cell_volume  268.70337678213224
_cell_formula_units_Z  2
loop_
  _symmetry_equiv_pos_site_id
 _symmetry_equiv_pos_as_xyz
 1  'x, y, z'
loop_
 _atom_site_type_symbol
 _atom_site_label
 _atom_site_symmetry_multiplicity
 _atom_site_fract_x
 _atom_site_fract_y
 _atom_site_fract_z
 _atom_site_fract_occupancy
 C  C1  1  0.42925  0.71106  0.06964  1
 C  C2  1  0.40930  0.35080  0.46103  1
 C  C3  1  0.06209  0.08081  0.20918  1
 C  C4  1  0.66016  0.41422  0.56702  1
 C  C5  1  0.66016  0.41422  0.06702  1
 C  C6  1  0.79382  0.62290  0.67138  1
 C  C7  1  0.79382  0.62291  0.17138  1
 C  C8  1  0.06209  0.08081  0.70918  1
 C  C9  1  0.40931  0.35080  0.96103  1
 C  C10  1  0.68086  0.77419  0.16961  1
 C  C11  1  0.29104  0.50049  0.47002  1
 C  C12  1  0.29104  0.50049  0.97002  1
 C  C13  1  0.42925  0.71106  0.56964  1
 C  C14  1  0.68086  0.77419  0.66961  1
 H  H1  1  0.09278  0.45547  0.39669  1
 H  H2  1  0.98914  0.66956  0.75130  1
 H  H3  1  0.09278  0.45547  0.89669  1
 H  H4  1  0.06792  0.96525  0.58905  1
 H  H5  1  0.06792  0.96525  0.08905  1
 H  H6  1  0.05057  0.21870  0.16805  1
 H  H7  1  0.05057  0.21870  0.66805  1
 H  H8  1  0.74991  0.29687  0.56450  1
 H  H9  1  0.40295  0.05809  0.83271  1
 H  H10  1  0.40294  0.05809  0.33271  1
 H  H11  1  0.98914  0.66956  0.25130  1
 H  H12  1  0.74991  0.29687  0.06449  1
 H  H13  1  0.34249  0.82914  0.56560  1
 H  H14  1  0.34248  0.82914  0.06560  1
 N  N1  1  0.28545  0.14205  0.35050  1
 N  N2  1  0.28545  0.14204  0.85050  1
 O  O1  1  0.81425  0.98725  0.76331  1
 O  O2  1  0.81424  0.98724  0.26331  1
