CIF file written using JARVIS-Tools package.
data_SmCoO3
_symmetry_space_group_name_H-M  'Pnma'
_cell_length_a       5.27114
_cell_length_b       5.46358
_cell_length_c       7.5155
_cell_angle_alpha    90
_cell_angle_beta     90
_cell_angle_gamma    90

_symmetry_Int_Tables_number  62
_chemical_formula_structural  SmCoO3
_chemical_formula_sum  Sm4Co4O2
_cell_volume  216.44140156083932
_cell_formula_units_Z  4
loop_
  _symmetry_equiv_pos_site_id
 _symmetry_equiv_pos_as_xyz
 1  'x, y, z'
loop_
 _atom_site_type_symbol
 _atom_site_label
 _atom_site_symmetry_multiplicity
 _atom_site_fract_x
 _atom_site_fract_y
 _atom_site_fract_z
 _atom_site_fract_occupancy
 Co  Co1  1  0.50000  0.00000  0.50000  1
 Co  Co2  1  0.00000  0.50000  0.50000  1
 Co  Co3  1  0.00000  0.50000  0.00000  1
 Co  Co4  1  0.50000  0.00000  0.00000  1
 O  O1  1  0.08523  0.48270  0.25000  1
 O  O2  1  0.70135  0.29529  0.45603  1
 O  O3  1  0.91477  0.51730  0.75000  1
 O  O4  1  0.79865  0.79529  0.04397  1
 O  O5  1  0.29865  0.70471  0.95603  1
 O  O6  1  0.20135  0.20471  0.54397  1
 O  O7  1  0.79865  0.79529  0.45603  1
 O  O8  1  0.41477  0.98270  0.25000  1
 O  O9  1  0.70135  0.29529  0.04397  1
 O  O10  1  0.29865  0.70471  0.54397  1
 O  O11  1  0.58523  0.01730  0.75000  1
 O  O12  1  0.20135  0.20471  0.95603  1
 Sm  Sm1  1  0.98563  0.06062  0.25000  1
 Sm  Sm2  1  0.48563  0.43938  0.75000  1
 Sm  Sm3  1  0.51437  0.56062  0.25000  1
 Sm  Sm4  1  0.01437  0.93938  0.75000  1
