CIF file written using JARVIS-Tools package.
data_GaPtO2
_symmetry_space_group_name_H-M  'P6_3/mmc'
_cell_length_a       2.94624
_cell_length_b       2.94624
_cell_length_c       12.3167
_cell_angle_alpha    90
_cell_angle_beta     90
_cell_angle_gamma    120

_symmetry_Int_Tables_number  194
_chemical_formula_structural  GaPtO2
_chemical_formula_sum  Ga2Pt2O4
_cell_volume  92.58953992798375
_cell_formula_units_Z  2
loop_
  _symmetry_equiv_pos_site_id
 _symmetry_equiv_pos_as_xyz
 1  'x, y, z'
loop_
 _atom_site_type_symbol
 _atom_site_label
 _atom_site_symmetry_multiplicity
 _atom_site_fract_x
 _atom_site_fract_y
 _atom_site_fract_z
 _atom_site_fract_occupancy
 Ga  Ga1  1  0.00000  0.00000  0.00000  1
 Ga  Ga2  1  0.00000  0.00000  0.50000  1
 O  O1  1  0.33333  0.66667  0.08349  1
 O  O2  1  0.33333  0.66667  0.41651  1
 O  O3  1  0.66667  0.33333  0.58349  1
 O  O4  1  0.66667  0.33333  0.91651  1
 Pt  Pt1  1  0.33333  0.66667  0.25000  1
 Pt  Pt2  1  0.66667  0.33333  0.75000  1
