CIF file written using JARVIS-Tools package.
data_PrSi2Ru
_symmetry_space_group_name_H-M  'P2_1/m'
_cell_length_a       4.51421
_cell_length_b       4.1322
_cell_length_c       8.36986
_cell_angle_alpha    90
_cell_angle_beta     102.301
_cell_angle_gamma    90

_symmetry_Int_Tables_number  11
_chemical_formula_structural  PrSi2Ru
_chemical_formula_sum  Pr2Si4Ru2
_cell_volume  152.54369560400798
_cell_formula_units_Z  2
loop_
  _symmetry_equiv_pos_site_id
 _symmetry_equiv_pos_as_xyz
 1  'x, y, z'
loop_
 _atom_site_type_symbol
 _atom_site_label
 _atom_site_symmetry_multiplicity
 _atom_site_fract_x
 _atom_site_fract_y
 _atom_site_fract_z
 _atom_site_fract_occupancy
 Pr  Pr1  1  0.58858  0.25000  0.20051  1
 Pr  Pr2  1  0.41142  0.75000  0.79949  1
 Ru  Ru1  1  0.12073  0.75000  0.38761  1
 Ru  Ru2  1  0.87927  0.25000  0.61239  1
 Si  Si1  1  0.32872  0.25000  0.50728  1
 Si  Si2  1  0.67128  0.75000  0.49272  1
 Si  Si3  1  0.03820  0.75000  0.09211  1
 Si  Si4  1  0.96180  0.25000  0.90789  1
