CIF file written using JARVIS-Tools package.
data_Ba6HfO8
_symmetry_space_group_name_H-M  'Fm-3m'
_cell_length_a       7.6661
_cell_length_b       7.6661
_cell_length_c       7.6661
_cell_angle_alpha    60
_cell_angle_beta     60
_cell_angle_gamma    60

_symmetry_Int_Tables_number  225
_chemical_formula_structural  Ba6HfO8
_chemical_formula_sum  Ba6HfO8
_cell_volume  318.572426463875
_cell_formula_units_Z  1
loop_
  _symmetry_equiv_pos_site_id
 _symmetry_equiv_pos_as_xyz
 1  'x, y, z'
loop_
 _atom_site_type_symbol
 _atom_site_label
 _atom_site_symmetry_multiplicity
 _atom_site_fract_x
 _atom_site_fract_y
 _atom_site_fract_z
 _atom_site_fract_occupancy
 Ba  Ba1  1  0.50000  0.00000  -0.00000  1
 Ba  Ba2  1  0.50000  0.00000  0.50000  1
 Ba  Ba3  1  0.00000  -0.00000  0.50000  1
 Ba  Ba4  1  0.50000  0.50000  -0.00000  1
 Ba  Ba5  1  0.00000  0.50000  -0.00000  1
 Ba  Ba6  1  0.00000  0.50000  0.50000  1
 Hf  Hf1  1  0.00000  0.00000  0.00000  1
 O  O1  1  0.80128  0.19872  0.19872  1
 O  O2  1  0.25000  0.25000  0.25000  1
 O  O3  1  0.19872  0.80128  0.19872  1
 O  O4  1  0.19872  0.19872  0.80128  1
 O  O5  1  0.80128  0.80128  0.19872  1
 O  O6  1  0.80128  0.19872  0.80128  1
 O  O7  1  0.75000  0.75000  0.75000  1
 O  O8  1  0.19872  0.80128  0.80128  1
