CIF file written using JARVIS-Tools package.
data_Rh2S3
_symmetry_space_group_name_H-M  'Pbcn'
_cell_length_a       6.04562
_cell_length_b       6.19187
_cell_length_c       8.55626
_cell_angle_alpha    90
_cell_angle_beta     90
_cell_angle_gamma    90

_symmetry_Int_Tables_number  60
_chemical_formula_structural  Rh2S3
_chemical_formula_sum  Rh8S2
_cell_volume  320.29241335617576
_cell_formula_units_Z  4
loop_
  _symmetry_equiv_pos_site_id
 _symmetry_equiv_pos_as_xyz
 1  'x, y, z'
loop_
 _atom_site_type_symbol
 _atom_site_label
 _atom_site_symmetry_multiplicity
 _atom_site_fract_x
 _atom_site_fract_y
 _atom_site_fract_z
 _atom_site_fract_occupancy
 Rh  Rh1  1  0.25142  0.03241  0.10701  1
 Rh  Rh2  1  0.24858  0.53241  0.39299  1
 Rh  Rh3  1  0.24858  0.96759  0.60701  1
 Rh  Rh4  1  0.74858  0.96759  0.89299  1
 Rh  Rh5  1  0.74858  0.53241  0.10701  1
 Rh  Rh6  1  0.75142  0.46759  0.60701  1
 Rh  Rh7  1  0.75142  0.03241  0.39299  1
 Rh  Rh8  1  0.25142  0.46759  0.89299  1
 S  S1  1  0.04762  0.75000  0.00000  1
 S  S2  1  0.54762  0.75000  0.50000  1
 S  S3  1  0.95238  0.25000  0.00000  1
 S  S4  1  0.89066  0.39357  0.34842  1
 S  S5  1  0.89066  0.10643  0.65158  1
 S  S6  1  0.10934  0.89357  0.34842  1
 S  S7  1  0.60934  0.60643  0.84842  1
 S  S8  1  0.45238  0.25000  0.50000  1
 S  S9  1  0.39066  0.39357  0.15158  1
 S  S10  1  0.10934  0.60643  0.65158  1
 S  S11  1  0.60934  0.89357  0.15158  1
 S  S12  1  0.39066  0.10643  0.84842  1
