CIF file written using JARVIS-Tools package.
data_H4N2O3
_symmetry_space_group_name_H-M  'Pmmn'
_cell_length_a       4.89528
_cell_length_b       5.44751
_cell_length_c       5.5611
_cell_angle_alpha    90
_cell_angle_beta     90
_cell_angle_gamma    90

_symmetry_Int_Tables_number  59
_chemical_formula_structural  H4N2O3
_chemical_formula_sum  H8N4O6
_cell_volume  148.29828937650188
_cell_formula_units_Z  2
loop_
  _symmetry_equiv_pos_site_id
 _symmetry_equiv_pos_as_xyz
 1  'x, y, z'
loop_
 _atom_site_type_symbol
 _atom_site_label
 _atom_site_symmetry_multiplicity
 _atom_site_fract_x
 _atom_site_fract_y
 _atom_site_fract_z
 _atom_site_fract_occupancy
 H  H1  1  0.32843  0.16235  0.00000  1
 H  H2  1  0.67157  0.16235  0.00000  1
 H  H3  1  0.82843  0.83765  0.50000  1
 H  H4  1  0.17157  0.83765  0.50000  1
 H  H5  1  0.64214  0.88531  0.00000  1
 H  H6  1  0.35786  0.88531  0.00000  1
 H  H7  1  0.85786  0.11469  0.50000  1
 H  H8  1  0.14214  0.11469  0.50000  1
 N  N1  1  0.00000  0.95597  0.50000  1
 N  N2  1  0.50000  0.04403  0.00000  1
 N  N3  1  0.50000  0.47791  0.50000  1
 N  N4  1  0.00000  0.52209  0.00000  1
 O  O1  1  0.22717  0.63045  0.00000  1
 O  O2  1  0.72717  0.36955  0.50000  1
 O  O3  1  0.00000  0.28842  0.00000  1
 O  O4  1  0.50000  0.71158  0.50000  1
 O  O5  1  0.77283  0.63045  0.00000  1
 O  O6  1  0.27283  0.36955  0.50000  1
