CIF file written using JARVIS-Tools package.
data_Sr3Al2Si2
_symmetry_space_group_name_H-M  'Immm'
_cell_length_a       4.21434
_cell_length_b       4.82525
_cell_length_c       10.1287
_cell_angle_alpha    103.78
_cell_angle_beta     102.007
_cell_angle_gamma    89.9999

_symmetry_Int_Tables_number  71
_chemical_formula_structural  Sr3Al2Si2
_chemical_formula_sum  Sr3Al2Si2
_cell_volume  195.39757777886314
_cell_formula_units_Z  1
loop_
  _symmetry_equiv_pos_site_id
 _symmetry_equiv_pos_as_xyz
 1  'x, y, z'
loop_
 _atom_site_type_symbol
 _atom_site_label
 _atom_site_symmetry_multiplicity
 _atom_site_fract_x
 _atom_site_fract_y
 _atom_site_fract_z
 _atom_site_fract_occupancy
 Al  Al1  1  0.06699  0.56699  0.13399  1
 Al  Al2  1  0.93301  0.43301  0.86601  1
 Si  Si1  1  0.64008  0.64008  0.28017  1
 Si  Si2  1  0.35992  0.35992  0.71983  1
 Sr  Sr1  1  0.50000  -0.00000  -0.00000  1
 Sr  Sr2  1  0.81457  0.81457  0.62914  1
 Sr  Sr3  1  0.18543  0.18543  0.37086  1
