CIF file written using JARVIS-Tools package.
data_Na
_symmetry_space_group_name_H-M  'Pm-3n'
_cell_length_a       6.62557
_cell_length_b       6.62557
_cell_length_c       6.62557
_cell_angle_alpha    90
_cell_angle_beta     90
_cell_angle_gamma    90

_symmetry_Int_Tables_number  223
_chemical_formula_structural  Na
_chemical_formula_sum  Na8
_cell_volume  290.85025261862586
_cell_formula_units_Z  8
loop_
  _symmetry_equiv_pos_site_id
 _symmetry_equiv_pos_as_xyz
 1  'x, y, z'
loop_
 _atom_site_type_symbol
 _atom_site_label
 _atom_site_symmetry_multiplicity
 _atom_site_fract_x
 _atom_site_fract_y
 _atom_site_fract_z
 _atom_site_fract_occupancy
 Na  Na1  1  0.00000  0.00000  0.00000  1
 Na  Na2  1  0.50000  0.25000  0.00000  1
 Na  Na3  1  0.50000  0.75000  0.00000  1
 Na  Na4  1  0.00000  0.50000  0.25000  1
 Na  Na5  1  0.25000  0.00000  0.50000  1
 Na  Na6  1  0.75000  0.00000  0.50000  1
 Na  Na7  1  0.50000  0.50000  0.50000  1
 Na  Na8  1  0.00000  0.50000  0.75000  1
