CIF file written using JARVIS-Tools package.
data_AlInCuO4
_symmetry_space_group_name_H-M  'R3m'
_cell_length_a       8.67292
_cell_length_b       8.67291
_cell_length_c       8.67291
_cell_angle_alpha    21.9144
_cell_angle_beta     21.9144
_cell_angle_gamma    21.9144

_symmetry_Int_Tables_number  160
_chemical_formula_structural  AlInCuO4
_chemical_formula_sum  AlInCuO4
_cell_volume  79.65619460946732
_cell_formula_units_Z  1
loop_
  _symmetry_equiv_pos_site_id
 _symmetry_equiv_pos_as_xyz
 1  'x, y, z'
loop_
 _atom_site_type_symbol
 _atom_site_label
 _atom_site_symmetry_multiplicity
 _atom_site_fract_x
 _atom_site_fract_y
 _atom_site_fract_z
 _atom_site_fract_occupancy
 Al  Al1  1  0.58479  0.58479  0.58479  1
 Cu  Cu1  1  0.01249  0.01249  0.01249  1
 In  In1  1  0.79972  0.79972  0.79972  1
 O  O1  1  0.51173  0.51173  0.51173  1
 O  O2  1  0.09156  0.09156  0.09156  1
 O  O3  1  0.65948  0.65948  0.65948  1
 O  O4  1  0.91990  0.91990  0.91990  1
