CIF file written using JARVIS-Tools package.
data_Ba2PrBiO6
_symmetry_space_group_name_H-M  'C2/m'
_cell_length_a       6.2225
_cell_length_b       6.2225
_cell_length_c       6.30215
_cell_angle_alpha    60.0587
_cell_angle_beta     60.0587
_cell_angle_gamma    60.0979

_symmetry_Int_Tables_number  12
_chemical_formula_structural  Ba2PrBiO6
_chemical_formula_sum  Ba2PrBiO6
_cell_volume  172.82590696690136
_cell_formula_units_Z  1
loop_
  _symmetry_equiv_pos_site_id
 _symmetry_equiv_pos_as_xyz
 1  'x, y, z'
loop_
 _atom_site_type_symbol
 _atom_site_label
 _atom_site_symmetry_multiplicity
 _atom_site_fract_x
 _atom_site_fract_y
 _atom_site_fract_z
 _atom_site_fract_occupancy
 Ba  Ba1  1  0.75200  0.75200  0.73992  1
 Ba  Ba2  1  0.24800  0.24800  0.26008  1
 Bi  Bi1  1  0.50000  0.50000  0.50000  1
 O  O1  1  0.73732  0.73732  0.18619  1
 O  O2  1  0.26268  0.26268  0.81381  1
 O  O3  1  0.69855  0.21629  0.30615  1
 O  O4  1  0.30145  0.78371  0.69385  1
 O  O5  1  0.78371  0.30145  0.69385  1
 O  O6  1  0.21629  0.69855  0.30615  1
 Pr  Pr1  1  0.00000  0.00000  0.00000  1
