CIF file written using JARVIS-Tools package.
data_H10C11O3
_symmetry_space_group_name_H-M  'P-1'
_cell_length_a       7.10975
_cell_length_b       7.76809
_cell_length_c       8.15415
_cell_angle_alpha    69.6379
_cell_angle_beta     89.8751
_cell_angle_gamma    86.6801

_symmetry_Int_Tables_number  2
_chemical_formula_structural  H10C11O3
_chemical_formula_sum  H20C22O6
_cell_volume  421.4196875375546
_cell_formula_units_Z  2
loop_
  _symmetry_equiv_pos_site_id
 _symmetry_equiv_pos_as_xyz
 1  'x, y, z'
loop_
 _atom_site_type_symbol
 _atom_site_label
 _atom_site_symmetry_multiplicity
 _atom_site_fract_x
 _atom_site_fract_y
 _atom_site_fract_z
 _atom_site_fract_occupancy
 C  C1  1  0.74248  0.40926  0.27919  1
 C  C2  1  0.44964  0.55904  0.67917  1
 C  C3  1  0.76643  0.39167  0.73909  1
 C  C4  1  0.17727  0.12635  0.67446  1
 C  C5  1  0.82273  0.87365  0.32554  1
 C  C6  1  0.23357  0.60833  0.26091  1
 C  C7  1  0.43339  0.57980  0.21346  1
 C  C8  1  0.25752  0.59074  0.72081  1
 C  C9  1  0.49462  0.29908  0.94925  1
 C  C10  1  0.22567  0.21595  0.14291  1
 C  C11  1  0.60514  0.15412  0.07052  1
 C  C12  1  0.39486  0.84588  0.92948  1
 C  C13  1  0.52637  0.04275  0.22446  1
 C  C14  1  0.47363  0.95725  0.77554  1
 C  C15  1  0.33584  0.07335  0.26043  1
 C  C16  1  0.66416  0.92665  0.73957  1
 C  C17  1  0.77433  0.78405  0.85709  1
 C  C18  1  0.30581  0.32818  0.98908  1
 C  C19  1  0.69419  0.67182  0.01092  1
 C  C20  1  0.50538  0.70092  0.05075  1
 C  C21  1  0.56661  0.42020  0.78654  1
 C  C22  1  0.55036  0.44096  0.32083  1
 H  H1  1  0.91929  0.75396  0.82726  1
 H  H2  1  0.10667  0.00248  0.67993  1
 H  H3  1  0.79037  0.25488  0.72819  1
 H  H4  1  0.20963  0.74512  0.27181  1
 H  H5  1  0.86491  0.39967  0.83961  1
 H  H6  1  0.13509  0.60033  0.16039  1
 H  H7  1  0.19900  0.50502  0.38605  1
 H  H8  1  0.89333  -0.00248  0.32007  1
 H  H9  1  0.87445  0.75902  0.44080  1
 H  H10  1  0.84952  0.84143  0.20607  1
 H  H11  1  0.15048  0.15857  0.79393  1
 H  H12  1  0.12555  0.24098  0.55920  1
 H  H13  1  0.49867  0.65557  0.55712  1
 H  H14  1  0.50133  0.34443  0.44288  1
 H  H15  1  0.75147  0.13053  0.04131  1
 H  H16  1  0.24853  0.86947  0.95869  1
 H  H17  1  0.27833  0.98523  0.38299  1
 H  H18  1  0.72167  0.01477  0.61701  1
 H  H19  1  0.08071  0.24604  0.17274  1
 H  H20  1  0.80100  0.49498  0.61395  1
 O  O1  1  0.37684  0.10112  0.65123  1
 O  O2  1  0.19135  0.47098  0.87840  1
 O  O3  1  0.62316  0.89888  0.34877  1
 O  O4  1  0.85587  0.28662  0.36879  1
 O  O5  1  0.80865  0.52902  0.12160  1
 O  O6  1  0.14413  0.71338  0.63121  1
