CIF file written using JARVIS-Tools package.
data_H7C11S2N
_symmetry_space_group_name_H-M  'P1'
_cell_length_a       3.8631
_cell_length_b       6.37428
_cell_length_c       9.78098
_cell_angle_alpha    93.8911
_cell_angle_beta     101.496
_cell_angle_gamma    93.8041

_symmetry_Int_Tables_number  1
_chemical_formula_structural  H7C11S2N
_chemical_formula_sum  H7CS2N
_cell_volume  234.68867169526158
_cell_formula_units_Z  1
loop_
  _symmetry_equiv_pos_site_id
 _symmetry_equiv_pos_as_xyz
 1  'x, y, z'
loop_
 _atom_site_type_symbol
 _atom_site_label
 _atom_site_symmetry_multiplicity
 _atom_site_fract_x
 _atom_site_fract_y
 _atom_site_fract_z
 _atom_site_fract_occupancy
 C  C1  1  0.07276  0.46871  0.64896  1
 C  C2  1  0.27129  0.34490  0.74453  1
 C  C3  1  0.09514  0.70553  0.39436  1
 C  C4  1  0.02053  0.79782  0.26766  1
 C  C5  1  0.91094  0.50969  0.39382  1
 C  C6  1  0.90280  0.37945  0.50594  1
 C  C7  1  0.77588  0.67262  0.16605  1
 C  C8  1  0.21384  0.76535  0.82579  1
 C  C9  1  0.04072  0.67993  0.69406  1
 C  C10  1  0.42685  0.64336  0.91753  1
 C  C11  1  0.44759  0.42951  0.87685  1
 H  H1  1  0.87494  0.77894  0.62666  1
 H  H2  1  0.18488  0.92928  0.85895  1
 H  H3  1  0.30312  0.18281  0.70956  1
 H  H4  1  0.62189  0.33466  0.94456  1
 H  H5  1  0.65442  0.90657  0.04228  1
 H  H6  1  0.27990  0.77956  0.48584  1
 H  H7  1  0.13139  0.95334  0.25117  1
 N  N1  1  0.62345  0.74667  0.04174  1
 S  S1  1  0.69578  0.13694  0.47669  1
 S  S2  1  0.65177  0.43224  0.22570  1
