CIF file written using JARVIS-Tools package.
data_Pb4Se3S
_symmetry_space_group_name_H-M  'P4/mmm'
_cell_length_a       4.35093
_cell_length_b       4.35093
_cell_length_c       12.2987
_cell_angle_alpha    90
_cell_angle_beta     90
_cell_angle_gamma    90

_symmetry_Int_Tables_number  123
_chemical_formula_structural  Pb4Se3S
_chemical_formula_sum  Pb4Se3S
_cell_volume  232.8216873695029
_cell_formula_units_Z  1
loop_
  _symmetry_equiv_pos_site_id
 _symmetry_equiv_pos_as_xyz
 1  'x, y, z'
loop_
 _atom_site_type_symbol
 _atom_site_label
 _atom_site_symmetry_multiplicity
 _atom_site_fract_x
 _atom_site_fract_y
 _atom_site_fract_z
 _atom_site_fract_occupancy
 Pb  Pb1  1  0.00000  0.00000  0.25508  1
 Pb  Pb2  1  0.50000  0.50000  0.00000  1
 Pb  Pb3  1  0.00000  0.00000  0.74492  1
 Pb  Pb4  1  0.50000  0.50000  0.50000  1
 S  S1  1  0.00000  0.00000  0.50000  1
 Se  Se1  1  0.50000  0.50000  0.25115  1
 Se  Se2  1  0.00000  0.00000  0.00000  1
 Se  Se3  1  0.50000  0.50000  0.74885  1
