CIF file written using JARVIS-Tools package.
data_HoFeRu
_symmetry_space_group_name_H-M  'Imma'
_cell_length_a       5.19794
_cell_length_b       5.19794
_cell_length_c       5.19794
_cell_angle_alpha    121.977
_cell_angle_beta     117.58
_cell_angle_gamma    90.4258

_symmetry_Int_Tables_number  74
_chemical_formula_structural  HoFeRu
_chemical_formula_sum  Ho2Fe2Ru2
_cell_volume  99.45458553688013
_cell_formula_units_Z  2
loop_
  _symmetry_equiv_pos_site_id
 _symmetry_equiv_pos_as_xyz
 1  'x, y, z'
loop_
 _atom_site_type_symbol
 _atom_site_label
 _atom_site_symmetry_multiplicity
 _atom_site_fract_x
 _atom_site_fract_y
 _atom_site_fract_z
 _atom_site_fract_occupancy
 Fe  Fe1  1  -0.00000  0.50000  0.00000  1
 Fe  Fe2  1  -0.00000  -0.00000  0.50000  1
 Ho  Ho1  1  0.37352  0.12352  0.25000  1
 Ho  Ho2  1  0.62648  0.87648  0.75000  1
 Ru  Ru1  1  0.50000  0.50000  0.00000  1
 Ru  Ru2  1  -0.00000  0.50000  0.50000  1
