CIF file written using JARVIS-Tools package.
data_As2Ru
_symmetry_space_group_name_H-M  'Pnnm'
_cell_length_a       3.02886
_cell_length_b       5.49392
_cell_length_c       6.25933
_cell_angle_alpha    90
_cell_angle_beta     90
_cell_angle_gamma    90

_symmetry_Int_Tables_number  58
_chemical_formula_structural  As2Ru
_chemical_formula_sum  As4Ru2
_cell_volume  104.15695199528024
_cell_formula_units_Z  2
loop_
  _symmetry_equiv_pos_site_id
 _symmetry_equiv_pos_as_xyz
 1  'x, y, z'
loop_
 _atom_site_type_symbol
 _atom_site_label
 _atom_site_symmetry_multiplicity
 _atom_site_fract_x
 _atom_site_fract_y
 _atom_site_fract_z
 _atom_site_fract_occupancy
 As  As1  1  0.50000  0.32864  0.86556  1
 As  As2  1  0.50000  0.67136  0.13444  1
 As  As3  1  0.00000  0.17136  0.36556  1
 As  As4  1  0.00000  0.82864  0.63444  1
 Ru  Ru1  1  0.50000  0.50000  0.50000  1
 Ru  Ru2  1  0.00000  0.00000  0.00000  1
