CIF file written using JARVIS-Tools package.
data_NaSbO3
_symmetry_space_group_name_H-M  'Fd-3m'
_cell_length_a       7.32766
_cell_length_b       7.32766
_cell_length_c       7.32766
_cell_angle_alpha    60
_cell_angle_beta     60
_cell_angle_gamma    60

_symmetry_Int_Tables_number  227
_chemical_formula_structural  NaSbO3
_chemical_formula_sum  Na4Sb4O2
_cell_volume  278.21536064453613
_cell_formula_units_Z  4
loop_
  _symmetry_equiv_pos_site_id
 _symmetry_equiv_pos_as_xyz
 1  'x, y, z'
loop_
 _atom_site_type_symbol
 _atom_site_label
 _atom_site_symmetry_multiplicity
 _atom_site_fract_x
 _atom_site_fract_y
 _atom_site_fract_z
 _atom_site_fract_occupancy
 Na  Na1  1  -0.00000  0.50000  -0.00000  1
 Na  Na2  1  0.50000  0.00000  0.00000  1
 Na  Na3  1  0.00000  0.00000  0.50000  1
 Na  Na4  1  0.00000  0.00000  0.00000  1
 O  O1  1  0.17191  0.57809  0.57809  1
 O  O2  1  0.82809  0.42191  0.82809  1
 O  O3  1  0.82809  0.82809  0.42191  1
 O  O4  1  0.42191  0.42191  0.82809  1
 O  O5  1  0.42191  0.82809  0.42191  1
 O  O6  1  0.17191  0.57809  0.17191  1
 O  O7  1  0.57809  0.17191  0.57809  1
 O  O8  1  0.17191  0.17191  0.57809  1
 O  O9  1  0.82809  0.42191  0.42191  1
 O  O10  1  0.57809  0.17191  0.17191  1
 O  O11  1  0.42191  0.82809  0.82809  1
 O  O12  1  0.57809  0.57809  0.17191  1
 Sb  Sb1  1  -0.00000  0.50000  0.50000  1
 Sb  Sb2  1  0.50000  0.50000  0.50000  1
 Sb  Sb3  1  0.50000  0.50000  0.00000  1
 Sb  Sb4  1  0.50000  0.00000  0.50000  1
