CIF file written using JARVIS-Tools package.
data_CaH4C4O4
_symmetry_space_group_name_H-M  'P-1'
_cell_length_a       4.22464
_cell_length_b       7.42803
_cell_length_c       7.84627
_cell_angle_alpha    95.0799
_cell_angle_beta     96.3245
_cell_angle_gamma    97.6321

_symmetry_Int_Tables_number  2
_chemical_formula_structural  CaH4C4O4
_chemical_formula_sum  Ca2H8C8O8
_cell_volume  241.22157694057435
_cell_formula_units_Z  2
loop_
  _symmetry_equiv_pos_site_id
 _symmetry_equiv_pos_as_xyz
 1  'x, y, z'
loop_
 _atom_site_type_symbol
 _atom_site_label
 _atom_site_symmetry_multiplicity
 _atom_site_fract_x
 _atom_site_fract_y
 _atom_site_fract_z
 _atom_site_fract_occupancy
 C  C1  1  0.29560  0.72331  0.79734  1
 C  C2  1  0.24467  0.02247  0.66392  1
 C  C3  1  0.12717  0.54413  0.34237  1
 C  C4  1  0.12717  0.54413  0.84237  1
 C  C5  1  0.24467  0.02247  0.16392  1
 C  C6  1  0.29560  0.72331  0.29734  1
 C  C7  1  0.07622  0.84330  0.20895  1
 C  C8  1  0.07622  0.84330  0.70895  1
 Ca  Ca1  1  0.68593  0.28330  0.50314  1
 Ca  Ca2  1  0.68593  0.28330  0.00314  1
 H  H1  1  0.93537  0.77009  0.09124  1
 H  H2  1  0.47104  0.68343  0.21317  1
 H  H3  1  0.47104  0.68343  0.71317  1
 H  H4  1  0.43644  0.79651  0.41506  1
 H  H5  1  0.93537  0.77009  0.59124  1
 H  H6  1  0.90080  0.88318  0.29313  1
 H  H7  1  0.90080  0.88318  0.79313  1
 H  H8  1  0.43644  0.79651  0.91506  1
 O  O1  1  0.10679  0.10282  0.54612  1
 O  O2  1  0.26507  0.46377  0.46015  1
 O  O3  1  0.84961  0.47500  0.26350  1
 O  O4  1  0.84962  0.47500  0.76350  1
 O  O5  1  0.52222  0.09159  0.24279  1
 O  O6  1  0.52222  0.09159  0.74279  1
 O  O7  1  0.10679  0.10282  0.04612  1
 O  O8  1  0.26507  0.46377  0.96015  1
