CIF file written using JARVIS-Tools package.
data_KMnF3
_symmetry_space_group_name_H-M  'Imma'
_cell_length_a       5.91911
_cell_length_b       5.91911
_cell_length_c       5.91911
_cell_angle_alpha    120.144
_cell_angle_beta     119.403
_cell_angle_gamma    90.3935

_symmetry_Int_Tables_number  74
_chemical_formula_structural  KMnF3
_chemical_formula_sum  K2Mn2F6
_cell_volume  147.13081012374428
_cell_formula_units_Z  2
loop_
  _symmetry_equiv_pos_site_id
 _symmetry_equiv_pos_as_xyz
 1  'x, y, z'
loop_
 _atom_site_type_symbol
 _atom_site_label
 _atom_site_symmetry_multiplicity
 _atom_site_fract_x
 _atom_site_fract_y
 _atom_site_fract_z
 _atom_site_fract_occupancy
 F  F1  1  0.69708  0.25000  0.44708  1
 F  F2  1  0.30292  0.75000  0.55292  1
 F  F3  1  0.77766  0.77766  0.50000  1
 F  F4  1  0.22234  0.72234  0.00000  1
 F  F5  1  0.22234  0.22234  0.50000  1
 F  F6  1  0.77766  0.27766  -0.00000  1
 K  K1  1  0.75263  0.75000  0.00263  1
 K  K2  1  0.24737  0.25000  0.99737  1
 Mn  Mn1  1  -0.00000  0.50000  0.50000  1
 Mn  Mn2  1  0.50000  0.00000  0.50000  1
