CIF file written using JARVIS-Tools package.
data_Ni4Ru
_symmetry_space_group_name_H-M  'R-3m'
_cell_length_a       10.2859
_cell_length_b       10.2859
_cell_length_c       10.2859
_cell_angle_alpha    14.2861
_cell_angle_beta     14.2861
_cell_angle_gamma    14.2861

_symmetry_Int_Tables_number  166
_chemical_formula_structural  Ni4Ru
_chemical_formula_sum  Ni4Ru
_cell_volume  57.68487336558254
_cell_formula_units_Z  1
loop_
  _symmetry_equiv_pos_site_id
 _symmetry_equiv_pos_as_xyz
 1  'x, y, z'
loop_
 _atom_site_type_symbol
 _atom_site_label
 _atom_site_symmetry_multiplicity
 _atom_site_fract_x
 _atom_site_fract_y
 _atom_site_fract_z
 _atom_site_fract_occupancy
 Ni  Ni1  1  0.59783  0.59783  0.59783  1
 Ni  Ni2  1  0.19904  0.19904  0.19904  1
 Ni  Ni3  1  0.80096  0.80096  0.80096  1
 Ni  Ni4  1  0.40217  0.40217  0.40217  1
 Ru  Ru1  1  0.00000  0.00000  0.00000  1
