CIF file written using JARVIS-Tools package.
data_OsPt3
_symmetry_space_group_name_H-M  'R-3m'
_cell_length_a       9.24828
_cell_length_b       9.24828
_cell_length_c       9.24827
_cell_angle_alpha    17.3874
_cell_angle_beta     17.3874
_cell_angle_gamma    17.3874

_symmetry_Int_Tables_number  166
_chemical_formula_structural  OsPt3
_chemical_formula_sum  OsPt3
_cell_volume  61.643106997367845
_cell_formula_units_Z  1
loop_
  _symmetry_equiv_pos_site_id
 _symmetry_equiv_pos_as_xyz
 1  'x, y, z'
loop_
 _atom_site_type_symbol
 _atom_site_label
 _atom_site_symmetry_multiplicity
 _atom_site_fract_x
 _atom_site_fract_y
 _atom_site_fract_z
 _atom_site_fract_occupancy
 Os  Os1  1  0.00000  0.00000  0.00000  1
 Pt  Pt1  1  0.25291  0.25291  0.25291  1
 Pt  Pt2  1  0.50000  0.50000  0.50000  1
 Pt  Pt3  1  0.74709  0.74709  0.74709  1
