CIF file written using JARVIS-Tools package.
data_NaBrO3
_symmetry_space_group_name_H-M  'P2_13'
_cell_length_a       6.68405
_cell_length_b       6.68405
_cell_length_c       6.68405
_cell_angle_alpha    90
_cell_angle_beta     90
_cell_angle_gamma    90

_symmetry_Int_Tables_number  198
_chemical_formula_structural  NaBrO3
_chemical_formula_sum  Na4Br4O2
_cell_volume  298.62022260082455
_cell_formula_units_Z  4
loop_
  _symmetry_equiv_pos_site_id
 _symmetry_equiv_pos_as_xyz
 1  'x, y, z'
loop_
 _atom_site_type_symbol
 _atom_site_label
 _atom_site_symmetry_multiplicity
 _atom_site_fract_x
 _atom_site_fract_y
 _atom_site_fract_z
 _atom_site_fract_occupancy
 Br  Br1  1  0.40297  0.40297  0.40297  1
 Br  Br2  1  0.09703  0.59703  0.90297  1
 Br  Br3  1  0.90297  0.09703  0.59703  1
 Br  Br4  1  0.59703  0.90297  0.09703  1
 Na  Na1  1  0.07767  0.07767  0.07767  1
 Na  Na2  1  0.42233  0.92233  0.57767  1
 Na  Na3  1  0.57767  0.42233  0.92233  1
 Na  Na4  1  0.92233  0.57767  0.42233  1
 O  O1  1  0.21701  0.40003  0.00666  1
 O  O2  1  0.59997  0.50666  0.28299  1
 O  O3  1  0.78299  0.90003  0.49334  1
 O  O4  1  0.09997  0.99334  0.71701  1
 O  O5  1  0.71701  0.09997  0.99334  1
 O  O6  1  0.28299  0.59997  0.50666  1
 O  O7  1  0.40003  0.00666  0.21701  1
 O  O8  1  0.00666  0.21701  0.40003  1
 O  O9  1  0.49334  0.78299  0.90003  1
 O  O10  1  0.50666  0.28299  0.59997  1
 O  O11  1  0.99334  0.71701  0.09997  1
 O  O12  1  0.90003  0.49334  0.78299  1
