CIF file written using JARVIS-Tools package.
data_Na3VO3
_symmetry_space_group_name_H-M  'P-1'
_cell_length_a       5.7541
_cell_length_b       5.88614
_cell_length_c       6.36908
_cell_angle_alpha    65.5438
_cell_angle_beta     90.0599
_cell_angle_gamma    85.8275

_symmetry_Int_Tables_number  2
_chemical_formula_structural  Na3VO3
_chemical_formula_sum  Na6V2O6
_cell_volume  195.72701801684917
_cell_formula_units_Z  2
loop_
  _symmetry_equiv_pos_site_id
 _symmetry_equiv_pos_as_xyz
 1  'x, y, z'
loop_
 _atom_site_type_symbol
 _atom_site_label
 _atom_site_symmetry_multiplicity
 _atom_site_fract_x
 _atom_site_fract_y
 _atom_site_fract_z
 _atom_site_fract_occupancy
 Na  Na1  1  0.06145  0.76922  0.44635  1
 Na  Na2  1  0.15019  0.76344  0.97917  1
 Na  Na3  1  0.42520  0.27742  0.74982  1
 Na  Na4  1  0.57480  0.72258  0.25018  1
 Na  Na5  1  0.84981  0.23656  0.02083  1
 Na  Na6  1  0.93855  0.23078  0.55365  1
 O  O1  1  0.23729  0.09087  0.10777  1
 O  O2  1  0.24888  0.46551  0.35165  1
 O  O3  1  0.31135  0.94872  0.61680  1
 O  O4  1  0.68865  0.05128  0.38320  1
 O  O5  1  0.75112  0.53449  0.64835  1
 O  O6  1  0.76271  0.90913  0.89223  1
 V  V1  1  0.37645  0.19997  0.29601  1
 V  V2  1  0.62355  0.80003  0.70399  1
