CIF file written using JARVIS-Tools package.
data_LiMnSiO4
_symmetry_space_group_name_H-M  'Imma'
_cell_length_a       5.84045
_cell_length_b       5.84045
_cell_length_c       5.84045
_cell_angle_alpha    55.4461
_cell_angle_beta     95.3147
_cell_angle_gamma    121.698

_symmetry_Int_Tables_number  74
_chemical_formula_structural  LiMnSiO4
_chemical_formula_sum  Li2Mn2Si2O8
_cell_volume  133.47044406608012
_cell_formula_units_Z  2
loop_
  _symmetry_equiv_pos_site_id
 _symmetry_equiv_pos_as_xyz
 1  'x, y, z'
loop_
 _atom_site_type_symbol
 _atom_site_label
 _atom_site_symmetry_multiplicity
 _atom_site_fract_x
 _atom_site_fract_y
 _atom_site_fract_z
 _atom_site_fract_occupancy
 Li  Li1  1  0.99190  -0.00000  0.00810  1
 Li  Li2  1  0.25810  0.50000  0.24190  1
 Mn  Mn1  1  0.62500  0.25000  0.62500  1
 Mn  Mn2  1  0.12500  0.75000  0.62500  1
 O  O1  1  0.83830  0.21112  0.37282  1
 O  O2  1  0.83815  0.73639  0.42546  1
 O  O3  1  0.41185  0.23639  0.35176  1
 O  O4  1  0.83815  0.26361  0.89824  1
 O  O5  1  0.41170  0.28888  0.87718  1
 O  O6  1  0.83395  0.71112  0.87718  1
 O  O7  1  0.41605  0.78888  0.37282  1
 O  O8  1  0.41185  0.76361  0.82454  1
 Si  Si1  1  0.62500  0.25000  0.12500  1
 Si  Si2  1  0.62500  0.75000  0.62500  1
