CIF file written using JARVIS-Tools package.
data_HoBO3
_symmetry_space_group_name_H-M  'Ama2'
_cell_length_a       4.35849
_cell_length_b       3.86356
_cell_length_c       8.4744
_cell_angle_alpha    89.9994
_cell_angle_beta     90.0004
_cell_angle_gamma    124.332

_symmetry_Int_Tables_number  40
_chemical_formula_structural  HoBO3
_chemical_formula_sum  Ho2B2O6
_cell_volume  117.84141939224656
_cell_formula_units_Z  2
loop_
  _symmetry_equiv_pos_site_id
 _symmetry_equiv_pos_as_xyz
 1  'x, y, z'
loop_
 _atom_site_type_symbol
 _atom_site_label
 _atom_site_symmetry_multiplicity
 _atom_site_fract_x
 _atom_site_fract_y
 _atom_site_fract_z
 _atom_site_fract_occupancy
 B  B1  1  0.49111  0.72453  0.25000  1
 B  B2  1  0.76658  0.27549  0.75000  1
 Ho  Ho1  1  0.06997  0.00001  0.00000  1
 Ho  Ho2  1  0.06996  0.00001  0.50000  1
 O  O1  1  0.32454  0.66027  0.10327  1
 O  O2  1  0.32453  0.66029  0.39672  1
 O  O3  1  0.85316  0.84355  0.25000  1
 O  O4  1  0.66425  0.33974  0.60327  1
 O  O5  1  0.66427  0.33974  0.89673  1
 O  O6  1  0.00963  0.15647  0.75000  1
