CIF file written using JARVIS-Tools package.
data_Pb2O3
_symmetry_space_group_name_H-M  'P2_1/c'
_cell_length_a       7.64574
_cell_length_b       5.73998
_cell_length_c       7.87932
_cell_angle_alpha    90
_cell_angle_beta     112.818
_cell_angle_gamma    90

_symmetry_Int_Tables_number  14
_chemical_formula_structural  Pb2O3
_chemical_formula_sum  Pb8O2
_cell_volume  318.73397721507735
_cell_formula_units_Z  4
loop_
  _symmetry_equiv_pos_site_id
 _symmetry_equiv_pos_as_xyz
 1  'x, y, z'
loop_
 _atom_site_type_symbol
 _atom_site_label
 _atom_site_symmetry_multiplicity
 _atom_site_fract_x
 _atom_site_fract_y
 _atom_site_fract_z
 _atom_site_fract_occupancy
 O  O1  1  0.92699  0.43720  0.13839  1
 O  O2  1  0.37244  0.62818  0.27024  1
 O  O3  1  0.07301  0.56280  0.86161  1
 O  O4  1  0.62756  0.37182  0.72976  1
 O  O5  1  0.37244  0.87182  0.77024  1
 O  O6  1  0.62756  0.12818  0.22976  1
 O  O7  1  0.19098  0.40612  0.54946  1
 O  O8  1  0.19098  0.09388  0.04946  1
 O  O9  1  0.80902  0.59388  0.45054  1
 O  O10  1  0.92699  0.06280  0.63839  1
 O  O11  1  0.07301  0.93720  0.36161  1
 O  O12  1  0.80902  0.90612  0.95054  1
 Pb  Pb1  1  0.61258  0.75864  0.64054  1
 Pb  Pb2  1  0.38742  0.25864  0.85946  1
 Pb  Pb3  1  0.38742  0.24136  0.35946  1
 Pb  Pb4  1  0.61258  0.74136  0.14054  1
 Pb  Pb5  1  0.09135  0.74577  0.61699  1
 Pb  Pb6  1  0.90865  0.24577  0.88301  1
 Pb  Pb7  1  0.90865  0.25423  0.38301  1
 Pb  Pb8  1  0.09135  0.75423  0.11699  1
