CIF file written using JARVIS-Tools package.
data_RbCaAs
_symmetry_space_group_name_H-M  'P4/nmm'
_cell_length_a       5.11959
_cell_length_b       5.11959
_cell_length_c       7.9066
_cell_angle_alpha    90
_cell_angle_beta     90
_cell_angle_gamma    90

_symmetry_Int_Tables_number  129
_chemical_formula_structural  RbCaAs
_chemical_formula_sum  Rb2Ca2As2
_cell_volume  207.23325008924044
_cell_formula_units_Z  2
loop_
  _symmetry_equiv_pos_site_id
 _symmetry_equiv_pos_as_xyz
 1  'x, y, z'
loop_
 _atom_site_type_symbol
 _atom_site_label
 _atom_site_symmetry_multiplicity
 _atom_site_fract_x
 _atom_site_fract_y
 _atom_site_fract_z
 _atom_site_fract_occupancy
 As  As1  1  0.50000  0.00000  0.18710  1
 As  As2  1  0.00000  0.50000  0.81290  1
 Ca  Ca1  1  0.50000  0.50000  0.00000  1
 Ca  Ca2  1  0.00000  0.00000  0.00000  1
 Rb  Rb1  1  0.00000  0.50000  0.37256  1
 Rb  Rb2  1  0.50000  0.00000  0.62744  1
