CIF file written using JARVIS-Tools package.
data_ThMnAl
_symmetry_space_group_name_H-M  'Imma'
_cell_length_a       5.35794
_cell_length_b       5.35795
_cell_length_c       5.35794
_cell_angle_alpha    118.497
_cell_angle_beta     115.417
_cell_angle_gamma    95.3754

_symmetry_Int_Tables_number  74
_chemical_formula_structural  ThMnAl
_chemical_formula_sum  Th2Mn2Al2
_cell_volume  113.1340668008245
_cell_formula_units_Z  2
loop_
  _symmetry_equiv_pos_site_id
 _symmetry_equiv_pos_as_xyz
 1  'x, y, z'
loop_
 _atom_site_type_symbol
 _atom_site_label
 _atom_site_symmetry_multiplicity
 _atom_site_fract_x
 _atom_site_fract_y
 _atom_site_fract_z
 _atom_site_fract_occupancy
 Al  Al1  1  -0.00000  0.50000  0.50000  1
 Al  Al2  1  0.50000  0.50000  -0.00000  1
 Mn  Mn1  1  0.50000  0.00000  -0.00000  1
 Mn  Mn2  1  0.50000  0.50000  0.50000  1
 Th  Th1  1  0.14526  0.89526  0.25000  1
 Th  Th2  1  0.85474  0.10474  0.75000  1
