CIF file written using JARVIS-Tools package.
data_LiMnCo3O8
_symmetry_space_group_name_H-M  'R-3m'
_cell_length_a       5.6366
_cell_length_b       5.6366
_cell_length_c       5.69961
_cell_angle_alpha    119.635
_cell_angle_beta     90
_cell_angle_gamma    60

_symmetry_Int_Tables_number  166
_chemical_formula_structural  LiMnCo3O8
_chemical_formula_sum  LiMnCo3O8
_cell_volume  128.74737480234822
_cell_formula_units_Z  1
loop_
  _symmetry_equiv_pos_site_id
 _symmetry_equiv_pos_as_xyz
 1  'x, y, z'
loop_
 _atom_site_type_symbol
 _atom_site_label
 _atom_site_symmetry_multiplicity
 _atom_site_fract_x
 _atom_site_fract_y
 _atom_site_fract_z
 _atom_site_fract_occupancy
 Co  Co1  1  -0.00000  0.50000  0.00000  1
 Co  Co2  1  0.50000  0.00000  0.00000  1
 Co  Co3  1  0.50000  0.50000  0.00000  1
 Li  Li1  1  0.50000  -0.00000  0.50000  1
 Mn  Mn1  1  0.00000  0.00000  0.00000  1
 O  O1  1  0.23523  0.02804  0.79281  1
 O  O2  1  0.23523  0.52954  0.79281  1
 O  O3  1  0.26742  0.46515  0.19773  1
 O  O4  1  0.73673  0.02804  0.79281  1
 O  O5  1  0.26327  0.97196  0.20719  1
 O  O6  1  0.73258  0.53485  0.80227  1
 O  O7  1  0.76477  0.47046  0.20719  1
 O  O8  1  0.76477  0.97196  0.20719  1
