CIF file written using JARVIS-Tools package.
data_CeGeAu
_symmetry_space_group_name_H-M  'P6_3mc'
_cell_length_a       4.45765
_cell_length_b       4.45765
_cell_length_c       7.91076
_cell_angle_alpha    90
_cell_angle_beta     90
_cell_angle_gamma    120

_symmetry_Int_Tables_number  186
_chemical_formula_structural  CeGeAu
_chemical_formula_sum  Ce2Ge2Au2
_cell_volume  136.1322643013719
_cell_formula_units_Z  2
loop_
  _symmetry_equiv_pos_site_id
 _symmetry_equiv_pos_as_xyz
 1  'x, y, z'
loop_
 _atom_site_type_symbol
 _atom_site_label
 _atom_site_symmetry_multiplicity
 _atom_site_fract_x
 _atom_site_fract_y
 _atom_site_fract_z
 _atom_site_fract_occupancy
 Au  Au1  1  0.66667  0.33333  0.22557  1
 Au  Au2  1  0.33333  0.66667  0.72557  1
 Ce  Ce1  1  0.00000  0.00000  0.49732  1
 Ce  Ce2  1  0.00000  0.00000  0.99732  1
 Ge  Ge1  1  0.33333  0.66667  0.27391  1
 Ge  Ge2  1  0.66667  0.33333  0.77391  1
