CIF file written using JARVIS-Tools package.
data_Li2AgF5
_symmetry_space_group_name_H-M  'P1'
_cell_length_a       3.61355
_cell_length_b       5.33636
_cell_length_c       5.71714
_cell_angle_alpha    99.5069
_cell_angle_beta     78.1334
_cell_angle_gamma    75.5069

_symmetry_Int_Tables_number  1
_chemical_formula_structural  Li2AgF5
_chemical_formula_sum  Li2AgF5
_cell_volume  101.6885414073554
_cell_formula_units_Z  1
loop_
  _symmetry_equiv_pos_site_id
 _symmetry_equiv_pos_as_xyz
 1  'x, y, z'
loop_
 _atom_site_type_symbol
 _atom_site_label
 _atom_site_symmetry_multiplicity
 _atom_site_fract_x
 _atom_site_fract_y
 _atom_site_fract_z
 _atom_site_fract_occupancy
 Ag  Ag1  1  0.88007  0.04637  0.00948  1
 F  F1  1  -0.03816  0.19364  0.71496  1
 F  F2  1  0.12790  0.28943  0.16511  1
 F  F3  1  0.39332  0.53025  0.50448  1
 F  F4  1  0.63500  0.81404  0.83713  1
 F  F5  1  0.76224  0.91833  0.31279  1
 Li  Li1  1  0.48892  0.21578  0.58469  1
 Li  Li2  1  0.88070  0.60685  0.45672  1
