CIF file written using JARVIS-Tools package.
data_H4C6S2O
_symmetry_space_group_name_H-M  'P1'
_cell_length_a       3.85044
_cell_length_b       5.69344
_cell_length_c       7.17508
_cell_angle_alpha    78.147
_cell_angle_beta     84.3783
_cell_angle_gamma    77.5783

_symmetry_Int_Tables_number  1
_chemical_formula_structural  H4C6S2O
_chemical_formula_sum  H4C6S2O
_cell_volume  150.09776416050255
_cell_formula_units_Z  1
loop_
  _symmetry_equiv_pos_site_id
 _symmetry_equiv_pos_as_xyz
 1  'x, y, z'
loop_
 _atom_site_type_symbol
 _atom_site_label
 _atom_site_symmetry_multiplicity
 _atom_site_fract_x
 _atom_site_fract_y
 _atom_site_fract_z
 _atom_site_fract_occupancy
 C  C1  1  0.49730  0.84972  0.34020  1
 C  C2  1  0.58073  0.82709  0.53058  1
 C  C3  1  0.46079  0.04132  0.60084  1
 C  C4  1  0.30985  0.08243  0.26539  1
 C  C5  1  0.57160  0.09714  0.77728  1
 C  C6  1  0.23931  0.18445  0.06826  1
 H  H1  1  0.56044  0.29376  0.76399  1
 H  H2  1  0.58275  0.70823  0.25479  1
 H  H3  1  0.74220  0.66553  0.61314  1
 H  H4  1  0.84411  -0.00397  0.80400  1
 O  O1  1  0.36617  0.01595  0.95467  1
 S  S1  1  0.23289  0.27030  0.43344  1
 S  S2  1  0.05021  0.47295  0.98852  1
