CIF file written using JARVIS-Tools package.
data_Er2Si3Ni
_symmetry_space_group_name_H-M  'P-6m2'
_cell_length_a       3.99215
_cell_length_b       3.99214
_cell_length_c       7.85641
_cell_angle_alpha    90
_cell_angle_beta     90
_cell_angle_gamma    120

_symmetry_Int_Tables_number  187
_chemical_formula_structural  Er2Si3Ni
_chemical_formula_sum  Er2Si3Ni
_cell_volume  108.43457978571924
_cell_formula_units_Z  1
loop_
  _symmetry_equiv_pos_site_id
 _symmetry_equiv_pos_as_xyz
 1  'x, y, z'
loop_
 _atom_site_type_symbol
 _atom_site_label
 _atom_site_symmetry_multiplicity
 _atom_site_fract_x
 _atom_site_fract_y
 _atom_site_fract_z
 _atom_site_fract_occupancy
 Er  Er1  1  0.33333  0.66667  0.74119  1
 Er  Er2  1  0.33333  0.66667  0.25881  1
 Ni  Ni1  1  0.66667  0.33333  0.50000  1
 Si  Si1  1  0.66667  0.33333  0.00000  1
 Si  Si2  1  0.00000  0.00000  0.50000  1
 Si  Si3  1  0.00000  0.00000  0.00000  1
