CIF file written using JARVIS-Tools package.
data_CdH2C3O4
_symmetry_space_group_name_H-M  'P1'
_cell_length_a       3.73668
_cell_length_b       4.19347
_cell_length_c       6.48202
_cell_angle_alpha    83.1667
_cell_angle_beta     85.5532
_cell_angle_gamma    79.1923

_symmetry_Int_Tables_number  1
_chemical_formula_structural  CdH2C3O4
_chemical_formula_sum  CdH2C3O4
_cell_volume  98.90160455334545
_cell_formula_units_Z  1
loop_
  _symmetry_equiv_pos_site_id
 _symmetry_equiv_pos_as_xyz
 1  'x, y, z'
loop_
 _atom_site_type_symbol
 _atom_site_label
 _atom_site_symmetry_multiplicity
 _atom_site_fract_x
 _atom_site_fract_y
 _atom_site_fract_z
 _atom_site_fract_occupancy
 C  C1  1  0.66648  0.17643  0.19287  1
 C  C2  1  0.89522  0.26540  0.79799  1
 C  C3  1  0.83443  0.04471  0.99333  1
 Cd  Cd1  1  0.26753  0.67472  0.50160  1
 H  H1  1  0.08571  0.87030  0.02602  1
 H  H2  1  0.64833  0.88905  0.95228  1
 O  O1  1  0.69785  0.54388  0.75659  1
 O  O2  1  0.16354  0.16085  0.67241  1
 O  O3  1  0.44599  0.44511  0.19326  1
 O  O4  1  0.74012  -0.01635  0.36107  1
