CIF file written using JARVIS-Tools package.
data_BrF5
_symmetry_space_group_name_H-M  'Cmc2_1'
_cell_length_a       4.87493
_cell_length_b       4.87494
_cell_length_c       7.61027
_cell_angle_alpha    90
_cell_angle_beta     90
_cell_angle_gamma    97.3694

_symmetry_Int_Tables_number  36
_chemical_formula_structural  BrF5
_chemical_formula_sum  Br2F0
_cell_volume  179.3641662612753
_cell_formula_units_Z  2
loop_
  _symmetry_equiv_pos_site_id
 _symmetry_equiv_pos_as_xyz
 1  'x, y, z'
loop_
 _atom_site_type_symbol
 _atom_site_label
 _atom_site_symmetry_multiplicity
 _atom_site_fract_x
 _atom_site_fract_y
 _atom_site_fract_z
 _atom_site_fract_occupancy
 Br  Br1  1  0.82995  0.17005  0.25474  1
 Br  Br2  1  0.17005  0.82995  0.75474  1
 F  F1  1  0.09802  0.46756  0.24463  1
 F  F2  1  0.90198  0.53244  0.74463  1
 F  F3  1  0.33867  0.66133  0.59092  1
 F  F4  1  0.66133  0.33867  0.09092  1
 F  F5  1  0.35556  0.64444  0.91084  1
 F  F6  1  0.64444  0.35556  0.41084  1
 F  F7  1  0.00638  0.99362  0.56424  1
 F  F8  1  0.99362  0.00638  0.06424  1
 F  F9  1  0.46756  0.09802  0.74463  1
 F  F10  1  0.53244  0.90198  0.24463  1
