CIF file written using JARVIS-Tools package.
data_NiGePd
_symmetry_space_group_name_H-M  'P4/nmm'
_cell_length_a       3.64104
_cell_length_b       3.64104
_cell_length_c       6.29548
_cell_angle_alpha    90
_cell_angle_beta     90
_cell_angle_gamma    90

_symmetry_Int_Tables_number  129
_chemical_formula_structural  NiGePd
_chemical_formula_sum  Ni2Ge2Pd2
_cell_volume  83.4603147331953
_cell_formula_units_Z  2
loop_
  _symmetry_equiv_pos_site_id
 _symmetry_equiv_pos_as_xyz
 1  'x, y, z'
loop_
 _atom_site_type_symbol
 _atom_site_label
 _atom_site_symmetry_multiplicity
 _atom_site_fract_x
 _atom_site_fract_y
 _atom_site_fract_z
 _atom_site_fract_occupancy
 Ge  Ge1  1  0.00000  0.50000  0.24519  1
 Ge  Ge2  1  0.50000  0.00000  0.75481  1
 Ni  Ni1  1  0.00000  0.00000  0.00000  1
 Ni  Ni2  1  0.50000  0.50000  0.00000  1
 Pd  Pd1  1  0.00000  0.50000  0.63930  1
 Pd  Pd2  1  0.50000  0.00000  0.36070  1
