CIF file written using JARVIS-Tools package.
data_H4C5S2N2
_symmetry_space_group_name_H-M  'P1'
_cell_length_a       5.70565
_cell_length_b       6.25761
_cell_length_c       9.01385
_cell_angle_alpha    92.5832
_cell_angle_beta     73.0362
_cell_angle_gamma    80.6794

_symmetry_Int_Tables_number  1
_chemical_formula_structural  H4C5S2N2
_chemical_formula_sum  H8C0S4N4
_cell_volume  302.30463613217086
_cell_formula_units_Z  2
loop_
  _symmetry_equiv_pos_site_id
 _symmetry_equiv_pos_as_xyz
 1  'x, y, z'
loop_
 _atom_site_type_symbol
 _atom_site_label
 _atom_site_symmetry_multiplicity
 _atom_site_fract_x
 _atom_site_fract_y
 _atom_site_fract_z
 _atom_site_fract_occupancy
 C  C1  1  0.92660  0.42936  0.02008  1
 C  C2  1  0.26216  0.10369  0.50469  1
 C  C3  1  0.26216  0.60369  0.00469  1
 C  C4  1  0.07059  0.00789  0.60053  1
 C  C5  1  0.07059  0.50789  0.10053  1
 C  C6  1  0.92660  0.92936  0.52008  1
 C  C7  1  0.26266  0.09732  0.35202  1
 C  C8  1  0.26266  0.59732  0.85202  1
 C  C9  1  0.56726  0.31509  0.20895  1
 C  C10  1  0.56726  0.81509  0.70895  1
 H  H1  1  0.40133  0.16586  0.54566  1
 H  H2  1  0.47031  0.04716  0.12035  1
 H  H3  1  0.74265  0.18424  0.98370  1
 H  H4  1  0.74265  0.68424  0.48370  1
 H  H5  1  0.04736  0.48898  0.22273  1
 H  H6  1  0.04736  -0.01102  0.72273  1
 H  H7  1  0.40133  0.66586  0.04566  1
 H  H8  1  0.47031  0.54716  0.62035  1
 N  N1  1  0.43897  0.14671  0.22084  1
 N  N2  1  0.74533  0.80051  0.56739  1
 N  N3  1  0.74533  0.30051  0.06739  1
 N  N4  1  0.43897  0.64671  0.72084  1
 S  S1  1  0.01548  0.98503  0.32579  1
 S  S2  1  0.01548  0.48503  0.82579  1
 S  S3  1  0.49967  0.02531  0.84711  1
 S  S4  1  0.49967  0.52531  0.34711  1
