CIF file written using JARVIS-Tools package.
data_Li3CuF6
_symmetry_space_group_name_H-M  'R-3'
_cell_length_a       5.89351
_cell_length_b       5.89351
_cell_length_c       5.89352
_cell_angle_alpha    91.2386
_cell_angle_beta     91.2385
_cell_angle_gamma    91.2385

_symmetry_Int_Tables_number  148
_chemical_formula_structural  Li3CuF6
_chemical_formula_sum  Li6Cu2F2
_cell_volume  204.55670754754087
_cell_formula_units_Z  2
loop_
  _symmetry_equiv_pos_site_id
 _symmetry_equiv_pos_as_xyz
 1  'x, y, z'
loop_
 _atom_site_type_symbol
 _atom_site_label
 _atom_site_symmetry_multiplicity
 _atom_site_fract_x
 _atom_site_fract_y
 _atom_site_fract_z
 _atom_site_fract_occupancy
 Cu  Cu1  1  0.00000  0.00000  0.00000  1
 Cu  Cu2  1  0.50000  0.50000  0.50000  1
 F  F1  1  0.69484  0.07661  0.91774  1
 F  F2  1  0.07661  0.91774  0.69484  1
 F  F3  1  0.91774  0.69484  0.07661  1
 F  F4  1  0.19337  0.54733  0.40055  1
 F  F5  1  0.30516  0.92339  0.08226  1
 F  F6  1  0.08226  0.30516  0.92339  1
 F  F7  1  0.45267  0.59945  0.80663  1
 F  F8  1  0.54733  0.40055  0.19337  1
 F  F9  1  0.92339  0.08226  0.30516  1
 F  F10  1  0.40055  0.19337  0.54733  1
 F  F11  1  0.80663  0.45267  0.59945  1
 F  F12  1  0.59945  0.80663  0.45267  1
 Li  Li1  1  0.93324  0.75080  0.44350  1
 Li  Li2  1  0.75080  0.44350  0.93324  1
 Li  Li3  1  0.55650  0.06676  0.24920  1
 Li  Li4  1  0.44350  0.93324  0.75080  1
 Li  Li5  1  0.24920  0.55650  0.06676  1
 Li  Li6  1  0.06676  0.24920  0.55650  1
