CIF file written using JARVIS-Tools package.
data_Rb3BS3
_symmetry_space_group_name_H-M  'P2_1/c'
_cell_length_a       10.1138
_cell_length_b       6.37212
_cell_length_c       13.0618
_cell_angle_alpha    90
_cell_angle_beta     103.391
_cell_angle_gamma    90

_symmetry_Int_Tables_number  14
_chemical_formula_structural  Rb3BS3
_chemical_formula_sum  Rb2B4S2
_cell_volume  818.9027988257847
_cell_formula_units_Z  4
loop_
  _symmetry_equiv_pos_site_id
 _symmetry_equiv_pos_as_xyz
 1  'x, y, z'
loop_
 _atom_site_type_symbol
 _atom_site_label
 _atom_site_symmetry_multiplicity
 _atom_site_fract_x
 _atom_site_fract_y
 _atom_site_fract_z
 _atom_site_fract_occupancy
 B  B1  1  0.76646  0.62047  0.87273  1
 B  B2  1  0.23354  0.37953  0.12727  1
 B  B3  1  0.76646  0.87953  0.37273  1
 B  B4  1  0.23354  0.12047  0.62727  1
 Rb  Rb1  1  0.26002  0.65126  0.49220  1
 Rb  Rb2  1  0.73998  0.15126  0.00780  1
 Rb  Rb3  1  0.73998  0.34874  0.50780  1
 Rb  Rb4  1  0.26002  0.84874  0.99220  1
 Rb  Rb5  1  0.40010  0.06103  0.29949  1
 Rb  Rb6  1  0.96485  0.77822  0.64108  1
 Rb  Rb7  1  0.96485  0.72178  0.14108  1
 Rb  Rb8  1  0.03515  0.22178  0.35892  1
 Rb  Rb9  1  0.40010  0.43897  0.79949  1
 Rb  Rb10  1  0.59990  0.93897  0.70051  1
 Rb  Rb11  1  0.59990  0.56103  0.20051  1
 Rb  Rb12  1  0.03515  0.27822  0.85892  1
 S  S1  1  0.71718  0.07363  0.26583  1
 S  S2  1  0.28282  0.57363  0.23417  1
 S  S3  1  0.08269  0.28556  0.61837  1
 S  S4  1  0.91731  0.78556  0.88163  1
 S  S5  1  0.91731  0.71444  0.38163  1
 S  S6  1  0.65876  0.65596  0.96679  1
 S  S7  1  0.34124  0.15596  0.53321  1
 S  S8  1  0.65876  0.84404  0.46679  1
 S  S9  1  0.34124  0.34404  0.03321  1
 S  S10  1  0.71718  0.42637  0.76583  1
 S  S11  1  0.08269  0.21444  0.11837  1
 S  S12  1  0.28282  0.92637  0.73417  1
