CIF file written using JARVIS-Tools package.
data_Li4FeO3
_symmetry_space_group_name_H-M  'Cc'
_cell_length_a       5.05382
_cell_length_b       5.55969
_cell_length_c       6.86375
_cell_angle_alpha    108.778
_cell_angle_beta     89.9988
_cell_angle_gamma    117.031

_symmetry_Int_Tables_number  9
_chemical_formula_structural  Li4FeO3
_chemical_formula_sum  Li8Fe2O6
_cell_volume  160.17874021774136
_cell_formula_units_Z  2
loop_
  _symmetry_equiv_pos_site_id
 _symmetry_equiv_pos_as_xyz
 1  'x, y, z'
loop_
 _atom_site_type_symbol
 _atom_site_label
 _atom_site_symmetry_multiplicity
 _atom_site_fract_x
 _atom_site_fract_y
 _atom_site_fract_z
 _atom_site_fract_occupancy
 Fe  Fe1  1  0.61938  0.96492  0.74723  1
 Fe  Fe2  1  0.34702  0.96493  0.24727  1
 Li  Li1  1  0.26708  0.22503  0.93761  1
 Li  Li2  1  0.95940  0.22497  0.43772  1
 Li  Li3  1  0.56737  0.44263  0.63978  1
 Li  Li4  1  0.08571  0.60147  0.84073  1
 Li  Li5  1  0.87679  0.44258  0.13976  1
 Li  Li6  1  0.51721  0.60136  0.34069  1
 Li  Li7  1  0.02431  0.73610  0.52686  1
 Li  Li8  1  0.71333  0.73617  0.02688  1
 O  O1  1  0.66292  0.33462  0.86066  1
 O  O2  1  0.67323  0.33458  0.36067  1
 O  O3  1  0.29506  0.59228  0.59662  1
 O  O4  1  0.91749  0.87016  0.80121  1
 O  O5  1  0.29876  0.59232  0.09662  1
 O  O6  1  0.95415  0.87011  0.30122  1
