CIF file written using JARVIS-Tools package.
data_CuB2O4
_symmetry_space_group_name_H-M  'I-42d'
_cell_length_a       5.66147
_cell_length_b       8.66059
_cell_length_c       8.66059
_cell_angle_alpha    83.8672
_cell_angle_beta     70.9222
_cell_angle_gamma    70.9221

_symmetry_Int_Tables_number  122
_chemical_formula_structural  CuB2O4
_chemical_formula_sum  Cu6B2O24
_cell_volume  379.27759321428766
_cell_formula_units_Z  6
loop_
  _symmetry_equiv_pos_site_id
 _symmetry_equiv_pos_as_xyz
 1  'x, y, z'
loop_
 _atom_site_type_symbol
 _atom_site_label
 _atom_site_symmetry_multiplicity
 _atom_site_fract_x
 _atom_site_fract_y
 _atom_site_fract_z
 _atom_site_fract_occupancy
 B  B1  1  0.62406  0.25094  0.75094  1
 B  B2  1  0.09459  0.53769  0.16745  1
 B  B3  1  0.45028  0.66745  0.03769  1
 B  B4  1  0.79972  0.46231  0.83255  1
 B  B5  1  0.62500  0.75094  0.74906  1
 B  B6  1  0.12500  0.24906  0.25094  1
 B  B7  1  0.36773  0.83255  0.53769  1
 B  B8  1  0.73796  0.16745  0.46231  1
 B  B9  1  0.88227  0.96231  0.66745  1
 B  B10  1  0.62594  0.74906  0.24906  1
 B  B11  1  0.15541  0.33255  0.96231  1
 B  B12  1  0.51204  0.03769  0.33255  1
 Cu  Cu1  1  0.50000  0.00000  0.00000  1
 Cu  Cu2  1  0.04313  0.83187  0.33187  1
 Cu  Cu3  1  0.62500  0.33187  0.16813  1
 Cu  Cu4  1  0.12500  0.66813  0.83187  1
 Cu  Cu5  1  0.20687  0.16813  0.66813  1
 Cu  Cu6  1  0.75000  0.50000  0.50000  1
 O  O1  1  0.87076  0.11373  0.73842  1
 O  O2  1  0.91512  0.27025  0.41061  1
 O  O3  1  0.67427  0.41061  0.72975  1
 O  O4  1  0.87734  0.99766  0.49766  1
 O  O5  1  0.62500  0.49766  0.00234  1
 O  O6  1  0.12500  0.50234  0.99766  1
 O  O7  1  0.81463  0.58939  0.27025  1
 O  O8  1  0.12500  0.83417  0.66583  1
 O  O9  1  0.20917  0.66583  0.16583  1
 O  O10  1  0.62500  0.16583  0.33417  1
 O  O11  1  0.39083  0.73842  0.88627  1
 O  O12  1  0.33488  0.08939  0.22975  1
 O  O13  1  0.72290  0.88627  0.26158  1
 O  O14  1  0.52710  0.23842  0.61373  1
 O  O15  1  0.43537  0.22975  0.91061  1
 O  O16  1  0.59597  0.72975  0.58939  1
 O  O17  1  0.37266  0.00234  0.50234  1
 O  O18  1  0.57573  0.77025  0.08939  1
 O  O19  1  0.65403  0.91061  0.77025  1
 O  O20  1  0.37924  0.76158  0.38627  1
 O  O21  1  0.85917  0.61373  0.76158  1
 O  O22  1  0.23449  0.38627  0.23842  1
 O  O23  1  0.01551  0.26158  0.11373  1
 O  O24  1  0.04083  0.33417  0.83417  1
