CIF file written using JARVIS-Tools package.
data_Mn4AsP3
_symmetry_space_group_name_H-M  'Pm'
_cell_length_a       3.25613
_cell_length_b       5.28587
_cell_length_c       5.90266
_cell_angle_alpha    89.994
_cell_angle_beta     90
_cell_angle_gamma    90

_symmetry_Int_Tables_number  6
_chemical_formula_structural  Mn4AsP3
_chemical_formula_sum  Mn4AsP3
_cell_volume  101.59334653418749
_cell_formula_units_Z  1
loop_
  _symmetry_equiv_pos_site_id
 _symmetry_equiv_pos_as_xyz
 1  'x, y, z'
loop_
 _atom_site_type_symbol
 _atom_site_label
 _atom_site_symmetry_multiplicity
 _atom_site_fract_x
 _atom_site_fract_y
 _atom_site_fract_z
 _atom_site_fract_occupancy
 As  As1  1  0.50000  0.69328  0.92434  1
 Mn  Mn1  1  0.50000  0.50108  0.30711  1
 Mn  Mn2  1  0.50000  0.00842  0.20504  1
 Mn  Mn3  1  0.00000  0.49019  0.68638  1
 Mn  Mn4  1  0.00000  0.00866  0.79899  1
 P  P1  1  0.50000  0.19343  0.57314  1
 P  P2  1  0.00000  0.30088  0.07900  1
 P  P3  1  0.00000  0.80405  0.42600  1
