CIF file written using JARVIS-Tools package.
data_Si2P4Rh
_symmetry_space_group_name_H-M  'C2/m'
_cell_length_a       4.93203
_cell_length_b       4.93203
_cell_length_c       5.62445
_cell_angle_alpha    71.3958
_cell_angle_beta     71.3959
_cell_angle_gamma    96.5384

_symmetry_Int_Tables_number  12
_chemical_formula_structural  Si2P4Rh
_chemical_formula_sum  Si2P4Rh
_cell_volume  119.2954639832476
_cell_formula_units_Z  1
loop_
  _symmetry_equiv_pos_site_id
 _symmetry_equiv_pos_as_xyz
 1  'x, y, z'
loop_
 _atom_site_type_symbol
 _atom_site_label
 _atom_site_symmetry_multiplicity
 _atom_site_fract_x
 _atom_site_fract_y
 _atom_site_fract_z
 _atom_site_fract_occupancy
 P  P1  1  0.16112  0.71015  0.34508  1
 P  P2  1  0.28985  0.83888  0.65492  1
 P  P3  1  0.71015  0.16112  0.34508  1
 P  P4  1  0.83888  0.28985  0.65492  1
 Rh  Rh1  1  0.00000  0.00000  0.00000  1
 Si  Si1  1  0.58913  0.58913  0.13625  1
 Si  Si2  1  0.41087  0.41087  0.86375  1
