CIF file written using JARVIS-Tools package.
data_Na3AuO2
_symmetry_space_group_name_H-M  'P4_2/mnm'
_cell_length_a       9.72234
_cell_length_b       9.72234
_cell_length_c       4.58943
_cell_angle_alpha    90
_cell_angle_beta     90
_cell_angle_gamma    90

_symmetry_Int_Tables_number  136
_chemical_formula_structural  Na3AuO2
_chemical_formula_sum  Na2Au4O8
_cell_volume  433.81031953298185
_cell_formula_units_Z  4
loop_
  _symmetry_equiv_pos_site_id
 _symmetry_equiv_pos_as_xyz
 1  'x, y, z'
loop_
 _atom_site_type_symbol
 _atom_site_label
 _atom_site_symmetry_multiplicity
 _atom_site_fract_x
 _atom_site_fract_y
 _atom_site_fract_z
 _atom_site_fract_occupancy
 Au  Au1  1  0.33284  0.66716  0.50000  1
 Au  Au2  1  0.83284  0.83284  0.00000  1
 Au  Au3  1  0.16716  0.16716  0.00000  1
 Au  Au4  1  0.66716  0.33284  0.50000  1
 Na  Na1  1  0.65819  0.65819  0.50000  1
 Na  Na2  1  0.15133  0.51318  0.00000  1
 Na  Na3  1  0.98682  0.65133  0.50000  1
 Na  Na4  1  0.84867  0.48682  0.00000  1
 Na  Na5  1  0.65133  0.98682  0.50000  1
 Na  Na6  1  0.15819  0.84181  0.00000  1
 Na  Na7  1  0.51318  0.15133  0.00000  1
 Na  Na8  1  0.48682  0.84867  0.00000  1
 Na  Na9  1  0.84181  0.15819  0.00000  1
 Na  Na10  1  0.34181  0.34181  0.50000  1
 Na  Na11  1  0.01318  0.34867  0.50000  1
 Na  Na12  1  0.34867  0.01318  0.50000  1
 O  O1  1  0.98364  0.68981  0.00000  1
 O  O2  1  0.01636  0.31019  0.00000  1
 O  O3  1  0.31019  0.01636  0.00000  1
 O  O4  1  0.68981  0.98364  0.00000  1
 O  O5  1  0.48364  0.81019  0.50000  1
 O  O6  1  0.51636  0.18981  0.50000  1
 O  O7  1  0.18981  0.51636  0.50000  1
 O  O8  1  0.81019  0.48364  0.50000  1
