CIF file written using JARVIS-Tools package.
data_Mo3O8
_symmetry_space_group_name_H-M  'R-3m'
_cell_length_a       9.82912
_cell_length_b       9.82912
_cell_length_c       9.82912
_cell_angle_alpha    35.1488
_cell_angle_beta     35.1488
_cell_angle_gamma    35.1488

_symmetry_Int_Tables_number  166
_chemical_formula_structural  Mo3O8
_chemical_formula_sum  Mo6O6
_cell_volume  281.0894414846681
_cell_formula_units_Z  2
loop_
  _symmetry_equiv_pos_site_id
 _symmetry_equiv_pos_as_xyz
 1  'x, y, z'
loop_
 _atom_site_type_symbol
 _atom_site_label
 _atom_site_symmetry_multiplicity
 _atom_site_fract_x
 _atom_site_fract_y
 _atom_site_fract_z
 _atom_site_fract_occupancy
 Mo  Mo1  1  0.25000  0.75001  0.25000  1
 Mo  Mo2  1  0.75000  0.75000  0.24999  1
 Mo  Mo3  1  0.25000  0.25000  0.75001  1
 Mo  Mo4  1  0.75000  0.24999  0.75000  1
 Mo  Mo5  1  0.75001  0.25000  0.25000  1
 Mo  Mo6  1  0.24999  0.75000  0.75000  1
 O  O1  1  0.89447  0.35038  0.89447  1
 O  O2  1  0.60554  0.14963  0.60554  1
 O  O3  1  0.85037  0.39446  0.39446  1
 O  O4  1  0.39446  0.39446  0.85037  1
 O  O5  1  0.60554  0.60554  0.14963  1
 O  O6  1  0.10553  0.64962  0.10553  1
 O  O7  1  0.35038  0.89447  0.89447  1
 O  O8  1  0.12344  0.12344  0.12344  1
 O  O9  1  0.64962  0.10553  0.10553  1
 O  O10  1  0.39446  0.85037  0.39446  1
 O  O11  1  0.62343  0.62343  0.62343  1
 O  O12  1  0.37657  0.37657  0.37657  1
 O  O13  1  0.89447  0.89447  0.35038  1
 O  O14  1  0.87656  0.87656  0.87656  1
 O  O15  1  0.14963  0.60554  0.60554  1
 O  O16  1  0.10553  0.10553  0.64962  1
