CIF file written using JARVIS-Tools package.
data_Na2PdCl4
_symmetry_space_group_name_H-M  'P4/ncc'
_cell_length_a       9.54274
_cell_length_b       9.54274
_cell_length_c       7.43086
_cell_angle_alpha    90
_cell_angle_beta     90
_cell_angle_gamma    90

_symmetry_Int_Tables_number  130
_chemical_formula_structural  Na2PdCl4
_chemical_formula_sum  Na8Pd4Cl6
_cell_volume  676.6838598714675
_cell_formula_units_Z  4
loop_
  _symmetry_equiv_pos_site_id
 _symmetry_equiv_pos_as_xyz
 1  'x, y, z'
loop_
 _atom_site_type_symbol
 _atom_site_label
 _atom_site_symmetry_multiplicity
 _atom_site_fract_x
 _atom_site_fract_y
 _atom_site_fract_z
 _atom_site_fract_occupancy
 Cl  Cl1  1  0.94542  0.73873  0.93009  1
 Cl  Cl2  1  0.44542  0.76127  0.56991  1
 Cl  Cl3  1  0.76127  0.44542  0.93009  1
 Cl  Cl4  1  0.73873  0.94542  0.56991  1
 Cl  Cl5  1  0.73873  0.05458  0.06991  1
 Cl  Cl6  1  0.55458  0.76127  0.06991  1
 Cl  Cl7  1  0.26127  0.94542  0.06991  1
 Cl  Cl8  1  0.26127  0.05458  0.56991  1
 Cl  Cl9  1  0.44542  0.23873  0.06991  1
 Cl  Cl10  1  0.94542  0.26127  0.43009  1
 Cl  Cl11  1  0.05458  0.73873  0.43009  1
 Cl  Cl12  1  0.05458  0.26127  0.93009  1
 Cl  Cl13  1  0.23873  0.44542  0.43009  1
 Cl  Cl14  1  0.55458  0.23873  0.56991  1
 Cl  Cl15  1  0.23873  0.55458  0.93009  1
 Cl  Cl16  1  0.76127  0.55458  0.43009  1
 Na  Na1  1  0.80681  0.19319  0.75000  1
 Na  Na2  1  0.69319  0.69319  0.75000  1
 Na  Na3  1  0.30681  0.30681  0.75000  1
 Na  Na4  1  0.19319  0.80681  0.75000  1
 Na  Na5  1  0.69319  0.30681  0.25000  1
 Na  Na6  1  0.80681  0.80681  0.25000  1
 Na  Na7  1  0.19319  0.19319  0.25000  1
 Na  Na8  1  0.30681  0.69319  0.25000  1
 Pd  Pd1  1  0.50000  0.00000  0.06532  1
 Pd  Pd2  1  0.50000  0.00000  0.56532  1
 Pd  Pd3  1  0.00000  0.50000  0.93468  1
 Pd  Pd4  1  0.00000  0.50000  0.43468  1
