CIF file written using JARVIS-Tools package.
data_Nd2Mn2CuSi3
_symmetry_space_group_name_H-M  'Amm2'
_cell_length_a       9.16979
_cell_length_b       9.16978
_cell_length_c       3.9721
_cell_angle_alpha    90
_cell_angle_beta     90
_cell_angle_gamma    154.03

_symmetry_Int_Tables_number  38
_chemical_formula_structural  Nd2Mn2CuSi3
_chemical_formula_sum  Nd2Mn2CuSi3
_cell_volume  146.25662149075328
_cell_formula_units_Z  1
loop_
  _symmetry_equiv_pos_site_id
 _symmetry_equiv_pos_as_xyz
 1  'x, y, z'
loop_
 _atom_site_type_symbol
 _atom_site_label
 _atom_site_symmetry_multiplicity
 _atom_site_fract_x
 _atom_site_fract_y
 _atom_site_fract_z
 _atom_site_fract_occupancy
 Cu  Cu1  1  0.66827  0.33173  0.00000  1
 Mn  Mn1  1  0.25141  0.74859  0.00000  1
 Mn  Mn2  1  0.75255  0.24745  0.50000  1
 Nd  Nd1  1  0.89978  0.10022  0.00000  1
 Nd  Nd2  1  0.10228  0.89772  0.50000  1
 Si  Si1  1  0.53738  0.46262  0.00000  1
 Si  Si2  1  0.46371  0.53629  0.50000  1
 Si  Si3  1  0.32461  0.67539  0.50000  1
