CIF file written using JARVIS-Tools package.
data_Ag7NO6
_symmetry_space_group_name_H-M  'F-43m'
_cell_length_a       6.59724
_cell_length_b       6.59725
_cell_length_c       6.59724
_cell_angle_alpha    60.0002
_cell_angle_beta     60.0002
_cell_angle_gamma    60.0002

_symmetry_Int_Tables_number  216
_chemical_formula_structural  Ag7NO6
_chemical_formula_sum  Ag7NO6
_cell_volume  203.03677698373696
_cell_formula_units_Z  1
loop_
  _symmetry_equiv_pos_site_id
 _symmetry_equiv_pos_as_xyz
 1  'x, y, z'
loop_
 _atom_site_type_symbol
 _atom_site_label
 _atom_site_symmetry_multiplicity
 _atom_site_fract_x
 _atom_site_fract_y
 _atom_site_fract_z
 _atom_site_fract_occupancy
 Ag  Ag1  1  0.50000  0.50000  0.50000  1
 Ag  Ag2  1  0.50525  0.99475  0.99475  1
 Ag  Ag3  1  0.50525  0.50525  0.99475  1
 Ag  Ag4  1  0.50525  0.99475  0.50525  1
 Ag  Ag5  1  0.99475  0.50525  0.50525  1
 Ag  Ag6  1  0.99475  0.99475  0.50525  1
 Ag  Ag7  1  0.99475  0.50525  0.99475  1
 N  N1  1  0.00000  -0.00000  0.00000  1
 O  O1  1  0.25000  0.25000  0.25000  1
 O  O2  1  0.75000  0.75000  0.75000  1
 O  O3  1  0.74370  0.08544  0.08544  1
 O  O4  1  0.08543  0.08544  0.74370  1
 O  O5  1  0.08544  0.74370  0.08543  1
 O  O6  1  0.08544  0.08544  0.08544  1
