CIF file written using JARVIS-Tools package.
data_K2PtSe2
_symmetry_space_group_name_H-M  'Immm'
_cell_length_a       3.79221
_cell_length_b       6.36152
_cell_length_c       6.36151
_cell_angle_alpha    70.4757
_cell_angle_beta     72.6589
_cell_angle_gamma    72.659

_symmetry_Int_Tables_number  71
_chemical_formula_structural  K2PtSe2
_chemical_formula_sum  K2PtSe2
_cell_volume  134.66711641513066
_cell_formula_units_Z  1
loop_
  _symmetry_equiv_pos_site_id
 _symmetry_equiv_pos_as_xyz
 1  'x, y, z'
loop_
 _atom_site_type_symbol
 _atom_site_label
 _atom_site_symmetry_multiplicity
 _atom_site_fract_x
 _atom_site_fract_y
 _atom_site_fract_z
 _atom_site_fract_occupancy
 K  K1  1  0.20032  0.29968  0.29968  1
 K  K2  1  0.79968  0.70032  0.70032  1
 Pt  Pt1  1  0.00000  0.00000  0.00000  1
 Se  Se1  1  0.50000  0.77507  0.22493  1
 Se  Se2  1  0.50000  0.22493  0.77507  1
