CIF file written using JARVIS-Tools package.
data_RbCaSb
_symmetry_space_group_name_H-M  'P4/nmm'
_cell_length_a       5.34952
_cell_length_b       5.34952
_cell_length_c       8.44508
_cell_angle_alpha    90
_cell_angle_beta     90
_cell_angle_gamma    90

_symmetry_Int_Tables_number  129
_chemical_formula_structural  RbCaSb
_chemical_formula_sum  Rb2Ca2Sb2
_cell_volume  241.67588952619278
_cell_formula_units_Z  2
loop_
  _symmetry_equiv_pos_site_id
 _symmetry_equiv_pos_as_xyz
 1  'x, y, z'
loop_
 _atom_site_type_symbol
 _atom_site_label
 _atom_site_symmetry_multiplicity
 _atom_site_fract_x
 _atom_site_fract_y
 _atom_site_fract_z
 _atom_site_fract_occupancy
 Ca  Ca1  1  0.00000  0.00000  0.00000  1
 Ca  Ca2  1  0.50000  0.50000  0.00000  1
 Rb  Rb1  1  0.00000  0.50000  0.63525  1
 Rb  Rb2  1  0.50000  0.00000  0.36475  1
 Sb  Sb1  1  0.50000  0.00000  0.80211  1
 Sb  Sb2  1  0.00000  0.50000  0.19789  1
