CIF file written using JARVIS-Tools package.
data_TlIO4
_symmetry_space_group_name_H-M  'I4_1/a'
_cell_length_a       5.89143
_cell_length_b       5.89143
_cell_length_c       7.60478
_cell_angle_alpha    112.79
_cell_angle_beta     112.79
_cell_angle_gamma    89.9999

_symmetry_Int_Tables_number  88
_chemical_formula_structural  TlIO4
_chemical_formula_sum  Tl2I2O8
_cell_volume  220.8267347044167
_cell_formula_units_Z  2
loop_
  _symmetry_equiv_pos_site_id
 _symmetry_equiv_pos_as_xyz
 1  'x, y, z'
loop_
 _atom_site_type_symbol
 _atom_site_label
 _atom_site_symmetry_multiplicity
 _atom_site_fract_x
 _atom_site_fract_y
 _atom_site_fract_z
 _atom_site_fract_occupancy
 I  I1  1  0.87500  0.62500  0.75000  1
 I  I2  1  0.12500  0.37500  0.25000  1
 O  O1  1  0.92779  0.32917  0.59026  1
 O  O2  1  0.26109  0.42779  0.09026  1
 O  O3  1  0.82917  0.16246  0.09026  1
 O  O4  1  0.66246  0.76109  0.59026  1
 O  O5  1  0.33754  0.23891  0.40974  1
 O  O6  1  0.17083  0.83754  0.90974  1
 O  O7  1  0.73891  0.57221  0.90974  1
 O  O8  1  0.07221  0.67083  0.40974  1
 Tl  Tl1  1  0.37500  0.12500  0.75000  1
 Tl  Tl2  1  0.62500  0.87500  0.25000  1
