CIF file written using JARVIS-Tools package.
data_K2TeSe3
_symmetry_space_group_name_H-M  'P2_1/c'
_cell_length_a       10.0563
_cell_length_b       6.57082
_cell_length_c       13.1052
_cell_angle_alpha    90
_cell_angle_beta     105.574
_cell_angle_gamma    90

_symmetry_Int_Tables_number  14
_chemical_formula_structural  K2TeSe3
_chemical_formula_sum  K8Te4Se2
_cell_volume  834.1736064235874
_cell_formula_units_Z  4
loop_
  _symmetry_equiv_pos_site_id
 _symmetry_equiv_pos_as_xyz
 1  'x, y, z'
loop_
 _atom_site_type_symbol
 _atom_site_label
 _atom_site_symmetry_multiplicity
 _atom_site_fract_x
 _atom_site_fract_y
 _atom_site_fract_z
 _atom_site_fract_occupancy
 K  K1  1  0.49002  0.25465  0.37445  1
 K  K2  1  0.50998  0.75465  0.12555  1
 K  K3  1  0.50998  0.74535  0.62555  1
 K  K4  1  0.49002  0.24535  0.87445  1
 K  K5  1  0.83402  0.76035  0.45154  1
 K  K6  1  0.16598  0.26035  0.04846  1
 K  K7  1  0.16598  0.23965  0.54846  1
 K  K8  1  0.83402  0.73965  0.95154  1
 Se  Se1  1  0.15299  0.15676  0.29543  1
 Se  Se2  1  0.17516  0.73939  0.51770  1
 Se  Se3  1  0.82484  0.23939  0.98230  1
 Se  Se4  1  0.82484  0.26061  0.48230  1
 Se  Se5  1  0.17516  0.76061  0.01770  1
 Se  Se6  1  0.47229  0.74335  0.86785  1
 Se  Se7  1  0.52771  0.24335  0.63215  1
 Se  Se8  1  0.15299  0.34324  0.79543  1
 Se  Se9  1  0.47229  0.75665  0.36785  1
 Se  Se10  1  0.84701  0.84324  0.70457  1
 Se  Se11  1  0.84701  0.65676  0.20457  1
 Se  Se12  1  0.52771  0.25665  0.13215  1
 Te  Te1  1  0.20977  0.78199  0.33348  1
 Te  Te2  1  0.20977  0.71801  0.83348  1
 Te  Te3  1  0.79023  0.21801  0.66652  1
 Te  Te4  1  0.79023  0.28199  0.16652  1
