CIF file written using JARVIS-Tools package.
data_TaAgF6
_symmetry_space_group_name_H-M  'P4_2/mcm'
_cell_length_a       5.0357
_cell_length_b       5.0357
_cell_length_c       9.4439
_cell_angle_alpha    90
_cell_angle_beta     90
_cell_angle_gamma    90

_symmetry_Int_Tables_number  132
_chemical_formula_structural  TaAgF6
_chemical_formula_sum  Ta2Ag2F2
_cell_volume  239.4808925256632
_cell_formula_units_Z  2
loop_
  _symmetry_equiv_pos_site_id
 _symmetry_equiv_pos_as_xyz
 1  'x, y, z'
loop_
 _atom_site_type_symbol
 _atom_site_label
 _atom_site_symmetry_multiplicity
 _atom_site_fract_x
 _atom_site_fract_y
 _atom_site_fract_z
 _atom_site_fract_occupancy
 Ag  Ag1  1  0.50000  0.50000  0.25000  1
 Ag  Ag2  1  0.50000  0.50000  0.75000  1
 F  F1  1  0.80724  0.19276  0.85676  1
 F  F2  1  0.19276  0.80724  0.85676  1
 F  F3  1  0.19276  0.80724  0.14324  1
 F  F4  1  0.19276  0.19276  0.35676  1
 F  F5  1  0.72890  0.72890  0.00000  1
 F  F6  1  0.27110  0.72890  0.50000  1
 F  F7  1  0.72890  0.27110  0.50000  1
 F  F8  1  0.27110  0.27110  0.00000  1
 F  F9  1  0.80724  0.19276  0.14324  1
 F  F10  1  0.80724  0.80724  0.64324  1
 F  F11  1  0.19276  0.19276  0.64324  1
 F  F12  1  0.80724  0.80724  0.35676  1
 Ta  Ta1  1  0.00000  0.00000  0.00000  1
 Ta  Ta2  1  0.00000  0.00000  0.50000  1
