CIF file written using JARVIS-Tools package.
data_YbMn2As2
_symmetry_space_group_name_H-M  'P-3m1'
_cell_length_a       3.96428
_cell_length_b       3.96428
_cell_length_c       6.8913
_cell_angle_alpha    90
_cell_angle_beta     90
_cell_angle_gamma    120

_symmetry_Int_Tables_number  164
_chemical_formula_structural  YbMn2As2
_chemical_formula_sum  YbMn2As2
_cell_volume  93.79081530299864
_cell_formula_units_Z  1
loop_
  _symmetry_equiv_pos_site_id
 _symmetry_equiv_pos_as_xyz
 1  'x, y, z'
loop_
 _atom_site_type_symbol
 _atom_site_label
 _atom_site_symmetry_multiplicity
 _atom_site_fract_x
 _atom_site_fract_y
 _atom_site_fract_z
 _atom_site_fract_occupancy
 As  As1  1  0.66667  0.33333  0.73388  1
 As  As2  1  0.33333  0.66667  0.26612  1
 Mn  Mn1  1  0.66667  0.33333  0.38371  1
 Mn  Mn2  1  0.33333  0.66667  0.61629  1
 Yb  Yb1  1  0.00000  0.00000  0.00000  1
