CIF file written using JARVIS-Tools package.
data_Ba3Cr2O8
_symmetry_space_group_name_H-M  'R-3m'
_cell_length_a       7.93
_cell_length_b       7.93
_cell_length_c       7.93
_cell_angle_alpha    42.7115
_cell_angle_beta     42.7115
_cell_angle_gamma    42.7116

_symmetry_Int_Tables_number  166
_chemical_formula_structural  Ba3Cr2O8
_chemical_formula_sum  Ba3Cr2O8
_cell_volume  207.84439879233503
_cell_formula_units_Z  1
loop_
  _symmetry_equiv_pos_site_id
 _symmetry_equiv_pos_as_xyz
 1  'x, y, z'
loop_
 _atom_site_type_symbol
 _atom_site_label
 _atom_site_symmetry_multiplicity
 _atom_site_fract_x
 _atom_site_fract_y
 _atom_site_fract_z
 _atom_site_fract_occupancy
 Ba  Ba1  1  0.79389  0.79389  0.79389  1
 Ba  Ba2  1  0.20611  0.20611  0.20611  1
 Ba  Ba3  1  0.00000  0.00000  0.00000  1
 Cr  Cr1  1  0.59260  0.59260  0.59260  1
 Cr  Cr2  1  0.40740  0.40740  0.40740  1
 O  O1  1  0.67139  0.67139  0.67139  1
 O  O2  1  0.32861  0.32861  0.32861  1
 O  O3  1  0.27346  0.27346  0.75772  1
 O  O4  1  0.27346  0.75772  0.27346  1
 O  O5  1  0.75772  0.27346  0.27346  1
 O  O6  1  0.72654  0.24228  0.72654  1
 O  O7  1  0.72654  0.72654  0.24228  1
 O  O8  1  0.24228  0.72654  0.72654  1
