CIF file written using JARVIS-Tools package.
data_GaHO2
_symmetry_space_group_name_H-M  'Fdd2'
_cell_length_a       5.61577
_cell_length_b       5.71996
_cell_length_c       6.45078
_cell_angle_alpha    54.5573
_cell_angle_beta     56.0794
_cell_angle_gamma    69.3632

_symmetry_Int_Tables_number  43
_chemical_formula_structural  GaHO2
_chemical_formula_sum  Ga4H4O8
_cell_volume  139.95694252844856
_cell_formula_units_Z  4
loop_
  _symmetry_equiv_pos_site_id
 _symmetry_equiv_pos_as_xyz
 1  'x, y, z'
loop_
 _atom_site_type_symbol
 _atom_site_label
 _atom_site_symmetry_multiplicity
 _atom_site_fract_x
 _atom_site_fract_y
 _atom_site_fract_z
 _atom_site_fract_occupancy
 Ga  Ga1  1  0.09736  0.09564  0.59673  1
 Ga  Ga2  1  0.71027  0.59673  0.09564  1
 Ga  Ga3  1  0.90436  0.90264  0.28973  1
 Ga  Ga4  1  0.40327  0.28973  0.90264  1
 H  H1  1  0.55027  0.00921  0.64264  1
 H  H2  1  0.35736  0.70212  0.44973  1
 H  H3  1  -0.00921  0.44973  0.70212  1
 H  H4  1  0.29788  0.64264  0.00921  1
 O  O1  1  0.02726  0.83644  -0.00888  1
 O  O2  1  0.64517  -0.00888  0.83644  1
 O  O3  1  0.00888  0.35483  0.97274  1
 O  O4  1  0.16356  0.97274  0.35483  1
 O  O5  1  0.52702  0.02195  0.49008  1
 O  O6  1  0.50992  0.53906  0.47298  1
 O  O7  1  -0.02195  0.47298  0.53906  1
 O  O8  1  0.46094  0.49008  0.02195  1
