CIF file written using JARVIS-Tools package.
data_In2NiS4
_symmetry_space_group_name_H-M  'Imma'
_cell_length_a       7.42964
_cell_length_b       7.42964
_cell_length_c       7.65007
_cell_angle_alpha    59.0136
_cell_angle_beta     59.0136
_cell_angle_gamma    59.7204

_symmetry_Int_Tables_number  74
_chemical_formula_structural  In2NiS4
_chemical_formula_sum  In4Ni2S8
_cell_volume  293.46100015509114
_cell_formula_units_Z  2
loop_
  _symmetry_equiv_pos_site_id
 _symmetry_equiv_pos_as_xyz
 1  'x, y, z'
loop_
 _atom_site_type_symbol
 _atom_site_label
 _atom_site_symmetry_multiplicity
 _atom_site_fract_x
 _atom_site_fract_y
 _atom_site_fract_z
 _atom_site_fract_occupancy
 In  In1  1  0.13809  0.13809  0.11191  1
 In  In2  1  0.50000  0.50000  -0.00000  1
 In  In3  1  0.50000  0.50000  0.50000  1
 In  In4  1  0.86191  0.86191  0.88809  1
 Ni  Ni1  1  0.00000  0.50000  0.50000  1
 Ni  Ni2  1  0.50000  -0.00000  0.50000  1
 S  S1  1  0.25032  0.25032  0.29498  1
 S  S2  1  0.25032  0.25032  0.70439  1
 S  S3  1  0.23746  0.71950  0.27152  1
 S  S4  1  0.71950  0.23746  0.27152  1
 S  S5  1  0.28050  0.76254  0.72848  1
 S  S6  1  0.76254  0.28050  0.72848  1
 S  S7  1  0.74968  0.74968  0.29561  1
 S  S8  1  0.74968  0.74968  0.70502  1
