CIF file written using JARVIS-Tools package.
data_MgH2C3O4
_symmetry_space_group_name_H-M  'P1'
_cell_length_a       4.97619
_cell_length_b       6.90489
_cell_length_c       6.04716
_cell_angle_alpha    93.2479
_cell_angle_beta     69.5936
_cell_angle_gamma    69.2473

_symmetry_Int_Tables_number  1
_chemical_formula_structural  MgH2C3O4
_chemical_formula_sum  Mg2H4C6O8
_cell_volume  178.21489145111804
_cell_formula_units_Z  2
loop_
  _symmetry_equiv_pos_site_id
 _symmetry_equiv_pos_as_xyz
 1  'x, y, z'
loop_
 _atom_site_type_symbol
 _atom_site_label
 _atom_site_symmetry_multiplicity
 _atom_site_fract_x
 _atom_site_fract_y
 _atom_site_fract_z
 _atom_site_fract_occupancy
 C  C1  1  0.80978  0.44704  0.70927  1
 C  C2  1  0.05623  0.77463  0.26083  1
 C  C3  1  0.82762  0.65197  0.78260  1
 C  C4  1  0.29434  0.77739  0.31175  1
 C  C5  1  0.58817  0.85708  0.77972  1
 C  C6  1  0.18504  0.38056  0.19780  1
 H  H1  1  0.30787  0.92971  0.33960  1
 H  H2  1  0.06465  0.64489  0.68466  1
 H  H3  1  0.46964  0.63836  0.32764  1
 H  H4  1  0.80557  0.65885  -0.02835  1
 Mg  Mg1  1  0.52389  0.19180  0.52697  1
 Mg  Mg2  1  0.90051  0.10308  0.96765  1
 O  O1  1  0.44584  0.32868  0.22399  1
 O  O2  1  0.00203  0.58831  0.22189  1
 O  O3  1  0.58328  0.43537  0.67126  1
 O  O4  1  0.07041  0.25479  0.15871  1
 O  O5  1  0.32892  0.87206  0.78304  1
 O  O6  1  0.82560  0.94063  0.24811  1
 O  O7  1  0.66569  0.01882  0.77336  1
 O  O8  1  0.04603  0.27779  0.69582  1
