CIF file written using JARVIS-Tools package.
data_CeSi2Ir2
_symmetry_space_group_name_H-M  'I4/mmm'
_cell_length_a       4.11365
_cell_length_b       4.11366
_cell_length_c       5.8349
_cell_angle_alpha    110.641
_cell_angle_beta     110.641
_cell_angle_gamma    90

_symmetry_Int_Tables_number  139
_chemical_formula_structural  CeSi2Ir2
_chemical_formula_sum  CeSi2Ir2
_cell_volume  85.59488716785663
_cell_formula_units_Z  1
loop_
  _symmetry_equiv_pos_site_id
 _symmetry_equiv_pos_as_xyz
 1  'x, y, z'
loop_
 _atom_site_type_symbol
 _atom_site_label
 _atom_site_symmetry_multiplicity
 _atom_site_fract_x
 _atom_site_fract_y
 _atom_site_fract_z
 _atom_site_fract_occupancy
 Ce  Ce1  1  0.00000  0.00000  0.00000  1
 Ir  Ir1  1  0.75000  0.25000  0.50000  1
 Ir  Ir2  1  0.25000  0.75000  0.50000  1
 Si  Si1  1  0.62145  0.62145  0.24290  1
 Si  Si2  1  0.37855  0.37855  0.75710  1
