CIF file written using JARVIS-Tools package.
data_DyGaO3
_symmetry_space_group_name_H-M  'Pnma'
_cell_length_a       5.28408
_cell_length_b       5.594
_cell_length_c       7.59851
_cell_angle_alpha    90
_cell_angle_beta     90
_cell_angle_gamma    90

_symmetry_Int_Tables_number  62
_chemical_formula_structural  DyGaO3
_chemical_formula_sum  Dy4Ga4O2
_cell_volume  224.60531877207487
_cell_formula_units_Z  4
loop_
  _symmetry_equiv_pos_site_id
 _symmetry_equiv_pos_as_xyz
 1  'x, y, z'
loop_
 _atom_site_type_symbol
 _atom_site_label
 _atom_site_symmetry_multiplicity
 _atom_site_fract_x
 _atom_site_fract_y
 _atom_site_fract_z
 _atom_site_fract_occupancy
 Dy  Dy1  1  0.01921  0.06946  0.99092  1
 Dy  Dy2  1  0.48079  0.56946  0.99092  1
 Dy  Dy3  1  0.51921  0.43054  0.49092  1
 Dy  Dy4  1  0.98079  0.93054  0.49092  1
 Ga  Ga1  1  0.00000  0.50000  0.24093  1
 Ga  Ga2  1  0.50000  -0.00000  0.24093  1
 Ga  Ga3  1  0.50000  0.00000  0.74093  1
 Ga  Ga4  1  -0.00000  0.50000  0.74093  1
 O  O1  1  0.10983  0.53667  0.49093  1
 O  O2  1  0.80668  0.19558  0.68503  1
 O  O3  1  0.19332  0.80442  0.79683  1
 O  O4  1  0.30668  0.30442  0.79683  1
 O  O5  1  0.19332  0.80442  0.18503  1
 O  O6  1  0.69332  0.69558  0.29683  1
 O  O7  1  0.60983  0.96333  0.99093  1
 O  O8  1  0.69332  0.69558  0.68503  1
 O  O9  1  0.30668  0.30442  0.18503  1
 O  O10  1  0.80668  0.19558  0.29683  1
 O  O11  1  0.39017  0.03667  0.49093  1
 O  O12  1  0.89017  0.46333  0.99093  1
