CIF file written using JARVIS-Tools package.
data_Rb2CdO2
_symmetry_space_group_name_H-M  'Pbcn'
_cell_length_a       6.35319
_cell_length_b       6.39091
_cell_length_c       10.5652
_cell_angle_alpha    90
_cell_angle_beta     90
_cell_angle_gamma    90

_symmetry_Int_Tables_number  60
_chemical_formula_structural  Rb2CdO2
_chemical_formula_sum  Rb8Cd4O8
_cell_volume  428.9743457831421
_cell_formula_units_Z  4
loop_
  _symmetry_equiv_pos_site_id
 _symmetry_equiv_pos_as_xyz
 1  'x, y, z'
loop_
 _atom_site_type_symbol
 _atom_site_label
 _atom_site_symmetry_multiplicity
 _atom_site_fract_x
 _atom_site_fract_y
 _atom_site_fract_z
 _atom_site_fract_occupancy
 Cd  Cd1  1  0.75000  0.95974  0.00000  1
 Cd  Cd2  1  0.75000  0.45974  0.50000  1
 Cd  Cd3  1  0.25000  0.04026  0.00000  1
 Cd  Cd4  1  0.25000  0.54026  0.50000  1
 O  O1  1  0.98096  0.19066  0.90355  1
 O  O2  1  0.48096  0.80934  0.90355  1
 O  O3  1  0.48096  0.30934  0.59645  1
 O  O4  1  0.51904  0.69066  0.40355  1
 O  O5  1  0.01904  0.80934  0.09645  1
 O  O6  1  0.51904  0.19066  0.09645  1
 O  O7  1  0.98096  0.69066  0.59645  1
 O  O8  1  0.01904  0.30934  0.40355  1
 Rb  Rb1  1  0.10336  0.10772  0.65578  1
 Rb  Rb2  1  0.89664  0.39228  0.15578  1
 Rb  Rb3  1  0.39664  0.60772  0.15578  1
 Rb  Rb4  1  0.60336  0.89228  0.65578  1
 Rb  Rb5  1  0.10336  0.60772  0.84422  1
 Rb  Rb6  1  0.89664  0.89228  0.34422  1
 Rb  Rb7  1  0.60336  0.39228  0.84422  1
 Rb  Rb8  1  0.39664  0.10772  0.34422  1
