CIF file written using JARVIS-Tools package.
data_ZnCoO3
_symmetry_space_group_name_H-M  'R-3'
_cell_length_a       5.37127
_cell_length_b       5.37127
_cell_length_c       5.37127
_cell_angle_alpha    54.8145
_cell_angle_beta     54.8145
_cell_angle_gamma    54.8145

_symmetry_Int_Tables_number  148
_chemical_formula_structural  ZnCoO3
_chemical_formula_sum  Zn2Co2O6
_cell_volume  96.34586055544203
_cell_formula_units_Z  2
loop_
  _symmetry_equiv_pos_site_id
 _symmetry_equiv_pos_as_xyz
 1  'x, y, z'
loop_
 _atom_site_type_symbol
 _atom_site_label
 _atom_site_symmetry_multiplicity
 _atom_site_fract_x
 _atom_site_fract_y
 _atom_site_fract_z
 _atom_site_fract_occupancy
 Co  Co1  1  0.16076  0.16076  0.16076  1
 Co  Co2  1  0.83924  0.83924  0.83924  1
 O  O1  1  0.43741  0.78781  0.04483  1
 O  O2  1  0.78781  0.04483  0.43741  1
 O  O3  1  0.04483  0.43741  0.78781  1
 O  O4  1  0.95517  0.56259  0.21219  1
 O  O5  1  0.21219  0.95517  0.56259  1
 O  O6  1  0.56259  0.21219  0.95517  1
 Zn  Zn1  1  0.36844  0.36844  0.36844  1
 Zn  Zn2  1  0.63156  0.63156  0.63156  1
