CIF file written using JARVIS-Tools package.
data_FeF3
_symmetry_space_group_name_H-M  'P321'
_cell_length_a       4.82138
_cell_length_b       4.82138
_cell_length_c       6.71601
_cell_angle_alpha    90
_cell_angle_beta     90
_cell_angle_gamma    120

_symmetry_Int_Tables_number  150
_chemical_formula_structural  FeF3
_chemical_formula_sum  Fe3F9
_cell_volume  135.2025819272218
_cell_formula_units_Z  3
loop_
  _symmetry_equiv_pos_site_id
 _symmetry_equiv_pos_as_xyz
 1  'x, y, z'
loop_
 _atom_site_type_symbol
 _atom_site_label
 _atom_site_symmetry_multiplicity
 _atom_site_fract_x
 _atom_site_fract_y
 _atom_site_fract_z
 _atom_site_fract_occupancy
 F  F1  1  0.66651  0.94339  0.82362  1
 F  F2  1  0.05661  0.72312  0.82362  1
 F  F3  1  0.27688  0.33349  0.82362  1
 F  F4  1  0.62807  0.62807  0.50000  1
 F  F5  1  0.37193  0.00000  0.50000  1
 F  F6  1  0.00000  0.37193  0.50000  1
 F  F7  1  0.94339  0.66651  0.17638  1
 F  F8  1  0.33349  0.27688  0.17638  1
 F  F9  1  0.72312  0.05661  0.17638  1
 Fe  Fe1  1  0.66667  0.33333  0.33959  1
 Fe  Fe2  1  0.33333  0.66667  0.66041  1
 Fe  Fe3  1  0.00000  0.00000  0.00000  1
