CIF file written using JARVIS-Tools package.
data_YSe2
_symmetry_space_group_name_H-M  'Immm'
_cell_length_a       7.5809
_cell_length_b       7.58089
_cell_length_c       7.58089
_cell_angle_alpha    149.436
_cell_angle_beta     137.616
_cell_angle_gamma    53.1507

_symmetry_Int_Tables_number  71
_chemical_formula_structural  YSe2
_chemical_formula_sum  Y2Se4
_cell_volume  148.49644404365947
_cell_formula_units_Z  2
loop_
  _symmetry_equiv_pos_site_id
 _symmetry_equiv_pos_as_xyz
 1  'x, y, z'
loop_
 _atom_site_type_symbol
 _atom_site_label
 _atom_site_symmetry_multiplicity
 _atom_site_fract_x
 _atom_site_fract_y
 _atom_site_fract_z
 _atom_site_fract_occupancy
 Se  Se1  1  0.71137  0.21137  0.50000  1
 Se  Se2  1  0.28863  0.78863  0.50000  1
 Se  Se3  1  0.75306  0.50000  0.25306  1
 Se  Se4  1  0.24694  0.50000  0.74694  1
 Y  Y1  1  0.85906  0.85906  0.00000  1
 Y  Y2  1  0.14094  0.14094  -0.00000  1
