CIF file written using JARVIS-Tools package.
data_Sr2GaSi
_symmetry_space_group_name_H-M  'Amm2'
_cell_length_a       6.30194
_cell_length_b       6.30194
_cell_length_c       4.24243
_cell_angle_alpha    90
_cell_angle_beta     90
_cell_angle_gamma    136.174

_symmetry_Int_Tables_number  38
_chemical_formula_structural  Sr2GaSi
_chemical_formula_sum  Sr2GaSi
_cell_volume  116.6720513672107
_cell_formula_units_Z  1
loop_
  _symmetry_equiv_pos_site_id
 _symmetry_equiv_pos_as_xyz
 1  'x, y, z'
loop_
 _atom_site_type_symbol
 _atom_site_label
 _atom_site_symmetry_multiplicity
 _atom_site_fract_x
 _atom_site_fract_y
 _atom_site_fract_z
 _atom_site_fract_occupancy
 Ga  Ga1  1  0.06412  0.93588  0.50000  1
 Si  Si1  1  0.93389  0.06611  0.00000  1
 Sr  Sr1  1  0.36046  0.63954  0.50000  1
 Sr  Sr2  1  0.64153  0.35847  0.00000  1
