CIF file written using JARVIS-Tools package.
data_Ca2PrO4
_symmetry_space_group_name_H-M  'Pbam'
_cell_length_a       3.61485
_cell_length_b       5.95026
_cell_length_c       9.90225
_cell_angle_alpha    90
_cell_angle_beta     90
_cell_angle_gamma    90

_symmetry_Int_Tables_number  55
_chemical_formula_structural  Ca2PrO4
_chemical_formula_sum  Ca4Pr2O8
_cell_volume  212.99031827614996
_cell_formula_units_Z  2
loop_
  _symmetry_equiv_pos_site_id
 _symmetry_equiv_pos_as_xyz
 1  'x, y, z'
loop_
 _atom_site_type_symbol
 _atom_site_label
 _atom_site_symmetry_multiplicity
 _atom_site_fract_x
 _atom_site_fract_y
 _atom_site_fract_z
 _atom_site_fract_occupancy
 Ca  Ca1  1  0.50000  0.05823  0.32472  1
 Ca  Ca2  1  0.50000  0.44177  0.82472  1
 Ca  Ca3  1  0.50000  0.55823  0.17528  1
 Ca  Ca4  1  0.50000  0.94177  0.67528  1
 O  O1  1  0.00000  0.16495  0.78330  1
 O  O2  1  0.50000  0.25267  0.03770  1
 O  O3  1  0.50000  0.24733  0.53770  1
 O  O4  1  0.00000  0.33505  0.28330  1
 O  O5  1  0.00000  0.66495  0.71670  1
 O  O6  1  0.50000  0.75267  0.46230  1
 O  O7  1  0.50000  0.74733  0.96230  1
 O  O8  1  0.00000  0.83505  0.21670  1
 Pr  Pr1  1  0.00000  0.00000  0.00000  1
 Pr  Pr2  1  0.00000  0.50000  0.50000  1
