CIF file written using JARVIS-Tools package.
data_Fe6O11F
_symmetry_space_group_name_H-M  'Amm2'
_cell_length_a       6.24104
_cell_length_b       2.83447
_cell_length_c       9.71404
_cell_angle_alpha    90
_cell_angle_beta     108.747
_cell_angle_gamma    90

_symmetry_Int_Tables_number  38
_chemical_formula_structural  Fe6O11F
_chemical_formula_sum  Fe6OF
_cell_volume  162.72539488960476
_cell_formula_units_Z  1
loop_
  _symmetry_equiv_pos_site_id
 _symmetry_equiv_pos_as_xyz
 1  'x, y, z'
loop_
 _atom_site_type_symbol
 _atom_site_label
 _atom_site_symmetry_multiplicity
 _atom_site_fract_x
 _atom_site_fract_y
 _atom_site_fract_z
 _atom_site_fract_occupancy
 F  F1  1  0.36148  0.00000  0.33340  1
 Fe  Fe1  1  0.68096  0.00000  0.33333  1
 Fe  Fe2  1  0.83601  0.50000  0.66728  1
 Fe  Fe3  1  0.00479  0.00000  0.00228  1
 Fe  Fe4  1  0.33583  0.00000  0.66439  1
 Fe  Fe5  1  0.50206  0.50000  -0.00061  1
 Fe  Fe6  1  0.14458  0.50000  0.33333  1
 O  O1  1  0.59464  0.50000  0.20275  1
 O  O2  1  0.72546  0.50000  0.46391  1
 O  O3  1  0.26678  0.50000  0.53146  1
 O  O4  1  0.63927  0.00000  0.66872  1
 O  O5  1  0.93772  0.50000  0.87070  1
 O  O6  1  0.70077  0.00000  0.00282  1
 O  O7  1  0.40060  0.50000  0.79596  1
 O  O8  1  0.96505  0.00000  0.33326  1
 O  O9  1  0.03139  0.00000  0.66403  1
 O  O10  1  0.30379  0.00000  -0.00223  1
 O  O11  1  0.06883  0.50000  0.13521  1
