CIF file written using JARVIS-Tools package.
data_NdGaSi
_symmetry_space_group_name_H-M  'I4_1md'
_cell_length_a       7.75068
_cell_length_b       7.75068
_cell_length_c       7.75068
_cell_angle_alpha    148.352
_cell_angle_beta     148.352
_cell_angle_gamma    45.3661

_symmetry_Int_Tables_number  109
_chemical_formula_structural  NdGaSi
_chemical_formula_sum  Nd2Ga2Si2
_cell_volume  127.77183595900289
_cell_formula_units_Z  2
loop_
  _symmetry_equiv_pos_site_id
 _symmetry_equiv_pos_as_xyz
 1  'x, y, z'
loop_
 _atom_site_type_symbol
 _atom_site_label
 _atom_site_symmetry_multiplicity
 _atom_site_fract_x
 _atom_site_fract_y
 _atom_site_fract_z
 _atom_site_fract_occupancy
 Ga  Ga1  1  0.29157  0.29157  0.00000  1
 Ga  Ga2  1  0.04157  0.54157  0.50000  1
 Nd  Nd1  1  0.62495  0.12495  0.50000  1
 Nd  Nd2  1  0.87495  0.87495  0.00000  1
 Si  Si1  1  0.20848  0.70848  0.50000  1
 Si  Si2  1  0.45848  0.45848  0.00000  1
