CIF file written using JARVIS-Tools package.
data_AlCoN2
_symmetry_space_group_name_H-M  'I-42d'
_cell_length_a       5.34119
_cell_length_b       4.33035
_cell_length_c       8.75268
_cell_angle_alpha    90
_cell_angle_beta     145.02
_cell_angle_gamma    113.915

_symmetry_Int_Tables_number  122
_chemical_formula_structural  AlCoN2
_chemical_formula_sum  Al2Co2N4
_cell_volume  82.06465816956381
_cell_formula_units_Z  2
loop_
  _symmetry_equiv_pos_site_id
 _symmetry_equiv_pos_as_xyz
 1  'x, y, z'
loop_
 _atom_site_type_symbol
 _atom_site_label
 _atom_site_symmetry_multiplicity
 _atom_site_fract_x
 _atom_site_fract_y
 _atom_site_fract_z
 _atom_site_fract_occupancy
 Al  Al1  1  -0.00000  0.50000  0.25000  1
 Al  Al2  1  0.00000  0.00000  0.00000  1
 Co  Co1  1  -0.00000  0.50000  0.75000  1
 Co  Co2  1  0.00000  0.00000  0.50000  1
 N  N1  1  0.50000  0.99851  0.12500  1
 N  N2  1  0.50000  0.00149  0.62500  1
 N  N3  1  0.50297  0.50149  0.37649  1
 N  N4  1  0.49703  0.49851  0.87351  1
