CIF file written using JARVIS-Tools package.
data_Ta5As4
_symmetry_space_group_name_H-M  'I4/m'
_cell_length_a       3.45487
_cell_length_b       7.20151
_cell_length_c       7.20151
_cell_angle_alpha    86.7015
_cell_angle_beta     76.1211
_cell_angle_gamma    76.1211

_symmetry_Int_Tables_number  87
_chemical_formula_structural  Ta5As4
_chemical_formula_sum  Ta5As4
_cell_volume  168.86633944810194
_cell_formula_units_Z  1
loop_
  _symmetry_equiv_pos_site_id
 _symmetry_equiv_pos_as_xyz
 1  'x, y, z'
loop_
 _atom_site_type_symbol
 _atom_site_label
 _atom_site_symmetry_multiplicity
 _atom_site_fract_x
 _atom_site_fract_y
 _atom_site_fract_z
 _atom_site_fract_occupancy
 As  As1  1  0.94808  0.76620  0.33764  1
 As  As2  1  0.28572  0.66236  0.76620  1
 As  As3  1  0.71428  0.33764  0.23380  1
 As  As4  1  0.05192  0.23380  0.66236  1
 Ta  Ta1  1  0.69386  0.93755  0.67473  1
 Ta  Ta2  1  0.36859  0.32527  0.93755  1
 Ta  Ta3  1  0.63141  0.67473  0.06245  1
 Ta  Ta4  1  0.30614  0.06245  0.32527  1
 Ta  Ta5  1  0.00000  0.00000  0.00000  1
