CIF file written using JARVIS-Tools package.
data_VO2F
_symmetry_space_group_name_H-M  'Cm'
_cell_length_a       5.12973
_cell_length_b       5.12973
_cell_length_c       4.28917
_cell_angle_alpha    64.8771
_cell_angle_beta     64.8771
_cell_angle_gamma    35.6292

_symmetry_Int_Tables_number  8
_chemical_formula_structural  VO2F
_chemical_formula_sum  VO2F
_cell_volume  58.84909133229984
_cell_formula_units_Z  1
loop_
  _symmetry_equiv_pos_site_id
 _symmetry_equiv_pos_as_xyz
 1  'x, y, z'
loop_
 _atom_site_type_symbol
 _atom_site_label
 _atom_site_symmetry_multiplicity
 _atom_site_fract_x
 _atom_site_fract_y
 _atom_site_fract_z
 _atom_site_fract_occupancy
 F  F1  1  0.82342  0.82342  0.25967  1
 O  O1  1  0.01067  0.01067  0.58857  1
 O  O2  1  0.60182  0.60182  -0.02316  1
 V  V1  1  0.01736  0.01736  0.95712  1
