CIF file written using JARVIS-Tools package.
data_CdH2C3O4
_symmetry_space_group_name_H-M  'C2'
_cell_length_a       4.24854
_cell_length_b       5.04668
_cell_length_c       5.51649
_cell_angle_alpha    81.4465
_cell_angle_beta     67.3479
_cell_angle_gamma    65.1165

_symmetry_Int_Tables_number  5
_chemical_formula_structural  CdH2C3O4
_chemical_formula_sum  CdH2C3O4
_cell_volume  99.0090233541876
_cell_formula_units_Z  1
loop_
  _symmetry_equiv_pos_site_id
 _symmetry_equiv_pos_as_xyz
 1  'x, y, z'
loop_
 _atom_site_type_symbol
 _atom_site_label
 _atom_site_symmetry_multiplicity
 _atom_site_fract_x
 _atom_site_fract_y
 _atom_site_fract_z
 _atom_site_fract_occupancy
 C  C1  1  0.12277  0.81169  0.81901  1
 C  C2  1  0.73622  0.22024  0.18361  1
 C  C3  1  0.74944  0.01604  0.00125  1
 Cd  Cd1  1  0.89379  0.51599  0.50129  1
 H  H1  1  0.58466  0.14701  0.88069  1
 H  H2  1  0.59475  0.88520  0.12169  1
 O  O1  1  0.96719  0.12587  0.30283  1
 O  O2  1  0.48116  0.47848  0.22206  1
 O  O3  1  0.16423  0.55344  0.78069  1
 O  O4  1  0.37871  0.90598  0.69977  1
