CIF file written using JARVIS-Tools package.
data_Nd2SbO2
_symmetry_space_group_name_H-M  'I4/mmm'
_cell_length_a       7.4204
_cell_length_b       7.4204
_cell_length_c       7.4204
_cell_angle_alpha    148.801
_cell_angle_beta     148.801
_cell_angle_gamma    44.7045

_symmetry_Int_Tables_number  139
_chemical_formula_structural  Nd2SbO2
_chemical_formula_sum  Nd2SbO2
_cell_volume  109.30529630248334
_cell_formula_units_Z  1
loop_
  _symmetry_equiv_pos_site_id
 _symmetry_equiv_pos_as_xyz
 1  'x, y, z'
loop_
 _atom_site_type_symbol
 _atom_site_label
 _atom_site_symmetry_multiplicity
 _atom_site_fract_x
 _atom_site_fract_y
 _atom_site_fract_z
 _atom_site_fract_occupancy
 Nd  Nd1  1  0.66252  0.66252  -0.00000  1
 Nd  Nd2  1  0.33748  0.33748  0.00000  1
 O  O1  1  0.75000  0.25000  0.50000  1
 O  O2  1  0.25000  0.75000  0.50000  1
 Sb  Sb1  1  0.00000  0.00000  0.00000  1
