CIF file written using JARVIS-Tools package.
data_CeCu2Si
_symmetry_space_group_name_H-M  'Cmcm'
_cell_length_a       8.94983
_cell_length_b       8.94983
_cell_length_c       4.08436
_cell_angle_alpha    90
_cell_angle_beta     90
_cell_angle_gamma    154.263

_symmetry_Int_Tables_number  63
_chemical_formula_structural  CeCu2Si
_chemical_formula_sum  Ce2Cu4Si2
_cell_volume  142.0647177509854
_cell_formula_units_Z  2
loop_
  _symmetry_equiv_pos_site_id
 _symmetry_equiv_pos_as_xyz
 1  'x, y, z'
loop_
 _atom_site_type_symbol
 _atom_site_label
 _atom_site_symmetry_multiplicity
 _atom_site_fract_x
 _atom_site_fract_y
 _atom_site_fract_z
 _atom_site_fract_occupancy
 Ce  Ce1  1  0.60916  0.39084  0.25000  1
 Ce  Ce2  1  0.39084  0.60916  0.75000  1
 Cu  Cu1  1  0.96278  0.03722  0.25000  1
 Cu  Cu2  1  0.03722  0.96278  0.75000  1
 Cu  Cu3  1  0.24927  0.75073  0.25000  1
 Cu  Cu4  1  0.75073  0.24927  0.75000  1
 Si  Si1  1  0.82595  0.17405  0.25000  1
 Si  Si2  1  0.17405  0.82595  0.75000  1
