CIF file written using JARVIS-Tools package.
data_H7C5
_symmetry_space_group_name_H-M  'P2_1/c'
_cell_length_a       8.50585
_cell_length_b       5.98637
_cell_length_c       8.30981
_cell_angle_alpha    90
_cell_angle_beta     110.314
_cell_angle_gamma    90

_symmetry_Int_Tables_number  14
_chemical_formula_structural  H7C5
_chemical_formula_sum  H28C20
_cell_volume  396.8129754613299
_cell_formula_units_Z  4
loop_
  _symmetry_equiv_pos_site_id
 _symmetry_equiv_pos_as_xyz
 1  'x, y, z'
loop_
 _atom_site_type_symbol
 _atom_site_label
 _atom_site_symmetry_multiplicity
 _atom_site_fract_x
 _atom_site_fract_y
 _atom_site_fract_z
 _atom_site_fract_occupancy
 C  C1  1  0.10935  0.21530  0.69177  1
 C  C2  1  0.89065  0.71530  0.80823  1
 C  C3  1  0.62736  0.34475  0.06493  1
 C  C4  1  0.10935  0.28470  0.19177  1
 C  C5  1  0.22378  0.40756  0.67864  1
 C  C6  1  0.77622  0.59244  0.32136  1
 C  C7  1  0.77622  0.90756  0.82136  1
 C  C8  1  0.22378  0.09244  0.17864  1
 C  C9  1  0.62736  0.15525  0.56493  1
 C  C10  1  0.37264  0.65525  0.93507  1
 C  C11  1  0.36463  0.45480  0.84561  1
 C  C12  1  0.63537  0.54520  0.15439  1
 C  C13  1  0.63537  0.95480  0.65439  1
 C  C14  1  0.36463  0.04520  0.34561  1
 C  C15  1  0.50586  0.70032  0.08630  1
 C  C16  1  0.50586  0.79968  0.58630  1
 C  C17  1  0.49414  0.20032  0.41370  1
 C  C18  1  0.89065  0.78470  0.30823  1
 C  C19  1  0.49414  0.29968  0.91370  1
 C  C20  1  0.37264  0.84475  0.43507  1
 H  H1  1  0.94472  0.74933  0.70832  1
 H  H2  1  0.85087  0.43973  0.36469  1
 H  H3  1  0.05528  0.24933  0.79168  1
 H  H4  1  0.94472  0.75067  0.20832  1
 H  H5  1  0.27760  0.13482  0.07946  1
 H  H6  1  0.27760  0.36518  0.57946  1
 H  H7  1  0.27359  0.77902  0.88487  1
 H  H8  1  0.72641  0.22098  0.11513  1
 H  H9  1  0.72641  0.27902  0.61513  1
 H  H10  1  0.27359  0.72098  0.38487  1
 H  H11  1  0.50898  0.85765  0.15334  1
 H  H12  1  0.50898  0.64235  0.65334  1
 H  H13  1  0.49102  0.35765  0.34666  1
 H  H14  1  0.18022  0.05825  0.72410  1
 H  H15  1  0.81978  0.94175  0.27590  1
 H  H16  1  0.14913  0.56027  0.63531  1
 H  H17  1  0.81978  0.55825  0.77590  1
 H  H18  1  0.00565  0.18961  0.56984  1
 H  H19  1  -0.00565  0.81039  0.43016  1
 H  H20  1  0.49102  0.14235  0.84666  1
 H  H21  1  0.00565  0.31039  0.06984  1
 H  H22  1  -0.00565  0.68961  0.93016  1
 H  H23  1  0.72240  0.86518  0.92054  1
 H  H24  1  0.72240  0.63482  0.42054  1
 H  H25  1  0.14913  0.93973  0.13531  1
 H  H26  1  0.85087  0.06027  0.86469  1
 H  H27  1  0.18022  0.44175  0.22410  1
 H  H28  1  0.05528  0.25067  0.29168  1
