CIF file written using JARVIS-Tools package.
data_NdGa3Pd
_symmetry_space_group_name_H-M  'I-4m2'
_cell_length_a       6.15085
_cell_length_b       6.15085
_cell_length_c       6.15085
_cell_angle_alpha    139.674
_cell_angle_beta     139.674
_cell_angle_gamma    58.3481

_symmetry_Int_Tables_number  119
_chemical_formula_structural  NdGa3Pd
_chemical_formula_sum  NdGa3Pd
_cell_volume  96.56218958809846
_cell_formula_units_Z  1
loop_
  _symmetry_equiv_pos_site_id
 _symmetry_equiv_pos_as_xyz
 1  'x, y, z'
loop_
 _atom_site_type_symbol
 _atom_site_label
 _atom_site_symmetry_multiplicity
 _atom_site_fract_x
 _atom_site_fract_y
 _atom_site_fract_z
 _atom_site_fract_occupancy
 Ga  Ga1  1  0.61534  0.61534  -0.00000  1
 Ga  Ga2  1  0.38466  0.38466  0.00000  1
 Ga  Ga3  1  0.75000  0.25000  0.50000  1
 Nd  Nd1  1  0.00000  0.00000  0.00000  1
 Pd  Pd1  1  0.25000  0.75000  0.50000  1
