CIF file written using JARVIS-Tools package.
data_SmScSi
_symmetry_space_group_name_H-M  'I4/mmm'
_cell_length_a       4.25802
_cell_length_b       4.25802
_cell_length_c       8.36558
_cell_angle_alpha    104.744
_cell_angle_beta     104.744
_cell_angle_gamma    90

_symmetry_Int_Tables_number  139
_chemical_formula_structural  SmScSi
_chemical_formula_sum  Sm2Sc2Si2
_cell_volume  141.51008587556677
_cell_formula_units_Z  2
loop_
  _symmetry_equiv_pos_site_id
 _symmetry_equiv_pos_as_xyz
 1  'x, y, z'
loop_
 _atom_site_type_symbol
 _atom_site_label
 _atom_site_symmetry_multiplicity
 _atom_site_fract_x
 _atom_site_fract_y
 _atom_site_fract_z
 _atom_site_fract_occupancy
 Sc  Sc1  1  -0.00000  0.50000  -0.00000  1
 Sc  Sc2  1  0.50000  -0.00000  -0.00000  1
 Si  Si1  1  0.87457  0.87457  0.74914  1
 Si  Si2  1  0.12543  0.12543  0.25086  1
 Sm  Sm1  1  0.32363  0.32363  0.64726  1
 Sm  Sm2  1  0.67637  0.67637  0.35274  1
