CIF file written using JARVIS-Tools package.
data_RhF3
_symmetry_space_group_name_H-M  'P321'
_cell_length_a       4.98308
_cell_length_b       4.98308
_cell_length_c       7.28745
_cell_angle_alpha    90
_cell_angle_beta     90
_cell_angle_gamma    120

_symmetry_Int_Tables_number  150
_chemical_formula_structural  RhF3
_chemical_formula_sum  Rh3F9
_cell_volume  156.71173532892618
_cell_formula_units_Z  3
loop_
  _symmetry_equiv_pos_site_id
 _symmetry_equiv_pos_as_xyz
 1  'x, y, z'
loop_
 _atom_site_type_symbol
 _atom_site_label
 _atom_site_symmetry_multiplicity
 _atom_site_fract_x
 _atom_site_fract_y
 _atom_site_fract_z
 _atom_site_fract_occupancy
 F  F1  1  0.66668  0.96258  0.82155  1
 F  F2  1  0.03742  0.70409  0.82155  1
 F  F3  1  0.29591  0.33332  0.82155  1
 F  F4  1  0.65099  0.65099  0.50000  1
 F  F5  1  0.34901  -0.00000  0.50000  1
 F  F6  1  -0.00000  0.34901  0.50000  1
 F  F7  1  0.96258  0.66668  0.17845  1
 F  F8  1  0.33332  0.29591  0.17845  1
 F  F9  1  0.70409  0.03742  0.17845  1
 Rh  Rh1  1  0.66667  0.33333  0.33984  1
 Rh  Rh2  1  0.33333  0.66667  0.66016  1
 Rh  Rh3  1  0.00000  0.00000  0.00000  1
