CIF file written using JARVIS-Tools package.
data_AlH16C10ClO4
_symmetry_space_group_name_H-M  'P1'
_cell_length_a       4.82985
_cell_length_b       6.95403
_cell_length_c       9.2508
_cell_angle_alpha    69.6957
_cell_angle_beta     79.7932
_cell_angle_gamma    81.2827

_symmetry_Int_Tables_number  1
_chemical_formula_structural  AlH16C10ClO4
_chemical_formula_sum  AlH6C0ClO4
_cell_volume  285.41965003940345
_cell_formula_units_Z  1
loop_
  _symmetry_equiv_pos_site_id
 _symmetry_equiv_pos_as_xyz
 1  'x, y, z'
loop_
 _atom_site_type_symbol
 _atom_site_label
 _atom_site_symmetry_multiplicity
 _atom_site_fract_x
 _atom_site_fract_y
 _atom_site_fract_z
 _atom_site_fract_occupancy
 Al  Al1  1  0.14380  0.74625  0.90240  1
 C  C1  1  0.10232  0.43580  0.63990  1
 C  C2  1  0.60159  0.98333  0.91877  1
 C  C3  1  0.09080  0.56294  0.74239  1
 C  C4  1  0.43263  0.20881  0.50220  1
 C  C5  1  0.40788  0.37475  0.57861  1
 C  C6  1  0.76823  0.04096  0.22153  1
 C  C7  1  0.78817  0.95455  0.39750  1
 C  C8  1  0.73903  0.11760  0.47871  1
 C  C9  1  0.47886  0.03514  0.17876  1
 C  C10  1  0.46259  0.13130  0.00080  1
 Cl  Cl1  1  0.17530  0.56115  0.14191  1
 H  H1  1  0.00138  0.87527  0.41405  1
 H  H2  1  0.42158  0.87549  0.22093  1
 H  H3  1  0.31503  0.12381  0.23457  1
 H  H4  1  0.98299  0.52496  0.54266  1
 H  H5  1  0.24129  0.16922  0.98009  1
 H  H6  1  0.81264  0.04803  0.59359  1
 H  H7  1  0.87239  0.24318  0.41157  1
 H  H8  1  0.63881  0.83693  0.45668  1
 H  H9  1  0.30198  0.08413  0.57458  1
 H  H10  1  0.92628  0.95142  0.16343  1
 H  H11  1  0.82408  0.20132  0.17440  1
 H  H12  1  0.57267  0.27222  0.95540  1
 H  H13  1  -0.00834  0.29916  0.70750  1
 H  H14  1  0.53244  0.31906  0.67652  1
 H  H15  1  0.50282  0.51241  0.49596  1
 H  H16  1  0.34940  0.27638  0.39041  1
 O  O1  1  0.87540  0.95975  0.89759  1
 O  O2  1  0.46053  0.88226  0.87222  1
 O  O3  1  0.27494  0.69509  0.71414  1
 O  O4  1  0.91685  0.54571  0.86638  1
