CIF file written using JARVIS-Tools package.
data_CaNd2Te4
_symmetry_space_group_name_H-M  'I-42d'
_cell_length_a       8.27394
_cell_length_b       8.27394
_cell_length_c       8.27394
_cell_angle_alpha    109.799
_cell_angle_beta     109.799
_cell_angle_gamma    108.819

_symmetry_Int_Tables_number  122
_chemical_formula_structural  CaNd2Te4
_chemical_formula_sum  Ca2Nd4Te8
_cell_volume  435.98644445645266
_cell_formula_units_Z  2
loop_
  _symmetry_equiv_pos_site_id
 _symmetry_equiv_pos_as_xyz
 1  'x, y, z'
loop_
 _atom_site_type_symbol
 _atom_site_label
 _atom_site_symmetry_multiplicity
 _atom_site_fract_x
 _atom_site_fract_y
 _atom_site_fract_z
 _atom_site_fract_occupancy
 Ca  Ca1  1  0.62500  0.37500  0.25000  1
 Ca  Ca2  1  0.87500  0.12500  0.75000  1
 Nd  Nd1  1  0.12545  0.75000  0.87545  1
 Nd  Nd2  1  0.25000  0.62545  0.37545  1
 Nd  Nd3  1  0.37455  0.25000  0.62455  1
 Nd  Nd4  1  0.75000  0.87455  0.12455  1
 Te  Te1  1  0.00232  0.85706  0.50305  1
 Te  Te2  1  -0.00073  0.35401  0.49695  1
 Te  Te3  1  0.49768  0.00073  0.85474  1
 Te  Te4  1  0.14294  0.14599  0.14526  1
 Te  Te5  1  0.35706  0.50232  0.00305  1
 Te  Te6  1  0.64599  0.64294  0.64526  1
 Te  Te7  1  0.50073  0.99768  0.35474  1
 Te  Te8  1  0.85401  0.49927  0.99695  1
