CIF file written using JARVIS-Tools package.
data_YbTiO3
_symmetry_space_group_name_H-M  'Pnma'
_cell_length_a       5.30709
_cell_length_b       5.45464
_cell_length_c       7.57385
_cell_angle_alpha    90
_cell_angle_beta     90
_cell_angle_gamma    90

_symmetry_Int_Tables_number  62
_chemical_formula_structural  YbTiO3
_chemical_formula_sum  Yb4Ti4O2
_cell_volume  219.24978516248626
_cell_formula_units_Z  4
loop_
  _symmetry_equiv_pos_site_id
 _symmetry_equiv_pos_as_xyz
 1  'x, y, z'
loop_
 _atom_site_type_symbol
 _atom_site_label
 _atom_site_symmetry_multiplicity
 _atom_site_fract_x
 _atom_site_fract_y
 _atom_site_fract_z
 _atom_site_fract_occupancy
 O  O1  1  0.70412  0.20531  0.54617  1
 O  O2  1  0.08787  0.02377  0.75000  1
 O  O3  1  0.79588  0.70531  0.95383  1
 O  O4  1  0.20412  0.29469  0.45383  1
 O  O5  1  0.29588  0.79469  0.45383  1
 O  O6  1  0.20412  0.29469  0.04617  1
 O  O7  1  0.41213  0.52377  0.75000  1
 O  O8  1  0.58787  0.47623  0.25000  1
 O  O9  1  0.70412  0.20531  0.95383  1
 O  O10  1  0.91213  0.97623  0.25000  1
 O  O11  1  0.79588  0.70531  0.54617  1
 O  O12  1  0.29588  0.79469  0.04617  1
 Ti  Ti1  1  0.50000  0.50000  0.50000  1
 Ti  Ti2  1  0.50000  0.50000  0.00000  1
 Ti  Ti3  1  0.00000  0.00000  0.50000  1
 Ti  Ti4  1  0.00000  0.00000  0.00000  1
 Yb  Yb1  1  0.01277  0.55293  0.25000  1
 Yb  Yb2  1  0.48723  0.05293  0.25000  1
 Yb  Yb3  1  0.51277  0.94707  0.75000  1
 Yb  Yb4  1  0.98723  0.44707  0.75000  1
