CIF file written using JARVIS-Tools package.
data_PdS2
_symmetry_space_group_name_H-M  'Pbca'
_cell_length_a       5.53225
_cell_length_b       5.61225
_cell_length_c       7.55389
_cell_angle_alpha    90
_cell_angle_beta     90
_cell_angle_gamma    90

_symmetry_Int_Tables_number  61
_chemical_formula_structural  PdS2
_chemical_formula_sum  Pd4S8
_cell_volume  234.53593989095774
_cell_formula_units_Z  4
loop_
  _symmetry_equiv_pos_site_id
 _symmetry_equiv_pos_as_xyz
 1  'x, y, z'
loop_
 _atom_site_type_symbol
 _atom_site_label
 _atom_site_symmetry_multiplicity
 _atom_site_fract_x
 _atom_site_fract_y
 _atom_site_fract_z
 _atom_site_fract_occupancy
 Pd  Pd1  1  0.50000  0.00000  0.50000  1
 Pd  Pd2  1  0.00000  0.50000  0.50000  1
 Pd  Pd3  1  0.50000  0.50000  0.00000  1
 Pd  Pd4  1  0.00000  0.00000  0.00000  1
 S  S1  1  0.60457  0.10995  0.08291  1
 S  S2  1  0.10457  0.39005  0.91709  1
 S  S3  1  0.39543  0.60995  0.41709  1
 S  S4  1  0.89543  0.89005  0.58291  1
 S  S5  1  0.10457  0.10995  0.41709  1
 S  S6  1  0.60457  0.39005  0.58291  1
 S  S7  1  0.89543  0.60995  0.08291  1
 S  S8  1  0.39543  0.89005  0.91709  1
