CIF file written using JARVIS-Tools package.
data_Li2B2Se5
_symmetry_space_group_name_H-M  'C2/c'
_cell_length_a       5.2872
_cell_length_b       5.98285
_cell_length_c       12.0958
_cell_angle_alpha    79.293
_cell_angle_beta     77.3758
_cell_angle_gamma    63.7773

_symmetry_Int_Tables_number  15
_chemical_formula_structural  Li2B2Se5
_chemical_formula_sum  Li4B4Se0
_cell_volume  333.2019387154754
_cell_formula_units_Z  2
loop_
  _symmetry_equiv_pos_site_id
 _symmetry_equiv_pos_as_xyz
 1  'x, y, z'
loop_
 _atom_site_type_symbol
 _atom_site_label
 _atom_site_symmetry_multiplicity
 _atom_site_fract_x
 _atom_site_fract_y
 _atom_site_fract_z
 _atom_site_fract_occupancy
 B  B1  1  0.30741  0.57412  0.70738  1
 B  B2  1  0.58891  0.92588  0.79262  1
 B  B3  1  0.69259  0.42588  0.29262  1
 B  B4  1  0.41109  0.07412  0.20738  1
 Li  Li1  1  0.85654  0.31571  0.93170  1
 Li  Li2  1  0.10395  0.18429  0.56830  1
 Li  Li3  1  0.14346  0.68429  0.06830  1
 Li  Li4  1  0.89605  0.81571  0.43170  1
 Se  Se1  1  0.39863  0.42889  0.43901  1
 Se  Se2  1  0.24118  0.25000  0.75000  1
 Se  Se3  1  0.43422  0.64908  0.84069  1
 Se  Se4  1  0.75882  0.75000  0.25000  1
 Se  Se5  1  0.73347  0.92889  0.93901  1
 Se  Se6  1  0.07601  0.14908  0.34069  1
 Se  Se7  1  0.60137  0.57111  0.56099  1
 Se  Se8  1  0.92399  0.85092  0.65931  1
 Se  Se9  1  0.56578  0.35092  0.15931  1
 Se  Se10  1  0.26653  0.07111  0.06099  1
