CIF file written using JARVIS-Tools package.
data_GaHO2
_symmetry_space_group_name_H-M  'Fdd2'
_cell_length_a       5.77879
_cell_length_b       5.26929
_cell_length_c       6.56615
_cell_angle_alpha    57.1998
_cell_angle_beta     50.0365
_cell_angle_gamma    72.7637

_symmetry_Int_Tables_number  43
_chemical_formula_structural  GaHO2
_chemical_formula_sum  Ga4H4O8
_cell_volume  128.3977088914883
_cell_formula_units_Z  4
loop_
  _symmetry_equiv_pos_site_id
 _symmetry_equiv_pos_as_xyz
 1  'x, y, z'
loop_
 _atom_site_type_symbol
 _atom_site_label
 _atom_site_symmetry_multiplicity
 _atom_site_fract_x
 _atom_site_fract_y
 _atom_site_fract_z
 _atom_site_fract_occupancy
 Ga  Ga1  1  0.07270  0.07270  0.67730  1
 Ga  Ga2  1  0.59042  0.59042  0.15958  1
 Ga  Ga3  1  0.84042  0.84042  0.40958  1
 Ga  Ga4  1  0.32270  0.32270  0.92730  1
 H  H1  1  0.57123  0.09221  0.19210  1
 H  H2  1  0.80790  0.35555  0.42877  1
 H  H3  1  0.09221  0.57123  0.64445  1
 H  H4  1  0.35555  0.80790  0.90779  1
 O  O1  1  0.03514  0.62577  -0.13880  1
 O  O2  1  0.62577  0.03514  0.97789  1
 O  O3  1  0.13880  0.02211  0.96486  1
 O  O4  1  0.02211  0.13880  0.37423  1
 O  O5  1  0.53374  0.13125  0.35613  1
 O  O6  1  0.64387  0.52113  0.46626  1
 O  O7  1  0.13125  0.53374  0.47887  1
 O  O8  1  0.52113  0.64387  -0.13125  1
