CIF file written using JARVIS-Tools package.
data_Ca2PbN2
_symmetry_space_group_name_H-M  'Pmmn'
_cell_length_a       3.56713
_cell_length_b       3.5716
_cell_length_c       13.9654
_cell_angle_alpha    90
_cell_angle_beta     90
_cell_angle_gamma    90

_symmetry_Int_Tables_number  59
_chemical_formula_structural  Ca2PbN2
_chemical_formula_sum  Ca4Pb2N4
_cell_volume  177.9245144794842
_cell_formula_units_Z  2
loop_
  _symmetry_equiv_pos_site_id
 _symmetry_equiv_pos_as_xyz
 1  'x, y, z'
loop_
 _atom_site_type_symbol
 _atom_site_label
 _atom_site_symmetry_multiplicity
 _atom_site_fract_x
 _atom_site_fract_y
 _atom_site_fract_z
 _atom_site_fract_occupancy
 Ca  Ca1  1  0.75000  0.75177  0.08053  1
 Ca  Ca2  1  0.75000  0.75177  0.41947  1
 Ca  Ca3  1  0.25000  0.24823  0.91947  1
 Ca  Ca4  1  0.25000  0.24823  0.58053  1
 N  N1  1  0.75000  0.77385  0.59075  1
 N  N2  1  0.75000  0.77385  0.90925  1
 N  N3  1  0.25000  0.22615  0.40925  1
 N  N4  1  0.25000  0.22615  0.09075  1
 Pb  Pb1  1  0.75000  0.64388  0.75000  1
 Pb  Pb2  1  0.25000  0.35612  0.25000  1
