CIF file written using JARVIS-Tools package.
data_Ba2Fe4AsP3
_symmetry_space_group_name_H-M  'Amm2'
_cell_length_a       6.78106
_cell_length_b       6.78104
_cell_length_c       5.45733
_cell_angle_alpha    90
_cell_angle_beta     90
_cell_angle_gamma    132.553

_symmetry_Int_Tables_number  38
_chemical_formula_structural  Ba2Fe4AsP3
_chemical_formula_sum  Ba2Fe4AsP3
_cell_volume  184.8586467903301
_cell_formula_units_Z  1
loop_
  _symmetry_equiv_pos_site_id
 _symmetry_equiv_pos_as_xyz
 1  'x, y, z'
loop_
 _atom_site_type_symbol
 _atom_site_label
 _atom_site_symmetry_multiplicity
 _atom_site_fract_x
 _atom_site_fract_y
 _atom_site_fract_z
 _atom_site_fract_occupancy
 As  As1  1  0.15101  0.84899  0.50000  1
 Ba  Ba1  1  0.49562  0.50438  0.50000  1
 Ba  Ba2  1  0.99690  0.00310  0.00000  1
 Fe  Fe1  1  0.50521  0.00227  0.24601  1
 Fe  Fe2  1  0.99773  0.49479  0.75399  1
 Fe  Fe3  1  0.99773  0.49479  0.24601  1
 Fe  Fe4  1  0.50521  0.00227  0.75399  1
 P  P1  1  0.66110  0.33890  0.00000  1
 P  P2  1  0.33814  0.66186  0.00000  1
 P  P3  1  0.83724  0.16276  0.50000  1
