CIF file written using JARVIS-Tools package.
data_HfO2
_symmetry_space_group_name_H-M  'Pbca'
_cell_length_a       5.06883
_cell_length_b       5.2388
_cell_length_c       10.0238
_cell_angle_alpha    90
_cell_angle_beta     90
_cell_angle_gamma    90

_symmetry_Int_Tables_number  61
_chemical_formula_structural  HfO2
_chemical_formula_sum  Hf8O6
_cell_volume  266.1771811073084
_cell_formula_units_Z  8
loop_
  _symmetry_equiv_pos_site_id
 _symmetry_equiv_pos_as_xyz
 1  'x, y, z'
loop_
 _atom_site_type_symbol
 _atom_site_label
 _atom_site_symmetry_multiplicity
 _atom_site_fract_x
 _atom_site_fract_y
 _atom_site_fract_z
 _atom_site_fract_occupancy
 Hf  Hf1  1  0.75500  0.46478  0.11543  1
 Hf  Hf2  1  0.25500  0.53522  0.38457  1
 Hf  Hf3  1  0.74500  0.96478  0.88457  1
 Hf  Hf4  1  0.24500  0.03522  0.61543  1
 Hf  Hf5  1  0.24500  0.53522  0.88457  1
 Hf  Hf6  1  0.74500  0.46478  0.61543  1
 Hf  Hf7  1  0.25500  0.03522  0.11543  1
 Hf  Hf8  1  0.75500  0.96478  0.38457  1
 O  O1  1  0.99734  0.26165  0.47675  1
 O  O2  1  0.49734  0.73835  0.02325  1
 O  O3  1  0.50266  0.76165  0.52325  1
 O  O4  1  0.12841  0.87458  0.29011  1
 O  O5  1  0.00266  0.73835  0.52325  1
 O  O6  1  0.50266  0.26165  0.97675  1
 O  O7  1  0.00266  0.23835  0.97675  1
 O  O8  1  0.87159  0.12542  0.70989  1
 O  O9  1  0.62841  0.62542  0.29011  1
 O  O10  1  0.12841  0.37458  0.20989  1
 O  O11  1  0.49734  0.23835  0.47675  1
 O  O12  1  0.37159  0.87458  0.79011  1
 O  O13  1  0.37159  0.37458  0.70989  1
 O  O14  1  0.87159  0.62542  0.79011  1
 O  O15  1  0.99734  0.76165  0.02325  1
 O  O16  1  0.62841  0.12542  0.20989  1
