CIF file written using JARVIS-Tools package.
data_H3C2O
_symmetry_space_group_name_H-M  'P2_1/c'
_cell_length_a       10.5996
_cell_length_b       6.78989
_cell_length_c       5.29165
_cell_angle_alpha    90
_cell_angle_beta     88.1
_cell_angle_gamma    90

_symmetry_Int_Tables_number  14
_chemical_formula_structural  H3C2O
_chemical_formula_sum  H24C6O8
_cell_volume  380.63139897515447
_cell_formula_units_Z  8
loop_
  _symmetry_equiv_pos_site_id
 _symmetry_equiv_pos_as_xyz
 1  'x, y, z'
loop_
 _atom_site_type_symbol
 _atom_site_label
 _atom_site_symmetry_multiplicity
 _atom_site_fract_x
 _atom_site_fract_y
 _atom_site_fract_z
 _atom_site_fract_occupancy
 C  C1  1  0.17719  0.04803  0.91715  1
 C  C2  1  0.95534  0.03734  0.10581  1
 C  C3  1  0.04466  0.96266  0.89419  1
 C  C4  1  0.17719  0.45197  0.41715  1
 C  C5  1  0.82281  0.54803  0.58285  1
 C  C6  1  0.82281  0.95197  0.08285  1
 C  C7  1  0.95534  0.46266  0.60581  1
 C  C8  1  0.73098  0.47401  0.78409  1
 C  C9  1  0.26902  0.97401  0.71591  1
 C  C10  1  0.48893  0.57176  0.10897  1
 C  C11  1  0.51107  0.42824  0.89103  1
 C  C12  1  0.51107  0.07176  0.39103  1
 C  C13  1  0.48893  0.92824  0.60897  1
 C  C14  1  0.26902  0.52599  0.21591  1
 C  C15  1  0.73098  0.02599  0.28409  1
 C  C16  1  0.04466  0.53734  0.39419  1
 H  H1  1  0.78502  0.98727  0.89732  1
 H  H2  1  0.57263  0.91583  0.72327  1
 H  H3  1  0.21498  0.01273  0.10268  1
 H  H4  1  0.46043  0.71675  0.04089  1
 H  H5  1  0.53957  0.21675  0.45911  1
 H  H6  1  0.42737  0.08417  0.27673  1
 H  H7  1  0.99307  0.50116  0.79073  1
 H  H8  1  0.99307  -0.00116  0.29073  1
 H  H9  1  0.00693  0.00116  0.70927  1
 H  H10  1  0.05132  0.69879  0.40152  1
 H  H11  1  0.94868  0.30121  0.59848  1
 H  H12  1  0.53957  0.28325  0.95911  1
 H  H13  1  0.05132  0.80121  0.90152  1
 H  H14  1  0.17511  0.28964  0.40200  1
 H  H15  1  0.82489  0.71036  0.59800  1
 H  H16  1  0.94868  0.19879  0.09848  1
 H  H17  1  0.17511  0.21036  0.90200  1
 H  H18  1  0.00693  0.49884  0.20927  1
 H  H19  1  0.78502  0.51273  0.39732  1
 H  H20  1  0.21498  0.48727  0.60268  1
 H  H21  1  0.42737  0.41583  0.77673  1
 H  H22  1  0.57263  0.58417  0.22327  1
 H  H23  1  0.46043  0.78325  0.54089  1
 H  H24  1  0.82489  0.78964  0.09800  1
 O  O1  1  0.75817  0.10007  0.48596  1
 O  O2  1  0.75817  0.39993  -0.01404  1
 O  O3  1  0.39074  0.00315  0.78371  1
 O  O4  1  0.60926  0.99685  0.21629  1
 O  O5  1  0.60926  0.50315  0.71629  1
 O  O6  1  0.39074  0.49685  0.28371  1
 O  O7  1  0.24183  0.89993  0.51404  1
 O  O8  1  0.24183  0.60007  0.01404  1
