CIF file written using JARVIS-Tools package.
data_Y2HgO4
_symmetry_space_group_name_H-M  'Fd-3m'
_cell_length_a       6.8315
_cell_length_b       6.83141
_cell_length_c       6.8315
_cell_angle_alpha    120.001
_cell_angle_beta     90.0007
_cell_angle_gamma    59.9991

_symmetry_Int_Tables_number  227
_chemical_formula_structural  Y2HgO4
_chemical_formula_sum  Y4Hg2O8
_cell_volume  225.43352501375946
_cell_formula_units_Z  2
loop_
  _symmetry_equiv_pos_site_id
 _symmetry_equiv_pos_as_xyz
 1  'x, y, z'
loop_
 _atom_site_type_symbol
 _atom_site_label
 _atom_site_symmetry_multiplicity
 _atom_site_fract_x
 _atom_site_fract_y
 _atom_site_fract_z
 _atom_site_fract_occupancy
 Hg  Hg1  1  0.62500  0.25000  0.62500  1
 Hg  Hg2  1  0.37500  0.75000  0.37500  1
 O  O1  1  0.23509  0.02980  0.23509  1
 O  O2  1  0.23510  0.02980  0.79471  1
 O  O3  1  0.23509  0.47020  0.23509  1
 O  O4  1  0.79471  0.47020  0.23510  1
 O  O5  1  0.76491  0.52980  0.76491  1
 O  O6  1  0.20529  0.52980  0.76490  1
 O  O7  1  0.76491  0.97020  0.76491  1
 O  O8  1  0.76490  0.97020  0.20529  1
 Y  Y1  1  0.00000  0.00000  0.00000  1
 Y  Y2  1  0.50000  0.00000  0.00000  1
 Y  Y3  1  -0.00000  0.50000  0.00000  1
 Y  Y4  1  -0.00000  0.50000  0.50000  1
