CIF file written using JARVIS-Tools package.
data_H7C6SN
_symmetry_space_group_name_H-M  'P1'
_cell_length_a       3.84497
_cell_length_b       8.62552
_cell_length_c       9.58829
_cell_angle_alpha    109.053
_cell_angle_beta     98.4453
_cell_angle_gamma    94.7263

_symmetry_Int_Tables_number  1
_chemical_formula_structural  H7C6SN
_chemical_formula_sum  H4C2S2N2
_cell_volume  294.4104829313028
_cell_formula_units_Z  2
loop_
  _symmetry_equiv_pos_site_id
 _symmetry_equiv_pos_as_xyz
 1  'x, y, z'
loop_
 _atom_site_type_symbol
 _atom_site_label
 _atom_site_symmetry_multiplicity
 _atom_site_fract_x
 _atom_site_fract_y
 _atom_site_fract_z
 _atom_site_fract_occupancy
 C  C1  1  0.98402  0.05593  0.47881  1
 C  C2  1  0.82501  0.22474  0.31566  1
 C  C3  1  0.78340  0.29902  0.46149  1
 C  C4  1  0.37371  0.70271  0.05456  1
 C  C5  1  0.87371  0.20271  0.55456  1
 C  C6  1  0.32501  0.72474  0.81566  1
 C  C7  1  0.28340  0.79902  0.96149  1
 C  C8  1  0.48402  0.55593  0.97881  1
 C  C9  1  0.68864  0.25075  0.17174  1
 C  C10  1  0.18864  0.75075  0.67174  1
 C  C11  1  0.54731  0.40306  0.01473  1
 C  C12  1  0.04731  0.90306  0.51472  1
 H  H1  1  0.17296  0.91448  -0.00114  1
 H  H2  1  0.83102  0.17892  0.08398  1
 H  H3  1  0.71782  0.33386  0.93838  1
 H  H4  1  0.21782  0.83386  0.43838  1
 H  H5  1  0.35155  0.73987  0.17243  1
 H  H6  1  0.85155  0.23987  0.67243  1
 H  H7  1  0.91045  0.69023  0.63349  1
 H  H8  1  0.67296  0.41448  0.49886  1
 H  H9  1  0.41045  0.19023  0.13349  1
 H  H10  1  0.29228  0.31966  0.98197  1
 H  H11  1  0.79228  0.81966  0.48197  1
 H  H12  1  0.93725  0.48389  0.20475  1
 H  H13  1  0.43725  0.98389  0.70475  1
 H  H14  1  0.33101  0.67892  0.58398  1
 N  N1  1  0.68385  0.42102  0.17151  1
 N  N2  1  0.18384  0.92102  0.67151  1
 S  S1  1  0.48328  0.53823  0.79429  1
 S  S2  1  0.98328  0.03823  0.29429  1
