CIF file written using JARVIS-Tools package.
data_ScI3O9
_symmetry_space_group_name_H-M  'R-3'
_cell_length_a       7.33297
_cell_length_b       7.33297
_cell_length_c       7.33297
_cell_angle_alpha    83.7812
_cell_angle_beta     83.7812
_cell_angle_gamma    83.7812

_symmetry_Int_Tables_number  148
_chemical_formula_structural  ScI3O9
_chemical_formula_sum  Sc2I6O8
_cell_volume  387.81868168278334
_cell_formula_units_Z  2
loop_
  _symmetry_equiv_pos_site_id
 _symmetry_equiv_pos_as_xyz
 1  'x, y, z'
loop_
 _atom_site_type_symbol
 _atom_site_label
 _atom_site_symmetry_multiplicity
 _atom_site_fract_x
 _atom_site_fract_y
 _atom_site_fract_z
 _atom_site_fract_occupancy
 I  I1  1  0.41360  0.71319  0.12741  1
 I  I2  1  0.71319  0.12741  0.41360  1
 I  I3  1  0.58640  0.28681  0.87259  1
 I  I4  1  0.87259  0.58640  0.28681  1
 I  I5  1  0.28681  0.87259  0.58640  1
 I  I6  1  0.12741  0.41360  0.71319  1
 O  O1  1  0.06554  0.94390  0.71162  1
 O  O2  1  0.72214  0.42865  0.21116  1
 O  O3  1  0.42865  0.21116  0.72214  1
 O  O4  1  0.78884  0.27786  0.57135  1
 O  O5  1  0.27786  0.57135  0.78884  1
 O  O6  1  0.57135  0.78884  0.27786  1
 O  O7  1  0.29551  0.08344  0.42291  1
 O  O8  1  0.08344  0.42291  0.29551  1
 O  O9  1  0.28838  0.93446  0.05610  1
 O  O10  1  0.94390  0.71162  0.06554  1
 O  O11  1  0.93446  0.05610  0.28838  1
 O  O12  1  0.21116  0.72214  0.42865  1
 O  O13  1  0.71162  0.06554  0.94390  1
 O  O14  1  0.57709  0.70449  0.91656  1
 O  O15  1  0.91656  0.57709  0.70449  1
 O  O16  1  0.70449  0.91656  0.57709  1
 O  O17  1  0.42291  0.29551  0.08344  1
 O  O18  1  0.05610  0.28838  0.93446  1
 Sc  Sc1  1  0.82461  0.82461  0.82461  1
 Sc  Sc2  1  0.17539  0.17539  0.17539  1
