CIF file written using JARVIS-Tools package.
data_SrTiN2
_symmetry_space_group_name_H-M  'P4/nmm'
_cell_length_a       3.89606
_cell_length_b       3.89606
_cell_length_c       7.71634
_cell_angle_alpha    90
_cell_angle_beta     90
_cell_angle_gamma    90

_symmetry_Int_Tables_number  129
_chemical_formula_structural  SrTiN2
_chemical_formula_sum  Sr2Ti2N4
_cell_volume  117.12868872806885
_cell_formula_units_Z  2
loop_
  _symmetry_equiv_pos_site_id
 _symmetry_equiv_pos_as_xyz
 1  'x, y, z'
loop_
 _atom_site_type_symbol
 _atom_site_label
 _atom_site_symmetry_multiplicity
 _atom_site_fract_x
 _atom_site_fract_y
 _atom_site_fract_z
 _atom_site_fract_occupancy
 N  N1  1  0.50000  0.00000  0.82505  1
 N  N2  1  0.00000  0.50000  0.17495  1
 N  N3  1  0.50000  0.50000  0.50000  1
 N  N4  1  0.00000  0.00000  0.50000  1
 Sr  Sr1  1  0.50000  0.00000  0.16248  1
 Sr  Sr2  1  0.00000  0.50000  0.83752  1
 Ti  Ti1  1  0.00000  0.50000  0.41337  1
 Ti  Ti2  1  0.50000  0.00000  0.58663  1
