CIF file written using JARVIS-Tools package.
data_NaMnO2
_symmetry_space_group_name_H-M  'C2/m'
_cell_length_a       2.85244
_cell_length_b       3.17575
_cell_length_c       5.6402
_cell_angle_alpha    80.857
_cell_angle_beta     90
_cell_angle_gamma    116.686

_symmetry_Int_Tables_number  12
_chemical_formula_structural  NaMnO2
_chemical_formula_sum  NaMnO2
_cell_volume  44.92275434299729
_cell_formula_units_Z  1
loop_
  _symmetry_equiv_pos_site_id
 _symmetry_equiv_pos_as_xyz
 1  'x, y, z'
loop_
 _atom_site_type_symbol
 _atom_site_label
 _atom_site_symmetry_multiplicity
 _atom_site_fract_x
 _atom_site_fract_y
 _atom_site_fract_z
 _atom_site_fract_occupancy
 Mn  Mn1  1  -0.00002  0.00000  0.00000  1
 Na  Na1  1  0.99997  -0.00000  0.50000  1
 O  O1  1  0.35572  0.71148  0.20753  1
 O  O2  1  0.64424  0.28852  0.79247  1
