CIF file written using JARVIS-Tools package.
data_Mg2NiH4
_symmetry_space_group_name_H-M  'C2/c'
_cell_length_a       7.87754
_cell_length_b       7.87754
_cell_length_c       6.4733
_cell_angle_alpha    68.6086
_cell_angle_beta     111.391
_cell_angle_gamma    132.237

_symmetry_Int_Tables_number  15
_chemical_formula_structural  Mg2NiH4
_chemical_formula_sum  Mg8Ni4H6
_cell_volume  272.7235409098844
_cell_formula_units_Z  4
loop_
  _symmetry_equiv_pos_site_id
 _symmetry_equiv_pos_as_xyz
 1  'x, y, z'
loop_
 _atom_site_type_symbol
 _atom_site_label
 _atom_site_symmetry_multiplicity
 _atom_site_fract_x
 _atom_site_fract_y
 _atom_site_fract_z
 _atom_site_fract_occupancy
 H  H1  1  0.13875  0.89093  0.56900  1
 H  H2  1  0.90798  0.48600  0.80310  1
 H  H3  1  0.86125  0.10907  0.43100  1
 H  H4  1  0.09202  0.51400  0.19690  1
 H  H5  1  0.51400  0.09202  0.30310  1
 H  H6  1  0.81415  0.53571  0.37547  1
 H  H7  1  0.53571  0.81415  0.12453  1
 H  H8  1  0.48600  0.90798  0.69690  1
 H  H9  1  0.46429  0.18585  0.87547  1
 H  H10  1  0.71661  0.69146  0.56095  1
 H  H11  1  0.69146  0.71661  0.93905  1
 H  H12  1  0.28339  0.30854  0.43905  1
 H  H13  1  0.30854  0.28339  0.06095  1
 H  H14  1  0.10907  0.86125  0.06900  1
 H  H15  1  0.89093  0.13875  0.93100  1
 H  H16  1  0.18585  0.46429  0.62453  1
 Mg  Mg1  1  0.53182  0.53182  0.25000  1
 Mg  Mg2  1  0.46818  0.46818  0.75000  1
 Mg  Mg3  1  0.03101  0.03101  0.25000  1
 Mg  Mg4  1  0.96899  0.96899  0.75000  1
 Mg  Mg5  1  0.75293  0.22357  0.08269  1
 Mg  Mg6  1  0.22357  0.75293  0.41731  1
 Mg  Mg7  1  0.24707  0.77643  0.91731  1
 Mg  Mg8  1  0.77643  0.24707  0.58269  1
 Ni  Ni1  1  0.89187  0.65072  0.57811  1
 Ni  Ni2  1  0.65072  0.89187  0.92189  1
 Ni  Ni3  1  0.10813  0.34928  0.42189  1
 Ni  Ni4  1  0.34928  0.10813  0.07811  1
