CIF file written using JARVIS-Tools package.
data_Li3Cu4O4
_symmetry_space_group_name_H-M  'Imm2'
_cell_length_a       3.64151
_cell_length_b       6.3199
_cell_length_c       6.31987
_cell_angle_alpha    93.4687
_cell_angle_beta     106.746
_cell_angle_gamma    73.254

_symmetry_Int_Tables_number  44
_chemical_formula_structural  Li3Cu4O4
_chemical_formula_sum  Li3Cu4O4
_cell_volume  133.33061920715016
_cell_formula_units_Z  1
loop_
  _symmetry_equiv_pos_site_id
 _symmetry_equiv_pos_as_xyz
 1  'x, y, z'
loop_
 _atom_site_type_symbol
 _atom_site_label
 _atom_site_symmetry_multiplicity
 _atom_site_fract_x
 _atom_site_fract_y
 _atom_site_fract_z
 _atom_site_fract_occupancy
 Cu  Cu1  1  0.08882  0.81487  0.49247  1
 Cu  Cu2  1  0.42556  0.47396  0.82535  1
 Cu  Cu3  1  0.08882  0.50753  0.18513  1
 Cu  Cu4  1  0.42556  0.17465  0.52604  1
 Li  Li1  1  0.74184  0.86138  0.84511  1
 Li  Li2  1  0.35566  0.89434  0.10566  1
 Li  Li3  1  0.74184  0.15489  0.13862  1
 O  O1  1  0.26011  0.77463  0.79490  1
 O  O2  1  0.93488  0.81513  0.18488  1
 O  O3  1  0.57506  0.17480  0.82520  1
 O  O4  1  0.26010  0.20510  0.22537  1
