CIF file written using JARVIS-Tools package.
data_Zn2CoN2
_symmetry_space_group_name_H-M  'C2/m'
_cell_length_a       3.5086
_cell_length_b       6.7095
_cell_length_c       5.88728
_cell_angle_alpha    70.2456
_cell_angle_beta     72.68
_cell_angle_gamma    74.8529

_symmetry_Int_Tables_number  12
_chemical_formula_structural  Zn2CoN2
_chemical_formula_sum  Zn4Co2N4
_cell_volume  122.51445636697483
_cell_formula_units_Z  2
loop_
  _symmetry_equiv_pos_site_id
 _symmetry_equiv_pos_as_xyz
 1  'x, y, z'
loop_
 _atom_site_type_symbol
 _atom_site_label
 _atom_site_symmetry_multiplicity
 _atom_site_fract_x
 _atom_site_fract_y
 _atom_site_fract_z
 _atom_site_fract_occupancy
 Co  Co1  1  0.38325  0.10618  0.13194  1
 Co  Co2  1  0.61979  0.89432  0.87052  1
 N  N1  1  0.20247  0.35309  0.24642  1
 N  N2  1  0.80056  0.64742  0.75603  1
 N  N3  1  0.48493  0.81252  0.22118  1
 N  N4  1  0.51811  0.18799  0.78128  1
 Zn  Zn1  1  0.65316  0.49727  0.20097  1
 Zn  Zn2  1  0.34987  0.50324  0.80146  1
 Zn  Zn3  1  0.11621  0.17414  0.59858  1
 Zn  Zn4  1  0.88684  0.82636  0.40387  1
