CIF file written using JARVIS-Tools package.
data_CdH20C12O4
_symmetry_space_group_name_H-M  'P1'
_cell_length_a       4.00933
_cell_length_b       4.32349
_cell_length_c       16.8557
_cell_angle_alpha    89.5338
_cell_angle_beta     89.4781
_cell_angle_gamma    75.625

_symmetry_Int_Tables_number  1
_chemical_formula_structural  CdH20C12O4
_chemical_formula_sum  CdH20C2O4
_cell_volume  283.01648767699777
_cell_formula_units_Z  1
loop_
  _symmetry_equiv_pos_site_id
 _symmetry_equiv_pos_as_xyz
 1  'x, y, z'
loop_
 _atom_site_type_symbol
 _atom_site_label
 _atom_site_symmetry_multiplicity
 _atom_site_fract_x
 _atom_site_fract_y
 _atom_site_fract_z
 _atom_site_fract_occupancy
 C  C1  1  0.29453  0.61837  0.38597  1
 C  C2  1  0.73881  0.34110  0.74842  1
 C  C3  1  0.67154  0.54750  0.67453  1
 C  C4  1  0.49587  0.57391  0.52973  1
 C  C5  1  0.41369  0.39786  0.45701  1
 C  C6  1  0.59899  0.35906  0.60244  1
 C  C7  1  0.20621  0.44818  0.31285  1
 C  C8  1  0.07273  0.67618  0.24397  1
 C  C9  1  0.97419  0.51475  0.17042  1
 C  C10  1  0.80351  0.75511  0.10688  1
 C  C11  1  0.65909  0.60852  0.03543  1
 C  C12  1  0.90510  0.53230  0.96561  1
 Cd  Cd1  1  0.32507  0.95354  0.85715  1
 H  H1  1  0.26816  0.76849  0.54503  1
 H  H2  1  0.45103  0.75222  0.68521  1
 H  H3  1  0.06570  0.80741  0.40371  1
 H  H4  1  0.89956  0.64085  0.66288  1
 H  H5  1  0.84413  0.85909  0.26464  1
 H  H6  1  0.70270  0.69304  0.51478  1
 H  H7  1  0.82886  0.16515  0.58887  1
 H  H8  1  0.42621  0.78218  0.01545  1
 H  H9  1  0.20292  0.34506  0.14552  1
 H  H10  1  0.79415  0.36985  0.18816  1
 H  H11  1  0.43629  0.26441  0.29344  1
 H  H12  1  0.49472  0.74428  0.37022  1
 H  H13  1  0.01119  0.31702  0.32910  1
 H  H14  1  0.21283  0.27266  0.47276  1
 H  H15  1  0.58757  0.38917  0.05367  1
 H  H16  1  0.39101  0.24222  0.61768  1
 H  H17  1  0.97910  0.89912  0.08615  1
 H  H18  1  0.58456  0.92638  0.13499  1
 H  H19  1  0.26621  0.80887  0.22785  1
 H  H20  1  0.64339  0.20854  0.44001  1
 O  O1  1  -0.00206  0.10128  0.74787  1
 O  O2  1  0.13578  0.27353  0.96553  1
 O  O3  1  0.52827  0.40754  0.80737  1
 O  O4  1  0.87120  0.74399  0.90943  1
