CIF file written using JARVIS-Tools package.
data_Sr2Mg
_symmetry_space_group_name_H-M  'I4/mcm'
_cell_length_a       7.00823
_cell_length_b       7.00823
_cell_length_c       7.00823
_cell_angle_alpha    104.384
_cell_angle_beta     104.384
_cell_angle_gamma    120.21

_symmetry_Int_Tables_number  140
_chemical_formula_structural  Sr2Mg
_chemical_formula_sum  Sr4Mg2
_cell_volume  257.8825151584155
_cell_formula_units_Z  2
loop_
  _symmetry_equiv_pos_site_id
 _symmetry_equiv_pos_as_xyz
 1  'x, y, z'
loop_
 _atom_site_type_symbol
 _atom_site_label
 _atom_site_symmetry_multiplicity
 _atom_site_fract_x
 _atom_site_fract_y
 _atom_site_fract_z
 _atom_site_fract_occupancy
 Mg  Mg1  1  0.25000  0.25000  0.00000  1
 Mg  Mg2  1  0.75000  0.75000  0.00000  1
 Sr  Sr1  1  0.66572  0.83428  0.50000  1
 Sr  Sr2  1  0.33428  0.16572  0.50000  1
 Sr  Sr3  1  0.16572  0.66572  0.83143  1
 Sr  Sr4  1  0.83428  0.33428  0.16857  1
