CIF file written using JARVIS-Tools package.
data_Rb2PtSe2
_symmetry_space_group_name_H-M  'Immm'
_cell_length_a       3.82697
_cell_length_b       6.60376
_cell_length_c       6.60376
_cell_angle_alpha    69.8346
_cell_angle_beta     73.1567
_cell_angle_gamma    73.1567

_symmetry_Int_Tables_number  71
_chemical_formula_structural  Rb2PtSe2
_chemical_formula_sum  Rb2PtSe2
_cell_volume  146.5550343675118
_cell_formula_units_Z  1
loop_
  _symmetry_equiv_pos_site_id
 _symmetry_equiv_pos_as_xyz
 1  'x, y, z'
loop_
 _atom_site_type_symbol
 _atom_site_label
 _atom_site_symmetry_multiplicity
 _atom_site_fract_x
 _atom_site_fract_y
 _atom_site_fract_z
 _atom_site_fract_occupancy
 Pt  Pt1  1  0.00000  0.00000  0.00000  1
 Rb  Rb1  1  0.19792  0.30208  0.30208  1
 Rb  Rb2  1  0.80208  0.69792  0.69792  1
 Se  Se1  1  0.50000  0.78310  0.21690  1
 Se  Se2  1  0.50000  0.21690  0.78310  1
