CIF file written using JARVIS-Tools package.
data_TaI2O
_symmetry_space_group_name_H-M  'C2/m'
_cell_length_a       3.89676
_cell_length_b       7.49868
_cell_length_c       8.00314
_cell_angle_alpha    104.841
_cell_angle_beta     104.09
_cell_angle_gamma    90

_symmetry_Int_Tables_number  12
_chemical_formula_structural  TaI2O
_chemical_formula_sum  Ta2I4O2
_cell_volume  218.7687788351847
_cell_formula_units_Z  2
loop_
  _symmetry_equiv_pos_site_id
 _symmetry_equiv_pos_as_xyz
 1  'x, y, z'
loop_
 _atom_site_type_symbol
 _atom_site_label
 _atom_site_symmetry_multiplicity
 _atom_site_fract_x
 _atom_site_fract_y
 _atom_site_fract_z
 _atom_site_fract_occupancy
 I  I1  1  0.87332  0.93184  0.74664  1
 I  I2  1  0.12668  0.06816  0.25336  1
 I  I3  1  0.84515  0.41333  0.69030  1
 I  I4  1  0.15485  0.58667  0.30970  1
 O  O1  1  0.50074  0.28702  0.00148  1
 O  O2  1  0.49926  0.71298  0.99852  1
 Ta  Ta1  1  0.00046  0.29383  0.00091  1
 Ta  Ta2  1  0.99954  0.70617  0.99909  1
