CIF file written using JARVIS-Tools package.
data_LiBeAs
_symmetry_space_group_name_H-M  'P4/nmm'
_cell_length_a       3.74378
_cell_length_b       3.74378
_cell_length_c       6.18242
_cell_angle_alpha    90
_cell_angle_beta     90
_cell_angle_gamma    90

_symmetry_Int_Tables_number  129
_chemical_formula_structural  LiBeAs
_chemical_formula_sum  Li2Be2As2
_cell_volume  86.65229168721524
_cell_formula_units_Z  2
loop_
  _symmetry_equiv_pos_site_id
 _symmetry_equiv_pos_as_xyz
 1  'x, y, z'
loop_
 _atom_site_type_symbol
 _atom_site_label
 _atom_site_symmetry_multiplicity
 _atom_site_fract_x
 _atom_site_fract_y
 _atom_site_fract_z
 _atom_site_fract_occupancy
 As  As1  1  0.50000  0.00000  0.77551  1
 As  As2  1  0.00000  0.50000  0.22449  1
 Be  Be1  1  0.50000  0.50000  0.00000  1
 Be  Be2  1  0.00000  0.00000  0.00000  1
 Li  Li1  1  0.50000  0.00000  0.35069  1
 Li  Li2  1  0.00000  0.50000  0.64931  1
