CIF file written using JARVIS-Tools package.
data_TeF6
_symmetry_space_group_name_H-M  'Pnma'
_cell_length_a       4.99172
_cell_length_b       8.60609
_cell_length_c       9.4755
_cell_angle_alpha    90
_cell_angle_beta     90
_cell_angle_gamma    90

_symmetry_Int_Tables_number  62
_chemical_formula_structural  TeF6
_chemical_formula_sum  Te4F24
_cell_volume  407.06034960275576
_cell_formula_units_Z  4
loop_
  _symmetry_equiv_pos_site_id
 _symmetry_equiv_pos_as_xyz
 1  'x, y, z'
loop_
 _atom_site_type_symbol
 _atom_site_label
 _atom_site_symmetry_multiplicity
 _atom_site_fract_x
 _atom_site_fract_y
 _atom_site_fract_z
 _atom_site_fract_occupancy
 F  F1  1  0.74878  0.90332  0.01585  1
 F  F2  1  0.56592  0.40297  0.26120  1
 F  F3  1  0.06592  0.59703  0.23880  1
 F  F4  1  0.43408  0.90297  0.73880  1
 F  F5  1  0.93408  0.09703  0.76120  1
 F  F6  1  0.20672  0.75000  0.00854  1
 F  F7  1  0.70672  0.25000  0.49146  1
 F  F8  1  0.79328  0.25000  0.99146  1
 F  F9  1  0.29328  0.75000  0.50854  1
 F  F10  1  0.60805  0.75000  0.24460  1
 F  F11  1  0.93408  0.40297  0.76120  1
 F  F12  1  0.10805  0.25000  0.25540  1
 F  F13  1  0.89195  0.75000  0.74460  1
 F  F14  1  0.43408  0.59703  0.73880  1
 F  F15  1  0.24878  0.09668  0.48415  1
 F  F16  1  0.25122  0.40332  0.98415  1
 F  F17  1  0.75122  0.59668  0.51585  1
 F  F18  1  0.25122  0.09668  0.98415  1
 F  F19  1  0.75122  0.90332  0.51585  1
 F  F20  1  0.74878  0.59668  0.01585  1
 F  F21  1  0.24878  0.40332  0.48415  1
 F  F22  1  0.06592  0.90297  0.23880  1
 F  F23  1  0.56592  0.09703  0.26120  1
 F  F24  1  0.39195  0.25000  0.75540  1
 Te  Te1  1  0.90813  0.75000  0.12696  1
 Te  Te2  1  0.40813  0.25000  0.37304  1
 Te  Te3  1  0.09187  0.25000  0.87304  1
 Te  Te4  1  0.59187  0.75000  0.62696  1
