CIF file written using JARVIS-Tools package.
data_H3C5S2NO
_symmetry_space_group_name_H-M  'P1'
_cell_length_a       5.42989
_cell_length_b       6.5011
_cell_length_c       9.06908
_cell_angle_alpha    80.593
_cell_angle_beta     74.2341
_cell_angle_gamma    80.5856

_symmetry_Int_Tables_number  1
_chemical_formula_structural  H3C5S2NO
_chemical_formula_sum  H6C0S4N2O2
_cell_volume  301.55052659385376
_cell_formula_units_Z  2
loop_
  _symmetry_equiv_pos_site_id
 _symmetry_equiv_pos_as_xyz
 1  'x, y, z'
loop_
 _atom_site_type_symbol
 _atom_site_label
 _atom_site_symmetry_multiplicity
 _atom_site_fract_x
 _atom_site_fract_y
 _atom_site_fract_z
 _atom_site_fract_occupancy
 C  C1  1  0.84722  0.48487  0.09111  1
 C  C2  1  0.57107  0.06770  0.51500  1
 C  C3  1  0.24894  0.88488  0.49515  1
 C  C4  1  0.74894  0.38488  0.99515  1
 C  C5  1  0.34722  0.98487  0.59111  1
 C  C6  1  0.07107  0.56770  0.01500  1
 C  C7  1  0.24643  0.67135  0.21134  1
 C  C8  1  0.74643  0.17135  0.71134  1
 C  C9  1  0.90316  0.39340  0.84767  1
 C  C10  1  0.40316  0.89340  0.34767  1
 H  H1  1  0.07107  0.81425  0.53336  1
 H  H2  1  0.78071  0.31699  0.49349  1
 H  H3  1  0.75123  0.50061  0.21108  1
 H  H4  1  0.25123  0.00061  0.71108  1
 H  H5  1  0.57107  0.31425  0.03336  1
 H  H6  1  0.28071  0.81699  0.99349  1
 N  N1  1  0.70509  0.19341  0.56854  1
 N  N2  1  0.20509  0.69341  0.06854  1
 O  O1  1  0.36391  0.84386  0.21494  1
 O  O2  1  0.86391  0.34386  0.71494  1
 S  S1  1  0.67529  0.01620  0.32349  1
 S  S2  1  0.17529  0.51620  0.82349  1
 S  S3  1  0.68715  0.97707  0.85257  1
 S  S4  1  0.18715  0.47707  0.35257  1
