CIF file written using JARVIS-Tools package.
data_K4BeP2
_symmetry_space_group_name_H-M  'R-3m'
_cell_length_a       8.9558
_cell_length_b       8.9558
_cell_length_c       8.9558
_cell_angle_alpha    36.0421
_cell_angle_beta     36.042
_cell_angle_gamma    36.0421

_symmetry_Int_Tables_number  166
_chemical_formula_structural  K4BeP2
_chemical_formula_sum  K4BeP2
_cell_volume  222.4359130619719
_cell_formula_units_Z  1
loop_
  _symmetry_equiv_pos_site_id
 _symmetry_equiv_pos_as_xyz
 1  'x, y, z'
loop_
 _atom_site_type_symbol
 _atom_site_label
 _atom_site_symmetry_multiplicity
 _atom_site_fract_x
 _atom_site_fract_y
 _atom_site_fract_z
 _atom_site_fract_occupancy
 Be  Be1  1  0.00000  0.00000  0.00000  1
 K  K1  1  0.62343  0.62343  0.62343  1
 K  K2  1  0.37657  0.37657  0.37657  1
 K  K3  1  0.79137  0.79137  0.79137  1
 K  K4  1  0.20863  0.20863  0.20863  1
 P  P1  1  0.92061  0.92061  0.92061  1
 P  P2  1  0.07939  0.07939  0.07939  1
