CIF file written using JARVIS-Tools package.
data_Na2SiF6
_symmetry_space_group_name_H-M  'P-3m1'
_cell_length_a       9.2417
_cell_length_b       9.2417
_cell_length_c       4.49458
_cell_angle_alpha    90
_cell_angle_beta     90
_cell_angle_gamma    120

_symmetry_Int_Tables_number  164
_chemical_formula_structural  Na2SiF6
_chemical_formula_sum  Na6Si3F8
_cell_volume  332.44815639143764
_cell_formula_units_Z  3
loop_
  _symmetry_equiv_pos_site_id
 _symmetry_equiv_pos_as_xyz
 1  'x, y, z'
loop_
 _atom_site_type_symbol
 _atom_site_label
 _atom_site_symmetry_multiplicity
 _atom_site_fract_x
 _atom_site_fract_y
 _atom_site_fract_z
 _atom_site_fract_occupancy
 F  F1  1  0.91081  0.82163  0.21400  1
 F  F2  1  0.57812  0.42188  0.28392  1
 F  F3  1  0.84375  0.42188  0.28392  1
 F  F4  1  0.57812  0.15625  0.28392  1
 F  F5  1  0.42188  0.84375  0.71608  1
 F  F6  1  0.51033  0.75516  0.27909  1
 F  F7  1  0.42188  0.57812  0.71608  1
 F  F8  1  0.75516  0.24484  0.72091  1
 F  F9  1  0.15625  0.57812  0.71608  1
 F  F10  1  0.75516  0.51033  0.72091  1
 F  F11  1  0.82163  0.91081  0.78600  1
 F  F12  1  0.08919  0.17837  0.78600  1
 F  F13  1  0.48967  0.24484  0.72091  1
 F  F14  1  0.24484  0.48967  0.27909  1
 F  F15  1  0.91081  0.08919  0.21400  1
 F  F16  1  0.24484  0.75516  0.27909  1
 F  F17  1  0.08919  0.91081  0.78600  1
 F  F18  1  0.17837  0.08919  0.21400  1
 Na  Na1  1  -0.00000  0.65664  0.00000  1
 Na  Na2  1  0.65664  -0.00000  0.00000  1
 Na  Na3  1  0.34336  0.34336  0.00000  1
 Na  Na4  1  0.00000  0.34336  0.00000  1
 Na  Na5  1  0.34336  0.00000  0.00000  1
 Na  Na6  1  0.65664  0.65664  0.00000  1
 Si  Si1  1  0.66667  0.33333  0.50292  1
 Si  Si2  1  0.00000  0.00000  0.00000  1
 Si  Si3  1  0.33333  0.66667  0.49708  1
