CIF file written using JARVIS-Tools package.
data_U3H2O10
_symmetry_space_group_name_H-M  'P1'
_cell_length_a       5.48647
_cell_length_b       5.83296
_cell_length_c       7.30889
_cell_angle_alpha    75.1462
_cell_angle_beta     72.5229
_cell_angle_gamma    74.0252

_symmetry_Int_Tables_number  1
_chemical_formula_structural  U3H2O10
_chemical_formula_sum  U3H2O0
_cell_volume  210.60536317545856
_cell_formula_units_Z  1
loop_
  _symmetry_equiv_pos_site_id
 _symmetry_equiv_pos_as_xyz
 1  'x, y, z'
loop_
 _atom_site_type_symbol
 _atom_site_label
 _atom_site_symmetry_multiplicity
 _atom_site_fract_x
 _atom_site_fract_y
 _atom_site_fract_z
 _atom_site_fract_occupancy
 H  H1  1  0.89771  0.27518  0.40850  1
 H  H2  1  -0.00570  0.66091  0.62196  1
 O  O1  1  0.88495  0.07642  0.76315  1
 O  O2  1  0.09224  0.91465  0.24266  1
 O  O3  1  0.70288  0.31577  0.44962  1
 O  O4  1  0.30604  0.63817  0.56566  1
 O  O5  1  0.29348  0.67686  0.95940  1
 O  O6  1  0.69198  0.31752  0.03865  1
 O  O7  1  0.67891  0.76962  0.15156  1
 O  O8  1  0.29908  0.21664  0.86497  1
 O  O9  1  0.80398  0.64325  0.65757  1
 O  O10  1  0.20752  0.35151  0.34253  1
 U  U1  1  0.98993  -0.00441  0.00230  1
 U  U2  1  0.54358  0.43458  0.74941  1
 U  U3  1  0.43450  0.55867  0.25937  1
