CIF file written using JARVIS-Tools package.
data_BaB2S4
_symmetry_space_group_name_H-M  'Cc'
_cell_length_a       6.05793
_cell_length_b       6.67483
_cell_length_c       8.57395
_cell_angle_alpha    67.0921
_cell_angle_beta     81.7709
_cell_angle_gamma    68.4255

_symmetry_Int_Tables_number  9
_chemical_formula_structural  BaB2S4
_chemical_formula_sum  Ba2B4S8
_cell_volume  296.97668416639044
_cell_formula_units_Z  2
loop_
  _symmetry_equiv_pos_site_id
 _symmetry_equiv_pos_as_xyz
 1  'x, y, z'
loop_
 _atom_site_type_symbol
 _atom_site_label
 _atom_site_symmetry_multiplicity
 _atom_site_fract_x
 _atom_site_fract_y
 _atom_site_fract_z
 _atom_site_fract_occupancy
 B  B1  1  0.55633  0.54765  0.96039  1
 B  B2  1  0.05633  0.50804  0.03961  1
 B  B3  1  0.87240  0.13154  0.26695  1
 B  B4  1  0.37240  0.39848  0.73305  1
 Ba  Ba1  1  0.96621  0.10540  0.69274  1
 Ba  Ba2  1  0.46621  0.79814  0.30726  1
 S  S1  1  0.74063  0.72237  0.96974  1
 S  S2  1  0.04667  0.30171  0.27351  1
 S  S3  1  0.42575  0.28566  0.56798  1
 S  S4  1  0.92575  0.85364  0.43202  1
 S  S5  1  0.67409  0.21733  0.09460  1
 S  S6  1  0.17409  0.31192  0.90540  1
 S  S7  1  0.54667  0.57522  0.72649  1
 S  S8  1  0.24063  0.69211  0.03026  1
