CIF file written using JARVIS-Tools package.
data_NdZnPO
_symmetry_space_group_name_H-M  'R-3m'
_cell_length_a       10.6687
_cell_length_b       10.6687
_cell_length_c       10.6687
_cell_angle_alpha    21.6095
_cell_angle_beta     21.6095
_cell_angle_gamma    21.6096

_symmetry_Int_Tables_number  166
_chemical_formula_structural  NdZnPO
_chemical_formula_sum  Nd2Zn2P2O2
_cell_volume  144.32311025597699
_cell_formula_units_Z  2
loop_
  _symmetry_equiv_pos_site_id
 _symmetry_equiv_pos_as_xyz
 1  'x, y, z'
loop_
 _atom_site_type_symbol
 _atom_site_label
 _atom_site_symmetry_multiplicity
 _atom_site_fract_x
 _atom_site_fract_y
 _atom_site_fract_z
 _atom_site_fract_occupancy
 Nd  Nd1  1  0.61874  0.61874  0.61874  1
 Nd  Nd2  1  0.38126  0.38126  0.38126  1
 O  O1  1  0.69492  0.69492  0.69492  1
 O  O2  1  0.30508  0.30508  0.30508  1
 P  P1  1  0.11395  0.11395  0.11395  1
 P  P2  1  0.88605  0.88605  0.88605  1
 Zn  Zn1  1  0.19646  0.19646  0.19646  1
 Zn  Zn2  1  0.80354  0.80354  0.80354  1
