CIF file written using JARVIS-Tools package.
data_NiSnH12O6F6
_symmetry_space_group_name_H-M  'R-3'
_cell_length_a       6.49676
_cell_length_b       6.49676
_cell_length_c       6.49676
_cell_angle_alpha    95.6944
_cell_angle_beta     95.6944
_cell_angle_gamma    95.6944

_symmetry_Int_Tables_number  148
_chemical_formula_structural  NiSnH12O6F6
_chemical_formula_sum  NiSnH2O6F6
_cell_volume  269.86307217899065
_cell_formula_units_Z  1
loop_
  _symmetry_equiv_pos_site_id
 _symmetry_equiv_pos_as_xyz
 1  'x, y, z'
loop_
 _atom_site_type_symbol
 _atom_site_label
 _atom_site_symmetry_multiplicity
 _atom_site_fract_x
 _atom_site_fract_y
 _atom_site_fract_z
 _atom_site_fract_occupancy
 F  F1  1  0.26624  0.14882  0.93298  1
 F  F2  1  0.14882  0.93298  0.26624  1
 F  F3  1  0.73376  0.85118  0.06702  1
 F  F4  1  0.06702  0.73376  0.85118  1
 F  F5  1  0.85118  0.06702  0.73376  1
 F  F6  1  0.93298  0.26624  0.14882  1
 H  H1  1  0.65493  0.80862  0.30949  1
 H  H2  1  0.54958  0.67819  0.89880  1
 H  H3  1  0.32181  0.10120  0.45042  1
 H  H4  1  0.89880  0.54958  0.67819  1
 H  H5  1  0.45042  0.32181  0.10120  1
 H  H6  1  0.67819  0.89880  0.54958  1
 H  H7  1  0.80862  0.30949  0.65493  1
 H  H8  1  0.34507  0.19138  0.69051  1
 H  H9  1  0.19138  0.69051  0.34507  1
 H  H10  1  0.69051  0.34507  0.19138  1
 H  H11  1  0.30949  0.65493  0.80862  1
 H  H12  1  0.10120  0.45042  0.32181  1
 Ni  Ni1  1  0.50000  0.50000  0.50000  1
 O  O1  1  0.44217  0.59461  0.79826  1
 O  O2  1  0.55783  0.40539  0.20174  1
 O  O3  1  0.40539  0.20174  0.55783  1
 O  O4  1  0.59461  0.79826  0.44217  1
 O  O5  1  0.20174  0.55783  0.40539  1
 O  O6  1  0.79826  0.44217  0.59461  1
 Sn  Sn1  1  0.00000  0.00000  0.00000  1
