CIF file written using JARVIS-Tools package.
data_Nd3NbO7
_symmetry_space_group_name_H-M  'Cmcm'
_cell_length_a       6.67128
_cell_length_b       6.67128
_cell_length_c       7.72665
_cell_angle_alpha    90
_cell_angle_beta     90
_cell_angle_gamma    111.481

_symmetry_Int_Tables_number  63
_chemical_formula_structural  Nd3NbO7
_chemical_formula_sum  Nd6Nb2O4
_cell_volume  319.9951097325364
_cell_formula_units_Z  2
loop_
  _symmetry_equiv_pos_site_id
 _symmetry_equiv_pos_as_xyz
 1  'x, y, z'
loop_
 _atom_site_type_symbol
 _atom_site_label
 _atom_site_symmetry_multiplicity
 _atom_site_fract_x
 _atom_site_fract_y
 _atom_site_fract_z
 _atom_site_fract_occupancy
 Nb  Nb1  1  0.50000  0.50000  0.50000  1
 Nb  Nb2  1  0.50000  0.50000  0.00000  1
 Nd  Nd1  1  0.92616  0.47568  0.75000  1
 Nd  Nd2  1  0.00000  0.00000  0.00000  1
 Nd  Nd3  1  0.00000  0.00000  0.50000  1
 Nd  Nd4  1  0.52432  0.07384  0.25000  1
 Nd  Nd5  1  0.47568  0.92616  0.75000  1
 Nd  Nd6  1  0.07384  0.52432  0.25000  1
 O  O1  1  0.42384  0.42384  0.25000  1
 O  O2  1  0.10616  0.84442  0.75000  1
 O  O3  1  0.89384  0.15558  0.25000  1
 O  O4  1  0.84442  0.10616  0.75000  1
 O  O5  1  0.15558  0.89384  0.25000  1
 O  O6  1  0.18393  0.43839  0.96258  1
 O  O7  1  0.81607  0.56161  0.03742  1
 O  O8  1  0.43839  0.18393  0.96258  1
 O  O9  1  0.57616  0.57616  0.75000  1
 O  O10  1  0.56161  0.81607  0.46258  1
 O  O11  1  0.56161  0.81607  0.03742  1
 O  O12  1  0.43839  0.18393  0.53742  1
 O  O13  1  0.81607  0.56161  0.46258  1
 O  O14  1  0.18393  0.43839  0.53742  1
