CIF file written using JARVIS-Tools package.
data_Hg2GeSe4
_symmetry_space_group_name_H-M  'I-4'
_cell_length_a       5.79069
_cell_length_b       5.79069
_cell_length_c       7.02047
_cell_angle_alpha    114.357
_cell_angle_beta     114.357
_cell_angle_gamma    90

_symmetry_Int_Tables_number  82
_chemical_formula_structural  Hg2GeSe4
_chemical_formula_sum  Hg2GeSe4
_cell_volume  191.22418403366487
_cell_formula_units_Z  1
loop_
  _symmetry_equiv_pos_site_id
 _symmetry_equiv_pos_as_xyz
 1  'x, y, z'
loop_
 _atom_site_type_symbol
 _atom_site_label
 _atom_site_symmetry_multiplicity
 _atom_site_fract_x
 _atom_site_fract_y
 _atom_site_fract_z
 _atom_site_fract_occupancy
 Ge  Ge1  1  0.75000  0.25000  0.50000  1
 Hg  Hg1  1  0.50000  0.50000  -0.00000  1
 Hg  Hg2  1  0.25000  0.75000  0.50000  1
 Se  Se1  1  0.07159  0.64732  0.76649  1
 Se  Se2  1  0.88083  0.92841  0.23351  1
 Se  Se3  1  0.69489  0.11917  0.76649  1
 Se  Se4  1  0.35268  0.30511  0.23351  1
