CIF file written using JARVIS-Tools package.
data_CdHg2
_symmetry_space_group_name_H-M  'I4/mmm'
_cell_length_a       3.95969
_cell_length_b       3.95969
_cell_length_c       5.59874
_cell_angle_alpha    110.709
_cell_angle_beta     110.709
_cell_angle_gamma    90

_symmetry_Int_Tables_number  139
_chemical_formula_structural  CdHg2
_chemical_formula_sum  CdHg2
_cell_volume  76.01784224435559
_cell_formula_units_Z  1
loop_
  _symmetry_equiv_pos_site_id
 _symmetry_equiv_pos_as_xyz
 1  'x, y, z'
loop_
 _atom_site_type_symbol
 _atom_site_label
 _atom_site_symmetry_multiplicity
 _atom_site_fract_x
 _atom_site_fract_y
 _atom_site_fract_z
 _atom_site_fract_occupancy
 Cd  Cd1  1  0.00000  0.00000  0.00000  1
 Hg  Hg1  1  0.33607  0.33607  0.67214  1
 Hg  Hg2  1  0.66393  0.66393  0.32786  1
