CIF file written using JARVIS-Tools package.
data_Rb6Br4O
_symmetry_space_group_name_H-M  'R-3c'
_cell_length_a       9.26701
_cell_length_b       9.26701
_cell_length_c       9.26702
_cell_angle_alpha    88.3633
_cell_angle_beta     88.3632
_cell_angle_gamma    88.3633

_symmetry_Int_Tables_number  167
_chemical_formula_structural  Rb6Br4O
_chemical_formula_sum  Rb2Br8O2
_cell_volume  794.8721643946453
_cell_formula_units_Z  2
loop_
  _symmetry_equiv_pos_site_id
 _symmetry_equiv_pos_as_xyz
 1  'x, y, z'
loop_
 _atom_site_type_symbol
 _atom_site_label
 _atom_site_symmetry_multiplicity
 _atom_site_fract_x
 _atom_site_fract_y
 _atom_site_fract_z
 _atom_site_fract_occupancy
 Br  Br1  1  0.75000  0.75000  0.75000  1
 Br  Br2  1  0.25000  0.25000  0.25000  1
 Br  Br3  1  0.37857  0.75000  0.12143  1
 Br  Br4  1  0.75000  0.12143  0.37857  1
 Br  Br5  1  0.12143  0.37857  0.75000  1
 Br  Br6  1  0.62143  0.25000  0.87857  1
 Br  Br7  1  0.25000  0.87857  0.62143  1
 Br  Br8  1  0.87857  0.62143  0.25000  1
 O  O1  1  0.50000  0.50000  0.50000  1
 O  O2  1  0.00000  0.00000  0.00000  1
 Rb  Rb1  1  0.27953  0.07027  0.93929  1
 Rb  Rb2  1  0.22047  0.56071  0.42973  1
 Rb  Rb3  1  0.93929  0.27953  0.07027  1
 Rb  Rb4  1  0.07027  0.93929  0.27953  1
 Rb  Rb5  1  0.92973  0.06071  0.72047  1
 Rb  Rb6  1  0.77953  0.43929  0.57027  1
 Rb  Rb7  1  0.57027  0.77953  0.43929  1
 Rb  Rb8  1  0.43929  0.57027  0.77953  1
 Rb  Rb9  1  0.06071  0.72047  0.92973  1
 Rb  Rb10  1  0.72047  0.92973  0.06071  1
 Rb  Rb11  1  0.56071  0.42973  0.22047  1
 Rb  Rb12  1  0.42973  0.22047  0.56071  1
