CIF file written using JARVIS-Tools package.
data_ThUAl6
_symmetry_space_group_name_H-M  'P-6m2'
_cell_length_a       6.40625
_cell_length_b       6.40624
_cell_length_c       4.61438
_cell_angle_alpha    90
_cell_angle_beta     90
_cell_angle_gamma    120

_symmetry_Int_Tables_number  187
_chemical_formula_structural  ThUAl6
_chemical_formula_sum  ThUAl6
_cell_volume  164.00271051992294
_cell_formula_units_Z  1
loop_
  _symmetry_equiv_pos_site_id
 _symmetry_equiv_pos_as_xyz
 1  'x, y, z'
loop_
 _atom_site_type_symbol
 _atom_site_label
 _atom_site_symmetry_multiplicity
 _atom_site_fract_x
 _atom_site_fract_y
 _atom_site_fract_z
 _atom_site_fract_occupancy
 Al  Al1  1  0.18590  0.81410  0.00000  1
 Al  Al2  1  0.18590  0.37180  0.00000  1
 Al  Al3  1  0.62820  0.81410  0.00000  1
 Al  Al4  1  0.47586  0.52414  0.50000  1
 Al  Al5  1  0.47586  0.95171  0.50000  1
 Al  Al6  1  0.04829  0.52414  0.50000  1
 Th  Th1  1  0.66667  0.33333  0.00000  1
 U  U1  1  0.00000  0.00000  0.50000  1
