CIF file written using JARVIS-Tools package.
data_Sb5IO7
_symmetry_space_group_name_H-M  'P-62c'
_cell_length_a       6.83074
_cell_length_b       6.83074
_cell_length_c       12.5432
_cell_angle_alpha    90
_cell_angle_beta     90
_cell_angle_gamma    120

_symmetry_Int_Tables_number  190
_chemical_formula_structural  Sb5IO7
_chemical_formula_sum  Sb0I2O4
_cell_volume  506.84242613033393
_cell_formula_units_Z  2
loop_
  _symmetry_equiv_pos_site_id
 _symmetry_equiv_pos_as_xyz
 1  'x, y, z'
loop_
 _atom_site_type_symbol
 _atom_site_label
 _atom_site_symmetry_multiplicity
 _atom_site_fract_x
 _atom_site_fract_y
 _atom_site_fract_z
 _atom_site_fract_occupancy
 I  I1  1  0.00000  0.00000  0.50000  1
 I  I2  1  0.00000  0.00000  0.00000  1
 O  O1  1  0.05668  0.50044  0.86305  1
 O  O2  1  0.66667  0.33333  0.75000  1
 O  O3  1  0.94332  0.44376  0.36305  1
 O  O4  1  0.50044  0.05668  0.36305  1
 O  O5  1  0.44376  0.94332  0.63695  1
 O  O6  1  0.50044  0.05668  0.13695  1
 O  O7  1  0.55624  0.49956  0.36305  1
 O  O8  1  0.94332  0.44376  0.13695  1
 O  O9  1  0.49956  0.55624  0.86305  1
 O  O10  1  0.49956  0.55624  0.63695  1
 O  O11  1  0.05668  0.50044  0.63695  1
 O  O12  1  0.33333  0.66667  0.25000  1
 O  O13  1  0.55624  0.49956  0.13695  1
 O  O14  1  0.44376  0.94332  0.86305  1
 Sb  Sb1  1  0.64433  0.96493  0.25000  1
 Sb  Sb2  1  0.66667  0.33333  0.45616  1
 Sb  Sb3  1  0.33333  0.66667  0.95616  1
 Sb  Sb4  1  0.33333  0.66667  0.54384  1
 Sb  Sb5  1  0.96493  0.64433  0.75000  1
 Sb  Sb6  1  0.32060  0.35567  0.25000  1
 Sb  Sb7  1  0.03507  0.67940  0.25000  1
 Sb  Sb8  1  0.35567  0.32060  0.75000  1
 Sb  Sb9  1  0.67940  0.03507  0.75000  1
 Sb  Sb10  1  0.66667  0.33333  0.04384  1
