CIF file written using JARVIS-Tools package.
data_Zr3S2
_symmetry_space_group_name_H-M  'R32'
_cell_length_a       4.83866
_cell_length_b       4.83866
_cell_length_c       4.83866
_cell_angle_alpha    73.3425
_cell_angle_beta     73.3425
_cell_angle_gamma    73.3425

_symmetry_Int_Tables_number  155
_chemical_formula_structural  Zr3S2
_chemical_formula_sum  Zr3S2
_cell_volume  101.36412911990796
_cell_formula_units_Z  1
loop_
  _symmetry_equiv_pos_site_id
 _symmetry_equiv_pos_as_xyz
 1  'x, y, z'
loop_
 _atom_site_type_symbol
 _atom_site_label
 _atom_site_symmetry_multiplicity
 _atom_site_fract_x
 _atom_site_fract_y
 _atom_site_fract_z
 _atom_site_fract_occupancy
 S  S1  1  0.33565  0.33565  0.33565  1
 S  S2  1  0.66435  0.66435  0.66435  1
 Zr  Zr1  1  0.16019  0.83981  0.50000  1
 Zr  Zr2  1  0.50000  0.16019  0.83981  1
 Zr  Zr3  1  0.83981  0.50000  0.16019  1
