CIF file written using JARVIS-Tools package.
data_SnGeS3
_symmetry_space_group_name_H-M  'P2_1/c'
_cell_length_a       6.93142
_cell_length_b       10.205
_cell_length_c       7.31407
_cell_angle_alpha    90
_cell_angle_beta     105.207
_cell_angle_gamma    90

_symmetry_Int_Tables_number  14
_chemical_formula_structural  SnGeS3
_chemical_formula_sum  Sn4Ge4S2
_cell_volume  499.2474837094496
_cell_formula_units_Z  4
loop_
  _symmetry_equiv_pos_site_id
 _symmetry_equiv_pos_as_xyz
 1  'x, y, z'
loop_
 _atom_site_type_symbol
 _atom_site_label
 _atom_site_symmetry_multiplicity
 _atom_site_fract_x
 _atom_site_fract_y
 _atom_site_fract_z
 _atom_site_fract_occupancy
 Ge  Ge1  1  0.00181  0.70741  0.67900  1
 Ge  Ge2  1  0.50181  0.79259  0.67900  1
 Ge  Ge3  1  0.99819  0.29259  0.32100  1
 Ge  Ge4  1  0.49819  0.20741  0.32100  1
 S  S1  1  0.07827  0.82267  0.94629  1
 S  S2  1  0.92173  0.17733  0.05371  1
 S  S3  1  0.57827  0.67733  0.94629  1
 S  S4  1  0.31632  0.28761  0.51440  1
 S  S5  1  0.81632  0.21239  0.51440  1
 S  S6  1  0.18368  0.78761  0.48560  1
 S  S7  1  0.41289  0.00310  0.22491  1
 S  S8  1  0.68368  0.71239  0.48560  1
 S  S9  1  0.58711  0.99690  0.77509  1
 S  S10  1  0.08711  0.50310  0.77509  1
 S  S11  1  0.42173  0.32267  0.05371  1
 S  S12  1  0.91289  0.49690  0.22491  1
 Sn  Sn1  1  0.22775  0.08287  0.87339  1
 Sn  Sn2  1  0.27225  0.58287  0.12661  1
 Sn  Sn3  1  0.77225  0.91713  0.12661  1
 Sn  Sn4  1  0.72775  0.41713  0.87339  1
