CIF file written using JARVIS-Tools package.
data_CdH4C4O4
_symmetry_space_group_name_H-M  'P1'
_cell_length_a       3.64532
_cell_length_b       4.82388
_cell_length_c       7.45412
_cell_angle_alpha    81.1272
_cell_angle_beta     79.5395
_cell_angle_gamma    79.0427

_symmetry_Int_Tables_number  1
_chemical_formula_structural  CdH4C4O4
_chemical_formula_sum  CdH4C4O4
_cell_volume  125.57223472107513
_cell_formula_units_Z  1
loop_
  _symmetry_equiv_pos_site_id
 _symmetry_equiv_pos_as_xyz
 1  'x, y, z'
loop_
 _atom_site_type_symbol
 _atom_site_label
 _atom_site_symmetry_multiplicity
 _atom_site_fract_x
 _atom_site_fract_y
 _atom_site_fract_z
 _atom_site_fract_occupancy
 C  C1  1  0.44190  -0.00131  0.54057  1
 C  C2  1  0.30303  0.88398  0.73715  1
 C  C3  1  0.46397  0.57363  0.79405  1
 C  C4  1  0.52632  0.50796  0.99240  1
 Cd  Cd1  1  0.82808  0.44963  0.30602  1
 H  H1  1  0.38376  0.01990  0.82431  1
 H  H2  1  -0.00642  0.92860  0.76376  1
 H  H3  1  0.73464  0.50932  0.70732  1
 H  H4  1  0.27342  0.43529  0.77397  1
 O  O1  1  0.29957  0.26138  0.48742  1
 O  O2  1  0.71247  0.86328  0.44072  1
 O  O3  1  0.32514  0.65948  0.11500  1
 O  O4  1  0.79004  0.30603  0.03183  1
