CIF file written using JARVIS-Tools package.
data_Rb2ZnH4
_symmetry_space_group_name_H-M  'Pnma'
_cell_length_a       6.00201
_cell_length_b       8.07817
_cell_length_c       10.5621
_cell_angle_alpha    90
_cell_angle_beta     90
_cell_angle_gamma    90

_symmetry_Int_Tables_number  62
_chemical_formula_structural  Rb2ZnH4
_chemical_formula_sum  Rb8Zn4H6
_cell_volume  512.1056171783707
_cell_formula_units_Z  4
loop_
  _symmetry_equiv_pos_site_id
 _symmetry_equiv_pos_as_xyz
 1  'x, y, z'
loop_
 _atom_site_type_symbol
 _atom_site_label
 _atom_site_symmetry_multiplicity
 _atom_site_fract_x
 _atom_site_fract_y
 _atom_site_fract_z
 _atom_site_fract_occupancy
 H  H1  1  0.75000  0.69295  0.93200  1
 H  H2  1  0.97711  0.18332  0.34685  1
 H  H3  1  0.25000  0.30705  0.06800  1
 H  H4  1  0.47711  0.81668  0.65315  1
 H  H5  1  0.02289  0.31668  0.84685  1
 H  H6  1  0.02289  0.81668  0.65315  1
 H  H7  1  0.47711  0.31668  0.84685  1
 H  H8  1  0.52289  0.68332  0.15315  1
 H  H9  1  0.97711  0.68332  0.15315  1
 H  H10  1  0.75000  0.46541  0.40745  1
 H  H11  1  0.75000  0.96541  0.09255  1
 H  H12  1  0.25000  0.53459  0.59255  1
 H  H13  1  0.25000  0.03459  0.90745  1
 H  H14  1  0.25000  0.80705  0.43200  1
 H  H15  1  0.75000  0.19295  0.56800  1
 H  H16  1  0.52289  0.18332  0.34685  1
 Rb  Rb1  1  0.25000  0.48357  0.31369  1
 Rb  Rb2  1  0.25000  0.98357  0.18631  1
 Rb  Rb3  1  0.75000  0.51643  0.68631  1
 Rb  Rb4  1  0.75000  0.01643  0.81369  1
 Rb  Rb5  1  0.25000  0.16096  0.59416  1
 Rb  Rb6  1  0.25000  0.66096  0.90584  1
 Rb  Rb7  1  0.75000  0.83904  0.40584  1
 Rb  Rb8  1  0.75000  0.33904  0.09416  1
 Zn  Zn1  1  0.75000  0.25930  0.41734  1
 Zn  Zn2  1  0.75000  0.75930  0.08266  1
 Zn  Zn3  1  0.25000  0.74070  0.58266  1
 Zn  Zn4  1  0.25000  0.24070  0.91734  1
