CIF file written using JARVIS-Tools package.
data_Sr2UInO6
_symmetry_space_group_name_H-M  'Fm-3m'
_cell_length_a       6.02214
_cell_length_b       6.02214
_cell_length_c       6.02214
_cell_angle_alpha    60
_cell_angle_beta     60
_cell_angle_gamma    60

_symmetry_Int_Tables_number  225
_chemical_formula_structural  Sr2UInO6
_chemical_formula_sum  Sr2UInO6
_cell_volume  154.43237666442243
_cell_formula_units_Z  1
loop_
  _symmetry_equiv_pos_site_id
 _symmetry_equiv_pos_as_xyz
 1  'x, y, z'
loop_
 _atom_site_type_symbol
 _atom_site_label
 _atom_site_symmetry_multiplicity
 _atom_site_fract_x
 _atom_site_fract_y
 _atom_site_fract_z
 _atom_site_fract_occupancy
 In  In1  1  0.50000  0.50000  0.50000  1
 O  O1  1  0.75056  0.24944  0.24944  1
 O  O2  1  0.24944  0.75056  0.75056  1
 O  O3  1  0.24944  0.75056  0.24944  1
 O  O4  1  0.75056  0.24944  0.75056  1
 O  O5  1  0.24944  0.24944  0.75056  1
 O  O6  1  0.75056  0.75056  0.24944  1
 Sr  Sr1  1  0.25000  0.25000  0.25000  1
 Sr  Sr2  1  0.75000  0.75000  0.75000  1
 U  U1  1  0.00000  0.00000  0.00000  1
