CIF file written using JARVIS-Tools package.
data_H5C5SNO
_symmetry_space_group_name_H-M  'P1'
_cell_length_a       3.78433
_cell_length_b       7.296
_cell_length_c       9.74382
_cell_angle_alpha    74.2607
_cell_angle_beta     90.1773
_cell_angle_gamma    79.655

_symmetry_Int_Tables_number  1
_chemical_formula_structural  H5C5SNO
_chemical_formula_sum  H0C0S2N2O2
_cell_volume  254.35316183272357
_cell_formula_units_Z  2
loop_
  _symmetry_equiv_pos_site_id
 _symmetry_equiv_pos_as_xyz
 1  'x, y, z'
loop_
 _atom_site_type_symbol
 _atom_site_label
 _atom_site_symmetry_multiplicity
 _atom_site_fract_x
 _atom_site_fract_y
 _atom_site_fract_z
 _atom_site_fract_occupancy
 C  C1  1  0.01537  0.34653  0.88351  1
 C  C2  1  0.94024  0.10851  0.50615  1
 C  C3  1  0.16346  0.94163  0.58374  1
 C  C4  1  0.16346  0.44164  0.08374  1
 C  C5  1  0.20499  0.29314  0.01312  1
 C  C6  1  0.20498  0.79313  0.51311  1
 C  C7  1  0.94024  0.60851  0.00615  1
 C  C8  1  0.01536  0.84654  0.38351  1
 C  C9  1  0.96126  0.72379  0.28981  1
 C  C10  1  0.96129  0.22378  0.78981  1
 H  H1  1  0.67998  0.20636  0.78203  1
 H  H2  1  0.12982  0.07903  0.83073  1
 H  H3  1  0.57224  0.81379  0.06073  1
 H  H4  1  0.57226  0.31379  0.56074  1
 H  H5  1  0.29507  0.42480  0.18656  1
 H  H6  1  0.29507  0.92479  0.68656  1
 H  H7  1  0.36205  0.14855  0.05889  1
 H  H8  1  0.36203  0.64854  0.55889  1
 H  H9  1  0.67995  0.70637  0.28203  1
 H  H10  1  0.12978  0.57903  0.33073  1
 N  N1  1  0.83510  0.29107  0.53167  1
 N  N2  1  0.83508  0.79107  0.03167  1
 O  O1  1  0.05451  0.32010  0.64305  1
 O  O2  1  0.05449  0.82011  0.14304  1
 S  S1  1  0.79623  0.08698  0.34271  1
 S  S2  1  0.79623  0.58697  0.84271  1
