CIF file written using JARVIS-Tools package.
data_ZrCl2
_symmetry_space_group_name_H-M  'R-3'
_cell_length_a       8.05493
_cell_length_b       8.05493
_cell_length_c       8.05493
_cell_angle_alpha    107.515
_cell_angle_beta     107.515
_cell_angle_gamma    107.515

_symmetry_Int_Tables_number  148
_chemical_formula_structural  ZrCl2
_chemical_formula_sum  Zr6Cl2
_cell_volume  428.9774788658395
_cell_formula_units_Z  6
loop_
  _symmetry_equiv_pos_site_id
 _symmetry_equiv_pos_as_xyz
 1  'x, y, z'
loop_
 _atom_site_type_symbol
 _atom_site_label
 _atom_site_symmetry_multiplicity
 _atom_site_fract_x
 _atom_site_fract_y
 _atom_site_fract_z
 _atom_site_fract_occupancy
 Cl  Cl1  1  0.54022  0.62048  0.84919  1
 Cl  Cl2  1  0.45978  0.37952  0.15081  1
 Cl  Cl3  1  0.22891  0.68702  0.07875  1
 Cl  Cl4  1  0.84919  0.54022  0.62048  1
 Cl  Cl5  1  0.92125  0.77109  0.31298  1
 Cl  Cl6  1  0.77109  0.31298  0.92125  1
 Cl  Cl7  1  0.31298  0.92125  0.77109  1
 Cl  Cl8  1  0.15081  0.45978  0.37952  1
 Cl  Cl9  1  0.68702  0.07875  0.22891  1
 Cl  Cl10  1  0.62048  0.84919  0.54022  1
 Cl  Cl11  1  0.37952  0.15081  0.45978  1
 Cl  Cl12  1  0.07875  0.22891  0.68702  1
 Zr  Zr1  1  0.96410  0.89397  0.69378  1
 Zr  Zr2  1  0.89397  0.69378  0.96410  1
 Zr  Zr3  1  0.10603  0.30622  0.03590  1
 Zr  Zr4  1  0.30622  0.03590  0.10603  1
 Zr  Zr5  1  0.69378  0.96410  0.89397  1
 Zr  Zr6  1  0.03590  0.10603  0.30622  1
