CIF file written using JARVIS-Tools package.
data_NaMnO2
_symmetry_space_group_name_H-M  'I4_1/amd'
_cell_length_a       4.40557
_cell_length_b       4.40577
_cell_length_c       5.33483
_cell_angle_alpha    114.39
_cell_angle_beta     114.388
_cell_angle_gamma    90.0001

_symmetry_Int_Tables_number  141
_chemical_formula_structural  NaMnO2
_chemical_formula_sum  Na2Mn2O4
_cell_volume  84.05856753896377
_cell_formula_units_Z  2
loop_
  _symmetry_equiv_pos_site_id
 _symmetry_equiv_pos_as_xyz
 1  'x, y, z'
loop_
 _atom_site_type_symbol
 _atom_site_label
 _atom_site_symmetry_multiplicity
 _atom_site_fract_x
 _atom_site_fract_y
 _atom_site_fract_z
 _atom_site_fract_occupancy
 Mn  Mn1  1  0.87667  0.12421  0.25112  1
 Mn  Mn2  1  0.12670  0.87421  0.75113  1
 Na  Na1  1  0.37666  0.62425  0.25110  1
 Na  Na2  1  0.62670  0.37427  0.75114  1
 O  O1  1  0.90637  0.65413  0.31050  1
 O  O2  1  0.65637  0.90395  0.81048  1
 O  O3  1  0.34704  0.09460  0.19177  1
 O  O4  1  0.09700  0.34477  0.69175  1
