CIF file written using JARVIS-Tools package.
data_Rb3InO3
_symmetry_space_group_name_H-M  'C2/m'
_cell_length_a       7.06365
_cell_length_b       7.06365
_cell_length_c       6.96467
_cell_angle_alpha    84.0774
_cell_angle_beta     95.9226
_cell_angle_gamma    66.0076

_symmetry_Int_Tables_number  12
_chemical_formula_structural  Rb3InO3
_chemical_formula_sum  Rb6In2O6
_cell_volume  311.7302228049161
_cell_formula_units_Z  2
loop_
  _symmetry_equiv_pos_site_id
 _symmetry_equiv_pos_as_xyz
 1  'x, y, z'
loop_
 _atom_site_type_symbol
 _atom_site_label
 _atom_site_symmetry_multiplicity
 _atom_site_fract_x
 _atom_site_fract_y
 _atom_site_fract_z
 _atom_site_fract_occupancy
 In  In1  1  0.18045  0.81955  0.14637  1
 In  In2  1  0.81955  0.18045  0.85363  1
 O  O1  1  0.09539  0.90461  0.83370  1
 O  O2  1  0.16107  0.55230  0.27116  1
 O  O3  1  0.44770  0.83893  0.27116  1
 O  O4  1  0.83893  0.44770  0.72884  1
 O  O5  1  0.55230  0.16107  0.72884  1
 O  O6  1  0.90461  0.09539  0.16630  1
 Rb  Rb1  1  0.36770  0.63230  0.64755  1
 Rb  Rb2  1  0.80853  0.80853  0.50000  1
 Rb  Rb3  1  0.19147  0.19147  0.50000  1
 Rb  Rb4  1  0.25924  0.25924  0.00000  1
 Rb  Rb5  1  0.74076  0.74076  -0.00000  1
 Rb  Rb6  1  0.63230  0.36770  0.35245  1
