CIF file written using JARVIS-Tools package.
data_CdH4C4O4
_symmetry_space_group_name_H-M  'P1'
_cell_length_a       3.55342
_cell_length_b       4.29357
_cell_length_c       8.09231
_cell_angle_alpha    99.4262
_cell_angle_beta     87.9675
_cell_angle_gamma    96.8005

_symmetry_Int_Tables_number  1
_chemical_formula_structural  CdH4C4O4
_chemical_formula_sum  CdH4C4O4
_cell_volume  120.92310746453873
_cell_formula_units_Z  1
loop_
  _symmetry_equiv_pos_site_id
 _symmetry_equiv_pos_as_xyz
 1  'x, y, z'
loop_
 _atom_site_type_symbol
 _atom_site_label
 _atom_site_symmetry_multiplicity
 _atom_site_fract_x
 _atom_site_fract_y
 _atom_site_fract_z
 _atom_site_fract_occupancy
 C  C1  1  0.97866  0.22219  0.52209  1
 C  C2  1  0.80772  0.11698  0.68159  1
 C  C3  1  0.79664  0.35668  0.83761  1
 C  C4  1  0.90974  0.30723  0.98899  1
 Cd  Cd1  1  0.37853  0.67962  0.28436  1
 H  H1  1  0.52568  0.99238  0.64830  1
 H  H2  1  -0.03044  0.92027  0.69760  1
 H  H3  1  0.60832  0.53977  0.83860  1
 H  H4  1  0.07201  0.88122  0.92002  1
 O  O1  1  0.90803  0.02798  0.38330  1
 O  O2  1  0.20036  0.47696  0.52660  1
 O  O3  1  0.10038  0.05931  0.01390  1
 O  O4  1  0.86672  0.50063  0.13270  1
