CIF file written using JARVIS-Tools package.
data_KAuSe
_symmetry_space_group_name_H-M  'Cmcm'
_cell_length_a       5.16444
_cell_length_b       5.16444
_cell_length_c       6.84857
_cell_angle_alpha    90
_cell_angle_beta     90
_cell_angle_gamma    102.832

_symmetry_Int_Tables_number  63
_chemical_formula_structural  KAuSe
_chemical_formula_sum  K2Au2Se2
_cell_volume  178.09995136137127
_cell_formula_units_Z  2
loop_
  _symmetry_equiv_pos_site_id
 _symmetry_equiv_pos_as_xyz
 1  'x, y, z'
loop_
 _atom_site_type_symbol
 _atom_site_label
 _atom_site_symmetry_multiplicity
 _atom_site_fract_x
 _atom_site_fract_y
 _atom_site_fract_z
 _atom_site_fract_occupancy
 Au  Au1  1  0.00000  0.00000  0.00000  1
 Au  Au2  1  0.00000  0.00000  0.50000  1
 K  K1  1  0.36421  0.63579  0.75000  1
 K  K2  1  0.63579  0.36421  0.25000  1
 Se  Se1  1  0.78148  0.21852  0.75000  1
 Se  Se2  1  0.21852  0.78148  0.25000  1
