CIF file written using JARVIS-Tools package.
data_AgSbPb2S4
_symmetry_space_group_name_H-M  'I4/mmm'
_cell_length_a       7.20399
_cell_length_b       7.204
_cell_length_c       7.204
_cell_angle_alpha    132.918
_cell_angle_beta     132.918
_cell_angle_gamma    68.7836

_symmetry_Int_Tables_number  139
_chemical_formula_structural  AgSbPb2S4
_chemical_formula_sum  AgSbPb2S4
_cell_volume  196.8661694909225
_cell_formula_units_Z  1
loop_
  _symmetry_equiv_pos_site_id
 _symmetry_equiv_pos_as_xyz
 1  'x, y, z'
loop_
 _atom_site_type_symbol
 _atom_site_label
 _atom_site_symmetry_multiplicity
 _atom_site_fract_x
 _atom_site_fract_y
 _atom_site_fract_z
 _atom_site_fract_occupancy
 Ag  Ag1  1  0.00000  0.00000  0.00000  1
 Pb  Pb1  1  0.25000  0.75000  0.50000  1
 Pb  Pb2  1  0.75000  0.25000  0.50000  1
 S  S1  1  -0.00000  0.50000  0.50000  1
 S  S2  1  0.26951  0.26951  0.00000  1
 S  S3  1  0.50000  0.00000  0.50000  1
 S  S4  1  0.73049  0.73049  -0.00000  1
 Sb  Sb1  1  0.50000  0.50000  -0.00000  1
