CIF file written using JARVIS-Tools package.
data_Sb2O3
_symmetry_space_group_name_H-M  'Fd-3m'
_cell_length_a       7.90217
_cell_length_b       7.90218
_cell_length_c       7.90218
_cell_angle_alpha    60
_cell_angle_beta     60
_cell_angle_gamma    60

_symmetry_Int_Tables_number  227
_chemical_formula_structural  Sb2O3
_chemical_formula_sum  Sb8O2
_cell_volume  348.9192898361345
_cell_formula_units_Z  4
loop_
  _symmetry_equiv_pos_site_id
 _symmetry_equiv_pos_as_xyz
 1  'x, y, z'
loop_
 _atom_site_type_symbol
 _atom_site_label
 _atom_site_symmetry_multiplicity
 _atom_site_fract_x
 _atom_site_fract_y
 _atom_site_fract_z
 _atom_site_fract_occupancy
 O  O1  1  0.56457  0.56457  0.18543  1
 O  O2  1  0.56457  0.18543  0.18543  1
 O  O3  1  0.43543  0.81457  0.43543  1
 O  O4  1  0.43543  0.43543  0.81457  1
 O  O5  1  0.81457  0.81457  0.43543  1
 O  O6  1  0.81457  0.43543  0.81457  1
 O  O7  1  0.56457  0.18543  0.56457  1
 O  O8  1  0.18543  0.56457  0.18543  1
 O  O9  1  0.81457  0.43543  0.43543  1
 O  O10  1  0.18543  0.18543  0.56457  1
 O  O11  1  0.18543  0.56457  0.56457  1
 O  O12  1  0.43543  0.81457  0.81457  1
 Sb  Sb1  1  0.25829  0.25829  0.25829  1
 Sb  Sb2  1  0.72512  0.25829  0.25829  1
 Sb  Sb3  1  0.74171  0.74171  0.74171  1
 Sb  Sb4  1  0.74171  0.74171  0.27488  1
 Sb  Sb5  1  0.74171  0.27488  0.74171  1
 Sb  Sb6  1  0.25829  0.25829  0.72512  1
 Sb  Sb7  1  0.25829  0.72512  0.25829  1
 Sb  Sb8  1  0.27488  0.74171  0.74171  1
