CIF file written using JARVIS-Tools package.
data_ZrTi2O
_symmetry_space_group_name_H-M  'Cmmm'
_cell_length_a       4.80201
_cell_length_b       4.80201
_cell_length_c       3.02886
_cell_angle_alpha    90
_cell_angle_beta     90
_cell_angle_gamma    122.103

_symmetry_Int_Tables_number  65
_chemical_formula_structural  ZrTi2O
_chemical_formula_sum  ZrTi2O
_cell_volume  59.16368998702643
_cell_formula_units_Z  1
loop_
  _symmetry_equiv_pos_site_id
 _symmetry_equiv_pos_as_xyz
 1  'x, y, z'
loop_
 _atom_site_type_symbol
 _atom_site_label
 _atom_site_symmetry_multiplicity
 _atom_site_fract_x
 _atom_site_fract_y
 _atom_site_fract_z
 _atom_site_fract_occupancy
 O  O1  1  0.50000  0.50000  0.00000  1
 Ti  Ti1  1  0.67251  0.32749  0.50000  1
 Ti  Ti2  1  0.32749  0.67251  0.50000  1
 Zr  Zr1  1  0.00000  0.00000  0.00000  1
