CIF file written using JARVIS-Tools package.
data_Yb4Y
_symmetry_space_group_name_H-M  'R-3m'
_cell_length_a       15.275
_cell_length_b       15.275
_cell_length_c       15.275
_cell_angle_alpha    13.875
_cell_angle_beta     13.875
_cell_angle_gamma    13.875

_symmetry_Int_Tables_number  166
_chemical_formula_structural  Yb4Y
_chemical_formula_sum  Yb4Y
_cell_volume  178.36481440871165
_cell_formula_units_Z  1
loop_
  _symmetry_equiv_pos_site_id
 _symmetry_equiv_pos_as_xyz
 1  'x, y, z'
loop_
 _atom_site_type_symbol
 _atom_site_label
 _atom_site_symmetry_multiplicity
 _atom_site_fract_x
 _atom_site_fract_y
 _atom_site_fract_z
 _atom_site_fract_occupancy
 Y  Y1  1  0.00000  0.00000  0.00000  1
 Yb  Yb1  1  0.60234  0.60234  0.60234  1
 Yb  Yb2  1  0.20057  0.20057  0.20057  1
 Yb  Yb3  1  0.79943  0.79943  0.79943  1
 Yb  Yb4  1  0.39766  0.39766  0.39766  1
