CIF file written using JARVIS-Tools package.
data_YSiRu2C
_symmetry_space_group_name_H-M  'Cmcm'
_cell_length_a       5.88994
_cell_length_b       5.88994
_cell_length_c       7.14209
_cell_angle_alpha    90
_cell_angle_beta     90
_cell_angle_gamma    142.344

_symmetry_Int_Tables_number  63
_chemical_formula_structural  YSiRu2C
_chemical_formula_sum  Y2Si2Ru4C2
_cell_volume  151.3660436081992
_cell_formula_units_Z  2
loop_
  _symmetry_equiv_pos_site_id
 _symmetry_equiv_pos_as_xyz
 1  'x, y, z'
loop_
 _atom_site_type_symbol
 _atom_site_label
 _atom_site_symmetry_multiplicity
 _atom_site_fract_x
 _atom_site_fract_y
 _atom_site_fract_z
 _atom_site_fract_occupancy
 C  C1  1  0.00000  0.00000  0.00000  1
 C  C2  1  0.00000  0.00000  0.50000  1
 Ru  Ru1  1  0.83618  0.16382  0.05631  1
 Ru  Ru2  1  0.16382  0.83618  0.94369  1
 Ru  Ru3  1  0.16382  0.83618  0.55631  1
 Ru  Ru4  1  0.83618  0.16382  0.44369  1
 Si  Si1  1  0.26903  0.73097  0.25000  1
 Si  Si2  1  0.73097  0.26903  0.75000  1
 Y  Y1  1  0.54711  0.45289  0.25000  1
 Y  Y2  1  0.45289  0.54711  0.75000  1
