CIF file written using JARVIS-Tools package.
data_SmTe3
_symmetry_space_group_name_H-M  'Cmcm'
_cell_length_a       4.37797
_cell_length_b       4.37922
_cell_length_c       13.2565
_cell_angle_alpha    90
_cell_angle_beta     99.5044
_cell_angle_gamma    90

_symmetry_Int_Tables_number  63
_chemical_formula_structural  SmTe3
_chemical_formula_sum  Sm2Te6
_cell_volume  250.6655632943762
_cell_formula_units_Z  2
loop_
  _symmetry_equiv_pos_site_id
 _symmetry_equiv_pos_as_xyz
 1  'x, y, z'
loop_
 _atom_site_type_symbol
 _atom_site_label
 _atom_site_symmetry_multiplicity
 _atom_site_fract_x
 _atom_site_fract_y
 _atom_site_fract_z
 _atom_site_fract_occupancy
 Sm  Sm1  1  0.83031  0.25000  0.66063  1
 Sm  Sm2  1  0.16969  0.75000  0.33937  1
 Te  Te1  1  0.70565  0.25000  0.41131  1
 Te  Te2  1  0.29435  0.75000  0.58869  1
 Te  Te3  1  0.07249  0.25000  0.14498  1
 Te  Te4  1  0.92751  0.75000  0.85502  1
 Te  Te5  1  0.57258  0.75000  0.14516  1
 Te  Te6  1  0.42742  0.25000  0.85484  1
