CIF file written using JARVIS-Tools package.
data_YLuO3
_symmetry_space_group_name_H-M  'P6_3/mmc'
_cell_length_a       3.65213
_cell_length_b       3.65213
_cell_length_c       12.6973
_cell_angle_alpha    90
_cell_angle_beta     90
_cell_angle_gamma    120

_symmetry_Int_Tables_number  194
_chemical_formula_structural  YLuO3
_chemical_formula_sum  Y2Lu2O6
_cell_volume  146.66795483477225
_cell_formula_units_Z  2
loop_
  _symmetry_equiv_pos_site_id
 _symmetry_equiv_pos_as_xyz
 1  'x, y, z'
loop_
 _atom_site_type_symbol
 _atom_site_label
 _atom_site_symmetry_multiplicity
 _atom_site_fract_x
 _atom_site_fract_y
 _atom_site_fract_z
 _atom_site_fract_occupancy
 Lu  Lu1  1  0.33333  0.66667  0.74999  1
 Lu  Lu2  1  0.66667  0.33333  0.25000  1
 O  O1  1  0.33333  0.66667  0.92115  1
 O  O2  1  0.33333  0.66667  0.57884  1
 O  O3  1  0.00000  0.00000  0.75001  1
 O  O4  1  0.00000  0.00000  0.25003  1
 O  O5  1  0.66667  0.33333  0.07884  1
 O  O6  1  0.66667  0.33333  0.42116  1
 Y  Y1  1  0.00000  0.00000  0.99998  1
 Y  Y2  1  0.00000  0.00000  0.49999  1
