CIF file written using JARVIS-Tools package.
data_TbAlGe
_symmetry_space_group_name_H-M  'Cmcm'
_cell_length_a       5.62451
_cell_length_b       5.62451
_cell_length_c       5.78064
_cell_angle_alpha    90
_cell_angle_beta     90
_cell_angle_gamma    137.582

_symmetry_Int_Tables_number  63
_chemical_formula_structural  TbAlGe
_chemical_formula_sum  Tb2Al2Ge2
_cell_volume  123.35236987167696
_cell_formula_units_Z  2
loop_
  _symmetry_equiv_pos_site_id
 _symmetry_equiv_pos_as_xyz
 1  'x, y, z'
loop_
 _atom_site_type_symbol
 _atom_site_label
 _atom_site_symmetry_multiplicity
 _atom_site_fract_x
 _atom_site_fract_y
 _atom_site_fract_z
 _atom_site_fract_occupancy
 Al  Al1  1  0.00000  0.00000  0.00000  1
 Al  Al2  1  0.00000  0.00000  0.50000  1
 Ge  Ge1  1  0.39203  0.60797  0.25000  1
 Ge  Ge2  1  0.60797  0.39203  0.75000  1
 Tb  Tb1  1  0.68797  0.31203  0.25000  1
 Tb  Tb2  1  0.31203  0.68797  0.75000  1
