CIF file written using JARVIS-Tools package.
data_Tl3AsSe3
_symmetry_space_group_name_H-M  'R3m'
_cell_length_a       6.26642
_cell_length_b       6.26642
_cell_length_c       6.26642
_cell_angle_alpha    106.342
_cell_angle_beta     106.342
_cell_angle_gamma    106.342

_symmetry_Int_Tables_number  160
_chemical_formula_structural  Tl3AsSe3
_chemical_formula_sum  Tl3AsSe3
_cell_volume  208.4994157738152
_cell_formula_units_Z  1
loop_
  _symmetry_equiv_pos_site_id
 _symmetry_equiv_pos_as_xyz
 1  'x, y, z'
loop_
 _atom_site_type_symbol
 _atom_site_label
 _atom_site_symmetry_multiplicity
 _atom_site_fract_x
 _atom_site_fract_y
 _atom_site_fract_z
 _atom_site_fract_occupancy
 As  As1  1  0.69443  0.69443  0.69443  1
 Se  Se1  1  0.09587  0.71814  0.71814  1
 Se  Se2  1  0.71814  0.71814  0.09587  1
 Se  Se3  1  0.71814  0.09587  0.71814  1
 Tl  Tl1  1  0.15821  0.54600  0.15821  1
 Tl  Tl2  1  0.54600  0.15821  0.15821  1
 Tl  Tl3  1  0.15821  0.15821  0.54600  1
