CIF file written using JARVIS-Tools package.
data_DyBr2
_symmetry_space_group_name_H-M  'Pbca'
_cell_length_a       6.63552
_cell_length_b       7.60834
_cell_length_c       12.8585
_cell_angle_alpha    90
_cell_angle_beta     90
_cell_angle_gamma    90

_symmetry_Int_Tables_number  61
_chemical_formula_structural  DyBr2
_chemical_formula_sum  Dy8Br6
_cell_volume  649.1634913797009
_cell_formula_units_Z  8
loop_
  _symmetry_equiv_pos_site_id
 _symmetry_equiv_pos_as_xyz
 1  'x, y, z'
loop_
 _atom_site_type_symbol
 _atom_site_label
 _atom_site_symmetry_multiplicity
 _atom_site_fract_x
 _atom_site_fract_y
 _atom_site_fract_z
 _atom_site_fract_occupancy
 Br  Br1  1  0.70297  0.88090  0.79511  1
 Br  Br2  1  0.01950  0.79623  0.04640  1
 Br  Br3  1  0.51950  0.20377  0.45360  1
 Br  Br4  1  0.48050  0.29623  0.95360  1
 Br  Br5  1  0.29703  0.11910  0.20489  1
 Br  Br6  1  0.98050  0.20377  0.95360  1
 Br  Br7  1  0.48050  0.79623  0.54640  1
 Br  Br8  1  0.98050  0.70377  0.54640  1
 Br  Br9  1  0.01950  0.29623  0.45360  1
 Br  Br10  1  0.79703  0.38090  0.20489  1
 Br  Br11  1  0.29703  0.61910  0.29511  1
 Br  Br12  1  0.79703  0.88090  0.29511  1
 Br  Br13  1  0.20297  0.11910  0.70489  1
 Br  Br14  1  0.20297  0.61910  0.79511  1
 Br  Br15  1  0.70297  0.38090  0.70489  1
 Br  Br16  1  0.51950  0.70377  0.04640  1
 Dy  Dy1  1  0.67507  0.54866  0.40369  1
 Dy  Dy2  1  0.17507  0.45134  0.09631  1
 Dy  Dy3  1  0.82493  0.04866  0.59631  1
 Dy  Dy4  1  0.32493  0.95134  0.90369  1
 Dy  Dy5  1  0.32493  0.45134  0.59631  1
 Dy  Dy6  1  0.82493  0.54866  0.90369  1
 Dy  Dy7  1  0.17507  0.95134  0.40369  1
 Dy  Dy8  1  0.67507  0.04866  0.09631  1
