CIF file written using JARVIS-Tools package.
data_LiCu2F6
_symmetry_space_group_name_H-M  'P-31m'
_cell_length_a       5.11856
_cell_length_b       5.11861
_cell_length_c       8.72784
_cell_angle_alpha    90.001
_cell_angle_beta     89.998
_cell_angle_gamma    120

_symmetry_Int_Tables_number  162
_chemical_formula_structural  LiCu2F6
_chemical_formula_sum  Li2Cu4F2
_cell_volume  198.03363723849426
_cell_formula_units_Z  2
loop_
  _symmetry_equiv_pos_site_id
 _symmetry_equiv_pos_as_xyz
 1  'x, y, z'
loop_
 _atom_site_type_symbol
 _atom_site_label
 _atom_site_symmetry_multiplicity
 _atom_site_fract_x
 _atom_site_fract_y
 _atom_site_fract_z
 _atom_site_fract_occupancy
 Cu  Cu1  1  0.33333  0.66667  0.50000  1
 Cu  Cu2  1  0.33334  0.66667  0.00000  1
 Cu  Cu3  1  0.66666  0.33333  -0.00000  1
 Cu  Cu4  1  0.66667  0.33333  0.50000  1
 F  F1  1  0.65532  0.65535  0.61953  1
 F  F2  1  0.00003  0.65537  0.38047  1
 F  F3  1  0.00003  0.65535  0.88047  1
 F  F4  1  -0.00003  0.34465  0.11953  1
 F  F5  1  0.65541  -0.00000  0.38048  1
 F  F6  1  0.34459  -0.00000  0.11952  1
 F  F7  1  -0.00003  0.34463  0.61953  1
 F  F8  1  0.65534  0.65537  0.11953  1
 F  F9  1  0.34468  0.34465  0.38047  1
 F  F10  1  0.34459  0.00000  0.61952  1
 F  F11  1  0.65541  0.00000  0.88048  1
 F  F12  1  0.34466  0.34463  0.88047  1
 Li  Li1  1  0.00000  0.00000  0.25000  1
 Li  Li2  1  -0.00000  -0.00000  0.75000  1
