CIF file written using JARVIS-Tools package.
data_K2CO3
_symmetry_space_group_name_H-M  'P2_1/c'
_cell_length_a       5.65631
_cell_length_b       9.89326
_cell_length_c       6.73567
_cell_angle_alpha    90
_cell_angle_beta     100.272
_cell_angle_gamma    90

_symmetry_Int_Tables_number  14
_chemical_formula_structural  K2CO3
_chemical_formula_sum  K8C4O2
_cell_volume  370.88207677658147
_cell_formula_units_Z  4
loop_
  _symmetry_equiv_pos_site_id
 _symmetry_equiv_pos_as_xyz
 1  'x, y, z'
loop_
 _atom_site_type_symbol
 _atom_site_label
 _atom_site_symmetry_multiplicity
 _atom_site_fract_x
 _atom_site_fract_y
 _atom_site_fract_z
 _atom_site_fract_occupancy
 C  C1  1  0.24626  0.91748  0.74679  1
 C  C2  1  0.24626  0.58252  0.24679  1
 C  C3  1  0.75374  0.08252  0.25321  1
 C  C4  1  0.75374  0.41748  0.75321  1
 K  K1  1  0.24033  0.91748  0.21361  1
 K  K2  1  0.75967  0.41748  0.28639  1
 K  K3  1  0.73472  0.75994  0.46791  1
 K  K4  1  0.24033  0.58252  0.71361  1
 K  K5  1  0.73472  0.74006  0.96791  1
 K  K6  1  0.26528  0.24006  0.53209  1
 K  K7  1  0.26528  0.25994  0.03209  1
 K  K8  1  0.75967  0.08252  0.78639  1
 O  O1  1  0.73336  0.95676  0.19540  1
 O  O2  1  0.59028  0.36200  0.84010  1
 O  O3  1  0.59028  0.13800  0.34010  1
 O  O4  1  0.40972  0.63800  0.15990  1
 O  O5  1  0.40972  0.86200  0.65990  1
 O  O6  1  0.93807  0.15249  0.22050  1
 O  O7  1  0.93807  0.34751  0.72050  1
 O  O8  1  0.06193  0.84751  0.77950  1
 O  O9  1  0.26664  0.04324  0.80460  1
 O  O10  1  0.26664  0.45676  0.30460  1
 O  O11  1  0.06193  0.65249  0.27950  1
 O  O12  1  0.73336  0.54324  0.69540  1
