CIF file written using JARVIS-Tools package.
data_ZnNi4O5
_symmetry_space_group_name_H-M  'C2/m'
_cell_length_a       5.1415
_cell_length_b       5.14151
_cell_length_c       7.27171
_cell_angle_alpha    61.9786
_cell_angle_beta     61.9786
_cell_angle_gamma    33.6193

_symmetry_Int_Tables_number  12
_chemical_formula_structural  ZnNi4O5
_chemical_formula_sum  ZnNi4O5
_cell_volume  92.73234151409149
_cell_formula_units_Z  1
loop_
  _symmetry_equiv_pos_site_id
 _symmetry_equiv_pos_as_xyz
 1  'x, y, z'
loop_
 _atom_site_type_symbol
 _atom_site_label
 _atom_site_symmetry_multiplicity
 _atom_site_fract_x
 _atom_site_fract_y
 _atom_site_fract_z
 _atom_site_fract_occupancy
 Ni  Ni1  1  0.59975  0.59975  0.59694  1
 Ni  Ni2  1  0.19937  0.19937  0.20239  1
 Ni  Ni3  1  0.80063  0.80063  0.79761  1
 Ni  Ni4  1  0.40025  0.40025  0.40306  1
 O  O1  1  0.00000  -0.00000  0.50000  1
 O  O2  1  0.60078  0.60078  0.10485  1
 O  O3  1  0.20248  0.20248  0.69586  1
 O  O4  1  0.79752  0.79752  0.30414  1
 O  O5  1  0.39922  0.39922  0.89515  1
 Zn  Zn1  1  0.00000  0.00000  0.00000  1
