CIF file written using JARVIS-Tools package.
data_Pr2FeSn4
_symmetry_space_group_name_H-M  'Amm2'
_cell_length_a       8.83504
_cell_length_b       8.83504
_cell_length_c       4.59191
_cell_angle_alpha    90
_cell_angle_beta     90
_cell_angle_gamma    149.625

_symmetry_Int_Tables_number  38
_chemical_formula_structural  Pr2FeSn4
_chemical_formula_sum  Pr2FeSn4
_cell_volume  181.24478765574233
_cell_formula_units_Z  1
loop_
  _symmetry_equiv_pos_site_id
 _symmetry_equiv_pos_as_xyz
 1  'x, y, z'
loop_
 _atom_site_type_symbol
 _atom_site_label
 _atom_site_symmetry_multiplicity
 _atom_site_fract_x
 _atom_site_fract_y
 _atom_site_fract_z
 _atom_site_fract_occupancy
 Fe  Fe1  1  0.30250  0.69750  0.50000  1
 Pr  Pr1  1  0.10196  0.89804  0.50000  1
 Pr  Pr2  1  0.89668  0.10332  0.00000  1
 Sn  Sn1  1  0.74280  0.25720  0.50000  1
 Sn  Sn2  1  0.24340  0.75660  0.00000  1
 Sn  Sn3  1  0.44955  0.55045  0.50000  1
 Sn  Sn4  1  0.56611  0.43389  0.00000  1
