CIF file written using JARVIS-Tools package.
data_Li4Mn3Co3Sn2O16
_symmetry_space_group_name_H-M  'Cm'
_cell_length_a       5.76433
_cell_length_b       5.76433
_cell_length_c       9.57305
_cell_angle_alpha    90.0096
_cell_angle_beta     89.9919
_cell_angle_gamma    119.875

_symmetry_Int_Tables_number  8
_chemical_formula_structural  Li4Mn3Co3Sn2O16
_chemical_formula_sum  Li4Mn3Co3Sn2O6
_cell_volume  275.8185136879406
_cell_formula_units_Z  1
loop_
  _symmetry_equiv_pos_site_id
 _symmetry_equiv_pos_as_xyz
 1  'x, y, z'
loop_
 _atom_site_type_symbol
 _atom_site_label
 _atom_site_symmetry_multiplicity
 _atom_site_fract_x
 _atom_site_fract_y
 _atom_site_fract_z
 _atom_site_fract_occupancy
 Co  Co1  1  0.82996  0.17002  0.28463  1
 Co  Co2  1  0.66111  0.83148  0.78504  1
 Co  Co3  1  0.16858  0.33896  0.78504  1
 Li  Li1  1  0.33294  0.66704  0.10172  1
 Li  Li2  1  0.99840  0.00162  0.50602  1
 Li  Li3  1  0.99822  0.00183  0.00395  1
 Li  Li4  1  0.66641  0.33362  0.60749  1
 Mn  Mn1  1  0.16944  0.83062  0.78489  1
 Mn  Mn2  1  0.83096  0.66145  0.28456  1
 Mn  Mn3  1  0.33853  0.16901  0.28455  1
 O  O1  1  0.48443  0.51563  0.67059  1
 O  O2  1  0.68778  0.84059  0.39670  1
 O  O3  1  0.51464  0.48532  0.16698  1
 O  O4  1  0.33247  0.66760  0.88886  1
 O  O5  1  0.00007  0.00000  0.69148  1
 O  O6  1  -0.00097  0.00092  0.19023  1
 O  O7  1  0.15940  0.31223  0.39669  1
 O  O8  1  0.02970  0.51592  0.66780  1
 O  O9  1  0.84531  0.68711  0.89690  1
 O  O10  1  0.96848  0.48684  0.16728  1
 O  O11  1  0.51314  0.03151  0.16727  1
 O  O12  1  0.66563  0.33435  0.39001  1
 O  O13  1  0.48414  0.97034  0.66780  1
 O  O14  1  0.84478  0.15529  0.89709  1
 O  O15  1  0.15876  0.84123  0.39723  1
 O  O16  1  0.31294  0.15475  0.89690  1
 Sn  Sn1  1  0.66860  0.33144  0.00471  1
 Sn  Sn2  1  0.33645  0.66357  0.50972  1
