CIF file written using JARVIS-Tools package.
data_MgInCu4
_symmetry_space_group_name_H-M  'F-43m'
_cell_length_a       5.00908
_cell_length_b       5.00908
_cell_length_c       5.00908
_cell_angle_alpha    60
_cell_angle_beta     60
_cell_angle_gamma    60

_symmetry_Int_Tables_number  216
_chemical_formula_structural  MgInCu4
_chemical_formula_sum  MgInCu4
_cell_volume  88.87067964744227
_cell_formula_units_Z  1
loop_
  _symmetry_equiv_pos_site_id
 _symmetry_equiv_pos_as_xyz
 1  'x, y, z'
loop_
 _atom_site_type_symbol
 _atom_site_label
 _atom_site_symmetry_multiplicity
 _atom_site_fract_x
 _atom_site_fract_y
 _atom_site_fract_z
 _atom_site_fract_occupancy
 Cu  Cu1  1  0.62539  0.12382  0.62539  1
 Cu  Cu2  1  0.12382  0.62539  0.62539  1
 Cu  Cu3  1  0.62539  0.62539  0.62539  1
 Cu  Cu4  1  0.62539  0.62539  0.12382  1
 In  In1  1  0.25000  0.25000  0.25000  1
 Mg  Mg1  1  0.00000  0.00000  0.00000  1
