CIF file written using JARVIS-Tools package.
data_CaAl2Ga2
_symmetry_space_group_name_H-M  'I4/mmm'
_cell_length_a       4.26118
_cell_length_b       4.26118
_cell_length_c       6.29382
_cell_angle_alpha    109.787
_cell_angle_beta     109.787
_cell_angle_gamma    90

_symmetry_Int_Tables_number  139
_chemical_formula_structural  CaAl2Ga2
_chemical_formula_sum  CaAl2Ga2
_cell_volume  100.33367051377698
_cell_formula_units_Z  1
loop_
  _symmetry_equiv_pos_site_id
 _symmetry_equiv_pos_as_xyz
 1  'x, y, z'
loop_
 _atom_site_type_symbol
 _atom_site_label
 _atom_site_symmetry_multiplicity
 _atom_site_fract_x
 _atom_site_fract_y
 _atom_site_fract_z
 _atom_site_fract_occupancy
 Al  Al1  1  0.25000  0.75000  0.50000  1
 Al  Al2  1  0.75000  0.25000  0.50000  1
 Ca  Ca1  1  0.00000  0.00000  0.00000  1
 Ga  Ga1  1  0.38740  0.38740  0.77479  1
 Ga  Ga2  1  0.61260  0.61260  0.22521  1
