CIF file written using JARVIS-Tools package.
data_MgH6C5O4
_symmetry_space_group_name_H-M  'P1'
_cell_length_a       6.27115
_cell_length_b       6.6703
_cell_length_c       7.4523
_cell_angle_alpha    82.9886
_cell_angle_beta     79.6801
_cell_angle_gamma    80.1135

_symmetry_Int_Tables_number  1
_chemical_formula_structural  MgH6C5O4
_chemical_formula_sum  Mg2H2C0O8
_cell_volume  300.79215144297063
_cell_formula_units_Z  2
loop_
  _symmetry_equiv_pos_site_id
 _symmetry_equiv_pos_as_xyz
 1  'x, y, z'
loop_
 _atom_site_type_symbol
 _atom_site_label
 _atom_site_symmetry_multiplicity
 _atom_site_fract_x
 _atom_site_fract_y
 _atom_site_fract_z
 _atom_site_fract_occupancy
 C  C1  1  0.04859  0.63625  0.16568  1
 C  C2  1  0.00900  0.25772  0.25673  1
 C  C3  1  0.46102  0.89275  0.31121  1
 C  C4  1  0.96987  0.46487  0.30132  1
 C  C5  1  0.69474  0.24413  -0.06988  1
 C  C6  1  0.86253  0.49985  0.47651  1
 C  C7  1  0.56481  0.35010  0.06005  1
 C  C8  1  -0.00986  0.63433  0.97457  1
 C  C9  1  0.61635  0.08970  0.84676  1
 C  C10  1  0.27570  0.32997  0.59639  1
 H  H1  1  0.22771  0.62609  0.14794  1
 H  H2  1  0.34833  0.95351  0.21392  1
 H  H3  1  -0.02223  0.78420  0.21840  1
 H  H4  1  0.86347  0.26637  0.87782  1
 H  H5  1  0.58472  0.99513  0.29789  1
 H  H6  1  0.54758  0.74266  0.26925  1
 H  H7  1  0.61961  0.46438  0.12561  1
 H  H8  1  0.79743  0.37175  0.56217  1
 H  H9  1  0.39990  0.31728  0.10871  1
 H  H10  1  0.08478  0.22835  0.11456  1
 H  H11  1  0.00394  0.47837  0.93723  1
 H  H12  1  0.82331  0.71499  0.96678  1
 Mg  Mg1  1  0.03248  0.88300  0.57005  1
 Mg  Mg2  1  0.52306  0.80823  0.69215  1
 O  O1  1  0.82831  0.67379  0.54843  1
 O  O2  1  0.34816  0.87170  0.49464  1
 O  O3  1  0.43220  0.33818  0.49098  1
 O  O4  1  0.42588  0.04128  0.88652  1
 O  O5  1  0.13066  0.73718  0.83244  1
 O  O6  1  0.75384  -0.00565  0.72041  1
 O  O7  1  0.96833  0.10356  0.36611  1
 O  O8  1  0.35119  0.60145  0.82736  1
