CIF file written using JARVIS-Tools package.
data_H5C7NO2
_symmetry_space_group_name_H-M  'P1'
_cell_length_a       3.82294
_cell_length_b       5.75065
_cell_length_c       6.84243
_cell_angle_alpha    108.379
_cell_angle_beta     89.9855
_cell_angle_gamma    95.9097

_symmetry_Int_Tables_number  1
_chemical_formula_structural  H5C7NO2
_chemical_formula_sum  H5C7NO2
_cell_volume  141.9121689920521
_cell_formula_units_Z  1
loop_
  _symmetry_equiv_pos_site_id
 _symmetry_equiv_pos_as_xyz
 1  'x, y, z'
loop_
 _atom_site_type_symbol
 _atom_site_label
 _atom_site_symmetry_multiplicity
 _atom_site_fract_x
 _atom_site_fract_y
 _atom_site_fract_z
 _atom_site_fract_occupancy
 C  C1  1  0.39381  0.76514  0.56186  1
 C  C2  1  0.34223  0.69027  0.34780  1
 C  C3  1  0.52697  0.60674  0.65419  1
 C  C4  1  0.40788  0.45198  0.22985  1
 C  C5  1  0.62537  0.37768  0.53323  1
 C  C6  1  0.55752  0.29766  0.32256  1
 C  C7  1  0.24077  0.33626  0.02215  1
 H  H1  1  0.73753  0.25899  0.60746  1
 H  H2  1  0.22333  0.80772  0.27479  1
 H  H3  1  0.31135  0.93839  0.65939  1
 H  H4  1  0.61186  0.11541  0.22638  1
 H  H5  1  0.73673  0.60520  0.92304  1
 N  N1  1  0.51815  0.66765  0.87595  1
 O  O1  1  0.21954  0.46584  0.88663  1
 O  O2  1  0.07599  0.13064  0.96993  1
