CIF file written using JARVIS-Tools package.
data_ZrO2
_symmetry_space_group_name_H-M  'Pnma'
_cell_length_a       4.99555
_cell_length_b       5.41152
_cell_length_c       5.8445
_cell_angle_alpha    90
_cell_angle_beta     90
_cell_angle_gamma    90

_symmetry_Int_Tables_number  62
_chemical_formula_structural  ZrO2
_chemical_formula_sum  Zr4O8
_cell_volume  157.9975132338977
_cell_formula_units_Z  4
loop_
  _symmetry_equiv_pos_site_id
 _symmetry_equiv_pos_as_xyz
 1  'x, y, z'
loop_
 _atom_site_type_symbol
 _atom_site_label
 _atom_site_symmetry_multiplicity
 _atom_site_fract_x
 _atom_site_fract_y
 _atom_site_fract_z
 _atom_site_fract_occupancy
 O  O1  1  0.22537  0.21995  0.38463  1
 O  O2  1  0.72535  0.19410  0.11539  1
 O  O3  1  0.22535  0.69410  0.38461  1
 O  O4  1  0.72537  0.71995  0.11537  1
 O  O5  1  0.27463  0.21995  0.88463  1
 O  O6  1  0.77465  0.19410  0.61539  1
 O  O7  1  0.27465  0.69410  0.88461  1
 O  O8  1  0.77463  0.71995  0.61537  1
 Zr  Zr1  1  0.41884  0.45702  0.14509  1
 Zr  Zr2  1  0.91884  0.95702  0.35491  1
 Zr  Zr3  1  0.08116  0.45702  0.64509  1
 Zr  Zr4  1  0.58116  0.95702  0.85491  1
