CIF file written using JARVIS-Tools package.
data_BaTiO3
_symmetry_space_group_name_H-M  'R3m'
_cell_length_a       4.05147
_cell_length_b       4.05146
_cell_length_c       4.05146
_cell_angle_alpha    89.8203
_cell_angle_beta     89.8204
_cell_angle_gamma    89.8204

_symmetry_Int_Tables_number  160
_chemical_formula_structural  BaTiO3
_chemical_formula_sum  BaTiO3
_cell_volume  66.50111505200188
_cell_formula_units_Z  1
loop_
  _symmetry_equiv_pos_site_id
 _symmetry_equiv_pos_as_xyz
 1  'x, y, z'
loop_
 _atom_site_type_symbol
 _atom_site_label
 _atom_site_symmetry_multiplicity
 _atom_site_fract_x
 _atom_site_fract_y
 _atom_site_fract_z
 _atom_site_fract_occupancy
 Ba  Ba1  1  0.99931  0.99931  0.99931  1
 O  O1  1  0.02029  0.51164  0.51164  1
 O  O2  1  0.51164  0.51164  0.02029  1
 O  O3  1  0.51164  0.02029  0.51164  1
 Ti  Ti1  1  0.48602  0.48602  0.48602  1
