CIF file written using JARVIS-Tools package.
data_Li2MnF4
_symmetry_space_group_name_H-M  'P4_322'
_cell_length_a       6.03361
_cell_length_b       6.03361
_cell_length_c       8.45315
_cell_angle_alpha    90
_cell_angle_beta     90
_cell_angle_gamma    90

_symmetry_Int_Tables_number  95
_chemical_formula_structural  Li2MnF4
_chemical_formula_sum  Li8Mn4F6
_cell_volume  307.7320283567515
_cell_formula_units_Z  4
loop_
  _symmetry_equiv_pos_site_id
 _symmetry_equiv_pos_as_xyz
 1  'x, y, z'
loop_
 _atom_site_type_symbol
 _atom_site_label
 _atom_site_symmetry_multiplicity
 _atom_site_fract_x
 _atom_site_fract_y
 _atom_site_fract_z
 _atom_site_fract_occupancy
 F  F1  1  0.75931  0.00188  0.51299  1
 F  F2  1  -0.00188  0.24069  0.23701  1
 F  F3  1  0.00188  0.24069  0.76299  1
 F  F4  1  0.24069  -0.00188  0.01299  1
 F  F5  1  0.24069  0.00188  0.48701  1
 F  F6  1  0.24710  0.52170  0.50084  1
 F  F7  1  0.24710  0.47830  -0.00084  1
 F  F8  1  -0.00188  0.75931  0.26299  1
 F  F9  1  0.52170  0.75290  0.75084  1
 F  F10  1  0.47830  0.24710  0.25084  1
 F  F11  1  0.47830  0.75290  0.24916  1
 F  F12  1  0.75290  0.52170  0.49916  1
 F  F13  1  0.75290  0.47830  0.00084  1
 F  F14  1  0.00188  0.75931  0.73701  1
 F  F15  1  0.75931  -0.00188  0.98701  1
 F  F16  1  0.52170  0.24710  0.74916  1
 Li  Li1  1  0.74913  0.74913  0.12500  1
 Li  Li2  1  0.74913  0.25087  0.37500  1
 Li  Li3  1  0.78745  0.00000  0.75000  1
 Li  Li4  1  0.21255  0.00000  0.25000  1
 Li  Li5  1  0.25087  0.74913  0.87500  1
 Li  Li6  1  0.25087  0.25087  0.62500  1
 Li  Li7  1  0.00000  0.78745  0.50000  1
 Li  Li8  1  0.00000  0.21255  0.00000  1
 Mn  Mn1  1  0.22233  0.50000  0.25000  1
 Mn  Mn2  1  0.50000  0.22233  0.00000  1
 Mn  Mn3  1  0.50000  0.77767  0.50000  1
 Mn  Mn4  1  0.77767  0.50000  0.75000  1
