CIF file written using JARVIS-Tools package.
data_TaMoS4
_symmetry_space_group_name_H-M  'Pm'
_cell_length_a       3.27737
_cell_length_b       5.68587
_cell_length_c       6.38382
_cell_angle_alpha    72.561
_cell_angle_beta     90
_cell_angle_gamma    90

_symmetry_Int_Tables_number  6
_chemical_formula_structural  TaMoS4
_chemical_formula_sum  TaMoS4
_cell_volume  113.4926888456125
_cell_formula_units_Z  1
loop_
  _symmetry_equiv_pos_site_id
 _symmetry_equiv_pos_as_xyz
 1  'x, y, z'
loop_
 _atom_site_type_symbol
 _atom_site_label
 _atom_site_symmetry_multiplicity
 _atom_site_fract_x
 _atom_site_fract_y
 _atom_site_fract_z
 _atom_site_fract_occupancy
 Mo  Mo1  1  0.00000  0.16764  0.50000  1
 S  S1  1  0.00000  0.40983  0.75741  1
 S  S2  1  0.50000  0.91871  0.75380  1
 S  S3  1  0.00000  0.58339  0.24213  1
 S  S4  1  0.50000  0.08934  0.24604  1
 Ta  Ta1  1  0.50000  0.66449  0.50043  1
