CIF file written using JARVIS-Tools package.
data_Tl6SBr4
_symmetry_space_group_name_H-M  'P4/mnc'
_cell_length_a       8.75651
_cell_length_b       8.75651
_cell_length_c       9.39315
_cell_angle_alpha    90
_cell_angle_beta     90
_cell_angle_gamma    90

_symmetry_Int_Tables_number  128
_chemical_formula_structural  Tl6SBr4
_chemical_formula_sum  Tl2S2Br8
_cell_volume  720.234395086689
_cell_formula_units_Z  2
loop_
  _symmetry_equiv_pos_site_id
 _symmetry_equiv_pos_as_xyz
 1  'x, y, z'
loop_
 _atom_site_type_symbol
 _atom_site_label
 _atom_site_symmetry_multiplicity
 _atom_site_fract_x
 _atom_site_fract_y
 _atom_site_fract_z
 _atom_site_fract_occupancy
 Br  Br1  1  0.16323  0.33677  0.25000  1
 Br  Br2  1  0.83677  0.66323  0.25000  1
 Br  Br3  1  0.83677  0.66323  0.75000  1
 Br  Br4  1  0.33677  0.83677  0.75000  1
 Br  Br5  1  0.66323  0.16323  0.75000  1
 Br  Br6  1  0.16323  0.33677  0.75000  1
 Br  Br7  1  0.66323  0.16323  0.25000  1
 Br  Br8  1  0.33677  0.83677  0.25000  1
 S  S1  1  0.50000  0.50000  0.00000  1
 S  S2  1  0.00000  0.00000  0.50000  1
 Tl  Tl1  1  0.17971  0.61386  0.00000  1
 Tl  Tl2  1  0.67971  0.88614  0.50000  1
 Tl  Tl3  1  0.11386  0.67971  0.50000  1
 Tl  Tl4  1  0.88614  0.32029  0.50000  1
 Tl  Tl5  1  0.00000  0.00000  0.19516  1
 Tl  Tl6  1  0.82029  0.38614  0.00000  1
 Tl  Tl7  1  0.38614  0.17971  0.00000  1
 Tl  Tl8  1  0.00000  0.00000  0.80484  1
 Tl  Tl9  1  0.50000  0.50000  0.69516  1
 Tl  Tl10  1  0.50000  0.50000  0.30484  1
 Tl  Tl11  1  0.61386  0.82029  0.00000  1
 Tl  Tl12  1  0.32029  0.11386  0.50000  1
