CIF file written using JARVIS-Tools package.
data_K2Te2Pt
_symmetry_space_group_name_H-M  'Immm'
_cell_length_a       4.00527
_cell_length_b       6.76073
_cell_length_c       6.76073
_cell_angle_alpha    71.1679
_cell_angle_beta     72.7695
_cell_angle_gamma    72.7695

_symmetry_Int_Tables_number  71
_chemical_formula_structural  K2Te2Pt
_chemical_formula_sum  K2Te2Pt
_cell_volume  161.3685027226779
_cell_formula_units_Z  1
loop_
  _symmetry_equiv_pos_site_id
 _symmetry_equiv_pos_as_xyz
 1  'x, y, z'
loop_
 _atom_site_type_symbol
 _atom_site_label
 _atom_site_symmetry_multiplicity
 _atom_site_fract_x
 _atom_site_fract_y
 _atom_site_fract_z
 _atom_site_fract_occupancy
 K  K1  1  0.20691  0.29309  0.29309  1
 K  K2  1  0.79309  0.70691  0.70691  1
 Pt  Pt1  1  0.00000  0.00000  0.00000  1
 Te  Te1  1  0.50000  0.77371  0.22629  1
 Te  Te2  1  0.50000  0.22629  0.77371  1
