CIF file written using JARVIS-Tools package.
data_FeP4
_symmetry_space_group_name_H-M  'P2_1/c'
_cell_length_a       4.65155
_cell_length_b       7.05421
_cell_length_c       13.7693
_cell_angle_alpha    90
_cell_angle_beta     90
_cell_angle_gamma    101.599

_symmetry_Int_Tables_number  14
_chemical_formula_structural  FeP4
_chemical_formula_sum  Fe6P24
_cell_volume  442.58606820269296
_cell_formula_units_Z  6
loop_
  _symmetry_equiv_pos_site_id
 _symmetry_equiv_pos_as_xyz
 1  'x, y, z'
loop_
 _atom_site_type_symbol
 _atom_site_label
 _atom_site_symmetry_multiplicity
 _atom_site_fract_x
 _atom_site_fract_y
 _atom_site_fract_z
 _atom_site_fract_occupancy
 Fe  Fe1  1  0.00000  0.00000  0.00000  1
 Fe  Fe2  1  0.85814  0.61976  0.83032  1
 Fe  Fe3  1  0.14186  0.88024  0.33032  1
 Fe  Fe4  1  0.14186  0.38024  0.16968  1
 Fe  Fe5  1  0.85814  0.11976  0.66968  1
 Fe  Fe6  1  0.00000  0.50000  0.50000  1
 P  P1  1  0.80451  0.74936  0.44628  1
 P  P2  1  0.19549  0.75064  0.94628  1
 P  P3  1  0.19549  0.25064  0.55372  1
 P  P4  1  0.80451  0.24936  0.05372  1
 P  P5  1  0.50784  0.53262  0.71980  1
 P  P6  1  0.07121  0.36560  0.77532  1
 P  P7  1  0.65511  0.85462  0.89268  1
 P  P8  1  0.49216  0.96738  0.21980  1
 P  P9  1  0.49216  0.46738  0.28020  1
 P  P10  1  0.92879  0.13440  0.27532  1
 P  P11  1  0.34489  0.64538  0.39268  1
 P  P12  1  0.26248  0.69549  0.61264  1
 P  P13  1  0.50784  0.03262  0.78020  1
 P  P14  1  0.65511  0.35462  0.60732  1
 P  P15  1  0.26248  0.19549  0.88736  1
 P  P16  1  0.73752  0.30451  0.38736  1
 P  P17  1  0.63241  0.93001  0.55607  1
 P  P18  1  0.36759  0.56999  0.05607  1
 P  P19  1  0.36759  0.06999  0.44393  1
 P  P20  1  0.63241  0.43001  0.94393  1
 P  P21  1  0.07121  0.86560  0.72468  1
 P  P22  1  0.92879  0.63440  0.22468  1
 P  P23  1  0.34489  0.14538  0.10732  1
 P  P24  1  0.73752  0.80451  0.11264  1
