CIF file written using JARVIS-Tools package.
data_KInBr3
_symmetry_space_group_name_H-M  'P-3'
_cell_length_a       8.50803
_cell_length_b       8.50803
_cell_length_c       10.7969
_cell_angle_alpha    90
_cell_angle_beta     90
_cell_angle_gamma    120

_symmetry_Int_Tables_number  147
_chemical_formula_structural  KInBr3
_chemical_formula_sum  K4In4Br2
_cell_volume  676.8454408089798
_cell_formula_units_Z  4
loop_
  _symmetry_equiv_pos_site_id
 _symmetry_equiv_pos_as_xyz
 1  'x, y, z'
loop_
 _atom_site_type_symbol
 _atom_site_label
 _atom_site_symmetry_multiplicity
 _atom_site_fract_x
 _atom_site_fract_y
 _atom_site_fract_z
 _atom_site_fract_occupancy
 Br  Br1  1  0.61215  0.69764  0.37552  1
 Br  Br2  1  0.28546  0.90611  0.88295  1
 Br  Br3  1  0.69764  0.08550  0.62448  1
 Br  Br4  1  0.09389  0.37935  0.88295  1
 Br  Br5  1  0.71454  0.09389  0.11705  1
 Br  Br6  1  0.62065  0.71454  0.88295  1
 Br  Br7  1  0.90611  0.62065  0.11705  1
 Br  Br8  1  0.08550  0.38785  0.37552  1
 Br  Br9  1  0.30236  0.91450  0.37552  1
 Br  Br10  1  0.38785  0.30236  0.62448  1
 Br  Br11  1  0.91450  0.61215  0.62448  1
 Br  Br12  1  0.37935  0.28546  0.11705  1
 In  In1  1  0.66667  0.33333  0.49601  1
 In  In2  1  0.33333  0.66667  0.50399  1
 In  In3  1  0.66667  0.33333  0.24091  1
 In  In4  1  0.33333  0.66667  0.75909  1
 K  K1  1  0.00000  0.00000  0.26076  1
 K  K2  1  0.00000  0.00000  0.73924  1
 K  K3  1  0.66667  0.33333  0.86999  1
 K  K4  1  0.33333  0.66667  0.13001  1
