CIF file written using JARVIS-Tools package.
data_YTe3
_symmetry_space_group_name_H-M  'Cmcm'
_cell_length_a       4.35013
_cell_length_b       4.35123
_cell_length_c       13.1146
_cell_angle_alpha    90
_cell_angle_beta     99.5467
_cell_angle_gamma    90

_symmetry_Int_Tables_number  63
_chemical_formula_structural  YTe3
_chemical_formula_sum  Y2Te6
_cell_volume  244.80170070235388
_cell_formula_units_Z  2
loop_
  _symmetry_equiv_pos_site_id
 _symmetry_equiv_pos_as_xyz
 1  'x, y, z'
loop_
 _atom_site_type_symbol
 _atom_site_label
 _atom_site_symmetry_multiplicity
 _atom_site_fract_x
 _atom_site_fract_y
 _atom_site_fract_z
 _atom_site_fract_occupancy
 Te  Te1  1  0.92672  0.25000  0.85344  1
 Te  Te2  1  0.07328  0.75000  0.14656  1
 Te  Te3  1  0.57335  0.25000  0.14671  1
 Te  Te4  1  0.42665  0.75000  0.85329  1
 Te  Te5  1  0.29403  0.25000  0.58805  1
 Te  Te6  1  0.70597  0.75000  0.41195  1
 Y  Y1  1  0.17037  0.25000  0.34075  1
 Y  Y2  1  0.82963  0.75000  0.65925  1
