CIF file written using JARVIS-Tools package.
data_CoO2
_symmetry_space_group_name_H-M  'P-3m1'
_cell_length_a       2.82359
_cell_length_b       2.82359
_cell_length_c       8.43006
_cell_angle_alpha    90
_cell_angle_beta     90
_cell_angle_gamma    60.0001

_symmetry_Int_Tables_number  164
_chemical_formula_structural  CoO2
_chemical_formula_sum  Co2O4
_cell_volume  58.2054864633493
_cell_formula_units_Z  2
loop_
  _symmetry_equiv_pos_site_id
 _symmetry_equiv_pos_as_xyz
 1  'x, y, z'
loop_
 _atom_site_type_symbol
 _atom_site_label
 _atom_site_symmetry_multiplicity
 _atom_site_fract_x
 _atom_site_fract_y
 _atom_site_fract_z
 _atom_site_fract_occupancy
 Co  Co1  1  0.00000  0.00000  0.00000  1
 Co  Co2  1  0.00000  0.00000  0.50000  1
 O  O1  1  0.33333  0.33333  0.38985  1
 O  O2  1  0.33333  0.33333  0.88986  1
 O  O3  1  0.66667  0.66667  0.11014  1
 O  O4  1  0.66667  0.66667  0.61015  1
