CIF file written using JARVIS-Tools package.
data_Sr2Pb3
_symmetry_space_group_name_H-M  'P4/mbm'
_cell_length_a       8.39926
_cell_length_b       8.39926
_cell_length_c       4.93327
_cell_angle_alpha    90
_cell_angle_beta     90
_cell_angle_gamma    90

_symmetry_Int_Tables_number  127
_chemical_formula_structural  Sr2Pb3
_chemical_formula_sum  Sr4Pb6
_cell_volume  348.03005413031036
_cell_formula_units_Z  2
loop_
  _symmetry_equiv_pos_site_id
 _symmetry_equiv_pos_as_xyz
 1  'x, y, z'
loop_
 _atom_site_type_symbol
 _atom_site_label
 _atom_site_symmetry_multiplicity
 _atom_site_fract_x
 _atom_site_fract_y
 _atom_site_fract_z
 _atom_site_fract_occupancy
 Pb  Pb1  1  0.12956  0.62956  0.50000  1
 Pb  Pb2  1  0.87044  0.37044  0.50000  1
 Pb  Pb3  1  0.62956  0.87044  0.50000  1
 Pb  Pb4  1  0.00000  0.00000  0.50000  1
 Pb  Pb5  1  0.37044  0.12956  0.50000  1
 Pb  Pb6  1  0.50000  0.50000  0.50000  1
 Sr  Sr1  1  0.67240  0.17240  0.00000  1
 Sr  Sr2  1  0.17240  0.32760  0.00000  1
 Sr  Sr3  1  0.82760  0.67240  0.00000  1
 Sr  Sr4  1  0.32760  0.82760  0.00000  1
