CIF file written using JARVIS-Tools package.
data_Al5HO8
_symmetry_space_group_name_H-M  'P6_3mc'
_cell_length_a       5.74251
_cell_length_b       5.74251
_cell_length_c       8.72925
_cell_angle_alpha    90
_cell_angle_beta     90
_cell_angle_gamma    120

_symmetry_Int_Tables_number  186
_chemical_formula_structural  Al5HO8
_chemical_formula_sum  Al0H2O6
_cell_volume  249.2935113124612
_cell_formula_units_Z  2
loop_
  _symmetry_equiv_pos_site_id
 _symmetry_equiv_pos_as_xyz
 1  'x, y, z'
loop_
 _atom_site_type_symbol
 _atom_site_label
 _atom_site_symmetry_multiplicity
 _atom_site_fract_x
 _atom_site_fract_y
 _atom_site_fract_z
 _atom_site_fract_occupancy
 Al  Al1  1  0.82651  0.65301  0.12198  1
 Al  Al2  1  0.82651  0.17349  0.12198  1
 Al  Al3  1  0.34699  0.17349  0.12198  1
 Al  Al4  1  0.17349  0.34699  0.62198  1
 Al  Al5  1  0.33333  0.66667  0.95289  1
 Al  Al6  1  0.17349  0.82651  0.62198  1
 Al  Al7  1  0.33333  0.66667  0.32677  1
 Al  Al8  1  0.66667  0.33333  0.82677  1
 Al  Al9  1  0.66667  0.33333  0.45289  1
 Al  Al10  1  0.65301  0.82651  0.62198  1
 H  H1  1  0.00000  0.00000  0.13843  1
 H  H2  1  0.00000  0.00000  0.63843  1
 O  O1  1  0.51662  0.03324  0.98693  1
 O  O2  1  0.00000  0.00000  0.52140  1
 O  O3  1  0.66667  0.33333  0.23904  1
 O  O4  1  0.48338  0.96676  0.48693  1
 O  O5  1  0.48338  0.51662  0.48693  1
 O  O6  1  0.03324  0.51662  0.48693  1
 O  O7  1  0.00000  0.00000  0.02140  1
 O  O8  1  0.34051  0.17025  0.72048  1
 O  O9  1  0.17025  0.82975  0.22048  1
 O  O10  1  0.65949  0.82975  0.22048  1
 O  O11  1  0.82975  0.65949  0.72048  1
 O  O12  1  0.82975  0.17025  0.72048  1
 O  O13  1  0.51662  0.48338  0.98693  1
 O  O14  1  0.17025  0.34051  0.22048  1
 O  O15  1  0.96676  0.48338  0.98693  1
 O  O16  1  0.33333  0.66667  0.73904  1
