CIF file written using JARVIS-Tools package.
data_RbCrO2
_symmetry_space_group_name_H-M  'R-3m'
_cell_length_a       3.13427
_cell_length_b       12.4842
_cell_length_c       3.13427
_cell_angle_alpha    82.7889
_cell_angle_beta     60.0001
_cell_angle_gamma    82.7889

_symmetry_Int_Tables_number  166
_chemical_formula_structural  RbCrO2
_chemical_formula_sum  Rb2Cr2O4
_cell_volume  105.08809593280493
_cell_formula_units_Z  2
loop_
  _symmetry_equiv_pos_site_id
 _symmetry_equiv_pos_as_xyz
 1  'x, y, z'
loop_
 _atom_site_type_symbol
 _atom_site_label
 _atom_site_symmetry_multiplicity
 _atom_site_fract_x
 _atom_site_fract_y
 _atom_site_fract_z
 _atom_site_fract_occupancy
 Cr  Cr1  1  0.25000  0.25000  0.25000  1
 Cr  Cr2  1  0.75000  0.75000  0.75000  1
 O  O1  1  0.39014  0.82958  0.39014  1
 O  O2  1  0.89013  0.32958  0.89014  1
 O  O3  1  0.10986  0.67042  0.10986  1
 O  O4  1  0.60986  0.17042  0.60987  1
 Rb  Rb1  1  0.50000  0.50000  0.50000  1
 Rb  Rb2  1  0.00000  1.00000  -0.00000  1
