CIF file written using JARVIS-Tools package.
data_Y2MgSi2
_symmetry_space_group_name_H-M  'P4/mbm'
_cell_length_a       7.16172
_cell_length_b       7.16172
_cell_length_c       4.21119
_cell_angle_alpha    90
_cell_angle_beta     90
_cell_angle_gamma    90

_symmetry_Int_Tables_number  127
_chemical_formula_structural  Y2MgSi2
_chemical_formula_sum  Y4Mg2Si4
_cell_volume  215.9926603494662
_cell_formula_units_Z  2
loop_
  _symmetry_equiv_pos_site_id
 _symmetry_equiv_pos_as_xyz
 1  'x, y, z'
loop_
 _atom_site_type_symbol
 _atom_site_label
 _atom_site_symmetry_multiplicity
 _atom_site_fract_x
 _atom_site_fract_y
 _atom_site_fract_z
 _atom_site_fract_occupancy
 Mg  Mg1  1  0.00000  0.00000  0.00000  1
 Mg  Mg2  1  0.50000  0.50000  0.00000  1
 Si  Si1  1  0.11857  0.61857  0.00000  1
 Si  Si2  1  0.88143  0.38143  0.00000  1
 Si  Si3  1  0.61857  0.88143  0.00000  1
 Si  Si4  1  0.38143  0.11857  0.00000  1
 Y  Y1  1  0.67873  0.17873  0.50000  1
 Y  Y2  1  0.32127  0.82127  0.50000  1
 Y  Y3  1  0.17873  0.32127  0.50000  1
 Y  Y4  1  0.82127  0.67873  0.50000  1
