data_image0
_chemical_formula_structural       Co4F24Li4Sr4
_chemical_formula_sum              "Co4 F24 Li4 Sr4"
_cell_length_a       5.04891
_cell_length_b       8.27851
_cell_length_c       9.47232
_cell_angle_alpha    90
_cell_angle_beta     92.256
_cell_angle_gamma    90

_space_group_name_H-M_alt    "P 1"
_space_group_IT_number       1

loop_
  _space_group_symop_operation_xyz
  'x, y, z'

loop_
  _atom_site_type_symbol
  _atom_site_label
  _atom_site_symmetry_multiplicity
  _atom_site_fract_x
  _atom_site_fract_y
  _atom_site_fract_z
  _atom_site_occupancy
  Co  Co1       1.0  0.81600  0.08000  0.73200  1.0000
  Co  Co2       1.0  0.18400  0.58000  0.76800  1.0000
  Co  Co3       1.0  0.18400  0.92000  0.26800  1.0000
  Co  Co4       1.0  0.81600  0.42000  0.23200  1.0000
  F   F1        1.0  0.95700  0.04130  0.13700  1.0000
  F   F2        1.0  0.04260  0.54100  0.36300  1.0000
  F   F3        1.0  0.04260  0.95900  0.86300  1.0000
  F   F4        1.0  0.95700  0.45900  0.63700  1.0000
  F   F5        1.0  0.36600  0.40800  0.85900  1.0000
  F   F6        1.0  0.63400  0.90800  0.64100  1.0000
  F   F7        1.0  0.63400  0.59200  0.14100  1.0000
  F   F8        1.0  0.36600  0.09230  0.35900  1.0000
  F   F9        1.0  0.12800  0.41600  0.13200  1.0000
  F   F10       1.0  0.87200  0.91600  0.36800  1.0000
  F   F11       1.0  0.87200  0.58400  0.86800  1.0000
  F   F12       1.0  0.12800  0.08420  0.63200  1.0000
  F   F13       1.0  0.54000  0.46200  0.36300  1.0000
  F   F14       1.0  0.46000  0.96200  0.13700  1.0000
  F   F15       1.0  0.46000  0.53800  0.63700  1.0000
  F   F16       1.0  0.54000  0.03750  0.86300  1.0000
  F   F17       1.0  0.63000  0.23000  0.62300  1.0000
  F   F18       1.0  0.37000  0.73000  0.87700  1.0000
  F   F19       1.0  0.37000  0.77000  0.37700  1.0000
  F   F20       1.0  0.63000  0.27000  0.12300  1.0000
  F   F21       1.0  0.87900  0.24100  0.35700  1.0000
  F   F22       1.0  0.12100  0.74100  0.14300  1.0000
  F   F23       1.0  0.12100  0.75900  0.64300  1.0000
  F   F24       1.0  0.87900  0.25900  0.85700  1.0000
  Li  Li1       1.0  0.68500  0.08450  0.26500  1.0000
  Li  Li2       1.0  0.31500  0.58500  0.23500  1.0000
  Li  Li3       1.0  0.31500  0.91500  0.73500  1.0000
  Li  Li4       1.0  0.68500  0.41500  0.76500  1.0000
  Sr  Sr1       1.0  0.25000  0.18900  0.99900  1.0000
  Sr  Sr2       1.0  0.75000  0.68900  0.50100  1.0000
  Sr  Sr3       1.0  0.75000  0.81100  0.00098  1.0000
  Sr  Sr4       1.0  0.25000  0.31100  0.49900  1.0000
