CIF file written using JARVIS-Tools package.
data_SmS
_symmetry_space_group_name_H-M  'I4/mmm'
_cell_length_a       3.92953
_cell_length_b       3.92953
_cell_length_c       7.35987
_cell_angle_alpha    105.484
_cell_angle_beta     105.484
_cell_angle_gamma    89.9978

_symmetry_Int_Tables_number  139
_chemical_formula_structural  SmS
_chemical_formula_sum  Sm2S2
_cell_volume  105.23469676267943
_cell_formula_units_Z  2
loop_
  _symmetry_equiv_pos_site_id
 _symmetry_equiv_pos_as_xyz
 1  'x, y, z'
loop_
 _atom_site_type_symbol
 _atom_site_label
 _atom_site_symmetry_multiplicity
 _atom_site_fract_x
 _atom_site_fract_y
 _atom_site_fract_z
 _atom_site_fract_occupancy
 S  S1  1  0.13826  0.13525  0.27350  1
 S  S2  1  0.86475  0.86174  0.72650  1
 Sm  Sm1  1  0.34468  0.34169  0.68637  1
 Sm  Sm2  1  0.65831  0.65532  0.31363  1
