CIF file written using JARVIS-Tools package.
data_Rb2Mg
_symmetry_space_group_name_H-M  'C2/m'
_cell_length_a       7.71026
_cell_length_b       7.71026
_cell_length_c       10.6568
_cell_angle_alpha    70.0236
_cell_angle_beta     70.0236
_cell_angle_gamma    36.0226

_symmetry_Int_Tables_number  12
_chemical_formula_structural  Rb2Mg
_chemical_formula_sum  Rb4Mg2
_cell_volume  347.7084872725019
_cell_formula_units_Z  2
loop_
  _symmetry_equiv_pos_site_id
 _symmetry_equiv_pos_as_xyz
 1  'x, y, z'
loop_
 _atom_site_type_symbol
 _atom_site_label
 _atom_site_symmetry_multiplicity
 _atom_site_fract_x
 _atom_site_fract_y
 _atom_site_fract_z
 _atom_site_fract_occupancy
 Mg  Mg1  1  0.20101  0.20101  0.45460  1
 Mg  Mg2  1  0.79899  0.79899  0.54540  1
 Rb  Rb1  1  0.17106  0.17106  0.86777  1
 Rb  Rb2  1  0.82894  0.82894  0.13223  1
 Rb  Rb3  1  0.51691  0.51691  0.30523  1
 Rb  Rb4  1  0.48309  0.48309  0.69477  1
