CIF file written using JARVIS-Tools package.
data_MgAg2O4
_symmetry_space_group_name_H-M  'I4_1/amd'
_cell_length_a       5.8837
_cell_length_b       6.92338
_cell_length_c       5.8837
_cell_angle_alpha    64.8547
_cell_angle_beta     90
_cell_angle_gamma    115.145

_symmetry_Int_Tables_number  141
_chemical_formula_structural  MgAg2O4
_chemical_formula_sum  Mg2Ag4O8
_cell_volume  191.572797897859
_cell_formula_units_Z  2
loop_
  _symmetry_equiv_pos_site_id
 _symmetry_equiv_pos_as_xyz
 1  'x, y, z'
loop_
 _atom_site_type_symbol
 _atom_site_label
 _atom_site_symmetry_multiplicity
 _atom_site_fract_x
 _atom_site_fract_y
 _atom_site_fract_z
 _atom_site_fract_occupancy
 Ag  Ag1  1  0.87500  0.25000  0.37500  1
 Ag  Ag2  1  0.37500  0.25000  0.37500  1
 Ag  Ag3  1  0.37500  0.75000  0.37500  1
 Ag  Ag4  1  0.37500  0.75000  0.87500  1
 Mg  Mg1  1  0.00000  0.00000  0.00000  1
 Mg  Mg2  1  0.75000  0.50000  0.75000  1
 O  O1  1  0.10983  0.21966  0.15777  1
 O  O2  1  0.64017  0.28034  0.12743  1
 O  O3  1  0.62257  0.78034  0.10983  1
 O  O4  1  0.15777  0.78034  0.10983  1
 O  O5  1  0.64017  0.28034  0.59223  1
 O  O6  1  0.10983  0.21966  0.62257  1
 O  O7  1  0.59223  0.71966  0.64017  1
 O  O8  1  0.12743  0.71966  0.64017  1
