CIF file written using JARVIS-Tools package.
data_LiMnN2
_symmetry_space_group_name_H-M  'I-42d'
_cell_length_a       5.25711
_cell_length_b       4.52106
_cell_length_c       8.34679
_cell_angle_alpha    90
_cell_angle_beta     142.547
_cell_angle_gamma    115.467

_symmetry_Int_Tables_number  122
_chemical_formula_structural  LiMnN2
_chemical_formula_sum  Li2Mn2N4
_cell_volume  85.30383842392779
_cell_formula_units_Z  2
loop_
  _symmetry_equiv_pos_site_id
 _symmetry_equiv_pos_as_xyz
 1  'x, y, z'
loop_
 _atom_site_type_symbol
 _atom_site_label
 _atom_site_symmetry_multiplicity
 _atom_site_fract_x
 _atom_site_fract_y
 _atom_site_fract_z
 _atom_site_fract_occupancy
 Li  Li1  1  -0.00000  0.50000  0.75000  1
 Li  Li2  1  0.00000  0.00000  0.50000  1
 Mn  Mn1  1  -0.00000  0.50000  0.25000  1
 Mn  Mn2  1  0.00000  0.00000  0.00000  1
 N  N1  1  0.50000  0.06345  0.12500  1
 N  N2  1  0.50000  0.93655  0.62500  1
 N  N3  1  0.37309  0.43655  0.31155  1
 N  N4  1  0.62691  0.56345  0.93845  1
