CIF file written using JARVIS-Tools package.
data_Al2ZnS4
_symmetry_space_group_name_H-M  'Pm'
_cell_length_a       3.66649
_cell_length_b       6.12472
_cell_length_c       6.55094
_cell_angle_alpha    89.5626
_cell_angle_beta     90
_cell_angle_gamma    90

_symmetry_Int_Tables_number  6
_chemical_formula_structural  Al2ZnS4
_chemical_formula_sum  Al2ZnS4
_cell_volume  147.1050049105275
_cell_formula_units_Z  1
loop_
  _symmetry_equiv_pos_site_id
 _symmetry_equiv_pos_as_xyz
 1  'x, y, z'
loop_
 _atom_site_type_symbol
 _atom_site_label
 _atom_site_symmetry_multiplicity
 _atom_site_fract_x
 _atom_site_fract_y
 _atom_site_fract_z
 _atom_site_fract_occupancy
 Al  Al1  1  0.50000  0.51912  0.17135  1
 Al  Al2  1  0.50000  0.97539  0.85008  1
 S  S1  1  0.00000  0.89217  0.65428  1
 S  S2  1  0.50000  0.87683  0.17053  1
 S  S3  1  0.50000  0.36382  0.84351  1
 S  S4  1  0.00000  0.36176  0.32518  1
 Zn  Zn1  1  0.00000  0.51090  0.65172  1
