CIF file written using JARVIS-Tools package.
data_Ag2Se
_symmetry_space_group_name_H-M  'Cmce'
_cell_length_a       4.46436
_cell_length_b       4.46436
_cell_length_c       8.44458
_cell_angle_alpha    108.343
_cell_angle_beta     108.343
_cell_angle_gamma    113.874

_symmetry_Int_Tables_number  64
_chemical_formula_structural  Ag2Se
_chemical_formula_sum  Ag4Se2
_cell_volume  125.7179364667501
_cell_formula_units_Z  2
loop_
  _symmetry_equiv_pos_site_id
 _symmetry_equiv_pos_as_xyz
 1  'x, y, z'
loop_
 _atom_site_type_symbol
 _atom_site_label
 _atom_site_symmetry_multiplicity
 _atom_site_fract_x
 _atom_site_fract_y
 _atom_site_fract_z
 _atom_site_fract_occupancy
 Ag  Ag1  1  0.21242  0.52779  0.37011  1
 Ag  Ag2  1  0.52779  0.21242  0.87011  1
 Ag  Ag3  1  0.47221  0.78758  0.12989  1
 Ag  Ag4  1  0.78758  0.47221  0.62989  1
 Se  Se1  1  -0.00000  -0.00000  0.50000  1
 Se  Se2  1  0.00000  0.00000  0.00000  1
