CIF file written using JARVIS-Tools package.
data_Mg3H2O6
_symmetry_space_group_name_H-M  'C2/m'
_cell_length_a       3.13482
_cell_length_b       9.97823
_cell_length_c       5.48419
_cell_angle_alpha    64.2564
_cell_angle_beta     106.607
_cell_angle_gamma    118.115

_symmetry_Int_Tables_number  12
_chemical_formula_structural  Mg3H2O6
_chemical_formula_sum  Mg3H2O6
_cell_volume  135.5735048747788
_cell_formula_units_Z  1
loop_
  _symmetry_equiv_pos_site_id
 _symmetry_equiv_pos_as_xyz
 1  'x, y, z'
loop_
 _atom_site_type_symbol
 _atom_site_label
 _atom_site_symmetry_multiplicity
 _atom_site_fract_x
 _atom_site_fract_y
 _atom_site_fract_z
 _atom_site_fract_occupancy
 H  H1  1  0.70960  0.94595  0.58135  1
 H  H2  1  0.29040  0.72071  0.41865  1
 Mg  Mg1  1  0.02279  0.70890  0.91888  1
 Mg  Mg2  1  -0.00000  0.33333  0.00000  1
 Mg  Mg3  1  0.97721  0.95777  0.08112  1
 O  O1  1  0.31285  0.79837  0.23058  1
 O  O2  1  0.68715  0.86829  0.76942  1
 O  O3  1  0.33942  0.53962  0.05998  1
 O  O4  1  0.79532  0.11385  0.24911  1
 O  O5  1  0.66058  0.12705  0.94002  1
 O  O6  1  0.20468  0.55282  0.75089  1
