CIF file written using JARVIS-Tools package.
data_Li7NbO6
_symmetry_space_group_name_H-M  'R3'
_cell_length_a       5.54055
_cell_length_b       5.54053
_cell_length_c       5.86031
_cell_angle_alpha    61.789
_cell_angle_beta     61.7877
_cell_angle_gamma    59.999

_symmetry_Int_Tables_number  146
_chemical_formula_structural  Li7NbO6
_chemical_formula_sum  Li7NbO6
_cell_volume  130.5367295659094
_cell_formula_units_Z  1
loop_
  _symmetry_equiv_pos_site_id
 _symmetry_equiv_pos_as_xyz
 1  'x, y, z'
loop_
 _atom_site_type_symbol
 _atom_site_label
 _atom_site_symmetry_multiplicity
 _atom_site_fract_x
 _atom_site_fract_y
 _atom_site_fract_z
 _atom_site_fract_occupancy
 Li  Li1  1  0.50498  0.87582  0.34613  1
 Li  Li2  1  0.76908  0.50735  0.65216  1
 Li  Li3  1  0.07149  0.76658  0.65217  1
 Li  Li4  1  0.34757  0.34508  0.95985  1
 Li  Li5  1  0.87833  0.27069  0.34609  1
 Li  Li6  1  0.27322  0.50251  0.34608  1
 Li  Li7  1  0.50985  0.06902  0.65218  1
 Nb  Nb1  1  -0.00004  0.99747  0.00271  1
 O  O1  1  0.36465  0.76418  0.75400  1
 O  O2  1  0.92972  0.61783  0.24674  1
 O  O3  1  0.20583  0.92722  0.24672  1
 O  O4  1  0.76669  0.11479  0.75400  1
 O  O5  1  0.11727  0.36216  0.75400  1
 O  O6  1  0.62035  0.20330  0.24677  1
