CIF file written using JARVIS-Tools package.
data_TiZnBi2O6
_symmetry_space_group_name_H-M  'I4mm'
_cell_length_a       5.31693
_cell_length_b       5.31693
_cell_length_c       9.63756
_cell_angle_alpha    90
_cell_angle_beta     90
_cell_angle_gamma    90

_symmetry_Int_Tables_number  107
_chemical_formula_structural  TiZnBi2O6
_chemical_formula_sum  Ti2Zn2Bi4O2
_cell_volume  272.4513364801921
_cell_formula_units_Z  2
loop_
  _symmetry_equiv_pos_site_id
 _symmetry_equiv_pos_as_xyz
 1  'x, y, z'
loop_
 _atom_site_type_symbol
 _atom_site_label
 _atom_site_symmetry_multiplicity
 _atom_site_fract_x
 _atom_site_fract_y
 _atom_site_fract_z
 _atom_site_fract_occupancy
 Bi  Bi1  1  0.00000  0.50000  0.00368  1
 Bi  Bi2  1  0.00000  0.50000  0.50368  1
 Bi  Bi3  1  0.50000  0.00000  0.00368  1
 Bi  Bi4  1  0.50000  0.00000  0.50368  1
 O  O1  1  0.24926  0.75074  0.86115  1
 O  O2  1  0.50000  0.50000  0.57320  1
 O  O3  1  0.00000  0.00000  0.61609  1
 O  O4  1  0.75074  0.24926  0.86115  1
 O  O5  1  0.75074  0.75074  0.86115  1
 O  O6  1  0.50000  0.50000  0.11610  1
 O  O7  1  0.24926  0.24926  0.86115  1
 O  O8  1  0.25074  0.25074  0.36115  1
 O  O9  1  0.25074  0.74926  0.36115  1
 O  O10  1  0.74926  0.25074  0.36115  1
 O  O11  1  0.74926  0.74926  0.36115  1
 O  O12  1  0.00000  0.00000  0.07322  1
 Ti  Ti1  1  0.00000  0.00000  0.80222  1
 Ti  Ti2  1  0.50000  0.50000  0.30223  1
 Zn  Zn1  1  0.50000  0.50000  0.77049  1
 Zn  Zn2  1  0.00000  0.00000  0.27050  1
