CIF file written using JARVIS-Tools package.
data_MgC4N6
_symmetry_space_group_name_H-M  'Pnnm'
_cell_length_a       5.95399
_cell_length_b       7.09585
_cell_length_c       7.55591
_cell_angle_alpha    90
_cell_angle_beta     90
_cell_angle_gamma    90

_symmetry_Int_Tables_number  58
_chemical_formula_structural  MgC4N6
_chemical_formula_sum  Mg2C8N2
_cell_volume  319.2265379665769
_cell_formula_units_Z  2
loop_
  _symmetry_equiv_pos_site_id
 _symmetry_equiv_pos_as_xyz
 1  'x, y, z'
loop_
 _atom_site_type_symbol
 _atom_site_label
 _atom_site_symmetry_multiplicity
 _atom_site_fract_x
 _atom_site_fract_y
 _atom_site_fract_z
 _atom_site_fract_occupancy
 C  C1  1  0.73392  0.14550  0.65166  1
 C  C2  1  0.23392  0.35450  0.84834  1
 C  C3  1  0.73392  0.14550  0.34834  1
 C  C4  1  0.23392  0.35450  0.15166  1
 C  C5  1  0.76608  0.64550  0.15166  1
 C  C6  1  0.26608  0.85450  0.34834  1
 C  C7  1  0.26608  0.85450  0.65166  1
 C  C8  1  0.76608  0.64550  0.84834  1
 Mg  Mg1  1  0.50000  0.50000  0.50000  1
 Mg  Mg2  1  0.00000  0.00000  0.00000  1
 N  N1  1  0.66695  0.21368  0.50000  1
 N  N2  1  0.33305  0.78632  0.50000  1
 N  N3  1  0.78506  0.09465  0.20659  1
 N  N4  1  0.28506  0.40535  0.29341  1
 N  N5  1  0.83305  0.71368  0.00000  1
 N  N6  1  0.78506  0.09465  0.79341  1
 N  N7  1  0.21494  0.90535  0.79341  1
 N  N8  1  0.71494  0.59465  0.70659  1
 N  N9  1  0.28506  0.40535  0.70659  1
 N  N10  1  0.71494  0.59465  0.29341  1
 N  N11  1  0.21494  0.90535  0.20659  1
 N  N12  1  0.16695  0.28632  0.00000  1
