CIF file written using JARVIS-Tools package.
data_TiCu4S4
_symmetry_space_group_name_H-M  'I-42m'
_cell_length_a       5.45851
_cell_length_b       5.45851
_cell_length_c       6.56851
_cell_angle_alpha    114.551
_cell_angle_beta     114.551
_cell_angle_gamma    90

_symmetry_Int_Tables_number  121
_chemical_formula_structural  TiCu4S4
_chemical_formula_sum  TiCu4S4
_cell_volume  158.35781788075667
_cell_formula_units_Z  1
loop_
  _symmetry_equiv_pos_site_id
 _symmetry_equiv_pos_as_xyz
 1  'x, y, z'
loop_
 _atom_site_type_symbol
 _atom_site_label
 _atom_site_symmetry_multiplicity
 _atom_site_fract_x
 _atom_site_fract_y
 _atom_site_fract_z
 _atom_site_fract_occupancy
 Cu  Cu1  1  0.50000  0.00000  0.00000  1
 Cu  Cu2  1  0.00000  0.50000  -0.00000  1
 Cu  Cu3  1  0.25863  0.25863  0.51725  1
 Cu  Cu4  1  0.74137  0.74137  0.48275  1
 S  S1  1  0.88152  0.88152  0.25064  1
 S  S2  1  0.63089  0.11848  0.74936  1
 S  S3  1  0.11848  0.63089  0.74936  1
 S  S4  1  0.36911  0.36911  0.25064  1
 Ti  Ti1  1  0.00000  0.00000  0.00000  1
