data_image0
_chemical_formula_structural       Ca12Ge8P16
_chemical_formula_sum              "Ca12 Ge8 P16"
_cell_length_a       7.11699
_cell_length_b       17.4943
_cell_length_c       7.07165
_cell_angle_alpha    90
_cell_angle_beta     111.681
_cell_angle_gamma    90

_space_group_name_H-M_alt    "P 1"
_space_group_IT_number       1

loop_
  _space_group_symop_operation_xyz
  'x, y, z'

loop_
  _atom_site_type_symbol
  _atom_site_label
  _atom_site_symmetry_multiplicity
  _atom_site_fract_x
  _atom_site_fract_y
  _atom_site_fract_z
  _atom_site_occupancy
  Ca  Ca1       1.0  0.78600  0.81700  0.48900  1.0000
  Ca  Ca2       1.0  0.21400  0.31700  0.01130  1.0000
  Ca  Ca3       1.0  0.21400  0.18300  0.51100  1.0000
  Ca  Ca4       1.0  0.78600  0.68300  0.98900  1.0000
  Ca  Ca5       1.0  0.26300  0.93900  0.50400  1.0000
  Ca  Ca6       1.0  0.73700  0.43900  0.99600  1.0000
  Ca  Ca7       1.0  0.73700  0.06060  0.49600  1.0000
  Ca  Ca8       1.0  0.26300  0.56100  0.00422  1.0000
  Ca  Ca9       1.0  0.74200  0.93900  0.98800  1.0000
  Ca  Ca10      1.0  0.25800  0.43900  0.51200  1.0000
  Ca  Ca11      1.0  0.25800  0.06060  0.01200  1.0000
  Ca  Ca12      1.0  0.74200  0.56100  0.48800  1.0000
  Ge  Ge1       1.0  0.79100  0.37500  0.47000  1.0000
  Ge  Ge2       1.0  0.20900  0.87500  0.03000  1.0000
  Ge  Ge3       1.0  0.20900  0.62500  0.53000  1.0000
  Ge  Ge4       1.0  0.79100  0.12500  0.97000  1.0000
  Ge  Ge5       1.0  0.32100  0.74200  0.41500  1.0000
  Ge  Ge6       1.0  0.67900  0.24200  0.08480  1.0000
  Ge  Ge7       1.0  0.67900  0.25800  0.58500  1.0000
  Ge  Ge8       1.0  0.32100  0.75800  0.91500  1.0000
  P   P1        1.0  0.03470  0.68500  0.72400  1.0000
  P   P2        1.0  0.96500  0.18500  0.77600  1.0000
  P   P3        1.0  0.96500  0.31500  0.27600  1.0000
  P   P4        1.0  0.03470  0.81500  0.22400  1.0000
  P   P5        1.0  0.51500  0.80300  0.72700  1.0000
  P   P6        1.0  0.48500  0.30300  0.77300  1.0000
  P   P7        1.0  0.48500  0.19700  0.27300  1.0000
  P   P8        1.0  0.51500  0.69700  0.22700  1.0000
  P   P9        1.0  0.50300  0.93400  0.24700  1.0000
  P   P10       1.0  0.49700  0.43400  0.25300  1.0000
  P   P11       1.0  0.49700  0.06580  0.75300  1.0000
  P   P12       1.0  0.50300  0.56600  0.74700  1.0000
  P   P13       1.0  0.00287  0.94200  0.74800  1.0000
  P   P14       1.0  0.99700  0.44200  0.75200  1.0000
  P   P15       1.0  0.99700  0.05800  0.25200  1.0000
  P   P16       1.0  0.00287  0.55800  0.24800  1.0000
