CIF file written using JARVIS-Tools package.
data_Mg2TaSnO6
_symmetry_space_group_name_H-M  'P2_1/m'
_cell_length_a       5.43832
_cell_length_b       7.80522
_cell_length_c       5.51649
_cell_angle_alpha    90
_cell_angle_beta     91.9402
_cell_angle_gamma    90

_symmetry_Int_Tables_number  11
_chemical_formula_structural  Mg2TaSnO6
_chemical_formula_sum  Mg4Ta2Sn2O2
_cell_volume  234.02567965298798
_cell_formula_units_Z  2
loop_
  _symmetry_equiv_pos_site_id
 _symmetry_equiv_pos_as_xyz
 1  'x, y, z'
loop_
 _atom_site_type_symbol
 _atom_site_label
 _atom_site_symmetry_multiplicity
 _atom_site_fract_x
 _atom_site_fract_y
 _atom_site_fract_z
 _atom_site_fract_occupancy
 Mg  Mg1  1  0.01321  0.75000  0.96476  1
 Mg  Mg2  1  0.48831  0.75000  0.46233  1
 Mg  Mg3  1  0.51169  0.25000  0.53767  1
 Mg  Mg4  1  0.98679  0.25000  0.03524  1
 O  O1  1  0.14050  0.43058  0.82005  1
 O  O2  1  0.63078  0.25000  0.90181  1
 O  O3  1  0.85950  0.56942  0.17995  1
 O  O4  1  0.31234  0.07091  0.35025  1
 O  O5  1  0.68766  0.57091  0.64975  1
 O  O6  1  0.31234  0.42909  0.35025  1
 O  O7  1  0.68766  0.92909  0.64975  1
 O  O8  1  0.36922  0.75000  0.09819  1
 O  O9  1  0.86880  0.25000  0.41730  1
 O  O10  1  0.85950  0.93058  0.17995  1
 O  O11  1  0.14050  0.06942  0.82005  1
 O  O12  1  0.13120  0.75000  0.58270  1
 Sn  Sn1  1  0.50000  0.50000  -0.00000  1
 Sn  Sn2  1  0.50000  0.00000  -0.00000  1
 Ta  Ta1  1  -0.00000  0.50000  0.50000  1
 Ta  Ta2  1  -0.00000  0.00000  0.50000  1
