CIF file written using JARVIS-Tools package.
data_H5C7SNO
_symmetry_space_group_name_H-M  'P1'
_cell_length_a       5.21207
_cell_length_b       4.91101
_cell_length_c       7.45156
_cell_angle_alpha    79.2235
_cell_angle_beta     67.2274
_cell_angle_gamma    77.8388

_symmetry_Int_Tables_number  1
_chemical_formula_structural  H5C7SNO
_chemical_formula_sum  H5C7SNO
_cell_volume  170.73914059153796
_cell_formula_units_Z  1
loop_
  _symmetry_equiv_pos_site_id
 _symmetry_equiv_pos_as_xyz
 1  'x, y, z'
loop_
 _atom_site_type_symbol
 _atom_site_label
 _atom_site_symmetry_multiplicity
 _atom_site_fract_x
 _atom_site_fract_y
 _atom_site_fract_z
 _atom_site_fract_occupancy
 C  C1  1  0.23206  0.28844  0.51545  1
 C  C2  1  0.33436  0.40447  0.32664  1
 C  C3  1  0.93778  0.36046  0.64045  1
 C  C4  1  0.15203  0.60810  0.24441  1
 C  C5  1  0.76409  0.57972  0.55839  1
 C  C6  1  0.86689  0.70024  0.37110  1
 C  C7  1  0.22298  0.68228  0.03075  1
 H  H1  1  0.54516  0.63487  0.65169  1
 H  H2  1  0.55295  0.35065  0.23130  1
 H  H3  1  0.36731  0.13484  0.57905  1
 H  H4  1  0.73419  0.85750  0.30786  1
 H  H5  1  0.97053  0.08893  0.85515  1
 N  N1  1  0.82469  0.24096  0.81825  1
 O  O1  1  0.15908  0.61667  0.90550  1
 S  S1  1  0.38243  0.93632  0.05920  1
