CIF file written using JARVIS-Tools package.
data_LuUTe6
_symmetry_space_group_name_H-M  'Amm2'
_cell_length_a       12.6779
_cell_length_b       12.6779
_cell_length_c       4.3744
_cell_angle_alpha    90
_cell_angle_beta     90
_cell_angle_gamma    159.989

_symmetry_Int_Tables_number  38
_chemical_formula_structural  LuUTe6
_chemical_formula_sum  LuUTe6
_cell_volume  240.59442287339047
_cell_formula_units_Z  1
loop_
  _symmetry_equiv_pos_site_id
 _symmetry_equiv_pos_as_xyz
 1  'x, y, z'
loop_
 _atom_site_type_symbol
 _atom_site_label
 _atom_site_symmetry_multiplicity
 _atom_site_fract_x
 _atom_site_fract_y
 _atom_site_fract_z
 _atom_site_fract_occupancy
 Lu  Lu1  1  0.83287  0.16713  0.00000  1
 Te  Te1  1  0.42566  0.57434  0.00000  1
 Te  Te2  1  0.57443  0.42557  0.50000  1
 Te  Te3  1  0.70546  0.29454  0.00000  1
 Te  Te4  1  0.29381  0.70619  0.50000  1
 Te  Te5  1  0.07410  0.92590  0.00000  1
 Te  Te6  1  0.92658  0.07342  0.50000  1
 U  U1  1  0.16710  0.83290  0.50000  1
