CIF file written using JARVIS-Tools package.
data_YTi4Cu3O12
_symmetry_space_group_name_H-M  'Im-3'
_cell_length_a       6.46055
_cell_length_b       6.46056
_cell_length_c       6.4606
_cell_angle_alpha    109.471
_cell_angle_beta     109.472
_cell_angle_gamma    109.47

_symmetry_Int_Tables_number  204
_chemical_formula_structural  YTi4Cu3O12
_chemical_formula_sum  YTi4Cu3O2
_cell_volume  207.58249018901415
_cell_formula_units_Z  1
loop_
  _symmetry_equiv_pos_site_id
 _symmetry_equiv_pos_as_xyz
 1  'x, y, z'
loop_
 _atom_site_type_symbol
 _atom_site_label
 _atom_site_symmetry_multiplicity
 _atom_site_fract_x
 _atom_site_fract_y
 _atom_site_fract_z
 _atom_site_fract_occupancy
 Cu  Cu1  1  0.50000  0.00000  0.50000  1
 Cu  Cu2  1  0.50000  0.50000  -0.00000  1
 Cu  Cu3  1  0.00000  0.50000  0.50000  1
 O  O1  1  0.17590  0.29578  0.47169  1
 O  O2  1  0.82410  0.29579  0.11989  1
 O  O3  1  0.88011  0.17590  0.70421  1
 O  O4  1  0.82410  0.70422  0.52832  1
 O  O5  1  0.29579  0.47169  0.17590  1
 O  O6  1  0.17590  0.70421  0.88012  1
 O  O7  1  0.11989  0.82410  0.29579  1
 O  O8  1  0.70421  0.88010  0.17590  1
 O  O9  1  0.29579  0.11990  0.82410  1
 O  O10  1  0.47169  0.17590  0.29579  1
 O  O11  1  0.70421  0.52831  0.82410  1
 O  O12  1  0.52831  0.82410  0.70421  1
 Ti  Ti1  1  0.50000  0.50000  0.50000  1
 Ti  Ti2  1  0.00000  0.50000  0.00000  1
 Ti  Ti3  1  1.00000  1.00000  0.50000  1
 Ti  Ti4  1  0.50000  0.00000  1.00000  1
 Y  Y1  1  -0.00000  -0.00000  1.00000  1
