CIF file written using JARVIS-Tools package.
data_NaAlH2CO5
_symmetry_space_group_name_H-M  'Imma'
_cell_length_a       6.80328
_cell_length_b       6.80328
_cell_length_c       6.80328
_cell_angle_alpha    120.575
_cell_angle_beta     80.3845
_cell_angle_gamma    131.175

_symmetry_Int_Tables_number  74
_chemical_formula_structural  NaAlH2CO5
_chemical_formula_sum  Na2Al2H4C2O0
_cell_volume  197.09673172605648
_cell_formula_units_Z  2
loop_
  _symmetry_equiv_pos_site_id
 _symmetry_equiv_pos_as_xyz
 1  'x, y, z'
loop_
 _atom_site_type_symbol
 _atom_site_label
 _atom_site_symmetry_multiplicity
 _atom_site_fract_x
 _atom_site_fract_y
 _atom_site_fract_z
 _atom_site_fract_occupancy
 Al  Al1  1  0.50000  0.49101  0.99101  1
 Al  Al2  1  -0.00000  0.99101  0.99101  1
 C  C1  1  0.49956  0.74100  0.74057  1
 C  C2  1  0.50044  0.24100  0.24144  1
 H  H1  1  0.27951  0.93635  0.71586  1
 H  H2  1  0.72049  0.43635  0.65683  1
 H  H3  1  0.72052  0.04571  0.26622  1
 H  H4  1  0.27948  0.54571  0.32519  1
 Na  Na1  1  0.00003  0.99088  0.49092  1
 Na  Na2  1  -0.00003  0.49088  -0.00915  1
 O  O1  1  0.77524  0.92429  0.19953  1
 O  O2  1  0.77523  0.55774  0.83296  1
 O  O3  1  0.62249  0.24102  0.36351  1
 O  O4  1  0.37751  0.74102  0.61853  1
 O  O5  1  0.76441  0.94252  0.80388  1
 O  O6  1  0.23559  0.03947  0.17812  1
 O  O7  1  0.63864  0.44252  0.17812  1
 O  O8  1  0.36136  0.53947  0.80388  1
 O  O9  1  0.22476  0.42429  0.14905  1
 O  O10  1  0.22477  0.05774  0.78251  1
