CIF file written using JARVIS-Tools package.
data_LiCuO
_symmetry_space_group_name_H-M  'Cmcm'
_cell_length_a       3.38113
_cell_length_b       4.91447
_cell_length_c       4.92051
_cell_angle_alpha    90
_cell_angle_beta     90
_cell_angle_gamma    110.121

_symmetry_Int_Tables_number  63
_chemical_formula_structural  LiCuO
_chemical_formula_sum  Li2Cu2O2
_cell_volume  76.77152527991507
_cell_formula_units_Z  2
loop_
  _symmetry_equiv_pos_site_id
 _symmetry_equiv_pos_as_xyz
 1  'x, y, z'
loop_
 _atom_site_type_symbol
 _atom_site_label
 _atom_site_symmetry_multiplicity
 _atom_site_fract_x
 _atom_site_fract_y
 _atom_site_fract_z
 _atom_site_fract_occupancy
 Cu  Cu1  1  0.00000  0.00000  0.00000  1
 Cu  Cu2  1  0.00000  0.00000  0.50000  1
 Li  Li1  1  0.26921  0.53842  0.25000  1
 Li  Li2  1  0.73079  0.46158  0.75000  1
 O  O1  1  0.15045  0.30090  0.75000  1
 O  O2  1  0.84955  0.69910  0.25000  1
