CIF file written using JARVIS-Tools package.
data_H7C5
_symmetry_space_group_name_H-M  'P2_1/c'
_cell_length_a       4.60846
_cell_length_b       15.4332
_cell_length_c       7.09732
_cell_angle_alpha    90
_cell_angle_beta     125.419
_cell_angle_gamma    90

_symmetry_Int_Tables_number  14
_chemical_formula_structural  H7C5
_chemical_formula_sum  H28C20
_cell_volume  411.36385481584296
_cell_formula_units_Z  4
loop_
  _symmetry_equiv_pos_site_id
 _symmetry_equiv_pos_as_xyz
 1  'x, y, z'
loop_
 _atom_site_type_symbol
 _atom_site_label
 _atom_site_symmetry_multiplicity
 _atom_site_fract_x
 _atom_site_fract_y
 _atom_site_fract_z
 _atom_site_fract_occupancy
 C  C1  1  0.60868  0.96255  0.56850  1
 C  C2  1  0.39132  0.46255  0.93150  1
 C  C3  1  0.37833  0.10858  0.93351  1
 C  C4  1  0.60868  0.53745  0.06850  1
 C  C5  1  0.54567  0.91456  0.69501  1
 C  C6  1  0.45433  0.08544  0.30499  1
 C  C7  1  0.45433  0.41456  0.80499  1
 C  C8  1  0.54567  0.58544  0.19501  1
 C  C9  1  0.37832  0.39142  0.43351  1
 C  C10  1  0.62167  0.89142  0.06649  1
 C  C11  1  0.47618  0.86826  0.81942  1
 C  C12  1  0.52382  0.13174  0.18058  1
 C  C13  1  0.52382  0.36826  0.68058  1
 C  C14  1  0.47618  0.63174  0.31942  1
 C  C15  1  0.76468  0.21024  0.27755  1
 C  C16  1  0.76468  0.28976  0.77755  1
 C  C17  1  0.23532  0.71024  0.22245  1
 C  C18  1  0.39132  0.03745  0.43150  1
 C  C19  1  0.23532  0.78976  0.72245  1
 C  C20  1  0.62168  0.60858  0.56649  1
 H  H1  1  0.98972  0.29934  0.76493  1
 H  H2  1  0.62050  0.26861  0.17652  1
 H  H3  1  0.01028  0.79934  0.73507  1
 H  H4  1  0.98972  0.20066  0.26493  1
 H  H5  1  0.12956  0.72212  0.04144  1
 H  H6  1  0.12956  0.77788  0.54144  1
 H  H7  1  0.83599  0.94726  0.56320  1
 H  H8  1  0.16401  0.05274  0.43680  1
 H  H9  1  0.16401  0.44726  0.93680  1
 H  H10  1  0.83599  0.55274  0.06320  1
 H  H11  1  0.18812  0.05493  0.86860  1
 H  H12  1  0.18812  0.44507  0.36860  1
 H  H13  1  0.81188  0.55493  0.63140  1
 H  H14  1  0.75399  0.83503  0.17999  1
 H  H15  1  0.24601  0.16497  0.82001  1
 H  H16  1  0.37950  0.73139  0.82348  1
 H  H17  1  0.24601  0.33503  0.32001  1
 H  H18  1  0.40144  0.90975  0.07837  1
 H  H19  1  0.59856  0.09025  0.92163  1
 H  H20  1  0.81188  0.94507  0.13140  1
 H  H21  1  0.40145  0.59025  0.57837  1
 H  H22  1  0.59855  0.40975  0.42163  1
 H  H23  1  0.87044  0.27788  0.95856  1
 H  H24  1  0.87044  0.22212  0.45856  1
 H  H25  1  0.37950  0.76861  0.32348  1
 H  H26  1  0.62050  0.23139  0.67652  1
 H  H27  1  0.75399  0.66497  0.67999  1
 H  H28  1  0.01028  0.70066  0.23507  1
