CIF file written using JARVIS-Tools package.
data_ZrTiNi2H2
_symmetry_space_group_name_H-M  'Amm2'
_cell_length_a       5.14112
_cell_length_b       5.14112
_cell_length_c       3.99558
_cell_angle_alpha    90
_cell_angle_beta     90
_cell_angle_gamma    142.039

_symmetry_Int_Tables_number  38
_chemical_formula_structural  ZrTiNi2H2
_chemical_formula_sum  ZrTiNi2H2
_cell_volume  64.96144369616925
_cell_formula_units_Z  1
loop_
  _symmetry_equiv_pos_site_id
 _symmetry_equiv_pos_as_xyz
 1  'x, y, z'
loop_
 _atom_site_type_symbol
 _atom_site_label
 _atom_site_symmetry_multiplicity
 _atom_site_fract_x
 _atom_site_fract_y
 _atom_site_fract_z
 _atom_site_fract_occupancy
 H  H1  1  0.10005  0.89995  0.50000  1
 H  H2  1  0.82777  0.17223  0.00000  1
 Ni  Ni1  1  0.58826  0.41174  0.50000  1
 Ni  Ni2  1  0.43438  0.56562  0.00000  1
 Ti  Ti1  1  0.88287  0.11713  0.50000  1
 Zr  Zr1  1  0.16667  0.83333  0.00000  1
