CIF file written using JARVIS-Tools package.
data_Li2TiMnO4
_symmetry_space_group_name_H-M  'Imma'
_cell_length_a       5.78017
_cell_length_b       5.78017
_cell_length_c       5.84975
_cell_angle_alpha    120.401
_cell_angle_beta     120.401
_cell_angle_gamma    89.2042

_symmetry_Int_Tables_number  74
_chemical_formula_structural  Li2TiMnO4
_chemical_formula_sum  Li4Ti2Mn2O8
_cell_volume  137.4728094201332
_cell_formula_units_Z  2
loop_
  _symmetry_equiv_pos_site_id
 _symmetry_equiv_pos_as_xyz
 1  'x, y, z'
loop_
 _atom_site_type_symbol
 _atom_site_label
 _atom_site_symmetry_multiplicity
 _atom_site_fract_x
 _atom_site_fract_y
 _atom_site_fract_z
 _atom_site_fract_occupancy
 Li  Li1  1  -0.00000  0.50000  0.50000  1
 Li  Li2  1  0.50000  0.50000  0.50000  1
 Li  Li3  1  0.50000  0.00000  0.00000  1
 Li  Li4  1  0.50000  0.50000  0.00000  1
 Mn  Mn1  1  0.00000  0.50000  0.00000  1
 Mn  Mn2  1  0.50000  0.00000  0.50000  1
 O  O1  1  0.24870  0.75124  0.01322  1
 O  O2  1  0.24301  0.24033  0.49170  1
 O  O3  1  0.24876  0.75130  0.48678  1
 O  O4  1  0.75967  0.75699  0.00830  1
 O  O5  1  0.24033  0.24301  0.99170  1
 O  O6  1  0.75124  0.24870  0.51322  1
 O  O7  1  0.75699  0.75967  0.50830  1
 O  O8  1  0.75130  0.24876  0.98678  1
 Ti  Ti1  1  -0.00000  0.00000  0.50000  1
 Ti  Ti2  1  0.00000  0.00000  0.00000  1
