CIF file written using JARVIS-Tools package.
data_H8C5O2
_symmetry_space_group_name_H-M  'P2_1/c'
_cell_length_a       12.8569
_cell_length_b       6.82076
_cell_length_c       5.31825
_cell_angle_alpha    90
_cell_angle_beta     93.9576
_cell_angle_gamma    90

_symmetry_Int_Tables_number  14
_chemical_formula_structural  H8C5O2
_chemical_formula_sum  H32C20O8
_cell_volume  465.2671232813216
_cell_formula_units_Z  4
loop_
  _symmetry_equiv_pos_site_id
 _symmetry_equiv_pos_as_xyz
 1  'x, y, z'
loop_
 _atom_site_type_symbol
 _atom_site_label
 _atom_site_symmetry_multiplicity
 _atom_site_fract_x
 _atom_site_fract_y
 _atom_site_fract_z
 _atom_site_fract_occupancy
 C  C1  1  0.62632  0.53568  0.81932  1
 C  C2  1  0.62632  0.96432  0.31932  1
 C  C3  1  0.37368  0.46432  0.18068  1
 C  C4  1  0.55466  0.45554  0.01297  1
 C  C5  1  0.55466  0.04446  0.51297  1
 C  C6  1  0.44534  0.95554  0.48703  1
 C  C7  1  0.44534  0.54446  0.98703  1
 C  C8  1  0.73634  0.45128  0.85987  1
 C  C9  1  0.26366  0.54872  0.14013  1
 C  C10  1  0.37368  0.03568  0.68068  1
 C  C11  1  0.18969  0.47362  0.32520  1
 C  C12  1  0.81031  0.52638  0.67480  1
 C  C13  1  0.18969  0.02638  0.82520  1
 C  C14  1  0.81031  0.97362  0.17480  1
 C  C15  1  0.99129  0.57262  0.60516  1
 C  C16  1  0.00871  0.42738  0.39484  1
 C  C17  1  0.00871  0.07262  0.89484  1
 C  C18  1  0.99129  0.92738  0.10516  1
 C  C19  1  0.26366  0.95128  0.64013  1
 C  C20  1  0.73634  0.04872  0.35987  1
 H  H1  1  0.76939  0.48478  0.05114  1
 H  H2  1  0.26530  0.78980  0.65793  1
 H  H3  1  0.06111  0.91297  0.23336  1
 H  H4  1  0.23061  0.51522  0.94886  1
 H  H5  1  0.96697  0.71596  0.52965  1
 H  H6  1  0.23061  0.98478  0.44886  1
 H  H7  1  0.73470  0.21020  0.34207  1
 H  H8  1  0.03303  0.28404  0.47035  1
 H  H9  1  0.54872  0.29477  0.99439  1
 H  H10  1  0.45128  0.70523  0.00561  1
 H  H11  1  0.54872  0.20523  0.49439  1
 H  H12  1  0.59040  0.48461  0.20403  1
 H  H13  1  0.40960  0.51539  0.79597  1
 H  H14  1  0.40960  0.98461  0.29597  1
 H  H15  1  0.59040  0.01539  0.70403  1
 H  H16  1  0.59377  0.50213  0.62718  1
 H  H17  1  0.76939  0.01522  0.55114  1
 H  H18  1  0.40623  0.00213  0.87282  1
 H  H19  1  0.59377  0.99787  0.12718  1
 H  H20  1  0.63119  0.69620  0.83438  1
 H  H21  1  0.40623  0.49787  0.37282  1
 H  H22  1  0.36881  0.19620  0.66562  1
 H  H23  1  0.63119  0.80380  0.33438  1
 H  H24  1  0.45128  0.79477  0.50561  1
 H  H25  1  0.26530  0.71020  0.15793  1
 H  H26  1  0.73470  0.28980  0.84207  1
 H  H27  1  0.93889  0.08703  0.76664  1
 H  H28  1  0.93889  0.41297  0.26664  1
 H  H29  1  0.06111  0.58703  0.73336  1
 H  H30  1  0.96697  0.78404  0.02965  1
 H  H31  1  0.36881  0.30380  0.16562  1
 H  H32  1  0.03303  0.21596  0.97035  1
 O  O1  1  0.91150  0.00102  0.26338  1
 O  O2  1  0.08850  0.99898  0.73662  1
 O  O3  1  0.21383  0.40076  0.53127  1
 O  O4  1  0.08850  0.50102  0.23662  1
 O  O5  1  0.78617  0.90076  0.96873  1
 O  O6  1  0.21383  0.09924  0.03127  1
 O  O7  1  0.91150  0.49898  0.76338  1
 O  O8  1  0.78617  0.59924  0.46873  1
