CIF file written using JARVIS-Tools package.
data_YAgTe2
_symmetry_space_group_name_H-M  'P3m1'
_cell_length_a       4.47758
_cell_length_b       4.47757
_cell_length_c       7.34817
_cell_angle_alpha    90
_cell_angle_beta     90
_cell_angle_gamma    120

_symmetry_Int_Tables_number  156
_chemical_formula_structural  YAgTe2
_chemical_formula_sum  YAgTe2
_cell_volume  127.58385047104117
_cell_formula_units_Z  1
loop_
  _symmetry_equiv_pos_site_id
 _symmetry_equiv_pos_as_xyz
 1  'x, y, z'
loop_
 _atom_site_type_symbol
 _atom_site_label
 _atom_site_symmetry_multiplicity
 _atom_site_fract_x
 _atom_site_fract_y
 _atom_site_fract_z
 _atom_site_fract_occupancy
 Ag  Ag1  1  0.00000  0.00000  0.38784  1
 Te  Te1  1  0.00000  0.00000  0.76301  1
 Te  Te2  1  0.33333  0.66667  0.22965  1
 Y  Y1  1  0.66667  0.33333  0.98451  1
