CIF file written using JARVIS-Tools package.
data_Li3FeOF3
_symmetry_space_group_name_H-M  'P-1'
_cell_length_a       2.92274
_cell_length_b       5.10933
_cell_length_c       10.0829
_cell_angle_alpha    99.8401
_cell_angle_beta     89.6769
_cell_angle_gamma    105.995

_symmetry_Int_Tables_number  2
_chemical_formula_structural  Li3FeOF3
_chemical_formula_sum  Li6Fe2O2F6
_cell_volume  142.47571060861844
_cell_formula_units_Z  2
loop_
  _symmetry_equiv_pos_site_id
 _symmetry_equiv_pos_as_xyz
 1  'x, y, z'
loop_
 _atom_site_type_symbol
 _atom_site_label
 _atom_site_symmetry_multiplicity
 _atom_site_fract_x
 _atom_site_fract_y
 _atom_site_fract_z
 _atom_site_fract_occupancy
 F  F1  1  0.87149  0.74914  0.31139  1
 F  F2  1  0.61095  0.24433  0.42816  1
 F  F3  1  0.63393  0.26835  0.95150  1
 F  F4  1  0.12493  0.25381  0.18861  1
 F  F5  1  0.38546  0.75860  0.07183  1
 F  F6  1  0.36244  0.73453  0.54850  1
 Fe  Fe1  1  0.71854  0.48746  0.64645  1
 Fe  Fe2  1  0.27782  0.51535  0.85352  1
 Li  Li1  1  0.75633  0.50792  0.13191  1
 Li  Li2  1  0.49820  0.00148  0.24999  1
 Li  Li3  1  0.49813  0.00139  0.74997  1
 Li  Li4  1  0.98903  -0.00230  0.49634  1
 Li  Li5  1  0.24004  0.49501  0.36808  1
 Li  Li6  1  0.00733  0.00516  0.00363  1
 O  O1  1  0.90477  0.77669  0.82100  1
 O  O2  1  0.09155  0.22612  0.67897  1
