CIF file written using JARVIS-Tools package.
data_TiP
_symmetry_space_group_name_H-M  'P6_3/mmc'
_cell_length_a       7.33402
_cell_length_b       7.33402
_cell_length_c       4.8944
_cell_angle_alpha    90
_cell_angle_beta     90
_cell_angle_gamma    120

_symmetry_Int_Tables_number  194
_chemical_formula_structural  TiP
_chemical_formula_sum  Ti6P6
_cell_volume  227.98969435088432
_cell_formula_units_Z  6
loop_
  _symmetry_equiv_pos_site_id
 _symmetry_equiv_pos_as_xyz
 1  'x, y, z'
loop_
 _atom_site_type_symbol
 _atom_site_label
 _atom_site_symmetry_multiplicity
 _atom_site_fract_x
 _atom_site_fract_y
 _atom_site_fract_z
 _atom_site_fract_occupancy
 P  P1  1  0.66666  0.00000  0.25000  1
 P  P2  1  0.00000  0.66666  0.25000  1
 P  P3  1  0.33334  0.33334  0.25000  1
 P  P4  1  0.33334  -0.00000  0.75000  1
 P  P5  1  -0.00000  0.33334  0.75000  1
 P  P6  1  0.66666  0.66666  0.75000  1
 Ti  Ti1  1  0.33332  0.00000  0.25000  1
 Ti  Ti2  1  0.00000  0.33332  0.25000  1
 Ti  Ti3  1  0.66668  0.66668  0.25000  1
 Ti  Ti4  1  0.66668  -0.00000  0.75000  1
 Ti  Ti5  1  -0.00000  0.66668  0.75000  1
 Ti  Ti6  1  0.33332  0.33332  0.75000  1
