CIF file written using JARVIS-Tools package.
data_Rb3CuO2
_symmetry_space_group_name_H-M  'P2_1/c'
_cell_length_a       6.72784
_cell_length_b       9.7116
_cell_length_c       9.40187
_cell_angle_alpha    90
_cell_angle_beta     111.922
_cell_angle_gamma    90

_symmetry_Int_Tables_number  14
_chemical_formula_structural  Rb3CuO2
_chemical_formula_sum  Rb2Cu4O8
_cell_volume  569.8836151573979
_cell_formula_units_Z  4
loop_
  _symmetry_equiv_pos_site_id
 _symmetry_equiv_pos_as_xyz
 1  'x, y, z'
loop_
 _atom_site_type_symbol
 _atom_site_label
 _atom_site_symmetry_multiplicity
 _atom_site_fract_x
 _atom_site_fract_y
 _atom_site_fract_z
 _atom_site_fract_occupancy
 Cu  Cu1  1  0.29223  0.17956  0.82722  1
 Cu  Cu2  1  0.70777  0.67956  0.67278  1
 Cu  Cu3  1  0.70777  0.82044  0.17278  1
 Cu  Cu4  1  0.29223  0.32044  0.32722  1
 O  O1  1  0.48762  0.80201  0.62067  1
 O  O2  1  0.48762  0.69799  0.12067  1
 O  O3  1  0.06771  0.43946  0.27794  1
 O  O4  1  0.93229  0.93946  0.22206  1
 O  O5  1  0.93229  0.56054  0.72206  1
 O  O6  1  0.06771  0.06054  0.77794  1
 O  O7  1  0.51238  0.30201  0.87933  1
 O  O8  1  0.51238  0.19799  0.37933  1
 Rb  Rb1  1  0.23862  0.70961  0.31227  1
 Rb  Rb2  1  0.76138  0.29039  0.68773  1
 Rb  Rb3  1  0.23862  0.79039  0.81227  1
 Rb  Rb4  1  0.73469  0.97762  0.87511  1
 Rb  Rb5  1  0.75458  0.96403  0.49487  1
 Rb  Rb6  1  0.26531  0.02238  0.12489  1
 Rb  Rb7  1  0.73469  0.52238  0.37511  1
 Rb  Rb8  1  0.75458  0.53597  0.99487  1
 Rb  Rb9  1  0.24542  0.03597  0.50513  1
 Rb  Rb10  1  0.24542  0.46403  0.00513  1
 Rb  Rb11  1  0.76138  0.20961  0.18773  1
 Rb  Rb12  1  0.26531  0.47762  0.62489  1
