CIF file written using JARVIS-Tools package.
data_H6C9S2O
_symmetry_space_group_name_H-M  'P1'
_cell_length_a       4.5713
_cell_length_b       7.91423
_cell_length_c       11.4139
_cell_angle_alpha    79.7303
_cell_angle_beta     85.2413
_cell_angle_gamma    83.2976

_symmetry_Int_Tables_number  1
_chemical_formula_structural  H6C9S2O
_chemical_formula_sum  H2C8S4O2
_cell_volume  402.72715147221925
_cell_formula_units_Z  2
loop_
  _symmetry_equiv_pos_site_id
 _symmetry_equiv_pos_as_xyz
 1  'x, y, z'
loop_
 _atom_site_type_symbol
 _atom_site_label
 _atom_site_symmetry_multiplicity
 _atom_site_fract_x
 _atom_site_fract_y
 _atom_site_fract_z
 _atom_site_fract_occupancy
 C  C1  1  0.31940  0.83016  0.36980  1
 C  C2  1  0.74403  0.32570  0.57727  1
 C  C3  1  0.57995  0.97989  0.86388  1
 C  C4  1  0.07933  0.97970  0.36378  1
 C  C5  1  0.09900  0.10317  0.24788  1
 C  C6  1  0.59941  0.10319  0.74790  1
 C  C7  1  0.68493  0.58057  0.43863  1
 C  C8  1  0.46450  0.75529  0.27855  1
 C  C9  1  0.55867  0.21990  0.54537  1
 C  C10  1  0.05861  0.22022  0.04538  1
 C  C11  1  0.96511  0.75540  0.77873  1
 C  C12  1  0.47779  0.09284  0.64373  1
 C  C13  1  0.97745  0.09308  0.14365  1
 C  C14  1  0.67511  0.61237  0.31736  1
 C  C15  1  0.17569  0.61247  0.81757  1
 C  C16  1  0.18545  0.58075  0.93885  1
 C  C17  1  0.24411  0.32582  0.07743  1
 C  C18  1  0.82000  0.83033  0.86994  1
 H  H1  1  0.58583  0.04737  0.93997  1
 H  H2  1  0.48391  0.23553  0.45579  1
 H  H3  1  0.86125  0.93044  0.37298  1
 H  H4  1  0.33249  0.99519  0.63915  1
 H  H5  1  0.81461  0.53712  0.25932  1
 H  H6  1  0.31518  0.53718  0.75957  1
 H  H7  1  0.83198  0.99557  0.13895  1
 H  H8  1  0.98393  0.23605  0.95578  1
 H  H9  1  0.41886  0.80096  0.18546  1
 H  H10  1  0.91949  0.80101  0.68562  1
 H  H11  1  0.08503  0.04703  0.43996  1
 H  H12  1  0.36186  0.93063  0.87321  1
 O  O1  1  0.37555  0.46038  0.00641  1
 O  O2  1  0.87523  0.46024  0.50612  1
 S  S1  1  0.94038  0.72449  0.00703  1
 S  S2  1  0.43984  0.72425  0.50687  1
 S  S3  1  0.31383  0.27474  0.22732  1
 S  S4  1  0.81401  0.27488  0.72714  1
