CIF file written using JARVIS-Tools package.
data_NbB4Mo3
_symmetry_space_group_name_H-M  'Amm2'
_cell_length_a       4.5959
_cell_length_b       4.5959
_cell_length_c       6.20608
_cell_angle_alpha    90
_cell_angle_beta     90
_cell_angle_gamma    139.143

_symmetry_Int_Tables_number  38
_chemical_formula_structural  NbB4Mo3
_chemical_formula_sum  NbB4Mo3
_cell_volume  85.75390918011018
_cell_formula_units_Z  1
loop_
  _symmetry_equiv_pos_site_id
 _symmetry_equiv_pos_as_xyz
 1  'x, y, z'
loop_
 _atom_site_type_symbol
 _atom_site_label
 _atom_site_symmetry_multiplicity
 _atom_site_fract_x
 _atom_site_fract_y
 _atom_site_fract_z
 _atom_site_fract_occupancy
 B  B1  1  0.55930  0.44070  0.00000  1
 B  B2  1  0.55923  0.44077  0.50000  1
 B  B3  1  0.44240  0.55760  0.25264  1
 B  B4  1  0.44240  0.55760  0.74736  1
 Mo  Mo1  1  0.85485  0.14515  0.50000  1
 Mo  Mo2  1  0.14455  0.85545  0.25404  1
 Mo  Mo3  1  0.14455  0.85545  0.74596  1
 Nb  Nb1  1  0.85271  0.14729  0.00000  1
