CIF file written using JARVIS-Tools package.
data_Cr4Te3S
_symmetry_space_group_name_H-M  'Imm2'
_cell_length_a       7.36769
_cell_length_b       7.36768
_cell_length_c       7.36769
_cell_angle_alpha    148.8
_cell_angle_beta     124.959
_cell_angle_gamma    64.6363

_symmetry_Int_Tables_number  44
_chemical_formula_structural  Cr4Te3S
_chemical_formula_sum  Cr4Te3S
_cell_volume  167.98790230013043
_cell_formula_units_Z  1
loop_
  _symmetry_equiv_pos_site_id
 _symmetry_equiv_pos_as_xyz
 1  'x, y, z'
loop_
 _atom_site_type_symbol
 _atom_site_label
 _atom_site_symmetry_multiplicity
 _atom_site_fract_x
 _atom_site_fract_y
 _atom_site_fract_z
 _atom_site_fract_occupancy
 Cr  Cr1  1  0.09405  0.12249  0.97155  1
 Cr  Cr2  1  0.64526  0.61547  0.02979  1
 Cr  Cr3  1  0.41431  0.38453  0.02979  1
 Cr  Cr4  1  0.84906  0.87751  0.97155  1
 S  S1  1  0.67595  -0.00000  0.67595  1
 Te  Te1  1  0.16070  0.50000  0.66070  1
 Te  Te2  1  0.09596  0.76200  0.33396  1
 Te  Te3  1  0.57196  0.23800  0.33396  1
