CIF file written using JARVIS-Tools package.
data_CdH6C5O4
_symmetry_space_group_name_H-M  'P1'
_cell_length_a       3.97437
_cell_length_b       4.39513
_cell_length_c       8.32647
_cell_angle_alpha    101.595
_cell_angle_beta     91.6677
_cell_angle_gamma    102.745

_symmetry_Int_Tables_number  1
_chemical_formula_structural  CdH6C5O4
_chemical_formula_sum  CdH6C5O4
_cell_volume  138.55571100167694
_cell_formula_units_Z  1
loop_
  _symmetry_equiv_pos_site_id
 _symmetry_equiv_pos_as_xyz
 1  'x, y, z'
loop_
 _atom_site_type_symbol
 _atom_site_label
 _atom_site_symmetry_multiplicity
 _atom_site_fract_x
 _atom_site_fract_y
 _atom_site_fract_z
 _atom_site_fract_occupancy
 C  C1  1  0.98598  0.92138  0.53749  1
 C  C2  1  0.18847  0.94604  0.38699  1
 C  C3  1  0.98428  0.04885  0.25522  1
 C  C4  1  0.20244  0.18505  0.12641  1
 C  C5  1  0.27832  0.95689  0.97891  1
 Cd  Cd1  1  0.57646  0.49316  0.76580  1
 H  H1  1  0.42643  0.13060  0.42640  1
 H  H2  1  0.25700  0.71899  0.33891  1
 H  H3  1  0.86777  0.23914  0.31901  1
 H  H4  1  0.06480  0.33735  0.07359  1
 H  H5  1  0.77245  0.84916  0.19394  1
 H  H6  1  0.44997  0.34242  0.18267  1
 O  O1  1  0.03975  0.16610  0.65682  1
 O  O2  1  0.76277  0.66298  0.53661  1
 O  O3  1  0.09711  0.67022  0.93669  1
 O  O4  1  0.53264  0.05137  0.89581  1
