CIF file written using JARVIS-Tools package.
data_NaNdO2
_symmetry_space_group_name_H-M  'I4_1/amd'
_cell_length_a       4.77587
_cell_length_b       4.77587
_cell_length_c       6.40426
_cell_angle_alpha    111.892
_cell_angle_beta     111.892
_cell_angle_gamma    90

_symmetry_Int_Tables_number  141
_chemical_formula_structural  NaNdO2
_chemical_formula_sum  Na2Nd2O4
_cell_volume  124.11536333133782
_cell_formula_units_Z  2
loop_
  _symmetry_equiv_pos_site_id
 _symmetry_equiv_pos_as_xyz
 1  'x, y, z'
loop_
 _atom_site_type_symbol
 _atom_site_label
 _atom_site_symmetry_multiplicity
 _atom_site_fract_x
 _atom_site_fract_y
 _atom_site_fract_z
 _atom_site_fract_occupancy
 Na  Na1  1  0.12500  0.87500  0.25000  1
 Na  Na2  1  0.87500  0.12500  0.75000  1
 Nd  Nd1  1  0.37500  0.62500  0.75000  1
 Nd  Nd2  1  0.62500  0.37500  0.25000  1
 O  O1  1  0.15330  0.40330  0.30659  1
 O  O2  1  0.40330  0.15330  0.80659  1
 O  O3  1  0.59670  0.84670  0.19341  1
 O  O4  1  0.84670  0.59670  0.69341  1
