CIF file written using JARVIS-Tools package.
data_V2O5
_symmetry_space_group_name_H-M  'P2_1/m'
_cell_length_a       3.57538
_cell_length_b       6.328
_cell_length_c       7.18903
_cell_angle_alpha    89.98
_cell_angle_beta     90
_cell_angle_gamma    90

_symmetry_Int_Tables_number  11
_chemical_formula_structural  V2O5
_chemical_formula_sum  V4O0
_cell_volume  162.65160843642295
_cell_formula_units_Z  2
loop_
  _symmetry_equiv_pos_site_id
 _symmetry_equiv_pos_as_xyz
 1  'x, y, z'
loop_
 _atom_site_type_symbol
 _atom_site_label
 _atom_site_symmetry_multiplicity
 _atom_site_fract_x
 _atom_site_fract_y
 _atom_site_fract_z
 _atom_site_fract_occupancy
 O  O1  1  0.25000  0.74075  0.80596  1
 O  O2  1  0.75000  0.25925  0.19404  1
 O  O3  1  0.75000  0.03777  0.70093  1
 O  O4  1  0.25000  0.96223  0.29907  1
 O  O5  1  0.75000  0.44175  0.82484  1
 O  O6  1  0.25000  0.55825  0.17516  1
 O  O7  1  0.25000  0.14483  0.96783  1
 O  O8  1  0.75000  0.67881  0.50551  1
 O  O9  1  0.25000  0.32119  0.49449  1
 O  O10  1  0.75000  0.85517  0.03217  1
 V  V1  1  0.75000  0.74215  0.72048  1
 V  V2  1  0.25000  0.25785  0.27952  1
 V  V3  1  0.75000  0.19471  0.90125  1
 V  V4  1  0.25000  0.80529  0.09875  1
