CIF file written using JARVIS-Tools package.
data_LiMgN
_symmetry_space_group_name_H-M  'Pnma'
_cell_length_a       3.48486
_cell_length_b       4.99752
_cell_length_c       7.17476
_cell_angle_alpha    90
_cell_angle_beta     90
_cell_angle_gamma    90

_symmetry_Int_Tables_number  62
_chemical_formula_structural  LiMgN
_chemical_formula_sum  Li4Mg4N4
_cell_volume  124.95301430851389
_cell_formula_units_Z  4
loop_
  _symmetry_equiv_pos_site_id
 _symmetry_equiv_pos_as_xyz
 1  'x, y, z'
loop_
 _atom_site_type_symbol
 _atom_site_label
 _atom_site_symmetry_multiplicity
 _atom_site_fract_x
 _atom_site_fract_y
 _atom_site_fract_z
 _atom_site_fract_occupancy
 Li  Li1  1  0.25000  0.52881  0.09495  1
 Li  Li2  1  0.75000  0.47119  0.90505  1
 Li  Li3  1  0.75000  0.02881  0.40505  1
 Li  Li4  1  0.25000  0.97119  0.59495  1
 Mg  Mg1  1  0.25000  0.47992  0.64436  1
 Mg  Mg2  1  0.75000  0.97992  0.85564  1
 Mg  Mg3  1  0.25000  0.02008  0.14436  1
 Mg  Mg4  1  0.75000  0.52008  0.35564  1
 N  N1  1  0.75000  0.76722  0.11898  1
 N  N2  1  0.75000  0.73278  0.61898  1
 N  N3  1  0.25000  0.23278  0.88102  1
 N  N4  1  0.25000  0.26722  0.38102  1
