CIF file written using JARVIS-Tools package.
data_S
_symmetry_space_group_name_H-M  'P2/c'
_cell_length_a       8.15582
_cell_length_b       13.1342
_cell_length_c       9.04199
_cell_angle_alpha    90
_cell_angle_beta     122.137
_cell_angle_gamma    90

_symmetry_Int_Tables_number  13
_chemical_formula_structural  S
_chemical_formula_sum  S32
_cell_volume  820.172583608312
_cell_formula_units_Z  32
loop_
  _symmetry_equiv_pos_site_id
 _symmetry_equiv_pos_as_xyz
 1  'x, y, z'
loop_
 _atom_site_type_symbol
 _atom_site_label
 _atom_site_symmetry_multiplicity
 _atom_site_fract_x
 _atom_site_fract_y
 _atom_site_fract_z
 _atom_site_fract_occupancy
 S  S1  1  0.34933  0.34339  0.67795  1
 S  S2  1  0.65067  0.34339  0.82205  1
 S  S3  1  0.65067  0.65661  0.32205  1
 S  S4  1  0.34933  0.65661  0.17795  1
 S  S5  1  0.18379  0.57941  0.66358  1
 S  S6  1  0.81621  0.57941  0.83642  1
 S  S7  1  0.81621  0.42059  0.33642  1
 S  S8  1  0.18379  0.42059  0.16358  1
 S  S9  1  0.25423  0.44233  0.79570  1
 S  S10  1  0.74577  0.44233  0.70430  1
 S  S11  1  0.74577  0.55767  0.20430  1
 S  S12  1  0.25423  0.55767  0.29570  1
 S  S13  1  0.41456  0.67891  0.80262  1
 S  S14  1  0.58544  0.67891  0.69738  1
 S  S15  1  0.58544  0.32109  0.19738  1
 S  S16  1  0.41456  0.32109  0.30262  1
 S  S17  1  0.91920  0.79440  0.11473  1
 S  S18  1  0.08080  0.79440  0.38527  1
 S  S19  1  0.08080  0.20560  0.88527  1
 S  S20  1  0.91920  0.20560  0.61473  1
 S  S21  1  0.75255  0.03043  0.96668  1
 S  S22  1  0.24745  0.03043  0.53332  1
 S  S23  1  0.24745  0.96957  0.03332  1
 S  S24  1  0.75255  0.96957  0.46668  1
 S  S25  1  0.68651  0.89216  0.03283  1
 S  S26  1  0.31349  0.89216  0.46717  1
 S  S27  1  0.31349  0.10784  0.96717  1
 S  S28  1  0.68651  0.10784  0.53283  1
 S  S29  1  0.84954  0.12830  0.17695  1
 S  S30  1  0.15046  0.12830  0.32305  1
 S  S31  1  0.15046  0.87170  0.82305  1
 S  S32  1  0.84954  0.87170  0.67695  1
