CIF file written using JARVIS-Tools package.
data_SiH3I
_symmetry_space_group_name_H-M  'P2_1/c'
_cell_length_a       4.5133
_cell_length_b       8.33582
_cell_length_c       10.4905
_cell_angle_alpha    90
_cell_angle_beta     102.26
_cell_angle_gamma    90

_symmetry_Int_Tables_number  14
_chemical_formula_structural  SiH3I
_chemical_formula_sum  Si4H2I4
_cell_volume  385.67111120527005
_cell_formula_units_Z  4
loop_
  _symmetry_equiv_pos_site_id
 _symmetry_equiv_pos_as_xyz
 1  'x, y, z'
loop_
 _atom_site_type_symbol
 _atom_site_label
 _atom_site_symmetry_multiplicity
 _atom_site_fract_x
 _atom_site_fract_y
 _atom_site_fract_z
 _atom_site_fract_occupancy
 H  H1  1  0.58827  0.96239  0.62867  1
 H  H2  1  0.33383  0.83248  0.19686  1
 H  H3  1  0.77882  0.01369  0.22721  1
 H  H4  1  0.22118  0.51369  0.27279  1
 H  H5  1  0.22118  0.98631  0.77279  1
 H  H6  1  0.77882  0.48631  0.72721  1
 H  H7  1  0.41173  0.46239  0.87133  1
 H  H8  1  0.66617  0.33248  0.30314  1
 H  H9  1  0.58827  0.53761  0.12867  1
 H  H10  1  0.41173  0.03761  0.37133  1
 H  H11  1  0.33383  0.66752  0.69686  1
 H  H12  1  0.66617  0.16752  0.80314  1
 I  I1  1  0.13625  0.23021  0.05668  1
 I  I2  1  0.86375  0.73021  0.44332  1
 I  I3  1  0.86375  0.76979  0.94332  1
 I  I4  1  0.13625  0.26979  0.55668  1
 Si  Si1  1  0.55868  0.57148  0.79082  1
 Si  Si2  1  0.44132  0.07148  0.70918  1
 Si  Si3  1  0.44132  0.42852  0.20918  1
 Si  Si4  1  0.55868  0.92852  0.29082  1
