CIF file written using JARVIS-Tools package.
data_DyMn2SiC
_symmetry_space_group_name_H-M  'Cmcm'
_cell_length_a       5.5861
_cell_length_b       5.5861
_cell_length_c       6.96121
_cell_angle_alpha    90
_cell_angle_beta     90
_cell_angle_gamma    141.269

_symmetry_Int_Tables_number  63
_chemical_formula_structural  DyMn2SiC
_chemical_formula_sum  Dy2Mn4Si2C2
_cell_volume  135.90798665601548
_cell_formula_units_Z  2
loop_
  _symmetry_equiv_pos_site_id
 _symmetry_equiv_pos_as_xyz
 1  'x, y, z'
loop_
 _atom_site_type_symbol
 _atom_site_label
 _atom_site_symmetry_multiplicity
 _atom_site_fract_x
 _atom_site_fract_y
 _atom_site_fract_z
 _atom_site_fract_occupancy
 C  C1  1  0.00000  0.00000  0.00000  1
 C  C2  1  0.00000  0.00000  0.50000  1
 Dy  Dy1  1  0.54402  0.45598  0.25000  1
 Dy  Dy2  1  0.45598  0.54402  0.75000  1
 Mn  Mn1  1  0.83160  0.16840  0.06185  1
 Mn  Mn2  1  0.16840  0.83160  0.93815  1
 Mn  Mn3  1  0.16840  0.83160  0.56185  1
 Mn  Mn4  1  0.83160  0.16840  0.43815  1
 Si  Si1  1  0.26507  0.73493  0.25000  1
 Si  Si2  1  0.73493  0.26507  0.75000  1
