CIF file written using JARVIS-Tools package.
data_Mg2CoIrO6
_symmetry_space_group_name_H-M  'P2_1/c'
_cell_length_a       5.00904
_cell_length_b       5.22164
_cell_length_c       8.89731
_cell_angle_alpha    90
_cell_angle_beta     123.859
_cell_angle_gamma    90

_symmetry_Int_Tables_number  14
_chemical_formula_structural  Mg2CoIrO6
_chemical_formula_sum  Mg4Co2Ir2O2
_cell_volume  193.2468738105705
_cell_formula_units_Z  2
loop_
  _symmetry_equiv_pos_site_id
 _symmetry_equiv_pos_as_xyz
 1  'x, y, z'
loop_
 _atom_site_type_symbol
 _atom_site_label
 _atom_site_symmetry_multiplicity
 _atom_site_fract_x
 _atom_site_fract_y
 _atom_site_fract_z
 _atom_site_fract_occupancy
 Co  Co1  1  0.00000  0.50000  0.00000  1
 Co  Co2  1  -0.00000  0.00000  0.50000  1
 Ir  Ir1  1  0.50000  0.50000  0.50000  1
 Ir  Ir2  1  0.50000  0.00000  0.00000  1
 Mg  Mg1  1  0.23581  0.93677  0.24738  1
 Mg  Mg2  1  0.76419  0.43677  0.25262  1
 Mg  Mg3  1  0.23581  0.56323  0.74738  1
 Mg  Mg4  1  0.76419  0.06323  0.75262  1
 O  O1  1  0.62114  0.42988  0.75513  1
 O  O2  1  0.75570  0.82101  0.57059  1
 O  O3  1  0.24430  0.17899  0.42941  1
 O  O4  1  0.75570  0.67899  0.07059  1
 O  O5  1  0.89571  0.19057  0.06861  1
 O  O6  1  0.24430  0.32101  0.92941  1
 O  O7  1  0.62114  0.07012  0.25513  1
 O  O8  1  0.89571  0.30943  0.56861  1
 O  O9  1  0.10429  0.69057  0.43139  1
 O  O10  1  0.10429  0.80943  0.93139  1
 O  O11  1  0.37886  0.92988  0.74487  1
 O  O12  1  0.37886  0.57012  0.24487  1
