CIF file written using JARVIS-Tools package.
data_CrNiSb2
_symmetry_space_group_name_H-M  'P-3m1'
_cell_length_a       4.02181
_cell_length_b       4.02181
_cell_length_c       5.43847
_cell_angle_alpha    90
_cell_angle_beta     90
_cell_angle_gamma    120

_symmetry_Int_Tables_number  164
_chemical_formula_structural  CrNiSb2
_chemical_formula_sum  CrNiSb2
_cell_volume  76.18172738241395
_cell_formula_units_Z  1
loop_
  _symmetry_equiv_pos_site_id
 _symmetry_equiv_pos_as_xyz
 1  'x, y, z'
loop_
 _atom_site_type_symbol
 _atom_site_label
 _atom_site_symmetry_multiplicity
 _atom_site_fract_x
 _atom_site_fract_y
 _atom_site_fract_z
 _atom_site_fract_occupancy
 Cr  Cr1  1  0.00000  0.00000  0.00000  1
 Ni  Ni1  1  0.00000  0.00000  0.50000  1
 Sb  Sb1  1  0.33333  0.66667  0.26404  1
 Sb  Sb2  1  0.66667  0.33333  0.73596  1
