CIF file written using JARVIS-Tools package.
data_Rb2CoSe2
_symmetry_space_group_name_H-M  'Ibam'
_cell_length_a       6.38328
_cell_length_b       7.11993
_cell_length_c       8.31378
_cell_angle_alpha    115.353
_cell_angle_beta     112.575
_cell_angle_gamma    90

_symmetry_Int_Tables_number  72
_chemical_formula_structural  Rb2CoSe2
_chemical_formula_sum  Rb4Co2Se4
_cell_volume  309.1137254236829
_cell_formula_units_Z  2
loop_
  _symmetry_equiv_pos_site_id
 _symmetry_equiv_pos_as_xyz
 1  'x, y, z'
loop_
 _atom_site_type_symbol
 _atom_site_label
 _atom_site_symmetry_multiplicity
 _atom_site_fract_x
 _atom_site_fract_y
 _atom_site_fract_z
 _atom_site_fract_occupancy
 Co  Co1  1  0.75000  0.00000  0.00000  1
 Co  Co2  1  0.25000  0.00000  0.00000  1
 Rb  Rb1  1  0.64620  0.81386  0.29240  1
 Rb  Rb2  1  0.35380  0.18614  0.70760  1
 Rb  Rb3  1  0.85380  0.52146  0.70760  1
 Rb  Rb4  1  0.14620  0.47854  0.29240  1
 Se  Se1  1  0.59870  0.27706  0.19741  1
 Se  Se2  1  0.90130  0.07965  0.80259  1
 Se  Se3  1  0.09870  0.92035  0.19741  1
 Se  Se4  1  0.40130  0.72294  0.80259  1
