CIF file written using JARVIS-Tools package.
data_Na2TiF6
_symmetry_space_group_name_H-M  'P-3m1'
_cell_length_a       9.58252
_cell_length_b       9.58252
_cell_length_c       4.60824
_cell_angle_alpha    90
_cell_angle_beta     90
_cell_angle_gamma    120

_symmetry_Int_Tables_number  164
_chemical_formula_structural  Na2TiF6
_chemical_formula_sum  Na6Ti3F8
_cell_volume  366.45880714618005
_cell_formula_units_Z  3
loop_
  _symmetry_equiv_pos_site_id
 _symmetry_equiv_pos_as_xyz
 1  'x, y, z'
loop_
 _atom_site_type_symbol
 _atom_site_label
 _atom_site_symmetry_multiplicity
 _atom_site_fract_x
 _atom_site_fract_y
 _atom_site_fract_z
 _atom_site_fract_occupancy
 F  F1  1  0.19251  0.09625  0.77835  1
 F  F2  1  0.57210  0.42790  0.72965  1
 F  F3  1  0.57210  0.14419  0.72965  1
 F  F4  1  0.85581  0.42790  0.72965  1
 F  F5  1  0.14419  0.57210  0.27035  1
 F  F6  1  0.23924  0.47848  0.73661  1
 F  F7  1  0.42790  0.57210  0.27035  1
 F  F8  1  0.76076  0.23924  0.26339  1
 F  F9  1  0.42790  0.85581  0.27035  1
 F  F10  1  0.47848  0.23924  0.26339  1
 F  F11  1  0.09625  0.19251  0.22165  1
 F  F12  1  0.80749  0.90375  0.22165  1
 F  F13  1  0.76076  0.52152  0.26339  1
 F  F14  1  0.52152  0.76076  0.73661  1
 F  F15  1  0.90375  0.09625  0.77835  1
 F  F16  1  0.23924  0.76076  0.73661  1
 F  F17  1  0.09625  0.90375  0.22165  1
 F  F18  1  0.90375  0.80749  0.77835  1
 Na  Na1  1  0.34227  -0.00000  0.00000  1
 Na  Na2  1  -0.00000  0.34227  0.00000  1
 Na  Na3  1  0.65773  0.65773  0.00000  1
 Na  Na4  1  0.65773  0.00000  0.00000  1
 Na  Na5  1  0.00000  0.65773  0.00000  1
 Na  Na6  1  0.34227  0.34227  0.00000  1
 Ti  Ti1  1  0.66667  0.33333  0.49647  1
 Ti  Ti2  1  0.00000  0.00000  0.00000  1
 Ti  Ti3  1  0.33333  0.66667  0.50353  1
