CIF file written using JARVIS-Tools package.
data_Li8NbS6
_symmetry_space_group_name_H-M  'R-3'
_cell_length_a       6.69736
_cell_length_b       7.25094
_cell_length_c       6.69736
_cell_angle_alpha    117.505
_cell_angle_beta     60
_cell_angle_gamma    117.505

_symmetry_Int_Tables_number  148
_chemical_formula_structural  Li8NbS6
_chemical_formula_sum  Li8NbS6
_cell_volume  238.27251093397803
_cell_formula_units_Z  1
loop_
  _symmetry_equiv_pos_site_id
 _symmetry_equiv_pos_as_xyz
 1  'x, y, z'
loop_
 _atom_site_type_symbol
 _atom_site_label
 _atom_site_symmetry_multiplicity
 _atom_site_fract_x
 _atom_site_fract_y
 _atom_site_fract_z
 _atom_site_fract_occupancy
 Li  Li1  1  0.10929  0.36026  0.47591  1
 Li  Li2  1  0.52409  0.63974  0.22494  1
 Li  Li3  1  0.22494  0.63974  0.89071  1
 Li  Li4  1  0.33680  0.01039  0.33680  1
 Li  Li5  1  0.66320  0.98961  0.66320  1
 Li  Li6  1  0.77506  0.36026  0.10929  1
 Li  Li7  1  0.47591  0.36026  0.77506  1
 Li  Li8  1  0.89071  0.63974  0.52409  1
 Nb  Nb1  1  0.00000  0.00000  0.00000  1
 S  S1  1  0.23993  0.76546  0.61112  1
 S  S2  1  0.38888  0.23454  0.08559  1
 S  S3  1  0.08559  0.23454  0.76007  1
 S  S4  1  0.91441  0.76546  0.23993  1
 S  S5  1  0.61112  0.76546  0.91441  1
 S  S6  1  0.76007  0.23454  0.38888  1
