CIF file written using JARVIS-Tools package.
data_TaCo6Mo
_symmetry_space_group_name_H-M  'P-6m2'
_cell_length_a       5.12505
_cell_length_b       5.12504
_cell_length_c       4.10224
_cell_angle_alpha    90
_cell_angle_beta     90
_cell_angle_gamma    120

_symmetry_Int_Tables_number  187
_chemical_formula_structural  TaCo6Mo
_chemical_formula_sum  TaCo6Mo
_cell_volume  93.31416426315306
_cell_formula_units_Z  1
loop_
  _symmetry_equiv_pos_site_id
 _symmetry_equiv_pos_as_xyz
 1  'x, y, z'
loop_
 _atom_site_type_symbol
 _atom_site_label
 _atom_site_symmetry_multiplicity
 _atom_site_fract_x
 _atom_site_fract_y
 _atom_site_fract_z
 _atom_site_fract_occupancy
 Co  Co1  1  0.84237  0.15763  0.00000  1
 Co  Co2  1  0.84237  0.68474  0.00000  1
 Co  Co3  1  0.31526  0.15763  0.00000  1
 Co  Co4  1  0.16190  0.83810  0.50000  1
 Co  Co5  1  0.16190  0.32380  0.50000  1
 Co  Co6  1  0.67620  0.83810  0.50000  1
 Mo  Mo1  1  0.33333  0.66667  0.00000  1
 Ta  Ta1  1  0.66667  0.33333  0.50000  1
