CIF file written using JARVIS-Tools package.
data_Tl2SiF6
_symmetry_space_group_name_H-M  'Fm-3m'
_cell_length_a       5.98039
_cell_length_b       5.98039
_cell_length_c       5.9804
_cell_angle_alpha    60
_cell_angle_beta     60
_cell_angle_gamma    60

_symmetry_Int_Tables_number  225
_chemical_formula_structural  Tl2SiF6
_chemical_formula_sum  Tl2SiF6
_cell_volume  151.2428424730241
_cell_formula_units_Z  1
loop_
  _symmetry_equiv_pos_site_id
 _symmetry_equiv_pos_as_xyz
 1  'x, y, z'
loop_
 _atom_site_type_symbol
 _atom_site_label
 _atom_site_symmetry_multiplicity
 _atom_site_fract_x
 _atom_site_fract_y
 _atom_site_fract_z
 _atom_site_fract_occupancy
 F  F1  1  0.20377  0.79623  0.79623  1
 F  F2  1  0.20377  0.79623  0.20377  1
 F  F3  1  0.79623  0.20377  0.79623  1
 F  F4  1  0.79623  0.20377  0.20377  1
 F  F5  1  0.79623  0.79623  0.20377  1
 F  F6  1  0.20377  0.20377  0.79623  1
 Si  Si1  1  0.00000  0.00000  0.00000  1
 Tl  Tl1  1  0.75000  0.75000  0.75000  1
 Tl  Tl2  1  0.25000  0.25000  0.25000  1
