CIF file written using JARVIS-Tools package.
data_AlCuO2
_symmetry_space_group_name_H-M  'R-3m'
_cell_length_a       5.93572
_cell_length_b       5.93572
_cell_length_c       5.93572
_cell_angle_alpha    28.039
_cell_angle_beta     28.0389
_cell_angle_gamma    28.0389

_symmetry_Int_Tables_number  166
_chemical_formula_structural  AlCuO2
_chemical_formula_sum  AlCuO2
_cell_volume  40.81805103379475
_cell_formula_units_Z  1
loop_
  _symmetry_equiv_pos_site_id
 _symmetry_equiv_pos_as_xyz
 1  'x, y, z'
loop_
 _atom_site_type_symbol
 _atom_site_label
 _atom_site_symmetry_multiplicity
 _atom_site_fract_x
 _atom_site_fract_y
 _atom_site_fract_z
 _atom_site_fract_occupancy
 Al  Al1  1  0.50000  0.50000  0.50000  1
 Cu  Cu1  1  0.00000  0.00000  0.00000  1
 O  O1  1  0.88999  0.88999  0.88999  1
 O  O2  1  0.11001  0.11001  0.11001  1
