CIF file written using JARVIS-Tools package.
data_Na3BP2
_symmetry_space_group_name_H-M  'P2_1/c'
_cell_length_a       6.96892
_cell_length_b       9.23501
_cell_length_c       9.11901
_cell_angle_alpha    90
_cell_angle_beta     110.986
_cell_angle_gamma    90

_symmetry_Int_Tables_number  14
_chemical_formula_structural  Na3BP2
_chemical_formula_sum  Na2B4P8
_cell_volume  547.9547375355052
_cell_formula_units_Z  4
loop_
  _symmetry_equiv_pos_site_id
 _symmetry_equiv_pos_as_xyz
 1  'x, y, z'
loop_
 _atom_site_type_symbol
 _atom_site_label
 _atom_site_symmetry_multiplicity
 _atom_site_fract_x
 _atom_site_fract_y
 _atom_site_fract_z
 _atom_site_fract_occupancy
 B  B1  1  0.77451  0.67240  0.81796  1
 B  B2  1  0.22549  0.17240  0.68204  1
 B  B3  1  0.77451  0.82760  0.31796  1
 B  B4  1  0.22549  0.32760  0.18204  1
 Na  Na1  1  0.73691  0.28534  0.81803  1
 Na  Na2  1  0.24232  0.06771  0.97654  1
 Na  Na3  1  0.24232  0.43229  0.47654  1
 Na  Na4  1  0.75768  0.56771  0.52346  1
 Na  Na5  1  0.22173  0.47586  0.88960  1
 Na  Na6  1  0.26309  0.78534  0.68197  1
 Na  Na7  1  0.22173  0.02414  0.38960  1
 Na  Na8  1  0.77827  0.52414  0.11040  1
 Na  Na9  1  0.73691  0.21466  0.31803  1
 Na  Na10  1  0.26309  0.71466  0.18197  1
 Na  Na11  1  0.75768  0.93229  0.02346  1
 Na  Na12  1  0.77827  0.97586  0.61040  1
 P  P1  1  0.00292  0.77768  0.86434  1
 P  P2  1  0.00292  0.72232  0.36434  1
 P  P3  1  0.44727  0.43967  0.23173  1
 P  P4  1  0.55273  0.93967  0.26827  1
 P  P5  1  0.55273  0.56033  0.76827  1
 P  P6  1  0.44727  0.06033  0.73173  1
 P  P7  1  0.99708  0.27768  0.63566  1
 P  P8  1  0.99708  0.22232  0.13566  1
