CIF file written using JARVIS-Tools package.
data_RbMg
_symmetry_space_group_name_H-M  'Amm2'
_cell_length_a       15.2004
_cell_length_b       15.2004
_cell_length_c       4.90827
_cell_angle_alpha    90
_cell_angle_beta     90
_cell_angle_gamma    164.353

_symmetry_Int_Tables_number  38
_chemical_formula_structural  RbMg
_chemical_formula_sum  Rb3Mg3
_cell_volume  305.8685650426406
_cell_formula_units_Z  3
loop_
  _symmetry_equiv_pos_site_id
 _symmetry_equiv_pos_as_xyz
 1  'x, y, z'
loop_
 _atom_site_type_symbol
 _atom_site_label
 _atom_site_symmetry_multiplicity
 _atom_site_fract_x
 _atom_site_fract_y
 _atom_site_fract_z
 _atom_site_fract_occupancy
 Mg  Mg1  1  0.33539  0.66461  0.00000  1
 Mg  Mg2  1  0.39705  0.60295  0.50000  1
 Mg  Mg3  1  0.82131  0.17869  0.50000  1
 Rb  Rb1  1  0.96507  0.03493  0.00000  1
 Rb  Rb2  1  0.71987  0.28013  0.00000  1
 Rb  Rb3  1  0.09466  0.90534  0.50000  1
