CIF file written using JARVIS-Tools package.
data_TmBiO3
_symmetry_space_group_name_H-M  'R3c'
_cell_length_a       5.94845
_cell_length_b       6.04938
_cell_length_c       5.94845
_cell_angle_alpha    119.45
_cell_angle_beta     60
_cell_angle_gamma    119.45

_symmetry_Int_Tables_number  161
_chemical_formula_structural  TmBiO3
_chemical_formula_sum  Tm2Bi2O6
_cell_volume  152.60439970124733
_cell_formula_units_Z  2
loop_
  _symmetry_equiv_pos_site_id
 _symmetry_equiv_pos_as_xyz
 1  'x, y, z'
loop_
 _atom_site_type_symbol
 _atom_site_label
 _atom_site_symmetry_multiplicity
 _atom_site_fract_x
 _atom_site_fract_y
 _atom_site_fract_z
 _atom_site_fract_occupancy
 Bi  Bi1  1  0.00543  0.01630  0.00543  1
 Bi  Bi2  1  0.50543  0.51630  0.50543  1
 O  O1  1  0.07497  0.35049  0.41602  1
 O  O2  1  0.57497  0.85049  0.35951  1
 O  O3  1  0.35951  0.85049  0.91602  1
 O  O4  1  0.41602  0.35049  0.85951  1
 O  O5  1  0.85951  0.35049  0.07497  1
 O  O6  1  0.91602  0.85049  0.57497  1
 Tm  Tm1  1  0.22248  0.66745  0.22248  1
 Tm  Tm2  1  0.72248  0.16745  0.72248  1
