CIF file written using JARVIS-Tools package.
data_Nb3SBr7
_symmetry_space_group_name_H-M  'P3m1'
_cell_length_a       7.16457
_cell_length_b       7.16457
_cell_length_c       6.33976
_cell_angle_alpha    90
_cell_angle_beta     90
_cell_angle_gamma    120

_symmetry_Int_Tables_number  156
_chemical_formula_structural  Nb3SBr7
_chemical_formula_sum  Nb3SBr7
_cell_volume  281.82781235037885
_cell_formula_units_Z  1
loop_
  _symmetry_equiv_pos_site_id
 _symmetry_equiv_pos_as_xyz
 1  'x, y, z'
loop_
 _atom_site_type_symbol
 _atom_site_label
 _atom_site_symmetry_multiplicity
 _atom_site_fract_x
 _atom_site_fract_y
 _atom_site_fract_z
 _atom_site_fract_occupancy
 Br  Br1  1  0.99465  0.49732  0.04595  1
 Br  Br2  1  0.50268  0.49732  0.04595  1
 Br  Br3  1  0.00000  0.00000  0.00095  1
 Br  Br4  1  0.33680  0.16840  0.54796  1
 Br  Br5  1  0.83160  0.66320  0.54796  1
 Br  Br6  1  0.83160  0.16840  0.54796  1
 Br  Br7  1  0.50268  0.00535  0.04595  1
 Nb  Nb1  1  0.60406  0.80203  0.77682  1
 Nb  Nb2  1  0.19797  0.80203  0.77682  1
 Nb  Nb3  1  0.19797  0.39594  0.77682  1
 S  S1  1  0.33333  0.66667  0.50193  1
