CIF file written using JARVIS-Tools package.
data_Mn6O5F7
_symmetry_space_group_name_H-M  'P1'
_cell_length_a       4.64762
_cell_length_b       5.61513
_cell_length_c       7.80935
_cell_angle_alpha    86.834
_cell_angle_beta     88.8464
_cell_angle_gamma    88.8522

_symmetry_Int_Tables_number  1
_chemical_formula_structural  Mn6O5F7
_chemical_formula_sum  Mn6O5F7
_cell_volume  203.41125791983973
_cell_formula_units_Z  1
loop_
  _symmetry_equiv_pos_site_id
 _symmetry_equiv_pos_as_xyz
 1  'x, y, z'
loop_
 _atom_site_type_symbol
 _atom_site_label
 _atom_site_symmetry_multiplicity
 _atom_site_fract_x
 _atom_site_fract_y
 _atom_site_fract_z
 _atom_site_fract_occupancy
 F  F1  1  0.20989  0.28963  0.91874  1
 F  F2  1  0.19461  0.62552  0.55735  1
 F  F3  1  0.28941  0.79849  0.89611  1
 F  F4  1  0.70439  0.86232  0.42015  1
 F  F5  1  0.69901  0.19088  0.12042  1
 F  F6  1  0.80475  0.36036  0.43154  1
 F  F7  1  0.19468  0.97873  0.21661  1
 Mn  Mn1  1  0.52647  0.50741  0.00087  1
 Mn  Mn2  1  0.97128  0.98819  0.99253  1
 Mn  Mn3  1  0.00755  0.65351  0.31071  1
 Mn  Mn4  1  0.99068  0.32503  0.67564  1
 Mn  Mn5  1  0.45754  0.18735  0.34856  1
 Mn  Mn6  1  0.52293  0.84285  0.66920  1
 O  O1  1  0.31598  0.47510  0.22546  1
 O  O2  1  0.81181  0.70376  0.09463  1
 O  O3  1  0.80065  0.04474  0.77881  1
 O  O4  1  0.30075  0.12359  0.57360  1
 O  O5  1  0.69760  0.54253  0.76905  1
