CIF file written using JARVIS-Tools package.
data_SmSe
_symmetry_space_group_name_H-M  'P6_3mc'
_cell_length_a       4.25683
_cell_length_b       4.25683
_cell_length_c       8.50103
_cell_angle_alpha    90
_cell_angle_beta     90
_cell_angle_gamma    120

_symmetry_Int_Tables_number  186
_chemical_formula_structural  SmSe
_chemical_formula_sum  Sm2Se2
_cell_volume  133.40552910452823
_cell_formula_units_Z  2
loop_
  _symmetry_equiv_pos_site_id
 _symmetry_equiv_pos_as_xyz
 1  'x, y, z'
loop_
 _atom_site_type_symbol
 _atom_site_label
 _atom_site_symmetry_multiplicity
 _atom_site_fract_x
 _atom_site_fract_y
 _atom_site_fract_z
 _atom_site_fract_occupancy
 Se  Se1  1  0.66667  0.33333  0.85250  1
 Se  Se2  1  0.33333  0.66667  0.35250  1
 Sm  Sm1  1  0.66667  0.33333  0.52250  1
 Sm  Sm2  1  0.33333  0.66667  0.02250  1
