CIF file written using JARVIS-Tools package.
data_RbCuCl3
_symmetry_space_group_name_H-M  'I4/mcm'
_cell_length_a       6.90644
_cell_length_b       6.90644
_cell_length_c       6.90643
_cell_angle_alpha    118.459
_cell_angle_beta     118.459
_cell_angle_gamma    92.6904

_symmetry_Int_Tables_number  140
_chemical_formula_structural  RbCuCl3
_chemical_formula_sum  Rb2Cu2Cl6
_cell_volume  238.08285724496957
_cell_formula_units_Z  2
loop_
  _symmetry_equiv_pos_site_id
 _symmetry_equiv_pos_as_xyz
 1  'x, y, z'
loop_
 _atom_site_type_symbol
 _atom_site_label
 _atom_site_symmetry_multiplicity
 _atom_site_fract_x
 _atom_site_fract_y
 _atom_site_fract_z
 _atom_site_fract_occupancy
 Cl  Cl1  1  0.27507  0.77507  0.05014  1
 Cl  Cl2  1  0.77507  0.72493  0.50000  1
 Cl  Cl3  1  0.22493  0.27507  0.50000  1
 Cl  Cl4  1  0.72493  0.22493  0.94986  1
 Cl  Cl5  1  0.75000  0.25000  0.50000  1
 Cl  Cl6  1  0.25000  0.75000  0.50000  1
 Cu  Cu1  1  0.00000  0.50000  0.50000  1
 Cu  Cu2  1  0.50000  -0.00000  0.50000  1
 Rb  Rb1  1  0.75000  0.75000  0.00000  1
 Rb  Rb2  1  0.25000  0.25000  0.00000  1
