CIF file written using JARVIS-Tools package.
data_BiTe2Br4
_symmetry_space_group_name_H-M  'P-1'
_cell_length_a       7.20927
_cell_length_b       7.63236
_cell_length_c       9.30313
_cell_angle_alpha    93.8656
_cell_angle_beta     101.869
_cell_angle_gamma    93.4924

_symmetry_Int_Tables_number  2
_chemical_formula_structural  BiTe2Br4
_chemical_formula_sum  Bi2Te4Br8
_cell_volume  498.3405313734554
_cell_formula_units_Z  2
loop_
  _symmetry_equiv_pos_site_id
 _symmetry_equiv_pos_as_xyz
 1  'x, y, z'
loop_
 _atom_site_type_symbol
 _atom_site_label
 _atom_site_symmetry_multiplicity
 _atom_site_fract_x
 _atom_site_fract_y
 _atom_site_fract_z
 _atom_site_fract_occupancy
 Bi  Bi1  1  0.28596  0.09566  0.61513  1
 Bi  Bi2  1  0.71404  0.90434  0.38487  1
 Br  Br1  1  0.55453  0.55456  0.31973  1
 Br  Br2  1  0.44547  0.44544  0.68027  1
 Br  Br3  1  0.78860  0.91798  0.11044  1
 Br  Br4  1  0.21140  0.08202  0.88956  1
 Br  Br5  1  0.63932  0.94806  0.70184  1
 Br  Br6  1  0.36068  0.05194  0.29816  1
 Br  Br7  1  0.06824  0.74587  0.53137  1
 Br  Br8  1  0.93176  0.25413  0.46863  1
 Te  Te1  1  0.89028  0.55207  0.80211  1
 Te  Te2  1  0.10972  0.44793  0.19789  1
 Te  Te3  1  0.76284  0.36497  0.00634  1
 Te  Te4  1  0.23716  0.63503  0.99366  1
