CIF file written using JARVIS-Tools package.
data_DyBO3
_symmetry_space_group_name_H-M  'Ama2'
_cell_length_a       4.36463
_cell_length_b       3.87865
_cell_length_c       8.52135
_cell_angle_alpha    90.0009
_cell_angle_beta     89.9989
_cell_angle_gamma    124.24

_symmetry_Int_Tables_number  40
_chemical_formula_structural  DyBO3
_chemical_formula_sum  Dy2B2O6
_cell_volume  119.25549421818393
_cell_formula_units_Z  2
loop_
  _symmetry_equiv_pos_site_id
 _symmetry_equiv_pos_as_xyz
 1  'x, y, z'
loop_
 _atom_site_type_symbol
 _atom_site_label
 _atom_site_symmetry_multiplicity
 _atom_site_fract_x
 _atom_site_fract_y
 _atom_site_fract_z
 _atom_site_fract_occupancy
 B  B1  1  0.49099  0.72494  0.25000  1
 B  B2  1  0.76606  0.27508  0.75000  1
 Dy  Dy1  1  0.06788  0.00001  -0.00000  1
 Dy  Dy2  1  0.06787  0.00001  0.50000  1
 O  O1  1  0.32515  0.66117  0.10391  1
 O  O2  1  0.32515  0.66117  0.39609  1
 O  O3  1  0.85263  0.84436  0.25000  1
 O  O4  1  0.66400  0.33885  0.60392  1
 O  O5  1  0.66400  0.33885  0.89609  1
 O  O6  1  0.00828  0.15566  0.75000  1
