CIF file written using JARVIS-Tools package.
data_NbB2W
_symmetry_space_group_name_H-M  'Amm2'
_cell_length_a       4.62432
_cell_length_b       4.62432
_cell_length_c       3.13295
_cell_angle_alpha    90
_cell_angle_beta     90
_cell_angle_gamma    138.783

_symmetry_Int_Tables_number  38
_chemical_formula_structural  NbB2W
_chemical_formula_sum  NbB2W
_cell_volume  44.14413943266039
_cell_formula_units_Z  1
loop_
  _symmetry_equiv_pos_site_id
 _symmetry_equiv_pos_as_xyz
 1  'x, y, z'
loop_
 _atom_site_type_symbol
 _atom_site_label
 _atom_site_symmetry_multiplicity
 _atom_site_fract_x
 _atom_site_fract_y
 _atom_site_fract_z
 _atom_site_fract_occupancy
 B  B1  1  0.43938  0.56062  0.50000  1
 B  B2  1  0.55703  0.44297  0.00000  1
 Nb  Nb1  1  0.14718  0.85282  0.50000  1
 W  W1  1  0.85641  0.14359  0.00000  1
