CIF file written using JARVIS-Tools package.
data_AlH16C10ClO4
_symmetry_space_group_name_H-M  'P1'
_cell_length_a       4.95838
_cell_length_b       7.13869
_cell_length_c       8.84767
_cell_angle_alpha    70.1633
_cell_angle_beta     86.4017
_cell_angle_gamma    82.5138

_symmetry_Int_Tables_number  1
_chemical_formula_structural  AlH16C10ClO4
_chemical_formula_sum  AlH6C0ClO4
_cell_volume  292.0237749806588
_cell_formula_units_Z  1
loop_
  _symmetry_equiv_pos_site_id
 _symmetry_equiv_pos_as_xyz
 1  'x, y, z'
loop_
 _atom_site_type_symbol
 _atom_site_label
 _atom_site_symmetry_multiplicity
 _atom_site_fract_x
 _atom_site_fract_y
 _atom_site_fract_z
 _atom_site_fract_occupancy
 Al  Al1  1  0.96541  0.71059  0.90796  1
 C  C1  1  0.11702  0.44167  0.60637  1
 C  C2  1  0.69133  0.98490  0.92473  1
 C  C3  1  0.06647  0.55381  0.72180  1
 C  C4  1  0.43855  0.19928  0.51623  1
 C  C5  1  0.41133  0.39754  0.55129  1
 C  C6  1  0.58359  0.95982  0.27787  1
 C  C7  1  0.74195  0.93604  0.42836  1
 C  C8  1  0.72719  0.12701  0.47320  1
 C  C9  1  0.64902  0.14208  0.13457  1
 C  C10  1  0.53285  0.14602  0.97493  1
 Cl  Cl1  1  0.11187  0.55011  0.14474  1
 H  H1  1  0.95741  0.88654  0.40851  1
 H  H2  1  0.56389  0.28176  0.15453  1
 H  H3  1  0.87058  0.14625  0.11921  1
 H  H4  1  -0.01126  0.52454  0.50161  1
 H  H5  1  0.31719  0.12241  0.98775  1
 H  H6  1  0.85993  0.09586  0.57609  1
 H  H7  1  0.81134  0.24708  0.37418  1
 H  H8  1  0.66409  0.81612  0.53068  1
 H  H9  1  0.36466  0.08170  0.62204  1
 H  H10  1  0.36258  0.97312  0.30323  1
 H  H11  1  0.63119  0.82164  0.24708  1
 H  H12  1  0.56101  0.29151  0.88427  1
 H  H13  1  0.03003  0.30049  0.66598  1
 H  H14  1  0.55298  0.38768  0.64479  1
 H  H15  1  0.46501  0.52032  0.44335  1
 H  H16  1  0.30068  0.21726  0.41825  1
 O  O1  1  0.94876  -0.01220  0.88498  1
 O  O2  1  0.59708  0.82231  0.93143  1
 O  O3  1  0.20552  0.69031  0.73215  1
 O  O4  1  0.86571  0.51716  0.82424  1
