CIF file written using JARVIS-Tools package.
data_KSb2
_symmetry_space_group_name_H-M  'C2/m'
_cell_length_a       4.30811
_cell_length_b       7.07569
_cell_length_c       7.40018
_cell_angle_alpha    93.9992
_cell_angle_beta     106.923
_cell_angle_gamma    90

_symmetry_Int_Tables_number  12
_chemical_formula_structural  KSb2
_chemical_formula_sum  K2Sb4
_cell_volume  215.23671320905254
_cell_formula_units_Z  2
loop_
  _symmetry_equiv_pos_site_id
 _symmetry_equiv_pos_as_xyz
 1  'x, y, z'
loop_
 _atom_site_type_symbol
 _atom_site_label
 _atom_site_symmetry_multiplicity
 _atom_site_fract_x
 _atom_site_fract_y
 _atom_site_fract_z
 _atom_site_fract_occupancy
 K  K1  1  0.63342  0.63092  0.26684  1
 K  K2  1  0.36658  0.36908  0.73316  1
 Sb  Sb1  1  0.31335  0.86651  0.62671  1
 Sb  Sb2  1  0.68665  0.13349  0.37329  1
 Sb  Sb3  1  0.05134  0.18669  0.10267  1
 Sb  Sb4  1  0.94866  0.81331  0.89733  1
