CIF file written using JARVIS-Tools package.
data_NbVCr
_symmetry_space_group_name_H-M  'Imma'
_cell_length_a       4.97302
_cell_length_b       4.97302
_cell_length_c       4.97302
_cell_angle_alpha    120.577
_cell_angle_beta     119.122
_cell_angle_gamma    90.2658

_symmetry_Int_Tables_number  74
_chemical_formula_structural  NbVCr
_chemical_formula_sum  Nb2V2Cr2
_cell_volume  87.14486648591027
_cell_formula_units_Z  2
loop_
  _symmetry_equiv_pos_site_id
 _symmetry_equiv_pos_as_xyz
 1  'x, y, z'
loop_
 _atom_site_type_symbol
 _atom_site_label
 _atom_site_symmetry_multiplicity
 _atom_site_fract_x
 _atom_site_fract_y
 _atom_site_fract_z
 _atom_site_fract_occupancy
 Cr  Cr1  1  0.50000  0.50000  0.50000  1
 Cr  Cr2  1  0.50000  0.00000  0.00000  1
 Nb  Nb1  1  0.12625  0.87625  0.25000  1
 Nb  Nb2  1  0.87375  0.12375  0.75000  1
 V  V1  1  0.50000  0.50000  0.00000  1
 V  V2  1  0.00000  0.50000  0.50000  1
