CIF file written using JARVIS-Tools package.
data_LiGeN
_symmetry_space_group_name_H-M  'P6_3mc'
_cell_length_a       3.01902
_cell_length_b       3.019
_cell_length_c       9.35247
_cell_angle_alpha    90
_cell_angle_beta     90
_cell_angle_gamma    120

_symmetry_Int_Tables_number  186
_chemical_formula_structural  LiGeN
_chemical_formula_sum  Li2Ge2N2
_cell_volume  73.82188217355946
_cell_formula_units_Z  2
loop_
  _symmetry_equiv_pos_site_id
 _symmetry_equiv_pos_as_xyz
 1  'x, y, z'
loop_
 _atom_site_type_symbol
 _atom_site_label
 _atom_site_symmetry_multiplicity
 _atom_site_fract_x
 _atom_site_fract_y
 _atom_site_fract_z
 _atom_site_fract_occupancy
 Ge  Ge1  1  -0.00000  1.00000  0.49814  1
 Ge  Ge2  1  0.00000  0.00000  0.99814  1
 Li  Li1  1  0.66667  0.33333  0.74104  1
 Li  Li2  1  0.33333  0.66667  0.24104  1
 N  N1  1  0.33333  0.66666  0.60547  1
 N  N2  1  0.66667  0.33334  0.10547  1
