CIF file written using JARVIS-Tools package.
data_AuBrF6
_symmetry_space_group_name_H-M  'P2_1'
_cell_length_a       5.26719
_cell_length_b       5.64414
_cell_length_c       8.62498
_cell_angle_alpha    90
_cell_angle_beta     98.7127
_cell_angle_gamma    90

_symmetry_Int_Tables_number  4
_chemical_formula_structural  AuBrF6
_chemical_formula_sum  Au2Br2F2
_cell_volume  253.451279942012
_cell_formula_units_Z  2
loop_
  _symmetry_equiv_pos_site_id
 _symmetry_equiv_pos_as_xyz
 1  'x, y, z'
loop_
 _atom_site_type_symbol
 _atom_site_label
 _atom_site_symmetry_multiplicity
 _atom_site_fract_x
 _atom_site_fract_y
 _atom_site_fract_z
 _atom_site_fract_occupancy
 Au  Au1  1  0.25014  0.24333  0.09625  1
 Au  Au2  1  0.74986  0.74333  0.90375  1
 Br  Br1  1  0.46030  0.25856  0.66796  1
 Br  Br2  1  0.53970  0.75856  0.33204  1
 F  F1  1  0.81056  0.58969  0.42404  1
 F  F2  1  0.18944  0.08969  0.57596  1
 F  F3  1  0.70742  0.03529  0.37230  1
 F  F4  1  0.29258  0.53529  0.62770  1
 F  F5  1  0.81920  0.54962  0.09011  1
 F  F6  1  0.18080  0.04962  0.90989  1
 F  F7  1  0.71159  0.01929  0.03107  1
 F  F8  1  0.28841  0.51929  0.96893  1
 F  F9  1  0.68048  0.93306  0.70574  1
 F  F10  1  0.31952  0.43306  0.29426  1
 F  F11  1  0.79285  0.46117  0.77019  1
 F  F12  1  0.20715  0.96117  0.22981  1
