CIF file written using JARVIS-Tools package.
data_Er2CdPd2
_symmetry_space_group_name_H-M  'P4/mbm'
_cell_length_a       7.66801
_cell_length_b       7.66801
_cell_length_c       3.64999
_cell_angle_alpha    90
_cell_angle_beta     90
_cell_angle_gamma    90

_symmetry_Int_Tables_number  127
_chemical_formula_structural  Er2CdPd2
_chemical_formula_sum  Er4Cd2Pd4
_cell_volume  214.61335806502797
_cell_formula_units_Z  2
loop_
  _symmetry_equiv_pos_site_id
 _symmetry_equiv_pos_as_xyz
 1  'x, y, z'
loop_
 _atom_site_type_symbol
 _atom_site_label
 _atom_site_symmetry_multiplicity
 _atom_site_fract_x
 _atom_site_fract_y
 _atom_site_fract_z
 _atom_site_fract_occupancy
 Cd  Cd1  1  0.00000  0.00000  0.00000  1
 Cd  Cd2  1  0.50000  0.50000  0.00000  1
 Er  Er1  1  0.67030  0.17030  0.50000  1
 Er  Er2  1  0.32970  0.82970  0.50000  1
 Er  Er3  1  0.17030  0.32970  0.50000  1
 Er  Er4  1  0.82970  0.67030  0.50000  1
 Pd  Pd1  1  0.12981  0.62981  0.00000  1
 Pd  Pd2  1  0.87019  0.37019  0.00000  1
 Pd  Pd3  1  0.62981  0.87019  0.00000  1
 Pd  Pd4  1  0.37019  0.12981  0.00000  1
