CIF file written using JARVIS-Tools package.
data_LaF3
_symmetry_space_group_name_H-M  'Pmmn'
_cell_length_a       4.16373
_cell_length_b       4.63059
_cell_length_c       5.27498
_cell_angle_alpha    90
_cell_angle_beta     90
_cell_angle_gamma    90

_symmetry_Int_Tables_number  59
_chemical_formula_structural  LaF3
_chemical_formula_sum  La2F6
_cell_volume  101.7044787688021
_cell_formula_units_Z  2
loop_
  _symmetry_equiv_pos_site_id
 _symmetry_equiv_pos_as_xyz
 1  'x, y, z'
loop_
 _atom_site_type_symbol
 _atom_site_label
 _atom_site_symmetry_multiplicity
 _atom_site_fract_x
 _atom_site_fract_y
 _atom_site_fract_z
 _atom_site_fract_occupancy
 F  F1  1  0.00000  0.17273  0.25304  1
 F  F2  1  0.00000  0.17273  0.74696  1
 F  F3  1  0.50000  0.82727  0.24696  1
 F  F4  1  0.50000  0.82727  0.75304  1
 F  F5  1  0.00000  0.61924  0.00000  1
 F  F6  1  0.50000  0.38076  0.50000  1
 La  La1  1  0.50000  0.27707  0.00000  1
 La  La2  1  0.00000  0.72293  0.50000  1
