CIF file written using JARVIS-Tools package.
data_Mg3Cd
_symmetry_space_group_name_H-M  'P6_3/mmc'
_cell_length_a       6.28493
_cell_length_b       6.28493
_cell_length_c       5.0616
_cell_angle_alpha    90
_cell_angle_beta     90
_cell_angle_gamma    120

_symmetry_Int_Tables_number  194
_chemical_formula_structural  Mg3Cd
_chemical_formula_sum  Mg6Cd2
_cell_volume  173.1489755829458
_cell_formula_units_Z  2
loop_
  _symmetry_equiv_pos_site_id
 _symmetry_equiv_pos_as_xyz
 1  'x, y, z'
loop_
 _atom_site_type_symbol
 _atom_site_label
 _atom_site_symmetry_multiplicity
 _atom_site_fract_x
 _atom_site_fract_y
 _atom_site_fract_z
 _atom_site_fract_occupancy
 Cd  Cd1  1  0.66667  0.33333  0.25000  1
 Cd  Cd2  1  0.33333  0.66667  0.75000  1
 Mg  Mg1  1  0.66431  0.83215  0.25000  1
 Mg  Mg2  1  0.83215  0.16785  0.75000  1
 Mg  Mg3  1  0.33569  0.16785  0.75000  1
 Mg  Mg4  1  0.16785  0.83215  0.25000  1
 Mg  Mg5  1  0.16785  0.33569  0.25000  1
 Mg  Mg6  1  0.83215  0.66431  0.75000  1
