CIF file written using JARVIS-Tools package.
data_NaCr2S4
_symmetry_space_group_name_H-M  'C2/m'
_cell_length_a       7.25908
_cell_length_b       7.25908
_cell_length_c       5.61821
_cell_angle_alpha    72.7517
_cell_angle_beta     72.7517
_cell_angle_gamma    26.8973

_symmetry_Int_Tables_number  12
_chemical_formula_structural  NaCr2S4
_chemical_formula_sum  NaCr2S4
_cell_volume  127.55358612824287
_cell_formula_units_Z  1
loop_
  _symmetry_equiv_pos_site_id
 _symmetry_equiv_pos_as_xyz
 1  'x, y, z'
loop_
 _atom_site_type_symbol
 _atom_site_label
 _atom_site_symmetry_multiplicity
 _atom_site_fract_x
 _atom_site_fract_y
 _atom_site_fract_z
 _atom_site_fract_occupancy
 Cr  Cr1  1  0.75217  0.75217  0.20416  1
 Cr  Cr2  1  0.24783  0.24783  0.79584  1
 Na  Na1  1  0.50000  0.50000  0.50000  1
 S  S1  1  0.36104  0.36104  0.00513  1
 S  S2  1  0.63896  0.63896  0.99487  1
 S  S3  1  0.83912  0.83912  0.51734  1
 S  S4  1  0.16088  0.16088  0.48266  1
