CIF file written using JARVIS-Tools package.
data_LiMnF6
_symmetry_space_group_name_H-M  'R-3'
_cell_length_a       4.86232
_cell_length_b       5.2125
_cell_length_c       4.86232
_cell_angle_alpha    117.802
_cell_angle_beta     60
_cell_angle_gamma    117.802

_symmetry_Int_Tables_number  148
_chemical_formula_structural  LiMnF6
_chemical_formula_sum  LiMnF6
_cell_volume  89.9244163462081
_cell_formula_units_Z  1
loop_
  _symmetry_equiv_pos_site_id
 _symmetry_equiv_pos_as_xyz
 1  'x, y, z'
loop_
 _atom_site_type_symbol
 _atom_site_label
 _atom_site_symmetry_multiplicity
 _atom_site_fract_x
 _atom_site_fract_y
 _atom_site_fract_z
 _atom_site_fract_occupancy
 F  F1  1  0.23164  0.76527  0.63339  1
 F  F2  1  0.36661  0.23473  0.09976  1
 F  F3  1  0.09976  0.23473  0.76836  1
 F  F4  1  0.90024  0.76527  0.23164  1
 F  F5  1  0.63339  0.76527  0.90024  1
 F  F6  1  0.76836  0.23473  0.36661  1
 Li  Li1  1  0.50000  0.50000  0.50000  1
 Mn  Mn1  1  0.00000  0.00000  0.00000  1
