CIF file written using JARVIS-Tools package.
data_BaCaI4
_symmetry_space_group_name_H-M  'R-3m'
_cell_length_a       9.64851
_cell_length_b       5.71288
_cell_length_c       5.71289
_cell_angle_alpha    60
_cell_angle_beta     72.7795
_cell_angle_gamma    72.7795

_symmetry_Int_Tables_number  166
_chemical_formula_structural  BaCaI4
_chemical_formula_sum  BaCaI4
_cell_volume  256.28145900473993
_cell_formula_units_Z  1
loop_
  _symmetry_equiv_pos_site_id
 _symmetry_equiv_pos_as_xyz
 1  'x, y, z'
loop_
 _atom_site_type_symbol
 _atom_site_label
 _atom_site_symmetry_multiplicity
 _atom_site_fract_x
 _atom_site_fract_y
 _atom_site_fract_z
 _atom_site_fract_occupancy
 Ba  Ba1  1  0.00000  0.00000  0.00000  1
 Ca  Ca1  1  0.50000  0.50000  0.50000  1
 I  I1  1  0.14204  0.61932  0.61932  1
 I  I2  1  0.39448  0.86851  0.86851  1
 I  I3  1  0.60552  0.13149  0.13149  1
 I  I4  1  0.85796  0.38068  0.38068  1
