CIF file written using JARVIS-Tools package.
data_MoWSe2S2
_symmetry_space_group_name_H-M  'P-6m2'
_cell_length_a       3.25618
_cell_length_b       3.25619
_cell_length_c       12.9844
_cell_angle_alpha    89.9987
_cell_angle_beta     90.0026
_cell_angle_gamma    120.001

_symmetry_Int_Tables_number  187
_chemical_formula_structural  MoWSe2S2
_chemical_formula_sum  MoWSe2S2
_cell_volume  119.22516438254416
_cell_formula_units_Z  1
loop_
  _symmetry_equiv_pos_site_id
 _symmetry_equiv_pos_as_xyz
 1  'x, y, z'
loop_
 _atom_site_type_symbol
 _atom_site_label
 _atom_site_symmetry_multiplicity
 _atom_site_fract_x
 _atom_site_fract_y
 _atom_site_fract_z
 _atom_site_fract_occupancy
 Mo  Mo1  1  0.33294  0.66695  0.05099  1
 S  S1  1  0.33375  0.66638  0.67057  1
 S  S2  1  0.33371  0.66638  0.43118  1
 Se  Se1  1  0.66625  0.33362  0.92016  1
 Se  Se2  1  0.66629  0.33362  0.18183  1
 W  W1  1  0.66706  0.33305  0.55087  1
