CIF file written using JARVIS-Tools package.
data_H4C6O
_symmetry_space_group_name_H-M  'Pbcn'
_cell_length_a       7.54733
_cell_length_b       5.45041
_cell_length_c       9.90629
_cell_angle_alpha    90
_cell_angle_beta     90
_cell_angle_gamma    90

_symmetry_Int_Tables_number  60
_chemical_formula_structural  H4C6O
_chemical_formula_sum  H6C24O4
_cell_volume  407.50572942931507
_cell_formula_units_Z  4
loop_
  _symmetry_equiv_pos_site_id
 _symmetry_equiv_pos_as_xyz
 1  'x, y, z'
loop_
 _atom_site_type_symbol
 _atom_site_label
 _atom_site_symmetry_multiplicity
 _atom_site_fract_x
 _atom_site_fract_y
 _atom_site_fract_z
 _atom_site_fract_occupancy
 C  C1  1  0.49738  0.39660  0.87206  1
 C  C2  1  0.41170  0.27885  0.97869  1
 C  C3  1  0.00262  0.10340  0.37206  1
 C  C4  1  0.58830  0.27885  0.52131  1
 C  C5  1  0.58589  0.38137  0.39239  1
 C  C6  1  0.50262  0.39660  0.62794  1
 C  C7  1  0.91170  0.22115  0.02131  1
 C  C8  1  0.91411  0.11863  0.89239  1
 C  C9  1  0.08589  0.11863  0.60761  1
 C  C10  1  0.99738  0.10340  0.12794  1
 C  C11  1  0.41170  0.72115  0.47869  1
 C  C12  1  0.58589  0.61863  0.89239  1
 C  C13  1  0.50262  0.60340  0.12794  1
 C  C14  1  0.91170  0.77885  0.52131  1
 C  C15  1  0.91411  0.88137  0.39239  1
 C  C16  1  0.99738  0.89660  0.62794  1
 C  C17  1  0.41411  0.61863  0.60761  1
 C  C18  1  0.49738  0.60340  0.37206  1
 C  C19  1  0.08830  0.77885  0.97869  1
 C  C20  1  0.08589  0.88137  0.10761  1
 C  C21  1  0.00262  0.89660  0.87206  1
 C  C22  1  0.58830  0.72115  0.02131  1
 C  C23  1  0.08830  0.22115  0.47869  1
 C  C24  1  0.41411  0.38137  0.10761  1
 H  H1  1  0.84352  0.39369  0.04004  1
 H  H2  1  0.34560  0.29037  0.19034  1
 H  H3  1  0.65440  0.70963  0.80966  1
 H  H4  1  0.65648  0.89369  0.04004  1
 H  H5  1  0.84352  0.60631  0.54004  1
 H  H6  1  0.34560  0.70963  0.69034  1
 H  H7  1  0.34352  0.89369  0.45996  1
 H  H8  1  0.15648  0.60631  0.95996  1
 H  H9  1  0.15440  0.79037  0.19034  1
 H  H10  1  0.34352  0.10631  0.95996  1
 H  H11  1  0.15440  0.20963  0.69034  1
 H  H12  1  0.15648  0.39369  0.45996  1
 H  H13  1  0.65440  0.29037  0.30966  1
 H  H14  1  0.65648  0.10631  0.54004  1
 H  H15  1  0.84560  0.20963  0.80966  1
 H  H16  1  0.84560  0.79037  0.30966  1
 O  O1  1  0.50000  0.73025  0.25000  1
 O  O2  1  0.00000  0.23025  0.25000  1
 O  O3  1  0.00000  0.76975  0.75000  1
 O  O4  1  0.50000  0.26975  0.75000  1
