CIF file written using JARVIS-Tools package.
data_Si2CN4
_symmetry_space_group_name_H-M  'Aea2'
_cell_length_a       4.87914
_cell_length_b       5.49005
_cell_length_c       7.43915
_cell_angle_alpha    90
_cell_angle_beta     109.144
_cell_angle_gamma    90

_symmetry_Int_Tables_number  41
_chemical_formula_structural  Si2CN4
_chemical_formula_sum  Si4C2N8
_cell_volume  188.25078202891606
_cell_formula_units_Z  2
loop_
  _symmetry_equiv_pos_site_id
 _symmetry_equiv_pos_as_xyz
 1  'x, y, z'
loop_
 _atom_site_type_symbol
 _atom_site_label
 _atom_site_symmetry_multiplicity
 _atom_site_fract_x
 _atom_site_fract_y
 _atom_site_fract_z
 _atom_site_fract_occupancy
 C  C1  1  0.48564  0.50000  -0.00000  1
 C  C2  1  0.98564  0.00000  -0.00000  1
 N  N1  1  0.40578  0.52432  0.82883  1
 N  N2  1  0.57695  0.47568  0.17117  1
 N  N3  1  0.36055  0.87466  0.54560  1
 N  N4  1  0.81495  0.12534  0.45440  1
 N  N5  1  0.86055  0.62534  0.54560  1
 N  N6  1  0.31495  0.37466  0.45440  1
 N  N7  1  0.07695  0.02432  0.17117  1
 N  N8  1  0.90578  0.97568  0.82883  1
 Si  Si1  1  0.23222  0.59583  0.59630  1
 Si  Si2  1  0.63592  0.40417  0.40370  1
 Si  Si3  1  0.73222  0.90417  0.59630  1
 Si  Si4  1  0.13592  0.09583  0.40370  1
