CIF file written using JARVIS-Tools package.
data_H3C6SNO2
_symmetry_space_group_name_H-M  'P1'
_cell_length_a       3.83193
_cell_length_b       4.91562
_cell_length_c       7.43711
_cell_angle_alpha    83.7678
_cell_angle_beta     79.4067
_cell_angle_gamma    83.5601

_symmetry_Int_Tables_number  1
_chemical_formula_structural  H3C6SNO2
_chemical_formula_sum  H3C6SNO2
_cell_volume  136.27549578879766
_cell_formula_units_Z  1
loop_
  _symmetry_equiv_pos_site_id
 _symmetry_equiv_pos_as_xyz
 1  'x, y, z'
loop_
 _atom_site_type_symbol
 _atom_site_label
 _atom_site_symmetry_multiplicity
 _atom_site_fract_x
 _atom_site_fract_y
 _atom_site_fract_z
 _atom_site_fract_occupancy
 C  C1  1  0.34624  0.22628  0.32672  1
 C  C2  1  0.31241  0.21774  0.52065  1
 C  C3  1  0.49305  0.98345  0.59392  1
 C  C4  1  0.55817  0.00061  0.25668  1
 C  C5  1  0.53083  0.85282  0.77885  1
 C  C6  1  0.67161  0.88850  0.07823  1
 H  H1  1  0.21734  0.38770  0.24244  1
 H  H2  1  0.15474  0.37139  0.60413  1
 H  H3  1  0.49203  0.22357  0.90209  1
 N  N1  1  0.53949  0.01280  0.92069  1
 O  O1  1  0.56912  0.59793  0.79800  1
 O  O2  1  0.87669  0.67539  0.07017  1
 S  S1  1  0.70380  0.77620  0.42741  1
