CIF file written using JARVIS-Tools package.
data_Te6Mo3WS2
_symmetry_space_group_name_H-M  'P3m1'
_cell_length_a       3.46138
_cell_length_b       3.46115
_cell_length_c       36.209
_cell_angle_alpha    89.9987
_cell_angle_beta     90
_cell_angle_gamma    120.003

_symmetry_Int_Tables_number  156
_chemical_formula_structural  Te6Mo3WS2
_chemical_formula_sum  Te6Mo3WS2
_cell_volume  375.6657878588617
_cell_formula_units_Z  1
loop_
  _symmetry_equiv_pos_site_id
 _symmetry_equiv_pos_as_xyz
 1  'x, y, z'
loop_
 _atom_site_type_symbol
 _atom_site_label
 _atom_site_symmetry_multiplicity
 _atom_site_fract_x
 _atom_site_fract_y
 _atom_site_fract_z
 _atom_site_fract_occupancy
 Mo  Mo1  1  0.33334  0.66669  0.08834  1
 Mo  Mo2  1  0.66664  0.33326  0.28818  1
 Mo  Mo3  1  0.66665  0.33331  0.65485  1
 S  S1  1  0.66651  0.33296  0.43040  1
 S  S2  1  0.66686  0.33372  0.51274  1
 Te  Te1  1  0.33363  0.66722  0.33936  1
 Te  Te2  1  0.33317  0.66633  0.70594  1
 Te  Te3  1  0.66695  0.33385  0.03723  1
 Te  Te4  1  0.66634  0.33271  0.13953  1
 Te  Te5  1  0.33303  0.66610  0.23699  1
 Te  Te6  1  0.33352  0.66710  0.60361  1
 W  W1  1  0.33337  0.66673  0.47157  1
