CIF file written using JARVIS-Tools package.
data_NiO
_symmetry_space_group_name_H-M  'Fm-3m'
_cell_length_a       2.93518
_cell_length_b       5.08313
_cell_length_c       2.93517
_cell_angle_alpha    106.781
_cell_angle_beta     120
_cell_angle_gamma    73.2188

_symmetry_Int_Tables_number  225
_chemical_formula_structural  NiO
_chemical_formula_sum  Ni2O2
_cell_volume  35.75575194829162
_cell_formula_units_Z  2
loop_
  _symmetry_equiv_pos_site_id
 _symmetry_equiv_pos_as_xyz
 1  'x, y, z'
loop_
 _atom_site_type_symbol
 _atom_site_label
 _atom_site_symmetry_multiplicity
 _atom_site_fract_x
 _atom_site_fract_y
 _atom_site_fract_z
 _atom_site_fract_occupancy
 Ni  Ni1  1  0.00000  0.00000  0.00000  1
 Ni  Ni2  1  0.50000  0.50000  0.50000  1
 O  O1  1  0.25000  0.25000  0.75000  1
 O  O2  1  0.75000  0.75000  0.25000  1
