CIF file written using JARVIS-Tools package.
data_CdSnSb2
_symmetry_space_group_name_H-M  'I-42d'
_cell_length_a       6.6105
_cell_length_b       6.6105
_cell_length_c       8.04754
_cell_angle_alpha    114.25
_cell_angle_beta     114.25
_cell_angle_gamma    90

_symmetry_Int_Tables_number  122
_chemical_formula_structural  CdSnSb2
_chemical_formula_sum  Cd2Sn2Sb4
_cell_volume  286.2634958562518
_cell_formula_units_Z  2
loop_
  _symmetry_equiv_pos_site_id
 _symmetry_equiv_pos_as_xyz
 1  'x, y, z'
loop_
 _atom_site_type_symbol
 _atom_site_label
 _atom_site_symmetry_multiplicity
 _atom_site_fract_x
 _atom_site_fract_y
 _atom_site_fract_z
 _atom_site_fract_occupancy
 Cd  Cd1  1  0.00000  0.00000  0.00000  1
 Cd  Cd2  1  0.25000  0.75000  0.50000  1
 Sb  Sb1  1  0.37126  0.37500  0.25000  1
 Sb  Sb2  1  0.12500  0.62874  0.75000  1
 Sb  Sb3  1  0.62500  0.12126  0.75000  1
 Sb  Sb4  1  0.87874  0.87500  0.25000  1
 Sn  Sn1  1  0.50000  0.50000  0.00000  1
 Sn  Sn2  1  0.75000  0.25000  0.50000  1
