CIF file written using JARVIS-Tools package.
data_Ca2TiIrO6
_symmetry_space_group_name_H-M  'P2_1/c'
_cell_length_a       5.39699
_cell_length_b       5.54723
_cell_length_c       9.39435
_cell_angle_alpha    90
_cell_angle_beta     124.878
_cell_angle_gamma    90

_symmetry_Int_Tables_number  14
_chemical_formula_structural  Ca2TiIrO6
_chemical_formula_sum  Ca4Ti2Ir2O2
_cell_volume  230.73061911730505
_cell_formula_units_Z  2
loop_
  _symmetry_equiv_pos_site_id
 _symmetry_equiv_pos_as_xyz
 1  'x, y, z'
loop_
 _atom_site_type_symbol
 _atom_site_label
 _atom_site_symmetry_multiplicity
 _atom_site_fract_x
 _atom_site_fract_y
 _atom_site_fract_z
 _atom_site_fract_occupancy
 Ca  Ca1  1  0.26252  0.05203  0.25043  1
 Ca  Ca2  1  0.73748  0.55203  0.24957  1
 Ca  Ca3  1  0.26252  0.44797  0.75043  1
 Ca  Ca4  1  0.73748  0.94797  0.74957  1
 Ir  Ir1  1  0.50000  0.50000  0.50000  1
 Ir  Ir2  1  0.50000  0.00000  0.00000  1
 O  O1  1  0.84013  0.52351  0.75322  1
 O  O2  1  0.33934  0.20132  0.54393  1
 O  O3  1  0.66066  0.79868  0.45607  1
 O  O4  1  0.33934  0.29868  0.04393  1
 O  O5  1  0.24509  0.79118  0.04609  1
 O  O6  1  0.15987  0.02351  0.74678  1
 O  O7  1  0.66066  0.70132  0.95607  1
 O  O8  1  0.24509  0.70882  0.54609  1
 O  O9  1  0.75491  0.29118  0.45391  1
 O  O10  1  0.75491  0.20882  0.95391  1
 O  O11  1  0.84013  0.97649  0.25322  1
 O  O12  1  0.15987  0.47649  0.24678  1
 Ti  Ti1  1  0.00000  0.00000  0.50000  1
 Ti  Ti2  1  0.00000  0.50000  0.00000  1
