CIF file written using JARVIS-Tools package.
data_Na3Mn4O8
_symmetry_space_group_name_H-M  'P2/m'
_cell_length_a       5.02758
_cell_length_b       6.11259
_cell_length_c       5.62418
_cell_angle_alpha    90
_cell_angle_beta     106.224
_cell_angle_gamma    90

_symmetry_Int_Tables_number  10
_chemical_formula_structural  Na3Mn4O8
_chemical_formula_sum  Na3Mn4O8
_cell_volume  165.95640172098024
_cell_formula_units_Z  1
loop_
  _symmetry_equiv_pos_site_id
 _symmetry_equiv_pos_as_xyz
 1  'x, y, z'
loop_
 _atom_site_type_symbol
 _atom_site_label
 _atom_site_symmetry_multiplicity
 _atom_site_fract_x
 _atom_site_fract_y
 _atom_site_fract_z
 _atom_site_fract_occupancy
 Mn  Mn1  1  -0.00000  0.00000  0.50000  1
 Mn  Mn2  1  0.50000  0.74779  0.50000  1
 Mn  Mn3  1  0.50000  0.25221  0.50000  1
 Mn  Mn4  1  -0.00000  0.50000  0.50000  1
 Na  Na1  1  0.50000  0.50000  0.00000  1
 Na  Na2  1  0.00000  0.23475  0.00000  1
 Na  Na3  1  0.00000  0.76525  0.00000  1
 O  O1  1  0.23318  0.73226  0.68778  1
 O  O2  1  0.76682  0.26774  0.31222  1
 O  O3  1  0.76682  0.73226  0.31222  1
 O  O4  1  0.23318  0.26774  0.68778  1
 O  O5  1  0.74474  0.50000  0.69902  1
 O  O6  1  0.25526  0.50000  0.30098  1
 O  O7  1  0.73867  0.00000  0.69062  1
 O  O8  1  0.26133  0.00000  0.30938  1
