CIF file written using JARVIS-Tools package.
data_Nb3Cl7
_symmetry_space_group_name_H-M  'Cmce'
_cell_length_a       9.18534
_cell_length_b       9.18534
_cell_length_c       11.0684
_cell_angle_alpha    90
_cell_angle_beta     90
_cell_angle_gamma    95.4079

_symmetry_Int_Tables_number  64
_chemical_formula_structural  Nb3Cl7
_chemical_formula_sum  Nb2Cl28
_cell_volume  929.6849050298813
_cell_formula_units_Z  4
loop_
  _symmetry_equiv_pos_site_id
 _symmetry_equiv_pos_as_xyz
 1  'x, y, z'
loop_
 _atom_site_type_symbol
 _atom_site_label
 _atom_site_symmetry_multiplicity
 _atom_site_fract_x
 _atom_site_fract_y
 _atom_site_fract_z
 _atom_site_fract_occupancy
 Cl  Cl1  1  0.96682  0.21678  0.74934  1
 Cl  Cl2  1  0.60142  0.10142  0.75000  1
 Cl  Cl3  1  0.10142  0.60142  0.75000  1
 Cl  Cl4  1  0.39858  0.89858  0.25000  1
 Cl  Cl5  1  0.11678  0.36784  0.01078  1
 Cl  Cl6  1  0.38322  0.13216  0.51078  1
 Cl  Cl7  1  0.86784  0.61678  0.48922  1
 Cl  Cl8  1  0.63216  0.88322  0.98922  1
 Cl  Cl9  1  0.34935  0.34935  0.76983  1
 Cl  Cl10  1  0.65065  0.65065  0.23017  1
 Cl  Cl11  1  0.13216  0.38322  0.51078  1
 Cl  Cl12  1  0.36784  0.11678  0.01078  1
 Cl  Cl13  1  0.25433  0.74567  0.00000  1
 Cl  Cl14  1  0.24567  0.75433  0.50000  1
 Cl  Cl15  1  0.74567  0.25433  0.00000  1
 Cl  Cl16  1  0.75433  0.24567  0.50000  1
 Cl  Cl17  1  0.15065  0.15065  0.26983  1
 Cl  Cl18  1  0.88322  0.63216  0.98922  1
 Cl  Cl19  1  0.89858  0.39858  0.25000  1
 Cl  Cl20  1  0.84935  0.84935  0.73017  1
 Cl  Cl21  1  0.78322  0.03318  0.25066  1
 Cl  Cl22  1  0.71678  0.46682  0.75066  1
 Cl  Cl23  1  0.46682  0.71678  0.75066  1
 Cl  Cl24  1  0.03318  0.78322  0.25066  1
 Cl  Cl25  1  0.21678  0.96682  0.74934  1
 Cl  Cl26  1  0.28322  0.53318  0.24934  1
 Cl  Cl27  1  0.53318  0.28322  0.24934  1
 Cl  Cl28  1  0.61678  0.86784  0.48922  1
 Nb  Nb1  1  0.13841  0.13841  0.90065  1
 Nb  Nb2  1  0.63841  0.63841  0.59935  1
 Nb  Nb3  1  0.86159  0.86159  0.09935  1
 Nb  Nb4  1  0.95478  0.17380  0.11227  1
 Nb  Nb5  1  0.36159  0.36159  0.40065  1
 Nb  Nb6  1  0.45478  0.67380  0.38773  1
 Nb  Nb7  1  0.82620  0.04522  0.88773  1
 Nb  Nb8  1  0.04522  0.82620  0.88773  1
 Nb  Nb9  1  0.54522  0.32620  0.61227  1
 Nb  Nb10  1  0.32620  0.54522  0.61227  1
 Nb  Nb11  1  0.67380  0.45478  0.38773  1
 Nb  Nb12  1  0.17380  0.95478  0.11227  1
