CIF file written using JARVIS-Tools package.
data_CeInAu2
_symmetry_space_group_name_H-M  'Fm-3m'
_cell_length_a       5.02637
_cell_length_b       5.02724
_cell_length_c       5.02678
_cell_angle_alpha    59.987
_cell_angle_beta     59.9893
_cell_angle_gamma    59.994

_symmetry_Int_Tables_number  225
_chemical_formula_structural  CeInAu2
_chemical_formula_sum  CeInAu2
_cell_volume  89.7967895281864
_cell_formula_units_Z  1
loop_
  _symmetry_equiv_pos_site_id
 _symmetry_equiv_pos_as_xyz
 1  'x, y, z'
loop_
 _atom_site_type_symbol
 _atom_site_label
 _atom_site_symmetry_multiplicity
 _atom_site_fract_x
 _atom_site_fract_y
 _atom_site_fract_z
 _atom_site_fract_occupancy
 Au  Au1  1  0.24998  0.25000  0.24997  1
 Au  Au2  1  0.75002  0.74999  0.75004  1
 Ce  Ce1  1  0.00000  0.00000  1.00000  1
 In  In1  1  0.50000  0.50000  0.50000  1
