CIF file written using JARVIS-Tools package.
data_MgH8C6O4
_symmetry_space_group_name_H-M  'P-1'
_cell_length_a       4.83373
_cell_length_b       6.46875
_cell_length_c       9.75348
_cell_angle_alpha    91.9438
_cell_angle_beta     92.7598
_cell_angle_gamma    105.614

_symmetry_Int_Tables_number  2
_chemical_formula_structural  MgH8C6O4
_chemical_formula_sum  Mg2H6C2O8
_cell_volume  293.03056589355714
_cell_formula_units_Z  2
loop_
  _symmetry_equiv_pos_site_id
 _symmetry_equiv_pos_as_xyz
 1  'x, y, z'
loop_
 _atom_site_type_symbol
 _atom_site_label
 _atom_site_symmetry_multiplicity
 _atom_site_fract_x
 _atom_site_fract_y
 _atom_site_fract_z
 _atom_site_fract_occupancy
 C  C1  1  0.16530  0.76798  0.35473  1
 C  C2  1  0.78263  0.14426  0.46310  1
 C  C3  1  0.65784  0.13820  0.60301  1
 C  C4  1  0.66530  0.26798  0.35473  1
 C  C5  1  0.80014  0.25760  0.21655  1
 C  C6  1  0.30013  0.75760  0.21655  1
 C  C7  1  0.68281  0.38135  0.10819  1
 C  C8  1  0.18281  0.88135  0.10819  1
 C  C9  1  0.15784  0.63820  0.60301  1
 C  C10  1  0.30758  0.88743  0.96827  1
 C  C11  1  0.80758  0.38743  0.96827  1
 C  C12  1  0.28262  0.64426  0.46310  1
 H  H1  1  0.53502  0.82058  0.23070  1
 H  H2  1  0.93042  0.70500  0.34058  1
 H  H3  1  0.43042  0.20500  0.34058  1
 H  H4  1  0.20379  0.93511  0.39287  1
 H  H5  1  0.70379  0.43511  0.39288  1
 H  H6  1  0.51738  0.70263  0.47970  1
 H  H7  1  0.76164  0.09047  0.17840  1
 H  H8  1  0.01738  0.20263  0.47970  1
 H  H9  1  0.26164  0.59047  0.17840  1
 H  H10  1  0.71814  0.54995  0.14376  1
 H  H11  1  0.21814  0.04995  0.14376  1
 H  H12  1  0.44806  0.32299  0.09160  1
 H  H13  1  0.24733  0.47565  0.42754  1
 H  H14  1  0.03502  0.32058  0.23070  1
 H  H15  1  0.74733  0.97565  0.42755  1
 H  H16  1  0.94806  0.82299  0.09160  1
 Mg  Mg1  1  0.23272  0.26290  0.78563  1
 Mg  Mg2  1  0.73272  0.76290  0.78563  1
 O  O1  1  0.80381  0.08280  0.70354  1
 O  O2  1  0.41975  0.17930  0.61576  1
 O  O3  1  0.91975  0.67930  0.61576  1
 O  O4  1  0.04565  0.34630  0.95552  1
 O  O5  1  0.54565  0.84630  0.95552  1
 O  O6  1  0.66166  0.44287  0.86775  1
 O  O7  1  0.16166  0.94287  0.86775  1
 O  O8  1  0.30381  0.58280  0.70354  1
