CIF file written using JARVIS-Tools package.
data_InTeBr
_symmetry_space_group_name_H-M  'P2_1/c'
_cell_length_a       7.36118
_cell_length_b       7.65281
_cell_length_c       8.51874
_cell_angle_alpha    90
_cell_angle_beta     118.176
_cell_angle_gamma    90

_symmetry_Int_Tables_number  14
_chemical_formula_structural  InTeBr
_chemical_formula_sum  In4Te4Br4
_cell_volume  423.02465247282794
_cell_formula_units_Z  4
loop_
  _symmetry_equiv_pos_site_id
 _symmetry_equiv_pos_as_xyz
 1  'x, y, z'
loop_
 _atom_site_type_symbol
 _atom_site_label
 _atom_site_symmetry_multiplicity
 _atom_site_fract_x
 _atom_site_fract_y
 _atom_site_fract_z
 _atom_site_fract_occupancy
 Br  Br1  1  0.67856  0.90369  0.91247  1
 Br  Br2  1  0.32144  0.40369  0.58753  1
 Br  Br3  1  0.32144  0.09631  0.08753  1
 Br  Br4  1  0.67856  0.59631  0.41247  1
 In  In1  1  0.97725  0.70080  0.11700  1
 In  In2  1  0.02275  0.20080  0.38300  1
 In  In3  1  0.02275  0.29920  0.88300  1
 In  In4  1  0.97725  0.79920  0.61700  1
 Te  Te1  1  0.22518  0.86962  0.44420  1
 Te  Te2  1  0.77482  0.36962  0.05580  1
 Te  Te3  1  0.77482  0.13038  0.55580  1
 Te  Te4  1  0.22518  0.63038  0.94420  1
