CIF file written using JARVIS-Tools package.
data_Sm2TeO6
_symmetry_space_group_name_H-M  'P321'
_cell_length_a       9.20092
_cell_length_b       9.20092
_cell_length_c       5.37086
_cell_angle_alpha    90
_cell_angle_beta     90
_cell_angle_gamma    120

_symmetry_Int_Tables_number  150
_chemical_formula_structural  Sm2TeO6
_chemical_formula_sum  Sm6Te3O8
_cell_volume  393.76423866936295
_cell_formula_units_Z  3
loop_
  _symmetry_equiv_pos_site_id
 _symmetry_equiv_pos_as_xyz
 1  'x, y, z'
loop_
 _atom_site_type_symbol
 _atom_site_label
 _atom_site_symmetry_multiplicity
 _atom_site_fract_x
 _atom_site_fract_y
 _atom_site_fract_z
 _atom_site_fract_occupancy
 O  O1  1  0.40939  0.54474  0.30288  1
 O  O2  1  0.19474  0.06397  0.78720  1
 O  O3  1  0.46682  0.23418  0.27308  1
 O  O4  1  0.59061  0.13536  0.69712  1
 O  O5  1  0.54474  0.40939  0.69712  1
 O  O6  1  0.45526  0.86464  0.30288  1
 O  O7  1  0.93603  0.13077  0.78720  1
 O  O8  1  0.06397  0.19474  0.21280  1
 O  O9  1  0.76582  0.23264  0.27308  1
 O  O10  1  0.86464  0.45526  0.69712  1
 O  O11  1  0.23418  0.46682  0.72692  1
 O  O12  1  0.13536  0.59061  0.30288  1
 O  O13  1  0.76736  0.53318  0.27308  1
 O  O14  1  0.80526  0.86923  0.21280  1
 O  O15  1  0.13077  0.93603  0.21280  1
 O  O16  1  0.53318  0.76736  0.72692  1
 O  O17  1  0.86923  0.80526  0.78720  1
 O  O18  1  0.23264  0.76582  0.72692  1
 Sm  Sm1  1  0.60862  0.60862  0.00000  1
 Sm  Sm2  1  -0.00000  0.72835  0.50000  1
 Sm  Sm3  1  0.27165  0.27165  0.50000  1
 Sm  Sm4  1  -0.00000  0.39138  0.00000  1
 Sm  Sm5  1  0.72835  -0.00000  0.50000  1
 Sm  Sm6  1  0.39138  -0.00000  0.00000  1
 Te  Te1  1  0.66667  0.33333  0.48707  1
 Te  Te2  1  0.33333  0.66667  0.51293  1
 Te  Te3  1  0.00000  0.00000  0.00000  1
