CIF file written using JARVIS-Tools package.
data_LuTiO3
_symmetry_space_group_name_H-M  'Pnma'
_cell_length_a       5.23475
_cell_length_b       5.6305
_cell_length_c       7.58625
_cell_angle_alpha    90
_cell_angle_beta     90
_cell_angle_gamma    90

_symmetry_Int_Tables_number  62
_chemical_formula_structural  LuTiO3
_chemical_formula_sum  Lu4Ti4O2
_cell_volume  223.59879335350325
_cell_formula_units_Z  4
loop_
  _symmetry_equiv_pos_site_id
 _symmetry_equiv_pos_as_xyz
 1  'x, y, z'
loop_
 _atom_site_type_symbol
 _atom_site_label
 _atom_site_symmetry_multiplicity
 _atom_site_fract_x
 _atom_site_fract_y
 _atom_site_fract_z
 _atom_site_fract_occupancy
 Lu  Lu1  1  0.97584  0.42520  0.75000  1
 Lu  Lu2  1  0.52416  0.92520  0.75000  1
 Lu  Lu3  1  0.47584  0.07480  0.25000  1
 Lu  Lu4  1  0.02416  0.57480  0.25000  1
 O  O1  1  0.13472  0.05500  0.75000  1
 O  O2  1  0.81532  0.69315  0.93590  1
 O  O3  1  0.18468  0.30685  0.43590  1
 O  O4  1  0.31532  0.80685  0.43590  1
 O  O5  1  0.18468  0.30685  0.06410  1
 O  O6  1  0.36528  0.55500  0.75000  1
 O  O7  1  0.63472  0.44500  0.25000  1
 O  O8  1  0.68468  0.19315  0.56410  1
 O  O9  1  0.31532  0.80685  0.06410  1
 O  O10  1  0.81532  0.69315  0.56410  1
 O  O11  1  0.68468  0.19315  0.93590  1
 O  O12  1  0.86528  0.94500  0.25000  1
 Ti  Ti1  1  0.50000  0.50000  0.50000  1
 Ti  Ti2  1  0.50000  0.50000  0.00000  1
 Ti  Ti3  1  0.00000  0.00000  0.50000  1
 Ti  Ti4  1  0.00000  0.00000  0.00000  1
