CIF file written using JARVIS-Tools package.
data_NaLaMgTeO6
_symmetry_space_group_name_H-M  'Cm'
_cell_length_a       5.57188
_cell_length_b       5.57188
_cell_length_c       5.59637
_cell_angle_alpha    59.7281
_cell_angle_beta     59.7281
_cell_angle_gamma    60.004

_symmetry_Int_Tables_number  8
_chemical_formula_structural  NaLaMgTeO6
_chemical_formula_sum  NaLaMgTeO6
_cell_volume  122.3518496184499
_cell_formula_units_Z  1
loop_
  _symmetry_equiv_pos_site_id
 _symmetry_equiv_pos_as_xyz
 1  'x, y, z'
loop_
 _atom_site_type_symbol
 _atom_site_label
 _atom_site_symmetry_multiplicity
 _atom_site_fract_x
 _atom_site_fract_y
 _atom_site_fract_z
 _atom_site_fract_occupancy
 La  La1  1  0.25065  0.25065  0.23987  1
 Mg  Mg1  1  0.99957  0.99957  0.99906  1
 Na  Na1  1  0.75142  0.75142  0.75879  1
 O  O1  1  0.21180  0.69803  0.78590  1
 O  O2  1  0.29850  0.78877  0.21630  1
 O  O3  1  0.78877  0.29850  0.21630  1
 O  O4  1  0.69803  0.21180  0.78590  1
 O  O5  1  0.74101  0.74101  0.34096  1
 O  O6  1  0.25922  0.25922  0.65833  1
 Te  Te1  1  0.50103  0.50103  0.49860  1
