CIF file written using JARVIS-Tools package.
data_Mn3CrP4
_symmetry_space_group_name_H-M  'Pm'
_cell_length_a       3.15608
_cell_length_b       5.27672
_cell_length_c       5.89772
_cell_angle_alpha    89.8643
_cell_angle_beta     90
_cell_angle_gamma    90

_symmetry_Int_Tables_number  6
_chemical_formula_structural  Mn3CrP4
_chemical_formula_sum  Mn3CrP4
_cell_volume  98.21907660029495
_cell_formula_units_Z  1
loop_
  _symmetry_equiv_pos_site_id
 _symmetry_equiv_pos_as_xyz
 1  'x, y, z'
loop_
 _atom_site_type_symbol
 _atom_site_label
 _atom_site_symmetry_multiplicity
 _atom_site_fract_x
 _atom_site_fract_y
 _atom_site_fract_z
 _atom_site_fract_occupancy
 Cr  Cr1  1  0.50000  0.50478  0.30343  1
 Mn  Mn1  1  0.50000  0.00319  0.19664  1
 Mn  Mn2  1  0.00000  0.49645  0.69712  1
 Mn  Mn3  1  0.00000  0.99611  0.80200  1
 P  P1  1  0.50000  0.69271  0.92874  1
 P  P2  1  0.50000  0.19358  0.57224  1
 P  P3  1  0.00000  0.30435  0.06860  1
 P  P4  1  0.00000  0.80883  0.43123  1
