CIF file written using JARVIS-Tools package.
data_Dy3TaO7
_symmetry_space_group_name_H-M  'C222_1'
_cell_length_a       6.47552
_cell_length_b       6.47552
_cell_length_c       7.46133
_cell_angle_alpha    90
_cell_angle_beta     90
_cell_angle_gamma    108.818

_symmetry_Int_Tables_number  20
_chemical_formula_structural  Dy3TaO7
_chemical_formula_sum  Dy6Ta2O4
_cell_volume  296.147257794113
_cell_formula_units_Z  2
loop_
  _symmetry_equiv_pos_site_id
 _symmetry_equiv_pos_as_xyz
 1  'x, y, z'
loop_
 _atom_site_type_symbol
 _atom_site_label
 _atom_site_symmetry_multiplicity
 _atom_site_fract_x
 _atom_site_fract_y
 _atom_site_fract_z
 _atom_site_fract_occupancy
 Dy  Dy1  1  0.53585  0.99966  0.50872  1
 Dy  Dy2  1  0.00034  0.46415  0.49128  1
 Dy  Dy3  1  0.46721  0.46721  0.75000  1
 Dy  Dy4  1  0.53279  0.53279  0.25000  1
 Dy  Dy5  1  0.46415  0.00034  0.00872  1
 Dy  Dy6  1  0.99966  0.53585  0.99128  1
 O  O1  1  0.06899  0.93101  0.00000  1
 O  O2  1  0.36120  0.63880  0.00000  1
 O  O3  1  0.63880  0.36120  0.50000  1
 O  O4  1  0.69055  0.94753  0.79409  1
 O  O5  1  0.37062  0.62938  0.50000  1
 O  O6  1  0.05247  0.30945  0.20591  1
 O  O7  1  0.08272  0.32854  0.77460  1
 O  O8  1  0.62938  0.37062  0.00000  1
 O  O9  1  0.91728  0.67146  0.27460  1
 O  O10  1  0.67146  0.91728  0.22540  1
 O  O11  1  0.94753  0.69055  0.70591  1
 O  O12  1  0.30945  0.05247  0.29409  1
 O  O13  1  0.32854  0.08272  0.72540  1
 O  O14  1  0.93101  0.06899  0.50000  1
 Ta  Ta1  1  0.99826  0.99826  0.75000  1
 Ta  Ta2  1  0.00174  0.00174  0.25000  1
