CIF file written using JARVIS-Tools package.
data_K3BiTe3
_symmetry_space_group_name_H-M  'P2_13'
_cell_length_a       10.2932
_cell_length_b       10.2932
_cell_length_c       10.2932
_cell_angle_alpha    90
_cell_angle_beta     90
_cell_angle_gamma    90

_symmetry_Int_Tables_number  198
_chemical_formula_structural  K3BiTe3
_chemical_formula_sum  K2Bi4Te2
_cell_volume  1090.5664129092208
_cell_formula_units_Z  4
loop_
  _symmetry_equiv_pos_site_id
 _symmetry_equiv_pos_as_xyz
 1  'x, y, z'
loop_
 _atom_site_type_symbol
 _atom_site_label
 _atom_site_symmetry_multiplicity
 _atom_site_fract_x
 _atom_site_fract_y
 _atom_site_fract_z
 _atom_site_fract_occupancy
 Bi  Bi1  1  0.04029  0.04029  0.04029  1
 Bi  Bi2  1  0.95971  0.54029  0.45971  1
 Bi  Bi3  1  0.45971  0.95971  0.54029  1
 Bi  Bi4  1  0.54029  0.45971  0.95971  1
 K  K1  1  0.18094  0.31906  0.68094  1
 K  K2  1  0.31906  0.68094  0.18094  1
 K  K3  1  0.68094  0.18094  0.31906  1
 K  K4  1  0.81906  0.81906  0.81906  1
 K  K5  1  0.57358  0.57358  0.57358  1
 K  K6  1  0.82958  0.17042  0.67042  1
 K  K7  1  0.17042  0.67042  0.82958  1
 K  K8  1  0.32958  0.32958  0.32958  1
 K  K9  1  0.42642  0.07358  0.92642  1
 K  K10  1  0.07358  0.92642  0.42642  1
 K  K11  1  0.92642  0.42642  0.07358  1
 K  K12  1  0.67042  0.82958  0.17042  1
 Te  Te1  1  0.37859  0.00221  0.26948  1
 Te  Te2  1  0.00221  0.26948  0.37859  1
 Te  Te3  1  0.87859  0.49779  0.73052  1
 Te  Te4  1  0.62141  0.50221  0.23052  1
 Te  Te5  1  0.50221  0.23052  0.62141  1
 Te  Te6  1  0.26948  0.37859  0.00221  1
 Te  Te7  1  0.12141  0.99779  0.76948  1
 Te  Te8  1  0.73052  0.87859  0.49779  1
 Te  Te9  1  0.76948  0.12141  0.99779  1
 Te  Te10  1  0.99779  0.76948  0.12141  1
 Te  Te11  1  0.23052  0.62141  0.50221  1
 Te  Te12  1  0.49779  0.73052  0.87859  1
