CIF file written using JARVIS-Tools package.
data_Rb2HgO2
_symmetry_space_group_name_H-M  'I4/mmm'
_cell_length_a       4.12708
_cell_length_b       4.12707
_cell_length_c       7.74974
_cell_angle_alpha    105.443
_cell_angle_beta     105.443
_cell_angle_gamma    90

_symmetry_Int_Tables_number  139
_chemical_formula_structural  Rb2HgO2
_chemical_formula_sum  Rb2HgO2
_cell_volume  122.28303124127109
_cell_formula_units_Z  1
loop_
  _symmetry_equiv_pos_site_id
 _symmetry_equiv_pos_as_xyz
 1  'x, y, z'
loop_
 _atom_site_type_symbol
 _atom_site_label
 _atom_site_symmetry_multiplicity
 _atom_site_fract_x
 _atom_site_fract_y
 _atom_site_fract_z
 _atom_site_fract_occupancy
 Hg  Hg1  1  0.00000  0.00000  0.00000  1
 O  O1  1  0.86078  0.86078  0.72156  1
 O  O2  1  0.13922  0.13922  0.27844  1
 Rb  Rb1  1  0.66699  0.66699  0.33399  1
 Rb  Rb2  1  0.33301  0.33301  0.66601  1
