CIF file written using JARVIS-Tools package.
data_KY2Ti2S2O5
_symmetry_space_group_name_H-M  'P4/mmm'
_cell_length_a       3.71504
_cell_length_b       3.71504
_cell_length_c       14.8957
_cell_angle_alpha    90
_cell_angle_beta     90
_cell_angle_gamma    90

_symmetry_Int_Tables_number  123
_chemical_formula_structural  KY2Ti2S2O5
_chemical_formula_sum  KY2Ti2S2O5
_cell_volume  205.58391905050505
_cell_formula_units_Z  1
loop_
  _symmetry_equiv_pos_site_id
 _symmetry_equiv_pos_as_xyz
 1  'x, y, z'
loop_
 _atom_site_type_symbol
 _atom_site_label
 _atom_site_symmetry_multiplicity
 _atom_site_fract_x
 _atom_site_fract_y
 _atom_site_fract_z
 _atom_site_fract_occupancy
 K  K1  1  0.50000  0.50000  0.50000  1
 O  O1  1  0.50000  0.00000  0.83132  1
 O  O2  1  0.00000  0.50000  0.83132  1
 O  O3  1  0.00000  0.50000  0.16868  1
 O  O4  1  0.00000  0.00000  0.00000  1
 O  O5  1  0.50000  0.00000  0.16868  1
 S  S1  1  0.00000  0.00000  0.35226  1
 S  S2  1  0.00000  0.00000  0.64774  1
 Ti  Ti1  1  0.00000  0.00000  0.87781  1
 Ti  Ti2  1  0.00000  0.00000  0.12219  1
 Y  Y1  1  0.50000  0.50000  0.73998  1
 Y  Y2  1  0.50000  0.50000  0.26002  1
