CIF file written using JARVIS-Tools package.
data_Nb6RuRh
_symmetry_space_group_name_H-M  'Pm-3'
_cell_length_a       5.17451
_cell_length_b       5.17451
_cell_length_c       5.17451
_cell_angle_alpha    90
_cell_angle_beta     90
_cell_angle_gamma    90

_symmetry_Int_Tables_number  200
_chemical_formula_structural  Nb6RuRh
_chemical_formula_sum  Nb6RuRh
_cell_volume  138.55001293099807
_cell_formula_units_Z  1
loop_
  _symmetry_equiv_pos_site_id
 _symmetry_equiv_pos_as_xyz
 1  'x, y, z'
loop_
 _atom_site_type_symbol
 _atom_site_label
 _atom_site_symmetry_multiplicity
 _atom_site_fract_x
 _atom_site_fract_y
 _atom_site_fract_z
 _atom_site_fract_occupancy
 Nb  Nb1  1  0.00000  0.50000  0.75096  1
 Nb  Nb2  1  0.50000  0.24904  0.00000  1
 Nb  Nb3  1  0.75096  0.00000  0.50000  1
 Nb  Nb4  1  0.00000  0.50000  0.24904  1
 Nb  Nb5  1  0.50000  0.75096  0.00000  1
 Nb  Nb6  1  0.24904  0.00000  0.50000  1
 Rh  Rh1  1  0.50000  0.50000  0.50000  1
 Ru  Ru1  1  0.00000  0.00000  0.00000  1
