CIF file written using JARVIS-Tools package.
data_CdH20C12O4
_symmetry_space_group_name_H-M  'P1'
_cell_length_a       3.80033
_cell_length_b       4.83657
_cell_length_c       18.6409
_cell_angle_alpha    70.7768
_cell_angle_beta     79.696
_cell_angle_gamma    64.0542

_symmetry_Int_Tables_number  1
_chemical_formula_structural  CdH20C12O4
_chemical_formula_sum  CdH20C2O4
_cell_volume  290.67293394647146
_cell_formula_units_Z  1
loop_
  _symmetry_equiv_pos_site_id
 _symmetry_equiv_pos_as_xyz
 1  'x, y, z'
loop_
 _atom_site_type_symbol
 _atom_site_label
 _atom_site_symmetry_multiplicity
 _atom_site_fract_x
 _atom_site_fract_y
 _atom_site_fract_z
 _atom_site_fract_occupancy
 C  C1  1  0.56676  0.92531  0.61821  1
 C  C2  1  0.30742  0.21782  0.26405  1
 C  C3  1  0.24791  0.28896  0.33981  1
 C  C4  1  0.41010  0.10178  0.47841  1
 C  C5  1  0.61312  0.82239  0.54652  1
 C  C6  1  0.46054  0.00359  0.40584  1
 C  C7  1  0.74989  0.64608  0.68784  1
 C  C8  1  0.71551  0.75252  0.75850  1
 C  C9  1  0.85147  0.47220  0.83044  1
 C  C10  1  0.81577  0.57575  0.90170  1
 C  C11  1  0.89186  0.29275  0.97342  1
 C  C12  1  0.84906  0.36752  0.04812  1
 Cd  Cd1  1  0.57832  0.79125  0.15597  1
 H  H1  1  0.52397  0.28704  0.46736  1
 H  H2  1  0.32998  0.48953  0.33109  1
 H  H3  1  0.69755  0.09994  0.60686  1
 H  H4  1  0.92910  0.38892  0.35212  1
 H  H5  1  -0.11563  0.89911  0.74829  1
 H  H6  1  0.09562  0.21719  0.49316  1
 H  H7  1  0.35157  0.81625  0.41661  1
 H  H8  1  0.18560  0.10065  0.97110  1
 H  H9  1  0.67829  0.32916  0.84014  1
 H  H10  1  0.15741  0.30954  0.82143  1
 H  H11  1  0.60817  0.47800  0.70064  1
 H  H12  1  0.25292  0.05445  0.63125  1
 H  H13  1  0.06079  0.50931  0.67448  1
 H  H14  1  -0.07305  0.70359  0.53175  1
 H  H15  1  0.69310  0.17627  0.97816  1
 H  H16  1  0.77380  0.89436  0.38978  1
 H  H17  1  0.52032  0.76184  0.90652  1
 H  H18  1  0.01934  0.68850  0.89634  1
 H  H19  1  0.40823  0.91131  0.76800  1
 H  H20  1  0.49422  0.63970  0.55850  1
 O  O1  1  0.43309  0.92728  0.26432  1
 O  O2  1  0.73262  0.65792  0.04715  1
 O  O3  1  0.22332  0.45410  0.20293  1
 O  O4  1  0.93048  0.13272  0.10954  1
