CIF file written using JARVIS-Tools package.
data_VOF2
_symmetry_space_group_name_H-M  'Immm'
_cell_length_a       3.0657
_cell_length_b       3.59833
_cell_length_c       8.48537
_cell_angle_alpha    90
_cell_angle_beta     90.0167
_cell_angle_gamma    90

_symmetry_Int_Tables_number  71
_chemical_formula_structural  VOF2
_chemical_formula_sum  V2O2F4
_cell_volume  93.60586861697023
_cell_formula_units_Z  2
loop_
  _symmetry_equiv_pos_site_id
 _symmetry_equiv_pos_as_xyz
 1  'x, y, z'
loop_
 _atom_site_type_symbol
 _atom_site_label
 _atom_site_symmetry_multiplicity
 _atom_site_fract_x
 _atom_site_fract_y
 _atom_site_fract_z
 _atom_site_fract_occupancy
 F  F1  1  0.50012  0.00000  0.14615  1
 F  F2  1  0.00012  0.50000  0.64615  1
 F  F3  1  -0.00012  0.50000  0.35385  1
 F  F4  1  0.49988  1.00000  0.85385  1
 O  O1  1  0.00000  0.50000  0.00000  1
 O  O2  1  0.50000  0.00000  0.50000  1
 V  V1  1  0.50000  0.50000  0.50000  1
 V  V2  1  0.00000  0.00000  0.00000  1
