CIF file written using JARVIS-Tools package.
data_Li2V3CuO8
_symmetry_space_group_name_H-M  'R3m'
_cell_length_a       5.9186
_cell_length_b       5.9186
_cell_length_c       5.9186
_cell_angle_alpha    58.1295
_cell_angle_beta     58.1295
_cell_angle_gamma    58.1295

_symmetry_Int_Tables_number  160
_chemical_formula_structural  Li2V3CuO8
_chemical_formula_sum  Li2V3CuO8
_cell_volume  140.31686733869464
_cell_formula_units_Z  1
loop_
  _symmetry_equiv_pos_site_id
 _symmetry_equiv_pos_as_xyz
 1  'x, y, z'
loop_
 _atom_site_type_symbol
 _atom_site_label
 _atom_site_symmetry_multiplicity
 _atom_site_fract_x
 _atom_site_fract_y
 _atom_site_fract_z
 _atom_site_fract_occupancy
 Cu  Cu1  1  0.87644  0.87644  0.87644  1
 Li  Li1  1  0.12362  0.12362  0.12362  1
 Li  Li2  1  0.49868  0.49868  0.49868  1
 O  O1  1  0.26012  0.26012  0.26012  1
 O  O2  1  0.24924  0.24924  0.71338  1
 O  O3  1  0.24924  0.71338  0.24924  1
 O  O4  1  0.71338  0.24924  0.24924  1
 O  O5  1  0.28876  0.74746  0.74746  1
 O  O6  1  0.74746  0.28876  0.74746  1
 O  O7  1  0.74746  0.74746  0.28876  1
 O  O8  1  0.74282  0.74282  0.74282  1
 V  V1  1  0.00063  0.50108  0.50108  1
 V  V2  1  0.50108  0.00063  0.50108  1
 V  V3  1  0.50108  0.50108  0.00063  1
