CIF file written using JARVIS-Tools package.
data_TiO2
_symmetry_space_group_name_H-M  'C2/m'
_cell_length_a       3.7561
_cell_length_b       6.42162
_cell_length_c       6.61487
_cell_angle_alpha    106.246
_cell_angle_beta     90
_cell_angle_gamma    107.005

_symmetry_Int_Tables_number  12
_chemical_formula_structural  TiO2
_chemical_formula_sum  Ti4O8
_cell_volume  145.90146758501538
_cell_formula_units_Z  4
loop_
  _symmetry_equiv_pos_site_id
 _symmetry_equiv_pos_as_xyz
 1  'x, y, z'
loop_
 _atom_site_type_symbol
 _atom_site_label
 _atom_site_symmetry_multiplicity
 _atom_site_fract_x
 _atom_site_fract_y
 _atom_site_fract_z
 _atom_site_fract_occupancy
 O  O1  1  0.94161  0.88322  0.62942  1
 O  O2  1  0.36162  0.72323  0.29439  1
 O  O3  1  0.86723  0.73445  0.99638  1
 O  O4  1  0.05839  0.11678  0.37058  1
 O  O5  1  0.26397  0.52794  0.65238  1
 O  O6  1  0.13277  0.26555  0.00362  1
 O  O7  1  0.73603  0.47206  0.34762  1
 O  O8  1  0.63838  0.27677  0.70561  1
 Ti  Ti1  1  0.19430  0.38861  0.28346  1
 Ti  Ti2  1  0.89939  0.79877  0.29028  1
 Ti  Ti3  1  0.80570  0.61139  0.71654  1
 Ti  Ti4  1  0.10061  0.20123  0.70972  1
