CIF file written using JARVIS-Tools package.
data_NaMn2O4
_symmetry_space_group_name_H-M  'P2/m'
_cell_length_a       4.96158
_cell_length_b       5.71356
_cell_length_c       5.78977
_cell_angle_alpha    90
_cell_angle_beta     98.677
_cell_angle_gamma    90

_symmetry_Int_Tables_number  10
_chemical_formula_structural  NaMn2O4
_chemical_formula_sum  Na2Mn4O8
_cell_volume  162.25149646420945
_cell_formula_units_Z  2
loop_
  _symmetry_equiv_pos_site_id
 _symmetry_equiv_pos_as_xyz
 1  'x, y, z'
loop_
 _atom_site_type_symbol
 _atom_site_label
 _atom_site_symmetry_multiplicity
 _atom_site_fract_x
 _atom_site_fract_y
 _atom_site_fract_z
 _atom_site_fract_occupancy
 Mn  Mn1  1  -0.00000  0.00000  0.50000  1
 Mn  Mn2  1  0.50000  0.75206  0.50000  1
 Mn  Mn3  1  0.50000  0.24794  0.50000  1
 Mn  Mn4  1  -0.00000  0.50000  0.50000  1
 Na  Na1  1  0.50000  0.50000  -0.00000  1
 Na  Na2  1  0.00000  0.00000  0.00000  1
 O  O1  1  0.20035  0.75261  0.68242  1
 O  O2  1  0.79965  0.24739  0.31758  1
 O  O3  1  0.79965  0.75261  0.31758  1
 O  O4  1  0.20035  0.24739  0.68242  1
 O  O5  1  0.69667  0.50000  0.67374  1
 O  O6  1  0.30333  0.50000  0.32626  1
 O  O7  1  0.69777  0.00000  0.67397  1
 O  O8  1  0.30223  0.00000  0.32603  1
