CIF file written using JARVIS-Tools package.
data_Sm2Pt2O7
_symmetry_space_group_name_H-M  'Fd-3m'
_cell_length_a       7.35022
_cell_length_b       7.35022
_cell_length_c       7.35022
_cell_angle_alpha    60
_cell_angle_beta     90
_cell_angle_gamma    120

_symmetry_Int_Tables_number  227
_chemical_formula_structural  Sm2Pt2O7
_chemical_formula_sum  Sm4Pt4O4
_cell_volume  280.792702853651
_cell_formula_units_Z  2
loop_
  _symmetry_equiv_pos_site_id
 _symmetry_equiv_pos_as_xyz
 1  'x, y, z'
loop_
 _atom_site_type_symbol
 _atom_site_label
 _atom_site_symmetry_multiplicity
 _atom_site_fract_x
 _atom_site_fract_y
 _atom_site_fract_z
 _atom_site_fract_occupancy
 O  O1  1  0.53771  0.50000  0.53771  1
 O  O2  1  0.71229  0.00000  0.28771  1
 O  O3  1  0.71229  0.00000  0.71229  1
 O  O4  1  0.53771  0.50000  0.96229  1
 O  O5  1  0.28771  0.00000  0.28771  1
 O  O6  1  0.71229  0.42459  0.28771  1
 O  O7  1  0.00000  0.00000  0.00000  1
 O  O8  1  0.28771  0.00000  0.71229  1
 O  O9  1  0.25000  0.50000  0.25000  1
 O  O10  1  0.96229  0.50000  0.96229  1
 O  O11  1  0.28771  0.57541  0.71229  1
 O  O12  1  0.53771  0.07541  0.96229  1
 O  O13  1  0.96229  0.92459  0.53771  1
 O  O14  1  0.96229  0.50000  0.53771  1
 Pt  Pt1  1  0.12500  0.75000  0.62500  1
 Pt  Pt2  1  0.62500  0.75000  0.62500  1
 Pt  Pt3  1  0.62500  0.25000  0.62500  1
 Pt  Pt4  1  0.62500  0.25000  0.12500  1
 Sm  Sm1  1  0.12500  0.25000  0.62500  1
 Sm  Sm2  1  0.12500  0.75000  0.12500  1
 Sm  Sm3  1  0.62500  0.75000  0.12500  1
 Sm  Sm4  1  0.12500  0.25000  0.12500  1
