CIF file written using JARVIS-Tools package.
data_HoAu3
_symmetry_space_group_name_H-M  'Pmmn'
_cell_length_a       5.01139
_cell_length_b       5.11939
_cell_length_c       6.19078
_cell_angle_alpha    90
_cell_angle_beta     90
_cell_angle_gamma    90

_symmetry_Int_Tables_number  59
_chemical_formula_structural  HoAu3
_chemical_formula_sum  Ho2Au6
_cell_volume  158.82612370038808
_cell_formula_units_Z  2
loop_
  _symmetry_equiv_pos_site_id
 _symmetry_equiv_pos_as_xyz
 1  'x, y, z'
loop_
 _atom_site_type_symbol
 _atom_site_label
 _atom_site_symmetry_multiplicity
 _atom_site_fract_x
 _atom_site_fract_y
 _atom_site_fract_z
 _atom_site_fract_occupancy
 Au  Au1  1  0.50000  0.83646  0.25571  1
 Au  Au2  1  0.00000  0.16354  0.24429  1
 Au  Au3  1  0.50000  0.83646  0.74429  1
 Au  Au4  1  0.00000  0.16354  0.75571  1
 Au  Au5  1  0.50000  0.33424  0.50000  1
 Au  Au6  1  0.00000  0.66576  0.00000  1
 Ho  Ho1  1  0.00000  0.65830  0.50000  1
 Ho  Ho2  1  0.50000  0.34170  0.00000  1
