CIF file written using JARVIS-Tools package.
data_SiO2
_symmetry_space_group_name_H-M  'Ama2'
_cell_length_a       5.06806
_cell_length_b       5.06806
_cell_length_c       8.3302
_cell_angle_alpha    90
_cell_angle_beta     90
_cell_angle_gamma    121.186

_symmetry_Int_Tables_number  40
_chemical_formula_structural  SiO2
_chemical_formula_sum  Si4O8
_cell_volume  183.04349280066407
_cell_formula_units_Z  4
loop_
  _symmetry_equiv_pos_site_id
 _symmetry_equiv_pos_as_xyz
 1  'x, y, z'
loop_
 _atom_site_type_symbol
 _atom_site_label
 _atom_site_symmetry_multiplicity
 _atom_site_fract_x
 _atom_site_fract_y
 _atom_site_fract_z
 _atom_site_fract_occupancy
 O  O1  1  0.61192  0.61192  0.00000  1
 O  O2  1  0.46006  0.03358  0.45443  1
 O  O3  1  0.56780  0.25695  0.75000  1
 O  O4  1  0.03358  0.46006  0.54557  1
 O  O5  1  0.25695  0.56780  0.25000  1
 O  O6  1  0.03358  0.46006  0.95443  1
 O  O7  1  0.61192  0.61192  0.50000  1
 O  O8  1  0.46006  0.03358  0.04557  1
 Si  Si1  1  0.34043  0.66865  0.06280  1
 Si  Si2  1  0.66865  0.34043  0.56280  1
 Si  Si3  1  0.34043  0.66865  0.43720  1
 Si  Si4  1  0.66865  0.34043  0.93720  1
