CIF file written using JARVIS-Tools package.
data_Li2Ni3TeO8
_symmetry_space_group_name_H-M  'C2/m'
_cell_length_a       5.78929
_cell_length_b       6.16496
_cell_length_c       5.78929
_cell_angle_alpha    59.3142
_cell_angle_beta     117.198
_cell_angle_gamma    120.686

_symmetry_Int_Tables_number  12
_chemical_formula_structural  Li2Ni3TeO8
_chemical_formula_sum  Li2Ni3TeO8
_cell_volume  147.31192797623984
_cell_formula_units_Z  1
loop_
  _symmetry_equiv_pos_site_id
 _symmetry_equiv_pos_as_xyz
 1  'x, y, z'
loop_
 _atom_site_type_symbol
 _atom_site_label
 _atom_site_symmetry_multiplicity
 _atom_site_fract_x
 _atom_site_fract_y
 _atom_site_fract_z
 _atom_site_fract_occupancy
 Li  Li1  1  0.50000  0.50000  0.50000  1
 Li  Li2  1  -0.00000  0.50000  0.00000  1
 Ni  Ni1  1  0.50000  0.00000  0.50000  1
 Ni  Ni2  1  0.50000  0.50000  0.00000  1
 Ni  Ni3  1  0.00000  0.50000  0.50000  1
 O  O1  1  0.74690  0.31134  0.25310  1
 O  O2  1  0.77120  0.23252  0.75657  1
 O  O3  1  0.24343  0.23252  0.22880  1
 O  O4  1  0.75382  0.74290  0.24618  1
 O  O5  1  0.24618  0.25710  0.75382  1
 O  O6  1  0.75657  0.76748  0.77120  1
 O  O7  1  0.22880  0.76748  0.24343  1
 O  O8  1  0.25310  0.68866  0.74690  1
 Te  Te1  1  0.00000  0.00000  0.00000  1
