CIF file written using JARVIS-Tools package.
data_In4Bi2S9
_symmetry_space_group_name_H-M  'P2_1/m'
_cell_length_a       3.9782
_cell_length_b       11.185
_cell_length_c       16.3105
_cell_angle_alpha    94.5302
_cell_angle_beta     90
_cell_angle_gamma    90

_symmetry_Int_Tables_number  11
_chemical_formula_structural  In4Bi2S9
_chemical_formula_sum  In8Bi4S8
_cell_volume  723.4865903210945
_cell_formula_units_Z  2
loop_
  _symmetry_equiv_pos_site_id
 _symmetry_equiv_pos_as_xyz
 1  'x, y, z'
loop_
 _atom_site_type_symbol
 _atom_site_label
 _atom_site_symmetry_multiplicity
 _atom_site_fract_x
 _atom_site_fract_y
 _atom_site_fract_z
 _atom_site_fract_occupancy
 Bi  Bi1  1  0.25000  0.13745  0.42516  1
 Bi  Bi2  1  0.75000  0.86255  0.57484  1
 Bi  Bi3  1  0.25000  0.10048  0.10359  1
 Bi  Bi4  1  0.75000  0.89952  0.89641  1
 In  In1  1  0.25000  0.52246  0.79301  1
 In  In2  1  0.75000  0.85925  0.31603  1
 In  In3  1  0.25000  0.50882  0.40330  1
 In  In4  1  0.75000  0.47754  0.20699  1
 In  In5  1  0.75000  0.26942  0.92130  1
 In  In6  1  0.75000  0.49118  0.59670  1
 In  In7  1  0.25000  0.73058  0.07870  1
 In  In8  1  0.25000  0.14075  0.68397  1
 S  S1  1  0.75000  0.63099  0.33760  1
 S  S2  1  0.25000  0.62821  0.54503  1
 S  S3  1  0.25000  0.90419  0.68745  1
 S  S4  1  0.25000  0.89814  0.43436  1
 S  S5  1  0.75000  0.58329  0.07938  1
 S  S6  1  0.75000  0.10186  0.56564  1
 S  S7  1  0.75000  0.91216  0.05813  1
 S  S8  1  0.75000  0.37179  0.45497  1
 S  S9  1  0.75000  0.62918  0.74055  1
 S  S10  1  0.25000  0.41671  0.92062  1
 S  S11  1  0.25000  0.85319  0.21618  1
 S  S12  1  0.25000  0.08784  0.94187  1
 S  S13  1  0.25000  0.73352  0.91884  1
 S  S14  1  0.75000  0.14681  0.78382  1
 S  S15  1  0.75000  0.09581  0.31255  1
 S  S16  1  0.25000  0.36901  0.66240  1
 S  S17  1  0.25000  0.37082  0.25945  1
 S  S18  1  0.75000  0.26648  0.08116  1
