CIF file written using JARVIS-Tools package.
data_CoO
_symmetry_space_group_name_H-M  'F-43m'
_cell_length_a       3.08512
_cell_length_b       3.08512
_cell_length_c       5.34778
_cell_angle_alpha    90
_cell_angle_beta     73.2348
_cell_angle_gamma    60

_symmetry_Int_Tables_number  216
_chemical_formula_structural  CoO
_chemical_formula_sum  Co2O2
_cell_volume  41.563601463760705
_cell_formula_units_Z  2
loop_
  _symmetry_equiv_pos_site_id
 _symmetry_equiv_pos_as_xyz
 1  'x, y, z'
loop_
 _atom_site_type_symbol
 _atom_site_label
 _atom_site_symmetry_multiplicity
 _atom_site_fract_x
 _atom_site_fract_y
 _atom_site_fract_z
 _atom_site_fract_occupancy
 Co  Co1  1  0.00003  -0.00002  -0.00005  1
 Co  Co2  1  0.00010  0.49995  0.49984  1
 O  O1  1  0.24996  0.37502  0.12505  1
 O  O2  1  0.24990  0.87505  0.62515  1
