CIF file written using JARVIS-Tools package.
data_MnZnTe2
_symmetry_space_group_name_H-M  'P-4m2'
_cell_length_a       4.40452
_cell_length_b       4.40452
_cell_length_c       6.25905
_cell_angle_alpha    90
_cell_angle_beta     90
_cell_angle_gamma    90

_symmetry_Int_Tables_number  115
_chemical_formula_structural  MnZnTe2
_chemical_formula_sum  MnZnTe2
_cell_volume  121.42416328903565
_cell_formula_units_Z  1
loop_
  _symmetry_equiv_pos_site_id
 _symmetry_equiv_pos_as_xyz
 1  'x, y, z'
loop_
 _atom_site_type_symbol
 _atom_site_label
 _atom_site_symmetry_multiplicity
 _atom_site_fract_x
 _atom_site_fract_y
 _atom_site_fract_z
 _atom_site_fract_occupancy
 Mn  Mn1  1  0.00000  0.00000  0.00000  1
 Te  Te1  1  0.00000  0.50000  0.25430  1
 Te  Te2  1  0.50000  0.00000  0.74570  1
 Zn  Zn1  1  0.50000  0.50000  0.50000  1
