CIF file written using JARVIS-Tools package.
data_AgXeF9
_symmetry_space_group_name_H-M  'I4/m'
_cell_length_a       5.56658
_cell_length_b       5.56659
_cell_length_c       11.1953
_cell_angle_alpha    104.395
_cell_angle_beta     104.395
_cell_angle_gamma    90

_symmetry_Int_Tables_number  87
_chemical_formula_structural  AgXeF9
_chemical_formula_sum  Ag2Xe2F8
_cell_volume  324.7584742207283
_cell_formula_units_Z  2
loop_
  _symmetry_equiv_pos_site_id
 _symmetry_equiv_pos_as_xyz
 1  'x, y, z'
loop_
 _atom_site_type_symbol
 _atom_site_label
 _atom_site_symmetry_multiplicity
 _atom_site_fract_x
 _atom_site_fract_y
 _atom_site_fract_z
 _atom_site_fract_occupancy
 Ag  Ag1  1  0.50000  -0.00000  0.00000  1
 Ag  Ag2  1  -0.00000  0.50000  0.00000  1
 F  F1  1  0.22353  0.36596  0.12738  1
 F  F2  1  0.24590  0.24590  0.49179  1
 F  F3  1  0.75410  0.75410  0.50821  1
 F  F4  1  0.32529  0.85585  0.34090  1
 F  F5  1  0.48506  0.32529  0.34090  1
 F  F6  1  0.85585  0.01561  0.34090  1
 F  F7  1  0.01561  0.48506  0.34090  1
 F  F8  1  0.67471  0.14415  0.65910  1
 F  F9  1  0.36596  0.90385  0.12738  1
 F  F10  1  0.98439  0.51494  0.65910  1
 F  F11  1  0.90385  0.76141  0.12738  1
 F  F12  1  0.76141  0.22353  0.12738  1
 F  F13  1  0.23859  0.77647  0.87262  1
 F  F14  1  0.09615  0.23859  0.87262  1
 F  F15  1  0.77647  0.63404  0.87262  1
 F  F16  1  0.63404  0.09615  0.87262  1
 F  F17  1  0.51494  0.67471  0.65910  1
 F  F18  1  0.14415  0.98439  0.65910  1
 Xe  Xe1  1  0.84886  0.84886  0.69772  1
 Xe  Xe2  1  0.15114  0.15114  0.30228  1
