CIF file written using JARVIS-Tools package.
data_Ti5NbO12
_symmetry_space_group_name_H-M  'C2/m'
_cell_length_a       7.25034
_cell_length_b       5.55536
_cell_length_c       5.55536
_cell_angle_alpha    73.2883
_cell_angle_beta     71.4612
_cell_angle_gamma    71.4612

_symmetry_Int_Tables_number  12
_chemical_formula_structural  Ti5NbO12
_chemical_formula_sum  Ti5NbO2
_cell_volume  196.76520397954766
_cell_formula_units_Z  1
loop_
  _symmetry_equiv_pos_site_id
 _symmetry_equiv_pos_as_xyz
 1  'x, y, z'
loop_
 _atom_site_type_symbol
 _atom_site_label
 _atom_site_symmetry_multiplicity
 _atom_site_fract_x
 _atom_site_fract_y
 _atom_site_fract_z
 _atom_site_fract_occupancy
 Nb  Nb1  1  0.50000  0.00000  0.00000  1
 O  O1  1  0.37124  0.43363  0.43363  1
 O  O2  1  0.66980  0.02921  0.63122  1
 O  O3  1  0.33020  0.36878  0.97079  1
 O  O4  1  0.33020  0.97079  0.36878  1
 O  O5  1  0.29505  0.89758  0.89758  1
 O  O6  1  0.96625  0.23104  0.23104  1
 O  O7  1  0.70495  0.10242  0.10242  1
 O  O8  1  0.03375  0.76896  0.76896  1
 O  O9  1  0.00000  0.69614  0.30386  1
 O  O10  1  0.00000  0.30386  0.69614  1
 O  O11  1  0.66980  0.63122  0.02921  1
 O  O12  1  0.62876  0.56637  0.56637  1
 Ti  Ti1  1  0.00000  0.00000  0.00000  1
 Ti  Ti2  1  0.16307  0.33869  0.33869  1
 Ti  Ti3  1  0.32569  0.66219  0.66219  1
 Ti  Ti4  1  0.67431  0.33781  0.33781  1
 Ti  Ti5  1  0.83693  0.66131  0.66131  1
