CIF file written using JARVIS-Tools package.
data_Cr3NiB6
_symmetry_space_group_name_H-M  'Amm2'
_cell_length_a       8.99798
_cell_length_b       8.99798
_cell_length_c       2.95202
_cell_angle_alpha    90
_cell_angle_beta     90
_cell_angle_gamma    160.84

_symmetry_Int_Tables_number  38
_chemical_formula_structural  Cr3NiB6
_chemical_formula_sum  Cr3NiB6
_cell_volume  78.44209380702627
_cell_formula_units_Z  1
loop_
  _symmetry_equiv_pos_site_id
 _symmetry_equiv_pos_as_xyz
 1  'x, y, z'
loop_
 _atom_site_type_symbol
 _atom_site_label
 _atom_site_symmetry_multiplicity
 _atom_site_fract_x
 _atom_site_fract_y
 _atom_site_fract_z
 _atom_site_fract_occupancy
 B  B1  1  0.52452  0.47548  0.00000  1
 B  B2  1  0.47600  0.52400  0.50000  1
 B  B3  1  0.32482  0.67518  0.00000  1
 B  B4  1  0.67447  0.32553  0.50000  1
 B  B5  1  0.62127  0.37873  0.00000  1
 B  B6  1  0.37887  0.62113  0.50000  1
 Cr  Cr1  1  0.79642  0.20358  0.50000  1
 Cr  Cr2  1  0.92905  0.07095  0.00000  1
 Cr  Cr3  1  0.07190  0.92810  0.50000  1
 Ni  Ni1  1  0.20268  0.79732  0.00000  1
