CIF file written using JARVIS-Tools package.
data_Na5InS4
_symmetry_space_group_name_H-M  'P2_1/m'
_cell_length_a       6.75307
_cell_length_b       8.8041
_cell_length_c       7.814
_cell_angle_alpha    90
_cell_angle_beta     90.8567
_cell_angle_gamma    90

_symmetry_Int_Tables_number  11
_chemical_formula_structural  Na5InS4
_chemical_formula_sum  Na0In2S8
_cell_volume  464.52736754259166
_cell_formula_units_Z  2
loop_
  _symmetry_equiv_pos_site_id
 _symmetry_equiv_pos_as_xyz
 1  'x, y, z'
loop_
 _atom_site_type_symbol
 _atom_site_label
 _atom_site_symmetry_multiplicity
 _atom_site_fract_x
 _atom_site_fract_y
 _atom_site_fract_z
 _atom_site_fract_occupancy
 In  In1  1  0.36087  0.25000  0.82486  1
 In  In2  1  0.63913  0.75000  0.17514  1
 Na  Na1  1  0.34320  0.48106  0.33511  1
 Na  Na2  1  0.65680  0.98106  0.66489  1
 Na  Na3  1  0.65680  0.51894  0.66489  1
 Na  Na4  1  0.34320  0.01894  0.33511  1
 Na  Na5  1  0.02336  0.75000  0.47690  1
 Na  Na6  1  0.97664  0.25000  0.52310  1
 Na  Na7  1  0.33080  0.75000  0.83795  1
 Na  Na8  1  0.66920  0.25000  0.16205  1
 Na  Na9  1  0.00000  0.00000  0.00000  1
 Na  Na10  1  0.00000  0.50000  0.00000  1
 S  S1  1  0.73271  0.25000  0.82195  1
 S  S2  1  0.76310  0.75000  0.87550  1
 S  S3  1  0.76875  0.98223  0.32833  1
 S  S4  1  0.23125  0.48223  0.67167  1
 S  S5  1  0.23125  0.01777  0.67167  1
 S  S6  1  0.76875  0.51777  0.32833  1
 S  S7  1  0.26729  0.75000  0.17805  1
 S  S8  1  0.23690  0.25000  0.12450  1
