CIF file written using JARVIS-Tools package.
data_BiAsO4
_symmetry_space_group_name_H-M  'P2_1/c'
_cell_length_a       6.82485
_cell_length_b       7.21587
_cell_length_c       8.37663
_cell_angle_alpha    90
_cell_angle_beta     126.921
_cell_angle_gamma    90

_symmetry_Int_Tables_number  14
_chemical_formula_structural  BiAsO4
_chemical_formula_sum  Bi4As4O6
_cell_volume  329.80059960681814
_cell_formula_units_Z  4
loop_
  _symmetry_equiv_pos_site_id
 _symmetry_equiv_pos_as_xyz
 1  'x, y, z'
loop_
 _atom_site_type_symbol
 _atom_site_label
 _atom_site_symmetry_multiplicity
 _atom_site_fract_x
 _atom_site_fract_y
 _atom_site_fract_z
 _atom_site_fract_occupancy
 As  As1  1  0.68681  0.66156  0.79901  1
 As  As2  1  0.31319  0.16156  0.70099  1
 As  As3  1  0.31319  0.33844  0.20099  1
 As  As4  1  0.68681  0.83844  0.29901  1
 Bi  Bi1  1  0.19589  0.63781  0.77941  1
 Bi  Bi2  1  0.80411  0.13781  0.72059  1
 Bi  Bi3  1  0.80411  0.36219  0.22059  1
 Bi  Bi4  1  0.19589  0.86219  0.27941  1
 O  O1  1  0.38458  0.70750  0.60760  1
 O  O2  1  0.61542  0.20750  0.89240  1
 O  O3  1  0.61542  0.29250  0.39240  1
 O  O4  1  0.12741  0.35483  0.60852  1
 O  O5  1  0.63887  0.60432  0.97565  1
 O  O6  1  0.36113  0.10432  0.52435  1
 O  O7  1  0.38458  0.79250  0.10760  1
 O  O8  1  0.16230  -0.00207  0.73711  1
 O  O9  1  0.83770  0.00207  0.26289  1
 O  O10  1  0.16230  0.50207  0.23711  1
 O  O11  1  0.36113  0.39568  0.02435  1
 O  O12  1  0.83770  0.49793  0.76289  1
 O  O13  1  0.87259  0.64517  0.39148  1
 O  O14  1  0.12741  0.14517  0.10852  1
 O  O15  1  0.63887  0.89568  0.47565  1
 O  O16  1  0.87259  0.85483  0.89148  1
