CIF file written using JARVIS-Tools package.
data_SiC2N4
_symmetry_space_group_name_H-M  'Pn-3m'
_cell_length_a       6.68686
_cell_length_b       6.68686
_cell_length_c       6.68686
_cell_angle_alpha    90
_cell_angle_beta     90
_cell_angle_gamma    90

_symmetry_Int_Tables_number  224
_chemical_formula_structural  SiC2N4
_chemical_formula_sum  Si2C4N8
_cell_volume  298.9973144980375
_cell_formula_units_Z  2
loop_
  _symmetry_equiv_pos_site_id
 _symmetry_equiv_pos_as_xyz
 1  'x, y, z'
loop_
 _atom_site_type_symbol
 _atom_site_label
 _atom_site_symmetry_multiplicity
 _atom_site_fract_x
 _atom_site_fract_y
 _atom_site_fract_z
 _atom_site_fract_occupancy
 C  C1  1  0.25000  0.75000  0.75000  1
 C  C2  1  0.75000  0.75000  0.25000  1
 C  C3  1  0.25000  0.25000  0.25000  1
 C  C4  1  0.75000  0.25000  0.75000  1
 N  N1  1  0.64573  0.35427  0.64573  1
 N  N2  1  0.14573  0.14573  0.14573  1
 N  N3  1  0.35427  0.35427  0.35427  1
 N  N4  1  0.85427  0.14573  0.85427  1
 N  N5  1  0.85427  0.85427  0.14573  1
 N  N6  1  0.14573  0.85427  0.85427  1
 N  N7  1  0.64573  0.64573  0.35427  1
 N  N8  1  0.35427  0.64573  0.64573  1
 Si  Si1  1  0.00000  0.00000  0.00000  1
 Si  Si2  1  0.50000  0.50000  0.50000  1
