CIF file written using JARVIS-Tools package.
data_Np2InNi2
_symmetry_space_group_name_H-M  'P4/mbm'
_cell_length_a       7.2545
_cell_length_b       7.2545
_cell_length_c       3.71426
_cell_angle_alpha    90
_cell_angle_beta     90
_cell_angle_gamma    90

_symmetry_Int_Tables_number  127
_chemical_formula_structural  Np2InNi2
_chemical_formula_sum  Np4In2Ni4
_cell_volume  195.47303063203503
_cell_formula_units_Z  2
loop_
  _symmetry_equiv_pos_site_id
 _symmetry_equiv_pos_as_xyz
 1  'x, y, z'
loop_
 _atom_site_type_symbol
 _atom_site_label
 _atom_site_symmetry_multiplicity
 _atom_site_fract_x
 _atom_site_fract_y
 _atom_site_fract_z
 _atom_site_fract_occupancy
 In  In1  1  0.00000  0.00000  0.00000  1
 In  In2  1  0.50000  0.50000  0.00000  1
 Ni  Ni1  1  0.37059  0.12941  0.00000  1
 Ni  Ni2  1  0.87059  0.37059  0.00000  1
 Ni  Ni3  1  0.12941  0.62941  0.00000  1
 Ni  Ni4  1  0.62941  0.87059  0.00000  1
 Np  Np1  1  0.33300  0.83300  0.50000  1
 Np  Np2  1  0.83300  0.66700  0.50000  1
 Np  Np3  1  0.16700  0.33300  0.50000  1
 Np  Np4  1  0.66700  0.16700  0.50000  1
