CIF file written using JARVIS-Tools package.
data_ScIn2
_symmetry_space_group_name_H-M  'Cmmm'
_cell_length_a       7.20328
_cell_length_b       7.20328
_cell_length_c       4.47776
_cell_angle_alpha    90
_cell_angle_beta     90
_cell_angle_gamma    143.837

_symmetry_Int_Tables_number  65
_chemical_formula_structural  ScIn2
_chemical_formula_sum  Sc2In4
_cell_volume  137.10070369067233
_cell_formula_units_Z  2
loop_
  _symmetry_equiv_pos_site_id
 _symmetry_equiv_pos_as_xyz
 1  'x, y, z'
loop_
 _atom_site_type_symbol
 _atom_site_label
 _atom_site_symmetry_multiplicity
 _atom_site_fract_x
 _atom_site_fract_y
 _atom_site_fract_z
 _atom_site_fract_occupancy
 In  In1  1  0.67661  0.32339  0.00000  1
 In  In2  1  0.32339  0.67661  0.00000  1
 In  In3  1  0.50000  0.50000  0.50000  1
 In  In4  1  0.00000  0.00000  0.00000  1
 Sc  Sc1  1  0.84363  0.15637  0.50000  1
 Sc  Sc2  1  0.15637  0.84363  0.50000  1
