CIF file written using JARVIS-Tools package.
data_Te2W3Se2S2
_symmetry_space_group_name_H-M  'P3m1'
_cell_length_a       3.35275
_cell_length_b       3.35275
_cell_length_c       31.0178
_cell_angle_alpha    90
_cell_angle_beta     90
_cell_angle_gamma    120

_symmetry_Int_Tables_number  156
_chemical_formula_structural  Te2W3Se2S2
_chemical_formula_sum  Te2W3Se2S2
_cell_volume  301.95585507787916
_cell_formula_units_Z  1
loop_
  _symmetry_equiv_pos_site_id
 _symmetry_equiv_pos_as_xyz
 1  'x, y, z'
loop_
 _atom_site_type_symbol
 _atom_site_label
 _atom_site_symmetry_multiplicity
 _atom_site_fract_x
 _atom_site_fract_y
 _atom_site_fract_z
 _atom_site_fract_occupancy
 S  S1  1  0.66664  0.33329  0.06659  1
 S  S2  1  0.66665  0.33329  0.16477  1
 Se  Se1  1  0.33335  0.66670  0.40087  1
 Se  Se2  1  0.33335  0.66670  0.29299  1
 Te  Te1  1  0.66665  0.33329  0.51690  1
 Te  Te2  1  0.66665  0.33329  0.63974  1
 W  W1  1  0.33331  0.66662  0.11566  1
 W  W2  1  0.33331  0.66662  0.57838  1
 W  W3  1  0.66669  0.33338  0.34694  1
