CIF file written using JARVIS-Tools package.
data_Er6FeSb2
_symmetry_space_group_name_H-M  'P-62m'
_cell_length_a       8.09122
_cell_length_b       8.09123
_cell_length_c       4.07098
_cell_angle_alpha    90
_cell_angle_beta     90
_cell_angle_gamma    120

_symmetry_Int_Tables_number  189
_chemical_formula_structural  Er6FeSb2
_chemical_formula_sum  Er6FeSb2
_cell_volume  230.81192449605896
_cell_formula_units_Z  1
loop_
  _symmetry_equiv_pos_site_id
 _symmetry_equiv_pos_as_xyz
 1  'x, y, z'
loop_
 _atom_site_type_symbol
 _atom_site_label
 _atom_site_symmetry_multiplicity
 _atom_site_fract_x
 _atom_site_fract_y
 _atom_site_fract_z
 _atom_site_fract_occupancy
 Er  Er1  1  0.23297  -0.00000  0.50000  1
 Er  Er2  1  -0.00000  0.23297  0.50000  1
 Er  Er3  1  0.76703  0.76703  0.50000  1
 Er  Er4  1  0.60608  0.00000  0.00000  1
 Er  Er5  1  0.00000  0.60608  0.00000  1
 Er  Er6  1  0.39392  0.39392  0.00000  1
 Fe  Fe1  1  0.00000  0.00000  0.00000  1
 Sb  Sb1  1  0.33333  0.66667  0.50000  1
 Sb  Sb2  1  0.66667  0.33333  0.50000  1
