CIF file written using JARVIS-Tools package.
data_IF7
_symmetry_space_group_name_H-M  'Aea2'
_cell_length_a       5.26263
_cell_length_b       5.26262
_cell_length_c       8.84737
_cell_angle_alpha    90
_cell_angle_beta     90
_cell_angle_gamma    110.443

_symmetry_Int_Tables_number  41
_chemical_formula_structural  IF7
_chemical_formula_sum  I2F4
_cell_volume  229.5981665709669
_cell_formula_units_Z  2
loop_
  _symmetry_equiv_pos_site_id
 _symmetry_equiv_pos_as_xyz
 1  'x, y, z'
loop_
 _atom_site_type_symbol
 _atom_site_label
 _atom_site_symmetry_multiplicity
 _atom_site_fract_x
 _atom_site_fract_y
 _atom_site_fract_z
 _atom_site_fract_occupancy
 F  F1  1  0.38321  0.63233  0.32962  1
 F  F2  1  0.63233  0.38321  0.67038  1
 F  F3  1  0.31346  0.31346  0.00000  1
 F  F4  1  0.81346  0.81346  0.50000  1
 F  F5  1  0.66037  0.82160  0.89927  1
 F  F6  1  0.82160  0.66037  0.10073  1
 F  F7  1  0.16037  0.32160  0.60073  1
 F  F8  1  0.32160  0.16037  0.39927  1
 F  F9  1  0.90613  0.27041  0.89589  1
 F  F10  1  0.27041  0.90613  0.10411  1
 F  F11  1  0.40613  0.77041  0.60411  1
 F  F12  1  0.77041  0.40613  0.39589  1
 F  F13  1  0.13233  0.88321  0.82962  1
 F  F14  1  0.88321  0.13233  0.17038  1
 I  I1  1  0.49701  0.49701  0.50000  1
 I  I2  1  0.99701  0.99701  0.00000  1
