CIF file written using JARVIS-Tools package.
data_NaNO
_symmetry_space_group_name_H-M  'P2_1/c'
_cell_length_a       5.11543
_cell_length_b       9.18704
_cell_length_c       6.0669
_cell_angle_alpha    90
_cell_angle_beta     99.0795
_cell_angle_gamma    90

_symmetry_Int_Tables_number  14
_chemical_formula_structural  NaNO
_chemical_formula_sum  Na8N8O8
_cell_volume  281.54547412645314
_cell_formula_units_Z  8
loop_
  _symmetry_equiv_pos_site_id
 _symmetry_equiv_pos_as_xyz
 1  'x, y, z'
loop_
 _atom_site_type_symbol
 _atom_site_label
 _atom_site_symmetry_multiplicity
 _atom_site_fract_x
 _atom_site_fract_y
 _atom_site_fract_z
 _atom_site_fract_occupancy
 N  N1  1  0.21398  0.82882  0.65275  1
 N  N2  1  0.21398  0.67118  0.15275  1
 N  N3  1  0.09548  0.92821  0.74689  1
 N  N4  1  0.90452  0.42821  0.75311  1
 N  N5  1  0.90452  0.07179  0.25311  1
 N  N6  1  0.78602  0.32882  0.84725  1
 N  N7  1  0.78602  0.17118  0.34725  1
 N  N8  1  0.09548  0.57179  0.24689  1
 Na  Na1  1  0.21284  0.24711  0.06842  1
 Na  Na2  1  0.68136  0.06438  0.77953  1
 Na  Na3  1  0.68136  0.43562  0.27953  1
 Na  Na4  1  0.31864  0.93562  0.22047  1
 Na  Na5  1  0.21284  0.25289  0.56842  1
 Na  Na6  1  0.78716  0.75289  0.93158  1
 Na  Na7  1  0.78716  0.74711  0.43158  1
 Na  Na8  1  0.31864  0.56438  0.72047  1
 O  O1  1  0.76880  0.54939  0.67681  1
 O  O2  1  0.47108  0.84803  0.63118  1
 O  O3  1  0.47108  0.65197  0.13118  1
 O  O4  1  0.52892  0.15197  0.36882  1
 O  O5  1  0.52892  0.34803  0.86882  1
 O  O6  1  0.23120  0.45061  0.32319  1
 O  O7  1  0.76880  0.95061  0.17681  1
 O  O8  1  0.23120  0.04939  0.82319  1
