CIF file written using JARVIS-Tools package.
data_KBH4
_symmetry_space_group_name_H-M  'Pnma'
_cell_length_a       3.39157
_cell_length_b       7.97107
_cell_length_c       8.6538
_cell_angle_alpha    90
_cell_angle_beta     90
_cell_angle_gamma    90

_symmetry_Int_Tables_number  62
_chemical_formula_structural  KBH4
_chemical_formula_sum  K4B4H6
_cell_volume  233.95023096829513
_cell_formula_units_Z  4
loop_
  _symmetry_equiv_pos_site_id
 _symmetry_equiv_pos_as_xyz
 1  'x, y, z'
loop_
 _atom_site_type_symbol
 _atom_site_label
 _atom_site_symmetry_multiplicity
 _atom_site_fract_x
 _atom_site_fract_y
 _atom_site_fract_z
 _atom_site_fract_occupancy
 B  B1  1  0.75000  0.97498  0.95698  1
 B  B2  1  0.25000  0.02502  0.04302  1
 B  B3  1  0.25000  0.52502  0.45698  1
 B  B4  1  0.75000  0.47498  0.54302  1
 H  H1  1  0.25000  0.97154  0.18479  1
 H  H2  1  0.36126  0.60179  -0.04668  1
 H  H3  1  0.86126  0.39821  0.04668  1
 H  H4  1  0.63874  0.89821  0.45332  1
 H  H5  1  0.25000  0.68312  0.43031  1
 H  H6  1  0.63874  0.39821  0.04668  1
 H  H7  1  0.13874  0.60179  -0.04668  1
 H  H8  1  0.13874  0.10179  0.54668  1
 H  H9  1  0.86126  0.89821  0.45332  1
 H  H10  1  0.75000  0.31688  0.56969  1
 H  H11  1  0.25000  0.47154  0.31521  1
 H  H12  1  0.36126  0.10179  0.54668  1
 H  H13  1  0.75000  0.02846  0.81521  1
 H  H14  1  0.75000  0.81688  0.93031  1
 H  H15  1  0.25000  0.18312  0.06969  1
 H  H16  1  0.75000  0.52846  0.68479  1
 K  K1  1  0.75000  0.71338  0.21195  1
 K  K2  1  0.25000  0.28662  0.78805  1
 K  K3  1  0.25000  0.78662  0.71195  1
 K  K4  1  0.75000  0.21338  0.28805  1
