CIF file written using JARVIS-Tools package.
data_CeYMg4
_symmetry_space_group_name_H-M  'F-43m'
_cell_length_a       6.02626
_cell_length_b       6.02626
_cell_length_c       6.02626
_cell_angle_alpha    60
_cell_angle_beta     60
_cell_angle_gamma    60

_symmetry_Int_Tables_number  216
_chemical_formula_structural  CeYMg4
_chemical_formula_sum  CeYMg4
_cell_volume  154.7490236249275
_cell_formula_units_Z  1
loop_
  _symmetry_equiv_pos_site_id
 _symmetry_equiv_pos_as_xyz
 1  'x, y, z'
loop_
 _atom_site_type_symbol
 _atom_site_label
 _atom_site_symmetry_multiplicity
 _atom_site_fract_x
 _atom_site_fract_y
 _atom_site_fract_z
 _atom_site_fract_occupancy
 Ce  Ce1  1  0.25000  0.25000  0.25000  1
 Mg  Mg1  1  0.12430  0.62523  0.62523  1
 Mg  Mg2  1  0.62523  0.12430  0.62523  1
 Mg  Mg3  1  0.62523  0.62523  0.12430  1
 Mg  Mg4  1  0.62523  0.62523  0.62523  1
 Y  Y1  1  0.00000  0.00000  0.00000  1
