CIF file written using JARVIS-Tools package.
data_GeBr2F10
_symmetry_space_group_name_H-M  'P2_1/c'
_cell_length_a       5.06502
_cell_length_b       6.33648
_cell_length_c       12.8355
_cell_angle_alpha    90
_cell_angle_beta     90
_cell_angle_gamma    109.662

_symmetry_Int_Tables_number  14
_chemical_formula_structural  GeBr2F10
_chemical_formula_sum  Ge2Br4F20
_cell_volume  387.9282987572057
_cell_formula_units_Z  2
loop_
  _symmetry_equiv_pos_site_id
 _symmetry_equiv_pos_as_xyz
 1  'x, y, z'
loop_
 _atom_site_type_symbol
 _atom_site_label
 _atom_site_symmetry_multiplicity
 _atom_site_fract_x
 _atom_site_fract_y
 _atom_site_fract_z
 _atom_site_fract_occupancy
 Br  Br1  1  0.34915  0.65714  0.13807  1
 Br  Br2  1  0.15085  0.84286  0.63807  1
 Br  Br3  1  0.65085  0.34286  0.86193  1
 Br  Br4  1  0.84915  0.15714  0.36193  1
 F  F1  1  0.37731  0.64695  0.40482  1
 F  F2  1  0.73088  0.72633  0.04051  1
 F  F3  1  0.76912  0.77367  0.54051  1
 F  F4  1  0.26912  0.27367  0.95949  1
 F  F5  1  0.23088  0.22633  0.45949  1
 F  F6  1  0.25598  0.95740  0.09660  1
 F  F7  1  0.24402  0.54260  0.59660  1
 F  F8  1  0.57298  0.58258  0.81811  1
 F  F9  1  0.75598  0.45740  0.40340  1
 F  F10  1  0.74402  0.04260  0.90340  1
 F  F11  1  0.92702  0.91742  0.31811  1
 F  F12  1  0.12269  0.85305  0.90482  1
 F  F13  1  0.87731  0.14695  0.09518  1
 F  F14  1  0.03641  0.58330  0.21382  1
 F  F15  1  0.46359  0.91670  0.71382  1
 F  F16  1  0.96359  0.41670  0.78618  1
 F  F17  1  0.53641  0.08330  0.28618  1
 F  F18  1  0.42702  0.41742  0.18189  1
 F  F19  1  0.07298  0.08258  0.68189  1
 F  F20  1  0.62269  0.35305  0.59518  1
 Ge  Ge1  1  0.50000  0.50000  0.50000  1
 Ge  Ge2  1  0.00000  0.00000  0.00000  1
