CIF file written using JARVIS-Tools package.
data_CdGa2Se4
_symmetry_space_group_name_H-M  'I-4'
_cell_length_a       5.80043
_cell_length_b       5.80043
_cell_length_c       6.82958
_cell_angle_alpha    115.129
_cell_angle_beta     115.129
_cell_angle_gamma    90

_symmetry_Int_Tables_number  82
_chemical_formula_structural  CdGa2Se4
_chemical_formula_sum  CdGa2Se4
_cell_volume  183.7296806732704
_cell_formula_units_Z  1
loop_
  _symmetry_equiv_pos_site_id
 _symmetry_equiv_pos_as_xyz
 1  'x, y, z'
loop_
 _atom_site_type_symbol
 _atom_site_label
 _atom_site_symmetry_multiplicity
 _atom_site_fract_x
 _atom_site_fract_y
 _atom_site_fract_z
 _atom_site_fract_occupancy
 Cd  Cd1  1  0.00000  0.00000  0.00000  1
 Ga  Ga1  1  0.25000  0.75000  0.50000  1
 Ga  Ga2  1  0.50000  0.50000  0.00000  1
 Se  Se1  1  0.86266  0.88267  0.27929  1
 Se  Se2  1  0.41663  0.39662  0.27929  1
 Se  Se3  1  0.11733  0.58337  0.72071  1
 Se  Se4  1  0.60338  0.13734  0.72071  1
