CIF file written using JARVIS-Tools package.
data_Al2B2Ru3
_symmetry_space_group_name_H-M  'Cmmm'
_cell_length_a       2.94284
_cell_length_b       3.03421
_cell_length_c       9.05827
_cell_angle_alpha    99.6414
_cell_angle_beta     90
_cell_angle_gamma    90

_symmetry_Int_Tables_number  65
_chemical_formula_structural  Al2B2Ru3
_chemical_formula_sum  Al2B2Ru3
_cell_volume  79.74043085510046
_cell_formula_units_Z  1
loop_
  _symmetry_equiv_pos_site_id
 _symmetry_equiv_pos_as_xyz
 1  'x, y, z'
loop_
 _atom_site_type_symbol
 _atom_site_label
 _atom_site_symmetry_multiplicity
 _atom_site_fract_x
 _atom_site_fract_y
 _atom_site_fract_z
 _atom_site_fract_occupancy
 Al  Al1  1  0.50000  0.57921  0.15843  1
 Al  Al2  1  0.50000  0.42079  0.84157  1
 B  B1  1  0.50000  0.72291  0.44582  1
 B  B2  1  0.50000  0.27709  0.55418  1
 Ru  Ru1  1  0.00000  0.82560  0.65119  1
 Ru  Ru2  1  0.00000  0.00000  0.00000  1
 Ru  Ru3  1  0.00000  0.17440  0.34881  1
