CIF file written using JARVIS-Tools package.
data_ScBiO3
_symmetry_space_group_name_H-M  'R3c'
_cell_length_a       5.76061
_cell_length_b       5.84704
_cell_length_c       5.76055
_cell_angle_alpha    119.513
_cell_angle_beta     60
_cell_angle_gamma    119.514

_symmetry_Int_Tables_number  161
_chemical_formula_structural  ScBiO3
_chemical_formula_sum  Sc2Bi2O6
_cell_volume  138.20017501920688
_cell_formula_units_Z  2
loop_
  _symmetry_equiv_pos_site_id
 _symmetry_equiv_pos_as_xyz
 1  'x, y, z'
loop_
 _atom_site_type_symbol
 _atom_site_label
 _atom_site_symmetry_multiplicity
 _atom_site_fract_x
 _atom_site_fract_y
 _atom_site_fract_z
 _atom_site_fract_occupancy
 Bi  Bi1  1  0.00118  0.00353  0.00117  1
 Bi  Bi2  1  0.50117  0.50353  0.50118  1
 O  O1  1  0.05160  0.35659  0.42944  1
 O  O2  1  0.55160  0.85658  0.37555  1
 O  O3  1  0.37556  0.85658  0.92942  1
 O  O4  1  0.42943  0.35658  0.87556  1
 O  O5  1  0.87556  0.35658  0.05160  1
 O  O6  1  0.92944  0.85659  0.55160  1
 Sc  Sc1  1  0.22064  0.66195  0.22066  1
 Sc  Sc2  1  0.72065  0.16195  0.72065  1
