CIF file written using JARVIS-Tools package.
data_BaC4O4
_symmetry_space_group_name_H-M  'I4/mcm'
_cell_length_a       6.35687
_cell_length_b       6.35687
_cell_length_c       7.72424
_cell_angle_alpha    114.298
_cell_angle_beta     114.298
_cell_angle_gamma    90

_symmetry_Int_Tables_number  140
_chemical_formula_structural  BaC4O4
_chemical_formula_sum  Ba2C8O8
_cell_volume  253.83998729612446
_cell_formula_units_Z  2
loop_
  _symmetry_equiv_pos_site_id
 _symmetry_equiv_pos_as_xyz
 1  'x, y, z'
loop_
 _atom_site_type_symbol
 _atom_site_label
 _atom_site_symmetry_multiplicity
 _atom_site_fract_x
 _atom_site_fract_y
 _atom_site_fract_z
 _atom_site_fract_occupancy
 Ba  Ba1  1  0.25000  0.25000  0.50000  1
 Ba  Ba2  1  0.75000  0.75000  0.50000  1
 C  C1  1  0.64013  0.14013  0.11700  1
 C  C2  1  0.52313  0.02313  0.88300  1
 C  C3  1  0.47687  0.97687  0.11700  1
 C  C4  1  0.02313  0.35987  0.88300  1
 C  C5  1  0.14013  0.47687  0.11700  1
 C  C6  1  0.85987  0.52313  0.88300  1
 C  C7  1  0.35987  0.85987  0.88300  1
 C  C8  1  0.97687  0.64013  0.11700  1
 O  O1  1  0.18950  0.68950  0.73907  1
 O  O2  1  0.95043  0.81050  0.26093  1
 O  O3  1  0.54957  0.04957  0.73907  1
 O  O4  1  0.45043  0.95043  0.26093  1
 O  O5  1  0.81050  0.31050  0.26093  1
 O  O6  1  0.31050  0.45043  0.26093  1
 O  O7  1  0.68950  0.54957  0.73907  1
 O  O8  1  0.04957  0.18950  0.73907  1
