CIF file written using JARVIS-Tools package.
data_CuS4BrN4
_symmetry_space_group_name_H-M  'P2_1/c'
_cell_length_a       6.92118
_cell_length_b       9.14569
_cell_length_c       11.7512
_cell_angle_alpha    90
_cell_angle_beta     90
_cell_angle_gamma    105.96

_symmetry_Int_Tables_number  14
_chemical_formula_structural  CuS4BrN4
_chemical_formula_sum  Cu4S6Br4N6
_cell_volume  715.1621112113278
_cell_formula_units_Z  4
loop_
  _symmetry_equiv_pos_site_id
 _symmetry_equiv_pos_as_xyz
 1  'x, y, z'
loop_
 _atom_site_type_symbol
 _atom_site_label
 _atom_site_symmetry_multiplicity
 _atom_site_fract_x
 _atom_site_fract_y
 _atom_site_fract_z
 _atom_site_fract_occupancy
 Br  Br1  1  0.47569  0.38954  0.14703  1
 Br  Br2  1  0.02431  0.61046  0.64703  1
 Br  Br3  1  0.52431  0.61046  0.85297  1
 Br  Br4  1  0.97569  0.38954  0.35297  1
 Cu  Cu1  1  0.13674  0.42179  0.16812  1
 Cu  Cu2  1  0.86326  0.57821  0.83188  1
 Cu  Cu3  1  0.36326  0.57821  0.66812  1
 Cu  Cu4  1  0.63674  0.42179  0.33188  1
 N  N1  1  0.76946  0.99184  0.01627  1
 N  N2  1  0.36742  0.92243  0.17155  1
 N  N3  1  0.13258  0.07757  0.67155  1
 N  N4  1  0.23054  0.00816  0.98373  1
 N  N5  1  0.02549  0.72791  0.94518  1
 N  N6  1  0.16627  0.64287  0.13062  1
 N  N7  1  0.97451  0.27209  0.05482  1
 N  N8  1  0.66627  0.64287  0.36938  1
 N  N9  1  0.86742  0.92243  0.32845  1
 N  N10  1  0.33373  0.35713  0.63062  1
 N  N11  1  0.73054  0.00816  0.51627  1
 N  N12  1  0.52549  0.72791  0.55482  1
 N  N13  1  0.47451  0.27209  0.44518  1
 N  N14  1  0.26946  0.99184  0.48373  1
 N  N15  1  0.63258  0.07757  0.82845  1
 N  N16  1  0.83373  0.35713  0.86938  1
 S  S1  1  0.76065  0.14431  0.08355  1
 S  S2  1  0.97479  0.69805  0.08221  1
 S  S3  1  0.88909  0.76712  0.38652  1
 S  S4  1  0.30431  0.00457  0.62083  1
 S  S5  1  0.26065  0.14431  0.41645  1
 S  S6  1  0.19569  0.99543  0.12083  1
 S  S7  1  0.02521  0.30195  0.91779  1
 S  S8  1  0.47479  0.69805  0.41779  1
 S  S9  1  0.61091  0.23288  0.88652  1
 S  S10  1  0.69569  0.99543  0.37917  1
 S  S11  1  0.11091  0.23288  0.61348  1
 S  S12  1  0.52521  0.30195  0.58221  1
 S  S13  1  0.73935  0.85569  0.58355  1
 S  S14  1  0.38909  0.76712  0.11348  1
 S  S15  1  0.80431  0.00457  0.87917  1
 S  S16  1  0.23935  0.85569  0.91645  1
