CIF file written using JARVIS-Tools package.
data_NaAlTe2
_symmetry_space_group_name_H-M  'I4/mcm'
_cell_length_a       6.88692
_cell_length_b       6.76736
_cell_length_c       6.76736
_cell_angle_alpha    74.9945
_cell_angle_beta     59.4138
_cell_angle_gamma    59.4138

_symmetry_Int_Tables_number  140
_chemical_formula_structural  NaAlTe2
_chemical_formula_sum  Na2Al2Te4
_cell_volume  233.74023660686186
_cell_formula_units_Z  2
loop_
  _symmetry_equiv_pos_site_id
 _symmetry_equiv_pos_as_xyz
 1  'x, y, z'
loop_
 _atom_site_type_symbol
 _atom_site_label
 _atom_site_symmetry_multiplicity
 _atom_site_fract_x
 _atom_site_fract_y
 _atom_site_fract_z
 _atom_site_fract_occupancy
 Al  Al1  1  0.25000  0.50000  0.50000  1
 Al  Al2  1  0.75000  0.50000  0.50000  1
 Na  Na1  1  0.25000  0.00000  -0.00000  1
 Na  Na2  1  0.75000  0.00000  0.00000  1
 Te  Te1  1  0.17466  0.50000  0.15068  1
 Te  Te2  1  0.32534  0.84932  0.50000  1
 Te  Te3  1  0.67466  0.15068  0.50000  1
 Te  Te4  1  0.82534  0.50000  0.84932  1
