CIF file written using JARVIS-Tools package.
data_Nd2NiO4
_symmetry_space_group_name_H-M  'I4/mmm'
_cell_length_a       3.74178
_cell_length_b       3.74178
_cell_length_c       6.92656
_cell_angle_alpha    105.671
_cell_angle_beta     105.671
_cell_angle_gamma    90

_symmetry_Int_Tables_number  139
_chemical_formula_structural  Nd2NiO4
_chemical_formula_sum  Nd2NiO4
_cell_volume  89.62423595902577
_cell_formula_units_Z  1
loop_
  _symmetry_equiv_pos_site_id
 _symmetry_equiv_pos_as_xyz
 1  'x, y, z'
loop_
 _atom_site_type_symbol
 _atom_site_label
 _atom_site_symmetry_multiplicity
 _atom_site_fract_x
 _atom_site_fract_y
 _atom_site_fract_z
 _atom_site_fract_occupancy
 Nd  Nd1  1  0.63664  0.63664  0.27329  1
 Nd  Nd2  1  0.36336  0.36336  0.72671  1
 Ni  Ni1  1  0.00000  0.00000  0.00000  1
 O  O1  1  0.81869  0.81869  0.63738  1
 O  O2  1  0.18131  0.18131  0.36262  1
 O  O3  1  1.00000  0.50000  0.00000  1
 O  O4  1  0.50000  -0.00000  -0.00000  1
