CIF file written using JARVIS-Tools package.
data_TaSe2
_symmetry_space_group_name_H-M  'R3m'
_cell_length_a       12.888
_cell_length_b       12.888
_cell_length_c       12.888
_cell_angle_alpha    15.5625
_cell_angle_beta     15.5625
_cell_angle_gamma    15.5625

_symmetry_Int_Tables_number  160
_chemical_formula_structural  TaSe2
_chemical_formula_sum  Ta2Se4
_cell_volume  134.26323933302606
_cell_formula_units_Z  2
loop_
  _symmetry_equiv_pos_site_id
 _symmetry_equiv_pos_as_xyz
 1  'x, y, z'
loop_
 _atom_site_type_symbol
 _atom_site_label
 _atom_site_symmetry_multiplicity
 _atom_site_fract_x
 _atom_site_fract_y
 _atom_site_fract_z
 _atom_site_fract_occupancy
 Se  Se1  1  0.62705  0.62705  0.62705  1
 Se  Se2  1  0.46007  0.46007  0.46007  1
 Se  Se3  1  0.20687  0.20687  0.20687  1
 Se  Se4  1  0.37268  0.37268  0.37268  1
 Ta  Ta1  1  0.91699  0.91699  0.91699  1
 Ta  Ta2  1  0.08294  0.08294  0.08294  1
