CIF file written using JARVIS-Tools package.
data_ZnCo2
_symmetry_space_group_name_H-M  'P-3m1'
_cell_length_a       2.55725
_cell_length_b       2.55724
_cell_length_c       6.17994
_cell_angle_alpha    90
_cell_angle_beta     90
_cell_angle_gamma    120

_symmetry_Int_Tables_number  164
_chemical_formula_structural  ZnCo2
_chemical_formula_sum  ZnCo2
_cell_volume  34.99935496577444
_cell_formula_units_Z  1
loop_
  _symmetry_equiv_pos_site_id
 _symmetry_equiv_pos_as_xyz
 1  'x, y, z'
loop_
 _atom_site_type_symbol
 _atom_site_label
 _atom_site_symmetry_multiplicity
 _atom_site_fract_x
 _atom_site_fract_y
 _atom_site_fract_z
 _atom_site_fract_occupancy
 Co  Co1  1  0.33333  0.66667  0.65351  1
 Co  Co2  1  0.66667  0.33333  0.34649  1
 Zn  Zn1  1  0.00000  0.00000  0.00000  1
