CIF file written using JARVIS-Tools package.
data_CeIrOs
_symmetry_space_group_name_H-M  'Imma'
_cell_length_a       5.46808
_cell_length_b       5.46808
_cell_length_c       5.46808
_cell_angle_alpha    123.994
_cell_angle_beta     119.653
_cell_angle_gamma    86.9124

_symmetry_Int_Tables_number  74
_chemical_formula_structural  CeIrOs
_chemical_formula_sum  Ce2Ir2Os2
_cell_volume  112.02834347315657
_cell_formula_units_Z  2
loop_
  _symmetry_equiv_pos_site_id
 _symmetry_equiv_pos_as_xyz
 1  'x, y, z'
loop_
 _atom_site_type_symbol
 _atom_site_label
 _atom_site_symmetry_multiplicity
 _atom_site_fract_x
 _atom_site_fract_y
 _atom_site_fract_z
 _atom_site_fract_occupancy
 Ce  Ce1  1  0.12386  0.87386  0.25000  1
 Ce  Ce2  1  0.87614  0.12614  0.75000  1
 Ir  Ir1  1  0.00000  0.50000  0.50000  1
 Ir  Ir2  1  0.50000  0.50000  0.00000  1
 Os  Os1  1  0.50000  0.00000  -0.00000  1
 Os  Os2  1  0.50000  0.50000  0.50000  1
