CIF file written using JARVIS-Tools package.
data_Li2MnCr3O8
_symmetry_space_group_name_H-M  'R3m'
_cell_length_a       5.75318
_cell_length_b       5.75318
_cell_length_c       5.75319
_cell_angle_alpha    60.5194
_cell_angle_beta     60.5194
_cell_angle_gamma    60.5194

_symmetry_Int_Tables_number  160
_chemical_formula_structural  Li2MnCr3O8
_chemical_formula_sum  Li2MnCr3O8
_cell_volume  136.23159554824346
_cell_formula_units_Z  1
loop_
  _symmetry_equiv_pos_site_id
 _symmetry_equiv_pos_as_xyz
 1  'x, y, z'
loop_
 _atom_site_type_symbol
 _atom_site_label
 _atom_site_symmetry_multiplicity
 _atom_site_fract_x
 _atom_site_fract_y
 _atom_site_fract_z
 _atom_site_fract_occupancy
 Cr  Cr1  1  0.01360  0.49786  0.49786  1
 Cr  Cr2  1  0.49786  0.01360  0.49786  1
 Cr  Cr3  1  0.49786  0.49786  0.01360  1
 Li  Li1  1  0.12180  0.12180  0.12180  1
 Li  Li2  1  0.49703  0.49703  0.49703  1
 Mn  Mn1  1  0.87981  0.87981  0.87981  1
 O  O1  1  0.25996  0.25996  0.25996  1
 O  O2  1  0.25080  0.25080  0.71635  1
 O  O3  1  0.25080  0.71635  0.25080  1
 O  O4  1  0.71635  0.25080  0.25080  1
 O  O5  1  0.26249  0.75252  0.75252  1
 O  O6  1  0.75252  0.26249  0.75252  1
 O  O7  1  0.75252  0.75252  0.26249  1
 O  O8  1  0.74660  0.74660  0.74660  1
