CIF file written using JARVIS-Tools package.
data_HoAgPb
_symmetry_space_group_name_H-M  'P6_3mc'
_cell_length_a       4.77968
_cell_length_b       4.77968
_cell_length_c       7.46005
_cell_angle_alpha    90
_cell_angle_beta     90
_cell_angle_gamma    120

_symmetry_Int_Tables_number  186
_chemical_formula_structural  HoAgPb
_chemical_formula_sum  Ho2Ag2Pb2
_cell_volume  147.59483439377226
_cell_formula_units_Z  2
loop_
  _symmetry_equiv_pos_site_id
 _symmetry_equiv_pos_as_xyz
 1  'x, y, z'
loop_
 _atom_site_type_symbol
 _atom_site_label
 _atom_site_symmetry_multiplicity
 _atom_site_fract_x
 _atom_site_fract_y
 _atom_site_fract_z
 _atom_site_fract_occupancy
 Ag  Ag1  1  0.66667  0.33333  0.33264  1
 Ag  Ag2  1  0.33333  0.66667  0.83264  1
 Ho  Ho1  1  0.00000  0.00000  0.01324  1
 Ho  Ho2  1  0.00000  0.00000  0.51324  1
 Pb  Pb1  1  0.33333  0.66667  0.23403  1
 Pb  Pb2  1  0.66667  0.33333  0.73403  1
