CIF file written using JARVIS-Tools package.
data_NaInO2
_symmetry_space_group_name_H-M  'R-3m'
_cell_length_a       5.78342
_cell_length_b       5.78342
_cell_length_c       5.78341
_cell_angle_alpha    32.8736
_cell_angle_beta     32.8735
_cell_angle_gamma    32.8736

_symmetry_Int_Tables_number  166
_chemical_formula_structural  NaInO2
_chemical_formula_sum  NaInO2
_cell_volume  50.70735656709133
_cell_formula_units_Z  1
loop_
  _symmetry_equiv_pos_site_id
 _symmetry_equiv_pos_as_xyz
 1  'x, y, z'
loop_
 _atom_site_type_symbol
 _atom_site_label
 _atom_site_symmetry_multiplicity
 _atom_site_fract_x
 _atom_site_fract_y
 _atom_site_fract_z
 _atom_site_fract_occupancy
 In  In1  1  0.00000  0.00000  0.00000  1
 Na  Na1  1  0.50000  0.50000  0.50000  1
 O  O1  1  0.73880  0.73880  0.73880  1
 O  O2  1  0.26120  0.26120  0.26120  1
