CIF file written using JARVIS-Tools package.
data_CaCu3Ge4O12
_symmetry_space_group_name_H-M  'Im-3'
_cell_length_a       6.33573
_cell_length_b       6.33572
_cell_length_c       6.33572
_cell_angle_alpha    109.471
_cell_angle_beta     109.471
_cell_angle_gamma    109.471

_symmetry_Int_Tables_number  204
_chemical_formula_structural  CaCu3Ge4O12
_chemical_formula_sum  CaCu3Ge4O2
_cell_volume  195.7790700561998
_cell_formula_units_Z  1
loop_
  _symmetry_equiv_pos_site_id
 _symmetry_equiv_pos_as_xyz
 1  'x, y, z'
loop_
 _atom_site_type_symbol
 _atom_site_label
 _atom_site_symmetry_multiplicity
 _atom_site_fract_x
 _atom_site_fract_y
 _atom_site_fract_z
 _atom_site_fract_occupancy
 Ca  Ca1  1  0.00000  0.00000  0.00000  1
 Cu  Cu1  1  0.50000  0.00000  0.50000  1
 Cu  Cu2  1  -0.00000  0.50000  0.50000  1
 Cu  Cu3  1  0.50000  0.50000  0.00000  1
 Ge  Ge1  1  0.50000  0.00000  -0.00000  1
 Ge  Ge2  1  -0.00000  0.50000  0.00000  1
 Ge  Ge3  1  0.50000  0.50000  0.50000  1
 Ge  Ge4  1  0.00000  0.00000  0.50000  1
 O  O1  1  0.18263  0.69935  0.88199  1
 O  O2  1  0.81737  0.69935  0.51672  1
 O  O3  1  0.30065  0.48328  0.18263  1
 O  O4  1  0.48328  0.18263  0.30065  1
 O  O5  1  0.11801  0.81737  0.30065  1
 O  O6  1  0.88199  0.18263  0.69935  1
 O  O7  1  0.51672  0.81737  0.69935  1
 O  O8  1  0.81737  0.30065  0.11801  1
 O  O9  1  0.18263  0.30065  0.48328  1
 O  O10  1  0.30065  0.11801  0.81737  1
 O  O11  1  0.69935  0.88199  0.18263  1
 O  O12  1  0.69935  0.51672  0.81737  1
