CIF file written using JARVIS-Tools package.
data_Tb4CdRh
_symmetry_space_group_name_H-M  'F-43m'
_cell_length_a       9.58394
_cell_length_b       9.58394
_cell_length_c       9.58393
_cell_angle_alpha    60
_cell_angle_beta     60
_cell_angle_gamma    60

_symmetry_Int_Tables_number  216
_chemical_formula_structural  Tb4CdRh
_chemical_formula_sum  Tb6Cd4Rh4
_cell_volume  622.4668505369336
_cell_formula_units_Z  4
loop_
  _symmetry_equiv_pos_site_id
 _symmetry_equiv_pos_as_xyz
 1  'x, y, z'
loop_
 _atom_site_type_symbol
 _atom_site_label
 _atom_site_symmetry_multiplicity
 _atom_site_fract_x
 _atom_site_fract_y
 _atom_site_fract_z
 _atom_site_fract_occupancy
 Cd  Cd1  1  0.58163  0.25511  0.58163  1
 Cd  Cd2  1  0.58163  0.58163  0.25511  1
 Cd  Cd3  1  0.58163  0.58163  0.58163  1
 Cd  Cd4  1  0.25511  0.58163  0.58163  1
 Rh  Rh1  1  0.57253  0.14249  0.14249  1
 Rh  Rh2  1  0.14249  0.14249  0.57253  1
 Rh  Rh3  1  0.14249  0.57253  0.14249  1
 Rh  Rh4  1  0.14249  0.14249  0.14249  1
 Tb  Tb1  1  0.35003  0.94990  0.35003  1
 Tb  Tb2  1  0.56399  0.93601  0.56399  1
 Tb  Tb3  1  0.93601  0.56399  0.93601  1
 Tb  Tb4  1  0.18938  0.18938  0.81061  1
 Tb  Tb5  1  0.94990  0.35003  0.35003  1
 Tb  Tb6  1  0.81061  0.81061  0.18938  1
 Tb  Tb7  1  0.35003  0.35003  0.94990  1
 Tb  Tb8  1  0.18938  0.81061  0.18938  1
 Tb  Tb9  1  0.35003  0.35003  0.35003  1
 Tb  Tb10  1  0.93601  0.93601  0.56399  1
 Tb  Tb11  1  0.81061  0.18938  0.18938  1
 Tb  Tb12  1  0.93601  0.56399  0.56399  1
 Tb  Tb13  1  0.56399  0.93601  0.93601  1
 Tb  Tb14  1  0.18938  0.81061  0.81061  1
 Tb  Tb15  1  0.81061  0.18938  0.81061  1
 Tb  Tb16  1  0.56399  0.56399  0.93601  1
