CIF file written using JARVIS-Tools package.
data_Th2SN2
_symmetry_space_group_name_H-M  'P-3m1'
_cell_length_a       4.02731
_cell_length_b       4.02731
_cell_length_c       6.94957
_cell_angle_alpha    90
_cell_angle_beta     90
_cell_angle_gamma    120

_symmetry_Int_Tables_number  164
_chemical_formula_structural  Th2SN2
_chemical_formula_sum  Th2SN2
_cell_volume  97.61546771450007
_cell_formula_units_Z  1
loop_
  _symmetry_equiv_pos_site_id
 _symmetry_equiv_pos_as_xyz
 1  'x, y, z'
loop_
 _atom_site_type_symbol
 _atom_site_label
 _atom_site_symmetry_multiplicity
 _atom_site_fract_x
 _atom_site_fract_y
 _atom_site_fract_z
 _atom_site_fract_occupancy
 N  N1  1  0.33333  0.66667  0.36788  1
 N  N2  1  0.66667  0.33333  0.63212  1
 S  S1  1  0.00000  0.00000  0.00000  1
 Th  Th1  1  0.66667  0.33333  0.28732  1
 Th  Th2  1  0.33333  0.66667  0.71268  1
