CIF file written using JARVIS-Tools package.
data_Nb3SnH
_symmetry_space_group_name_H-M  'Ama2'
_cell_length_a       5.40068
_cell_length_b       5.40068
_cell_length_c       5.37892
_cell_angle_alpha    90
_cell_angle_beta     90
_cell_angle_gamma    90.1943

_symmetry_Int_Tables_number  40
_chemical_formula_structural  Nb3SnH
_chemical_formula_sum  Nb6Sn2H2
_cell_volume  156.88789103931728
_cell_formula_units_Z  2
loop_
  _symmetry_equiv_pos_site_id
 _symmetry_equiv_pos_as_xyz
 1  'x, y, z'
loop_
 _atom_site_type_symbol
 _atom_site_label
 _atom_site_symmetry_multiplicity
 _atom_site_fract_x
 _atom_site_fract_y
 _atom_site_fract_z
 _atom_site_fract_occupancy
 H  H1  1  0.99774  0.25204  0.25000  1
 H  H2  1  0.25204  0.99774  0.75000  1
 Nb  Nb1  1  0.25311  0.50895  0.25000  1
 Nb  Nb2  1  0.99000  0.99000  0.00000  1
 Nb  Nb3  1  0.50895  0.25311  0.75000  1
 Nb  Nb4  1  0.74553  0.51200  0.25000  1
 Nb  Nb5  1  0.99000  0.99000  0.50000  1
 Nb  Nb6  1  0.51200  0.74553  0.75000  1
 Sn  Sn1  1  0.49666  0.00397  0.25000  1
 Sn  Sn2  1  0.00397  0.49666  0.75000  1
