CIF file written using JARVIS-Tools package.
data_H10C15S2
_symmetry_space_group_name_H-M  'P1'
_cell_length_a       3.89425
_cell_length_b       5.86383
_cell_length_c       12.6998
_cell_angle_alpha    93.6587
_cell_angle_beta     87.3586
_cell_angle_gamma    103.477

_symmetry_Int_Tables_number  1
_chemical_formula_structural  H10C15S2
_chemical_formula_sum  H0C5S2
_cell_volume  281.2972773082564
_cell_formula_units_Z  1
loop_
  _symmetry_equiv_pos_site_id
 _symmetry_equiv_pos_as_xyz
 1  'x, y, z'
loop_
 _atom_site_type_symbol
 _atom_site_label
 _atom_site_symmetry_multiplicity
 _atom_site_fract_x
 _atom_site_fract_y
 _atom_site_fract_z
 _atom_site_fract_occupancy
 C  C1  1  0.64801  0.52554  0.34937  1
 C  C2  1  0.75269  0.51214  0.65552  1
 C  C3  1  0.38237  0.19541  0.89662  1
 C  C4  1  0.54594  0.20779  0.79423  1
 C  C5  1  0.94502  0.72784  0.62398  1
 C  C6  1  0.35743  0.41062  0.94196  1
 C  C7  1  0.64441  0.43359  0.76003  1
 C  C8  1  0.74968  0.55467  0.45936  1
 C  C9  1  0.94385  0.75092  0.51387  1
 C  C10  1  0.16878  0.46509  0.04318  1
 C  C11  1  0.33022  0.28665  0.20476  1
 C  C12  1  0.69422  0.72164  0.28718  1
 C  C13  1  0.55315  0.70031  0.18738  1
 C  C14  1  0.47200  0.30629  0.30438  1
 C  C15  1  0.36134  0.48383  0.14542  1
 H  H1  1  0.58179  0.85707  0.14253  1
 H  H2  1  0.27343  0.03158  0.93463  1
 H  H3  1  0.08211  0.62894  0.03605  1
 H  H4  1  0.58868  0.05663  0.74562  1
 H  H5  1  0.07954  0.86558  0.67925  1
 H  H6  1  0.18253  0.11576  0.17377  1
 H  H7  1  0.07825  0.90980  0.47596  1
 H  H8  1  0.92453  0.32702  0.04949  1
 H  H9  1  0.43847  0.14933  0.34910  1
 H  H10  1  0.82915  0.89436  0.31924  1
 S  S1  1  0.54045  0.63049  0.85782  1
 S  S2  1  0.57145  0.33812  0.54686  1
