CIF file written using JARVIS-Tools package.
data_AlCl3
_symmetry_space_group_name_H-M  'C2/m'
_cell_length_a       5.95686
_cell_length_b       5.95686
_cell_length_c       6.11578
_cell_angle_alpha    99.1731
_cell_angle_beta     99.1732
_cell_angle_gamma    119.952

_symmetry_Int_Tables_number  12
_chemical_formula_structural  AlCl3
_chemical_formula_sum  Al2Cl6
_cell_volume  178.23074093296697
_cell_formula_units_Z  2
loop_
  _symmetry_equiv_pos_site_id
 _symmetry_equiv_pos_as_xyz
 1  'x, y, z'
loop_
 _atom_site_type_symbol
 _atom_site_label
 _atom_site_symmetry_multiplicity
 _atom_site_fract_x
 _atom_site_fract_y
 _atom_site_fract_z
 _atom_site_fract_occupancy
 Al  Al1  1  0.83347  0.16653  -0.00000  1
 Al  Al2  1  0.16653  0.83347  0.00000  1
 Cl  Cl1  1  0.78213  0.78213  0.76841  1
 Cl  Cl2  1  0.21787  0.21787  0.23159  1
 Cl  Cl3  1  0.57477  0.93044  0.22892  1
 Cl  Cl4  1  0.06956  0.42523  0.77108  1
 Cl  Cl5  1  0.42523  0.06956  0.77108  1
 Cl  Cl6  1  0.93044  0.57477  0.22892  1
