CIF file written using JARVIS-Tools package.
data_NdTa3O9
_symmetry_space_group_name_H-M  'P2_1/m'
_cell_length_a       5.42741
_cell_length_b       7.58794
_cell_length_c       8.26675
_cell_angle_alpha    90
_cell_angle_beta     92.391
_cell_angle_gamma    90

_symmetry_Int_Tables_number  11
_chemical_formula_structural  NdTa3O9
_chemical_formula_sum  Nd2Ta6O8
_cell_volume  340.1522699098768
_cell_formula_units_Z  2
loop_
  _symmetry_equiv_pos_site_id
 _symmetry_equiv_pos_as_xyz
 1  'x, y, z'
loop_
 _atom_site_type_symbol
 _atom_site_label
 _atom_site_symmetry_multiplicity
 _atom_site_fract_x
 _atom_site_fract_y
 _atom_site_fract_z
 _atom_site_fract_occupancy
 Nd  Nd1  1  0.03329  0.75000  0.43495  1
 Nd  Nd2  1  0.96671  0.25000  0.56505  1
 O  O1  1  0.43852  0.75000  0.31050  1
 O  O2  1  0.56148  0.25000  0.68950  1
 O  O3  1  0.09002  0.75000  0.98306  1
 O  O4  1  0.90998  0.25000  0.01694  1
 O  O5  1  0.26571  0.46115  0.46650  1
 O  O6  1  0.34873  0.75000  0.66039  1
 O  O7  1  0.26571  0.03885  0.46650  1
 O  O8  1  0.65127  0.25000  0.33961  1
 O  O9  1  0.84804  0.55746  0.21396  1
 O  O10  1  0.15196  0.05746  0.78604  1
 O  O11  1  0.15196  0.44254  0.78604  1
 O  O12  1  0.84804  0.94254  0.21396  1
 O  O13  1  0.31971  0.05147  0.12022  1
 O  O14  1  0.68029  0.55147  0.87978  1
 O  O15  1  0.68029  0.94853  0.87978  1
 O  O16  1  0.31971  0.44853  0.12022  1
 O  O17  1  0.73429  0.53885  0.53350  1
 O  O18  1  0.73429  0.96115  0.53350  1
 Ta  Ta1  1  0.47341  0.50730  0.69943  1
 Ta  Ta2  1  0.52659  0.00730  0.30057  1
 Ta  Ta3  1  0.00000  0.00000  0.00000  1
 Ta  Ta4  1  0.00000  0.50000  0.00000  1
 Ta  Ta5  1  0.47341  0.99270  0.69943  1
 Ta  Ta6  1  0.52659  0.49270  0.30057  1
