CIF file written using JARVIS-Tools package.
data_Sr3PbS4
_symmetry_space_group_name_H-M  'Pmmm'
_cell_length_a       4.25985
_cell_length_b       6.01336
_cell_length_c       8.52338
_cell_angle_alpha    90
_cell_angle_beta     90
_cell_angle_gamma    90

_symmetry_Int_Tables_number  47
_chemical_formula_structural  Sr3PbS4
_chemical_formula_sum  Sr3PbS4
_cell_volume  218.33523460750231
_cell_formula_units_Z  1
loop_
  _symmetry_equiv_pos_site_id
 _symmetry_equiv_pos_as_xyz
 1  'x, y, z'
loop_
 _atom_site_type_symbol
 _atom_site_label
 _atom_site_symmetry_multiplicity
 _atom_site_fract_x
 _atom_site_fract_y
 _atom_site_fract_z
 _atom_site_fract_occupancy
 Pb  Pb1  1  0.00000  0.00000  0.00000  1
 S  S1  1  0.00000  0.50000  0.50000  1
 S  S2  1  0.50000  0.00000  0.74727  1
 S  S3  1  0.00000  0.50000  0.00000  1
 S  S4  1  0.50000  0.00000  0.25273  1
 Sr  Sr1  1  0.50000  0.50000  0.24868  1
 Sr  Sr2  1  0.00000  0.00000  0.50000  1
 Sr  Sr3  1  0.50000  0.50000  0.75132  1
