CIF file written using JARVIS-Tools package.
data_LiSbN2
_symmetry_space_group_name_H-M  'I-42d'
_cell_length_a       5.75004
_cell_length_b       4.81871
_cell_length_c       9.26349
_cell_angle_alpha    90
_cell_angle_beta     143.66
_cell_angle_gamma    114.772

_symmetry_Int_Tables_number  122
_chemical_formula_structural  LiSbN2
_chemical_formula_sum  Li2Sb2N4
_cell_volume  107.54849991013926
_cell_formula_units_Z  2
loop_
  _symmetry_equiv_pos_site_id
 _symmetry_equiv_pos_as_xyz
 1  'x, y, z'
loop_
 _atom_site_type_symbol
 _atom_site_label
 _atom_site_symmetry_multiplicity
 _atom_site_fract_x
 _atom_site_fract_y
 _atom_site_fract_z
 _atom_site_fract_occupancy
 Li  Li1  1  0.00000  0.50000  0.25000  1
 Li  Li2  1  0.00000  0.00000  0.00000  1
 N  N1  1  0.50000  0.98768  0.12500  1
 N  N2  1  0.50000  0.01232  0.62500  1
 N  N3  1  0.52464  0.51232  0.38732  1
 N  N4  1  0.47536  0.48768  0.86268  1
 Sb  Sb1  1  0.00000  0.50000  0.75000  1
 Sb  Sb2  1  0.00000  0.00000  0.50000  1
