CIF file written using JARVIS-Tools package.
data_YbSe
_symmetry_space_group_name_H-M  'P6_3/mmc'
_cell_length_a       4.94448
_cell_length_b       4.94448
_cell_length_c       5.82864
_cell_angle_alpha    90
_cell_angle_beta     90
_cell_angle_gamma    120

_symmetry_Int_Tables_number  194
_chemical_formula_structural  YbSe
_chemical_formula_sum  Yb2Se2
_cell_volume  123.40711078778688
_cell_formula_units_Z  2
loop_
  _symmetry_equiv_pos_site_id
 _symmetry_equiv_pos_as_xyz
 1  'x, y, z'
loop_
 _atom_site_type_symbol
 _atom_site_label
 _atom_site_symmetry_multiplicity
 _atom_site_fract_x
 _atom_site_fract_y
 _atom_site_fract_z
 _atom_site_fract_occupancy
 Se  Se1  1  0.66667  0.33333  0.06251  1
 Se  Se2  1  0.33333  0.66667  0.56251  1
 Yb  Yb1  1  0.66667  0.33333  0.56249  1
 Yb  Yb2  1  0.33333  0.66667  0.06249  1
