CIF file written using JARVIS-Tools package.
data_AlH16C10ClO4
_symmetry_space_group_name_H-M  'P1'
_cell_length_a       5.03717
_cell_length_b       6.79999
_cell_length_c       9.14967
_cell_angle_alpha    73.1595
_cell_angle_beta     86.6609
_cell_angle_gamma    82.8635

_symmetry_Int_Tables_number  1
_chemical_formula_structural  AlH16C10ClO4
_chemical_formula_sum  AlH6C0ClO4
_cell_volume  297.5556374606745
_cell_formula_units_Z  1
loop_
  _symmetry_equiv_pos_site_id
 _symmetry_equiv_pos_as_xyz
 1  'x, y, z'
loop_
 _atom_site_type_symbol
 _atom_site_label
 _atom_site_symmetry_multiplicity
 _atom_site_fract_x
 _atom_site_fract_y
 _atom_site_fract_z
 _atom_site_fract_occupancy
 Al  Al1  1  0.00235  0.68236  0.91499  1
 C  C1  1  0.23075  0.38555  0.63180  1
 C  C2  1  0.72870  0.96117  0.94069  1
 C  C3  1  0.13563  0.51001  0.73871  1
 C  C4  1  0.59832  0.30063  0.44823  1
 C  C5  1  0.50258  0.43265  0.55543  1
 C  C6  1  0.66340  0.95209  0.28092  1
 C  C7  1  0.81915  0.94941  0.42197  1
 C  C8  1  0.67588  0.07042  0.52779  1
 C  C9  1  0.69968  0.13868  0.14196  1
 C  C10  1  0.56979  0.12532  0.99617  1
 Cl  Cl1  1  0.14544  0.53083  0.13930  1
 H  H1  1  0.01357  0.00843  0.38331  1
 H  H2  1  0.61269  0.28357  0.16336  1
 H  H3  1  0.91407  0.15175  0.11752  1
 H  H4  1  0.07582  0.41605  0.54496  1
 H  H5  1  0.36168  0.09073  0.01719  1
 H  H6  1  0.49773  0.99535  0.58038  1
 H  H7  1  0.81089  0.05649  0.62198  1
 H  H8  1  0.86664  0.78758  0.49047  1
 H  H9  1  0.44046  0.31765  0.36616  1
 H  H10  1  0.44819  0.94649  0.31088  1
 H  H11  1  0.73112  0.80932  0.24890  1
 H  H12  1  0.57963  0.27354  0.90811  1
 H  H13  1  0.22642  0.22217  0.69769  1
 H  H14  1  0.64953  0.41085  0.64452  1
 H  H15  1  0.48695  0.59710  0.49037  1
 H  H16  1  0.77137  0.36539  0.38004  1
 O  O1  1  0.98046  0.96876  0.90117  1
 O  O2  1  0.63952  0.79120  0.94074  1
 O  O3  1  0.25167  0.66340  0.75209  1
 O  O4  1  0.92967  0.46996  0.82862  1
