CIF file written using JARVIS-Tools package.
data_CdH6C5O4
_symmetry_space_group_name_H-M  'P1'
_cell_length_a       4.1464
_cell_length_b       4.55038
_cell_length_c       8.55186
_cell_angle_alpha    87.5722
_cell_angle_beta     77.7714
_cell_angle_gamma    67.1026

_symmetry_Int_Tables_number  1
_chemical_formula_structural  CdH6C5O4
_chemical_formula_sum  CdH6C5O4
_cell_volume  145.12333634763556
_cell_formula_units_Z  1
loop_
  _symmetry_equiv_pos_site_id
 _symmetry_equiv_pos_as_xyz
 1  'x, y, z'
loop_
 _atom_site_type_symbol
 _atom_site_label
 _atom_site_symmetry_multiplicity
 _atom_site_fract_x
 _atom_site_fract_y
 _atom_site_fract_z
 _atom_site_fract_occupancy
 C  C1  1  0.19130  0.42703  0.53618  1
 C  C2  1  0.36164  0.54612  0.38662  1
 C  C3  1  0.10176  0.71519  0.27746  1
 C  C4  1  0.24682  0.89556  0.14417  1
 C  C5  1  0.45628  0.70970  0.98728  1
 Cd  Cd1  1  0.90849  0.08244  0.76809  1
 H  H1  1  0.46815  0.70954  0.42405  1
 H  H2  1  0.58688  0.34018  0.32169  1
 H  H3  1  0.85947  0.89073  0.35214  1
 H  H4  1  0.02755  0.10523  0.11465  1
 H  H5  1  0.02191  0.54466  0.22542  1
 H  H6  1  0.42251  0.99272  0.18430  1
 O  O1  1  0.18155  0.52711  0.67526  1
 O  O2  1  0.06726  0.21531  0.51880  1
 O  O3  1  0.61500  0.40895  0.98821  1
 O  O4  1  0.46044  0.87235  0.85934  1
