CIF file written using JARVIS-Tools package.
data_Te3MoWS
_symmetry_space_group_name_H-M  'P3m1'
_cell_length_a       3.4624
_cell_length_b       3.46239
_cell_length_c       38.7272
_cell_angle_alpha    90.0004
_cell_angle_beta     90
_cell_angle_gamma    120

_symmetry_Int_Tables_number  156
_chemical_formula_structural  Te3MoWS
_chemical_formula_sum  Te6Mo2W2S2
_cell_volume  402.06803694363197
_cell_formula_units_Z  2
loop_
  _symmetry_equiv_pos_site_id
 _symmetry_equiv_pos_as_xyz
 1  'x, y, z'
loop_
 _atom_site_type_symbol
 _atom_site_label
 _atom_site_symmetry_multiplicity
 _atom_site_fract_x
 _atom_site_fract_y
 _atom_site_fract_z
 _atom_site_fract_occupancy
 Mo  Mo1  1  0.33331  0.66662  0.09399  1
 Mo  Mo2  1  0.66669  0.33339  0.28179  1
 S  S1  1  0.33336  0.66672  0.69563  1
 S  S2  1  0.33335  0.66670  0.61862  1
 Te  Te1  1  0.33336  0.66673  0.32955  1
 Te  Te2  1  0.66664  0.33328  0.04633  1
 Te  Te3  1  0.66664  0.33328  0.42190  1
 Te  Te4  1  0.66665  0.33329  0.14174  1
 Te  Te5  1  0.66665  0.33330  0.51805  1
 Te  Te6  1  0.33336  0.66671  0.23401  1
 W  W1  1  0.33331  0.66662  0.46996  1
 W  W2  1  0.66669  0.33337  0.65718  1
