CIF file written using JARVIS-Tools package.
data_Y2CoRu3
_symmetry_space_group_name_H-M  'R-3m'
_cell_length_a       5.25511
_cell_length_b       5.2551
_cell_length_c       5.2551
_cell_angle_alpha    59.9784
_cell_angle_beta     59.9785
_cell_angle_gamma    59.9784

_symmetry_Int_Tables_number  166
_chemical_formula_structural  Y2CoRu3
_chemical_formula_sum  Y2CoRu3
_cell_volume  102.56894979008372
_cell_formula_units_Z  1
loop_
  _symmetry_equiv_pos_site_id
 _symmetry_equiv_pos_as_xyz
 1  'x, y, z'
loop_
 _atom_site_type_symbol
 _atom_site_label
 _atom_site_symmetry_multiplicity
 _atom_site_fract_x
 _atom_site_fract_y
 _atom_site_fract_z
 _atom_site_fract_occupancy
 Co  Co1  1  0.50000  0.50000  0.50000  1
 Ru  Ru1  1  0.50000  -0.00000  0.50000  1
 Ru  Ru2  1  -0.00000  0.50000  0.50000  1
 Ru  Ru3  1  0.50000  0.50000  0.00000  1
 Y  Y1  1  0.12465  0.12465  0.12465  1
 Y  Y2  1  0.87535  0.87535  0.87535  1
