CIF file written using JARVIS-Tools package.
data_GeSe2
_symmetry_space_group_name_H-M  'I-42d'
_cell_length_a       5.76162
_cell_length_b       5.76162
_cell_length_c       6.42994
_cell_angle_alpha    116.617
_cell_angle_beta     116.617
_cell_angle_gamma    90

_symmetry_Int_Tables_number  122
_chemical_formula_structural  GeSe2
_chemical_formula_sum  Ge2Se4
_cell_volume  165.13589934703563
_cell_formula_units_Z  2
loop_
  _symmetry_equiv_pos_site_id
 _symmetry_equiv_pos_as_xyz
 1  'x, y, z'
loop_
 _atom_site_type_symbol
 _atom_site_label
 _atom_site_symmetry_multiplicity
 _atom_site_fract_x
 _atom_site_fract_y
 _atom_site_fract_z
 _atom_site_fract_occupancy
 Ge  Ge1  1  0.00000  0.00000  0.00000  1
 Ge  Ge2  1  0.25000  0.75000  0.50000  1
 Se  Se1  1  0.38035  0.37500  0.25000  1
 Se  Se2  1  0.12500  0.61965  0.75000  1
 Se  Se3  1  0.62500  0.13035  0.75000  1
 Se  Se4  1  0.86965  0.87500  0.25000  1
