data_image0
_chemical_formula_structural       Al6Cl2Li8O24Si6
_chemical_formula_sum              "Al6 Cl2 Li8 O24 Si6"
_cell_length_a       8.22078
_cell_length_b       8.22078
_cell_length_c       8.22078
_cell_angle_alpha    90
_cell_angle_beta     90
_cell_angle_gamma    90

_space_group_name_H-M_alt    "P 1"
_space_group_IT_number       1

loop_
  _space_group_symop_operation_xyz
  'x, y, z'

loop_
  _atom_site_type_symbol
  _atom_site_label
  _atom_site_symmetry_multiplicity
  _atom_site_fract_x
  _atom_site_fract_y
  _atom_site_fract_z
  _atom_site_occupancy
  Al  Al1       1.0  0.25000  0.50000  0.00000  1.0000
  Al  Al2       1.0  0.75000  0.50000  0.00000  1.0000
  Al  Al3       1.0  0.00000  0.25000  0.50000  1.0000
  Al  Al4       1.0  0.50000  0.00000  0.25000  1.0000
  Al  Al5       1.0  0.00000  0.75000  0.50000  1.0000
  Al  Al6       1.0  0.50000  0.00000  0.75000  1.0000
  Cl  Cl1       1.0  0.00000  0.00000  0.00000  1.0000
  Cl  Cl2       1.0  0.50000  0.50000  0.50000  1.0000
  Li  Li1       1.0  0.16500  0.16500  0.16500  1.0000
  Li  Li2       1.0  0.83500  0.83500  0.16500  1.0000
  Li  Li3       1.0  0.16500  0.83500  0.83500  1.0000
  Li  Li4       1.0  0.83500  0.16500  0.83500  1.0000
  Li  Li5       1.0  0.66500  0.66500  0.66500  1.0000
  Li  Li6       1.0  0.33500  0.33500  0.66500  1.0000
  Li  Li7       1.0  0.33500  0.66500  0.33500  1.0000
  Li  Li8       1.0  0.66500  0.33500  0.33500  1.0000
  O   O1        1.0  0.14000  0.12900  0.39700  1.0000
  O   O2        1.0  0.86000  0.87100  0.39700  1.0000
  O   O3        1.0  0.14000  0.87100  0.60300  1.0000
  O   O4        1.0  0.86000  0.12900  0.60300  1.0000
  O   O5        1.0  0.39700  0.14000  0.12900  1.0000
  O   O6        1.0  0.12900  0.39700  0.14000  1.0000
  O   O7        1.0  0.60300  0.86000  0.12900  1.0000
  O   O8        1.0  0.87100  0.39700  0.86000  1.0000
  O   O9        1.0  0.39700  0.86000  0.87100  1.0000
  O   O10       1.0  0.87100  0.60300  0.14000  1.0000
  O   O11       1.0  0.60300  0.14000  0.87100  1.0000
  O   O12       1.0  0.12900  0.60300  0.86000  1.0000
  O   O13       1.0  0.62900  0.64000  0.89700  1.0000
  O   O14       1.0  0.37100  0.36000  0.89700  1.0000
  O   O15       1.0  0.37100  0.64000  0.10300  1.0000
  O   O16       1.0  0.62900  0.36000  0.10300  1.0000
  O   O17       1.0  0.64000  0.89700  0.62900  1.0000
  O   O18       1.0  0.89700  0.62900  0.64000  1.0000
  O   O19       1.0  0.36000  0.10300  0.62900  1.0000
  O   O20       1.0  0.89700  0.37100  0.36000  1.0000
  O   O21       1.0  0.36000  0.89700  0.37100  1.0000
  O   O22       1.0  0.10300  0.37100  0.64000  1.0000
  O   O23       1.0  0.64000  0.10300  0.37100  1.0000
  O   O24       1.0  0.10300  0.62900  0.36000  1.0000
  Si  Si1       1.0  0.25000  0.00000  0.50000  1.0000
  Si  Si2       1.0  0.75000  0.00000  0.50000  1.0000
  Si  Si3       1.0  0.50000  0.25000  0.00000  1.0000
  Si  Si4       1.0  0.00000  0.50000  0.25000  1.0000
  Si  Si5       1.0  0.50000  0.75000  0.00000  1.0000
  Si  Si6       1.0  0.00000  0.50000  0.75000  1.0000
