CIF file written using JARVIS-Tools package.
data_Na3BN2
_symmetry_space_group_name_H-M  'P2_1/c'
_cell_length_a       5.70383
_cell_length_b       7.93348
_cell_length_c       7.84137
_cell_angle_alpha    90
_cell_angle_beta     111.334
_cell_angle_gamma    90

_symmetry_Int_Tables_number  14
_chemical_formula_structural  Na3BN2
_chemical_formula_sum  Na2B4N8
_cell_volume  330.5164400116387
_cell_formula_units_Z  4
loop_
  _symmetry_equiv_pos_site_id
 _symmetry_equiv_pos_as_xyz
 1  'x, y, z'
loop_
 _atom_site_type_symbol
 _atom_site_label
 _atom_site_symmetry_multiplicity
 _atom_site_fract_x
 _atom_site_fract_y
 _atom_site_fract_z
 _atom_site_fract_occupancy
 B  B1  1  0.78602  0.32170  0.82363  1
 B  B2  1  0.21398  0.67830  0.17637  1
 B  B3  1  0.78602  0.17830  0.32363  1
 B  B4  1  0.21398  0.82170  0.67637  1
 N  N1  1  0.01014  0.72009  0.62985  1
 N  N2  1  0.98986  0.27991  0.37015  1
 N  N3  1  0.41662  0.57524  0.22326  1
 N  N4  1  0.41662  0.92476  0.72326  1
 N  N5  1  0.01014  0.77991  0.12985  1
 N  N6  1  0.58338  0.07524  0.27674  1
 N  N7  1  0.58338  0.42476  0.77674  1
 N  N8  1  0.98986  0.22009  0.87015  1
 Na  Na1  1  0.74177  0.70828  0.81345  1
 Na  Na2  1  0.25823  0.29172  0.18655  1
 Na  Na3  1  0.74177  0.79172  0.31345  1
 Na  Na4  1  0.24033  0.51971  0.87773  1
 Na  Na5  1  0.25137  0.53113  0.49195  1
 Na  Na6  1  0.75967  0.48029  0.12227  1
 Na  Na7  1  0.24033  0.98029  0.37773  1
 Na  Na8  1  0.25137  0.96887  0.99195  1
 Na  Na9  1  0.74863  0.46887  0.50805  1
 Na  Na10  1  0.74863  0.03113  0.00805  1
 Na  Na11  1  0.25823  0.20828  0.68655  1
 Na  Na12  1  0.75967  0.01971  0.62227  1
