CIF file written using JARVIS-Tools package.
data_NdZnAsO
_symmetry_space_group_name_H-M  'P4/nmm'
_cell_length_a       4.06089
_cell_length_b       4.06089
_cell_length_c       9.04097
_cell_angle_alpha    90
_cell_angle_beta     90
_cell_angle_gamma    90

_symmetry_Int_Tables_number  129
_chemical_formula_structural  NdZnAsO
_chemical_formula_sum  Nd2Zn2As2O2
_cell_volume  149.09333053636928
_cell_formula_units_Z  2
loop_
  _symmetry_equiv_pos_site_id
 _symmetry_equiv_pos_as_xyz
 1  'x, y, z'
loop_
 _atom_site_type_symbol
 _atom_site_label
 _atom_site_symmetry_multiplicity
 _atom_site_fract_x
 _atom_site_fract_y
 _atom_site_fract_z
 _atom_site_fract_occupancy
 As  As1  1  0.50000  0.00000  0.67722  1
 As  As2  1  0.00000  0.50000  0.32278  1
 Nd  Nd1  1  0.00000  0.50000  0.86908  1
 Nd  Nd2  1  0.50000  0.00000  0.13092  1
 O  O1  1  0.50000  0.50000  0.00000  1
 O  O2  1  0.00000  0.00000  0.00000  1
 Zn  Zn1  1  0.00000  0.00000  0.50000  1
 Zn  Zn2  1  0.50000  0.50000  0.50000  1
