CIF file written using JARVIS-Tools package.
data_CaCrGe2O6
_symmetry_space_group_name_H-M  'C2/c'
_cell_length_a       5.48909
_cell_length_b       6.82929
_cell_length_c       6.82929
_cell_angle_alpha    82.1028
_cell_angle_beta     79.8087
_cell_angle_gamma    79.8086

_symmetry_Int_Tables_number  15
_chemical_formula_structural  CaCrGe2O6
_chemical_formula_sum  Ca2Cr2Ge4O2
_cell_volume  246.50021811723053
_cell_formula_units_Z  2
loop_
  _symmetry_equiv_pos_site_id
 _symmetry_equiv_pos_as_xyz
 1  'x, y, z'
loop_
 _atom_site_type_symbol
 _atom_site_label
 _atom_site_symmetry_multiplicity
 _atom_site_fract_x
 _atom_site_fract_y
 _atom_site_fract_z
 _atom_site_fract_occupancy
 Ca  Ca1  1  0.75000  0.30884  0.69116  1
 Ca  Ca2  1  0.25000  0.69116  0.30884  1
 Cr  Cr1  1  0.75000  0.91184  0.08816  1
 Cr  Cr2  1  0.25000  0.08816  0.91184  1
 Ge  Ge1  1  0.77651  0.38732  0.18364  1
 Ge  Ge2  1  0.72349  0.81636  0.61268  1
 Ge  Ge3  1  0.22349  0.61268  0.81636  1
 Ge  Ge4  1  0.27651  0.18364  0.38732  1
 O  O1  1  0.53086  0.32322  0.39671  1
 O  O2  1  0.12543  0.80496  0.98294  1
 O  O3  1  0.46914  0.67678  0.60329  1
 O  O4  1  0.03086  0.39671  0.32322  1
 O  O5  1  0.96914  0.60329  0.67678  1
 O  O6  1  0.87457  0.19504  0.01706  1
 O  O7  1  0.85093  0.89615  0.36291  1
 O  O8  1  0.64907  0.63709  0.10385  1
 O  O9  1  0.14907  0.10385  0.63709  1
 O  O10  1  0.62543  0.98294  0.80496  1
 O  O11  1  0.35093  0.36291  0.89615  1
 O  O12  1  0.37457  0.01706  0.19504  1
