CIF file written using JARVIS-Tools package.
data_Sr2TiRuO6
_symmetry_space_group_name_H-M  'P4/mmm'
_cell_length_a       3.92038
_cell_length_b       3.92038
_cell_length_c       7.91747
_cell_angle_alpha    90
_cell_angle_beta     90
_cell_angle_gamma    90

_symmetry_Int_Tables_number  123
_chemical_formula_structural  Sr2TiRuO6
_chemical_formula_sum  Sr2TiRuO6
_cell_volume  121.68662781659857
_cell_formula_units_Z  1
loop_
  _symmetry_equiv_pos_site_id
 _symmetry_equiv_pos_as_xyz
 1  'x, y, z'
loop_
 _atom_site_type_symbol
 _atom_site_label
 _atom_site_symmetry_multiplicity
 _atom_site_fract_x
 _atom_site_fract_y
 _atom_site_fract_z
 _atom_site_fract_occupancy
 O  O1  1  0.00000  0.00000  0.74595  1
 O  O2  1  0.00000  0.00000  0.25405  1
 O  O3  1  0.50000  0.00000  0.50000  1
 O  O4  1  0.50000  0.00000  0.00000  1
 O  O5  1  0.00000  0.50000  0.50000  1
 O  O6  1  0.00000  0.50000  0.00000  1
 Ru  Ru1  1  0.00000  0.00000  0.00000  1
 Sr  Sr1  1  0.50000  0.50000  0.74570  1
 Sr  Sr2  1  0.50000  0.50000  0.25430  1
 Ti  Ti1  1  0.00000  0.00000  0.50000  1
