CIF file written using JARVIS-Tools package.
data_SbCl3F2
_symmetry_space_group_name_H-M  'I-4'
_cell_length_a       7.03254
_cell_length_b       9.73681
_cell_length_c       9.73681
_cell_angle_alpha    82.5064
_cell_angle_beta     68.8303
_cell_angle_gamma    68.8303

_symmetry_Int_Tables_number  82
_chemical_formula_structural  SbCl3F2
_chemical_formula_sum  Sb4Cl2F8
_cell_volume  579.7716888445646
_cell_formula_units_Z  4
loop_
  _symmetry_equiv_pos_site_id
 _symmetry_equiv_pos_as_xyz
 1  'x, y, z'
loop_
 _atom_site_type_symbol
 _atom_site_label
 _atom_site_symmetry_multiplicity
 _atom_site_fract_x
 _atom_site_fract_y
 _atom_site_fract_z
 _atom_site_fract_occupancy
 Cl  Cl1  1  0.71554  0.10188  0.48480  1
 Cl  Cl2  1  0.30222  0.89812  0.51520  1
 Cl  Cl3  1  0.18258  0.51520  0.10188  1
 Cl  Cl4  1  0.79966  0.48480  0.89812  1
 Cl  Cl5  1  0.58097  0.56625  0.30364  1
 Cl  Cl6  1  0.45086  0.43375  0.69636  1
 Cl  Cl7  1  0.11539  0.30364  0.43375  1
 Cl  Cl8  1  0.85278  0.69636  0.56625  1
 Cl  Cl9  1  0.97348  0.22433  0.14409  1
 Cl  Cl10  1  0.34190  0.77567  0.85591  1
 Cl  Cl11  1  0.88243  0.14409  0.77567  1
 Cl  Cl12  1  0.80219  0.85591  0.22433  1
 F  F1  1  0.37260  0.04228  0.20419  1
 F  F2  1  0.61907  0.95772  0.79581  1
 F  F3  1  0.42321  0.20419  0.95772  1
 F  F4  1  0.21058  0.83153  0.24754  1
 F  F5  1  0.58512  0.79581  0.04228  1
 F  F6  1  0.28964  0.16847  0.75246  1
 F  F7  1  0.54188  0.24754  0.16847  1
 F  F8  1  0.95789  0.75246  0.83153  1
 Sb  Sb1  1  0.56607  0.17945  0.72793  1
 Sb  Sb2  1  0.70599  0.72793  0.82055  1
 Sb  Sb3  1  0.25448  0.27207  0.17945  1
 Sb  Sb4  1  0.47346  0.82055  0.27207  1
