CIF file written using JARVIS-Tools package.
data_LiAg2F4
_symmetry_space_group_name_H-M  'I4_1/a'
_cell_length_a       5.70991
_cell_length_b       7.26096
_cell_length_c       5.70991
_cell_angle_alpha    66.8467
_cell_angle_beta     90
_cell_angle_gamma    113.153

_symmetry_Int_Tables_number  88
_chemical_formula_structural  LiAg2F4
_chemical_formula_sum  Li2Ag4F8
_cell_volume  196.75630593917953
_cell_formula_units_Z  2
loop_
  _symmetry_equiv_pos_site_id
 _symmetry_equiv_pos_as_xyz
 1  'x, y, z'
loop_
 _atom_site_type_symbol
 _atom_site_label
 _atom_site_symmetry_multiplicity
 _atom_site_fract_x
 _atom_site_fract_y
 _atom_site_fract_z
 _atom_site_fract_occupancy
 Ag  Ag1  1  -0.00000  0.50000  0.00000  1
 Ag  Ag2  1  -0.00000  0.50000  0.50000  1
 Ag  Ag3  1  -0.00000  -0.00000  0.50000  1
 Ag  Ag4  1  0.50000  -0.00000  0.50000  1
 F  F1  1  0.06356  0.20032  0.08527  1
 F  F2  1  0.36324  0.79968  0.28559  1
 F  F3  1  0.21441  0.29968  0.56356  1
 F  F4  1  0.41473  0.70032  0.86324  1
 F  F5  1  0.58527  0.29968  0.13676  1
 F  F6  1  0.78559  0.70032  0.43644  1
 F  F7  1  0.63676  0.20032  0.71441  1
 F  F8  1  0.93644  0.79968  0.91473  1
 Li  Li1  1  0.37500  0.25000  0.87500  1
 Li  Li2  1  0.62500  0.75000  0.12500  1
