CIF file written using JARVIS-Tools package.
data_LaCeC4
_symmetry_space_group_name_H-M  'Cmmm'
_cell_length_a       4.23824
_cell_length_b       4.23824
_cell_length_c       5.47841
_cell_angle_alpha    90
_cell_angle_beta     90
_cell_angle_gamma    99.5136

_symmetry_Int_Tables_number  65
_chemical_formula_structural  LaCeC4
_chemical_formula_sum  LaCeC4
_cell_volume  97.05328398909926
_cell_formula_units_Z  1
loop_
  _symmetry_equiv_pos_site_id
 _symmetry_equiv_pos_as_xyz
 1  'x, y, z'
loop_
 _atom_site_type_symbol
 _atom_site_label
 _atom_site_symmetry_multiplicity
 _atom_site_fract_x
 _atom_site_fract_y
 _atom_site_fract_z
 _atom_site_fract_occupancy
 C  C1  1  0.60080  0.39920  0.00000  1
 C  C2  1  0.09954  0.90046  0.50000  1
 C  C3  1  0.90046  0.09954  0.50000  1
 C  C4  1  0.39920  0.60080  0.00000  1
 Ce  Ce1  1  0.00000  0.00000  0.00000  1
 La  La1  1  0.50000  0.50000  0.50000  1
