CIF file written using JARVIS-Tools package.
data_ZrH6C5O4
_symmetry_space_group_name_H-M  'P1'
_cell_length_a       5.67417
_cell_length_b       5.84194
_cell_length_c       6.45285
_cell_angle_alpha    102.552
_cell_angle_beta     104.059
_cell_angle_gamma    117.989

_symmetry_Int_Tables_number  1
_chemical_formula_structural  ZrH6C5O4
_chemical_formula_sum  ZrH6C5O4
_cell_volume  168.96116919289867
_cell_formula_units_Z  1
loop_
  _symmetry_equiv_pos_site_id
 _symmetry_equiv_pos_as_xyz
 1  'x, y, z'
loop_
 _atom_site_type_symbol
 _atom_site_label
 _atom_site_symmetry_multiplicity
 _atom_site_fract_x
 _atom_site_fract_y
 _atom_site_fract_z
 _atom_site_fract_occupancy
 C  C1  1  0.84291  0.97858  0.93152  1
 C  C2  1  0.04392  0.07854  0.45465  1
 C  C3  1  0.94950  0.48405  0.56219  1
 C  C4  1  0.24437  0.62739  0.22400  1
 C  C5  1  0.00348  0.28114  0.49177  1
 H  H1  1  0.61274  0.82091  0.09725  1
 H  H2  1  0.80281  0.93089  0.74731  1
 H  H3  1  -0.00288  0.91841  0.52671  1
 H  H4  1  0.65187  0.25439  -0.00268  1
 H  H5  1  0.51303  0.41501  0.90765  1
 H  H6  1  0.13249  0.68376  0.70392  1
 O  O1  1  0.26041  0.83245  0.20852  1
 O  O2  1  0.70504  0.46048  0.47509  1
 O  O3  1  0.48281  0.27275  0.97616  1
 O  O4  1  0.58132  0.77753  0.93338  1
 Zr  Zr1  1  0.25365  0.26080  0.23447  1
