CIF file written using JARVIS-Tools package.
data_YbZnCuAs2
_symmetry_space_group_name_H-M  'P3m1'
_cell_length_a       4.08918
_cell_length_b       4.08918
_cell_length_c       6.88898
_cell_angle_alpha    90
_cell_angle_beta     90
_cell_angle_gamma    120

_symmetry_Int_Tables_number  156
_chemical_formula_structural  YbZnCuAs2
_chemical_formula_sum  YbZnCuAs2
_cell_volume  99.76040523195317
_cell_formula_units_Z  1
loop_
  _symmetry_equiv_pos_site_id
 _symmetry_equiv_pos_as_xyz
 1  'x, y, z'
loop_
 _atom_site_type_symbol
 _atom_site_label
 _atom_site_symmetry_multiplicity
 _atom_site_fract_x
 _atom_site_fract_y
 _atom_site_fract_z
 _atom_site_fract_occupancy
 As  As1  1  0.66667  0.33333  0.25521  1
 As  As2  1  0.00000  0.00000  0.73950  1
 Cu  Cu1  1  0.66667  0.33333  0.63730  1
 Yb  Yb1  1  0.33333  0.66667  0.99462  1
 Zn  Zn1  1  0.00000  0.00000  0.37337  1
