CIF file written using JARVIS-Tools package.
data_MgTi2ZnO6
_symmetry_space_group_name_H-M  'R3'
_cell_length_a       5.5098
_cell_length_b       5.5098
_cell_length_c       5.5098
_cell_angle_alpha    55.0718
_cell_angle_beta     55.0719
_cell_angle_gamma    55.0717

_symmetry_Int_Tables_number  146
_chemical_formula_structural  MgTi2ZnO6
_chemical_formula_sum  MgTi2ZnO6
_cell_volume  104.71694364152741
_cell_formula_units_Z  1
loop_
  _symmetry_equiv_pos_site_id
 _symmetry_equiv_pos_as_xyz
 1  'x, y, z'
loop_
 _atom_site_type_symbol
 _atom_site_label
 _atom_site_symmetry_multiplicity
 _atom_site_fract_x
 _atom_site_fract_y
 _atom_site_fract_z
 _atom_site_fract_occupancy
 Mg  Mg1  1  0.35488  0.35488  0.35488  1
 O  O1  1  0.95569  0.22363  0.56359  1
 O  O2  1  0.22363  0.56359  0.95569  1
 O  O3  1  0.56359  0.95569  0.22363  1
 O  O4  1  0.05560  0.77182  0.43831  1
 O  O5  1  0.77182  0.43831  0.05560  1
 O  O6  1  0.43831  0.05560  0.77182  1
 Ti  Ti1  1  0.14428  0.14428  0.14428  1
 Ti  Ti2  1  0.85390  0.85390  0.85390  1
 Zn  Zn1  1  0.63831  0.63831  0.63831  1
