CIF file written using JARVIS-Tools package.
data_MgZn2O3
_symmetry_space_group_name_H-M  'P-3m1'
_cell_length_a       3.03586
_cell_length_b       3.03587
_cell_length_c       7.41179
_cell_angle_alpha    90
_cell_angle_beta     90
_cell_angle_gamma    120

_symmetry_Int_Tables_number  164
_chemical_formula_structural  MgZn2O3
_chemical_formula_sum  MgZn2O3
_cell_volume  59.15866625221229
_cell_formula_units_Z  1
loop_
  _symmetry_equiv_pos_site_id
 _symmetry_equiv_pos_as_xyz
 1  'x, y, z'
loop_
 _atom_site_type_symbol
 _atom_site_label
 _atom_site_symmetry_multiplicity
 _atom_site_fract_x
 _atom_site_fract_y
 _atom_site_fract_z
 _atom_site_fract_occupancy
 Mg  Mg1  1  0.00000  0.00000  0.00000  1
 O  O1  1  0.33333  0.66667  0.15959  1
 O  O2  1  0.66667  0.33333  0.84041  1
 O  O3  1  0.00000  0.00000  0.50000  1
 Zn  Zn1  1  0.33333  0.66667  0.66905  1
 Zn  Zn2  1  0.66667  0.33333  0.33095  1
