CIF file written using JARVIS-Tools package.
data_Tb5Mg
_symmetry_space_group_name_H-M  'R32'
_cell_length_a       6.55736
_cell_length_b       6.55735
_cell_length_c       6.55736
_cell_angle_alpha    55.3745
_cell_angle_beta     55.3746
_cell_angle_gamma    55.3745

_symmetry_Int_Tables_number  155
_chemical_formula_structural  Tb5Mg
_chemical_formula_sum  Tb5Mg
_cell_volume  177.9516684758893
_cell_formula_units_Z  1
loop_
  _symmetry_equiv_pos_site_id
 _symmetry_equiv_pos_as_xyz
 1  'x, y, z'
loop_
 _atom_site_type_symbol
 _atom_site_label
 _atom_site_symmetry_multiplicity
 _atom_site_fract_x
 _atom_site_fract_y
 _atom_site_fract_z
 _atom_site_fract_occupancy
 Mg  Mg1  1  0.50000  0.50000  0.50000  1
 Tb  Tb1  1  0.65649  0.34351  0.00000  1
 Tb  Tb2  1  -0.00000  0.65649  0.34351  1
 Tb  Tb3  1  0.34351  0.00000  0.65649  1
 Tb  Tb4  1  0.83368  0.83368  0.83368  1
 Tb  Tb5  1  0.16632  0.16632  0.16632  1
