CIF file written using JARVIS-Tools package.
data_CaB2H4O6
_symmetry_space_group_name_H-M  'C2/c'
_cell_length_a       6.90515
_cell_length_b       4.45505
_cell_length_c       6.90515
_cell_angle_alpha    88.8137
_cell_angle_beta     93.1771
_cell_angle_gamma    91.1863

_symmetry_Int_Tables_number  15
_chemical_formula_structural  CaB2H4O6
_chemical_formula_sum  Ca2B4H8O2
_cell_volume  212.00900824642363
_cell_formula_units_Z  2
loop_
  _symmetry_equiv_pos_site_id
 _symmetry_equiv_pos_as_xyz
 1  'x, y, z'
loop_
 _atom_site_type_symbol
 _atom_site_label
 _atom_site_symmetry_multiplicity
 _atom_site_fract_x
 _atom_site_fract_y
 _atom_site_fract_z
 _atom_site_fract_occupancy
 B  B1  1  0.13847  0.31016  0.72282  1
 B  B2  1  0.72282  0.18984  0.13847  1
 B  B3  1  0.86153  0.68984  0.27718  1
 B  B4  1  0.27718  0.81016  0.86153  1
 Ca  Ca1  1  0.78878  0.75000  0.78878  1
 Ca  Ca2  1  0.21122  0.25000  0.21122  1
 H  H1  1  0.59243  0.36835  0.36445  1
 H  H2  1  0.40757  0.63165  0.63555  1
 H  H3  1  0.36445  0.13165  0.59243  1
 H  H4  1  0.63555  0.86835  0.40757  1
 H  H5  1  0.48815  0.72742  0.08019  1
 H  H6  1  0.08019  0.77258  0.48815  1
 H  H7  1  0.91981  0.22742  0.51185  1
 H  H8  1  0.51185  0.27258  0.91981  1
 O  O1  1  0.65300  0.29710  0.94126  1
 O  O2  1  0.05874  0.79710  0.34700  1
 O  O3  1  0.11669  0.62063  0.78488  1
 O  O4  1  0.78488  0.87937  0.11669  1
 O  O5  1  0.88331  0.37937  0.21512  1
 O  O6  1  0.21512  0.12063  0.88331  1
 O  O7  1  0.27782  0.30435  0.56020  1
 O  O8  1  0.56020  0.19565  0.27782  1
 O  O9  1  0.72218  0.69565  0.43980  1
 O  O10  1  0.43980  0.80435  0.72218  1
 O  O11  1  0.94126  0.20290  0.65300  1
 O  O12  1  0.34700  0.70290  0.05874  1
