CIF file written using JARVIS-Tools package.
data_LiNiOF2
_symmetry_space_group_name_H-M  'P2_1/c'
_cell_length_a       4.88731
_cell_length_b       4.84548
_cell_length_c       9.42378
_cell_angle_alpha    90
_cell_angle_beta     119.568
_cell_angle_gamma    90

_symmetry_Int_Tables_number  14
_chemical_formula_structural  LiNiOF2
_chemical_formula_sum  Li4Ni4O4F8
_cell_volume  194.1056597960867
_cell_formula_units_Z  4
loop_
  _symmetry_equiv_pos_site_id
 _symmetry_equiv_pos_as_xyz
 1  'x, y, z'
loop_
 _atom_site_type_symbol
 _atom_site_label
 _atom_site_symmetry_multiplicity
 _atom_site_fract_x
 _atom_site_fract_y
 _atom_site_fract_z
 _atom_site_fract_occupancy
 F  F1  1  0.36155  0.58931  0.25878  1
 F  F2  1  0.73303  0.64203  0.08780  1
 F  F3  1  0.63845  0.08931  0.24122  1
 F  F4  1  0.36155  0.91069  0.75878  1
 F  F5  1  0.26697  0.35797  0.91220  1
 F  F6  1  0.73303  0.85797  0.58780  1
 F  F7  1  0.63845  0.41069  0.74122  1
 F  F8  1  0.26697  0.14203  0.41220  1
 Li  Li1  1  0.27450  0.96908  0.24225  1
 Li  Li2  1  0.72550  0.03092  0.75775  1
 Li  Li3  1  0.27450  0.53092  0.74225  1
 Li  Li4  1  0.72550  0.46908  0.25775  1
 Ni  Ni1  1  0.00000  0.00000  0.50000  1
 Ni  Ni2  1  0.50000  0.00000  0.00000  1
 Ni  Ni3  1  0.50000  0.50000  0.50000  1
 Ni  Ni4  1  0.00000  0.50000  0.00000  1
 O  O1  1  0.93573  0.39282  0.53794  1
 O  O2  1  0.06427  0.89282  0.96206  1
 O  O3  1  0.93573  0.10718  0.03794  1
 O  O4  1  0.06427  0.60718  0.46206  1
