CIF file written using JARVIS-Tools package.
data_AlH6C5ClO4
_symmetry_space_group_name_H-M  'P1'
_cell_length_a       5.23662
_cell_length_b       5.95701
_cell_length_c       6.29056
_cell_angle_alpha    64.8221
_cell_angle_beta     78.6227
_cell_angle_gamma    84.7084

_symmetry_Int_Tables_number  1
_chemical_formula_structural  AlH6C5ClO4
_chemical_formula_sum  AlH6C5ClO4
_cell_volume  174.09057156244518
_cell_formula_units_Z  1
loop_
  _symmetry_equiv_pos_site_id
 _symmetry_equiv_pos_as_xyz
 1  'x, y, z'
loop_
 _atom_site_type_symbol
 _atom_site_label
 _atom_site_symmetry_multiplicity
 _atom_site_fract_x
 _atom_site_fract_y
 _atom_site_fract_z
 _atom_site_fract_occupancy
 Al  Al1  1  0.23868  0.90018  0.52917  1
 C  C1  1  0.70868  0.58911  0.04515  1
 C  C2  1  0.69230  0.76079  0.79212  1
 C  C3  1  0.14038  0.40873  0.51502  1
 C  C4  1  0.89128  0.46020  0.41634  1
 C  C5  1  0.94180  0.61748  0.14299  1
 Cl  Cl1  1  0.35188  0.07163  0.14122  1
 H  H1  1  0.70313  0.39944  0.05595  1
 H  H2  1  0.97044  0.81253  0.10349  1
 H  H3  1  0.11955  0.55162  0.06066  1
 H  H4  1  0.80366  0.28392  0.45609  1
 H  H5  1  0.75098  0.55757  0.50203  1
 H  H6  1  0.52558  0.61241  0.15331  1
 O  O1  1  0.88981  0.87816  0.64306  1
 O  O2  1  0.25774  0.20024  0.55873  1
 O  O3  1  0.47254  0.77897  0.73006  1
 O  O4  1  0.24447  0.57445  0.54750  1
