CIF file written using JARVIS-Tools package.
data_BaCa2I6
_symmetry_space_group_name_H-M  'P-31m'
_cell_length_a       7.97729
_cell_length_b       7.97733
_cell_length_c       7.35465
_cell_angle_alpha    89.9992
_cell_angle_beta     90.0013
_cell_angle_gamma    120

_symmetry_Int_Tables_number  162
_chemical_formula_structural  BaCa2I6
_chemical_formula_sum  BaCa2I6
_cell_volume  405.3279338565986
_cell_formula_units_Z  1
loop_
  _symmetry_equiv_pos_site_id
 _symmetry_equiv_pos_as_xyz
 1  'x, y, z'
loop_
 _atom_site_type_symbol
 _atom_site_label
 _atom_site_symmetry_multiplicity
 _atom_site_fract_x
 _atom_site_fract_y
 _atom_site_fract_z
 _atom_site_fract_occupancy
 Ba  Ba1  1  -0.00002  -0.00000  0.99998  1
 Ca  Ca1  1  0.33333  0.66667  0.50000  1
 Ca  Ca2  1  0.66666  0.33333  0.50000  1
 I  I1  1  -0.00001  0.63868  0.74366  1
 I  I2  1  0.00000  0.36131  0.25635  1
 I  I3  1  0.36131  0.36132  0.74366  1
 I  I4  1  0.63870  0.63869  0.25635  1
 I  I5  1  0.36127  -0.00000  0.25636  1
 I  I6  1  0.63867  0.00000  0.74364  1
