CIF file written using JARVIS-Tools package.
data_SrFe2N2
_symmetry_space_group_name_H-M  'P-3m1'
_cell_length_a       3.37486
_cell_length_b       3.37433
_cell_length_c       6.17125
_cell_angle_alpha    89.9995
_cell_angle_beta     89.9999
_cell_angle_gamma    120.006

_symmetry_Int_Tables_number  164
_chemical_formula_structural  SrFe2N2
_chemical_formula_sum  SrFe2N2
_cell_volume  60.8585112093196
_cell_formula_units_Z  1
loop_
  _symmetry_equiv_pos_site_id
 _symmetry_equiv_pos_as_xyz
 1  'x, y, z'
loop_
 _atom_site_type_symbol
 _atom_site_label
 _atom_site_symmetry_multiplicity
 _atom_site_fract_x
 _atom_site_fract_y
 _atom_site_fract_z
 _atom_site_fract_occupancy
 Fe  Fe1  1  0.66669  0.33331  0.11245  1
 Fe  Fe2  1  0.33331  0.66669  0.88755  1
 N  N1  1  0.66668  0.33333  0.80208  1
 N  N2  1  0.33332  0.66667  0.19792  1
 Sr  Sr1  1  0.00000  0.00000  0.50000  1
