CIF file written using JARVIS-Tools package.
data_Y2GeO5
_symmetry_space_group_name_H-M  'C2/c'
_cell_length_a       5.27904
_cell_length_b       6.08242
_cell_length_c       7.32977
_cell_angle_alpha    107.907
_cell_angle_beta     89.9991
_cell_angle_gamma    115.72

_symmetry_Int_Tables_number  15
_chemical_formula_structural  Y2GeO5
_chemical_formula_sum  Y4Ge2O0
_cell_volume  199.30685062957798
_cell_formula_units_Z  2
loop_
  _symmetry_equiv_pos_site_id
 _symmetry_equiv_pos_as_xyz
 1  'x, y, z'
loop_
 _atom_site_type_symbol
 _atom_site_label
 _atom_site_symmetry_multiplicity
 _atom_site_fract_x
 _atom_site_fract_y
 _atom_site_fract_z
 _atom_site_fract_occupancy
 Ge  Ge1  1  0.99727  0.99892  0.49824  1
 Ge  Ge2  1  0.99729  -0.00108  0.99824  1
 O  O1  1  0.10882  0.74108  -0.02431  1
 O  O2  1  0.62788  0.74107  0.47567  1
 O  O3  1  0.09277  0.70504  0.39390  1
 O  O4  1  0.38669  0.29281  0.10258  1
 O  O5  1  0.60789  0.70503  0.89390  1
 O  O6  1  0.90177  0.29280  0.60257  1
 O  O7  1  0.36666  0.25678  0.52081  1
 O  O8  1  0.85354  -0.00107  0.24824  1
 O  O9  1  0.88578  0.25678  0.02079  1
 O  O10  1  0.14101  -0.00109  0.74824  1
 Y  Y1  1  0.36203  0.65938  0.16882  1
 Y  Y2  1  0.29298  0.65939  0.66882  1
 Y  Y3  1  0.70157  0.33844  0.32766  1
 Y  Y4  1  0.63252  0.33846  0.82767  1
