CIF file written using JARVIS-Tools package.
data_CdH6C5O4
_symmetry_space_group_name_H-M  'P1'
_cell_length_a       3.82951
_cell_length_b       5.13224
_cell_length_c       7.83145
_cell_angle_alpha    80.2608
_cell_angle_beta     81.5176
_cell_angle_gamma    69.222

_symmetry_Int_Tables_number  1
_chemical_formula_structural  CdH6C5O4
_chemical_formula_sum  CdH6C5O4
_cell_volume  141.19327030535814
_cell_formula_units_Z  1
loop_
  _symmetry_equiv_pos_site_id
 _symmetry_equiv_pos_as_xyz
 1  'x, y, z'
loop_
 _atom_site_type_symbol
 _atom_site_label
 _atom_site_symmetry_multiplicity
 _atom_site_fract_x
 _atom_site_fract_y
 _atom_site_fract_z
 _atom_site_fract_occupancy
 C  C1  1  0.10521  0.69136  0.45214  1
 C  C2  1  0.88618  0.66996  0.63002  1
 C  C3  1  0.62547  0.95109  0.68552  1
 C  C4  1  0.40164  0.92139  0.86510  1
 C  C5  1  0.57814  0.95949  0.01520  1
 Cd  Cd1  1  0.84345  0.32415  0.22297  1
 H  H1  1  0.72862  0.52804  0.62867  1
 H  H2  1  0.09586  0.55799  0.72401  1
 H  H3  1  0.42484  0.05238  0.58797  1
 H  H4  1  0.12553  0.08574  0.86151  1
 H  H5  1  0.78507  0.09204  0.68316  1
 H  H6  1  0.36366  0.71607  0.89149  1
 O  O1  1  0.26094  0.45932  0.38449  1
 O  O2  1  0.14346  0.92163  0.38429  1
 O  O3  1  0.48632  0.21599  0.04957  1
 O  O4  1  0.81187  0.75707  0.09793  1
