CIF file written using JARVIS-Tools package.
data_Ag5SbS4
_symmetry_space_group_name_H-M  'Cmc2_1'
_cell_length_a       7.32173
_cell_length_b       7.32174
_cell_length_c       8.78537
_cell_angle_alpha    90
_cell_angle_beta     90
_cell_angle_gamma    115.397

_symmetry_Int_Tables_number  36
_chemical_formula_structural  Ag5SbS4
_chemical_formula_sum  Ag0Sb2S8
_cell_volume  425.4485683117469
_cell_formula_units_Z  2
loop_
  _symmetry_equiv_pos_site_id
 _symmetry_equiv_pos_as_xyz
 1  'x, y, z'
loop_
 _atom_site_type_symbol
 _atom_site_label
 _atom_site_symmetry_multiplicity
 _atom_site_fract_x
 _atom_site_fract_y
 _atom_site_fract_z
 _atom_site_fract_occupancy
 Ag  Ag1  1  0.55945  0.80497  0.48891  1
 Ag  Ag2  1  0.13143  0.25519  0.16929  1
 Ag  Ag3  1  0.19503  0.44055  0.48891  1
 Ag  Ag4  1  0.74481  0.86857  0.16929  1
 Ag  Ag5  1  0.25519  0.13143  0.66929  1
 Ag  Ag6  1  0.80497  0.55945  0.98891  1
 Ag  Ag7  1  0.85761  0.14239  0.83182  1
 Ag  Ag8  1  0.44055  0.19503  0.98891  1
 Ag  Ag9  1  0.86857  0.74481  0.66929  1
 Ag  Ag10  1  0.14239  0.85761  0.33182  1
 S  S1  1  0.03259  0.50037  0.72568  1
 S  S2  1  0.49963  0.96741  0.72568  1
 S  S3  1  0.50037  0.03259  0.22568  1
 S  S4  1  0.02881  0.97119  0.97861  1
 S  S5  1  0.97119  0.02881  0.47861  1
 S  S6  1  0.51605  0.48395  0.79775  1
 S  S7  1  0.48395  0.51605  0.29775  1
 S  S8  1  0.96741  0.49963  0.22568  1
 Sb  Sb1  1  0.32584  0.67416  0.89857  1
 Sb  Sb2  1  0.67416  0.32584  0.39857  1
