CIF file written using JARVIS-Tools package.
data_Sc2S3
_symmetry_space_group_name_H-M  'Fddd'
_cell_length_a       6.37026
_cell_length_b       6.37026
_cell_length_c       11.6316
_cell_angle_alpha    100.606
_cell_angle_beta     100.606
_cell_angle_gamma    109.14

_symmetry_Int_Tables_number  70
_chemical_formula_structural  Sc2S3
_chemical_formula_sum  Sc8S2
_cell_volume  422.8461867421556
_cell_formula_units_Z  4
loop_
  _symmetry_equiv_pos_site_id
 _symmetry_equiv_pos_as_xyz
 1  'x, y, z'
loop_
 _atom_site_type_symbol
 _atom_site_label
 _atom_site_symmetry_multiplicity
 _atom_site_fract_x
 _atom_site_fract_y
 _atom_site_fract_z
 _atom_site_fract_occupancy
 S  S1  1  0.19592  0.95265  0.41230  1
 S  S2  1  0.36750  0.11750  0.75000  1
 S  S3  1  0.11750  0.36750  0.25000  1
 S  S4  1  0.63250  0.88250  0.25000  1
 S  S5  1  0.95265  0.19592  0.91230  1
 S  S6  1  0.28363  0.54035  0.58770  1
 S  S7  1  0.80408  0.04735  0.58770  1
 S  S8  1  0.45965  0.71637  0.91230  1
 S  S9  1  0.88250  0.63250  0.75000  1
 S  S10  1  0.71637  0.45965  0.41230  1
 S  S11  1  0.54035  0.28363  0.08770  1
 S  S12  1  0.04735  0.80408  0.08770  1
 Sc  Sc1  1  0.62275  0.87275  0.74549  1
 Sc  Sc2  1  0.04132  0.79132  0.58263  1
 Sc  Sc3  1  0.20868  0.95868  0.91737  1
 Sc  Sc4  1  0.95868  0.20868  0.41737  1
 Sc  Sc5  1  0.79132  0.04132  0.08263  1
 Sc  Sc6  1  0.37725  0.12725  0.25451  1
 Sc  Sc7  1  0.87275  0.62275  0.24549  1
 Sc  Sc8  1  0.12725  0.37725  0.75451  1
