CIF file written using JARVIS-Tools package.
data_LiZnSb
_symmetry_space_group_name_H-M  'P6_3mc'
_cell_length_a       4.45397
_cell_length_b       4.45397
_cell_length_c       7.2547
_cell_angle_alpha    90
_cell_angle_beta     90
_cell_angle_gamma    120

_symmetry_Int_Tables_number  186
_chemical_formula_structural  LiZnSb
_chemical_formula_sum  Li2Zn2Sb2
_cell_volume  124.63644921845538
_cell_formula_units_Z  2
loop_
  _symmetry_equiv_pos_site_id
 _symmetry_equiv_pos_as_xyz
 1  'x, y, z'
loop_
 _atom_site_type_symbol
 _atom_site_label
 _atom_site_symmetry_multiplicity
 _atom_site_fract_x
 _atom_site_fract_y
 _atom_site_fract_z
 _atom_site_fract_occupancy
 Li  Li1  1  0.00000  0.00000  0.32297  1
 Li  Li2  1  0.00000  0.00000  0.82297  1
 Sb  Sb1  1  0.33333  0.66667  0.10740  1
 Sb  Sb2  1  0.66667  0.33333  0.60740  1
 Zn  Zn1  1  0.66667  0.33333  0.98864  1
 Zn  Zn2  1  0.33333  0.66667  0.48864  1
