CIF file written using JARVIS-Tools package.
data_HgBrO3
_symmetry_space_group_name_H-M  'C2/c'
_cell_length_a       4.55331
_cell_length_b       8.55965
_cell_length_c       9.69421
_cell_angle_alpha    107.784
_cell_angle_beta     103.583
_cell_angle_gamma    90

_symmetry_Int_Tables_number  15
_chemical_formula_structural  HgBrO3
_chemical_formula_sum  Hg4Br4O2
_cell_volume  348.66169171785083
_cell_formula_units_Z  4
loop_
  _symmetry_equiv_pos_site_id
 _symmetry_equiv_pos_as_xyz
 1  'x, y, z'
loop_
 _atom_site_type_symbol
 _atom_site_label
 _atom_site_symmetry_multiplicity
 _atom_site_fract_x
 _atom_site_fract_y
 _atom_site_fract_z
 _atom_site_fract_occupancy
 Br  Br1  1  0.27833  0.66284  0.64711  1
 Br  Br2  1  0.63121  0.83716  0.35289  1
 Br  Br3  1  0.72167  0.33716  0.35289  1
 Br  Br4  1  0.36879  0.16284  0.64711  1
 Hg  Hg1  1  0.90060  0.01789  0.87080  1
 Hg  Hg2  1  0.09940  0.98211  0.12920  1
 Hg  Hg3  1  0.97019  0.51789  0.87080  1
 Hg  Hg4  1  0.02981  0.48211  0.12920  1
 O  O1  1  0.51543  0.28439  0.17512  1
 O  O2  1  0.65969  0.78439  0.17512  1
 O  O3  1  0.48457  0.71561  0.82488  1
 O  O4  1  0.50613  0.33419  0.62882  1
 O  O5  1  0.87730  0.16581  0.37118  1
 O  O6  1  0.03380  0.45263  0.34686  1
 O  O7  1  0.12270  0.83419  0.62882  1
 O  O8  1  0.34031  0.21561  0.82488  1
 O  O9  1  0.96620  0.54737  0.65314  1
 O  O10  1  0.68694  0.04737  0.65314  1
 O  O11  1  0.49387  0.66581  0.37118  1
 O  O12  1  0.31306  0.95263  0.34686  1
