CIF file written using JARVIS-Tools package.
data_SrSc2S4
_symmetry_space_group_name_H-M  'Pnma'
_cell_length_a       3.78878
_cell_length_b       11.6677
_cell_length_c       13.6937
_cell_angle_alpha    90
_cell_angle_beta     90
_cell_angle_gamma    90

_symmetry_Int_Tables_number  62
_chemical_formula_structural  SrSc2S4
_chemical_formula_sum  Sr4Sc8S6
_cell_volume  605.3482031564339
_cell_formula_units_Z  4
loop_
  _symmetry_equiv_pos_site_id
 _symmetry_equiv_pos_as_xyz
 1  'x, y, z'
loop_
 _atom_site_type_symbol
 _atom_site_label
 _atom_site_symmetry_multiplicity
 _atom_site_fract_x
 _atom_site_fract_y
 _atom_site_fract_z
 _atom_site_fract_occupancy
 S  S1  1  0.25000  0.79612  0.83997  1
 S  S2  1  0.25000  0.08691  0.92493  1
 S  S3  1  0.75000  0.70388  0.33997  1
 S  S4  1  0.25000  0.58691  0.57507  1
 S  S5  1  0.75000  0.41309  0.42493  1
 S  S6  1  0.25000  0.97248  0.28418  1
 S  S7  1  0.75000  0.02752  0.71582  1
 S  S8  1  0.75000  0.91309  0.07507  1
 S  S9  1  0.75000  0.52752  0.78418  1
 S  S10  1  0.75000  0.62317  0.02693  1
 S  S11  1  0.25000  0.87683  0.52693  1
 S  S12  1  0.75000  0.12317  0.47307  1
 S  S13  1  0.75000  0.20388  0.16003  1
 S  S14  1  0.25000  0.29612  0.66003  1
 S  S15  1  0.25000  0.37683  0.97307  1
 S  S16  1  0.25000  0.47248  0.21582  1
 Sc  Sc1  1  0.75000  0.43985  0.60934  1
 Sc  Sc2  1  0.25000  0.06015  0.10934  1
 Sc  Sc3  1  0.75000  0.93985  0.89066  1
 Sc  Sc4  1  0.25000  0.56015  0.39066  1
 Sc  Sc5  1  0.75000  0.91904  0.40153  1
 Sc  Sc6  1  0.25000  0.08096  0.59847  1
 Sc  Sc7  1  0.25000  0.58096  0.90153  1
 Sc  Sc8  1  0.75000  0.41904  0.09847  1
 Sr  Sr1  1  0.75000  0.76097  0.66657  1
 Sr  Sr2  1  0.25000  0.23903  0.33343  1
 Sr  Sr3  1  0.75000  0.26097  0.83343  1
 Sr  Sr4  1  0.25000  0.73903  0.16657  1
