CIF file written using JARVIS-Tools package.
data_Li2VF4
_symmetry_space_group_name_H-M  'P4_122'
_cell_length_a       5.97301
_cell_length_b       5.97301
_cell_length_c       8.44687
_cell_angle_alpha    90
_cell_angle_beta     90
_cell_angle_gamma    90

_symmetry_Int_Tables_number  91
_chemical_formula_structural  Li2VF4
_chemical_formula_sum  Li8V4F6
_cell_volume  301.35719537085
_cell_formula_units_Z  4
loop_
  _symmetry_equiv_pos_site_id
 _symmetry_equiv_pos_as_xyz
 1  'x, y, z'
loop_
 _atom_site_type_symbol
 _atom_site_label
 _atom_site_symmetry_multiplicity
 _atom_site_fract_x
 _atom_site_fract_y
 _atom_site_fract_z
 _atom_site_fract_occupancy
 F  F1  1  0.74754  0.97899  0.49688  1
 F  F2  1  0.02101  0.25246  0.75312  1
 F  F3  1  0.97899  0.25246  0.24688  1
 F  F4  1  0.25246  0.02101  0.99688  1
 F  F5  1  0.25246  0.97899  0.50312  1
 F  F6  1  0.25547  0.49971  0.98849  1
 F  F7  1  0.25547  0.50029  0.51151  1
 F  F8  1  0.02101  0.74754  0.74688  1
 F  F9  1  0.49971  0.74453  0.73849  1
 F  F10  1  0.50029  0.25547  0.23849  1
 F  F11  1  0.50029  0.74453  0.26151  1
 F  F12  1  0.74453  0.50029  0.48849  1
 F  F13  1  0.74453  0.49971  0.01151  1
 F  F14  1  0.97899  0.74754  0.25312  1
 F  F15  1  0.74754  0.02101  0.00312  1
 F  F16  1  0.49971  0.25547  0.76151  1
 Li  Li1  1  0.74927  0.74927  0.87500  1
 Li  Li2  1  0.74927  0.25073  0.62500  1
 Li  Li3  1  0.71592  0.50000  0.25000  1
 Li  Li4  1  0.50000  0.71592  0.50000  1
 Li  Li5  1  0.50000  0.28408  0.00000  1
 Li  Li6  1  0.28408  0.50000  0.75000  1
 Li  Li7  1  0.25073  0.74927  0.12500  1
 Li  Li8  1  0.25073  0.25073  0.37500  1
 V  V1  1  0.00000  0.26843  0.00000  1
 V  V2  1  0.00000  0.73157  0.50000  1
 V  V3  1  0.26843  0.00000  0.75000  1
 V  V4  1  0.73157  0.00000  0.25000  1
