CIF file written using JARVIS-Tools package.
data_VSnO4
_symmetry_space_group_name_H-M  'Cmmm'
_cell_length_a       3.08185
_cell_length_b       5.60748
_cell_length_c       5.60746
_cell_angle_alpha    108.001
_cell_angle_beta     56.6618
_cell_angle_gamma    123.338

_symmetry_Int_Tables_number  65
_chemical_formula_structural  VSnO4
_chemical_formula_sum  VSnO4
_cell_volume  67.63228146422121
_cell_formula_units_Z  1
loop_
  _symmetry_equiv_pos_site_id
 _symmetry_equiv_pos_as_xyz
 1  'x, y, z'
loop_
 _atom_site_type_symbol
 _atom_site_label
 _atom_site_symmetry_multiplicity
 _atom_site_fract_x
 _atom_site_fract_y
 _atom_site_fract_z
 _atom_site_fract_occupancy
 O  O1  1  0.50174  0.21028  0.20758  1
 O  O2  1  0.37294  0.68695  0.31305  1
 O  O3  1  0.50175  0.79243  0.78972  1
 O  O4  1  0.63059  0.31577  0.68423  1
 Sn  Sn1  1  0.00176  0.00136  0.99864  1
 V  V1  1  0.50176  0.50136  0.49864  1
