CIF file written using JARVIS-Tools package.
data_H4C6S
_symmetry_space_group_name_H-M  'Pbcn'
_cell_length_a       8.09362
_cell_length_b       5.53279
_cell_length_c       10.423
_cell_angle_alpha    90
_cell_angle_beta     90
_cell_angle_gamma    90

_symmetry_Int_Tables_number  60
_chemical_formula_structural  H4C6S
_chemical_formula_sum  H6C24S4
_cell_volume  466.74688827064756
_cell_formula_units_Z  4
loop_
  _symmetry_equiv_pos_site_id
 _symmetry_equiv_pos_as_xyz
 1  'x, y, z'
loop_
 _atom_site_type_symbol
 _atom_site_label
 _atom_site_symmetry_multiplicity
 _atom_site_fract_x
 _atom_site_fract_y
 _atom_site_fract_z
 _atom_site_fract_occupancy
 C  C1  1  0.08313  0.58674  0.10861  1
 C  C2  1  0.41687  0.91326  0.60861  1
 C  C3  1  0.41687  0.08674  0.10861  1
 C  C4  1  0.91687  0.58674  0.39139  1
 C  C5  1  0.08313  0.41326  0.60861  1
 C  C6  1  0.41283  0.78308  0.49424  1
 C  C7  1  0.58717  0.21692  0.50576  1
 C  C8  1  0.08717  0.71692  0.99424  1
 C  C9  1  0.58313  0.91326  0.89139  1
 C  C10  1  0.91283  0.28308  0.00576  1
 C  C11  1  0.00389  0.63189  0.88508  1
 C  C12  1  0.41283  0.21692  0.99424  1
 C  C13  1  0.91283  0.71692  0.50576  1
 C  C14  1  0.08717  0.28308  0.49424  1
 C  C15  1  0.49611  0.86811  0.38508  1
 C  C16  1  0.50389  0.13189  0.61492  1
 C  C17  1  0.99611  0.36811  0.11492  1
 C  C18  1  0.50389  0.86811  0.11492  1
 C  C19  1  0.49611  0.13189  0.88508  1
 C  C20  1  0.99611  0.63189  0.61492  1
 C  C21  1  0.00389  0.36811  0.38508  1
 C  C22  1  0.58717  0.78308  0.00576  1
 C  C23  1  0.91687  0.41326  0.89139  1
 C  C24  1  0.58313  0.08674  0.39139  1
 H  H1  1  0.15737  0.11528  0.48908  1
 H  H2  1  0.34263  0.61528  0.48908  1
 H  H3  1  0.34875  0.84702  0.69156  1
 H  H4  1  0.65125  0.15298  0.30844  1
 H  H5  1  0.84875  0.34702  0.80844  1
 H  H6  1  0.65125  0.84702  0.80844  1
 H  H7  1  0.34875  0.15298  0.19156  1
 H  H8  1  0.15125  0.34702  0.69156  1
 H  H9  1  0.84875  0.65298  0.30844  1
 H  H10  1  0.65737  0.38472  0.51092  1
 H  H11  1  0.15737  0.88472  0.98908  1
 H  H12  1  0.84263  0.11528  0.01092  1
 H  H13  1  0.65737  0.61528  0.01092  1
 H  H14  1  0.34263  0.38472  0.98908  1
 H  H15  1  0.84263  0.88472  0.51092  1
 H  H16  1  0.15125  0.65298  0.19156  1
 S  S1  1  0.00000  0.82652  0.75000  1
 S  S2  1  0.50000  0.32652  0.75000  1
 S  S3  1  0.00000  0.17348  0.25000  1
 S  S4  1  0.50000  0.67348  0.25000  1
