CIF file written using JARVIS-Tools package.
data_NiF2
_symmetry_space_group_name_H-M  'P4_2/mnm'
_cell_length_a       3.11731
_cell_length_b       4.59213
_cell_length_c       4.59815
_cell_angle_alpha    90
_cell_angle_beta     90
_cell_angle_gamma    90

_symmetry_Int_Tables_number  136
_chemical_formula_structural  NiF2
_chemical_formula_sum  Ni2F4
_cell_volume  65.82295106436302
_cell_formula_units_Z  2
loop_
  _symmetry_equiv_pos_site_id
 _symmetry_equiv_pos_as_xyz
 1  'x, y, z'
loop_
 _atom_site_type_symbol
 _atom_site_label
 _atom_site_symmetry_multiplicity
 _atom_site_fract_x
 _atom_site_fract_y
 _atom_site_fract_z
 _atom_site_fract_occupancy
 F  F1  1  0.00000  0.30101  0.30183  1
 F  F2  1  0.50000  0.19899  0.80183  1
 F  F3  1  0.00000  0.69899  0.69817  1
 F  F4  1  0.50000  0.80101  0.19817  1
 Ni  Ni1  1  0.00000  0.00000  0.00000  1
 Ni  Ni2  1  0.50000  0.50000  0.50000  1
