CIF file written using JARVIS-Tools package.
data_BaVS3
_symmetry_space_group_name_H-M  'P6_3/mmc'
_cell_length_a       6.72316
_cell_length_b       6.72316
_cell_length_c       5.65924
_cell_angle_alpha    90
_cell_angle_beta     90
_cell_angle_gamma    120

_symmetry_Int_Tables_number  194
_chemical_formula_structural  BaVS3
_chemical_formula_sum  Ba2V2S6
_cell_volume  221.5320561700967
_cell_formula_units_Z  2
loop_
  _symmetry_equiv_pos_site_id
 _symmetry_equiv_pos_as_xyz
 1  'x, y, z'
loop_
 _atom_site_type_symbol
 _atom_site_label
 _atom_site_symmetry_multiplicity
 _atom_site_fract_x
 _atom_site_fract_y
 _atom_site_fract_z
 _atom_site_fract_occupancy
 Ba  Ba1  1  0.66667  0.33333  0.75000  1
 Ba  Ba2  1  0.33333  0.66667  0.25000  1
 S  S1  1  0.32911  0.16455  0.25000  1
 S  S2  1  0.16455  0.83545  0.75000  1
 S  S3  1  0.16455  0.32911  0.75000  1
 S  S4  1  0.83545  0.67089  0.25000  1
 S  S5  1  0.67089  0.83545  0.75000  1
 S  S6  1  0.83545  0.16455  0.25000  1
 V  V1  1  0.00000  0.00000  0.50000  1
 V  V2  1  0.00000  0.00000  0.00000  1
