CIF file written using JARVIS-Tools package.
data_H23C15
_symmetry_space_group_name_H-M  'P-1'
_cell_length_a       5.92808
_cell_length_b       9.75398
_cell_length_c       10.3848
_cell_angle_alpha    90.0732
_cell_angle_beta     83.977
_cell_angle_gamma    74.7356

_symmetry_Int_Tables_number  2
_chemical_formula_structural  H23C15
_chemical_formula_sum  H46C30
_cell_volume  575.828957954098
_cell_formula_units_Z  2
loop_
  _symmetry_equiv_pos_site_id
 _symmetry_equiv_pos_as_xyz
 1  'x, y, z'
loop_
 _atom_site_type_symbol
 _atom_site_label
 _atom_site_symmetry_multiplicity
 _atom_site_fract_x
 _atom_site_fract_y
 _atom_site_fract_z
 _atom_site_fract_occupancy
 C  C1  1  0.43204  0.13733  0.84641  1
 C  C2  1  0.81663  0.14392  0.34279  1
 C  C3  1  0.18337  0.85608  0.65721  1
 C  C4  1  0.34133  0.81271  0.15276  1
 C  C5  1  0.65867  0.18729  0.84724  1
 C  C6  1  0.40783  0.65472  0.10983  1
 C  C7  1  0.59217  0.34528  0.89017  1
 C  C8  1  0.20403  0.38655  0.79937  1
 C  C9  1  0.42855  0.43632  0.79963  1
 C  C10  1  0.79597  0.61345  0.20063  1
 C  C11  1  0.73661  0.77106  0.24116  1
 C  C12  1  0.26339  0.22894  0.75884  1
 C  C13  1  0.57145  0.56368  0.20037  1
 C  C14  1  0.83862  0.20252  0.47643  1
 C  C15  1  0.16138  0.79748  0.52357  1
 C  C16  1  0.94183  0.33097  0.46579  1
 C  C17  1  0.56796  0.86267  0.15359  1
 C  C18  1  0.16387  0.91052  0.07546  1
 C  C19  1  0.96705  0.95358  0.87560  1
 C  C20  1  0.03295  0.04642  0.12440  1
 C  C21  1  0.87384  0.13136  0.04757  1
 C  C22  1  0.12616  0.86864  0.95243  1
 C  C23  1  0.83613  0.08948  0.92454  1
 C  C24  1  0.94531  0.89479  0.74320  1
 C  C25  1  0.15829  0.23515  0.24661  1
 C  C26  1  0.84171  0.76485  0.75339  1
 C  C27  1  0.17919  0.29315  0.38107  1
 C  C28  1  0.82081  0.70685  0.61893  1
 C  C29  1  0.05469  0.10521  0.25680  1
 C  C30  1  0.05817  0.66903  0.53421  1
 H  H1  1  0.96270  0.36823  0.56274  1
 H  H2  1  0.74699  0.04972  0.35244  1
 H  H3  1  0.74757  0.61408  0.62809  1
 H  H4  1  0.04595  0.88121  0.47102  1
 H  H5  1  0.95405  0.11879  0.52898  1
 H  H6  1  0.33472  0.76857  0.46598  1
 H  H7  1  0.66528  0.23143  0.53402  1
 H  H8  1  0.03730  0.63177  0.43726  1
 H  H9  1  0.77465  0.23630  0.08609  1
 H  H10  1  0.66837  0.79476  0.81135  1
 H  H11  1  0.65427  0.78514  0.34252  1
 H  H12  1  0.10262  0.19296  0.76112  1
 H  H13  1  0.89738  0.80704  0.23888  1
 H  H14  1  0.88947  0.59812  0.10159  1
 H  H15  1  0.91649  0.54879  0.26429  1
 H  H16  1  0.26109  0.81807  0.25412  1
 H  H17  1  0.38569  0.54921  0.82998  1
 H  H18  1  0.61431  0.45079  0.17002  1
 H  H19  1  0.51958  0.42782  0.70024  1
 H  H20  1  0.48042  0.57218  0.29976  1
 H  H21  1  0.75095  0.38275  0.89411  1
 H  H22  1  0.24905  0.61725  0.10589  1
 H  H23  1  0.49857  0.35884  0.98892  1
 H  H24  1  0.50143  0.64116  0.01108  1
 H  H25  1  0.73891  0.18193  0.74588  1
 H  H26  1  0.34573  0.21486  0.65748  1
 H  H27  1  0.81713  0.41952  0.42343  1
 H  H28  1  0.65509  0.85583  0.05370  1
 H  H29  1  0.52534  0.97518  0.18444  1
 H  H30  1  0.25243  0.38592  0.37191  1
 H  H31  1  0.69422  0.78891  0.57046  1
 H  H32  1  0.30578  0.21109  0.42954  1
 H  H33  1  0.95545  0.68119  0.80663  1
 H  H34  1  0.04455  0.31881  0.19337  1
 H  H35  1  0.33163  0.20524  0.18865  1
 H  H36  1  0.82349  0.97661  0.69248  1
 H  H37  1  0.17651  0.02339  0.30752  1
 H  H38  1  0.22535  0.76370  0.91391  1
 H  H39  1  0.68763  0.22451  0.29486  1
 H  H40  1  0.25301  0.95028  0.64756  1
 H  H41  1  0.11053  0.40188  0.89841  1
 H  H42  1  0.31237  0.77549  0.70514  1
 H  H43  1  0.08351  0.45121  0.73571  1
 H  H44  1  0.47466  0.02482  0.81556  1
 H  H45  1  0.34491  0.14417  0.94630  1
 H  H46  1  0.18287  0.58048  0.57657  1
