CIF file written using JARVIS-Tools package.
data_Li5MnOF5
_symmetry_space_group_name_H-M  'P3m1'
_cell_length_a       3.22324
_cell_length_b       3.22335
_cell_length_c       14.643
_cell_angle_alpha    90
_cell_angle_beta     89.9984
_cell_angle_gamma    120.001

_symmetry_Int_Tables_number  156
_chemical_formula_structural  Li5MnOF5
_chemical_formula_sum  Li5MnOF5
_cell_volume  131.75188235228597
_cell_formula_units_Z  1
loop_
  _symmetry_equiv_pos_site_id
 _symmetry_equiv_pos_as_xyz
 1  'x, y, z'
loop_
 _atom_site_type_symbol
 _atom_site_label
 _atom_site_symmetry_multiplicity
 _atom_site_fract_x
 _atom_site_fract_y
 _atom_site_fract_z
 _atom_site_fract_occupancy
 F  F1  1  0.33340  0.66675  0.46573  1
 F  F2  1  0.33335  0.66673  0.14693  1
 F  F3  1  0.33330  0.66670  0.78507  1
 F  F4  1  0.66671  0.33341  0.30604  1
 F  F5  1  0.66669  0.33340  0.62535  1
 Li  Li1  1  0.33339  0.66674  0.33854  1
 Li  Li2  1  0.33336  0.66673  0.65778  1
 Li  Li3  1  0.66666  0.33338  0.17883  1
 Li  Li4  1  0.66671  0.33341  0.49819  1
 Li  Li5  1  0.66661  0.33335  0.81878  1
 Mn  Mn1  1  0.33323  0.66666  0.99182  1
 O  O1  1  0.66658  0.33334  0.95294  1
