CIF file written using JARVIS-Tools package.
data_HPbClO
_symmetry_space_group_name_H-M  'Pnma'
_cell_length_a       4.03918
_cell_length_b       7.1052
_cell_length_c       9.78639
_cell_angle_alpha    90
_cell_angle_beta     90
_cell_angle_gamma    90

_symmetry_Int_Tables_number  62
_chemical_formula_structural  HPbClO
_chemical_formula_sum  H4Pb4Cl4O4
_cell_volume  280.8614768357904
_cell_formula_units_Z  4
loop_
  _symmetry_equiv_pos_site_id
 _symmetry_equiv_pos_as_xyz
 1  'x, y, z'
loop_
 _atom_site_type_symbol
 _atom_site_label
 _atom_site_symmetry_multiplicity
 _atom_site_fract_x
 _atom_site_fract_y
 _atom_site_fract_z
 _atom_site_fract_occupancy
 Cl  Cl1  1  0.25000  0.05642  0.32216  1
 Cl  Cl2  1  0.25000  0.55642  0.17784  1
 Cl  Cl3  1  0.75000  0.94358  0.67784  1
 Cl  Cl4  1  0.75000  0.44358  0.82216  1
 H  H1  1  0.25000  0.72061  0.61684  1
 H  H2  1  0.25000  0.22061  0.88316  1
 H  H3  1  0.75000  0.27939  0.38316  1
 H  H4  1  0.75000  0.77939  0.11684  1
 O  O1  1  0.25000  0.63029  0.54114  1
 O  O2  1  0.25000  0.13029  0.95886  1
 O  O3  1  0.75000  0.36971  0.45886  1
 O  O4  1  0.75000  0.86971  0.04114  1
 Pb  Pb1  1  0.25000  0.29486  0.58945  1
 Pb  Pb2  1  0.25000  0.79486  0.91055  1
 Pb  Pb3  1  0.75000  0.70514  0.41055  1
 Pb  Pb4  1  0.75000  0.20514  0.08945  1
