CIF file written using JARVIS-Tools package.
data_Na4S2O5
_symmetry_space_group_name_H-M  'P1'
_cell_length_a       5.35806
_cell_length_b       5.29317
_cell_length_c       6.08287
_cell_angle_alpha    93.3674
_cell_angle_beta     85.1993
_cell_angle_gamma    117.333

_symmetry_Int_Tables_number  1
_chemical_formula_structural  Na4S2O5
_chemical_formula_sum  Na4S2O5
_cell_volume  152.67797112369317
_cell_formula_units_Z  1
loop_
  _symmetry_equiv_pos_site_id
 _symmetry_equiv_pos_as_xyz
 1  'x, y, z'
loop_
 _atom_site_type_symbol
 _atom_site_label
 _atom_site_symmetry_multiplicity
 _atom_site_fract_x
 _atom_site_fract_y
 _atom_site_fract_z
 _atom_site_fract_occupancy
 Na  Na1  1  0.65967  0.32585  0.36558  1
 Na  Na2  1  0.01644  -0.00024  0.03016  1
 Na  Na3  1  0.01048  -0.00223  0.53583  1
 Na  Na4  1  0.34880  0.66074  0.69824  1
 O  O1  1  0.39593  0.21714  0.74043  1
 O  O2  1  0.89285  0.62435  0.76454  1
 O  O3  1  0.25939  0.88595  0.26098  1
 O  O4  1  0.13308  0.38566  0.30387  1
 O  O5  1  0.61926  0.75394  0.33145  1
 S  S1  1  0.68684  0.31378  0.85821  1
 S  S2  1  0.35726  0.66205  0.19670  1
