CIF file written using JARVIS-Tools package.
data_ThNiGe2
_symmetry_space_group_name_H-M  'Cmcm'
_cell_length_a       8.57733
_cell_length_b       8.57732
_cell_length_c       4.28726
_cell_angle_alpha    90
_cell_angle_beta     90
_cell_angle_gamma    151.333

_symmetry_Int_Tables_number  63
_chemical_formula_structural  ThNiGe2
_chemical_formula_sum  Th2Ni2Ge4
_cell_volume  151.30893935939412
_cell_formula_units_Z  2
loop_
  _symmetry_equiv_pos_site_id
 _symmetry_equiv_pos_as_xyz
 1  'x, y, z'
loop_
 _atom_site_type_symbol
 _atom_site_label
 _atom_site_symmetry_multiplicity
 _atom_site_fract_x
 _atom_site_fract_y
 _atom_site_fract_z
 _atom_site_fract_occupancy
 Ge  Ge1  1  0.95894  0.04106  0.75000  1
 Ge  Ge2  1  0.04106  0.95894  0.25000  1
 Ge  Ge3  1  0.25051  0.74949  0.75000  1
 Ge  Ge4  1  0.74949  0.25051  0.25000  1
 Ni  Ni1  1  0.81874  0.18126  0.75000  1
 Ni  Ni2  1  0.18126  0.81874  0.25000  1
 Th  Th1  1  0.60747  0.39253  0.75000  1
 Th  Th2  1  0.39253  0.60747  0.25000  1
