CIF file written using JARVIS-Tools package.
data_Cd2P3I
_symmetry_space_group_name_H-M  'C2/c'
_cell_length_a       6.29115
_cell_length_b       6.29116
_cell_length_c       7.59545
_cell_angle_alpha    96.4587
_cell_angle_beta     96.4587
_cell_angle_gamma    96.7697

_symmetry_Int_Tables_number  15
_chemical_formula_structural  Cd2P3I
_chemical_formula_sum  Cd4P6I2
_cell_volume  294.20853289709237
_cell_formula_units_Z  2
loop_
  _symmetry_equiv_pos_site_id
 _symmetry_equiv_pos_as_xyz
 1  'x, y, z'
loop_
 _atom_site_type_symbol
 _atom_site_label
 _atom_site_symmetry_multiplicity
 _atom_site_fract_x
 _atom_site_fract_y
 _atom_site_fract_z
 _atom_site_fract_occupancy
 Cd  Cd1  1  0.14331  0.85625  0.49436  1
 Cd  Cd2  1  0.63818  0.35099  0.42100  1
 Cd  Cd3  1  0.35099  0.63818  0.92100  1
 Cd  Cd4  1  0.85625  0.14331  0.99436  1
 I  I1  1  0.36713  0.12722  0.95764  1
 I  I2  1  0.12722  0.36713  0.45764  1
 P  P1  1  0.94283  0.55148  0.95766  1
 P  P2  1  0.68156  0.58882  0.74352  1
 P  P3  1  0.58882  0.68156  0.24352  1
 P  P4  1  0.55148  0.94283  0.45766  1
 P  P5  1  0.90551  0.81273  0.17182  1
 P  P6  1  0.81273  0.90551  0.67182  1
