CIF file written using JARVIS-Tools package.
data_RbFeSe2
_symmetry_space_group_name_H-M  'C2/c'
_cell_length_a       5.64084
_cell_length_b       6.96378
_cell_length_c       6.96378
_cell_angle_alpha    116.829
_cell_angle_beta     101.754
_cell_angle_gamma    101.754

_symmetry_Int_Tables_number  15
_chemical_formula_structural  RbFeSe2
_chemical_formula_sum  Rb2Fe2Se4
_cell_volume  224.88479676304567
_cell_formula_units_Z  2
loop_
  _symmetry_equiv_pos_site_id
 _symmetry_equiv_pos_as_xyz
 1  'x, y, z'
loop_
 _atom_site_type_symbol
 _atom_site_label
 _atom_site_symmetry_multiplicity
 _atom_site_fract_x
 _atom_site_fract_y
 _atom_site_fract_z
 _atom_site_fract_occupancy
 Fe  Fe1  1  0.75000  0.00123  0.99877  1
 Fe  Fe2  1  0.25000  0.99877  0.00123  1
 Rb  Rb1  1  0.75000  0.63936  0.36064  1
 Rb  Rb2  1  0.25000  0.36064  0.63936  1
 Se  Se1  1  0.90316  0.69639  0.91992  1
 Se  Se2  1  0.40316  0.91992  0.69639  1
 Se  Se3  1  0.59684  0.08008  0.30361  1
 Se  Se4  1  0.09684  0.30361  0.08008  1
