CIF file written using JARVIS-Tools package.
data_YbCO3
_symmetry_space_group_name_H-M  'Pnma'
_cell_length_a       4.89519
_cell_length_b       5.56027
_cell_length_c       7.76505
_cell_angle_alpha    90.0011
_cell_angle_beta     89.999
_cell_angle_gamma    90.0037

_symmetry_Int_Tables_number  62
_chemical_formula_structural  YbCO3
_chemical_formula_sum  Yb4C4O2
_cell_volume  211.35412895412284
_cell_formula_units_Z  4
loop_
  _symmetry_equiv_pos_site_id
 _symmetry_equiv_pos_as_xyz
 1  'x, y, z'
loop_
 _atom_site_type_symbol
 _atom_site_label
 _atom_site_symmetry_multiplicity
 _atom_site_fract_x
 _atom_site_fract_y
 _atom_site_fract_z
 _atom_site_fract_occupancy
 C  C1  1  0.25003  0.91053  0.26479  1
 C  C2  1  0.75000  0.58947  0.76479  1
 C  C3  1  0.25000  0.41053  0.23521  1
 C  C4  1  0.74997  0.08947  0.73521  1
 O  O1  1  0.25000  0.39668  0.06984  1
 O  O2  1  0.47824  0.91003  0.18020  1
 O  O3  1  0.97818  0.08996  0.81980  1
 O  O4  1  0.25002  0.89668  0.43016  1
 O  O5  1  0.75000  0.60332  0.93016  1
 O  O6  1  0.02182  0.91004  0.18020  1
 O  O7  1  0.97820  0.58997  0.68019  1
 O  O8  1  0.52176  0.08997  0.81980  1
 O  O9  1  0.47821  0.41003  0.31980  1
 O  O10  1  0.52179  0.58997  0.68020  1
 O  O11  1  0.74998  0.10332  0.56984  1
 O  O12  1  0.02180  0.41003  0.31981  1
 Yb  Yb1  1  0.75002  0.23810  0.08502  1
 Yb  Yb2  1  0.24999  0.26190  0.58502  1
 Yb  Yb3  1  0.75001  0.73810  0.41498  1
 Yb  Yb4  1  0.24998  0.76190  0.91498  1
