CIF file written using JARVIS-Tools package.
data_TiSe2O6
_symmetry_space_group_name_H-M  'P2_1/c'
_cell_length_a       4.77797
_cell_length_b       8.37514
_cell_length_c       6.75472
_cell_angle_alpha    90
_cell_angle_beta     109.772
_cell_angle_gamma    90

_symmetry_Int_Tables_number  14
_chemical_formula_structural  TiSe2O6
_chemical_formula_sum  Ti2Se4O2
_cell_volume  254.3626025105233
_cell_formula_units_Z  2
loop_
  _symmetry_equiv_pos_site_id
 _symmetry_equiv_pos_as_xyz
 1  'x, y, z'
loop_
 _atom_site_type_symbol
 _atom_site_label
 _atom_site_symmetry_multiplicity
 _atom_site_fract_x
 _atom_site_fract_y
 _atom_site_fract_z
 _atom_site_fract_occupancy
 O  O1  1  0.76024  0.16139  0.16957  1
 O  O2  1  0.17016  0.15674  0.90494  1
 O  O3  1  0.82984  0.65674  0.59506  1
 O  O4  1  0.60589  0.45282  0.24644  1
 O  O5  1  0.17016  0.34326  0.40494  1
 O  O6  1  0.82984  0.84326  0.09506  1
 O  O7  1  0.39411  0.54718  0.75356  1
 O  O8  1  0.23976  0.66139  0.33043  1
 O  O9  1  0.39411  0.95282  0.25356  1
 O  O10  1  0.76024  0.33861  0.66957  1
 O  O11  1  0.23976  0.83861  0.83043  1
 O  O12  1  0.60589  0.04718  0.74644  1
 Se  Se1  1  0.12651  0.85861  0.32846  1
 Se  Se2  1  0.87349  0.35861  0.17154  1
 Se  Se3  1  0.87349  0.14139  0.67154  1
 Se  Se4  1  0.12651  0.64139  0.82846  1
 Ti  Ti1  1  0.50000  0.00000  -0.00000  1
 Ti  Ti2  1  0.50000  0.50000  0.50000  1
