CIF file written using JARVIS-Tools package.
data_AlCr2
_symmetry_space_group_name_H-M  'I4/mmm'
_cell_length_a       2.94919
_cell_length_b       2.94919
_cell_length_c       4.81156
_cell_angle_alpha    107.847
_cell_angle_beta     107.847
_cell_angle_gamma    89.9999

_symmetry_Int_Tables_number  139
_chemical_formula_structural  AlCr2
_chemical_formula_sum  AlCr2
_cell_volume  37.71467384924667
_cell_formula_units_Z  1
loop_
  _symmetry_equiv_pos_site_id
 _symmetry_equiv_pos_as_xyz
 1  'x, y, z'
loop_
 _atom_site_type_symbol
 _atom_site_label
 _atom_site_symmetry_multiplicity
 _atom_site_fract_x
 _atom_site_fract_y
 _atom_site_fract_z
 _atom_site_fract_occupancy
 Al  Al1  1  0.00000  0.00000  0.00000  1
 Cr  Cr1  1  0.31508  0.31508  0.63015  1
 Cr  Cr2  1  0.68492  0.68492  0.36985  1
