CIF file written using JARVIS-Tools package.
data_MgBi2O6
_symmetry_space_group_name_H-M  'P4_2/mnm'
_cell_length_a       4.91486
_cell_length_b       4.91486
_cell_length_c       9.96899
_cell_angle_alpha    90
_cell_angle_beta     90
_cell_angle_gamma    90

_symmetry_Int_Tables_number  136
_chemical_formula_structural  MgBi2O6
_chemical_formula_sum  Mg2Bi4O2
_cell_volume  240.80980147238634
_cell_formula_units_Z  2
loop_
  _symmetry_equiv_pos_site_id
 _symmetry_equiv_pos_as_xyz
 1  'x, y, z'
loop_
 _atom_site_type_symbol
 _atom_site_label
 _atom_site_symmetry_multiplicity
 _atom_site_fract_x
 _atom_site_fract_y
 _atom_site_fract_z
 _atom_site_fract_occupancy
 Bi  Bi1  1  0.50000  0.50000  0.83331  1
 Bi  Bi2  1  0.00000  0.00000  0.33331  1
 Bi  Bi3  1  0.50000  0.50000  0.16669  1
 Bi  Bi4  1  0.00000  0.00000  0.66669  1
 Mg  Mg1  1  0.00000  0.00000  0.00000  1
 Mg  Mg2  1  0.50000  0.50000  0.50000  1
 O  O1  1  0.69053  0.69053  0.66322  1
 O  O2  1  0.30947  0.30947  0.66322  1
 O  O3  1  0.30947  0.30947  0.33678  1
 O  O4  1  0.19053  0.80947  0.16322  1
 O  O5  1  0.69053  0.69053  0.33678  1
 O  O6  1  0.19939  0.80061  0.50000  1
 O  O7  1  0.30061  0.30061  0.00000  1
 O  O8  1  0.80947  0.19053  0.16322  1
 O  O9  1  0.80061  0.19939  0.50000  1
 O  O10  1  0.69939  0.69939  0.00000  1
 O  O11  1  0.80947  0.19053  0.83678  1
 O  O12  1  0.19053  0.80947  0.83678  1
