CIF file written using JARVIS-Tools package.
data_InTeClO3
_symmetry_space_group_name_H-M  'P2_1/c'
_cell_length_a       6.93192
_cell_length_b       7.18199
_cell_length_c       8.35051
_cell_angle_alpha    103.353
_cell_angle_beta     90
_cell_angle_gamma    90

_symmetry_Int_Tables_number  14
_chemical_formula_structural  InTeClO3
_chemical_formula_sum  In4Te4Cl4O2
_cell_volume  404.4904636554392
_cell_formula_units_Z  4
loop_
  _symmetry_equiv_pos_site_id
 _symmetry_equiv_pos_as_xyz
 1  'x, y, z'
loop_
 _atom_site_type_symbol
 _atom_site_label
 _atom_site_symmetry_multiplicity
 _atom_site_fract_x
 _atom_site_fract_y
 _atom_site_fract_z
 _atom_site_fract_occupancy
 Cl  Cl1  1  0.70687  0.61153  0.91023  1
 Cl  Cl2  1  0.29313  0.38847  0.08977  1
 Cl  Cl3  1  0.79313  0.11153  0.91023  1
 Cl  Cl4  1  0.20687  0.88847  0.08977  1
 In  In1  1  0.24985  0.20184  0.32158  1
 In  In2  1  0.25015  0.70184  0.32158  1
 In  In3  1  0.74985  0.29816  0.67842  1
 In  In4  1  0.75015  0.79816  0.67842  1
 O  O1  1  0.55523  0.74337  0.31481  1
 O  O2  1  0.28360  0.49238  0.47220  1
 O  O3  1  0.44477  0.25663  0.68519  1
 O  O4  1  0.55476  0.15480  0.31014  1
 O  O5  1  0.94524  0.65480  0.31014  1
 O  O6  1  0.05476  0.34520  0.68986  1
 O  O7  1  0.44524  0.84520  0.68986  1
 O  O8  1  0.05523  0.75663  0.68519  1
 O  O9  1  0.21640  0.99238  0.47220  1
 O  O10  1  0.71640  0.50762  0.52780  1
 O  O11  1  0.78360  0.00762  0.52780  1
 O  O12  1  0.94477  0.24337  0.31481  1
 Te  Te1  1  0.26819  0.05656  0.70829  1
 Te  Te2  1  0.73181  0.94344  0.29171  1
 Te  Te3  1  0.23181  0.55656  0.70829  1
 Te  Te4  1  0.76819  0.44344  0.29171  1
