CIF file written using JARVIS-Tools package.
data_PbI2
_symmetry_space_group_name_H-M  'R-3m'
_cell_length_a       14.365
_cell_length_b       14.365
_cell_length_c       14.365
_cell_angle_alpha    18.3606
_cell_angle_beta     18.3606
_cell_angle_gamma    18.3606

_symmetry_Int_Tables_number  166
_chemical_formula_structural  PbI2
_chemical_formula_sum  Pb2I4
_cell_volume  256.89750077822686
_cell_formula_units_Z  2
loop_
  _symmetry_equiv_pos_site_id
 _symmetry_equiv_pos_as_xyz
 1  'x, y, z'
loop_
 _atom_site_type_symbol
 _atom_site_label
 _atom_site_symmetry_multiplicity
 _atom_site_fract_x
 _atom_site_fract_y
 _atom_site_fract_z
 _atom_site_fract_occupancy
 I  I1  1  0.12188  0.12188  0.12188  1
 I  I2  1  0.87812  0.87812  0.87812  1
 I  I3  1  0.28854  0.28854  0.28854  1
 I  I4  1  0.71146  0.71146  0.71146  1
 Pb  Pb1  1  0.00000  0.00000  0.00000  1
 Pb  Pb2  1  0.50000  0.50000  0.50000  1
