CIF file written using JARVIS-Tools package.
data_LiCuCO3
_symmetry_space_group_name_H-M  'P-6'
_cell_length_a       8.28096
_cell_length_b       2.95986
_cell_length_c       8.28098
_cell_angle_alpha    90
_cell_angle_beta     120
_cell_angle_gamma    90

_symmetry_Int_Tables_number  174
_chemical_formula_structural  LiCuCO3
_chemical_formula_sum  Li3Cu3C3O9
_cell_volume  175.777885410126
_cell_formula_units_Z  3
loop_
  _symmetry_equiv_pos_site_id
 _symmetry_equiv_pos_as_xyz
 1  'x, y, z'
loop_
 _atom_site_type_symbol
 _atom_site_label
 _atom_site_symmetry_multiplicity
 _atom_site_fract_x
 _atom_site_fract_y
 _atom_site_fract_z
 _atom_site_fract_occupancy
 C  C1  1  0.66667  0.50000  0.33333  1
 C  C2  1  0.33333  0.00000  0.66667  1
 C  C3  1  -0.00000  0.00000  0.00000  1
 Cu  Cu1  1  0.97843  0.00000  0.33375  1
 Cu  Cu2  1  0.66625  0.00000  0.64468  1
 Cu  Cu3  1  0.35532  0.00000  0.02157  1
 Li  Li1  1  0.67081  0.50000  0.96834  1
 Li  Li2  1  0.03166  0.50000  0.70247  1
 Li  Li3  1  0.29753  0.50000  0.32919  1
 O  O1  1  0.51283  0.00000  0.77453  1
 O  O2  1  0.22547  0.00000  0.73830  1
 O  O3  1  0.94408  0.00000  0.82282  1
 O  O4  1  0.84823  0.50000  0.43021  1
 O  O5  1  0.56978  0.50000  0.41801  1
 O  O6  1  0.87873  0.00000  0.05592  1
 O  O7  1  0.58199  0.50000  0.15177  1
 O  O8  1  0.17719  0.00000  0.12127  1
 O  O9  1  0.26170  0.00000  0.48717  1
