CIF file written using JARVIS-Tools package.
data_Te4Mo3WS4
_symmetry_space_group_name_H-M  'P3m1'
_cell_length_a       3.3645
_cell_length_b       3.36451
_cell_length_c       40.9412
_cell_angle_alpha    90.001
_cell_angle_beta     90
_cell_angle_gamma    120

_symmetry_Int_Tables_number  156
_chemical_formula_structural  Te4Mo3WS4
_chemical_formula_sum  Te4Mo3WS4
_cell_volume  401.359575355999
_cell_formula_units_Z  1
loop_
  _symmetry_equiv_pos_site_id
 _symmetry_equiv_pos_as_xyz
 1  'x, y, z'
loop_
 _atom_site_type_symbol
 _atom_site_label
 _atom_site_symmetry_multiplicity
 _atom_site_fract_x
 _atom_site_fract_y
 _atom_site_fract_z
 _atom_site_fract_occupancy
 Mo  Mo1  1  0.33340  0.66680  0.09077  1
 Mo  Mo2  1  0.33327  0.66654  0.46991  1
 Mo  Mo3  1  0.66665  0.33330  0.28476  1
 S  S1  1  0.33335  0.66671  0.69442  1
 S  S2  1  0.66659  0.33318  0.43300  1
 S  S3  1  0.66663  0.33325  0.50682  1
 S  S4  1  0.33334  0.66668  0.62042  1
 Te  Te1  1  0.33331  0.66663  0.33095  1
 Te  Te2  1  0.66673  0.33347  0.04477  1
 Te  Te3  1  0.66673  0.33346  0.13690  1
 Te  Te4  1  0.33331  0.66663  0.23860  1
 W  W1  1  0.66668  0.33336  0.65744  1
