CIF file written using JARVIS-Tools package.
data_HgMo6S8
_symmetry_space_group_name_H-M  'R-3'
_cell_length_a       6.57575
_cell_length_b       6.57589
_cell_length_c       6.57591
_cell_angle_alpha    92.8465
_cell_angle_beta     92.8435
_cell_angle_gamma    92.849

_symmetry_Int_Tables_number  148
_chemical_formula_structural  HgMo6S8
_chemical_formula_sum  HgMo6S8
_cell_volume  283.2626352421902
_cell_formula_units_Z  1
loop_
  _symmetry_equiv_pos_site_id
 _symmetry_equiv_pos_as_xyz
 1  'x, y, z'
loop_
 _atom_site_type_symbol
 _atom_site_label
 _atom_site_symmetry_multiplicity
 _atom_site_fract_x
 _atom_site_fract_y
 _atom_site_fract_z
 _atom_site_fract_occupancy
 Hg  Hg1  1  0.00000  0.00000  0.00000  1
 Mo  Mo1  1  0.40954  0.22229  0.55400  1
 Mo  Mo2  1  0.22229  0.55399  0.40955  1
 Mo  Mo3  1  0.55400  0.40954  0.22229  1
 Mo  Mo4  1  0.44600  0.59046  0.77771  1
 Mo  Mo5  1  0.77771  0.44601  0.59045  1
 Mo  Mo6  1  0.59046  0.77771  0.44600  1
 S  S1  1  0.62053  0.27493  0.86981  1
 S  S2  1  0.27494  0.86981  0.62054  1
 S  S3  1  0.22690  0.22690  0.22692  1
 S  S4  1  0.86983  0.62053  0.27493  1
 S  S5  1  0.13017  0.37947  0.72507  1
 S  S6  1  0.77310  0.77310  0.77308  1
 S  S7  1  0.72506  0.13019  0.37946  1
 S  S8  1  0.37947  0.72507  0.13019  1
