CIF file written using JARVIS-Tools package.
data_Rb2ZrO3
_symmetry_space_group_name_H-M  'Cmc2_1'
_cell_length_a       6.53549
_cell_length_b       6.53549
_cell_length_c       5.91827
_cell_angle_alpha    90
_cell_angle_beta     90
_cell_angle_gamma    111.033

_symmetry_Int_Tables_number  36
_chemical_formula_structural  Rb2ZrO3
_chemical_formula_sum  Rb4Zr2O6
_cell_volume  235.94351711923008
_cell_formula_units_Z  2
loop_
  _symmetry_equiv_pos_site_id
 _symmetry_equiv_pos_as_xyz
 1  'x, y, z'
loop_
 _atom_site_type_symbol
 _atom_site_label
 _atom_site_symmetry_multiplicity
 _atom_site_fract_x
 _atom_site_fract_y
 _atom_site_fract_z
 _atom_site_fract_occupancy
 O  O1  1  0.13144  0.88068  0.49234  1
 O  O2  1  0.11932  0.86856  0.99234  1
 O  O3  1  0.65240  0.65240  0.71854  1
 O  O4  1  0.34760  0.34760  0.21854  1
 O  O5  1  0.86856  0.11932  0.99234  1
 O  O6  1  0.88068  0.13144  0.49234  1
 Rb  Rb1  1  0.48073  0.80663  0.24926  1
 Rb  Rb2  1  0.19337  0.51927  0.74926  1
 Rb  Rb3  1  0.51927  0.19337  0.74926  1
 Rb  Rb4  1  0.80663  0.48073  0.24926  1
 Zr  Zr1  1  0.91182  0.91182  0.73825  1
 Zr  Zr2  1  0.08818  0.08818  0.23825  1
