CIF file written using JARVIS-Tools package.
data_Li3MnP2HO8
_symmetry_space_group_name_H-M  'P-1'
_cell_length_a       5.03446
_cell_length_b       5.06462
_cell_length_c       6.19171
_cell_angle_alpha    90.7431
_cell_angle_beta     89.7286
_cell_angle_gamma    112.892

_symmetry_Int_Tables_number  2
_chemical_formula_structural  Li3MnP2HO8
_chemical_formula_sum  Li3MnP2HO8
_cell_volume  145.42701215084776
_cell_formula_units_Z  1
loop_
  _symmetry_equiv_pos_site_id
 _symmetry_equiv_pos_as_xyz
 1  'x, y, z'
loop_
 _atom_site_type_symbol
 _atom_site_label
 _atom_site_symmetry_multiplicity
 _atom_site_fract_x
 _atom_site_fract_y
 _atom_site_fract_z
 _atom_site_fract_occupancy
 H  H1  1  0.00000  0.50000  0.50000  1
 Li  Li1  1  0.61972  0.22375  0.75588  1
 Li  Li2  1  -0.00000  0.00000  0.50000  1
 Li  Li3  1  0.38028  0.77625  0.24412  1
 Mn  Mn1  1  0.00000  0.00000  0.00000  1
 O  O1  1  0.75450  0.25343  0.05094  1
 O  O2  1  0.78121  0.29578  0.45823  1
 O  O3  1  0.30936  0.19365  0.26593  1
 O  O4  1  0.27565  0.30902  0.75798  1
 O  O5  1  0.72435  0.69098  0.24202  1
 O  O6  1  0.69064  0.80635  0.73407  1
 O  O7  1  0.21879  0.70422  0.54177  1
 O  O8  1  0.24550  0.74657  0.94906  1
 P  P1  1  0.63882  0.36197  0.24828  1
 P  P2  1  0.36118  0.63803  0.75172  1
