CIF file written using JARVIS-Tools package.
data_PdCN2
_symmetry_space_group_name_H-M  'C2/m'
_cell_length_a       3.58552
_cell_length_b       5.1311
_cell_length_c       15.1568
_cell_angle_alpha    24.4956
_cell_angle_beta     99.2202
_cell_angle_gamma    77.1018

_symmetry_Int_Tables_number  12
_chemical_formula_structural  PdCN2
_chemical_formula_sum  PdCN2
_cell_volume  49.3481781641157
_cell_formula_units_Z  1
loop_
  _symmetry_equiv_pos_site_id
 _symmetry_equiv_pos_as_xyz
 1  'x, y, z'
loop_
 _atom_site_type_symbol
 _atom_site_label
 _atom_site_symmetry_multiplicity
 _atom_site_fract_x
 _atom_site_fract_y
 _atom_site_fract_z
 _atom_site_fract_occupancy
 C  C1  1  -0.00000  -0.00001  0.49999  1
 N  N1  1  0.00000  0.65424  0.54154  1
 N  N2  1  -0.00000  0.34568  0.45847  1
 Pd  Pd1  1  0.00000  -0.00001  -0.00000  1
