CIF file written using JARVIS-Tools package.
data_Te2Mo3WSe4S2
_symmetry_space_group_name_H-M  'P3m1'
_cell_length_a       3.34793
_cell_length_b       3.34791
_cell_length_c       35.0242
_cell_angle_alpha    89.9592
_cell_angle_beta     90.013
_cell_angle_gamma    119.999

_symmetry_Int_Tables_number  156
_chemical_formula_structural  Te2Mo3WSe4S2
_chemical_formula_sum  Te2Mo3WSe4S2
_cell_volume  339.97830487329543
_cell_formula_units_Z  1
loop_
  _symmetry_equiv_pos_site_id
 _symmetry_equiv_pos_as_xyz
 1  'x, y, z'
loop_
 _atom_site_type_symbol
 _atom_site_label
 _atom_site_symmetry_multiplicity
 _atom_site_fract_x
 _atom_site_fract_y
 _atom_site_fract_z
 _atom_site_fract_occupancy
 Mo  Mo1  1  0.33336  0.66653  0.09654  1
 Mo  Mo2  1  0.66675  0.33347  0.27709  1
 Mo  Mo3  1  0.66668  0.33350  0.66453  1
 S  S1  1  0.66676  0.33359  0.05322  1
 S  S2  1  0.66670  0.33296  0.13990  1
 Se  Se1  1  0.33332  0.66635  0.32464  1
 Se  Se2  1  0.66659  0.33353  0.41695  1
 Se  Se3  1  0.66646  0.33272  0.51262  1
 Se  Se4  1  0.33348  0.66721  0.22951  1
 Te  Te1  1  0.33324  0.66629  0.71870  1
 Te  Te2  1  0.33344  0.66735  0.61025  1
 W  W1  1  0.33321  0.66651  0.46479  1
