CIF file written using JARVIS-Tools package.
data_LiSmS2
_symmetry_space_group_name_H-M  'R-3m'
_cell_length_a       6.58491
_cell_length_b       6.58491
_cell_length_c       6.58491
_cell_angle_alpha    35.2687
_cell_angle_beta     35.2687
_cell_angle_gamma    35.2688

_symmetry_Int_Tables_number  166
_chemical_formula_structural  LiSmS2
_chemical_formula_sum  LiSmS2
_cell_volume  85.03832636055772
_cell_formula_units_Z  1
loop_
  _symmetry_equiv_pos_site_id
 _symmetry_equiv_pos_as_xyz
 1  'x, y, z'
loop_
 _atom_site_type_symbol
 _atom_site_label
 _atom_site_symmetry_multiplicity
 _atom_site_fract_x
 _atom_site_fract_y
 _atom_site_fract_z
 _atom_site_fract_occupancy
 Li  Li1  1  0.00000  0.00000  0.00000  1
 S  S1  1  0.25231  0.25231  0.25231  1
 S  S2  1  0.74769  0.74769  0.74769  1
 Sm  Sm1  1  0.50000  0.50000  0.50000  1
