CIF file written using JARVIS-Tools package.
data_H5C8SNO
_symmetry_space_group_name_H-M  'P1'
_cell_length_a       3.76394
_cell_length_b       9.10622
_cell_length_c       10.4104
_cell_angle_alpha    73.8968
_cell_angle_beta     82.3045
_cell_angle_gamma    82.8878

_symmetry_Int_Tables_number  1
_chemical_formula_structural  H5C8SNO
_chemical_formula_sum  H0C6S2N2O2
_cell_volume  338.3194852582256
_cell_formula_units_Z  2
loop_
  _symmetry_equiv_pos_site_id
 _symmetry_equiv_pos_as_xyz
 1  'x, y, z'
loop_
 _atom_site_type_symbol
 _atom_site_label
 _atom_site_symmetry_multiplicity
 _atom_site_fract_x
 _atom_site_fract_y
 _atom_site_fract_z
 _atom_site_fract_occupancy
 C  C1  1  0.20688  0.92005  0.31610  1
 C  C2  1  0.88777  0.03121  0.50428  1
 C  C3  1  0.80539  0.25159  0.81796  1
 C  C4  1  0.30539  0.75159  0.31796  1
 C  C5  1  0.49943  0.67973  0.97271  1
 C  C6  1  0.99943  0.17973  0.47271  1
 C  C7  1  0.44588  0.76063  0.07077  1
 C  C8  1  0.38777  0.53121  0.00429  1
 C  C9  1  0.94588  0.26063  0.57077  1
 C  C10  1  0.29926  0.69152  0.20275  1
 C  C11  1  0.79926  0.19152  0.70275  1
 C  C12  1  0.67167  0.04503  0.72977  1
 C  C13  1  0.17167  0.54503  0.22977  1
 C  C14  1  0.70458  0.96856  0.63175  1
 C  C15  1  0.20458  0.46856  0.13175  1
 C  C16  1  0.70688  0.42005  0.81611  1
 H  H1  1  0.10313  0.35606  0.15276  1
 H  H2  1  0.54693  0.87285  0.04888  1
 H  H3  1  0.60313  0.85606  0.65276  1
 H  H4  1  0.36465  0.32527  0.97291  1
 H  H5  1  0.86465  0.82527  0.47291  1
 H  H6  1  0.03795  0.49553  0.32892  1
 H  H7  1  0.04693  0.37285  0.54888  1
 H  H8  1  0.64249  0.72712  0.87484  1
 H  H9  1  0.14249  0.22712  0.37484  1
 H  H10  1  0.53795  0.99553  0.82892  1
 N  N1  1  0.45801  0.42924  0.92418  1
 N  N2  1  0.95801  0.92924  0.42418  1
 O  O1  1  0.84892  0.52812  0.73457  1
 O  O2  1  0.34892  0.02812  0.23457  1
 S  S1  1  0.92523  0.13756  0.96263  1
 S  S2  1  0.42523  0.63756  0.46263  1
