CIF file written using JARVIS-Tools package.
data_UP
_symmetry_space_group_name_H-M  'Fm-3m'
_cell_length_a       5.58563
_cell_length_b       5.58563
_cell_length_c       5.58563
_cell_angle_alpha    89.9982
_cell_angle_beta     89.9982
_cell_angle_gamma    89.9981

_symmetry_Int_Tables_number  225
_chemical_formula_structural  UP
_chemical_formula_sum  U4P4
_cell_volume  174.267259340444
_cell_formula_units_Z  4
loop_
  _symmetry_equiv_pos_site_id
 _symmetry_equiv_pos_as_xyz
 1  'x, y, z'
loop_
 _atom_site_type_symbol
 _atom_site_label
 _atom_site_symmetry_multiplicity
 _atom_site_fract_x
 _atom_site_fract_y
 _atom_site_fract_z
 _atom_site_fract_occupancy
 P  P1  1  0.00000  0.50000  -0.00000  1
 P  P2  1  0.50000  -0.00000  0.00000  1
 P  P3  1  -0.00000  -0.00000  0.50000  1
 P  P4  1  0.50000  0.50000  0.50000  1
 U  U1  1  0.50000  -0.00000  0.50000  1
 U  U2  1  0.00000  0.50000  0.50000  1
 U  U3  1  0.50000  0.50000  0.00000  1
 U  U4  1  0.00000  0.00000  0.00000  1
