CIF file written using JARVIS-Tools package.
data_Mn4S3N2
_symmetry_space_group_name_H-M  'C2/m'
_cell_length_a       5.85894
_cell_length_b       3.20253
_cell_length_c       9.02586
_cell_angle_alpha    90
_cell_angle_beta     49.1425
_cell_angle_gamma    74.1391

_symmetry_Int_Tables_number  12
_chemical_formula_structural  Mn4S3N2
_chemical_formula_sum  Mn4S3N2
_cell_volume  119.43560700957828
_cell_formula_units_Z  1
loop_
  _symmetry_equiv_pos_site_id
 _symmetry_equiv_pos_as_xyz
 1  'x, y, z'
loop_
 _atom_site_type_symbol
 _atom_site_label
 _atom_site_symmetry_multiplicity
 _atom_site_fract_x
 _atom_site_fract_y
 _atom_site_fract_z
 _atom_site_fract_occupancy
 Mn  Mn1  1  0.30757  0.84622  0.63901  1
 Mn  Mn2  1  0.69243  0.15378  0.36099  1
 Mn  Mn3  1  0.56713  0.71644  0.13787  1
 Mn  Mn4  1  0.43287  0.28356  0.86213  1
 N  N1  1  0.48701  0.75649  0.37680  1
 N  N2  1  0.51299  0.24351  0.62320  1
 S  S1  1  0.00000  0.00000  0.00000  1
 S  S2  1  0.81255  0.59372  0.78412  1
 S  S3  1  0.18745  0.40628  0.21588  1
