CIF file written using JARVIS-Tools package.
data_Sm4U2O11
_symmetry_space_group_name_H-M  'C2'
_cell_length_a       7.56604
_cell_length_b       6.79794
_cell_length_c       5.48206
_cell_angle_alpha    66.2207
_cell_angle_beta     90
_cell_angle_gamma    106.195

_symmetry_Int_Tables_number  5
_chemical_formula_structural  Sm4U2O11
_chemical_formula_sum  Sm4U2O
_cell_volume  245.74829744644006
_cell_formula_units_Z  1
loop_
  _symmetry_equiv_pos_site_id
 _symmetry_equiv_pos_as_xyz
 1  'x, y, z'
loop_
 _atom_site_type_symbol
 _atom_site_label
 _atom_site_symmetry_multiplicity
 _atom_site_fract_x
 _atom_site_fract_y
 _atom_site_fract_z
 _atom_site_fract_occupancy
 O  O1  1  0.92277  0.64428  0.42566  1
 O  O2  1  0.08333  0.33333  0.08030  1
 O  O3  1  0.28227  0.98823  0.23708  1
 O  O4  1  0.88440  0.67843  0.89198  1
 O  O5  1  0.58333  0.33333  0.04923  1
 O  O6  1  0.72102  0.96654  0.28611  1
 O  O7  1  0.58333  0.33333  0.58161  1
 O  O8  1  0.76653  0.05077  0.75748  1
 O  O9  1  0.44565  0.70013  0.91931  1
 O  O10  1  0.24390  0.02238  0.73661  1
 O  O11  1  0.40014  0.61590  0.47491  1
 Sm  Sm1  1  0.16928  0.69085  0.68171  1
 Sm  Sm2  1  0.34315  0.33013  0.31204  1
 Sm  Sm3  1  0.82352  0.33653  0.30885  1
 Sm  Sm4  1  0.99738  0.97582  0.03922  1
 U  U1  1  0.65600  0.65059  0.65866  1
 U  U2  1  0.51067  0.01608  0.97591  1
