CIF file written using JARVIS-Tools package.
data_HoAu4
_symmetry_space_group_name_H-M  'I4/m'
_cell_length_a       4.21173
_cell_length_b       5.22473
_cell_length_c       5.22473
_cell_angle_alpha    80.6506
_cell_angle_beta     66.2306
_cell_angle_gamma    66.2306

_symmetry_Int_Tables_number  87
_chemical_formula_structural  HoAu4
_chemical_formula_sum  HoAu4
_cell_volume  96.29339284346015
_cell_formula_units_Z  1
loop_
  _symmetry_equiv_pos_site_id
 _symmetry_equiv_pos_as_xyz
 1  'x, y, z'
loop_
 _atom_site_type_symbol
 _atom_site_label
 _atom_site_symmetry_multiplicity
 _atom_site_fract_x
 _atom_site_fract_y
 _atom_site_fract_z
 _atom_site_fract_occupancy
 Au  Au1  1  0.59915  0.60044  0.20126  1
 Au  Au2  1  0.40085  0.39956  0.79874  1
 Au  Au3  1  0.80041  0.79874  0.60044  1
 Au  Au4  1  0.19959  0.20126  0.39956  1
 Ho  Ho1  1  0.00000  0.00000  0.00000  1
