CIF file written using JARVIS-Tools package.
data_ZnPb2N2
_symmetry_space_group_name_H-M  'P-3m1'
_cell_length_a       3.65445
_cell_length_b       3.65383
_cell_length_c       11.132
_cell_angle_alpha    90
_cell_angle_beta     119.508
_cell_angle_gamma    119.994

_symmetry_Int_Tables_number  164
_chemical_formula_structural  ZnPb2N2
_chemical_formula_sum  ZnPb2N2
_cell_volume  105.89018820490172
_cell_formula_units_Z  1
loop_
  _symmetry_equiv_pos_site_id
 _symmetry_equiv_pos_as_xyz
 1  'x, y, z'
loop_
 _atom_site_type_symbol
 _atom_site_label
 _atom_site_symmetry_multiplicity
 _atom_site_fract_x
 _atom_site_fract_y
 _atom_site_fract_z
 _atom_site_fract_occupancy
 N  N1  1  0.40120  0.20060  0.70044  1
 N  N2  1  0.59880  0.79940  0.29956  1
 Pb  Pb1  1  0.69816  0.34908  0.18257  1
 Pb  Pb2  1  0.30184  0.65092  0.81743  1
 Zn  Zn1  1  -0.00000  -0.00000  0.50000  1
