CIF file written using JARVIS-Tools package.
data_Cd2P3Br
_symmetry_space_group_name_H-M  'C2/c'
_cell_length_a       6.15039
_cell_length_b       6.15039
_cell_length_c       7.6045
_cell_angle_alpha    96.9608
_cell_angle_beta     96.9608
_cell_angle_gamma    96.6982

_symmetry_Int_Tables_number  15
_chemical_formula_structural  Cd2P3Br
_chemical_formula_sum  Cd4P6Br2
_cell_volume  280.9038054702709
_cell_formula_units_Z  2
loop_
  _symmetry_equiv_pos_site_id
 _symmetry_equiv_pos_as_xyz
 1  'x, y, z'
loop_
 _atom_site_type_symbol
 _atom_site_label
 _atom_site_symmetry_multiplicity
 _atom_site_fract_x
 _atom_site_fract_y
 _atom_site_fract_z
 _atom_site_fract_occupancy
 Br  Br1  1  0.12324  0.37308  0.45660  1
 Br  Br2  1  0.37308  0.12324  0.95660  1
 Cd  Cd1  1  0.64399  0.35083  0.41309  1
 Cd  Cd2  1  0.35083  0.64399  0.91309  1
 Cd  Cd3  1  0.14552  0.85237  0.50030  1
 Cd  Cd4  1  0.85237  0.14552  0.00030  1
 P  P1  1  0.94488  0.55144  0.95666  1
 P  P2  1  0.55144  0.94488  0.45666  1
 P  P3  1  0.68051  0.58543  0.73905  1
 P  P4  1  0.58543  0.68051  0.23905  1
 P  P5  1  0.81580  0.91091  0.67429  1
 P  P6  1  0.91091  0.81580  0.17429  1
