CIF file written using JARVIS-Tools package.
data_LaCeMn2O6
_symmetry_space_group_name_H-M  'R32'
_cell_length_a       5.47118
_cell_length_b       5.47118
_cell_length_c       5.47118
_cell_angle_alpha    61.2237
_cell_angle_beta     61.2236
_cell_angle_gamma    61.2237

_symmetry_Int_Tables_number  155
_chemical_formula_structural  LaCeMn2O6
_chemical_formula_sum  LaCeMn2O6
_cell_volume  118.9921822044473
_cell_formula_units_Z  1
loop_
  _symmetry_equiv_pos_site_id
 _symmetry_equiv_pos_as_xyz
 1  'x, y, z'
loop_
 _atom_site_type_symbol
 _atom_site_label
 _atom_site_symmetry_multiplicity
 _atom_site_fract_x
 _atom_site_fract_y
 _atom_site_fract_z
 _atom_site_fract_occupancy
 Ce  Ce1  1  0.00000  0.00000  0.00000  1
 La  La1  1  0.50000  0.50000  0.50000  1
 Mn  Mn1  1  0.75015  0.75015  0.75015  1
 Mn  Mn2  1  0.24985  0.24985  0.24985  1
 O  O1  1  0.06599  0.93401  0.50000  1
 O  O2  1  0.50000  0.06599  0.93401  1
 O  O3  1  0.93401  0.50000  0.06599  1
 O  O4  1  -0.00000  0.42286  0.57714  1
 O  O5  1  0.57714  0.00000  0.42286  1
 O  O6  1  0.42286  0.57714  -0.00000  1
