CIF file written using JARVIS-Tools package.
data_Na3SbS4
_symmetry_space_group_name_H-M  'I-43m'
_cell_length_a       6.20133
_cell_length_b       6.20134
_cell_length_c       6.20133
_cell_angle_alpha    109.471
_cell_angle_beta     109.471
_cell_angle_gamma    109.471

_symmetry_Int_Tables_number  217
_chemical_formula_structural  Na3SbS4
_chemical_formula_sum  Na3SbS4
_cell_volume  183.58322665511906
_cell_formula_units_Z  1
loop_
  _symmetry_equiv_pos_site_id
 _symmetry_equiv_pos_as_xyz
 1  'x, y, z'
loop_
 _atom_site_type_symbol
 _atom_site_label
 _atom_site_symmetry_multiplicity
 _atom_site_fract_x
 _atom_site_fract_y
 _atom_site_fract_z
 _atom_site_fract_occupancy
 Na  Na1  1  0.50000  0.50000  0.00000  1
 Na  Na2  1  0.00000  0.50000  0.50000  1
 Na  Na3  1  0.50000  0.00000  0.50000  1
 S  S1  1  0.00000  0.00000  0.61678  1
 S  S2  1  0.38322  0.38322  0.38322  1
 S  S3  1  0.61678  -0.00000  -0.00000  1
 S  S4  1  -0.00000  0.61678  -0.00000  1
 Sb  Sb1  1  0.00000  0.00000  0.00000  1
