CIF file written using JARVIS-Tools package.
data_RuCl2O
_symmetry_space_group_name_H-M  'Immm'
_cell_length_a       3.56906
_cell_length_b       3.67666
_cell_length_c       6.17916
_cell_angle_alpha    107.335
_cell_angle_beta     106.786
_cell_angle_gamma    90

_symmetry_Int_Tables_number  71
_chemical_formula_structural  RuCl2O
_chemical_formula_sum  RuCl2O
_cell_volume  73.77420617563256
_cell_formula_units_Z  1
loop_
  _symmetry_equiv_pos_site_id
 _symmetry_equiv_pos_as_xyz
 1  'x, y, z'
loop_
 _atom_site_type_symbol
 _atom_site_label
 _atom_site_symmetry_multiplicity
 _atom_site_fract_x
 _atom_site_fract_y
 _atom_site_fract_z
 _atom_site_fract_occupancy
 Cl  Cl1  1  0.35635  0.85613  0.71269  1
 Cl  Cl2  1  0.64365  0.14387  0.28731  1
 O  O1  1  0.00000  0.50000  -0.00000  1
 Ru  Ru1  1  0.00000  0.00000  0.00000  1
