CIF file written using JARVIS-Tools package.
data_Nd2CoO4
_symmetry_space_group_name_H-M  'I4/mmm'
_cell_length_a       6.84398
_cell_length_b       6.84398
_cell_length_c       6.84398
_cell_angle_alpha    148.094
_cell_angle_beta     148.094
_cell_angle_gamma    45.7466

_symmetry_Int_Tables_number  139
_chemical_formula_structural  Nd2CoO4
_chemical_formula_sum  Nd2CoO4
_cell_volume  89.2495070934548
_cell_formula_units_Z  1
loop_
  _symmetry_equiv_pos_site_id
 _symmetry_equiv_pos_as_xyz
 1  'x, y, z'
loop_
 _atom_site_type_symbol
 _atom_site_label
 _atom_site_symmetry_multiplicity
 _atom_site_fract_x
 _atom_site_fract_y
 _atom_site_fract_z
 _atom_site_fract_occupancy
 Co  Co1  1  0.00000  0.00000  0.00000  1
 Nd  Nd1  1  0.36338  0.36338  0.00000  1
 Nd  Nd2  1  0.63662  0.63662  -0.00000  1
 O  O1  1  0.17869  0.17869  -0.00000  1
 O  O2  1  0.82131  0.82131  0.00000  1
 O  O3  1  0.50000  0.00000  0.50000  1
 O  O4  1  -0.00000  0.50000  0.50000  1
