CIF file written using JARVIS-Tools package.
data_Sc2AlSi2
_symmetry_space_group_name_H-M  'P4/mbm'
_cell_length_a       6.6223
_cell_length_b       6.6223
_cell_length_c       4.00616
_cell_angle_alpha    90
_cell_angle_beta     90
_cell_angle_gamma    90

_symmetry_Int_Tables_number  127
_chemical_formula_structural  Sc2AlSi2
_chemical_formula_sum  Sc4Al2Si4
_cell_volume  175.68954177629317
_cell_formula_units_Z  2
loop_
  _symmetry_equiv_pos_site_id
 _symmetry_equiv_pos_as_xyz
 1  'x, y, z'
loop_
 _atom_site_type_symbol
 _atom_site_label
 _atom_site_symmetry_multiplicity
 _atom_site_fract_x
 _atom_site_fract_y
 _atom_site_fract_z
 _atom_site_fract_occupancy
 Al  Al1  1  0.00000  0.00000  0.00000  1
 Al  Al2  1  0.50000  0.50000  0.00000  1
 Sc  Sc1  1  0.82419  0.67581  0.50000  1
 Sc  Sc2  1  0.17581  0.32419  0.50000  1
 Sc  Sc3  1  0.67581  0.17581  0.50000  1
 Sc  Sc4  1  0.32419  0.82419  0.50000  1
 Si  Si1  1  0.62664  0.87336  0.00000  1
 Si  Si2  1  0.37336  0.12664  0.00000  1
 Si  Si3  1  0.87336  0.37336  0.00000  1
 Si  Si4  1  0.12664  0.62664  0.00000  1
