CIF file written using JARVIS-Tools package.
data_CdH20C12O4
_symmetry_space_group_name_H-M  'P1'
_cell_length_a       4.01047
_cell_length_b       4.32031
_cell_length_c       17.3677
_cell_angle_alpha    86.2627
_cell_angle_beta     76.0692
_cell_angle_gamma    75.675

_symmetry_Int_Tables_number  1
_chemical_formula_structural  CdH20C12O4
_chemical_formula_sum  CdH20C2O4
_cell_volume  282.98293079485086
_cell_formula_units_Z  1
loop_
  _symmetry_equiv_pos_site_id
 _symmetry_equiv_pos_as_xyz
 1  'x, y, z'
loop_
 _atom_site_type_symbol
 _atom_site_label
 _atom_site_symmetry_multiplicity
 _atom_site_fract_x
 _atom_site_fract_y
 _atom_site_fract_z
 _atom_site_fract_occupancy
 C  C1  1  0.90976  0.63566  0.38721  1
 C  C2  1  -0.00837  0.35733  0.74952  1
 C  C3  1  -0.00115  0.56438  0.67565  1
 C  C4  1  0.96723  0.59107  0.53094  1
 C  C5  1  0.95780  0.41448  0.45822  1
 C  C6  1  -0.00245  0.37550  0.60361  1
 C  C7  1  0.89472  0.46496  0.31407  1
 C  C8  1  0.83024  0.69362  0.24522  1
 C  C9  1  0.80514  0.53168  0.17169  1
 C  C10  1  0.69845  0.77269  0.10817  1
 C  C11  1  0.62501  0.62562  0.03677  1
 C  C12  1  0.94130  0.54913  0.96693  1
 Cd  Cd1  1  0.46948  0.97054  0.85832  1
 H  H1  1  0.72475  0.78490  0.54627  1
 H  H2  1  0.76858  0.76870  0.68637  1
 H  H3  1  0.66367  0.82387  0.40497  1
 H  H4  1  0.23851  0.65662  0.66391  1
 H  H5  1  0.58159  0.87586  0.26591  1
 H  H6  1  0.18878  0.70966  0.51597  1
 H  H7  1  0.24026  0.18216  0.58996  1
 H  H8  1  0.41308  0.79893  0.01682  1
 H  H9  1  0.05803  0.36245  0.14682  1
 H  H10  1  0.60724  0.38759  0.18944  1
 H  H11  1  0.14371  0.28199  0.29465  1
 H  H12  1  0.12540  0.76116  0.37146  1
 H  H13  1  0.68373  0.33424  0.33032  1
 H  H14  1  0.74144  0.28977  0.47398  1
 H  H15  1  0.53559  0.40666  0.05507  1
 H  H16  1  0.77439  0.25948  0.61893  1
 H  H17  1  0.89489  0.91580  0.08738  1
 H  H18  1  0.45208  0.94350  0.13623  1
 H  H19  1  0.03972  0.82569  0.22909  1
 H  H20  1  0.20399  0.22595  0.44120  1
 O  O1  1  0.25087  0.11663  0.74884  1
 O  O2  1  0.17248  0.29044  0.96708  1
 O  O3  1  0.72135  0.42398  0.80855  1
 O  O4  1  0.96370  0.76090  0.91056  1
