CIF file written using JARVIS-Tools package.
data_H12C17S
_symmetry_space_group_name_H-M  'P1'
_cell_length_a       3.79261
_cell_length_b       5.53456
_cell_length_c       14.0429
_cell_angle_alpha    75.1749
_cell_angle_beta     77.1492
_cell_angle_gamma    83.3877

_symmetry_Int_Tables_number  1
_chemical_formula_structural  H12C17S
_chemical_formula_sum  H2C7S
_cell_volume  277.28580481864196
_cell_formula_units_Z  1
loop_
  _symmetry_equiv_pos_site_id
 _symmetry_equiv_pos_as_xyz
 1  'x, y, z'
loop_
 _atom_site_type_symbol
 _atom_site_label
 _atom_site_symmetry_multiplicity
 _atom_site_fract_x
 _atom_site_fract_y
 _atom_site_fract_z
 _atom_site_fract_occupancy
 C  C1  1  0.86556  0.83778  0.80989  1
 C  C2  1  0.60943  0.33088  0.13103  1
 C  C3  1  0.21406  0.26202  0.49947  1
 C  C4  1  0.42691  0.14341  0.42668  1
 C  C5  1  0.73488  0.69416  0.90604  1
 C  C6  1  0.35585  0.49491  0.27057  1
 C  C7  1  0.12051  0.73772  0.73824  1
 C  C8  1  0.42438  0.53274  0.16444  1
 C  C9  1  0.24205  0.48579  0.76952  1
 C  C10  1  0.24409  0.88318  0.63391  1
 C  C11  1  0.84972  0.44140  0.93508  1
 C  C12  1  0.56097  0.89594  0.46133  1
 C  C13  1  0.67901  0.26274  0.03105  1
 C  C14  1  0.47304  0.77044  0.56154  1
 C  C15  1  0.10884  0.34245  0.86482  1
 C  C16  1  0.48448  0.26292  0.31970  1
 C  C17  1  0.12623  0.13530  0.59989  1
 H  H1  1  0.52821  0.77875  0.95724  1
 H  H2  1  0.95700  0.23542  0.65266  1
 H  H3  1  0.20667  0.63331  0.30946  1
 H  H4  1  0.44236  0.39714  0.71862  1
 H  H5  1  0.73046  0.79655  0.40803  1
 H  H6  1  0.10956  0.45518  0.47687  1
 H  H7  1  0.57794  0.57731  0.58239  1
 H  H8  1  0.32402  0.70008  0.11558  1
 H  H9  1  0.75886  0.03095  0.79011  1
 H  H10  1  0.41451  0.22146  0.02007  1
 H  H11  1  -0.15922  0.08280  0.03717  1
 H  H12  1  0.20327  0.14590  0.88468  1
 S  S1  1  0.70161  0.09603  0.23157  1
