CIF file written using JARVIS-Tools package.
data_Rb3FeF6
_symmetry_space_group_name_H-M  'I4/mmm'
_cell_length_a       6.47115
_cell_length_b       6.47115
_cell_length_c       6.47116
_cell_angle_alpha    122.678
_cell_angle_beta     122.678
_cell_angle_gamma    85.4201

_symmetry_Int_Tables_number  139
_chemical_formula_structural  Rb3FeF6
_chemical_formula_sum  Rb3FeF6
_cell_volume  183.21900807295023
_cell_formula_units_Z  1
loop_
  _symmetry_equiv_pos_site_id
 _symmetry_equiv_pos_as_xyz
 1  'x, y, z'
loop_
 _atom_site_type_symbol
 _atom_site_label
 _atom_site_symmetry_multiplicity
 _atom_site_fract_x
 _atom_site_fract_y
 _atom_site_fract_z
 _atom_site_fract_occupancy
 F  F1  1  -0.00000  0.29768  0.29768  1
 F  F2  1  0.00000  0.70232  0.70232  1
 F  F3  1  0.29768  -0.00000  0.29768  1
 F  F4  1  0.70232  0.00000  0.70232  1
 F  F5  1  0.20613  0.20613  0.00000  1
 F  F6  1  0.79387  0.79387  -0.00000  1
 Fe  Fe1  1  0.00000  0.00000  0.00000  1
 Rb  Rb1  1  0.75000  0.25000  0.50000  1
 Rb  Rb2  1  0.25000  0.75000  0.50000  1
 Rb  Rb3  1  0.50000  0.50000  0.00000  1
