CIF file written using JARVIS-Tools package.
data_K6CdTe4
_symmetry_space_group_name_H-M  'P6_3mc'
_cell_length_a       11.1071
_cell_length_b       11.1071
_cell_length_c       8.16156
_cell_angle_alpha    90
_cell_angle_beta     90
_cell_angle_gamma    120

_symmetry_Int_Tables_number  186
_chemical_formula_structural  K6CdTe4
_chemical_formula_sum  K2Cd2Te8
_cell_volume  871.9741054508345
_cell_formula_units_Z  2
loop_
  _symmetry_equiv_pos_site_id
 _symmetry_equiv_pos_as_xyz
 1  'x, y, z'
loop_
 _atom_site_type_symbol
 _atom_site_label
 _atom_site_symmetry_multiplicity
 _atom_site_fract_x
 _atom_site_fract_y
 _atom_site_fract_z
 _atom_site_fract_occupancy
 Cd  Cd1  1  0.66667  0.33333  0.89801  1
 Cd  Cd2  1  0.33333  0.66667  0.39801  1
 K  K1  1  0.04228  0.52114  0.02246  1
 K  K2  1  0.95772  0.47886  0.52246  1
 K  K3  1  0.52114  0.04228  0.52246  1
 K  K4  1  0.47886  0.95772  0.02246  1
 K  K5  1  0.47886  0.52114  0.02246  1
 K  K6  1  0.52114  0.47886  0.52246  1
 K  K7  1  0.15003  0.30007  0.71243  1
 K  K8  1  0.30007  0.15003  0.21243  1
 K  K9  1  0.84997  0.15003  0.21243  1
 K  K10  1  0.15003  0.84997  0.71243  1
 K  K11  1  0.84997  0.69993  0.21243  1
 K  K12  1  0.69993  0.84997  0.71243  1
 Te  Te1  1  0.81024  0.62048  0.79279  1
 Te  Te2  1  0.33333  0.66667  0.75342  1
 Te  Te3  1  0.18976  0.37952  0.29279  1
 Te  Te4  1  0.37952  0.18976  0.79279  1
 Te  Te5  1  0.81024  0.18976  0.79279  1
 Te  Te6  1  0.18976  0.81024  0.29279  1
 Te  Te7  1  0.62048  0.81024  0.29279  1
 Te  Te8  1  0.66667  0.33333  0.25342  1
