CIF file written using JARVIS-Tools package.
data_Nd2GaCo2
_symmetry_space_group_name_H-M  'Immm'
_cell_length_a       5.52917
_cell_length_b       5.52918
_cell_length_c       5.52918
_cell_angle_alpha    136.374
_cell_angle_beta     120.329
_cell_angle_gamma    76.7724

_symmetry_Int_Tables_number  71
_chemical_formula_structural  Nd2GaCo2
_chemical_formula_sum  Nd2GaCo2
_cell_volume  97.97730467750489
_cell_formula_units_Z  1
loop_
  _symmetry_equiv_pos_site_id
 _symmetry_equiv_pos_as_xyz
 1  'x, y, z'
loop_
 _atom_site_type_symbol
 _atom_site_label
 _atom_site_symmetry_multiplicity
 _atom_site_fract_x
 _atom_site_fract_y
 _atom_site_fract_z
 _atom_site_fract_occupancy
 Co  Co1  1  0.71312  0.50000  0.21312  1
 Co  Co2  1  0.28688  0.50000  0.78688  1
 Ga  Ga1  1  0.00000  0.00000  0.00000  1
 Nd  Nd1  1  0.29421  0.79421  0.50000  1
 Nd  Nd2  1  0.70579  0.20579  0.50000  1
