CIF file written using JARVIS-Tools package.
data_Na2AsAu
_symmetry_space_group_name_H-M  'Cmcm'
_cell_length_a       5.64568
_cell_length_b       5.64568
_cell_length_c       5.82593
_cell_angle_alpha    90
_cell_angle_beta     90
_cell_angle_gamma    102.541

_symmetry_Int_Tables_number  63
_chemical_formula_structural  Na2AsAu
_chemical_formula_sum  Na4As2Au2
_cell_volume  181.26346943917954
_cell_formula_units_Z  2
loop_
  _symmetry_equiv_pos_site_id
 _symmetry_equiv_pos_as_xyz
 1  'x, y, z'
loop_
 _atom_site_type_symbol
 _atom_site_label
 _atom_site_symmetry_multiplicity
 _atom_site_fract_x
 _atom_site_fract_y
 _atom_site_fract_z
 _atom_site_fract_occupancy
 As  As1  1  0.79467  0.79467  0.75000  1
 As  As2  1  0.20533  0.20533  0.25000  1
 Au  Au1  1  0.50000  0.50000  0.50000  1
 Au  Au2  1  0.50000  0.50000  0.00000  1
 Na  Na1  1  0.66284  0.02449  0.25000  1
 Na  Na2  1  0.33716  0.97551  0.75000  1
 Na  Na3  1  0.02449  0.66284  0.25000  1
 Na  Na4  1  0.97551  0.33716  0.75000  1
