CIF file written using JARVIS-Tools package.
data_MgCd3
_symmetry_space_group_name_H-M  'P6_3/mmc'
_cell_length_a       6.25218
_cell_length_b       6.25218
_cell_length_c       5.10901
_cell_angle_alpha    90
_cell_angle_beta     90
_cell_angle_gamma    120

_symmetry_Int_Tables_number  194
_chemical_formula_structural  MgCd3
_chemical_formula_sum  Mg2Cd6
_cell_volume  172.95431212882207
_cell_formula_units_Z  2
loop_
  _symmetry_equiv_pos_site_id
 _symmetry_equiv_pos_as_xyz
 1  'x, y, z'
loop_
 _atom_site_type_symbol
 _atom_site_label
 _atom_site_symmetry_multiplicity
 _atom_site_fract_x
 _atom_site_fract_y
 _atom_site_fract_z
 _atom_site_fract_occupancy
 Cd  Cd1  1  0.16736  0.33472  0.25000  1
 Cd  Cd2  1  0.83264  0.66528  0.75000  1
 Cd  Cd3  1  0.83264  0.16736  0.75000  1
 Cd  Cd4  1  0.66528  0.83264  0.25000  1
 Cd  Cd5  1  0.16736  0.83264  0.25000  1
 Cd  Cd6  1  0.33472  0.16736  0.75000  1
 Mg  Mg1  1  0.66667  0.33333  0.25000  1
 Mg  Mg2  1  0.33333  0.66667  0.75000  1
