CIF file written using JARVIS-Tools package.
data_Sm3S3N
_symmetry_space_group_name_H-M  'Pnma'
_cell_length_a       3.94587
_cell_length_b       12.1331
_cell_length_c       12.9864
_cell_angle_alpha    90
_cell_angle_beta     90
_cell_angle_gamma    90

_symmetry_Int_Tables_number  62
_chemical_formula_structural  Sm3S3N
_chemical_formula_sum  Sm2S2N4
_cell_volume  621.7339690003305
_cell_formula_units_Z  4
loop_
  _symmetry_equiv_pos_site_id
 _symmetry_equiv_pos_as_xyz
 1  'x, y, z'
loop_
 _atom_site_type_symbol
 _atom_site_label
 _atom_site_symmetry_multiplicity
 _atom_site_fract_x
 _atom_site_fract_y
 _atom_site_fract_z
 _atom_site_fract_occupancy
 N  N1  1  0.25000  0.54132  0.29805  1
 N  N2  1  0.75000  0.45868  0.70195  1
 N  N3  1  0.75000  0.95868  0.79805  1
 N  N4  1  0.25000  0.04132  0.20195  1
 S  S1  1  0.75000  0.63620  0.49409  1
 S  S2  1  0.75000  0.22760  0.30606  1
 S  S3  1  0.25000  0.08767  0.60478  1
 S  S4  1  0.25000  0.58767  0.89522  1
 S  S5  1  0.25000  0.36380  0.50591  1
 S  S6  1  0.75000  0.41233  0.10478  1
 S  S7  1  0.25000  0.86380  0.99409  1
 S  S8  1  0.25000  0.77240  0.69394  1
 S  S9  1  0.75000  0.72760  0.19394  1
 S  S10  1  0.25000  0.27240  0.80606  1
 S  S11  1  0.75000  0.91233  0.39522  1
 S  S12  1  0.75000  0.13620  0.00591  1
 Sm  Sm1  1  0.75000  0.78177  0.86382  1
 Sm  Sm2  1  0.75000  0.95569  0.14650  1
 Sm  Sm3  1  0.25000  0.54431  0.64650  1
 Sm  Sm4  1  0.75000  0.45569  0.35350  1
 Sm  Sm5  1  0.25000  0.21823  0.13618  1
 Sm  Sm6  1  0.25000  0.57599  0.12875  1
 Sm  Sm7  1  0.25000  0.71823  0.36382  1
 Sm  Sm8  1  0.75000  0.28177  0.63618  1
 Sm  Sm9  1  0.75000  0.42401  0.87125  1
 Sm  Sm10  1  0.25000  0.07599  0.37125  1
 Sm  Sm11  1  0.75000  0.92401  0.62875  1
 Sm  Sm12  1  0.25000  0.04431  0.85350  1
