CIF file written using JARVIS-Tools package.
data_Li2RhN2
_symmetry_space_group_name_H-M  'P-3m1'
_cell_length_a       3.19938
_cell_length_b       3.19912
_cell_length_c       5.04457
_cell_angle_alpha    89.9973
_cell_angle_beta     90.0001
_cell_angle_gamma    120.006

_symmetry_Int_Tables_number  164
_chemical_formula_structural  Li2RhN2
_chemical_formula_sum  Li2RhN2
_cell_volume  44.71228775832046
_cell_formula_units_Z  1
loop_
  _symmetry_equiv_pos_site_id
 _symmetry_equiv_pos_as_xyz
 1  'x, y, z'
loop_
 _atom_site_type_symbol
 _atom_site_label
 _atom_site_symmetry_multiplicity
 _atom_site_fract_x
 _atom_site_fract_y
 _atom_site_fract_z
 _atom_site_fract_occupancy
 Li  Li1  1  0.66668  0.33339  0.35636  1
 Li  Li2  1  0.33332  0.66661  0.64364  1
 N  N1  1  0.66665  0.33328  0.78744  1
 N  N2  1  0.33335  0.66672  0.21256  1
 Rh  Rh1  1  0.00000  0.00000  0.00000  1
