CIF file written using JARVIS-Tools package.
data_P2PdO6
_symmetry_space_group_name_H-M  'Pmna'
_cell_length_a       4.24387
_cell_length_b       4.54626
_cell_length_c       12.6195
_cell_angle_alpha    90
_cell_angle_beta     90
_cell_angle_gamma    90

_symmetry_Int_Tables_number  53
_chemical_formula_structural  P2PdO6
_chemical_formula_sum  P4Pd2O2
_cell_volume  243.4766960711128
_cell_formula_units_Z  2
loop_
  _symmetry_equiv_pos_site_id
 _symmetry_equiv_pos_as_xyz
 1  'x, y, z'
loop_
 _atom_site_type_symbol
 _atom_site_label
 _atom_site_symmetry_multiplicity
 _atom_site_fract_x
 _atom_site_fract_y
 _atom_site_fract_z
 _atom_site_fract_occupancy
 O  O1  1  0.32177  0.73641  0.61324  1
 O  O2  1  0.75000  0.65207  0.25000  1
 O  O3  1  0.25000  0.34793  0.25000  1
 O  O4  1  0.17823  0.73641  0.11324  1
 O  O5  1  0.75000  0.65207  0.75000  1
 O  O6  1  0.25000  0.34793  0.75000  1
 O  O7  1  0.32177  0.73641  0.38676  1
 O  O8  1  0.82177  0.26359  0.88676  1
 O  O9  1  0.67823  0.26359  0.38676  1
 O  O10  1  0.67823  0.26359  0.61324  1
 O  O11  1  0.17823  0.73641  0.88676  1
 O  O12  1  0.82177  0.26359  0.11324  1
 P  P1  1  0.00000  0.50000  0.82828  1
 P  P2  1  0.50000  0.50000  0.67172  1
 P  P3  1  0.00000  0.50000  0.17172  1
 P  P4  1  0.50000  0.50000  0.32828  1
 Pd  Pd1  1  0.00000  0.00000  0.00000  1
 Pd  Pd2  1  0.50000  0.00000  0.50000  1
