CIF file written using JARVIS-Tools package.
data_Ti2Cu3
_symmetry_space_group_name_H-M  'I4/mmm'
_cell_length_a       3.14049
_cell_length_b       3.14049
_cell_length_c       7.41112
_cell_angle_alpha    102.232
_cell_angle_beta     102.232
_cell_angle_gamma    90

_symmetry_Int_Tables_number  139
_chemical_formula_structural  Ti2Cu3
_chemical_formula_sum  Ti2Cu3
_cell_volume  69.73506094322353
_cell_formula_units_Z  1
loop_
  _symmetry_equiv_pos_site_id
 _symmetry_equiv_pos_as_xyz
 1  'x, y, z'
loop_
 _atom_site_type_symbol
 _atom_site_label
 _atom_site_symmetry_multiplicity
 _atom_site_fract_x
 _atom_site_fract_y
 _atom_site_fract_z
 _atom_site_fract_occupancy
 Cu  Cu1  1  0.79509  0.79509  0.59017  1
 Cu  Cu2  1  0.20491  0.20491  0.40983  1
 Cu  Cu3  1  0.00000  0.00000  0.00000  1
 Ti  Ti1  1  0.60448  0.60448  0.20897  1
 Ti  Ti2  1  0.39552  0.39552  0.79103  1
