CIF file written using JARVIS-Tools package.
data_BaC2
_symmetry_space_group_name_H-M  'I4/mmm'
_cell_length_a       4.36823
_cell_length_b       4.36823
_cell_length_c       4.76164
_cell_angle_alpha    117.303
_cell_angle_beta     117.303
_cell_angle_gamma    90.0001

_symmetry_Int_Tables_number  139
_chemical_formula_structural  BaC2
_chemical_formula_sum  BaC2
_cell_volume  69.14887132266722
_cell_formula_units_Z  1
loop_
  _symmetry_equiv_pos_site_id
 _symmetry_equiv_pos_as_xyz
 1  'x, y, z'
loop_
 _atom_site_type_symbol
 _atom_site_label
 _atom_site_symmetry_multiplicity
 _atom_site_fract_x
 _atom_site_fract_y
 _atom_site_fract_z
 _atom_site_fract_occupancy
 Ba  Ba1  1  0.00000  0.00000  0.00000  1
 C  C1  1  0.58684  0.58684  0.17368  1
 C  C2  1  0.41316  0.41316  0.82632  1
