CIF file written using JARVIS-Tools package.
data_Sr3SmRhO6
_symmetry_space_group_name_H-M  'R-3c'
_cell_length_a       6.85904
_cell_length_b       6.85904
_cell_length_c       6.85903
_cell_angle_alpha    91.6729
_cell_angle_beta     91.6729
_cell_angle_gamma    91.6729

_symmetry_Int_Tables_number  167
_chemical_formula_structural  Sr3SmRhO6
_chemical_formula_sum  Sr6Sm2Rh2O2
_cell_volume  322.2718887709647
_cell_formula_units_Z  2
loop_
  _symmetry_equiv_pos_site_id
 _symmetry_equiv_pos_as_xyz
 1  'x, y, z'
loop_
 _atom_site_type_symbol
 _atom_site_label
 _atom_site_symmetry_multiplicity
 _atom_site_fract_x
 _atom_site_fract_y
 _atom_site_fract_z
 _atom_site_fract_occupancy
 O  O1  1  0.08557  0.29169  0.95102  1
 O  O2  1  0.58557  0.45102  0.79169  1
 O  O3  1  0.45102  0.79169  0.58557  1
 O  O4  1  0.04898  0.91443  0.70831  1
 O  O5  1  0.91443  0.70831  0.04898  1
 O  O6  1  0.70831  0.04898  0.91443  1
 O  O7  1  0.20831  0.41443  0.54898  1
 O  O8  1  0.41443  0.54898  0.20831  1
 O  O9  1  0.54898  0.20831  0.41443  1
 O  O10  1  0.79169  0.58557  0.45102  1
 O  O11  1  0.29169  0.95102  0.08557  1
 O  O12  1  0.95102  0.08557  0.29169  1
 Rh  Rh1  1  0.50000  0.50000  0.50000  1
 Rh  Rh2  1  0.00000  0.00000  0.00000  1
 Sm  Sm1  1  0.75000  0.75000  0.75000  1
 Sm  Sm2  1  0.25000  0.25000  0.25000  1
 Sr  Sr1  1  0.61993  0.88007  0.25000  1
 Sr  Sr2  1  0.25000  0.61993  0.88007  1
 Sr  Sr3  1  0.88007  0.25000  0.61993  1
 Sr  Sr4  1  0.38007  0.11993  0.75000  1
 Sr  Sr5  1  0.11993  0.75000  0.38007  1
 Sr  Sr6  1  0.75000  0.38007  0.11993  1
