CIF file written using JARVIS-Tools package.
data_Nd3SiAgSe7
_symmetry_space_group_name_H-M  'P6_3'
_cell_length_a       10.7193
_cell_length_b       10.7193
_cell_length_c       6.05254
_cell_angle_alpha    90
_cell_angle_beta     90
_cell_angle_gamma    120

_symmetry_Int_Tables_number  173
_chemical_formula_structural  Nd3SiAgSe7
_chemical_formula_sum  Nd6Si2Ag2Se4
_cell_volume  602.2829090292953
_cell_formula_units_Z  2
loop_
  _symmetry_equiv_pos_site_id
 _symmetry_equiv_pos_as_xyz
 1  'x, y, z'
loop_
 _atom_site_type_symbol
 _atom_site_label
 _atom_site_symmetry_multiplicity
 _atom_site_fract_x
 _atom_site_fract_y
 _atom_site_fract_z
 _atom_site_fract_occupancy
 Ag  Ag1  1  0.00000  0.00000  0.49246  1
 Ag  Ag2  1  0.00000  0.00000  0.99246  1
 Nd  Nd1  1  0.23075  0.87316  0.53325  1
 Nd  Nd2  1  0.87316  0.64241  0.03325  1
 Nd  Nd3  1  0.35759  0.23075  0.03325  1
 Nd  Nd4  1  0.64241  0.76925  0.53325  1
 Nd  Nd5  1  0.12684  0.35759  0.53325  1
 Nd  Nd6  1  0.76925  0.12684  0.03325  1
 Se  Se1  1  0.41501  0.52199  0.27239  1
 Se  Se2  1  0.90383  0.72848  0.51794  1
 Se  Se3  1  0.89303  0.41501  0.77239  1
 Se  Se4  1  0.47801  0.89303  0.27239  1
 Se  Se5  1  0.27152  0.17535  0.51794  1
 Se  Se6  1  0.58499  0.47801  0.77239  1
 Se  Se7  1  0.52199  0.10697  0.77239  1
 Se  Se8  1  0.72848  0.82465  0.01794  1
 Se  Se9  1  0.66667  0.33333  0.24618  1
 Se  Se10  1  0.33333  0.66667  0.74618  1
 Se  Se11  1  0.17535  0.90383  0.01794  1
 Se  Se12  1  0.82465  0.09617  0.51794  1
 Se  Se13  1  0.10697  0.58499  0.27239  1
 Se  Se14  1  0.09617  0.27152  0.01794  1
 Si  Si1  1  0.33333  0.66667  0.12124  1
 Si  Si2  1  0.66667  0.33333  0.62124  1
