CIF file written using JARVIS-Tools package.
data_Li2CrS4
_symmetry_space_group_name_H-M  'C2/m'
_cell_length_a       3.39293
_cell_length_b       5.90371
_cell_length_c       6.79453
_cell_angle_alpha    115.473
_cell_angle_beta     104.459
_cell_angle_gamma    90.0006

_symmetry_Int_Tables_number  12
_chemical_formula_structural  Li2CrS4
_chemical_formula_sum  Li2CrS4
_cell_volume  118.07632747414816
_cell_formula_units_Z  1
loop_
  _symmetry_equiv_pos_site_id
 _symmetry_equiv_pos_as_xyz
 1  'x, y, z'
loop_
 _atom_site_type_symbol
 _atom_site_label
 _atom_site_symmetry_multiplicity
 _atom_site_fract_x
 _atom_site_fract_y
 _atom_site_fract_z
 _atom_site_fract_occupancy
 Cr  Cr1  1  0.70129  0.17302  0.90286  1
 Li  Li1  1  0.40777  0.91260  0.31570  1
 Li  Li2  1  0.99491  0.43354  0.49004  1
 S  S1  1  0.33762  0.23829  0.17548  1
 S  S2  1  0.76580  0.62264  0.03187  1
 S  S3  1  0.63686  0.72341  0.77390  1
 S  S4  1  0.06497  0.10778  0.63025  1
