CIF file written using JARVIS-Tools package.
data_TmBiO3
_symmetry_space_group_name_H-M  'R-3'
_cell_length_a       5.9455
_cell_length_b       6.03906
_cell_length_c       5.9455
_cell_angle_alpha    119.489
_cell_angle_beta     60
_cell_angle_gamma    119.489

_symmetry_Int_Tables_number  148
_chemical_formula_structural  TmBiO3
_chemical_formula_sum  Tm2Bi2O6
_cell_volume  152.10477036099235
_cell_formula_units_Z  2
loop_
  _symmetry_equiv_pos_site_id
 _symmetry_equiv_pos_as_xyz
 1  'x, y, z'
loop_
 _atom_site_type_symbol
 _atom_site_label
 _atom_site_symmetry_multiplicity
 _atom_site_fract_x
 _atom_site_fract_y
 _atom_site_fract_z
 _atom_site_fract_occupancy
 Bi  Bi1  1  0.36094  0.08283  0.36094  1
 Bi  Bi2  1  0.63906  0.91717  0.63906  1
 O  O1  1  0.00927  0.24940  0.45396  1
 O  O2  1  0.54604  0.75060  0.21383  1
 O  O3  1  0.21383  0.75060  0.99073  1
 O  O4  1  0.78617  0.24940  0.00927  1
 O  O5  1  0.45396  0.24940  0.78617  1
 O  O6  1  0.99073  0.75060  0.54604  1
 Tm  Tm1  1  0.14265  0.42794  0.14265  1
 Tm  Tm2  1  0.85735  0.57206  0.85735  1
