CIF file written using JARVIS-Tools package.
data_Y3CuSnS7
_symmetry_space_group_name_H-M  'P6_3'
_cell_length_a       9.74158
_cell_length_b       9.74158
_cell_length_c       6.23461
_cell_angle_alpha    90
_cell_angle_beta     90
_cell_angle_gamma    120

_symmetry_Int_Tables_number  173
_chemical_formula_structural  Y3CuSnS7
_chemical_formula_sum  Y6Cu2Sn2S4
_cell_volume  512.3881178677639
_cell_formula_units_Z  2
loop_
  _symmetry_equiv_pos_site_id
 _symmetry_equiv_pos_as_xyz
 1  'x, y, z'
loop_
 _atom_site_type_symbol
 _atom_site_label
 _atom_site_symmetry_multiplicity
 _atom_site_fract_x
 _atom_site_fract_y
 _atom_site_fract_z
 _atom_site_fract_occupancy
 Cu  Cu1  1  0.00000  0.00000  0.01136  1
 Cu  Cu2  1  0.00000  0.00000  0.51136  1
 S  S1  1  0.14688  0.88350  0.04745  1
 S  S2  1  0.33333  0.66667  0.80389  1
 S  S3  1  0.26338  0.14688  0.54745  1
 S  S4  1  0.91928  0.43949  0.87199  1
 S  S5  1  0.43949  0.52021  0.37199  1
 S  S6  1  0.47979  0.91928  0.37199  1
 S  S7  1  0.66667  0.33333  0.30389  1
 S  S8  1  0.56051  0.47979  0.87199  1
 S  S9  1  0.08072  0.56051  0.37199  1
 S  S10  1  0.85312  0.11650  0.54745  1
 S  S11  1  0.73662  0.85312  0.04745  1
 S  S12  1  0.52021  0.08072  0.87199  1
 S  S13  1  0.88350  0.73662  0.54745  1
 S  S14  1  0.11650  0.26338  0.04745  1
 Sn  Sn1  1  0.33333  0.66667  0.18918  1
 Sn  Sn2  1  0.66667  0.33333  0.68918  1
 Y  Y1  1  0.36005  0.20823  0.12568  1
 Y  Y2  1  0.63995  0.79177  0.62568  1
 Y  Y3  1  0.15181  0.36005  0.62568  1
 Y  Y4  1  0.79177  0.15181  0.12568  1
 Y  Y5  1  0.20823  0.84819  0.62568  1
 Y  Y6  1  0.84819  0.63995  0.12568  1
