CIF file written using JARVIS-Tools package.
data_CeRe2SiC
_symmetry_space_group_name_H-M  'Cmcm'
_cell_length_a       5.8556
_cell_length_b       5.8556
_cell_length_c       7.35784
_cell_angle_alpha    90
_cell_angle_beta     90
_cell_angle_gamma    140.181

_symmetry_Int_Tables_number  63
_chemical_formula_structural  CeRe2SiC
_chemical_formula_sum  Ce2Re4Si2C2
_cell_volume  161.5548404359182
_cell_formula_units_Z  2
loop_
  _symmetry_equiv_pos_site_id
 _symmetry_equiv_pos_as_xyz
 1  'x, y, z'
loop_
 _atom_site_type_symbol
 _atom_site_label
 _atom_site_symmetry_multiplicity
 _atom_site_fract_x
 _atom_site_fract_y
 _atom_site_fract_z
 _atom_site_fract_occupancy
 C  C1  1  0.00000  0.00000  0.00000  1
 C  C2  1  0.00000  0.00000  0.50000  1
 Ce  Ce1  1  0.54321  0.45679  0.25000  1
 Ce  Ce2  1  0.45679  0.54321  0.75000  1
 Re  Re1  1  0.82639  0.17361  0.06111  1
 Re  Re2  1  0.17361  0.82639  0.93889  1
 Re  Re3  1  0.17361  0.82639  0.56111  1
 Re  Re4  1  0.82639  0.17361  0.43889  1
 Si  Si1  1  0.26519  0.73481  0.25000  1
 Si  Si2  1  0.73481  0.26519  0.75000  1
