CIF file written using JARVIS-Tools package.
data_Li2CeN2
_symmetry_space_group_name_H-M  'P-3m1'
_cell_length_a       3.57395
_cell_length_b       3.57395
_cell_length_c       5.43652
_cell_angle_alpha    90
_cell_angle_beta     90
_cell_angle_gamma    120

_symmetry_Int_Tables_number  164
_chemical_formula_structural  Li2CeN2
_chemical_formula_sum  Li2CeN2
_cell_volume  60.13770990487666
_cell_formula_units_Z  1
loop_
  _symmetry_equiv_pos_site_id
 _symmetry_equiv_pos_as_xyz
 1  'x, y, z'
loop_
 _atom_site_type_symbol
 _atom_site_label
 _atom_site_symmetry_multiplicity
 _atom_site_fract_x
 _atom_site_fract_y
 _atom_site_fract_z
 _atom_site_fract_occupancy
 Ce  Ce1  1  0.00000  0.00000  0.00000  1
 Li  Li1  1  0.66667  0.33333  0.60363  1
 Li  Li2  1  0.33333  0.66667  0.39637  1
 N  N1  1  0.66667  0.33333  0.22915  1
 N  N2  1  0.33333  0.66667  0.77085  1
