CIF file written using JARVIS-Tools package.
data_H10C14S
_symmetry_space_group_name_H-M  'P1'
_cell_length_a       3.843
_cell_length_b       5.78036
_cell_length_c       10.9247
_cell_angle_alpha    88.1419
_cell_angle_beta     79.908
_cell_angle_gamma    80.2168

_symmetry_Int_Tables_number  1
_chemical_formula_structural  H10C14S
_chemical_formula_sum  H0C4S
_cell_volume  235.44961366814533
_cell_formula_units_Z  1
loop_
  _symmetry_equiv_pos_site_id
 _symmetry_equiv_pos_as_xyz
 1  'x, y, z'
loop_
 _atom_site_type_symbol
 _atom_site_label
 _atom_site_symmetry_multiplicity
 _atom_site_fract_x
 _atom_site_fract_y
 _atom_site_fract_z
 _atom_site_fract_occupancy
 C  C1  1  0.91084  0.78793  0.72691  1
 C  C2  1  0.45873  0.66814  0.05617  1
 C  C3  1  0.38569  0.31202  0.36002  1
 C  C4  1  0.55488  0.46977  0.14570  1
 C  C5  1  0.21893  0.34004  0.48271  1
 C  C6  1  0.56397  0.44283  0.85340  1
 C  C7  1  0.37198  0.50185  0.27544  1
 C  C8  1  0.70027  0.41869  0.72720  1
 C  C9  1  0.60909  0.63648  0.91954  1
 C  C10  1  0.03595  0.56052  0.52888  1
 C  C11  1  0.78200  0.80897  0.85417  1
 C  C12  1  0.01821  0.74954  0.44476  1
 C  C13  1  0.87741  0.59048  0.66143  1
 C  C14  1  0.17755  0.72108  0.32054  1
 H  H1  1  0.15079  0.87301  0.25919  1
 H  H2  1  0.82263  0.96077  0.90345  1
 H  H3  1  0.65830  0.26795  0.67772  1
 H  H4  1  0.53080  0.14122  0.32651  1
 H  H5  1  0.23767  0.19030  0.54591  1
 H  H6  1  0.41235  0.31317  0.90068  1
 H  H7  1  0.16322  0.70558  0.06885  1
 H  H8  1  0.53446  0.82846  0.08910  1
 H  H9  1  0.05951  0.91923  0.67974  1
 H  H10  1  0.87136  0.92110  0.47696  1
 S  S1  1  0.85618  0.23504  0.10075  1
