CIF file written using JARVIS-Tools package.
data_Lu2NiSn6
_symmetry_space_group_name_H-M  'Cmmm'
_cell_length_a       4.34309
_cell_length_b       4.40224
_cell_length_c       11.4259
_cell_angle_alpha    90
_cell_angle_beta     100.956
_cell_angle_gamma    90

_symmetry_Int_Tables_number  65
_chemical_formula_structural  Lu2NiSn6
_chemical_formula_sum  Lu2NiSn6
_cell_volume  214.47310243717493
_cell_formula_units_Z  1
loop_
  _symmetry_equiv_pos_site_id
 _symmetry_equiv_pos_as_xyz
 1  'x, y, z'
loop_
 _atom_site_type_symbol
 _atom_site_label
 _atom_site_symmetry_multiplicity
 _atom_site_fract_x
 _atom_site_fract_y
 _atom_site_fract_z
 _atom_site_fract_occupancy
 Lu  Lu1  1  0.17861  0.00000  0.35723  1
 Lu  Lu2  1  0.82139  0.00000  0.64277  1
 Ni  Ni1  1  0.50000  0.50000  0.00000  1
 Sn  Sn1  1  0.70422  0.50000  0.40845  1
 Sn  Sn2  1  0.57062  0.00000  0.14125  1
 Sn  Sn3  1  0.42938  0.00000  0.85875  1
 Sn  Sn4  1  0.92827  0.50000  0.85653  1
 Sn  Sn5  1  0.07173  0.50000  0.14347  1
 Sn  Sn6  1  0.29578  0.50000  0.59155  1
