CIF file written using JARVIS-Tools package.
data_NaAgO2
_symmetry_space_group_name_H-M  'C2/m'
_cell_length_a       3.55416
_cell_length_b       3.55416
_cell_length_c       6.36171
_cell_angle_alpha    61.7684
_cell_angle_beta     118.232
_cell_angle_gamma    129.846

_symmetry_Int_Tables_number  12
_chemical_formula_structural  NaAgO2
_chemical_formula_sum  NaAgO2
_cell_volume  52.61587633305097
_cell_formula_units_Z  1
loop_
  _symmetry_equiv_pos_site_id
 _symmetry_equiv_pos_as_xyz
 1  'x, y, z'
loop_
 _atom_site_type_symbol
 _atom_site_label
 _atom_site_symmetry_multiplicity
 _atom_site_fract_x
 _atom_site_fract_y
 _atom_site_fract_z
 _atom_site_fract_occupancy
 Ag  Ag1  1  0.00000  0.00000  0.00000  1
 Na  Na1  1  0.50000  0.50000  0.50000  1
 O  O1  1  0.32901  0.67099  0.75551  1
 O  O2  1  0.67099  0.32901  0.24449  1
