CIF file written using JARVIS-Tools package.
data_VCl2O
_symmetry_space_group_name_H-M  'Immm'
_cell_length_a       3.26603
_cell_length_b       3.60672
_cell_length_c       6.54385
_cell_angle_alpha    105.998
_cell_angle_beta     104.451
_cell_angle_gamma    90

_symmetry_Int_Tables_number  71
_chemical_formula_structural  VCl2O
_chemical_formula_sum  VCl2O
_cell_volume  71.55830583531635
_cell_formula_units_Z  1
loop_
  _symmetry_equiv_pos_site_id
 _symmetry_equiv_pos_as_xyz
 1  'x, y, z'
loop_
 _atom_site_type_symbol
 _atom_site_label
 _atom_site_symmetry_multiplicity
 _atom_site_fract_x
 _atom_site_fract_y
 _atom_site_fract_z
 _atom_site_fract_occupancy
 Cl  Cl1  1  0.64218  0.14220  0.28436  1
 Cl  Cl2  1  0.35782  0.85780  0.71564  1
 O  O1  1  0.00000  0.50000  -0.00000  1
 V  V1  1  -0.00000  0.00000  -0.00000  1
