CIF file written using JARVIS-Tools package.
data_H3C2F
_symmetry_space_group_name_H-M  'Cm'
_cell_length_a       5.14173
_cell_length_b       2.55862
_cell_length_c       6.86146
_cell_angle_alpha    90
_cell_angle_beta     97.6813
_cell_angle_gamma    90

_symmetry_Int_Tables_number  8
_chemical_formula_structural  H3C2F
_chemical_formula_sum  H6C4F2
_cell_volume  89.45748495231885
_cell_formula_units_Z  2
loop_
  _symmetry_equiv_pos_site_id
 _symmetry_equiv_pos_as_xyz
 1  'x, y, z'
loop_
 _atom_site_type_symbol
 _atom_site_label
 _atom_site_symmetry_multiplicity
 _atom_site_fract_x
 _atom_site_fract_y
 _atom_site_fract_z
 _atom_site_fract_occupancy
 C  C1  1  0.12616  0.00000  0.32625  1
 C  C2  1  0.23450  0.50000  0.24709  1
 C  C3  1  0.62602  0.50000  0.82618  1
 C  C4  1  0.73425  0.00000  0.74694  1
 F  F1  1  0.84420  0.00000  0.26870  1
 F  F2  1  0.34402  0.50000  0.76881  1
 H  H1  1  0.15269  0.00000  0.48762  1
 H  H2  1  0.44895  0.50000  0.28890  1
 H  H3  1  0.19865  0.50000  0.08515  1
 H  H4  1  0.65273  0.50000  -0.01244  1
 H  H5  1  0.94872  0.00000  0.78864  1
 H  H6  1  0.69822  0.00000  0.58501  1
