CIF file written using JARVIS-Tools package.
data_Bi4O3F7
_symmetry_space_group_name_H-M  'Pm'
_cell_length_a       5.7558
_cell_length_b       3.92977
_cell_length_c       8.35698
_cell_angle_alpha    90
_cell_angle_beta     90.5414
_cell_angle_gamma    90

_symmetry_Int_Tables_number  6
_chemical_formula_structural  Bi4O3F7
_chemical_formula_sum  Bi4O3F7
_cell_volume  189.01789571056466
_cell_formula_units_Z  1
loop_
  _symmetry_equiv_pos_site_id
 _symmetry_equiv_pos_as_xyz
 1  'x, y, z'
loop_
 _atom_site_type_symbol
 _atom_site_label
 _atom_site_symmetry_multiplicity
 _atom_site_fract_x
 _atom_site_fract_y
 _atom_site_fract_z
 _atom_site_fract_occupancy
 Bi  Bi1  1  0.77146  0.50000  0.11900  1
 Bi  Bi2  1  0.76892  0.50000  0.62763  1
 Bi  Bi3  1  0.25719  0.00000  0.37923  1
 Bi  Bi4  1  0.19909  0.00000  0.87655  1
 F  F1  1  0.97618  0.50000  0.37480  1
 F  F2  1  0.37493  0.50000  0.22988  1
 F  F3  1  0.36200  0.50000  0.54162  1
 F  F4  1  0.41601  0.50000  0.88620  1
 F  F5  1  0.55908  0.00000  0.05193  1
 F  F6  1  0.65486  0.00000  0.39259  1
 F  F7  1  0.56893  0.00000  0.72029  1
 O  O1  1  0.94625  0.50000  0.87512  1
 O  O2  1  0.03013  0.00000  0.12126  1
 O  O3  1  0.02856  0.00000  0.63024  1
