CIF file written using JARVIS-Tools package.
data_Sr6Rh5O15
_symmetry_space_group_name_H-M  'R32'
_cell_length_a       7.11603
_cell_length_b       7.11604
_cell_length_c       7.11604
_cell_angle_alpha    85.6472
_cell_angle_beta     85.6472
_cell_angle_gamma    85.6472

_symmetry_Int_Tables_number  155
_chemical_formula_structural  Sr6Rh5O15
_chemical_formula_sum  Sr6Rh5O5
_cell_volume  357.373424221535
_cell_formula_units_Z  1
loop_
  _symmetry_equiv_pos_site_id
 _symmetry_equiv_pos_as_xyz
 1  'x, y, z'
loop_
 _atom_site_type_symbol
 _atom_site_label
 _atom_site_symmetry_multiplicity
 _atom_site_fract_x
 _atom_site_fract_y
 _atom_site_fract_z
 _atom_site_fract_occupancy
 O  O1  1  0.79155  0.65179  0.98315  1
 O  O2  1  0.26390  0.34919  0.56347  1
 O  O3  1  0.34919  0.56347  0.26390  1
 O  O4  1  0.65081  0.73610  0.43653  1
 O  O5  1  0.73610  0.43653  0.65081  1
 O  O6  1  0.43653  0.65081  0.73610  1
 O  O7  1  0.83454  -0.00000  0.16546  1
 O  O8  1  0.00000  0.16546  0.83454  1
 O  O9  1  0.16546  0.83454  -0.00000  1
 O  O10  1  0.01685  0.34821  0.20845  1
 O  O11  1  0.34821  0.20845  0.01685  1
 O  O12  1  0.56347  0.26390  0.34919  1
 O  O13  1  0.65179  0.98315  0.79155  1
 O  O14  1  0.20845  0.01685  0.34821  1
 O  O15  1  0.98315  0.79155  0.65179  1
 Rh  Rh1  1  0.29157  0.29157  0.29157  1
 Rh  Rh2  1  0.90399  0.90399  0.90399  1
 Rh  Rh3  1  0.09601  0.09601  0.09601  1
 Rh  Rh4  1  0.70843  0.70843  0.70843  1
 Rh  Rh5  1  0.50000  0.50000  0.50000  1
 Sr  Sr1  1  0.67960  0.32040  0.00000  1
 Sr  Sr2  1  -0.00000  0.67960  0.32040  1
 Sr  Sr3  1  0.32040  0.00000  0.67960  1
 Sr  Sr4  1  0.85550  0.14450  0.50000  1
 Sr  Sr5  1  0.50000  0.85550  0.14450  1
 Sr  Sr6  1  0.14450  0.50000  0.85550  1
