CIF file written using JARVIS-Tools package.
data_CdH6C5O4
_symmetry_space_group_name_H-M  'P1'
_cell_length_a       4.69142
_cell_length_b       5.48778
_cell_length_c       6.13038
_cell_angle_alpha    99.0756
_cell_angle_beta     93.0987
_cell_angle_gamma    102.992

_symmetry_Int_Tables_number  1
_chemical_formula_structural  CdH6C5O4
_chemical_formula_sum  CdH6C5O4
_cell_volume  151.20571186147978
_cell_formula_units_Z  1
loop_
  _symmetry_equiv_pos_site_id
 _symmetry_equiv_pos_as_xyz
 1  'x, y, z'
loop_
 _atom_site_type_symbol
 _atom_site_label
 _atom_site_symmetry_multiplicity
 _atom_site_fract_x
 _atom_site_fract_y
 _atom_site_fract_z
 _atom_site_fract_occupancy
 C  C1  1  0.88275  0.93094  0.54314  1
 C  C2  1  0.76442  0.11165  0.42011  1
 C  C3  1  0.98649  0.25597  0.28097  1
 C  C4  1  0.84588  0.26258  0.04946  1
 C  C5  1  0.75169  0.50252  0.01927  1
 Cd  Cd1  1  0.31023  0.73604  0.79486  1
 H  H1  1  0.56673  -0.00247  0.31664  1
 H  H2  1  0.68464  0.24408  0.54297  1
 H  H3  1  0.16777  0.16202  0.25934  1
 H  H4  1  0.00495  0.23669  0.92850  1
 H  H5  1  0.08530  0.45185  0.36527  1
 H  H6  1  0.65274  0.10202  0.00547  1
 O  O1  1  0.71310  0.73054  0.58329  1
 O  O2  1  0.15992  0.99230  0.60508  1
 O  O3  1  0.94100  0.71167  0.03649  1
 O  O4  1  0.47570  0.47542  0.96858  1
