CIF file written using JARVIS-Tools package.
data_Tl2Te3O7
_symmetry_space_group_name_H-M  'P-1'
_cell_length_a       6.88204
_cell_length_b       7.43826
_cell_length_c       10.0045
_cell_angle_alpha    91.7545
_cell_angle_beta     109.94
_cell_angle_gamma    111.975

_symmetry_Int_Tables_number  2
_chemical_formula_structural  Tl2Te3O7
_chemical_formula_sum  Tl4Te6O4
_cell_volume  439.0399588353451
_cell_formula_units_Z  2
loop_
  _symmetry_equiv_pos_site_id
 _symmetry_equiv_pos_as_xyz
 1  'x, y, z'
loop_
 _atom_site_type_symbol
 _atom_site_label
 _atom_site_symmetry_multiplicity
 _atom_site_fract_x
 _atom_site_fract_y
 _atom_site_fract_z
 _atom_site_fract_occupancy
 O  O1  1  0.93934  0.53231  0.62360  1
 O  O2  1  0.06066  0.46769  0.37640  1
 O  O3  1  0.10591  0.23313  0.63233  1
 O  O4  1  0.18139  0.15152  0.32700  1
 O  O5  1  0.33957  0.89803  0.87663  1
 O  O6  1  0.81861  0.84848  0.67300  1
 O  O7  1  0.55652  0.44943  0.69344  1
 O  O8  1  0.68197  0.47554  0.13071  1
 O  O9  1  0.66043  0.10197  0.12337  1
 O  O10  1  0.89409  0.76687  0.36767  1
 O  O11  1  0.44348  0.55057  0.30656  1
 O  O12  1  0.23897  0.16231  0.03969  1
 O  O13  1  0.76103  0.83769  0.96031  1
 O  O14  1  0.31803  0.52446  0.86929  1
 Te  Te1  1  0.73670  0.49401  0.33956  1
 Te  Te2  1  0.51447  0.78408  0.01672  1
 Te  Te3  1  0.86728  0.64723  0.76693  1
 Te  Te4  1  0.26330  0.50599  0.66044  1
 Te  Te5  1  0.13272  0.35277  0.23307  1
 Te  Te6  1  0.48553  0.21592  0.98328  1
 Tl  Tl1  1  0.70482  0.97663  0.42896  1
 Tl  Tl2  1  0.12015  0.84731  0.17211  1
 Tl  Tl3  1  0.29518  0.02337  0.57104  1
 Tl  Tl4  1  0.87985  0.15269  0.82789  1
