CIF file written using JARVIS-Tools package.
data_SnH4C2Cl2
_symmetry_space_group_name_H-M  'C2/c'
_cell_length_a       3.96047
_cell_length_b       6.41877
_cell_length_c       10.4018
_cell_angle_alpha    75.5284
_cell_angle_beta     89.9948
_cell_angle_gamma    72.0485

_symmetry_Int_Tables_number  15
_chemical_formula_structural  SnH4C2Cl2
_chemical_formula_sum  Sn2H8C4Cl4
_cell_volume  242.72256292376198
_cell_formula_units_Z  2
loop_
  _symmetry_equiv_pos_site_id
 _symmetry_equiv_pos_as_xyz
 1  'x, y, z'
loop_
 _atom_site_type_symbol
 _atom_site_label
 _atom_site_symmetry_multiplicity
 _atom_site_fract_x
 _atom_site_fract_y
 _atom_site_fract_z
 _atom_site_fract_occupancy
 C  C1  1  0.01013  0.87475  0.08036  1
 C  C2  1  0.95774  0.07022  0.96094  1
 C  C3  1  0.91222  0.07021  0.46094  1
 C  C4  1  0.05561  0.87480  0.58036  1
 Cl  Cl1  1  0.32477  0.27454  0.17999  1
 Cl  Cl2  1  0.34133  0.27457  0.67999  1
 Cl  Cl3  1  0.64308  0.67045  0.86130  1
 Cl  Cl4  1  0.62651  0.67042  0.36132  1
 H  H1  1  0.34433  0.79460  0.58738  1
 H  H2  1  0.80190  0.79424  0.08743  1
 H  H3  1  0.62350  0.15041  0.45391  1
 H  H4  1  0.04099  0.20164  0.44853  1
 H  H5  1  0.27044  0.74357  0.09272  1
 H  H6  1  0.69744  0.20140  0.94859  1
 H  H7  1  0.92683  0.74338  0.59276  1
 H  H8  1  0.16596  0.15073  0.95388  1
 Sn  Sn1  1  0.98048  0.97251  0.77065  1
 Sn  Sn2  1  0.98739  0.97248  0.27065  1
