CIF file written using JARVIS-Tools package.
data_K2OsCl4O2
_symmetry_space_group_name_H-M  'I4/mmm'
_cell_length_a       6.49403
_cell_length_b       6.49403
_cell_length_c       6.49403
_cell_angle_alpha    99.2404
_cell_angle_beta     114.816
_cell_angle_gamma    114.816

_symmetry_Int_Tables_number  139
_chemical_formula_structural  K2OsCl4O2
_chemical_formula_sum  K2OsCl4O2
_cell_volume  205.91683339990834
_cell_formula_units_Z  1
loop_
  _symmetry_equiv_pos_site_id
 _symmetry_equiv_pos_as_xyz
 1  'x, y, z'
loop_
 _atom_site_type_symbol
 _atom_site_label
 _atom_site_symmetry_multiplicity
 _atom_site_fract_x
 _atom_site_fract_y
 _atom_site_fract_z
 _atom_site_fract_occupancy
 Cl  Cl1  1  0.51039  0.75520  0.75520  1
 Cl  Cl2  1  0.48961  0.24480  0.24480  1
 Cl  Cl3  1  0.00000  0.24480  0.75520  1
 Cl  Cl4  1  -0.00000  0.75520  0.24480  1
 K  K1  1  0.50000  0.75000  0.25000  1
 K  K2  1  0.50000  0.25000  0.75000  1
 O  O1  1  0.00000  0.79066  0.79066  1
 O  O2  1  -0.00000  0.20934  0.20934  1
 Os  Os1  1  0.00000  0.00000  0.00000  1
