CIF file written using JARVIS-Tools package.
data_Sm2Ge2Rh
_symmetry_space_group_name_H-M  'C2/m'
_cell_length_a       5.77571
_cell_length_b       5.77571
_cell_length_c       10.5378
_cell_angle_alpha    64.857
_cell_angle_beta     64.857
_cell_angle_gamma    44.1341

_symmetry_Int_Tables_number  12
_chemical_formula_structural  Sm2Ge2Rh
_chemical_formula_sum  Sm4Ge4Rh2
_cell_volume  217.5416108251076
_cell_formula_units_Z  2
loop_
  _symmetry_equiv_pos_site_id
 _symmetry_equiv_pos_as_xyz
 1  'x, y, z'
loop_
 _atom_site_type_symbol
 _atom_site_label
 _atom_site_symmetry_multiplicity
 _atom_site_fract_x
 _atom_site_fract_y
 _atom_site_fract_z
 _atom_site_fract_occupancy
 Ge  Ge1  1  0.64637  0.64637  0.44411  1
 Ge  Ge2  1  0.35363  0.35363  0.55589  1
 Ge  Ge3  1  0.51876  0.51876  0.11576  1
 Ge  Ge4  1  0.48124  0.48124  0.88424  1
 Rh  Rh1  1  0.72839  0.72839  0.66035  1
 Rh  Rh2  1  0.27161  0.27161  0.33965  1
 Sm  Sm1  1  0.99082  0.99082  0.33048  1
 Sm  Sm2  1  0.00918  0.00918  0.66952  1
 Sm  Sm3  1  0.80968  0.80968  0.11739  1
 Sm  Sm4  1  0.19032  0.19032  0.88261  1
