CIF file written using JARVIS-Tools package.
data_MnZnCdTe3
_symmetry_space_group_name_H-M  'Imm2'
_cell_length_a       10.0711
_cell_length_b       10.0711
_cell_length_c       10.0711
_cell_angle_alpha    154.285
_cell_angle_beta     154.217
_cell_angle_gamma    36.7347

_symmetry_Int_Tables_number  44
_chemical_formula_structural  MnZnCdTe3
_chemical_formula_sum  MnZnCdTe3
_cell_volume  192.51871460885016
_cell_formula_units_Z  1
loop_
  _symmetry_equiv_pos_site_id
 _symmetry_equiv_pos_as_xyz
 1  'x, y, z'
loop_
 _atom_site_type_symbol
 _atom_site_label
 _atom_site_symmetry_multiplicity
 _atom_site_fract_x
 _atom_site_fract_y
 _atom_site_fract_z
 _atom_site_fract_occupancy
 Cd  Cd1  1  0.99874  0.99874  0.00000  1
 Mn  Mn1  1  0.67054  0.67054  0.00000  1
 Te  Te1  1  0.75173  0.25173  0.50000  1
 Te  Te2  1  0.09057  0.59057  0.50000  1
 Te  Te3  1  0.40809  0.90809  0.50000  1
 Zn  Zn1  1  0.33033  0.33033  0.00000  1
