CIF file written using JARVIS-Tools package.
data_Mg5H2O6
_symmetry_space_group_name_H-M  'P-3m1'
_cell_length_a       3.02856
_cell_length_b       3.02856
_cell_length_c       14.7129
_cell_angle_alpha    90
_cell_angle_beta     90
_cell_angle_gamma    120

_symmetry_Int_Tables_number  164
_chemical_formula_structural  Mg5H2O6
_chemical_formula_sum  Mg5H2O6
_cell_volume  116.8690797503244
_cell_formula_units_Z  1
loop_
  _symmetry_equiv_pos_site_id
 _symmetry_equiv_pos_as_xyz
 1  'x, y, z'
loop_
 _atom_site_type_symbol
 _atom_site_label
 _atom_site_symmetry_multiplicity
 _atom_site_fract_x
 _atom_site_fract_y
 _atom_site_fract_z
 _atom_site_fract_occupancy
 H  H1  1  0.33333  0.66667  0.52975  1
 H  H2  1  0.66667  0.33333  0.47025  1
 Mg  Mg1  1  0.66667  0.33333  0.66857  1
 Mg  Mg2  1  0.33333  0.66667  0.33143  1
 Mg  Mg3  1  0.33333  0.66667  0.83460  1
 Mg  Mg4  1  0.66667  0.33333  0.16540  1
 Mg  Mg5  1  0.00000  0.00000  0.00000  1
 O  O1  1  0.33333  0.66667  0.08270  1
 O  O2  1  0.66667  0.33333  0.91730  1
 O  O3  1  0.00000  0.00000  0.24823  1
 O  O4  1  0.66667  0.33333  0.40429  1
 O  O5  1  0.33333  0.66667  0.59571  1
 O  O6  1  0.00000  0.00000  0.75177  1
