CIF file written using JARVIS-Tools package.
data_LiCrPO4
_symmetry_space_group_name_H-M  'Cmcm'
_cell_length_a       4.89835
_cell_length_b       4.89835
_cell_length_c       6.4087
_cell_angle_alpha    90
_cell_angle_beta     90
_cell_angle_gamma    68.8373

_symmetry_Int_Tables_number  63
_chemical_formula_structural  LiCrPO4
_chemical_formula_sum  Li2Cr2P2O8
_cell_volume  143.39849593231017
_cell_formula_units_Z  2
loop_
  _symmetry_equiv_pos_site_id
 _symmetry_equiv_pos_as_xyz
 1  'x, y, z'
loop_
 _atom_site_type_symbol
 _atom_site_label
 _atom_site_symmetry_multiplicity
 _atom_site_fract_x
 _atom_site_fract_y
 _atom_site_fract_z
 _atom_site_fract_occupancy
 Cr  Cr1  1  0.20795  0.20795  0.25000  1
 Cr  Cr2  1  0.79205  0.79205  0.75000  1
 Li  Li1  1  0.50000  0.50000  0.00000  1
 Li  Li2  1  0.50000  0.50000  0.50000  1
 O  O1  1  0.19687  0.74089  0.25000  1
 O  O2  1  0.25911  0.80313  0.75000  1
 O  O3  1  0.74370  0.74370  0.05462  1
 O  O4  1  0.25630  0.25630  0.55462  1
 O  O5  1  0.25630  0.25630  0.94538  1
 O  O6  1  0.74370  0.74370  0.44538  1
 O  O7  1  0.74089  0.19687  0.25000  1
 O  O8  1  0.80313  0.25911  0.75000  1
 P  P1  1  0.14460  0.14460  0.75000  1
 P  P2  1  0.85540  0.85540  0.25000  1
