CIF file written using JARVIS-Tools package.
data_Li2CuF4
_symmetry_space_group_name_H-M  'I4/mmm'
_cell_length_a       5.12726
_cell_length_b       5.12727
_cell_length_c       5.7242
_cell_angle_alpha    90
_cell_angle_beta     90
_cell_angle_gamma    112.135

_symmetry_Int_Tables_number  139
_chemical_formula_structural  Li2CuF4
_chemical_formula_sum  Li4Cu2F8
_cell_volume  139.39227084296
_cell_formula_units_Z  2
loop_
  _symmetry_equiv_pos_site_id
 _symmetry_equiv_pos_as_xyz
 1  'x, y, z'
loop_
 _atom_site_type_symbol
 _atom_site_label
 _atom_site_symmetry_multiplicity
 _atom_site_fract_x
 _atom_site_fract_y
 _atom_site_fract_z
 _atom_site_fract_occupancy
 Cu  Cu1  1  0.00000  0.00000  0.00000  1
 Cu  Cu2  1  0.50000  0.50000  0.50000  1
 F  F1  1  0.23449  0.76551  0.00000  1
 F  F2  1  0.26551  0.73449  0.50000  1
 F  F3  1  0.24987  0.24987  0.75019  1
 F  F4  1  0.25013  0.25013  0.25019  1
 F  F5  1  0.74987  0.74987  0.74981  1
 F  F6  1  0.75013  0.75013  0.24981  1
 F  F7  1  0.73449  0.26551  0.50000  1
 F  F8  1  0.76551  0.23449  0.00000  1
 Li  Li1  1  0.00002  0.50002  0.25000  1
 Li  Li2  1  0.49998  0.99998  0.75000  1
 Li  Li3  1  0.50002  0.00002  0.25000  1
 Li  Li4  1  0.99998  0.49998  0.75000  1
