CIF file written using JARVIS-Tools package.
data_RbTlO2
_symmetry_space_group_name_H-M  'R-3m'
_cell_length_a       6.71304
_cell_length_b       6.71304
_cell_length_c       6.71304
_cell_angle_alpha    30.4479
_cell_angle_beta     30.4479
_cell_angle_gamma    30.4479

_symmetry_Int_Tables_number  166
_chemical_formula_structural  RbTlO2
_chemical_formula_sum  RbTlO2
_cell_volume  68.8607132227382
_cell_formula_units_Z  1
loop_
  _symmetry_equiv_pos_site_id
 _symmetry_equiv_pos_as_xyz
 1  'x, y, z'
loop_
 _atom_site_type_symbol
 _atom_site_label
 _atom_site_symmetry_multiplicity
 _atom_site_fract_x
 _atom_site_fract_y
 _atom_site_fract_z
 _atom_site_fract_occupancy
 O  O1  1  0.72918  0.72918  0.72918  1
 O  O2  1  0.27082  0.27082  0.27082  1
 Rb  Rb1  1  0.50000  0.50000  0.50000  1
 Tl  Tl1  1  0.00000  0.00000  0.00000  1
