CIF file written using JARVIS-Tools package.
data_ZrH6C5O4
_symmetry_space_group_name_H-M  'P1'
_cell_length_a       3.51812
_cell_length_b       4.11476
_cell_length_c       9.01662
_cell_angle_alpha    81.4375
_cell_angle_beta     83.4925
_cell_angle_gamma    67.7404

_symmetry_Int_Tables_number  1
_chemical_formula_structural  ZrH6C5O4
_chemical_formula_sum  ZrH6C5O4
_cell_volume  119.22150232578471
_cell_formula_units_Z  1
loop_
  _symmetry_equiv_pos_site_id
 _symmetry_equiv_pos_as_xyz
 1  'x, y, z'
loop_
 _atom_site_type_symbol
 _atom_site_label
 _atom_site_symmetry_multiplicity
 _atom_site_fract_x
 _atom_site_fract_y
 _atom_site_fract_z
 _atom_site_fract_occupancy
 C  C1  1  0.46216  0.48608  0.48357  1
 C  C2  1  0.65275  0.45783  0.63127  1
 C  C3  1  0.39933  0.45775  0.06728  1
 C  C4  1  0.39562  0.61082  0.77277  1
 C  C5  1  0.57110  0.36025  0.91261  1
 H  H1  1  0.55850  0.09888  0.90884  1
 H  H2  1  0.90338  0.29991  0.91407  1
 H  H3  1  0.87990  0.58188  0.60299  1
 H  H4  1  0.82950  0.17473  0.66071  1
 H  H5  1  0.07079  0.65294  0.77052  1
 H  H6  1  0.40183  0.87419  0.77690  1
 O  O1  1  0.73354  0.56664  0.34888  1
 O  O2  1  0.47452  0.14710  0.46335  1
 O  O3  1  0.20040  0.77111  0.09320  1
 O  O4  1  0.47920  0.20034  0.17473  1
 Zr  Zr1  1  0.07454  0.96366  0.32809  1
