CIF file written using JARVIS-Tools package.
data_U3As2Se
_symmetry_space_group_name_H-M  'P-3m1'
_cell_length_a       4.99617
_cell_length_b       4.99617
_cell_length_c       6.11536
_cell_angle_alpha    90
_cell_angle_beta     90
_cell_angle_gamma    120

_symmetry_Int_Tables_number  164
_chemical_formula_structural  U3As2Se
_chemical_formula_sum  U3As2Se
_cell_volume  132.19878551772732
_cell_formula_units_Z  1
loop_
  _symmetry_equiv_pos_site_id
 _symmetry_equiv_pos_as_xyz
 1  'x, y, z'
loop_
 _atom_site_type_symbol
 _atom_site_label
 _atom_site_symmetry_multiplicity
 _atom_site_fract_x
 _atom_site_fract_y
 _atom_site_fract_z
 _atom_site_fract_occupancy
 As  As1  1  0.66667  0.33333  0.32952  1
 As  As2  1  0.33333  0.66667  0.67048  1
 Se  Se1  1  0.00000  0.00000  0.00000  1
 U  U1  1  0.00000  0.00000  0.50000  1
 U  U2  1  0.66667  0.33333  0.82841  1
 U  U3  1  0.33333  0.66667  0.17159  1
