CIF file written using JARVIS-Tools package.
data_V2CrTe4
_symmetry_space_group_name_H-M  'Cm'
_cell_length_a       7.25268
_cell_length_b       7.25268
_cell_length_c       6.96817
_cell_angle_alpha    62.4602
_cell_angle_beta     62.4602
_cell_angle_gamma    32.0393

_symmetry_Int_Tables_number  8
_chemical_formula_structural  V2CrTe4
_chemical_formula_sum  V2CrTe4
_cell_volume  170.47134162995965
_cell_formula_units_Z  1
loop_
  _symmetry_equiv_pos_site_id
 _symmetry_equiv_pos_as_xyz
 1  'x, y, z'
loop_
 _atom_site_type_symbol
 _atom_site_label
 _atom_site_symmetry_multiplicity
 _atom_site_fract_x
 _atom_site_fract_y
 _atom_site_fract_z
 _atom_site_fract_occupancy
 Cr  Cr1  1  0.25816  0.25816  0.72102  1
 Te  Te1  1  0.11870  0.11870  0.54843  1
 Te  Te2  1  0.88302  0.88302  0.45367  1
 Te  Te3  1  0.36797  0.36797  0.96852  1
 Te  Te4  1  0.63033  0.63033  0.03208  1
 V  V1  1  0.74364  0.74364  0.27609  1
 V  V2  1  0.99818  0.99818  0.00019  1
