CIF file written using JARVIS-Tools package.
data_VBr2
_symmetry_space_group_name_H-M  'P-3m1'
_cell_length_a       3.81668
_cell_length_b       3.81671
_cell_length_c       6.06517
_cell_angle_alpha    89.9972
_cell_angle_beta     90
_cell_angle_gamma    120

_symmetry_Int_Tables_number  164
_chemical_formula_structural  VBr2
_chemical_formula_sum  VBr2
_cell_volume  76.51560637947348
_cell_formula_units_Z  1
loop_
  _symmetry_equiv_pos_site_id
 _symmetry_equiv_pos_as_xyz
 1  'x, y, z'
loop_
 _atom_site_type_symbol
 _atom_site_label
 _atom_site_symmetry_multiplicity
 _atom_site_fract_x
 _atom_site_fract_y
 _atom_site_fract_z
 _atom_site_fract_occupancy
 Br  Br1  1  0.33328  0.66664  0.23951  1
 Br  Br2  1  0.66665  0.33336  0.76049  1
 V  V1  1  0.99997  0.00000  0.00000  1
