CIF file written using JARVIS-Tools package.
data_TeOF2
_symmetry_space_group_name_H-M  'P2_1'
_cell_length_a       5.32992
_cell_length_b       5.67005
_cell_length_c       7.99395
_cell_angle_alpha    90
_cell_angle_beta     90
_cell_angle_gamma    98.457

_symmetry_Int_Tables_number  4
_chemical_formula_structural  TeOF2
_chemical_formula_sum  Te4O4F8
_cell_volume  238.95752569785654
_cell_formula_units_Z  4
loop_
  _symmetry_equiv_pos_site_id
 _symmetry_equiv_pos_as_xyz
 1  'x, y, z'
loop_
 _atom_site_type_symbol
 _atom_site_label
 _atom_site_symmetry_multiplicity
 _atom_site_fract_x
 _atom_site_fract_y
 _atom_site_fract_z
 _atom_site_fract_occupancy
 F  F1  1  0.63787  0.74537  0.32763  1
 F  F2  1  0.36213  0.25463  0.82763  1
 F  F3  1  0.96899  0.69411  0.06313  1
 F  F4  1  0.77856  0.56978  0.76418  1
 F  F5  1  0.03101  0.30589  0.56313  1
 F  F6  1  0.19133  0.83803  0.55877  1
 F  F7  1  0.22144  0.43022  0.26418  1
 F  F8  1  0.80867  0.16197  0.05877  1
 O  O1  1  0.69752  0.95340  0.61186  1
 O  O2  1  0.37725  0.74619  0.85663  1
 O  O3  1  0.30248  0.04660  0.11186  1
 O  O4  1  0.62275  0.25381  0.35663  1
 Te  Te1  1  0.51962  0.35499  0.13765  1
 Te  Te2  1  0.11520  0.94615  0.90865  1
 Te  Te3  1  0.48038  0.64501  0.63765  1
 Te  Te4  1  0.88480  0.05385  0.40865  1
