CIF file written using JARVIS-Tools package.
data_Na4CdP2
_symmetry_space_group_name_H-M  'R-3m'
_cell_length_a       9.04993
_cell_length_b       9.04993
_cell_length_c       9.04993
_cell_angle_alpha    32.027
_cell_angle_beta     32.0271
_cell_angle_gamma    32.0271

_symmetry_Int_Tables_number  166
_chemical_formula_structural  Na4CdP2
_chemical_formula_sum  Na4CdP2
_cell_volume  185.21852193149178
_cell_formula_units_Z  1
loop_
  _symmetry_equiv_pos_site_id
 _symmetry_equiv_pos_as_xyz
 1  'x, y, z'
loop_
 _atom_site_type_symbol
 _atom_site_label
 _atom_site_symmetry_multiplicity
 _atom_site_fract_x
 _atom_site_fract_y
 _atom_site_fract_z
 _atom_site_fract_occupancy
 Cd  Cd1  1  0.00000  0.00000  0.00000  1
 Na  Na1  1  0.79315  0.79315  0.79315  1
 Na  Na2  1  0.59527  0.59527  0.59527  1
 Na  Na3  1  0.20685  0.20685  0.20685  1
 Na  Na4  1  0.40473  0.40473  0.40473  1
 P  P1  1  0.09415  0.09415  0.09415  1
 P  P2  1  0.90585  0.90585  0.90585  1
