CIF file written using JARVIS-Tools package.
data_TiS3
_symmetry_space_group_name_H-M  'P2_1/m'
_cell_length_a       5.01669
_cell_length_b       3.41517
_cell_length_c       8.85687
_cell_angle_alpha    90
_cell_angle_beta     97.0189
_cell_angle_gamma    90

_symmetry_Int_Tables_number  11
_chemical_formula_structural  TiS3
_chemical_formula_sum  Ti2S6
_cell_volume  150.60659197564075
_cell_formula_units_Z  2
loop_
  _symmetry_equiv_pos_site_id
 _symmetry_equiv_pos_as_xyz
 1  'x, y, z'
loop_
 _atom_site_type_symbol
 _atom_site_label
 _atom_site_symmetry_multiplicity
 _atom_site_fract_x
 _atom_site_fract_y
 _atom_site_fract_z
 _atom_site_fract_occupancy
 S  S1  1  0.88149  0.75000  0.17401  1
 S  S2  1  0.11851  0.25000  0.82599  1
 S  S3  1  0.23866  0.25000  0.44975  1
 S  S4  1  0.76134  0.75000  0.55025  1
 S  S5  1  0.52586  0.25000  0.82220  1
 S  S6  1  0.47414  0.75000  0.17780  1
 Ti  Ti1  1  0.28257  0.75000  0.65245  1
 Ti  Ti2  1  0.71743  0.25000  0.34755  1
