CIF file written using JARVIS-Tools package.
data_SrSn3Pd
_symmetry_space_group_name_H-M  'I4mm'
_cell_length_a       4.88039
_cell_length_b       4.88039
_cell_length_c       6.62437
_cell_angle_alpha    111.615
_cell_angle_beta     111.615
_cell_angle_gamma    90

_symmetry_Int_Tables_number  107
_chemical_formula_structural  SrSn3Pd
_chemical_formula_sum  SrSn3Pd
_cell_volume  134.67954345619543
_cell_formula_units_Z  1
loop_
  _symmetry_equiv_pos_site_id
 _symmetry_equiv_pos_as_xyz
 1  'x, y, z'
loop_
 _atom_site_type_symbol
 _atom_site_label
 _atom_site_symmetry_multiplicity
 _atom_site_fract_x
 _atom_site_fract_y
 _atom_site_fract_z
 _atom_site_fract_occupancy
 Pd  Pd1  1  0.64265  0.64265  0.28531  1
 Sn  Sn1  1  0.41077  0.41077  0.82153  1
 Sn  Sn2  1  0.74574  0.24574  0.49148  1
 Sn  Sn3  1  0.24574  0.74574  0.49148  1
 Sr  Sr1  1  0.99610  0.99610  0.99220  1
