CIF file written using JARVIS-Tools package.
data_Li2VF4
_symmetry_space_group_name_H-M  'Imma'
_cell_length_a       5.85538
_cell_length_b       5.96908
_cell_length_c       5.96908
_cell_angle_alpha    89.2072
_cell_angle_beta     60.6298
_cell_angle_gamma    60.6299

_symmetry_Int_Tables_number  74
_chemical_formula_structural  Li2VF4
_chemical_formula_sum  Li4V2F8
_cell_volume  151.21949331790177
_cell_formula_units_Z  2
loop_
  _symmetry_equiv_pos_site_id
 _symmetry_equiv_pos_as_xyz
 1  'x, y, z'
loop_
 _atom_site_type_symbol
 _atom_site_label
 _atom_site_symmetry_multiplicity
 _atom_site_fract_x
 _atom_site_fract_y
 _atom_site_fract_z
 _atom_site_fract_occupancy
 F  F1  1  0.99066  0.74570  0.25433  1
 F  F2  1  0.51741  0.73630  0.72889  1
 F  F3  1  0.98259  0.27111  0.26370  1
 F  F4  1  0.50934  0.74567  0.25430  1
 F  F5  1  0.49066  0.25433  0.74570  1
 F  F6  1  0.01741  0.72889  0.73630  1
 F  F7  1  0.48259  0.26370  0.27111  1
 F  F8  1  0.00934  0.25430  0.74567  1
 Li  Li1  1  0.75000  0.11573  0.88427  1
 Li  Li2  1  0.50000  0.50000  0.50000  1
 Li  Li3  1  0.25000  0.88427  0.11573  1
 Li  Li4  1  -0.00000  0.50000  0.50000  1
 V  V1  1  0.50000  -0.00000  0.50000  1
 V  V2  1  -0.00000  0.50000  0.00000  1
