CIF file written using JARVIS-Tools package.
data_LiAg2F6
_symmetry_space_group_name_H-M  'P321'
_cell_length_a       5.40421
_cell_length_b       5.40421
_cell_length_c       4.77883
_cell_angle_alpha    89.9968
_cell_angle_beta     89.9968
_cell_angle_gamma    60.0023

_symmetry_Int_Tables_number  150
_chemical_formula_structural  LiAg2F6
_chemical_formula_sum  LiAg2F6
_cell_volume  120.87220896915781
_cell_formula_units_Z  1
loop_
  _symmetry_equiv_pos_site_id
 _symmetry_equiv_pos_as_xyz
 1  'x, y, z'
loop_
 _atom_site_type_symbol
 _atom_site_label
 _atom_site_symmetry_multiplicity
 _atom_site_fract_x
 _atom_site_fract_y
 _atom_site_fract_z
 _atom_site_fract_occupancy
 Ag  Ag1  1  0.66665  0.66668  0.74272  1
 Ag  Ag2  1  0.33332  0.33335  0.25728  1
 F  F1  1  0.00001  0.65817  -0.00001  1
 F  F2  1  -0.00003  0.34938  0.49998  1
 F  F3  1  0.34938  0.65062  0.50000  1
 F  F4  1  0.65816  0.34184  0.00000  1
 F  F5  1  0.34183  -0.00001  0.00001  1
 F  F6  1  0.65062  0.00003  0.50002  1
 Li  Li1  1  -0.00004  0.00004  0.00000  1
