CIF file written using JARVIS-Tools package.
data_ZnCu2O3
_symmetry_space_group_name_H-M  'Pmmn'
_cell_length_a       3.32949
_cell_length_b       3.97297
_cell_length_c       9.59014
_cell_angle_alpha    90
_cell_angle_beta     90
_cell_angle_gamma    90

_symmetry_Int_Tables_number  59
_chemical_formula_structural  ZnCu2O3
_chemical_formula_sum  Zn2Cu4O6
_cell_volume  126.85822770916036
_cell_formula_units_Z  2
loop_
  _symmetry_equiv_pos_site_id
 _symmetry_equiv_pos_as_xyz
 1  'x, y, z'
loop_
 _atom_site_type_symbol
 _atom_site_label
 _atom_site_symmetry_multiplicity
 _atom_site_fract_x
 _atom_site_fract_y
 _atom_site_fract_z
 _atom_site_fract_occupancy
 Cu  Cu1  1  0.17774  0.00000  0.33536  1
 Cu  Cu2  1  0.17774  0.00000  0.66464  1
 Cu  Cu3  1  0.82226  0.50000  0.83536  1
 Cu  Cu4  1  0.82226  0.50000  0.16464  1
 O  O1  1  0.50881  0.00000  0.50000  1
 O  O2  1  0.88357  0.00000  0.84102  1
 O  O3  1  0.88357  0.00000  0.15898  1
 O  O4  1  0.49119  0.50000  0.00000  1
 O  O5  1  0.11643  0.50000  0.34102  1
 O  O6  1  0.11643  0.50000  0.65898  1
 Zn  Zn1  1  0.32284  0.00000  0.00000  1
 Zn  Zn2  1  0.67716  0.50000  0.50000  1
