CIF file written using JARVIS-Tools package.
data_ZnH2C3O4
_symmetry_space_group_name_H-M  'C2'
_cell_length_a       4.19022
_cell_length_b       4.84763
_cell_length_c       5.87687
_cell_angle_alpha    78.749
_cell_angle_beta     69.1155
_cell_angle_gamma    64.3913

_symmetry_Int_Tables_number  5
_chemical_formula_structural  ZnH2C3O4
_chemical_formula_sum  ZnH2C3O4
_cell_volume  100.45633073299324
_cell_formula_units_Z  1
loop_
  _symmetry_equiv_pos_site_id
 _symmetry_equiv_pos_as_xyz
 1  'x, y, z'
loop_
 _atom_site_type_symbol
 _atom_site_label
 _atom_site_symmetry_multiplicity
 _atom_site_fract_x
 _atom_site_fract_y
 _atom_site_fract_z
 _atom_site_fract_occupancy
 C  C1  1  0.45314  0.51155  0.68131  1
 C  C2  1  0.53160  0.57236  0.89699  1
 C  C3  1  0.17666  0.63315  0.11267  1
 H  H1  1  0.75912  0.36836  0.93733  1
 H  H2  1  0.59543  0.77637  0.85665  1
 O  O1  1  0.32316  0.72926  0.53631  1
 O  O2  1  0.50717  0.23507  0.66619  1
 O  O3  1  0.11943  0.41542  0.25765  1
 O  O4  1  0.93906  0.90963  0.12782  1
 Zn  Zn1  1  0.47580  0.07234  0.39702  1
