CIF file written using JARVIS-Tools package.
data_Zr3Si2
_symmetry_space_group_name_H-M  'P4/mbm'
_cell_length_a       7.11421
_cell_length_b       7.11421
_cell_length_c       3.7116
_cell_angle_alpha    90
_cell_angle_beta     90
_cell_angle_gamma    90

_symmetry_Int_Tables_number  127
_chemical_formula_structural  Zr3Si2
_chemical_formula_sum  Zr6Si4
_cell_volume  187.85144849196672
_cell_formula_units_Z  2
loop_
  _symmetry_equiv_pos_site_id
 _symmetry_equiv_pos_as_xyz
 1  'x, y, z'
loop_
 _atom_site_type_symbol
 _atom_site_label
 _atom_site_symmetry_multiplicity
 _atom_site_fract_x
 _atom_site_fract_y
 _atom_site_fract_z
 _atom_site_fract_occupancy
 Si  Si1  1  0.12258  0.62258  0.00000  1
 Si  Si2  1  0.87742  0.37742  0.00000  1
 Si  Si3  1  0.62258  0.87742  0.00000  1
 Si  Si4  1  0.37742  0.12258  0.00000  1
 Zr  Zr1  1  0.67455  0.17455  0.50000  1
 Zr  Zr2  1  0.32545  0.82545  0.50000  1
 Zr  Zr3  1  0.17455  0.32545  0.50000  1
 Zr  Zr4  1  0.82545  0.67455  0.50000  1
 Zr  Zr5  1  0.00000  0.00000  0.00000  1
 Zr  Zr6  1  0.50000  0.50000  0.00000  1
