CIF file written using JARVIS-Tools package.
data_NbBi3O7
_symmetry_space_group_name_H-M  'P1'
_cell_length_a       3.81054
_cell_length_b       3.96813
_cell_length_c       12.8592
_cell_angle_alpha    81.4401
_cell_angle_beta     81.264
_cell_angle_gamma    59.7092

_symmetry_Int_Tables_number  1
_chemical_formula_structural  NbBi3O7
_chemical_formula_sum  NbBi3O7
_cell_volume  165.3521964301408
_cell_formula_units_Z  1
loop_
  _symmetry_equiv_pos_site_id
 _symmetry_equiv_pos_as_xyz
 1  'x, y, z'
loop_
 _atom_site_type_symbol
 _atom_site_label
 _atom_site_symmetry_multiplicity
 _atom_site_fract_x
 _atom_site_fract_y
 _atom_site_fract_z
 _atom_site_fract_occupancy
 Bi  Bi1  1  0.96401  0.06372  0.98746  1
 Bi  Bi2  1  0.20726  0.28554  0.26142  1
 Bi  Bi3  1  0.72212  0.80953  0.72526  1
 Nb  Nb1  1  0.48248  0.45744  0.49291  1
 O  O1  1  0.49505  0.62680  0.33763  1
 O  O2  1  0.79229  0.87637  0.53064  1
 O  O3  1  0.89404  0.00718  0.17672  1
 O  O4  1  0.12972  0.25292  0.45235  1
 O  O5  1  0.02649  0.12501  0.80228  1
 O  O6  1  0.42697  0.49555  0.64693  1
 O  O7  1  0.64630  0.72505  0.97502  1
