CIF file written using JARVIS-Tools package.
data_MgTePb2O6
_symmetry_space_group_name_H-M  'P-1'
_cell_length_a       5.71029
_cell_length_b       5.67662
_cell_length_c       5.71341
_cell_angle_alpha    59.7641
_cell_angle_beta     60.0083
_cell_angle_gamma    59.7885

_symmetry_Int_Tables_number  2
_chemical_formula_structural  MgTePb2O6
_chemical_formula_sum  MgTePb2O6
_cell_volume  130.52046407278357
_cell_formula_units_Z  1
loop_
  _symmetry_equiv_pos_site_id
 _symmetry_equiv_pos_as_xyz
 1  'x, y, z'
loop_
 _atom_site_type_symbol
 _atom_site_label
 _atom_site_symmetry_multiplicity
 _atom_site_fract_x
 _atom_site_fract_y
 _atom_site_fract_z
 _atom_site_fract_occupancy
 Mg  Mg1  1  0.99494  0.00018  0.00254  1
 O  O1  1  0.21381  0.74417  0.74039  1
 O  O2  1  0.29528  0.74511  0.22034  1
 O  O3  1  0.73467  0.74231  0.30276  1
 O  O4  1  0.77626  0.25542  0.26516  1
 O  O5  1  0.69470  0.25450  0.78494  1
 O  O6  1  0.25566  0.25729  0.70242  1
 Pb  Pb1  1  0.74413  0.75391  0.75118  1
 Pb  Pb2  1  0.24555  0.24712  0.25367  1
 Te  Te1  1  0.49500  0.49999  0.50260  1
