CIF file written using JARVIS-Tools package.
data_Co3SnO8
_symmetry_space_group_name_H-M  'P6_3mc'
_cell_length_a       5.65758
_cell_length_b       5.65755
_cell_length_c       9.34659
_cell_angle_alpha    89.9993
_cell_angle_beta     90.0004
_cell_angle_gamma    120

_symmetry_Int_Tables_number  186
_chemical_formula_structural  Co3SnO8
_chemical_formula_sum  Co6Sn2O6
_cell_volume  259.08603698580464
_cell_formula_units_Z  2
loop_
  _symmetry_equiv_pos_site_id
 _symmetry_equiv_pos_as_xyz
 1  'x, y, z'
loop_
 _atom_site_type_symbol
 _atom_site_label
 _atom_site_symmetry_multiplicity
 _atom_site_fract_x
 _atom_site_fract_y
 _atom_site_fract_z
 _atom_site_fract_occupancy
 Co  Co1  1  0.16748  0.83252  0.21355  1
 Co  Co2  1  0.16748  0.33498  0.21355  1
 Co  Co3  1  0.66504  0.83253  0.21355  1
 Co  Co4  1  0.33496  0.16749  0.71355  1
 Co  Co5  1  0.83252  0.66504  0.71355  1
 Co  Co6  1  0.83252  0.16749  0.71355  1
 O  O1  1  0.15590  0.84411  0.60748  1
 O  O2  1  0.03055  0.51528  0.32632  1
 O  O3  1  0.33334  0.66668  0.11113  1
 O  O4  1  0.96945  0.48474  0.82632  1
 O  O5  1  1.00000  0.00000  0.81290  1
 O  O6  1  0.15590  0.31181  0.60748  1
 O  O7  1  0.00000  0.00001  0.31290  1
 O  O8  1  0.48473  0.51527  0.32632  1
 O  O9  1  0.51526  0.48474  0.82631  1
 O  O10  1  0.68823  0.84413  0.60747  1
 O  O11  1  0.48474  0.96948  0.32631  1
 O  O12  1  0.51527  0.03054  0.82632  1
 O  O13  1  0.66666  0.33334  0.61113  1
 O  O14  1  0.84410  0.68821  0.10748  1
 O  O15  1  0.31177  0.15590  0.10747  1
 O  O16  1  0.84410  0.15590  0.10748  1
 Sn  Sn1  1  0.66665  0.33334  0.99181  1
 Sn  Sn2  1  0.33335  0.66668  0.49181  1
