CIF file written using JARVIS-Tools package.
data_VAsRh
_symmetry_space_group_name_H-M  'Pnma'
_cell_length_a       3.91361
_cell_length_b       6.13248
_cell_length_c       7.3198
_cell_angle_alpha    90
_cell_angle_beta     90
_cell_angle_gamma    90

_symmetry_Int_Tables_number  62
_chemical_formula_structural  VAsRh
_chemical_formula_sum  V4As4Rh4
_cell_volume  175.67644138818213
_cell_formula_units_Z  4
loop_
  _symmetry_equiv_pos_site_id
 _symmetry_equiv_pos_as_xyz
 1  'x, y, z'
loop_
 _atom_site_type_symbol
 _atom_site_label
 _atom_site_symmetry_multiplicity
 _atom_site_fract_x
 _atom_site_fract_y
 _atom_site_fract_z
 _atom_site_fract_occupancy
 As  As1  1  0.75000  0.23823  0.38313  1
 As  As2  1  0.25000  0.26177  0.88313  1
 As  As3  1  0.75000  0.73823  0.11687  1
 As  As4  1  0.25000  0.76177  0.61687  1
 Rh  Rh1  1  0.25000  0.35547  0.56371  1
 Rh  Rh2  1  0.25000  0.85547  0.93629  1
 Rh  Rh3  1  0.75000  0.14453  0.06371  1
 Rh  Rh4  1  0.75000  0.64453  0.43629  1
 V  V1  1  0.25000  0.46841  0.18290  1
 V  V2  1  0.25000  0.96841  0.31710  1
 V  V3  1  0.75000  0.53159  0.81710  1
 V  V4  1  0.75000  0.03159  0.68290  1
