CIF file written using JARVIS-Tools package.
data_MnCr3Te4
_symmetry_space_group_name_H-M  'P2/m'
_cell_length_a       4.13114
_cell_length_b       6.11471
_cell_length_c       7.16602
_cell_angle_alpha    90.0054
_cell_angle_beta     90
_cell_angle_gamma    90

_symmetry_Int_Tables_number  10
_chemical_formula_structural  MnCr3Te4
_chemical_formula_sum  MnCr3Te4
_cell_volume  181.01863887759384
_cell_formula_units_Z  1
loop_
  _symmetry_equiv_pos_site_id
 _symmetry_equiv_pos_as_xyz
 1  'x, y, z'
loop_
 _atom_site_type_symbol
 _atom_site_label
 _atom_site_symmetry_multiplicity
 _atom_site_fract_x
 _atom_site_fract_y
 _atom_site_fract_z
 _atom_site_fract_occupancy
 Cr  Cr1  1  0.50000  0.50000  0.50000  1
 Cr  Cr2  1  0.00000  0.00000  0.00000  1
 Cr  Cr3  1  0.50000  -0.00000  0.50000  1
 Mn  Mn1  1  0.00000  0.50000  0.00000  1
 Te  Te1  1  0.50000  0.75440  0.16820  1
 Te  Te2  1  0.00000  0.75093  0.66517  1
 Te  Te3  1  0.00000  0.24907  0.33483  1
 Te  Te4  1  0.50000  0.24560  0.83180  1
