CIF file written using JARVIS-Tools package.
data_ZnH4C4O4
_symmetry_space_group_name_H-M  'P-1'
_cell_length_a       3.69633
_cell_length_b       4.30961
_cell_length_c       7.32973
_cell_angle_alpha    80.0013
_cell_angle_beta     87.5641
_cell_angle_gamma    74.2343

_symmetry_Int_Tables_number  2
_chemical_formula_structural  ZnH4C4O4
_chemical_formula_sum  ZnH4C4O4
_cell_volume  110.66033522648415
_cell_formula_units_Z  1
loop_
  _symmetry_equiv_pos_site_id
 _symmetry_equiv_pos_as_xyz
 1  'x, y, z'
loop_
 _atom_site_type_symbol
 _atom_site_label
 _atom_site_symmetry_multiplicity
 _atom_site_fract_x
 _atom_site_fract_y
 _atom_site_fract_z
 _atom_site_fract_occupancy
 C  C1  1  0.46517  0.39345  0.52665  1
 C  C2  1  0.23479  0.40771  0.70264  1
 C  C3  1  0.44544  0.46009  0.86689  1
 C  C4  1  0.21507  0.47433  0.04289  1
 H  H1  1  0.98280  0.61149  0.67265  1
 H  H2  1  0.15862  0.17620  0.73785  1
 H  H3  1  0.52159  0.69160  0.83168  1
 H  H4  1  0.69744  0.25632  0.89688  1
 O  O1  1  0.40573  0.64656  0.39980  1
 O  O2  1  0.70997  0.12470  0.51382  1
 O  O3  1  0.27451  0.22125  0.16974  1
 O  O4  1  0.97026  0.74309  0.05569  1
 Zn  Zn1  1  0.83999  0.93378  0.28477  1
