CIF file written using JARVIS-Tools package.
data_Zr6NiSn2
_symmetry_space_group_name_H-M  'P-62m'
_cell_length_a       7.88865
_cell_length_b       7.88865
_cell_length_c       3.58437
_cell_angle_alpha    90
_cell_angle_beta     90
_cell_angle_gamma    120

_symmetry_Int_Tables_number  189
_chemical_formula_structural  Zr6NiSn2
_chemical_formula_sum  Zr6NiSn2
_cell_volume  193.17381693026124
_cell_formula_units_Z  1
loop_
  _symmetry_equiv_pos_site_id
 _symmetry_equiv_pos_as_xyz
 1  'x, y, z'
loop_
 _atom_site_type_symbol
 _atom_site_label
 _atom_site_symmetry_multiplicity
 _atom_site_fract_x
 _atom_site_fract_y
 _atom_site_fract_z
 _atom_site_fract_occupancy
 Ni  Ni1  1  0.00000  0.00000  0.00000  1
 Sn  Sn1  1  0.33333  0.66667  0.50000  1
 Sn  Sn2  1  0.66667  0.33333  0.50000  1
 Zr  Zr1  1  0.24369  0.00000  0.50000  1
 Zr  Zr2  1  0.00000  0.24369  0.50000  1
 Zr  Zr3  1  0.75631  0.75631  0.50000  1
 Zr  Zr4  1  0.60177  -0.00000  0.00000  1
 Zr  Zr5  1  -0.00000  0.60177  0.00000  1
 Zr  Zr6  1  0.39823  0.39823  0.00000  1
