CIF file written using JARVIS-Tools package.
data_USe3
_symmetry_space_group_name_H-M  'P2_1/m'
_cell_length_a       5.49725
_cell_length_b       3.97288
_cell_length_c       9.47369
_cell_angle_alpha    90
_cell_angle_beta     98.1698
_cell_angle_gamma    90

_symmetry_Int_Tables_number  11
_chemical_formula_structural  USe3
_chemical_formula_sum  U2Se6
_cell_volume  204.80469747182892
_cell_formula_units_Z  2
loop_
  _symmetry_equiv_pos_site_id
 _symmetry_equiv_pos_as_xyz
 1  'x, y, z'
loop_
 _atom_site_type_symbol
 _atom_site_label
 _atom_site_symmetry_multiplicity
 _atom_site_fract_x
 _atom_site_fract_y
 _atom_site_fract_z
 _atom_site_fract_occupancy
 Se  Se1  1  0.91395  0.75000  0.66609  1
 Se  Se2  1  0.08605  0.25000  0.33391  1
 Se  Se3  1  0.23603  0.25000  0.94377  1
 Se  Se4  1  0.76397  0.75000  0.05623  1
 Se  Se5  1  0.57886  0.25000  0.33191  1
 Se  Se6  1  0.42114  0.75000  0.66809  1
 U  U1  1  0.29076  0.75000  0.16625  1
 U  U2  1  0.70924  0.25000  0.83375  1
