CIF file written using JARVIS-Tools package.
data_La2GaNiO6
_symmetry_space_group_name_H-M  'R-3'
_cell_length_a       5.44976
_cell_length_b       5.44983
_cell_length_c       5.44911
_cell_angle_alpha    61.1907
_cell_angle_beta     61.1827
_cell_angle_gamma    61.1783

_symmetry_Int_Tables_number  148
_chemical_formula_structural  La2GaNiO6
_chemical_formula_sum  La2GaNiO6
_cell_volume  117.4862325029121
_cell_formula_units_Z  1
loop_
  _symmetry_equiv_pos_site_id
 _symmetry_equiv_pos_as_xyz
 1  'x, y, z'
loop_
 _atom_site_type_symbol
 _atom_site_label
 _atom_site_symmetry_multiplicity
 _atom_site_fract_x
 _atom_site_fract_y
 _atom_site_fract_z
 _atom_site_fract_occupancy
 Ga  Ga1  1  0.50000  0.50000  0.50000  1
 La  La1  1  0.24913  0.24912  0.24917  1
 La  La2  1  0.75087  0.75088  0.75083  1
 Ni  Ni1  1  -0.00000  -0.00000  0.00000  1
 O  O1  1  0.81234  0.69006  0.24791  1
 O  O2  1  0.69011  0.24773  0.81239  1
 O  O3  1  0.24770  0.81242  0.69017  1
 O  O4  1  0.30989  0.75227  0.18761  1
 O  O5  1  0.75230  0.18758  0.30983  1
 O  O6  1  0.18766  0.30994  0.75209  1
