CIF file written using JARVIS-Tools package.
data_ScHO2
_symmetry_space_group_name_H-M  'Pnma'
_cell_length_a       3.22309
_cell_length_b       4.78526
_cell_length_c       10.3419
_cell_angle_alpha    90
_cell_angle_beta     90
_cell_angle_gamma    90

_symmetry_Int_Tables_number  62
_chemical_formula_structural  ScHO2
_chemical_formula_sum  Sc4H4O8
_cell_volume  159.505892712925
_cell_formula_units_Z  4
loop_
  _symmetry_equiv_pos_site_id
 _symmetry_equiv_pos_as_xyz
 1  'x, y, z'
loop_
 _atom_site_type_symbol
 _atom_site_label
 _atom_site_symmetry_multiplicity
 _atom_site_fract_x
 _atom_site_fract_y
 _atom_site_fract_z
 _atom_site_fract_occupancy
 H  H1  1  0.25000  0.10992  0.59160  1
 H  H2  1  0.25000  0.39008  0.09160  1
 H  H3  1  0.75000  0.89008  0.40840  1
 H  H4  1  0.75000  0.60992  0.90840  1
 O  O1  1  0.25000  0.81648  0.69411  1
 O  O2  1  0.25000  0.68352  0.19411  1
 O  O3  1  0.75000  0.18352  0.30589  1
 O  O4  1  0.75000  0.31648  0.80589  1
 O  O5  1  0.25000  0.30710  0.55922  1
 O  O6  1  0.25000  0.19290  0.05922  1
 O  O7  1  0.75000  0.69290  0.44078  1
 O  O8  1  0.75000  0.80710  0.94078  1
 Sc  Sc1  1  0.25000  0.42966  0.35570  1
 Sc  Sc2  1  0.25000  0.07034  0.85570  1
 Sc  Sc3  1  0.75000  0.57034  0.64430  1
 Sc  Sc4  1  0.75000  0.92966  0.14430  1
