CIF file written using JARVIS-Tools package.
data_InHO2
_symmetry_space_group_name_H-M  'Pnnm'
_cell_length_a       3.31637
_cell_length_b       4.55657
_cell_length_c       5.33424
_cell_angle_alpha    90
_cell_angle_beta     90
_cell_angle_gamma    90

_symmetry_Int_Tables_number  58
_chemical_formula_structural  InHO2
_chemical_formula_sum  In2H2O4
_cell_volume  80.60710719767987
_cell_formula_units_Z  2
loop_
  _symmetry_equiv_pos_site_id
 _symmetry_equiv_pos_as_xyz
 1  'x, y, z'
loop_
 _atom_site_type_symbol
 _atom_site_label
 _atom_site_symmetry_multiplicity
 _atom_site_fract_x
 _atom_site_fract_y
 _atom_site_fract_z
 _atom_site_fract_occupancy
 H  H1  1  0.50000  0.50000  0.00000  1
 H  H2  1  0.00000  0.00000  0.50000  1
 In  In1  1  0.50000  0.50000  0.50000  1
 In  In2  1  0.00000  0.00000  0.00000  1
 O  O1  1  0.50000  0.71997  0.13088  1
 O  O2  1  0.50000  0.28003  0.86912  1
 O  O3  1  0.00000  0.78003  0.63088  1
 O  O4  1  0.00000  0.21997  0.36912  1
