CIF file written using JARVIS-Tools package.
data_HgI2
_symmetry_space_group_name_H-M  'Cmc2_1'
_cell_length_a       4.44441
_cell_length_b       4.4444
_cell_length_c       13.7353
_cell_angle_alpha    90
_cell_angle_beta     90
_cell_angle_gamma    117.687

_symmetry_Int_Tables_number  36
_chemical_formula_structural  HgI2
_chemical_formula_sum  Hg2I4
_cell_volume  240.24472182386424
_cell_formula_units_Z  2
loop_
  _symmetry_equiv_pos_site_id
 _symmetry_equiv_pos_as_xyz
 1  'x, y, z'
loop_
 _atom_site_type_symbol
 _atom_site_label
 _atom_site_symmetry_multiplicity
 _atom_site_fract_x
 _atom_site_fract_y
 _atom_site_fract_z
 _atom_site_fract_occupancy
 Hg  Hg1  1  0.65015  0.34985  0.50126  1
 Hg  Hg2  1  0.34985  0.65015  0.00126  1
 I  I1  1  0.60246  0.39754  0.13779  1
 I  I2  1  0.39754  0.60246  0.63779  1
 I  I3  1  0.09746  0.90254  0.86425  1
 I  I4  1  0.90254  0.09746  0.36425  1
