CIF file written using JARVIS-Tools package.
data_CaMnN2
_symmetry_space_group_name_H-M  'P6_3/mmc'
_cell_length_a       3.07118
_cell_length_b       3.07115
_cell_length_c       10.5797
_cell_angle_alpha    90
_cell_angle_beta     90
_cell_angle_gamma    120.001

_symmetry_Int_Tables_number  194
_chemical_formula_structural  CaMnN2
_chemical_formula_sum  Ca2Mn2N4
_cell_volume  86.41794957498134
_cell_formula_units_Z  2
loop_
  _symmetry_equiv_pos_site_id
 _symmetry_equiv_pos_as_xyz
 1  'x, y, z'
loop_
 _atom_site_type_symbol
 _atom_site_label
 _atom_site_symmetry_multiplicity
 _atom_site_fract_x
 _atom_site_fract_y
 _atom_site_fract_z
 _atom_site_fract_occupancy
 Ca  Ca1  1  0.66672  0.33343  0.25000  1
 Ca  Ca2  1  0.33330  0.66657  0.75000  1
 Mn  Mn1  1  0.00001  -0.00000  0.50000  1
 Mn  Mn2  1  0.00001  -0.00000  0.00000  1
 N  N1  1  0.33336  0.66671  0.40175  1
 N  N2  1  0.66666  0.33329  0.59825  1
 N  N3  1  0.66666  0.33329  0.90175  1
 N  N4  1  0.33336  0.66671  0.09825  1
