CIF file written using JARVIS-Tools package.
data_MgSb2O4
_symmetry_space_group_name_H-M  'P4_2/mbc'
_cell_length_a       8.50801
_cell_length_b       8.50801
_cell_length_c       6.03194
_cell_angle_alpha    90
_cell_angle_beta     90
_cell_angle_gamma    90

_symmetry_Int_Tables_number  135
_chemical_formula_structural  MgSb2O4
_chemical_formula_sum  Mg4Sb8O6
_cell_volume  436.6297292531186
_cell_formula_units_Z  4
loop_
  _symmetry_equiv_pos_site_id
 _symmetry_equiv_pos_as_xyz
 1  'x, y, z'
loop_
 _atom_site_type_symbol
 _atom_site_label
 _atom_site_symmetry_multiplicity
 _atom_site_fract_x
 _atom_site_fract_y
 _atom_site_fract_z
 _atom_site_fract_occupancy
 Mg  Mg1  1  0.50000  0.00000  0.25000  1
 Mg  Mg2  1  0.00000  0.50000  0.75000  1
 Mg  Mg3  1  0.50000  0.00000  0.75000  1
 Mg  Mg4  1  0.00000  0.50000  0.25000  1
 O  O1  1  0.36420  0.09848  0.00000  1
 O  O2  1  0.17611  0.32389  0.25000  1
 O  O3  1  0.90152  0.36420  0.50000  1
 O  O4  1  0.13580  0.59848  0.00000  1
 O  O5  1  0.86420  0.40152  0.00000  1
 O  O6  1  0.63580  0.90152  0.00000  1
 O  O7  1  0.09848  0.63580  0.50000  1
 O  O8  1  0.40152  0.13580  0.50000  1
 O  O9  1  0.17611  0.32389  0.75000  1
 O  O10  1  0.82389  0.67611  0.75000  1
 O  O11  1  0.32389  0.82389  0.25000  1
 O  O12  1  0.82389  0.67611  0.25000  1
 O  O13  1  0.59848  0.86420  0.50000  1
 O  O14  1  0.67611  0.17611  0.25000  1
 O  O15  1  0.32389  0.82389  0.75000  1
 O  O16  1  0.67611  0.17611  0.75000  1
 Sb  Sb1  1  0.16414  0.82709  0.00000  1
 Sb  Sb2  1  0.33586  0.32709  0.00000  1
 Sb  Sb3  1  0.32709  0.66414  0.50000  1
 Sb  Sb4  1  0.67291  0.33586  0.50000  1
 Sb  Sb5  1  0.66414  0.67291  0.00000  1
 Sb  Sb6  1  0.83586  0.17291  0.00000  1
 Sb  Sb7  1  0.82709  0.83586  0.50000  1
 Sb  Sb8  1  0.17291  0.16414  0.50000  1
