CIF file written using JARVIS-Tools package.
data_LiMn5O5F
_symmetry_space_group_name_H-M  'P3m1'
_cell_length_a       3.21826
_cell_length_b       3.21826
_cell_length_c       15.8379
_cell_angle_alpha    90
_cell_angle_beta     90
_cell_angle_gamma    120

_symmetry_Int_Tables_number  156
_chemical_formula_structural  LiMn5O5F
_chemical_formula_sum  LiMn5O5F
_cell_volume  142.05910991040943
_cell_formula_units_Z  1
loop_
  _symmetry_equiv_pos_site_id
 _symmetry_equiv_pos_as_xyz
 1  'x, y, z'
loop_
 _atom_site_type_symbol
 _atom_site_label
 _atom_site_symmetry_multiplicity
 _atom_site_fract_x
 _atom_site_fract_y
 _atom_site_fract_z
 _atom_site_fract_occupancy
 F  F1  1  0.33333  0.66667  0.21065  1
 Li  Li1  1  0.66667  0.33333  0.16729  1
 Mn  Mn1  1  0.33333  0.66667  0.63650  1
 Mn  Mn2  1  0.33333  0.66667  0.00372  1
 Mn  Mn3  1  0.33333  0.66667  0.34558  1
 Mn  Mn4  1  0.66667  0.33333  0.52131  1
 Mn  Mn5  1  0.66667  0.33333  0.82040  1
 O  O1  1  0.33333  0.66667  0.52079  1
 O  O2  1  0.33333  0.66667  0.87407  1
 O  O3  1  0.66667  0.33333  0.69645  1
 O  O4  1  0.66667  0.33333  0.04897  1
 O  O5  1  0.66667  0.33333  0.39126  1
