CIF file written using JARVIS-Tools package.
data_SnH4C2Cl2
_symmetry_space_group_name_H-M  'C2/c'
_cell_length_a       5.50982
_cell_length_b       5.85784
_cell_length_c       9.39675
_cell_angle_alpha    81.5149
_cell_angle_beta     89.9804
_cell_angle_gamma    61.9515

_symmetry_Int_Tables_number  15
_chemical_formula_structural  SnH4C2Cl2
_chemical_formula_sum  Sn2H8C4Cl4
_cell_volume  263.90602914919344
_cell_formula_units_Z  2
loop_
  _symmetry_equiv_pos_site_id
 _symmetry_equiv_pos_as_xyz
 1  'x, y, z'
loop_
 _atom_site_type_symbol
 _atom_site_label
 _atom_site_symmetry_multiplicity
 _atom_site_fract_x
 _atom_site_fract_y
 _atom_site_fract_z
 _atom_site_fract_occupancy
 C  C1  1  0.93848  0.11503  0.03985  1
 C  C2  1  0.06182  0.88516  0.96013  1
 C  C3  1  0.05367  0.88528  0.46003  1
 C  C4  1  0.94662  0.11491  0.53995  1
 Cl  Cl1  1  0.67307  0.68612  0.20564  1
 Cl  Cl2  1  0.64120  0.68633  0.70547  1
 Cl  Cl3  1  0.32723  0.31406  0.79435  1
 Cl  Cl4  1  0.35910  0.31385  0.29452  1
 H  H1  1  0.73177  0.18477  0.56710  1
 H  H2  1  0.08287  0.18570  0.06675  1
 H  H3  1  0.26853  0.81540  0.43289  1
 H  H4  1  0.02974  0.71871  0.51490  1
 H  H5  1  0.74770  0.28105  0.98495  1
 H  H6  1  0.25260  0.71913  0.01503  1
 H  H7  1  0.97055  0.28147  0.48508  1
 H  H8  1  0.91743  0.81448  0.93323  1
 Sn  Sn1  1  0.17982  0.00008  0.74996  1
 Sn  Sn2  1  0.82048  0.00010  0.25002  1
