CIF file written using JARVIS-Tools package.
data_Rb3SbSe3
_symmetry_space_group_name_H-M  'P2_13'
_cell_length_a       10.129
_cell_length_b       10.129
_cell_length_c       10.129
_cell_angle_alpha    90
_cell_angle_beta     90
_cell_angle_gamma    90

_symmetry_Int_Tables_number  198
_chemical_formula_structural  Rb3SbSe3
_chemical_formula_sum  Rb2Sb4Se2
_cell_volume  1039.1995057598183
_cell_formula_units_Z  4
loop_
  _symmetry_equiv_pos_site_id
 _symmetry_equiv_pos_as_xyz
 1  'x, y, z'
loop_
 _atom_site_type_symbol
 _atom_site_label
 _atom_site_symmetry_multiplicity
 _atom_site_fract_x
 _atom_site_fract_y
 _atom_site_fract_z
 _atom_site_fract_occupancy
 Rb  Rb1  1  0.32037  0.32037  0.32037  1
 Rb  Rb2  1  0.17963  0.67963  0.82037  1
 Rb  Rb3  1  0.82037  0.17963  0.67963  1
 Rb  Rb4  1  0.67963  0.82037  0.17963  1
 Rb  Rb5  1  0.57259  0.57259  0.57259  1
 Rb  Rb6  1  0.92741  0.42741  0.07259  1
 Rb  Rb7  1  0.07259  0.92741  0.42741  1
 Rb  Rb8  1  0.42741  0.07259  0.92741  1
 Rb  Rb9  1  0.81249  0.81249  0.81249  1
 Rb  Rb10  1  0.68751  0.18751  0.31249  1
 Rb  Rb11  1  0.31249  0.68751  0.18751  1
 Rb  Rb12  1  0.18751  0.31249  0.68751  1
 Sb  Sb1  1  0.03013  0.03013  0.03013  1
 Sb  Sb2  1  0.46987  0.96987  0.53013  1
 Sb  Sb3  1  0.53013  0.46987  0.96987  1
 Sb  Sb4  1  0.96987  0.53013  0.46987  1
 Se  Se1  1  0.21522  0.60515  0.49712  1
 Se  Se2  1  0.49712  0.21522  0.60515  1
 Se  Se3  1  0.60515  0.49712  0.21522  1
 Se  Se4  1  0.89485  0.50288  0.71522  1
 Se  Se5  1  0.99712  0.28478  0.39485  1
 Se  Se6  1  0.39485  0.99712  0.28478  1
 Se  Se7  1  0.00288  0.78478  0.10515  1
 Se  Se8  1  0.50288  0.71522  0.89485  1
 Se  Se9  1  0.10515  0.00288  0.78478  1
 Se  Se10  1  0.71522  0.89485  0.50288  1
 Se  Se11  1  0.78478  0.10515  0.00288  1
 Se  Se12  1  0.28478  0.39485  0.99712  1
