CIF file written using JARVIS-Tools package.
data_MgAlF5
_symmetry_space_group_name_H-M  'Immm'
_cell_length_a       3.31938
_cell_length_b       5.83509
_cell_length_c       5.83509
_cell_angle_alpha    88.8537
_cell_angle_beta     73.4751
_cell_angle_gamma    73.4751

_symmetry_Int_Tables_number  71
_chemical_formula_structural  MgAlF5
_chemical_formula_sum  MgAlF5
_cell_volume  103.64729714656764
_cell_formula_units_Z  1
loop_
  _symmetry_equiv_pos_site_id
 _symmetry_equiv_pos_as_xyz
 1  'x, y, z'
loop_
 _atom_site_type_symbol
 _atom_site_label
 _atom_site_symmetry_multiplicity
 _atom_site_fract_x
 _atom_site_fract_y
 _atom_site_fract_z
 _atom_site_fract_occupancy
 Al  Al1  1  0.50000  0.00000  0.00000  1
 F  F1  1  0.66379  0.33621  0.33621  1
 F  F2  1  0.33621  0.66379  0.66379  1
 F  F3  1  0.50000  0.20996  0.79004  1
 F  F4  1  0.50000  0.79004  0.20996  1
 F  F5  1  0.00000  0.00000  0.00000  1
 Mg  Mg1  1  0.00000  0.50000  0.50000  1
