CIF file written using JARVIS-Tools package.
data_MnGa2Tc
_symmetry_space_group_name_H-M  'Fm-3m'
_cell_length_a       4.29492
_cell_length_b       4.29489
_cell_length_c       4.29507
_cell_angle_alpha    60.001
_cell_angle_beta     60.0009
_cell_angle_gamma    60.0011

_symmetry_Int_Tables_number  225
_chemical_formula_structural  MnGa2Tc
_chemical_formula_sum  MnGa2Tc
_cell_volume  56.02370908420618
_cell_formula_units_Z  1
loop_
  _symmetry_equiv_pos_site_id
 _symmetry_equiv_pos_as_xyz
 1  'x, y, z'
loop_
 _atom_site_type_symbol
 _atom_site_label
 _atom_site_symmetry_multiplicity
 _atom_site_fract_x
 _atom_site_fract_y
 _atom_site_fract_z
 _atom_site_fract_occupancy
 Ga  Ga1  1  0.00001  0.99999  0.00000  1
 Ga  Ga2  1  0.50000  0.50001  0.50000  1
 Mn  Mn1  1  0.24999  0.25001  0.25000  1
 Tc  Tc1  1  0.75000  0.74999  0.75000  1
