CIF file written using JARVIS-Tools package.
data_GaCuS2
_symmetry_space_group_name_H-M  'I-42d'
_cell_length_a       5.3685
_cell_length_b       5.36849
_cell_length_c       6.52133
_cell_angle_alpha    114.306
_cell_angle_beta     114.306
_cell_angle_gamma    90.0001

_symmetry_Int_Tables_number  122
_chemical_formula_structural  GaCuS2
_chemical_formula_sum  Ga2Cu2S4
_cell_volume  152.8245446932407
_cell_formula_units_Z  2
loop_
  _symmetry_equiv_pos_site_id
 _symmetry_equiv_pos_as_xyz
 1  'x, y, z'
loop_
 _atom_site_type_symbol
 _atom_site_label
 _atom_site_symmetry_multiplicity
 _atom_site_fract_x
 _atom_site_fract_y
 _atom_site_fract_z
 _atom_site_fract_occupancy
 Cu  Cu1  1  0.25000  0.75000  0.50000  1
 Cu  Cu2  1  0.00000  0.00000  0.00000  1
 Ga  Ga1  1  0.50000  0.50000  0.00000  1
 Ga  Ga2  1  0.75000  0.25000  0.50000  1
 S  S1  1  0.87516  0.87500  0.25000  1
 S  S2  1  0.62500  0.12484  0.75000  1
 S  S3  1  0.37484  0.37500  0.25000  1
 S  S4  1  0.12500  0.62516  0.75000  1
