CIF file written using JARVIS-Tools package.
data_Ba5Bi3O11
_symmetry_space_group_name_H-M  'Amm2'
_cell_length_a       6.25793
_cell_length_b       6.25793
_cell_length_c       9.24661
_cell_angle_alpha    90
_cell_angle_beta     90
_cell_angle_gamma    90.4669

_symmetry_Int_Tables_number  38
_chemical_formula_structural  Ba5Bi3O11
_chemical_formula_sum  Ba5Bi3O
_cell_volume  362.1008915843883
_cell_formula_units_Z  1
loop_
  _symmetry_equiv_pos_site_id
 _symmetry_equiv_pos_as_xyz
 1  'x, y, z'
loop_
 _atom_site_type_symbol
 _atom_site_label
 _atom_site_symmetry_multiplicity
 _atom_site_fract_x
 _atom_site_fract_y
 _atom_site_fract_z
 _atom_site_fract_occupancy
 Ba  Ba1  1  0.52533  0.97753  0.22343  1
 Ba  Ba2  1  0.52533  0.97753  0.77657  1
 Ba  Ba3  1  0.00798  0.99202  0.50000  1
 Ba  Ba4  1  0.02247  0.47467  0.22343  1
 Ba  Ba5  1  0.02247  0.47467  0.77657  1
 Bi  Bi1  1  0.02435  0.97565  0.00000  1
 Bi  Bi2  1  0.51798  0.48202  0.00000  1
 Bi  Bi3  1  0.49393  0.50607  0.50000  1
 O  O1  1  0.77728  0.22272  0.00000  1
 O  O2  1  0.49615  0.50385  0.74932  1
 O  O3  1  0.76913  0.74007  -0.00000  1
 O  O4  1  0.03945  0.96055  0.23426  1
 O  O5  1  0.57180  0.84694  0.50000  1
 O  O6  1  0.49615  0.50385  0.25068  1
 O  O7  1  0.26759  0.73241  0.00000  1
 O  O8  1  0.73187  0.26813  0.50000  1
 O  O9  1  0.15306  0.42820  0.50000  1
 O  O10  1  0.25993  0.23087  -0.00000  1
 O  O11  1  0.03945  0.96055  0.76574  1
