CIF file written using JARVIS-Tools package.
data_Sb2S2O
_symmetry_space_group_name_H-M  'P-1'
_cell_length_a       5.88089
_cell_length_b       8.19592
_cell_length_c       10.7684
_cell_angle_alpha    100.945
_cell_angle_beta     102.896
_cell_angle_gamma    110.43

_symmetry_Int_Tables_number  2
_chemical_formula_structural  Sb2S2O
_chemical_formula_sum  Sb8S8O4
_cell_volume  453.28467097690145
_cell_formula_units_Z  4
loop_
  _symmetry_equiv_pos_site_id
 _symmetry_equiv_pos_as_xyz
 1  'x, y, z'
loop_
 _atom_site_type_symbol
 _atom_site_label
 _atom_site_symmetry_multiplicity
 _atom_site_fract_x
 _atom_site_fract_y
 _atom_site_fract_z
 _atom_site_fract_occupancy
 O  O1  1  0.03883  0.90041  0.56920  1
 O  O2  1  0.92642  0.58678  0.42871  1
 O  O3  1  0.96117  0.09959  0.43080  1
 O  O4  1  0.07358  0.41322  0.57129  1
 S  S1  1  0.22534  0.04532  0.91250  1
 S  S2  1  0.77485  0.47571  0.08713  1
 S  S3  1  0.77466  0.95468  0.08750  1
 S  S4  1  0.22515  0.52429  0.91287  1
 S  S5  1  0.50202  0.80870  0.70171  1
 S  S6  1  0.49798  0.19130  0.29829  1
 S  S7  1  0.51741  0.29470  0.69507  1
 S  S8  1  0.48259  0.70530  0.30493  1
 Sb  Sb1  1  0.03617  0.16798  0.63357  1
 Sb  Sb2  1  0.96383  0.83202  0.36643  1
 Sb  Sb3  1  0.01744  0.66155  0.63222  1
 Sb  Sb4  1  0.98256  0.33845  0.36778  1
 Sb  Sb5  1  0.63915  0.12974  0.86558  1
 Sb  Sb6  1  0.36085  0.87026  0.13442  1
 Sb  Sb7  1  0.66386  0.64422  0.89945  1
 Sb  Sb8  1  0.33614  0.35578  0.10055  1
