CIF file written using JARVIS-Tools package.
data_LiCuTeO4
_symmetry_space_group_name_H-M  'P4_322'
_cell_length_a       6.14792
_cell_length_b       6.14792
_cell_length_c       8.63053
_cell_angle_alpha    90
_cell_angle_beta     90
_cell_angle_gamma    90

_symmetry_Int_Tables_number  95
_chemical_formula_structural  LiCuTeO4
_chemical_formula_sum  Li4Cu4Te4O6
_cell_volume  326.2074736508638
_cell_formula_units_Z  4
loop_
  _symmetry_equiv_pos_site_id
 _symmetry_equiv_pos_as_xyz
 1  'x, y, z'
loop_
 _atom_site_type_symbol
 _atom_site_label
 _atom_site_symmetry_multiplicity
 _atom_site_fract_x
 _atom_site_fract_y
 _atom_site_fract_z
 _atom_site_fract_occupancy
 Cu  Cu1  1  0.24874  0.24874  0.62500  1
 Cu  Cu2  1  0.24874  0.75126  0.87500  1
 Cu  Cu3  1  0.75126  0.24874  0.37500  1
 Cu  Cu4  1  0.75126  0.75126  0.12500  1
 Li  Li1  1  0.00000  0.20617  0.00000  1
 Li  Li2  1  0.00000  0.79383  0.50000  1
 Li  Li3  1  0.20617  0.00000  0.25000  1
 Li  Li4  1  0.79383  0.00000  0.75000  1
 O  O1  1  0.02165  0.73666  0.25258  1
 O  O2  1  0.26630  0.51722  0.48408  1
 O  O3  1  0.26630  0.48278  0.01592  1
 O  O4  1  0.02165  0.26334  0.24742  1
 O  O5  1  0.26334  0.02165  0.00258  1
 O  O6  1  0.97835  0.26334  0.75258  1
 O  O7  1  0.48278  0.73370  0.26592  1
 O  O8  1  0.26334  0.97835  0.49742  1
 O  O9  1  0.51722  0.26630  0.76592  1
 O  O10  1  0.73666  0.02165  0.99742  1
 O  O11  1  0.73370  0.51722  0.51592  1
 O  O12  1  0.73370  0.48278  0.98408  1
 O  O13  1  0.48278  0.26630  0.23408  1
 O  O14  1  0.73666  0.97835  0.50258  1
 O  O15  1  0.51722  0.73370  0.73408  1
 O  O16  1  0.97835  0.73666  0.74742  1
 Te  Te1  1  0.22314  0.50000  0.25000  1
 Te  Te2  1  0.50000  0.22314  0.00000  1
 Te  Te3  1  0.50000  0.77686  0.50000  1
 Te  Te4  1  0.77686  0.50000  0.75000  1
