CIF file written using JARVIS-Tools package.
data_PtS2Cl8
_symmetry_space_group_name_H-M  'P2_1/c'
_cell_length_a       6.22355
_cell_length_b       7.12841
_cell_length_c       12.338
_cell_angle_alpha    90
_cell_angle_beta     98.8893
_cell_angle_gamma    90

_symmetry_Int_Tables_number  14
_chemical_formula_structural  PtS2Cl8
_chemical_formula_sum  Pt2S4Cl6
_cell_volume  540.7885930628718
_cell_formula_units_Z  2
loop_
  _symmetry_equiv_pos_site_id
 _symmetry_equiv_pos_as_xyz
 1  'x, y, z'
loop_
 _atom_site_type_symbol
 _atom_site_label
 _atom_site_symmetry_multiplicity
 _atom_site_fract_x
 _atom_site_fract_y
 _atom_site_fract_z
 _atom_site_fract_occupancy
 Cl  Cl1  1  0.29793  0.15903  0.66687  1
 Cl  Cl2  1  0.17170  0.60541  0.35422  1
 Cl  Cl3  1  0.82830  0.10541  0.14578  1
 Cl  Cl4  1  0.78052  0.92498  0.58677  1
 Cl  Cl5  1  0.21948  0.42498  0.91323  1
 Cl  Cl6  1  0.17170  0.89459  0.85422  1
 Cl  Cl7  1  0.78052  0.57502  0.08677  1
 Cl  Cl8  1  0.21948  0.07502  0.41323  1
 Cl  Cl9  1  0.70207  0.84097  0.33313  1
 Cl  Cl10  1  0.70207  0.65903  0.83313  1
 Cl  Cl11  1  0.82830  0.39459  0.64578  1
 Cl  Cl12  1  0.25690  0.83595  0.12464  1
 Cl  Cl13  1  0.74310  0.33595  0.37536  1
 Cl  Cl14  1  0.74310  0.16405  0.87536  1
 Cl  Cl15  1  0.25690  0.66405  0.62464  1
 Cl  Cl16  1  0.29793  0.34097  0.16687  1
 Pt  Pt1  1  0.00000  0.00000  0.00000  1
 Pt  Pt2  1  -0.00000  0.50000  0.50000  1
 S  S1  1  0.29964  0.28815  0.52105  1
 S  S2  1  0.29964  0.21185  0.02105  1
 S  S3  1  0.70036  0.71185  0.47895  1
 S  S4  1  0.70036  0.78815  0.97895  1
