CIF file written using JARVIS-Tools package.
data_Na2SbAu
_symmetry_space_group_name_H-M  'Cmcm'
_cell_length_a       5.93241
_cell_length_b       5.95651
_cell_length_c       5.95651
_cell_angle_alpha    102.08
_cell_angle_beta     90
_cell_angle_gamma    90

_symmetry_Int_Tables_number  63
_chemical_formula_structural  Na2SbAu
_chemical_formula_sum  Na4Sb2Au2
_cell_volume  205.82171183290606
_cell_formula_units_Z  2
loop_
  _symmetry_equiv_pos_site_id
 _symmetry_equiv_pos_as_xyz
 1  'x, y, z'
loop_
 _atom_site_type_symbol
 _atom_site_label
 _atom_site_symmetry_multiplicity
 _atom_site_fract_x
 _atom_site_fract_y
 _atom_site_fract_z
 _atom_site_fract_occupancy
 Au  Au1  1  0.50000  0.50000  0.50000  1
 Au  Au2  1  0.00000  0.50000  0.50000  1
 Na  Na1  1  0.25000  0.65169  0.01038  1
 Na  Na2  1  0.75000  0.34831  0.98962  1
 Na  Na3  1  0.25000  0.01038  0.65169  1
 Na  Na4  1  0.75000  0.98962  0.34831  1
 Sb  Sb1  1  0.75000  0.80221  0.80221  1
 Sb  Sb2  1  0.25000  0.19779  0.19779  1
