CIF file written using JARVIS-Tools package.
data_CePrO2
_symmetry_space_group_name_H-M  'I4_1/amd'
_cell_length_a       6.1567
_cell_length_b       6.1567
_cell_length_c       6.1567
_cell_angle_alpha    131.702
_cell_angle_beta     131.702
_cell_angle_gamma    70.6993

_symmetry_Int_Tables_number  141
_chemical_formula_structural  CePrO2
_chemical_formula_sum  Ce2Pr2O4
_cell_volume  127.43092716481642
_cell_formula_units_Z  2
loop_
  _symmetry_equiv_pos_site_id
 _symmetry_equiv_pos_as_xyz
 1  'x, y, z'
loop_
 _atom_site_type_symbol
 _atom_site_label
 _atom_site_symmetry_multiplicity
 _atom_site_fract_x
 _atom_site_fract_y
 _atom_site_fract_z
 _atom_site_fract_occupancy
 Ce  Ce1  1  0.50000  0.50000  0.00000  1
 Ce  Ce2  1  0.25000  0.75000  0.50000  1
 O  O1  1  0.25405  0.25405  -0.00000  1
 O  O2  1  0.49595  0.99595  0.50000  1
 O  O3  1  0.74595  0.74595  -0.00000  1
 O  O4  1  0.00405  0.50405  0.50000  1
 Pr  Pr1  1  0.00000  0.00000  0.00000  1
 Pr  Pr2  1  0.75000  0.25000  0.50000  1
