CIF file written using JARVIS-Tools package.
data_K4HgP2
_symmetry_space_group_name_H-M  'R-3m'
_cell_length_a       9.61834
_cell_length_b       9.61834
_cell_length_c       9.61834
_cell_angle_alpha    33.9545
_cell_angle_beta     33.9545
_cell_angle_gamma    33.9545

_symmetry_Int_Tables_number  166
_chemical_formula_structural  K4HgP2
_chemical_formula_sum  K4HgP2
_cell_volume  247.41731711990022
_cell_formula_units_Z  1
loop_
  _symmetry_equiv_pos_site_id
 _symmetry_equiv_pos_as_xyz
 1  'x, y, z'
loop_
 _atom_site_type_symbol
 _atom_site_label
 _atom_site_symmetry_multiplicity
 _atom_site_fract_x
 _atom_site_fract_y
 _atom_site_fract_z
 _atom_site_fract_occupancy
 Hg  Hg1  1  0.00000  0.00000  0.00000  1
 K  K1  1  0.20739  0.20739  0.20739  1
 K  K2  1  0.79261  0.79261  0.79261  1
 K  K3  1  0.38933  0.38933  0.38933  1
 K  K4  1  0.61067  0.61067  0.61067  1
 P  P1  1  0.08924  0.08924  0.08924  1
 P  P2  1  0.91076  0.91076  0.91076  1
