CIF file written using JARVIS-Tools package.
data_OsCl2O
_symmetry_space_group_name_H-M  'Immm'
_cell_length_a       3.63101
_cell_length_b       3.72811
_cell_length_c       6.1125
_cell_angle_alpha    107.757
_cell_angle_beta     107.278
_cell_angle_gamma    90

_symmetry_Int_Tables_number  71
_chemical_formula_structural  OsCl2O
_chemical_formula_sum  OsCl2O
_cell_volume  74.8714712959826
_cell_formula_units_Z  1
loop_
  _symmetry_equiv_pos_site_id
 _symmetry_equiv_pos_as_xyz
 1  'x, y, z'
loop_
 _atom_site_type_symbol
 _atom_site_label
 _atom_site_symmetry_multiplicity
 _atom_site_fract_x
 _atom_site_fract_y
 _atom_site_fract_z
 _atom_site_fract_occupancy
 Cl  Cl1  1  0.35617  0.85615  0.71233  1
 Cl  Cl2  1  0.64383  0.14385  0.28767  1
 O  O1  1  -0.00000  0.50000  -0.00000  1
 Os  Os1  1  0.00000  0.00000  0.00000  1
