CIF file written using JARVIS-Tools package.
data_Ca2CdN2
_symmetry_space_group_name_H-M  'I4/mmm'
_cell_length_a       3.56619
_cell_length_b       5.04329
_cell_length_c       7.2157
_cell_angle_alpha    90
_cell_angle_beta     104.301
_cell_angle_gamma    134.999

_symmetry_Int_Tables_number  139
_chemical_formula_structural  Ca2CdN2
_chemical_formula_sum  Ca2CdN2
_cell_volume  85.98579303714926
_cell_formula_units_Z  1
loop_
  _symmetry_equiv_pos_site_id
 _symmetry_equiv_pos_as_xyz
 1  'x, y, z'
loop_
 _atom_site_type_symbol
 _atom_site_label
 _atom_site_symmetry_multiplicity
 _atom_site_fract_x
 _atom_site_fract_y
 _atom_site_fract_z
 _atom_site_fract_occupancy
 Ca  Ca1  1  0.66147  0.33073  0.16153  1
 Ca  Ca2  1  0.33853  0.66927  0.83847  1
 Cd  Cd1  1  0.00000  0.00000  0.50000  1
 N  N1  1  0.30841  0.15420  0.80827  1
 N  N2  1  0.69159  0.84580  0.19173  1
