CIF file written using JARVIS-Tools package.
data_Cd3Cl2O2
_symmetry_space_group_name_H-M  'P2_1/c'
_cell_length_a       6.45284
_cell_length_b       6.79142
_cell_length_c       6.7098
_cell_angle_alpha    90
_cell_angle_beta     115.588
_cell_angle_gamma    90

_symmetry_Int_Tables_number  14
_chemical_formula_structural  Cd3Cl2O2
_chemical_formula_sum  Cd6Cl4O4
_cell_volume  265.2114680862889
_cell_formula_units_Z  2
loop_
  _symmetry_equiv_pos_site_id
 _symmetry_equiv_pos_as_xyz
 1  'x, y, z'
loop_
 _atom_site_type_symbol
 _atom_site_label
 _atom_site_symmetry_multiplicity
 _atom_site_fract_x
 _atom_site_fract_y
 _atom_site_fract_z
 _atom_site_fract_occupancy
 Cd  Cd1  1  0.41073  0.87466  0.76710  1
 Cd  Cd2  1  0.58927  0.37466  0.73290  1
 Cd  Cd3  1  0.58927  0.12534  0.23290  1
 Cd  Cd4  1  0.41073  0.62534  0.26710  1
 Cd  Cd5  1  -0.00000  0.50000  0.50000  1
 Cd  Cd6  1  0.00000  0.00000  0.00000  1
 Cl  Cl1  1  0.80886  0.63574  0.06677  1
 Cl  Cl2  1  0.19114  0.13574  0.43323  1
 Cl  Cl3  1  0.80886  0.86426  0.56677  1
 Cl  Cl4  1  0.19114  0.36426  0.93323  1
 O  O1  1  0.33242  0.61340  0.56283  1
 O  O2  1  0.66758  0.11340  0.93717  1
 O  O3  1  0.66758  0.38660  0.43717  1
 O  O4  1  0.33242  0.88660  0.06283  1
