CIF file written using JARVIS-Tools package.
data_Ta2InCuTe4
_symmetry_space_group_name_H-M  'I-42m'
_cell_length_a       6.52212
_cell_length_b       6.52212
_cell_length_c       7.73952
_cell_angle_alpha    114.92
_cell_angle_beta     114.92
_cell_angle_gamma    90

_symmetry_Int_Tables_number  121
_chemical_formula_structural  Ta2InCuTe4
_chemical_formula_sum  Ta2InCuTe4
_cell_volume  264.39106321603174
_cell_formula_units_Z  1
loop_
  _symmetry_equiv_pos_site_id
 _symmetry_equiv_pos_as_xyz
 1  'x, y, z'
loop_
 _atom_site_type_symbol
 _atom_site_label
 _atom_site_symmetry_multiplicity
 _atom_site_fract_x
 _atom_site_fract_y
 _atom_site_fract_z
 _atom_site_fract_occupancy
 Cu  Cu1  1  0.50000  0.50000  0.00000  1
 In  In1  1  0.00000  0.00000  0.00000  1
 Ta  Ta1  1  0.75000  0.25000  0.50000  1
 Ta  Ta2  1  0.25000  0.75000  0.50000  1
 Te  Te1  1  0.42493  0.42493  0.27650  1
 Te  Te2  1  0.85157  0.85157  0.27650  1
 Te  Te3  1  0.14843  0.57507  0.72350  1
 Te  Te4  1  0.57507  0.14843  0.72350  1
