CIF file written using JARVIS-Tools package.
data_ZnH4C4O4
_symmetry_space_group_name_H-M  'P1'
_cell_length_a       4.47506
_cell_length_b       4.69883
_cell_length_c       6.53343
_cell_angle_alpha    72.0279
_cell_angle_beta     79.636
_cell_angle_gamma    68.2154

_symmetry_Int_Tables_number  1
_chemical_formula_structural  ZnH4C4O4
_chemical_formula_sum  ZnH4C4O4
_cell_volume  121.01336017983463
_cell_formula_units_Z  1
loop_
  _symmetry_equiv_pos_site_id
 _symmetry_equiv_pos_as_xyz
 1  'x, y, z'
loop_
 _atom_site_type_symbol
 _atom_site_label
 _atom_site_symmetry_multiplicity
 _atom_site_fract_x
 _atom_site_fract_y
 _atom_site_fract_z
 _atom_site_fract_occupancy
 C  C1  1  0.99196  0.20022  0.53358  1
 C  C2  1  0.05960  0.27600  0.72602  1
 C  C3  1  0.78542  0.50823  0.82977  1
 C  C4  1  0.57802  0.35775  0.00614  1
 H  H1  1  0.16235  0.05032  0.84483  1
 H  H2  1  0.25571  0.37547  0.66362  1
 H  H3  1  0.62379  0.69404  0.71013  1
 H  H4  1  0.88405  0.63381  0.90191  1
 O  O1  1  0.18361  0.92931  0.50514  1
 O  O2  1  0.77633  0.38662  0.40830  1
 O  O3  1  0.34504  0.52933  0.10821  1
 O  O4  1  0.64184  0.05867  0.04383  1
 Zn  Zn1  1  0.43319  0.79029  0.26241  1
