CIF file written using JARVIS-Tools package.
data_LuIn2
_symmetry_space_group_name_H-M  'Cmmm'
_cell_length_a       7.39161
_cell_length_b       7.39161
_cell_length_c       4.59091
_cell_angle_alpha    90
_cell_angle_beta     90
_cell_angle_gamma    144.14

_symmetry_Int_Tables_number  65
_chemical_formula_structural  LuIn2
_chemical_formula_sum  Lu2In4
_cell_volume  146.93797165248313
_cell_formula_units_Z  2
loop_
  _symmetry_equiv_pos_site_id
 _symmetry_equiv_pos_as_xyz
 1  'x, y, z'
loop_
 _atom_site_type_symbol
 _atom_site_label
 _atom_site_symmetry_multiplicity
 _atom_site_fract_x
 _atom_site_fract_y
 _atom_site_fract_z
 _atom_site_fract_occupancy
 In  In1  1  0.67596  0.32404  0.00000  1
 In  In2  1  0.32404  0.67596  0.00000  1
 In  In3  1  0.50000  0.50000  0.50000  1
 In  In4  1  0.00000  0.00000  0.00000  1
 Lu  Lu1  1  0.84386  0.15614  0.50000  1
 Lu  Lu2  1  0.15614  0.84386  0.50000  1
