CIF file written using JARVIS-Tools package.
data_Ir4Os
_symmetry_space_group_name_H-M  'R-3m'
_cell_length_a       11.3351
_cell_length_b       11.3351
_cell_length_c       11.3351
_cell_angle_alpha    13.9009
_cell_angle_beta     13.9008
_cell_angle_gamma    13.9009

_symmetry_Int_Tables_number  166
_chemical_formula_structural  Ir4Os
_chemical_formula_sum  Ir4Os
_cell_volume  73.15184593629382
_cell_formula_units_Z  1
loop_
  _symmetry_equiv_pos_site_id
 _symmetry_equiv_pos_as_xyz
 1  'x, y, z'
loop_
 _atom_site_type_symbol
 _atom_site_label
 _atom_site_symmetry_multiplicity
 _atom_site_fract_x
 _atom_site_fract_y
 _atom_site_fract_z
 _atom_site_fract_occupancy
 Ir  Ir1  1  0.60094  0.60094  0.60094  1
 Ir  Ir2  1  0.19985  0.19985  0.19985  1
 Ir  Ir3  1  0.80015  0.80015  0.80015  1
 Ir  Ir4  1  0.39906  0.39906  0.39906  1
 Os  Os1  1  0.00000  0.00000  0.00000  1
