CIF file written using JARVIS-Tools package.
data_CaSc2O4
_symmetry_space_group_name_H-M  'Pnma'
_cell_length_a       3.15117
_cell_length_b       9.47597
_cell_length_c       11.1446
_cell_angle_alpha    90
_cell_angle_beta     90
_cell_angle_gamma    90

_symmetry_Int_Tables_number  62
_chemical_formula_structural  CaSc2O4
_chemical_formula_sum  Ca4Sc8O6
_cell_volume  332.78146710228594
_cell_formula_units_Z  4
loop_
  _symmetry_equiv_pos_site_id
 _symmetry_equiv_pos_as_xyz
 1  'x, y, z'
loop_
 _atom_site_type_symbol
 _atom_site_label
 _atom_site_symmetry_multiplicity
 _atom_site_fract_x
 _atom_site_fract_y
 _atom_site_fract_z
 _atom_site_fract_occupancy
 Ca  Ca1  1  0.75000  0.75548  0.65287  1
 Ca  Ca2  1  0.25000  0.24452  0.34713  1
 Ca  Ca3  1  0.75000  0.25548  0.84713  1
 Ca  Ca4  1  0.25000  0.74452  0.15287  1
 O  O1  1  0.25000  0.08017  0.92417  1
 O  O2  1  0.75000  0.70790  0.32770  1
 O  O3  1  0.25000  0.58017  0.57583  1
 O  O4  1  0.75000  0.41983  0.42417  1
 O  O5  1  0.25000  0.97818  0.28391  1
 O  O6  1  0.75000  0.02182  0.71609  1
 O  O7  1  0.75000  0.91983  0.07583  1
 O  O8  1  0.75000  0.52182  0.78391  1
 O  O9  1  0.75000  0.62404  0.02405  1
 O  O10  1  0.25000  0.87596  0.52405  1
 O  O11  1  0.75000  0.12404  0.47595  1
 O  O12  1  0.25000  0.79210  0.82770  1
 O  O13  1  0.25000  0.47818  0.21609  1
 O  O14  1  0.25000  0.37596  0.97595  1
 O  O15  1  0.75000  0.20790  0.17230  1
 O  O16  1  0.25000  0.29210  0.67230  1
 Sc  Sc1  1  0.75000  0.41981  0.10698  1
 Sc  Sc2  1  0.25000  0.08019  0.60698  1
 Sc  Sc3  1  0.75000  0.91981  0.39302  1
 Sc  Sc4  1  0.25000  0.58019  0.89302  1
 Sc  Sc5  1  0.25000  0.57067  0.38779  1
 Sc  Sc6  1  0.75000  0.42933  0.61221  1
 Sc  Sc7  1  0.75000  0.92933  0.88779  1
 Sc  Sc8  1  0.25000  0.07067  0.11221  1
