CIF file written using JARVIS-Tools package.
data_Ca2VN3
_symmetry_space_group_name_H-M  'C2/c'
_cell_length_a       5.5978
_cell_length_b       5.91176
_cell_length_c       11.6133
_cell_angle_alpha    88.8974
_cell_angle_beta     87.6708
_cell_angle_gamma    61.7417

_symmetry_Int_Tables_number  15
_chemical_formula_structural  Ca2VN3
_chemical_formula_sum  Ca8V4N2
_cell_volume  338.23548994713536
_cell_formula_units_Z  4
loop_
  _symmetry_equiv_pos_site_id
 _symmetry_equiv_pos_as_xyz
 1  'x, y, z'
loop_
 _atom_site_type_symbol
 _atom_site_label
 _atom_site_symmetry_multiplicity
 _atom_site_fract_x
 _atom_site_fract_y
 _atom_site_fract_z
 _atom_site_fract_occupancy
 Ca  Ca1  1  0.53557  0.40672  0.14791  1
 Ca  Ca2  1  0.38481  0.77472  0.42276  1
 Ca  Ca3  1  0.61519  0.22528  0.57724  1
 Ca  Ca4  1  0.15953  0.22528  0.92276  1
 Ca  Ca5  1  0.94229  0.59328  0.64791  1
 Ca  Ca6  1  0.46443  0.59328  0.85209  1
 Ca  Ca7  1  0.05771  0.40672  0.35209  1
 Ca  Ca8  1  0.84047  0.77472  0.07724  1
 N  N1  1  0.09230  0.81539  0.25000  1
 N  N2  1  0.49510  0.00980  0.75000  1
 N  N3  1  0.50490  0.99020  0.25000  1
 N  N4  1  0.01032  0.32702  0.12846  1
 N  N5  1  0.66266  0.32702  0.37154  1
 N  N6  1  0.98968  0.67298  0.87154  1
 N  N7  1  0.33734  0.67298  0.62846  1
 N  N8  1  0.19244  0.18586  0.53686  1
 N  N9  1  0.80756  0.81414  0.46314  1
 N  N10  1  0.90770  0.18461  0.75000  1
 N  N11  1  0.37830  0.81414  0.03686  1
 N  N12  1  0.62170  0.18586  0.96314  1
 V  V1  1  0.76720  0.00106  0.83782  1
 V  V2  1  0.23174  0.00106  0.66218  1
 V  V3  1  0.76826  0.99894  0.33782  1
 V  V4  1  0.23280  0.99894  0.16218  1
