CIF file written using JARVIS-Tools package.
data_Er3TaO7
_symmetry_space_group_name_H-M  'Cmcm'
_cell_length_a       6.38182
_cell_length_b       6.38182
_cell_length_c       7.43647
_cell_angle_alpha    90
_cell_angle_beta     90
_cell_angle_gamma    110.523

_symmetry_Int_Tables_number  63
_chemical_formula_structural  Er3TaO7
_chemical_formula_sum  Er6Ta2O4
_cell_volume  283.6483831528122
_cell_formula_units_Z  2
loop_
  _symmetry_equiv_pos_site_id
 _symmetry_equiv_pos_as_xyz
 1  'x, y, z'
loop_
 _atom_site_type_symbol
 _atom_site_label
 _atom_site_symmetry_multiplicity
 _atom_site_fract_x
 _atom_site_fract_y
 _atom_site_fract_z
 _atom_site_fract_occupancy
 Er  Er1  1  0.05804  0.51689  0.25000  1
 Er  Er2  1  0.00000  0.00000  0.00000  1
 Er  Er3  1  0.00000  0.00000  0.50000  1
 Er  Er4  1  0.48311  0.94196  0.75000  1
 Er  Er5  1  0.51689  0.05804  0.25000  1
 Er  Er6  1  0.94196  0.48311  0.75000  1
 O  O1  1  0.11099  0.84561  0.75000  1
 O  O2  1  0.15439  0.88901  0.25000  1
 O  O3  1  0.84561  0.11099  0.75000  1
 O  O4  1  0.17517  0.43583  0.96238  1
 O  O5  1  0.56417  0.82483  0.03762  1
 O  O6  1  0.17517  0.43583  0.53762  1
 O  O7  1  0.41412  0.41412  0.25000  1
 O  O8  1  0.43583  0.17517  0.53762  1
 O  O9  1  0.43583  0.17517  0.96238  1
 O  O10  1  0.56417  0.82483  0.46238  1
 O  O11  1  0.82483  0.56417  0.03762  1
 O  O12  1  0.82483  0.56417  0.46238  1
 O  O13  1  0.58588  0.58588  0.75000  1
 O  O14  1  0.88901  0.15439  0.25000  1
 Ta  Ta1  1  0.50000  0.50000  0.50000  1
 Ta  Ta2  1  0.50000  0.50000  0.00000  1
