CIF file written using JARVIS-Tools package.
data_TlCNO
_symmetry_space_group_name_H-M  'Ima2'
_cell_length_a       5.69905
_cell_length_b       5.69905
_cell_length_c       5.69906
_cell_angle_alpha    113.448
_cell_angle_beta     113.152
_cell_angle_gamma    102.058

_symmetry_Int_Tables_number  46
_chemical_formula_structural  TlCNO
_chemical_formula_sum  Tl2C2N2O2
_cell_volume  140.73313208201577
_cell_formula_units_Z  2
loop_
  _symmetry_equiv_pos_site_id
 _symmetry_equiv_pos_as_xyz
 1  'x, y, z'
loop_
 _atom_site_type_symbol
 _atom_site_label
 _atom_site_symmetry_multiplicity
 _atom_site_fract_x
 _atom_site_fract_y
 _atom_site_fract_z
 _atom_site_fract_occupancy
 C  C1  1  0.00549  0.24923  0.75472  1
 C  C2  1  0.50549  0.75077  0.75626  1
 N  N1  1  0.14330  0.11667  0.75997  1
 N  N2  1  0.64330  0.88333  0.02663  1
 O  O1  1  0.86550  0.38614  0.75163  1
 O  O2  1  0.36550  0.61386  0.47936  1
 Tl  Tl1  1  0.23571  0.00000  0.23571  1
 Tl  Tl2  1  0.73571  0.50000  0.23571  1
