CIF file written using JARVIS-Tools package.
data_Hg3Se4O5
_symmetry_space_group_name_H-M  'P-1'
_cell_length_a       7.61766
_cell_length_b       7.83367
_cell_length_c       8.97398
_cell_angle_alpha    95.6129
_cell_angle_beta     107.908
_cell_angle_gamma    107.111

_symmetry_Int_Tables_number  2
_chemical_formula_structural  Hg3Se4O5
_chemical_formula_sum  Hg6Se8O0
_cell_volume  476.4634606809413
_cell_formula_units_Z  2
loop_
  _symmetry_equiv_pos_site_id
 _symmetry_equiv_pos_as_xyz
 1  'x, y, z'
loop_
 _atom_site_type_symbol
 _atom_site_label
 _atom_site_symmetry_multiplicity
 _atom_site_fract_x
 _atom_site_fract_y
 _atom_site_fract_z
 _atom_site_fract_occupancy
 Hg  Hg1  1  0.00740  0.47736  0.72014  1
 Hg  Hg2  1  0.29511  0.82135  0.09443  1
 Hg  Hg3  1  0.01733  0.98526  0.75591  1
 Hg  Hg4  1  0.70489  0.17865  0.90557  1
 Hg  Hg5  1  0.99260  0.52264  0.27986  1
 Hg  Hg6  1  0.98267  0.01474  0.24409  1
 O  O1  1  0.62663  0.74168  0.22322  1
 O  O2  1  0.82030  0.53625  0.96463  1
 O  O3  1  0.21078  0.14344  0.07736  1
 O  O4  1  0.17970  0.46375  0.03537  1
 O  O5  1  0.78922  0.85656  0.92264  1
 O  O6  1  0.16530  0.36432  0.52657  1
 O  O7  1  0.43885  0.43870  0.31639  1
 O  O8  1  0.83470  0.63568  0.47343  1
 O  O9  1  0.37337  0.25832  0.77678  1
 O  O10  1  0.56115  0.56130  0.68361  1
 Se  Se1  1  0.22924  0.85440  0.35822  1
 Se  Se2  1  0.25325  0.80501  0.79881  1
 Se  Se3  1  0.62220  0.67565  0.39879  1
 Se  Se4  1  0.74675  0.19499  0.20119  1
 Se  Se5  1  0.77076  0.14560  0.64178  1
 Se  Se6  1  0.37780  0.32435  0.60121  1
 Se  Se7  1  0.34962  0.36128  0.08994  1
 Se  Se8  1  0.65038  0.63872  0.91006  1
