CIF file written using JARVIS-Tools package.
data_CdIBr
_symmetry_space_group_name_H-M  'R3m'
_cell_length_a       4.1685
_cell_length_b       4.1685
_cell_length_c       13.3213
_cell_angle_alpha    80.9985
_cell_angle_beta     80.9985
_cell_angle_gamma    60

_symmetry_Int_Tables_number  160
_chemical_formula_structural  CdIBr
_chemical_formula_sum  Cd2I2Br2
_cell_volume  197.16548048703694
_cell_formula_units_Z  2
loop_
  _symmetry_equiv_pos_site_id
 _symmetry_equiv_pos_as_xyz
 1  'x, y, z'
loop_
 _atom_site_type_symbol
 _atom_site_label
 _atom_site_symmetry_multiplicity
 _atom_site_fract_x
 _atom_site_fract_y
 _atom_site_fract_z
 _atom_site_fract_occupancy
 Br  Br1  1  0.58458  0.58458  0.24625  1
 Br  Br2  1  0.41746  0.41746  0.74762  1
 Cd  Cd1  1  0.71167  0.71167  0.86500  1
 Cd  Cd2  1  0.21214  0.21214  0.36359  1
 I  I1  1  0.00017  0.00017  0.99950  1
 I  I2  1  0.83399  0.83399  0.49803  1
