CIF file written using JARVIS-Tools package.
data_YHO2
_symmetry_space_group_name_H-M  'P2_1/m'
_cell_length_a       4.32105
_cell_length_b       3.6445
_cell_length_c       5.98062
_cell_angle_alpha    90
_cell_angle_beta     109.054
_cell_angle_gamma    90

_symmetry_Int_Tables_number  11
_chemical_formula_structural  YHO2
_chemical_formula_sum  Y2H2O4
_cell_volume  89.02296719963495
_cell_formula_units_Z  2
loop_
  _symmetry_equiv_pos_site_id
 _symmetry_equiv_pos_as_xyz
 1  'x, y, z'
loop_
 _atom_site_type_symbol
 _atom_site_label
 _atom_site_symmetry_multiplicity
 _atom_site_fract_x
 _atom_site_fract_y
 _atom_site_fract_z
 _atom_site_fract_occupancy
 H  H1  1  0.01512  0.75000  0.92133  1
 H  H2  1  0.98488  0.25000  0.07867  1
 O  O1  1  0.23360  0.75000  0.44837  1
 O  O2  1  0.76640  0.25000  0.55163  1
 O  O3  1  0.24752  0.75000  0.93818  1
 O  O4  1  0.75248  0.25000  0.06182  1
 Y  Y1  1  0.33241  0.25000  0.68940  1
 Y  Y2  1  0.66759  0.75000  0.31060  1
