data_image0
_chemical_formula_structural       Nb5Te4
_chemical_formula_sum              "Nb5 Te4"
_cell_length_a       3.68099
_cell_length_b       7.59673
_cell_length_c       7.59673
_cell_angle_alpha    93.365
_cell_angle_beta     75.9791
_cell_angle_gamma    104.021

_space_group_name_H-M_alt    "P 1"
_space_group_IT_number       1

loop_
  _space_group_symop_operation_xyz
  'x, y, z'

loop_
  _atom_site_type_symbol
  _atom_site_label
  _atom_site_symmetry_multiplicity
  _atom_site_fract_x
  _atom_site_fract_y
  _atom_site_fract_z
  _atom_site_occupancy
  Nb  Nb1       1.0  0.00000  0.00000  0.00000  1.0000
  Nb  Nb2       1.0  0.31100  0.69100  0.06860  1.0000
  Nb  Nb3       1.0  0.38000  0.06860  0.30900  1.0000
  Nb  Nb4       1.0  0.62000  0.93100  0.69100  1.0000
  Nb  Nb5       1.0  0.68900  0.30900  0.93100  1.0000
  Te  Te1       1.0  0.06050  0.34600  0.22500  1.0000
  Te  Te2       1.0  0.71400  0.77500  0.34600  1.0000
  Te  Te3       1.0  0.28600  0.22500  0.65400  1.0000
  Te  Te4       1.0  0.94000  0.65400  0.77500  1.0000
