CIF file written using JARVIS-Tools package.
data_H7C8
_symmetry_space_group_name_H-M  'P2_1'
_cell_length_a       8.19587
_cell_length_b       7.91937
_cell_length_c       8.57433
_cell_angle_alpha    90
_cell_angle_beta     107.879
_cell_angle_gamma    90

_symmetry_Int_Tables_number  4
_chemical_formula_structural  H7C8
_chemical_formula_sum  H28C32
_cell_volume  529.6489507292276
_cell_formula_units_Z  4
loop_
  _symmetry_equiv_pos_site_id
 _symmetry_equiv_pos_as_xyz
 1  'x, y, z'
loop_
 _atom_site_type_symbol
 _atom_site_label
 _atom_site_symmetry_multiplicity
 _atom_site_fract_x
 _atom_site_fract_y
 _atom_site_fract_z
 _atom_site_fract_occupancy
 C  C1  1  0.35611  0.60017  0.67145  1
 C  C2  1  0.60458  0.15164  0.46681  1
 C  C3  1  0.05408  0.67070  0.54090  1
 C  C4  1  0.27389  0.03765  0.73550  1
 C  C5  1  0.08807  0.70279  0.38981  1
 C  C6  1  0.91193  0.20279  0.61019  1
 C  C7  1  0.95824  0.74495  0.23472  1
 C  C8  1  0.04176  0.24495  0.76528  1
 C  C9  1  0.72611  0.53765  0.26450  1
 C  C10  1  0.39542  0.65164  0.53319  1
 C  C11  1  0.94592  0.17070  0.45910  1
 C  C12  1  0.73522  0.20876  0.60593  1
 C  C13  1  0.21514  0.18748  0.81330  1
 C  C14  1  0.18802  0.61730  0.67629  1
 C  C15  1  0.68918  0.28809  0.73676  1
 C  C16  1  0.80982  0.36339  0.86309  1
 C  C17  1  0.19018  0.86339  0.13691  1
 C  C18  1  0.98868  0.34157  0.88305  1
 C  C19  1  0.01132  0.84157  0.11695  1
 C  C20  1  0.11105  0.40475  0.02495  1
 C  C21  1  0.88895  0.90475  0.97505  1
 C  C22  1  0.28303  0.36657  0.05780  1
 C  C23  1  0.71697  0.86657  0.94220  1
 C  C24  1  0.33235  0.25407  0.95451  1
 C  C25  1  0.66765  0.75407  0.04549  1
 C  C26  1  0.88734  0.71280  0.57328  1
 C  C27  1  0.78486  0.68748  0.18670  1
 C  C28  1  0.31082  0.78809  0.26324  1
 C  C29  1  0.64389  0.10017  0.32855  1
 C  C30  1  0.11266  0.21280  0.42672  1
 C  C31  1  0.81198  0.11730  0.32371  1
 C  C32  1  0.26478  0.70876  0.39407  1
 H  H1  1  0.08352  0.28163  0.31015  1
 H  H2  1  0.91648  0.78163  0.68985  1
 H  H3  1  0.19663  0.29268  0.52238  1
 H  H4  1  0.80337  0.79268  0.47762  1
 H  H5  1  0.18337  0.09888  0.41221  1
 H  H6  1  0.81663  0.59888  0.58779  1
 H  H7  1  0.83229  0.47250  0.35288  1
 H  H8  1  0.36894  0.07021  0.67387  1
 H  H9  1  0.63106  0.57021  0.32613  1
 H  H10  1  0.33585  0.94612  0.83191  1
 H  H11  1  0.66415  0.44612  0.16809  1
 H  H12  1  0.83869  0.09566  0.20837  1
 H  H13  1  0.16131  0.59566  0.79163  1
 H  H14  1  0.16771  0.97250  0.64712  1
 H  H15  1  0.54347  0.05681  0.22066  1
 H  H16  1  0.46493  0.20992  0.98831  1
 H  H17  1  0.62304  0.91496  0.83197  1
 H  H18  1  0.37696  0.41496  0.16803  1
 H  H19  1  0.06720  0.48194  0.10938  1
 H  H20  1  0.22601  0.93571  0.04431  1
 H  H21  1  0.93280  0.98194  0.89062  1
 H  H22  1  0.77399  0.43571  0.95569  1
 H  H23  1  0.44642  0.79586  0.27327  1
 H  H24  1  0.55358  0.29586  0.72673  1
 H  H25  1  0.52818  0.65527  0.53257  1
 H  H26  1  0.47182  0.15527  0.46743  1
 H  H27  1  0.45653  0.55681  0.77934  1
 H  H28  1  0.53507  0.70992  0.01169  1
