CIF file written using JARVIS-Tools package.
data_Na5Mn7O16
_symmetry_space_group_name_H-M  'P2/m'
_cell_length_a       6.09837
_cell_length_b       5.91593
_cell_length_c       8.64951
_cell_angle_alpha    90
_cell_angle_beta     94.0413
_cell_angle_gamma    90

_symmetry_Int_Tables_number  10
_chemical_formula_structural  Na5Mn7O16
_chemical_formula_sum  Na5Mn7O6
_cell_volume  311.2766333605475
_cell_formula_units_Z  1
loop_
  _symmetry_equiv_pos_site_id
 _symmetry_equiv_pos_as_xyz
 1  'x, y, z'
loop_
 _atom_site_type_symbol
 _atom_site_label
 _atom_site_symmetry_multiplicity
 _atom_site_fract_x
 _atom_site_fract_y
 _atom_site_fract_z
 _atom_site_fract_occupancy
 Mn  Mn1  1  0.72902  0.75258  0.75539  1
 Mn  Mn2  1  0.50000  0.00000  0.50000  1
 Mn  Mn3  1  0.72902  0.24742  0.75539  1
 Mn  Mn4  1  0.27098  0.24742  0.24461  1
 Mn  Mn5  1  0.27098  0.75258  0.24461  1
 Mn  Mn6  1  0.00000  0.50000  0.00000  1
 Mn  Mn7  1  0.50000  0.50000  -0.00000  1
 Na  Na1  1  0.24411  0.00000  0.87244  1
 Na  Na2  1  0.77778  0.50000  0.37913  1
 Na  Na3  1  0.00000  0.00000  0.50000  1
 Na  Na4  1  0.22222  0.50000  0.62087  1
 Na  Na5  1  0.75589  0.00000  0.12756  1
 O  O1  1  0.71428  0.23144  0.54347  1
 O  O2  1  0.51814  0.50000  0.77728  1
 O  O3  1  0.74581  0.29352  0.98577  1
 O  O4  1  0.51411  0.00000  0.72649  1
 O  O5  1  0.91856  0.00000  0.77222  1
 O  O6  1  0.71428  0.76856  0.54347  1
 O  O7  1  0.94048  0.50000  0.77558  1
 O  O8  1  0.25419  0.29352  0.01423  1
 O  O9  1  0.48589  0.00000  0.27351  1
 O  O10  1  0.05952  0.50000  0.22442  1
 O  O11  1  0.48186  0.50000  0.22272  1
 O  O12  1  0.25419  0.70648  0.01423  1
 O  O13  1  0.28572  0.23144  0.45653  1
 O  O14  1  0.08144  0.00000  0.22778  1
 O  O15  1  0.28572  0.76856  0.45653  1
 O  O16  1  0.74581  0.70648  0.98577  1
