CIF file written using JARVIS-Tools package.
data_Co5CuO8
_symmetry_space_group_name_H-M  'R-3m'
_cell_length_a       5.77576
_cell_length_b       5.77576
_cell_length_c       5.72443
_cell_angle_alpha    60.2936
_cell_angle_beta     90
_cell_angle_gamma    120.587

_symmetry_Int_Tables_number  166
_chemical_formula_structural  Co5CuO8
_chemical_formula_sum  Co5CuO8
_cell_volume  134.42200066645796
_cell_formula_units_Z  1
loop_
  _symmetry_equiv_pos_site_id
 _symmetry_equiv_pos_as_xyz
 1  'x, y, z'
loop_
 _atom_site_type_symbol
 _atom_site_label
 _atom_site_symmetry_multiplicity
 _atom_site_fract_x
 _atom_site_fract_y
 _atom_site_fract_z
 _atom_site_fract_occupancy
 Co  Co1  1  0.62500  0.25000  0.12500  1
 Co  Co2  1  0.00167  0.99666  0.00167  1
 Co  Co3  1  0.62500  0.25000  0.62500  1
 Co  Co4  1  0.24833  0.50334  0.24833  1
 Co  Co5  1  0.12500  0.75000  0.62500  1
 Cu  Cu1  1  0.62500  0.75000  0.62500  1
 O  O1  1  0.84475  0.24579  0.37710  1
 O  O2  1  0.38610  0.22780  0.38610  1
 O  O3  1  0.86390  0.27220  0.86390  1
 O  O4  1  0.87290  0.72185  0.40525  1
 O  O5  1  0.40525  0.25421  0.87290  1
 O  O6  1  0.87290  0.72185  0.87290  1
 O  O7  1  0.37710  0.77815  0.37710  1
 O  O8  1  0.37710  0.77815  0.84475  1
