CIF file written using JARVIS-Tools package.
data_FeSiGe
_symmetry_space_group_name_H-M  'Cmce'
_cell_length_a       6.51043
_cell_length_b       6.51043
_cell_length_c       8.06863
_cell_angle_alpha    90
_cell_angle_beta     90
_cell_angle_gamma    104.767

_symmetry_Int_Tables_number  64
_chemical_formula_structural  FeSiGe
_chemical_formula_sum  Fe8Si8Ge8
_cell_volume  330.6977440731359
_cell_formula_units_Z  8
loop_
  _symmetry_equiv_pos_site_id
 _symmetry_equiv_pos_as_xyz
 1  'x, y, z'
loop_
 _atom_site_type_symbol
 _atom_site_label
 _atom_site_symmetry_multiplicity
 _atom_site_fract_x
 _atom_site_fract_y
 _atom_site_fract_z
 _atom_site_fract_occupancy
 Fe  Fe1  1  0.28180  0.71820  0.50000  1
 Fe  Fe2  1  0.80306  0.80306  0.18759  1
 Fe  Fe3  1  0.71820  0.28180  0.50000  1
 Fe  Fe4  1  0.30306  0.30306  0.31241  1
 Fe  Fe5  1  0.21820  0.78180  0.00000  1
 Fe  Fe6  1  0.19694  0.19694  0.81241  1
 Fe  Fe7  1  0.69694  0.69694  0.68759  1
 Fe  Fe8  1  0.78180  0.21820  0.00000  1
 Ge  Ge1  1  0.83277  0.08553  0.72853  1
 Ge  Ge2  1  0.91447  0.16723  0.27147  1
 Ge  Ge3  1  0.41447  0.66723  0.22853  1
 Ge  Ge4  1  0.08553  0.83277  0.72853  1
 Ge  Ge5  1  0.58553  0.33277  0.77147  1
 Ge  Ge6  1  0.66723  0.41447  0.22853  1
 Ge  Ge7  1  0.33277  0.58553  0.77147  1
 Ge  Ge8  1  0.16723  0.91447  0.27147  1
 Si  Si1  1  0.10300  0.35724  0.54189  1
 Si  Si2  1  0.85724  0.60300  0.95811  1
 Si  Si3  1  0.39700  0.14276  0.04189  1
 Si  Si4  1  0.14276  0.39700  0.04189  1
 Si  Si5  1  0.60300  0.85724  0.95811  1
 Si  Si6  1  0.64276  0.89700  0.45811  1
 Si  Si7  1  0.35724  0.10300  0.54189  1
 Si  Si8  1  0.89700  0.64276  0.45811  1
