CIF file written using JARVIS-Tools package.
data_U2P2O9
_symmetry_space_group_name_H-M  'Cmce'
_cell_length_a       5.76108
_cell_length_b       5.76108
_cell_length_c       12.7538
_cell_angle_alpha    90
_cell_angle_beta     90
_cell_angle_gamma    104.095

_symmetry_Int_Tables_number  64
_chemical_formula_structural  U2P2O9
_chemical_formula_sum  U4P4O8
_cell_volume  410.5560646621734
_cell_formula_units_Z  2
loop_
  _symmetry_equiv_pos_site_id
 _symmetry_equiv_pos_as_xyz
 1  'x, y, z'
loop_
 _atom_site_type_symbol
 _atom_site_label
 _atom_site_symmetry_multiplicity
 _atom_site_fract_x
 _atom_site_fract_y
 _atom_site_fract_z
 _atom_site_fract_occupancy
 O  O1  1  0.85426  0.48602  0.58712  1
 O  O2  1  0.05769  0.94231  0.12335  1
 O  O3  1  0.55769  0.44231  0.37665  1
 O  O4  1  0.94231  0.05769  0.87665  1
 O  O5  1  0.00000  0.00000  0.50000  1
 O  O6  1  0.50000  0.50000  0.00000  1
 O  O7  1  0.13891  0.86109  0.73852  1
 O  O8  1  0.36109  0.63891  0.23852  1
 O  O9  1  0.35426  0.98602  0.91288  1
 O  O10  1  0.14574  0.51398  0.41288  1
 O  O11  1  0.98602  0.35426  0.08712  1
 O  O12  1  0.44231  0.55769  0.62335  1
 O  O13  1  0.64574  0.01398  0.08712  1
 O  O14  1  0.01398  0.64574  0.91288  1
 O  O15  1  0.48602  0.85426  0.41288  1
 O  O16  1  0.63891  0.36109  0.76148  1
 O  O17  1  0.86109  0.13891  0.26148  1
 O  O18  1  0.51398  0.14574  0.58712  1
 P  P1  1  0.60894  0.39106  0.64421  1
 P  P2  1  0.89106  0.10894  0.14421  1
 P  P3  1  0.39106  0.60894  0.35579  1
 P  P4  1  0.10894  0.89106  0.85579  1
 U  U1  1  0.29129  0.70871  0.06876  1
 U  U2  1  0.70871  0.29129  0.93124  1
 U  U3  1  0.79129  0.20871  0.43124  1
 U  U4  1  0.20871  0.79129  0.56876  1
