CIF file written using JARVIS-Tools package.
data_SnH4C2Cl2
_symmetry_space_group_name_H-M  'Imma'
_cell_length_a       6.71188
_cell_length_b       6.95024
_cell_length_c       6.9502
_cell_angle_alpha    73.6772
_cell_angle_beta     61.1258
_cell_angle_gamma    61.126

_symmetry_Int_Tables_number  74
_chemical_formula_structural  SnH4C2Cl2
_chemical_formula_sum  Sn2H8C4Cl4
_cell_volume  248.13490824300106
_cell_formula_units_Z  2
loop_
  _symmetry_equiv_pos_site_id
 _symmetry_equiv_pos_as_xyz
 1  'x, y, z'
loop_
 _atom_site_type_symbol
 _atom_site_label
 _atom_site_symmetry_multiplicity
 _atom_site_fract_x
 _atom_site_fract_y
 _atom_site_fract_z
 _atom_site_fract_occupancy
 C  C1  1  0.11220  -0.00326  0.00289  1
 C  C2  1  0.88780  0.00303  -0.00304  1
 C  C3  1  0.11206  0.50298  0.49691  1
 C  C4  1  0.88793  0.49679  0.50294  1
 Cl  Cl1  1  0.30262  0.94266  0.44264  1
 Cl  Cl2  1  0.31188  0.44266  0.94264  1
 Cl  Cl3  1  0.69739  0.05711  0.55721  1
 Cl  Cl4  1  0.68810  0.55711  0.05721  1
 H  H1  1  0.92075  0.44751  0.35007  1
 H  H2  1  0.28153  0.94731  0.85002  1
 H  H3  1  0.07925  0.55225  0.64979  1
 H  H4  1  0.28146  0.35011  0.44781  1
 H  H5  1  0.07978  0.14961  0.05183  1
 H  H6  1  0.92022  0.85016  0.94801  1
 H  H7  1  0.71853  0.64966  0.55203  1
 H  H8  1  0.71847  0.05245  0.14983  1
 Sn  Sn1  1  0.77389  0.24988  0.74992  1
 Sn  Sn2  1  0.22609  0.74990  0.24994  1
