CIF file written using JARVIS-Tools package.
data_CdH8C6O4
_symmetry_space_group_name_H-M  'P-1'
_cell_length_a       4.02479
_cell_length_b       4.14391
_cell_length_c       10.2004
_cell_angle_alpha    78.4699
_cell_angle_beta     87.6275
_cell_angle_gamma    76.4765

_symmetry_Int_Tables_number  2
_chemical_formula_structural  CdH8C6O4
_chemical_formula_sum  CdH8C6O4
_cell_volume  162.06859985178409
_cell_formula_units_Z  1
loop_
  _symmetry_equiv_pos_site_id
 _symmetry_equiv_pos_as_xyz
 1  'x, y, z'
loop_
 _atom_site_type_symbol
 _atom_site_label
 _atom_site_symmetry_multiplicity
 _atom_site_fract_x
 _atom_site_fract_y
 _atom_site_fract_z
 _atom_site_fract_occupancy
 C  C1  1  0.32337  0.61464  0.01331  1
 C  C2  1  0.08598  0.04526  0.64248  1
 C  C3  1  0.28691  0.19199  0.52291  1
 C  C4  1  0.07299  0.32916  0.39672  1
 C  C5  1  0.31035  0.89867  0.76755  1
 C  C6  1  0.10944  0.75186  0.88711  1
 Cd  Cd1  1  0.69820  0.97189  0.20501  1
 H  H1  1  0.86948  0.24476  0.66400  1
 H  H2  1  0.41861  0.09743  0.79430  1
 H  H3  1  0.01418  0.54230  0.86346  1
 H  H4  1  0.52686  0.69920  0.74603  1
 H  H5  1  0.97767  0.84650  0.61575  1
 H  H6  1  0.38217  0.40157  0.54654  1
 H  H7  1  0.50578  -0.00450  0.50260  1
 H  H8  1  0.89057  0.94832  0.90744  1
 O  O1  1  0.13929  0.17813  0.29720  1
 O  O2  1  0.25712  0.76568  0.11282  1
 O  O3  1  0.82929  0.58946  0.39531  1
 O  O4  1  0.56702  0.35429  0.01471  1
