CIF file written using JARVIS-Tools package.
data_H4N2O3
_symmetry_space_group_name_H-M  'P-42_1m'
_cell_length_a       5.63196
_cell_length_b       5.63196
_cell_length_c       4.7967
_cell_angle_alpha    90
_cell_angle_beta     90
_cell_angle_gamma    90

_symmetry_Int_Tables_number  113
_chemical_formula_structural  H4N2O3
_chemical_formula_sum  H8N4O6
_cell_volume  152.1463897057952
_cell_formula_units_Z  2
loop_
  _symmetry_equiv_pos_site_id
 _symmetry_equiv_pos_as_xyz
 1  'x, y, z'
loop_
 _atom_site_type_symbol
 _atom_site_label
 _atom_site_symmetry_multiplicity
 _atom_site_fract_x
 _atom_site_fract_y
 _atom_site_fract_z
 _atom_site_fract_occupancy
 H  H1  1  0.52796  0.64770  0.37428  1
 H  H2  1  0.97204  0.14770  0.62572  1
 H  H3  1  0.47204  0.35230  0.37428  1
 H  H4  1  0.02796  0.85230  0.62572  1
 H  H5  1  0.64770  0.47204  0.62572  1
 H  H6  1  0.85230  0.97204  0.37428  1
 H  H7  1  0.35230  0.52796  0.62572  1
 H  H8  1  0.14770  0.02796  0.37428  1
 N  N1  1  0.00000  0.00000  0.50000  1
 N  N2  1  0.50000  0.50000  0.50000  1
 N  N3  1  0.50000  0.00000  0.96324  1
 N  N4  1  0.00000  0.50000  0.03676  1
 O  O1  1  0.13864  0.63864  0.90451  1
 O  O2  1  0.63864  0.86136  0.09549  1
 O  O3  1  0.00000  0.50000  0.29831  1
 O  O4  1  0.50000  0.00000  0.70169  1
 O  O5  1  0.36136  0.13864  0.09549  1
 O  O6  1  0.86136  0.36136  0.90451  1
