CIF file written using JARVIS-Tools package.
data_ZnH4C4O4
_symmetry_space_group_name_H-M  'P1'
_cell_length_a       4.24589
_cell_length_b       4.50708
_cell_length_c       7.16577
_cell_angle_alpha    76.1154
_cell_angle_beta     92.9178
_cell_angle_gamma    94.6932

_symmetry_Int_Tables_number  1
_chemical_formula_structural  ZnH4C4O4
_chemical_formula_sum  ZnH4C4O4
_cell_volume  132.60574899072077
_cell_formula_units_Z  1
loop_
  _symmetry_equiv_pos_site_id
 _symmetry_equiv_pos_as_xyz
 1  'x, y, z'
loop_
 _atom_site_type_symbol
 _atom_site_label
 _atom_site_symmetry_multiplicity
 _atom_site_fract_x
 _atom_site_fract_y
 _atom_site_fract_z
 _atom_site_fract_occupancy
 C  C1  1  0.89703  0.51932  0.47398  1
 C  C2  1  0.03639  0.73271  0.29666  1
 C  C3  1  0.16526  0.56565  0.15792  1
 C  C4  1  0.29063  0.78381  0.97789  1
 H  H1  1  0.85399  0.88361  0.22530  1
 H  H2  1  0.22716  0.87633  0.34777  1
 H  H3  1  -0.01640  0.40693  0.11267  1
 H  H4  1  0.35655  0.42373  0.22804  1
 O  O1  1  0.64254  0.59832  0.52891  1
 O  O2  1  0.02585  0.27665  0.56315  1
 O  O3  1  0.28544  0.70807  0.81886  1
 O  O4  1  0.39532  0.05608  0.98932  1
 Zn  Zn1  1  0.40356  0.33144  0.73429  1
