CIF file written using JARVIS-Tools package.
data_Mg2SnIrO6
_symmetry_space_group_name_H-M  'P2_1/c'
_cell_length_a       5.27884
_cell_length_b       5.38117
_cell_length_c       9.31503
_cell_angle_alpha    90
_cell_angle_beta     124.417
_cell_angle_gamma    90

_symmetry_Int_Tables_number  14
_chemical_formula_structural  Mg2SnIrO6
_chemical_formula_sum  Mg4Sn2Ir2O2
_cell_volume  218.28440875454598
_cell_formula_units_Z  2
loop_
  _symmetry_equiv_pos_site_id
 _symmetry_equiv_pos_as_xyz
 1  'x, y, z'
loop_
 _atom_site_type_symbol
 _atom_site_label
 _atom_site_symmetry_multiplicity
 _atom_site_fract_x
 _atom_site_fract_y
 _atom_site_fract_z
 _atom_site_fract_occupancy
 Ir  Ir1  1  0.50000  0.50000  0.50000  1
 Ir  Ir2  1  0.50000  0.00000  -0.00000  1
 Mg  Mg1  1  0.25014  0.04514  0.25448  1
 Mg  Mg2  1  0.74986  0.54514  0.24552  1
 Mg  Mg3  1  0.25014  0.45486  0.75448  1
 Mg  Mg4  1  0.74986  0.95486  0.74552  1
 O  O1  1  0.87814  0.58770  0.74548  1
 O  O2  1  0.40306  0.17550  0.56635  1
 O  O3  1  0.59694  0.82450  0.43365  1
 O  O4  1  0.40306  0.32450  0.06635  1
 O  O5  1  0.25190  0.82851  0.07560  1
 O  O6  1  0.12186  0.08770  0.75452  1
 O  O7  1  0.59694  0.67550  0.93365  1
 O  O8  1  0.25190  0.67149  0.57560  1
 O  O9  1  0.74810  0.32851  0.42440  1
 O  O10  1  0.74810  0.17149  0.92440  1
 O  O11  1  0.87814  0.91230  0.24548  1
 O  O12  1  0.12186  0.41230  0.25452  1
 Sn  Sn1  1  0.00000  0.00000  0.50000  1
 Sn  Sn2  1  0.00000  0.50000  0.00000  1
