CIF file written using JARVIS-Tools package.
data_Rb3AsSe4
_symmetry_space_group_name_H-M  'Pnma'
_cell_length_a       9.64805
_cell_length_b       10.0483
_cell_length_c       11.3444
_cell_angle_alpha    90
_cell_angle_beta     90
_cell_angle_gamma    90

_symmetry_Int_Tables_number  62
_chemical_formula_structural  Rb3AsSe4
_chemical_formula_sum  Rb2As4Se6
_cell_volume  1099.8013211786815
_cell_formula_units_Z  4
loop_
  _symmetry_equiv_pos_site_id
 _symmetry_equiv_pos_as_xyz
 1  'x, y, z'
loop_
 _atom_site_type_symbol
 _atom_site_label
 _atom_site_symmetry_multiplicity
 _atom_site_fract_x
 _atom_site_fract_y
 _atom_site_fract_z
 _atom_site_fract_occupancy
 As  As1  1  0.22904  0.02570  0.25000  1
 As  As2  1  0.77096  0.97430  0.75000  1
 As  As3  1  0.27096  0.52570  0.75000  1
 As  As4  1  0.72904  0.47430  0.25000  1
 Rb  Rb1  1  0.05406  0.80752  0.54303  1
 Rb  Rb2  1  0.55406  0.69248  0.95697  1
 Rb  Rb3  1  0.44594  0.30752  0.45697  1
 Rb  Rb4  1  0.94594  0.19248  0.04303  1
 Rb  Rb5  1  0.64903  0.91061  0.25000  1
 Rb  Rb6  1  0.44594  0.30752  0.04303  1
 Rb  Rb7  1  0.55406  0.69248  0.54303  1
 Rb  Rb8  1  0.05406  0.80752  0.95697  1
 Rb  Rb9  1  0.35097  0.08939  0.75000  1
 Rb  Rb10  1  0.85097  0.41061  0.75000  1
 Rb  Rb11  1  0.14903  0.58939  0.25000  1
 Rb  Rb12  1  0.94594  0.19248  0.45697  1
 Se  Se1  1  0.69092  0.24305  0.25000  1
 Se  Se2  1  0.35189  0.96941  0.07610  1
 Se  Se3  1  0.85189  0.53059  0.42390  1
 Se  Se4  1  0.14811  0.46941  0.92390  1
 Se  Se5  1  0.64811  0.03059  0.57610  1
 Se  Se6  1  0.01074  0.91462  0.25000  1
 Se  Se7  1  0.48926  0.41462  0.75000  1
 Se  Se8  1  0.35189  0.96941  0.42390  1
 Se  Se9  1  0.64811  0.03059  0.92390  1
 Se  Se10  1  0.85189  0.53059  0.07610  1
 Se  Se11  1  0.14811  0.46941  0.57610  1
 Se  Se12  1  0.80908  0.74305  0.75000  1
 Se  Se13  1  0.30908  0.75695  0.75000  1
 Se  Se14  1  0.51074  0.58538  0.25000  1
 Se  Se15  1  0.98926  0.08538  0.75000  1
 Se  Se16  1  0.19092  0.25695  0.25000  1
