CIF file written using JARVIS-Tools package.
data_La2YC6
_symmetry_space_group_name_H-M  'C2/m'
_cell_length_a       4.23613
_cell_length_b       4.23614
_cell_length_c       10.0138
_cell_angle_alpha    82.4356
_cell_angle_beta     82.4356
_cell_angle_gamma    53.7828

_symmetry_Int_Tables_number  12
_chemical_formula_structural  La2YC6
_chemical_formula_sum  La2YC6
_cell_volume  143.38778239486155
_cell_formula_units_Z  1
loop_
  _symmetry_equiv_pos_site_id
 _symmetry_equiv_pos_as_xyz
 1  'x, y, z'
loop_
 _atom_site_type_symbol
 _atom_site_label
 _atom_site_symmetry_multiplicity
 _atom_site_fract_x
 _atom_site_fract_y
 _atom_site_fract_z
 _atom_site_fract_occupancy
 C  C1  1  0.73641  0.73641  0.88197  1
 C  C2  1  0.06541  0.06541  0.53510  1
 C  C3  1  0.40102  0.40102  0.18099  1
 C  C4  1  0.26359  0.26359  0.11803  1
 C  C5  1  0.59898  0.59898  0.81901  1
 C  C6  1  0.93459  0.93459  0.46490  1
 La  La1  1  0.33414  0.33414  0.67295  1
 La  La2  1  0.66586  0.66586  0.32705  1
 Y  Y1  1  0.00000  0.00000  0.00000  1
