CIF file written using JARVIS-Tools package.
data_Br2O
_symmetry_space_group_name_H-M  'Pna2_1'
_cell_length_a       3.87634
_cell_length_b       6.7765
_cell_length_c       10.3346
_cell_angle_alpha    90
_cell_angle_beta     90
_cell_angle_gamma    90

_symmetry_Int_Tables_number  33
_chemical_formula_structural  Br2O
_chemical_formula_sum  Br8O4
_cell_volume  271.4692274923112
_cell_formula_units_Z  4
loop_
  _symmetry_equiv_pos_site_id
 _symmetry_equiv_pos_as_xyz
 1  'x, y, z'
loop_
 _atom_site_type_symbol
 _atom_site_label
 _atom_site_symmetry_multiplicity
 _atom_site_fract_x
 _atom_site_fract_y
 _atom_site_fract_z
 _atom_site_fract_occupancy
 Br  Br1  1  0.64019  0.32052  0.50747  1
 Br  Br2  1  0.35981  0.82052  0.49253  1
 Br  Br3  1  0.85981  0.32052  0.00747  1
 Br  Br4  1  0.14019  0.82052  0.99253  1
 Br  Br5  1  0.09596  0.49645  0.22734  1
 Br  Br6  1  0.90404  -0.00355  0.77266  1
 Br  Br7  1  0.40404  0.49645  0.72734  1
 Br  Br8  1  0.59596  -0.00355  0.27266  1
 O  O1  1  0.35038  0.70493  0.14771  1
 O  O2  1  0.64962  0.20493  0.85229  1
 O  O3  1  0.14962  0.70493  0.64771  1
 O  O4  1  0.85038  0.20493  0.35229  1
