CIF file written using JARVIS-Tools package.
data_SrAl2
_symmetry_space_group_name_H-M  'Imma'
_cell_length_a       4.80718
_cell_length_b       6.11001
_cell_length_c       6.11001
_cell_angle_alpha    80.6438
_cell_angle_beta     66.8347
_cell_angle_gamma    66.8347

_symmetry_Int_Tables_number  74
_chemical_formula_structural  SrAl2
_chemical_formula_sum  Sr2Al4
_cell_volume  151.68394534523873
_cell_formula_units_Z  2
loop_
  _symmetry_equiv_pos_site_id
 _symmetry_equiv_pos_as_xyz
 1  'x, y, z'
loop_
 _atom_site_type_symbol
 _atom_site_label
 _atom_site_symmetry_multiplicity
 _atom_site_fract_x
 _atom_site_fract_y
 _atom_site_fract_z
 _atom_site_fract_occupancy
 Al  Al1  1  0.16102  0.27259  0.40538  1
 Al  Al2  1  0.83898  0.72741  0.59462  1
 Al  Al3  1  0.83898  0.09462  0.22741  1
 Al  Al4  1  0.16102  0.90538  0.77259  1
 Sr  Sr1  1  0.45042  0.29958  0.79958  1
 Sr  Sr2  1  0.54958  0.70042  0.20042  1
