CIF file written using JARVIS-Tools package.
data_Ta3SeI7
_symmetry_space_group_name_H-M  'P6_3mc'
_cell_length_a       7.61402
_cell_length_b       7.61402
_cell_length_c       13.7443
_cell_angle_alpha    90
_cell_angle_beta     90
_cell_angle_gamma    120

_symmetry_Int_Tables_number  186
_chemical_formula_structural  Ta3SeI7
_chemical_formula_sum  Ta6Se2I4
_cell_volume  690.0521372108809
_cell_formula_units_Z  2
loop_
  _symmetry_equiv_pos_site_id
 _symmetry_equiv_pos_as_xyz
 1  'x, y, z'
loop_
 _atom_site_type_symbol
 _atom_site_label
 _atom_site_symmetry_multiplicity
 _atom_site_fract_x
 _atom_site_fract_y
 _atom_site_fract_z
 _atom_site_fract_occupancy
 I  I1  1  0.66185  0.83093  0.11431  1
 I  I2  1  0.49734  0.99469  0.36339  1
 I  I3  1  0.50266  0.00531  0.86339  1
 I  I4  1  0.33815  0.16907  0.61431  1
 I  I5  1  0.49734  0.50266  0.36339  1
 I  I6  1  0.00531  0.50266  0.36339  1
 I  I7  1  0.99469  0.49734  0.86339  1
 I  I8  1  0.33333  0.66667  0.64411  1
 I  I9  1  0.66667  0.33333  0.14411  1
 I  I10  1  0.83093  0.16907  0.61431  1
 I  I11  1  0.16907  0.83093  0.11431  1
 I  I12  1  0.16907  0.33815  0.11431  1
 I  I13  1  0.83093  0.66185  0.61431  1
 I  I14  1  0.50266  0.49734  0.86339  1
 Se  Se1  1  0.00000  0.00000  0.38852  1
 Se  Se2  1  0.00000  0.00000  0.88852  1
 Ta  Ta1  1  0.87047  0.12953  0.25026  1
 Ta  Ta2  1  0.74094  0.87047  0.75026  1
 Ta  Ta3  1  0.12953  0.25906  0.75026  1
 Ta  Ta4  1  0.87047  0.74094  0.25026  1
 Ta  Ta5  1  0.25906  0.12953  0.25026  1
 Ta  Ta6  1  0.12953  0.87047  0.75026  1
