CIF file written using JARVIS-Tools package.
data_TaCoTe2
_symmetry_space_group_name_H-M  'P2_1/c'
_cell_length_a       7.79384
_cell_length_b       6.3308
_cell_length_c       8.28915
_cell_angle_alpha    90
_cell_angle_beta     115.535
_cell_angle_gamma    90

_symmetry_Int_Tables_number  14
_chemical_formula_structural  TaCoTe2
_chemical_formula_sum  Ta4Co4Te8
_cell_volume  369.04617935677925
_cell_formula_units_Z  4
loop_
  _symmetry_equiv_pos_site_id
 _symmetry_equiv_pos_as_xyz
 1  'x, y, z'
loop_
 _atom_site_type_symbol
 _atom_site_label
 _atom_site_symmetry_multiplicity
 _atom_site_fract_x
 _atom_site_fract_y
 _atom_site_fract_z
 _atom_site_fract_occupancy
 Co  Co1  1  0.94109  0.85020  0.39544  1
 Co  Co2  1  0.05891  0.14980  0.60456  1
 Co  Co3  1  0.44109  0.64980  0.39544  1
 Co  Co4  1  0.55891  0.35020  0.60456  1
 Ta  Ta1  1  0.30966  0.97827  0.51543  1
 Ta  Ta2  1  0.19034  0.47827  0.48457  1
 Ta  Ta3  1  0.69034  0.02173  0.48457  1
 Ta  Ta4  1  0.80966  0.52173  0.51543  1
 Te  Te1  1  0.35558  0.25484  0.27006  1
 Te  Te2  1  0.85558  0.24516  0.27006  1
 Te  Te3  1  0.14442  0.75484  0.72994  1
 Te  Te4  1  0.64442  0.74516  0.72994  1
 Te  Te5  1  0.90768  0.25030  0.81278  1
 Te  Te6  1  0.59232  0.75030  0.18722  1
 Te  Te7  1  0.09232  0.74970  0.18722  1
 Te  Te8  1  0.40768  0.24970  0.81278  1
