CIF file written using JARVIS-Tools package.
data_LiSiBiO4
_symmetry_space_group_name_H-M  'Pnma'
_cell_length_a       4.88707
_cell_length_b       6.8241
_cell_length_c       10.6673
_cell_angle_alpha    90
_cell_angle_beta     90
_cell_angle_gamma    90

_symmetry_Int_Tables_number  62
_chemical_formula_structural  LiSiBiO4
_chemical_formula_sum  Li4Si4Bi4O6
_cell_volume  355.75448771026026
_cell_formula_units_Z  4
loop_
  _symmetry_equiv_pos_site_id
 _symmetry_equiv_pos_as_xyz
 1  'x, y, z'
loop_
 _atom_site_type_symbol
 _atom_site_label
 _atom_site_symmetry_multiplicity
 _atom_site_fract_x
 _atom_site_fract_y
 _atom_site_fract_z
 _atom_site_fract_occupancy
 Bi  Bi1  1  0.06418  0.75000  0.27996  1
 Bi  Bi2  1  0.93582  0.25000  0.72004  1
 Bi  Bi3  1  0.56418  0.25000  0.22004  1
 Bi  Bi4  1  0.43582  0.75000  0.77996  1
 Li  Li1  1  0.00000  0.00000  0.00000  1
 Li  Li2  1  0.50000  0.00000  0.50000  1
 Li  Li3  1  0.50000  0.50000  0.50000  1
 Li  Li4  1  0.00000  0.50000  0.00000  1
 O  O1  1  0.25301  0.43707  0.34358  1
 O  O2  1  0.74699  0.56293  0.65642  1
 O  O3  1  0.71941  0.25000  0.92741  1
 O  O4  1  0.75389  0.75000  0.93759  1
 O  O5  1  0.78059  0.25000  0.42741  1
 O  O6  1  0.75301  0.56293  0.15642  1
 O  O7  1  0.74699  0.93707  0.65642  1
 O  O8  1  0.74611  0.75000  0.43759  1
 O  O9  1  0.24611  0.25000  0.06241  1
 O  O10  1  0.28059  0.75000  0.07259  1
 O  O11  1  0.24699  0.06293  0.84358  1
 O  O12  1  0.21941  0.75000  0.57259  1
 O  O13  1  0.75301  0.93707  0.15642  1
 O  O14  1  0.25301  0.06293  0.34358  1
 O  O15  1  0.24699  0.43707  0.84358  1
 O  O16  1  0.25389  0.25000  0.56241  1
 Si  Si1  1  0.11210  0.25000  0.42184  1
 Si  Si2  1  0.38790  0.25000  0.92184  1
 Si  Si3  1  0.61210  0.75000  0.07816  1
 Si  Si4  1  0.88790  0.75000  0.57816  1
