CIF file written using JARVIS-Tools package.
data_CdH8C6O4
_symmetry_space_group_name_H-M  'P1'
_cell_length_a       3.90673
_cell_length_b       4.25073
_cell_length_c       10.0658
_cell_angle_alpha    92.6468
_cell_angle_beta     95.054
_cell_angle_gamma    102.172

_symmetry_Int_Tables_number  1
_chemical_formula_structural  CdH8C6O4
_chemical_formula_sum  CdH8C6O4
_cell_volume  162.4035986513186
_cell_formula_units_Z  1
loop_
  _symmetry_equiv_pos_site_id
 _symmetry_equiv_pos_as_xyz
 1  'x, y, z'
loop_
 _atom_site_type_symbol
 _atom_site_label
 _atom_site_symmetry_multiplicity
 _atom_site_fract_x
 _atom_site_fract_y
 _atom_site_fract_z
 _atom_site_fract_occupancy
 C  C1  1  0.25111  0.26480  0.00604  1
 C  C2  1  0.47001  0.10723  0.64170  1
 C  C3  1  0.56618  0.29941  0.52043  1
 C  C4  1  0.45640  0.10910  0.38622  1
 C  C5  1  0.45217  0.31261  0.76898  1
 C  C6  1  0.32145  0.09601  0.87947  1
 Cd  Cd1  1  0.95520  0.63405  0.18584  1
 H  H1  1  0.21108  0.94503  0.61538  1
 H  H2  1  0.27262  0.47503  0.74666  1
 H  H3  1  0.51198  0.95020  0.90986  1
 H  H4  1  0.71076  0.46809  0.80359  1
 H  H5  1  0.65709  0.95042  0.66192  1
 H  H6  1  0.42869  0.50033  0.51447  1
 H  H7  1  0.84791  0.41068  0.52540  1
 H  H8  1  0.07635  0.92369  0.84223  1
 O  O1  1  0.60147  0.20423  0.28337  1
 O  O2  1  0.00128  0.12910  0.07131  1
 O  O3  1  0.20410  0.85792  0.38210  1
 O  O4  1  0.42761  0.55001  0.04470  1
