CIF file written using JARVIS-Tools package.
data_V4C3
_symmetry_space_group_name_H-M  'R-3m'
_cell_length_a       9.50253
_cell_length_b       9.50253
_cell_length_c       9.50253
_cell_angle_alpha    17.7251
_cell_angle_beta     17.725
_cell_angle_gamma    17.725

_symmetry_Int_Tables_number  166
_chemical_formula_structural  V4C3
_chemical_formula_sum  V4C3
_cell_volume  69.4267211111714
_cell_formula_units_Z  1
loop_
  _symmetry_equiv_pos_site_id
 _symmetry_equiv_pos_as_xyz
 1  'x, y, z'
loop_
 _atom_site_type_symbol
 _atom_site_label
 _atom_site_symmetry_multiplicity
 _atom_site_fract_x
 _atom_site_fract_y
 _atom_site_fract_z
 _atom_site_fract_occupancy
 C  C1  1  0.25443  0.25443  0.25443  1
 C  C2  1  0.50000  0.50000  0.50000  1
 C  C3  1  0.74557  0.74557  0.74557  1
 V  V1  1  0.87724  0.87724  0.87724  1
 V  V2  1  0.12276  0.12276  0.12276  1
 V  V3  1  0.37474  0.37474  0.37474  1
 V  V4  1  0.62526  0.62526  0.62526  1
