CIF file written using JARVIS-Tools package.
data_Te2Ru
_symmetry_space_group_name_H-M  'Pnnm'
_cell_length_a       4.06063
_cell_length_b       5.37928
_cell_length_c       6.49083
_cell_angle_alpha    90
_cell_angle_beta     90
_cell_angle_gamma    90

_symmetry_Int_Tables_number  58
_chemical_formula_structural  Te2Ru
_chemical_formula_sum  Te4Ru2
_cell_volume  141.78095401695833
_cell_formula_units_Z  2
loop_
  _symmetry_equiv_pos_site_id
 _symmetry_equiv_pos_as_xyz
 1  'x, y, z'
loop_
 _atom_site_type_symbol
 _atom_site_label
 _atom_site_symmetry_multiplicity
 _atom_site_fract_x
 _atom_site_fract_y
 _atom_site_fract_z
 _atom_site_fract_occupancy
 Ru  Ru1  1  0.00000  0.00000  0.00000  1
 Ru  Ru2  1  0.50000  0.50000  0.50000  1
 Te  Te1  1  0.00000  0.22071  0.36596  1
 Te  Te2  1  0.00000  0.77929  0.63404  1
 Te  Te3  1  0.50000  0.72071  0.13404  1
 Te  Te4  1  0.50000  0.27929  0.86596  1
