CIF file written using JARVIS-Tools package.
data_Te2MoW3Se2S4
_symmetry_space_group_name_H-M  'P3m1'
_cell_length_a       3.30954
_cell_length_b       3.30955
_cell_length_c       40.7239
_cell_angle_alpha    89.9947
_cell_angle_beta     90
_cell_angle_gamma    120

_symmetry_Int_Tables_number  156
_chemical_formula_structural  Te2MoW3Se2S4
_chemical_formula_sum  Te2MoW3Se2S4
_cell_volume  386.292190685372
_cell_formula_units_Z  1
loop_
  _symmetry_equiv_pos_site_id
 _symmetry_equiv_pos_as_xyz
 1  'x, y, z'
loop_
 _atom_site_type_symbol
 _atom_site_label
 _atom_site_symmetry_multiplicity
 _atom_site_fract_x
 _atom_site_fract_y
 _atom_site_fract_z
 _atom_site_fract_occupancy
 Mo  Mo1  1  0.33332  0.66665  0.46815  1
 S  S1  1  0.33332  0.66663  0.31827  1
 S  S2  1  0.66675  0.33350  0.05639  1
 S  S3  1  0.66669  0.33339  0.13170  1
 S  S4  1  0.33337  0.66675  0.24288  1
 Se  Se1  1  0.33324  0.66649  0.70155  1
 Se  Se2  1  0.33331  0.66662  0.61876  1
 Te  Te1  1  0.66669  0.33338  0.42108  1
 Te  Te2  1  0.66662  0.33324  0.51518  1
 W  W1  1  0.33339  0.66678  0.09400  1
 W  W2  1  0.66668  0.33335  0.28057  1
 W  W3  1  0.66661  0.33322  0.66022  1
