CIF file written using JARVIS-Tools package.
data_BaHfN2
_symmetry_space_group_name_H-M  'P4/nmm'
_cell_length_a       4.14783
_cell_length_b       4.14783
_cell_length_c       8.41448
_cell_angle_alpha    90
_cell_angle_beta     90
_cell_angle_gamma    90

_symmetry_Int_Tables_number  129
_chemical_formula_structural  BaHfN2
_chemical_formula_sum  Ba2Hf2N4
_cell_volume  144.7671352545091
_cell_formula_units_Z  2
loop_
  _symmetry_equiv_pos_site_id
 _symmetry_equiv_pos_as_xyz
 1  'x, y, z'
loop_
 _atom_site_type_symbol
 _atom_site_label
 _atom_site_symmetry_multiplicity
 _atom_site_fract_x
 _atom_site_fract_y
 _atom_site_fract_z
 _atom_site_fract_occupancy
 Ba  Ba1  1  0.50000  0.00000  0.15275  1
 Ba  Ba2  1  0.00000  0.50000  0.84725  1
 Hf  Hf1  1  0.00000  0.50000  0.41498  1
 Hf  Hf2  1  0.50000  0.00000  0.58502  1
 N  N1  1  0.50000  0.00000  0.82106  1
 N  N2  1  0.00000  0.50000  0.17894  1
 N  N3  1  0.50000  0.50000  0.50000  1
 N  N4  1  0.00000  0.00000  0.50000  1
