CIF file written using JARVIS-Tools package.
data_LiSbO2
_symmetry_space_group_name_H-M  'C2/c'
_cell_length_a       5.58167
_cell_length_b       5.58167
_cell_length_c       5.31177
_cell_angle_alpha    66.1694
_cell_angle_beta     113.831
_cell_angle_gamma    77.4572

_symmetry_Int_Tables_number  15
_chemical_formula_structural  LiSbO2
_chemical_formula_sum  Li2Sb2O4
_cell_volume  123.33517125543469
_cell_formula_units_Z  2
loop_
  _symmetry_equiv_pos_site_id
 _symmetry_equiv_pos_as_xyz
 1  'x, y, z'
loop_
 _atom_site_type_symbol
 _atom_site_label
 _atom_site_symmetry_multiplicity
 _atom_site_fract_x
 _atom_site_fract_y
 _atom_site_fract_z
 _atom_site_fract_occupancy
 Li  Li1  1  0.45290  0.45290  0.75000  1
 Li  Li2  1  0.54710  0.54710  0.25000  1
 O  O1  1  0.26958  0.80488  0.76469  1
 O  O2  1  0.19512  0.73042  0.26469  1
 O  O3  1  0.80488  0.26958  0.73531  1
 O  O4  1  0.73042  0.19512  0.23531  1
 Sb  Sb1  1  0.89197  0.89197  0.75000  1
 Sb  Sb2  1  0.10803  0.10803  0.25000  1
