CIF file written using JARVIS-Tools package.
data_SrCa2I6
_symmetry_space_group_name_H-M  'P4_2/mnm'
_cell_length_a       7.46262
_cell_length_b       7.46262
_cell_length_c       14.1652
_cell_angle_alpha    90
_cell_angle_beta     90
_cell_angle_gamma    90

_symmetry_Int_Tables_number  136
_chemical_formula_structural  SrCa2I6
_chemical_formula_sum  Sr2Ca4I2
_cell_volume  788.8711834196866
_cell_formula_units_Z  2
loop_
  _symmetry_equiv_pos_site_id
 _symmetry_equiv_pos_as_xyz
 1  'x, y, z'
loop_
 _atom_site_type_symbol
 _atom_site_label
 _atom_site_symmetry_multiplicity
 _atom_site_fract_x
 _atom_site_fract_y
 _atom_site_fract_z
 _atom_site_fract_occupancy
 Ca  Ca1  1  0.00000  0.00000  0.33293  1
 Ca  Ca2  1  0.00000  0.00000  0.66707  1
 Ca  Ca3  1  0.50000  0.50000  0.16707  1
 Ca  Ca4  1  0.50000  0.50000  0.83293  1
 I  I1  1  0.70362  0.70362  0.67302  1
 I  I2  1  0.20362  0.79638  0.17302  1
 I  I3  1  0.20362  0.79638  0.82698  1
 I  I4  1  0.79638  0.20362  0.17302  1
 I  I5  1  0.30755  0.30755  0.00000  1
 I  I6  1  0.19245  0.80755  0.50000  1
 I  I7  1  0.79638  0.20362  0.82698  1
 I  I8  1  0.70362  0.70362  0.32698  1
 I  I9  1  0.29638  0.29638  0.32698  1
 I  I10  1  0.69245  0.69245  0.00000  1
 I  I11  1  0.80755  0.19245  0.50000  1
 I  I12  1  0.29638  0.29638  0.67302  1
 Sr  Sr1  1  0.50000  0.50000  0.50000  1
 Sr  Sr2  1  0.00000  0.00000  0.00000  1
