CIF file written using JARVIS-Tools package.
data_Te6MoW2
_symmetry_space_group_name_H-M  'P-6m2'
_cell_length_a       3.56917
_cell_length_b       3.5691
_cell_length_c       30.3241
_cell_angle_alpha    90
_cell_angle_beta     90
_cell_angle_gamma    120.001

_symmetry_Int_Tables_number  187
_chemical_formula_structural  Te6MoW2
_chemical_formula_sum  Te6MoW2
_cell_volume  334.5347952296685
_cell_formula_units_Z  1
loop_
  _symmetry_equiv_pos_site_id
 _symmetry_equiv_pos_as_xyz
 1  'x, y, z'
loop_
 _atom_site_type_symbol
 _atom_site_label
 _atom_site_symmetry_multiplicity
 _atom_site_fract_x
 _atom_site_fract_y
 _atom_site_fract_z
 _atom_site_fract_occupancy
 Mo  Mo1  1  0.66638  0.33277  0.34698  1
 Te  Te1  1  0.33306  0.66611  0.40672  1
 Te  Te2  1  0.66680  0.33361  0.05204  1
 Te  Te3  1  0.66678  0.33357  0.52209  1
 Te  Te4  1  0.66678  0.33357  0.17188  1
 Te  Te5  1  0.66680  0.33361  0.64192  1
 Te  Te6  1  0.33306  0.66611  0.28724  1
 W  W1  1  0.33347  0.66693  0.11190  1
 W  W2  1  0.33347  0.66693  0.58206  1
