CIF file written using JARVIS-Tools package.
data_U2Al3Os
_symmetry_space_group_name_H-M  'P6_3/mmc'
_cell_length_a       5.36318
_cell_length_b       5.36318
_cell_length_c       8.89843
_cell_angle_alpha    90
_cell_angle_beta     90
_cell_angle_gamma    120

_symmetry_Int_Tables_number  194
_chemical_formula_structural  U2Al3Os
_chemical_formula_sum  U4Al6Os2
_cell_volume  221.6604973293703
_cell_formula_units_Z  2
loop_
  _symmetry_equiv_pos_site_id
 _symmetry_equiv_pos_as_xyz
 1  'x, y, z'
loop_
 _atom_site_type_symbol
 _atom_site_label
 _atom_site_symmetry_multiplicity
 _atom_site_fract_x
 _atom_site_fract_y
 _atom_site_fract_z
 _atom_site_fract_occupancy
 Al  Al1  1  0.33145  0.16572  0.25000  1
 Al  Al2  1  0.16572  0.33145  0.75000  1
 Al  Al3  1  0.16572  0.83428  0.75000  1
 Al  Al4  1  0.83428  0.16572  0.25000  1
 Al  Al5  1  0.83428  0.66855  0.25000  1
 Al  Al6  1  0.66855  0.83428  0.75000  1
 Os  Os1  1  0.00000  0.00000  0.00000  1
 Os  Os2  1  0.00000  0.00000  0.50000  1
 U  U1  1  0.33333  0.66667  0.05245  1
 U  U2  1  0.66667  0.33333  0.55245  1
 U  U3  1  0.66667  0.33333  0.94755  1
 U  U4  1  0.33333  0.66667  0.44755  1
