CIF file written using JARVIS-Tools package.
data_Mg2Ag
_symmetry_space_group_name_H-M  'I4/mmm'
_cell_length_a       5.59933
_cell_length_b       5.59933
_cell_length_c       4.78757
_cell_angle_alpha    90
_cell_angle_beta     90
_cell_angle_gamma    129.387

_symmetry_Int_Tables_number  139
_chemical_formula_structural  Mg2Ag
_chemical_formula_sum  Mg4Ag2
_cell_volume  116.01065779776252
_cell_formula_units_Z  2
loop_
  _symmetry_equiv_pos_site_id
 _symmetry_equiv_pos_as_xyz
 1  'x, y, z'
loop_
 _atom_site_type_symbol
 _atom_site_label
 _atom_site_symmetry_multiplicity
 _atom_site_fract_x
 _atom_site_fract_y
 _atom_site_fract_z
 _atom_site_fract_occupancy
 Ag  Ag1  1  0.74970  0.74970  0.75000  1
 Ag  Ag2  1  0.25030  0.25030  0.25000  1
 Mg  Mg1  1  0.59717  0.90325  0.25000  1
 Mg  Mg2  1  0.09675  0.40283  0.75000  1
 Mg  Mg3  1  0.90325  0.59717  0.25000  1
 Mg  Mg4  1  0.40283  0.09675  0.75000  1
