CIF file written using JARVIS-Tools package.
data_FeSeCl7
_symmetry_space_group_name_H-M  'P1'
_cell_length_a       6.27671
_cell_length_b       8.1367
_cell_length_c       9.64876
_cell_angle_alpha    85.2778
_cell_angle_beta     77.5449
_cell_angle_gamma    82.9951

_symmetry_Int_Tables_number  1
_chemical_formula_structural  FeSeCl7
_chemical_formula_sum  Fe2Se2Cl4
_cell_volume  476.79123098816217
_cell_formula_units_Z  2
loop_
  _symmetry_equiv_pos_site_id
 _symmetry_equiv_pos_as_xyz
 1  'x, y, z'
loop_
 _atom_site_type_symbol
 _atom_site_label
 _atom_site_symmetry_multiplicity
 _atom_site_fract_x
 _atom_site_fract_y
 _atom_site_fract_z
 _atom_site_fract_occupancy
 Cl  Cl1  1  0.40849  0.04570  0.93536  1
 Cl  Cl2  1  0.92199  0.04859  0.43340  1
 Cl  Cl3  1  0.97936  0.93019  0.76450  1
 Cl  Cl4  1  0.31640  0.18047  0.57046  1
 Cl  Cl5  1  0.72447  0.34422  0.70881  1
 Cl  Cl6  1  0.54512  0.76754  0.65328  1
 Cl  Cl7  1  0.84183  0.18352  0.06951  1
 Cl  Cl8  1  0.48365  0.91185  0.28299  1
 Cl  Cl9  1  0.67734  0.48620  0.35846  1
 Cl  Cl10  1  0.06372  0.74741  0.12503  1
 Cl  Cl11  1  0.17981  0.48146  0.87103  1
 Cl  Cl12  1  0.66166  0.62692  -0.00363  1
 Cl  Cl13  1  0.10852  0.61446  0.50753  1
 Cl  Cl14  1  0.27755  0.33976  0.21526  1
 Fe  Fe1  1  0.76375  0.55365  0.55589  1
 Fe  Fe2  1  0.49576  0.12463  0.12158  1
 Se  Se1  1  0.18179  0.94833  0.54853  1
 Se  Se2  1  0.95237  0.51488  0.07732  1
