CIF file written using JARVIS-Tools package.
data_SbSCl9
_symmetry_space_group_name_H-M  'R-3m'
_cell_length_a       8.58606
_cell_length_b       8.58605
_cell_length_c       8.59414
_cell_angle_alpha    75.6803
_cell_angle_beta     75.6803
_cell_angle_gamma    75.7219

_symmetry_Int_Tables_number  166
_chemical_formula_structural  SbSCl9
_chemical_formula_sum  Sb2S2Cl8
_cell_volume  583.084813064224
_cell_formula_units_Z  2
loop_
  _symmetry_equiv_pos_site_id
 _symmetry_equiv_pos_as_xyz
 1  'x, y, z'
loop_
 _atom_site_type_symbol
 _atom_site_label
 _atom_site_symmetry_multiplicity
 _atom_site_fract_x
 _atom_site_fract_y
 _atom_site_fract_z
 _atom_site_fract_occupancy
 Cl  Cl1  1  0.34639  0.04657  0.34624  1
 Cl  Cl2  1  0.29339  0.96835  0.96839  1
 Cl  Cl3  1  0.03165  0.70661  0.03161  1
 Cl  Cl4  1  0.70661  0.03165  0.03161  1
 Cl  Cl5  1  0.96835  0.29339  0.96839  1
 Cl  Cl6  1  0.68525  0.35834  0.68542  1
 Cl  Cl7  1  0.64166  0.31475  0.31458  1
 Cl  Cl8  1  0.35834  0.68525  0.68542  1
 Cl  Cl9  1  0.31444  0.31444  0.64117  1
 Cl  Cl10  1  0.68556  0.68556  0.35883  1
 Cl  Cl11  1  0.31475  0.64166  0.31458  1
 Cl  Cl12  1  0.95343  0.65361  0.65376  1
 Cl  Cl13  1  0.65361  0.95343  0.65376  1
 Cl  Cl14  1  0.04657  0.34639  0.34624  1
 Cl  Cl15  1  0.34658  0.34658  0.04657  1
 Cl  Cl16  1  0.65342  0.65342  0.95343  1
 Cl  Cl17  1  0.96813  0.96813  0.29321  1
 Cl  Cl18  1  0.03187  0.03187  0.70679  1
 S  S1  1  0.29368  0.29368  0.29350  1
 S  S2  1  0.70632  0.70632  0.70650  1
 Sb  Sb1  1  0.50000  0.50000  0.50000  1
 Sb  Sb2  1  0.00000  0.00000  0.00000  1
