CIF file written using JARVIS-Tools package.
data_NaMnSe2
_symmetry_space_group_name_H-M  'P3m1'
_cell_length_a       3.9909
_cell_length_b       3.9909
_cell_length_c       7.14451
_cell_angle_alpha    90
_cell_angle_beta     90
_cell_angle_gamma    120

_symmetry_Int_Tables_number  156
_chemical_formula_structural  NaMnSe2
_chemical_formula_sum  NaMnSe2
_cell_volume  98.54728098472113
_cell_formula_units_Z  1
loop_
  _symmetry_equiv_pos_site_id
 _symmetry_equiv_pos_as_xyz
 1  'x, y, z'
loop_
 _atom_site_type_symbol
 _atom_site_label
 _atom_site_symmetry_multiplicity
 _atom_site_fract_x
 _atom_site_fract_y
 _atom_site_fract_z
 _atom_site_fract_occupancy
 Mn  Mn1  1  0.00000  0.00000  0.66527  1
 Na  Na1  1  0.66667  0.33333  0.22956  1
 Se  Se1  1  0.00000  0.00000  0.98479  1
 Se  Se2  1  0.33333  0.66667  0.51947  1
