CIF file written using JARVIS-Tools package.
data_YNi2O4
_symmetry_space_group_name_H-M  'Fd-3m'
_cell_length_a       6.13665
_cell_length_b       6.13664
_cell_length_c       6.13664
_cell_angle_alpha    60.0051
_cell_angle_beta     60.0052
_cell_angle_gamma    60.0051

_symmetry_Int_Tables_number  227
_chemical_formula_structural  YNi2O4
_chemical_formula_sum  Y2Ni4O8
_cell_volume  163.4289313772164
_cell_formula_units_Z  2
loop_
  _symmetry_equiv_pos_site_id
 _symmetry_equiv_pos_as_xyz
 1  'x, y, z'
loop_
 _atom_site_type_symbol
 _atom_site_label
 _atom_site_symmetry_multiplicity
 _atom_site_fract_x
 _atom_site_fract_y
 _atom_site_fract_z
 _atom_site_fract_occupancy
 Ni  Ni1  1  -0.00000  0.50000  0.00000  1
 Ni  Ni2  1  0.00000  0.00000  0.00000  1
 Ni  Ni3  1  0.50000  0.00000  -0.00000  1
 Ni  Ni4  1  -0.00000  -0.00000  0.50000  1
 O  O1  1  0.19829  0.76712  0.76712  1
 O  O2  1  0.23288  0.23288  0.80171  1
 O  O3  1  0.23288  0.80171  0.23288  1
 O  O4  1  0.23290  0.23290  0.23290  1
 O  O5  1  0.76712  0.76712  0.19829  1
 O  O6  1  0.80171  0.23288  0.23288  1
 O  O7  1  0.76712  0.19829  0.76712  1
 O  O8  1  0.76710  0.76710  0.76710  1
 Y  Y1  1  0.62490  0.62490  0.62490  1
 Y  Y2  1  0.37510  0.37510  0.37510  1
