CIF file written using JARVIS-Tools package.
data_TeW2Se3
_symmetry_space_group_name_H-M  'P3m1'
_cell_length_a       3.38486
_cell_length_b       3.38487
_cell_length_c       36.4119
_cell_angle_alpha    90.0004
_cell_angle_beta     90
_cell_angle_gamma    120

_symmetry_Int_Tables_number  156
_chemical_formula_structural  TeW2Se3
_chemical_formula_sum  Te2W4Se6
_cell_volume  361.29053507029863
_cell_formula_units_Z  2
loop_
  _symmetry_equiv_pos_site_id
 _symmetry_equiv_pos_as_xyz
 1  'x, y, z'
loop_
 _atom_site_type_symbol
 _atom_site_label
 _atom_site_symmetry_multiplicity
 _atom_site_fract_x
 _atom_site_fract_y
 _atom_site_fract_z
 _atom_site_fract_occupancy
 Se  Se1  1  0.33334  0.66667  0.32339  1
 Se  Se2  1  0.33336  0.66672  0.70486  1
 Se  Se3  1  0.66663  0.33326  0.05181  1
 Se  Se4  1  0.66668  0.33335  0.14305  1
 Se  Se5  1  0.33332  0.66664  0.23209  1
 Se  Se6  1  0.33333  0.66667  0.61361  1
 Te  Te1  1  0.66671  0.33340  0.41651  1
 Te  Te2  1  0.66664  0.33328  0.52050  1
 W  W1  1  0.33332  0.66664  0.09740  1
 W  W2  1  0.33334  0.66668  0.46851  1
 W  W3  1  0.66666  0.33332  0.27773  1
 W  W4  1  0.66668  0.33336  0.65928  1
