CIF file written using JARVIS-Tools package.
data_Na5Co2S5
_symmetry_space_group_name_H-M  'I4mm'
_cell_length_a       5.47566
_cell_length_b       7.12117
_cell_length_c       7.12116
_cell_angle_alpha    81.499
_cell_angle_beta     67.3885
_cell_angle_gamma    67.3885

_symmetry_Int_Tables_number  107
_chemical_formula_structural  Na5Co2S5
_chemical_formula_sum  Na5Co2S5
_cell_volume  236.62875657671867
_cell_formula_units_Z  1
loop_
  _symmetry_equiv_pos_site_id
 _symmetry_equiv_pos_as_xyz
 1  'x, y, z'
loop_
 _atom_site_type_symbol
 _atom_site_label
 _atom_site_symmetry_multiplicity
 _atom_site_fract_x
 _atom_site_fract_y
 _atom_site_fract_z
 _atom_site_fract_occupancy
 Co  Co1  1  0.72755  0.50000  0.50000  1
 Co  Co2  1  0.22754  0.50000  0.50000  1
 Na  Na1  1  0.16426  -0.00000  0.39276  1
 Na  Na2  1  0.55698  -0.00000  0.60724  1
 Na  Na3  1  0.55698  0.60724  -0.00000  1
 Na  Na4  1  0.16426  0.39276  -0.00000  1
 Na  Na5  1  0.93495  0.00000  0.00000  1
 S  S1  1  0.29331  0.68392  0.68392  1
 S  S2  1  0.66116  0.31608  0.31608  1
 S  S3  1  0.97723  0.68393  0.31608  1
 S  S4  1  0.44955  -0.00001  -0.00001  1
 S  S5  1  0.97723  0.31608  0.68393  1
