CIF file written using JARVIS-Tools package.
data_Ba2CaI6
_symmetry_space_group_name_H-M  'P-31m'
_cell_length_a       8.42033
_cell_length_b       8.42039
_cell_length_c       7.0735
_cell_angle_alpha    89.9977
_cell_angle_beta     90.0045
_cell_angle_gamma    120

_symmetry_Int_Tables_number  162
_chemical_formula_structural  Ba2CaI6
_chemical_formula_sum  Ba2CaI6
_cell_volume  434.3375276894007
_cell_formula_units_Z  1
loop_
  _symmetry_equiv_pos_site_id
 _symmetry_equiv_pos_as_xyz
 1  'x, y, z'
loop_
 _atom_site_type_symbol
 _atom_site_label
 _atom_site_symmetry_multiplicity
 _atom_site_fract_x
 _atom_site_fract_y
 _atom_site_fract_z
 _atom_site_fract_occupancy
 Ba  Ba1  1  0.33330  0.66667  0.50001  1
 Ba  Ba2  1  0.66663  0.33333  0.50001  1
 Ca  Ca1  1  -0.00001  0.00000  0.00001  1
 I  I1  1  0.99997  0.68167  0.76685  1
 I  I2  1  0.99997  0.31829  0.23319  1
 I  I3  1  0.31830  0.31833  0.76685  1
 I  I4  1  0.68168  0.68171  0.23319  1
 I  I5  1  0.31836  0.00000  0.23309  1
 I  I6  1  0.68171  -0.00000  0.76680  1
