CIF file written using JARVIS-Tools package.
data_H9C5
_symmetry_space_group_name_H-M  'P2_1/c'
_cell_length_a       11.5205
_cell_length_b       4.74846
_cell_length_c       8.4453
_cell_angle_alpha    90
_cell_angle_beta     106.826
_cell_angle_gamma    90

_symmetry_Int_Tables_number  14
_chemical_formula_structural  H9C5
_chemical_formula_sum  H36C20
_cell_volume  442.2158433421671
_cell_formula_units_Z  4
loop_
  _symmetry_equiv_pos_site_id
 _symmetry_equiv_pos_as_xyz
 1  'x, y, z'
loop_
 _atom_site_type_symbol
 _atom_site_label
 _atom_site_symmetry_multiplicity
 _atom_site_fract_x
 _atom_site_fract_y
 _atom_site_fract_z
 _atom_site_fract_occupancy
 C  C1  1  0.93721  0.56305  0.99050  1
 C  C2  1  0.25225  0.43732  0.90891  1
 C  C3  1  0.93721  0.93695  0.49050  1
 C  C4  1  0.87436  0.43725  0.11076  1
 C  C5  1  0.12564  0.56275  0.88924  1
 C  C6  1  0.12564  0.93725  0.38924  1
 C  C7  1  0.74775  0.56268  0.09109  1
 C  C8  1  0.06279  0.06305  0.50950  1
 C  C9  1  0.25225  0.06268  0.40891  1
 C  C10  1  0.87436  0.06275  0.61076  1
 C  C11  1  0.68506  0.42266  0.20291  1
 C  C12  1  0.41309  0.75995  0.34972  1
 C  C13  1  0.58691  0.24005  0.65028  1
 C  C14  1  0.41309  0.74005  0.84972  1
 C  C15  1  0.58691  0.25995  0.15028  1
 C  C16  1  0.06279  0.43695  0.00950  1
 C  C17  1  0.31494  0.92266  0.29709  1
 C  C18  1  0.31494  0.57734  0.79709  1
 C  C19  1  0.68506  0.07734  0.70291  1
 C  C20  1  0.74775  0.93732  0.59109  1
 H  H1  1  0.45611  0.72688  0.48151  1
 H  H2  1  0.69216  0.54177  0.96145  1
 H  H3  1  0.30784  0.45823  0.03855  1
 H  H4  1  0.30784  0.04177  0.53855  1
 H  H5  1  0.69216  0.95823  0.46145  1
 H  H6  1  0.72585  0.45422  0.33598  1
 H  H7  1  0.27415  0.54578  0.66402  1
 H  H8  1  0.27415  0.95422  0.16402  1
 H  H9  1  0.54478  0.34334  0.73487  1
 H  H10  1  0.45611  0.77312  0.98151  1
 H  H11  1  0.86545  0.29245  0.59119  1
 H  H12  1  0.13455  0.70755  0.40881  1
 H  H13  1  0.13455  0.79245  0.90881  1
 H  H14  1  0.86545  0.20755  0.09119  1
 H  H15  1  0.93167  0.03263  0.73904  1
 H  H16  1  0.06833  0.96737  0.26096  1
 H  H17  1  0.06833  0.53263  0.76096  1
 H  H18  1  0.87925  0.96904  0.36271  1
 H  H19  1  0.12075  0.03096  0.63729  1
 H  H20  1  0.12075  0.46904  0.13729  1
 H  H21  1  0.87925  0.53096  0.86271  1
 H  H22  1  0.54389  0.22688  0.01849  1
 H  H23  1  0.94561  0.70679  0.50905  1
 H  H24  1  0.05439  0.20679  0.99095  1
 H  H25  1  0.94561  0.79321  0.00905  1
 H  H26  1  0.75683  0.79043  0.11845  1
 H  H27  1  0.24317  0.20957  0.88155  1
 H  H28  1  0.93167  0.46737  0.23904  1
 H  H29  1  0.75683  0.70957  0.61845  1
 H  H30  1  0.24317  0.29043  0.38155  1
 H  H31  1  0.45522  0.65666  0.26513  1
 H  H32  1  0.45522  0.84334  0.76513  1
 H  H33  1  0.54478  0.15666  0.23487  1
 H  H34  1  0.54389  0.27312  0.51849  1
 H  H35  1  0.05439  0.29321  0.49095  1
 H  H36  1  0.72585  0.04578  0.83598  1
