CIF file written using JARVIS-Tools package.
data_ThNF
_symmetry_space_group_name_H-M  'R-3m'
_cell_length_a       7.17505
_cell_length_b       7.17506
_cell_length_c       7.17504
_cell_angle_alpha    32.5587
_cell_angle_beta     32.5587
_cell_angle_gamma    32.5587

_symmetry_Int_Tables_number  166
_chemical_formula_structural  ThNF
_chemical_formula_sum  Th2N2F2
_cell_volume  95.13519698681993
_cell_formula_units_Z  2
loop_
  _symmetry_equiv_pos_site_id
 _symmetry_equiv_pos_as_xyz
 1  'x, y, z'
loop_
 _atom_site_type_symbol
 _atom_site_label
 _atom_site_symmetry_multiplicity
 _atom_site_fract_x
 _atom_site_fract_y
 _atom_site_fract_z
 _atom_site_fract_occupancy
 F  F1  1  0.13237  0.13237  0.13237  1
 F  F2  1  0.86763  0.86763  0.86763  1
 N  N1  1  0.62179  0.62179  0.62179  1
 N  N2  1  0.37821  0.37821  0.37821  1
 Th  Th1  1  0.73892  0.73892  0.73892  1
 Th  Th2  1  0.26108  0.26108  0.26108  1
