CIF file written using JARVIS-Tools package.
data_TlGaTe2
_symmetry_space_group_name_H-M  'I4/mcm'
_cell_length_a       6.92136
_cell_length_b       6.95674
_cell_length_c       6.95674
_cell_angle_alpha    75.6725
_cell_angle_beta     60.1682
_cell_angle_gamma    60.1681

_symmetry_Int_Tables_number  140
_chemical_formula_structural  TlGaTe2
_chemical_formula_sum  Tl2Ga2Te4
_cell_volume  252.07505875366917
_cell_formula_units_Z  2
loop_
  _symmetry_equiv_pos_site_id
 _symmetry_equiv_pos_as_xyz
 1  'x, y, z'
loop_
 _atom_site_type_symbol
 _atom_site_label
 _atom_site_symmetry_multiplicity
 _atom_site_fract_x
 _atom_site_fract_y
 _atom_site_fract_z
 _atom_site_fract_occupancy
 Ga  Ga1  1  0.25000  0.50000  0.50000  1
 Ga  Ga2  1  0.75000  0.50000  0.50000  1
 Te  Te1  1  0.17033  0.50000  0.15934  1
 Te  Te2  1  0.32967  0.84066  0.50000  1
 Te  Te3  1  0.67033  0.15934  0.50000  1
 Te  Te4  1  0.82967  0.50000  0.84066  1
 Tl  Tl1  1  0.25000  0.00000  0.00000  1
 Tl  Tl2  1  0.75000  0.00000  0.00000  1
