CIF file written using JARVIS-Tools package.
data_Li4NbTe3O12
_symmetry_space_group_name_H-M  'P2'
_cell_length_a       4.96537
_cell_length_b       9.00451
_cell_length_c       5.31125
_cell_angle_alpha    90
_cell_angle_beta     91.6862
_cell_angle_gamma    90

_symmetry_Int_Tables_number  3
_chemical_formula_structural  Li4NbTe3O12
_chemical_formula_sum  Li4NbTe3O2
_cell_volume  237.36704307557042
_cell_formula_units_Z  1
loop_
  _symmetry_equiv_pos_site_id
 _symmetry_equiv_pos_as_xyz
 1  'x, y, z'
loop_
 _atom_site_type_symbol
 _atom_site_label
 _atom_site_symmetry_multiplicity
 _atom_site_fract_x
 _atom_site_fract_y
 _atom_site_fract_z
 _atom_site_fract_occupancy
 Li  Li1  1  0.00000  0.31685  0.00000  1
 Li  Li2  1  0.50000  0.15666  -0.00000  1
 Li  Li3  1  -0.00000  0.69226  0.50000  1
 Li  Li4  1  0.50000  0.81372  0.50000  1
 Nb  Nb1  1  0.00000  0.89778  0.00000  1
 O  O1  1  0.26539  0.74082  0.15025  1
 O  O2  1  0.71844  0.43675  0.84817  1
 O  O3  1  0.21851  0.05818  0.17850  1
 O  O4  1  0.70656  0.57976  0.32153  1
 O  O5  1  0.28156  0.43675  0.15183  1
 O  O6  1  0.77557  0.23441  0.31053  1
 O  O7  1  0.29344  0.57976  0.67847  1
 O  O8  1  0.20148  0.90093  0.67893  1
 O  O9  1  0.79852  0.90093  0.32107  1
 O  O10  1  0.78149  0.05818  0.82150  1
 O  O11  1  0.22443  0.23441  0.68947  1
 O  O12  1  0.73461  0.74082  0.84975  1
 Te  Te1  1  0.50000  0.39969  0.50000  1
 Te  Te2  1  -0.00000  0.08611  0.50000  1
 Te  Te3  1  0.50000  0.59416  -0.00000  1
