CIF file written using JARVIS-Tools package.
data_V2CoO6
_symmetry_space_group_name_H-M  'C2/m'
_cell_length_a       3.45726
_cell_length_b       4.98914
_cell_length_c       6.66923
_cell_angle_alpha    109.334
_cell_angle_beta     90.0016
_cell_angle_gamma    110.272

_symmetry_Int_Tables_number  12
_chemical_formula_structural  V2CoO6
_chemical_formula_sum  V2CoO6
_cell_volume  100.96600461573615
_cell_formula_units_Z  1
loop_
  _symmetry_equiv_pos_site_id
 _symmetry_equiv_pos_as_xyz
 1  'x, y, z'
loop_
 _atom_site_type_symbol
 _atom_site_label
 _atom_site_symmetry_multiplicity
 _atom_site_fract_x
 _atom_site_fract_y
 _atom_site_fract_z
 _atom_site_fract_occupancy
 Co  Co1  1  0.00000  0.00000  0.00000  1
 O  O1  1  0.68759  0.37516  0.56037  1
 O  O2  1  0.04134  0.08269  0.74006  1
 O  O3  1  0.95866  0.91731  0.25994  1
 O  O4  1  0.31241  0.62484  0.43963  1
 O  O5  1  0.35341  0.70674  0.89209  1
 O  O6  1  0.64659  0.29326  0.10791  1
 V  V1  1  0.80281  0.60564  0.33658  1
 V  V2  1  0.19719  0.39436  0.66342  1
