CIF file written using JARVIS-Tools package.
data_InTeI
_symmetry_space_group_name_H-M  'P2_1/c'
_cell_length_a       8.53792
_cell_length_b       7.78365
_cell_length_c       8.02937
_cell_angle_alpha    90
_cell_angle_beta     117.435
_cell_angle_gamma    90

_symmetry_Int_Tables_number  14
_chemical_formula_structural  InTeI
_chemical_formula_sum  In4Te4I4
_cell_volume  473.58964905018576
_cell_formula_units_Z  4
loop_
  _symmetry_equiv_pos_site_id
 _symmetry_equiv_pos_as_xyz
 1  'x, y, z'
loop_
 _atom_site_type_symbol
 _atom_site_label
 _atom_site_symmetry_multiplicity
 _atom_site_fract_x
 _atom_site_fract_y
 _atom_site_fract_z
 _atom_site_fract_occupancy
 I  I1  1  0.39571  0.60535  0.66084  1
 I  I2  1  0.10429  0.10535  0.33916  1
 I  I3  1  0.60429  0.39465  0.33916  1
 I  I4  1  0.89571  0.89465  0.66084  1
 In  In1  1  0.61216  0.80309  0.96853  1
 In  In2  1  0.88784  0.30309  0.03147  1
 In  In3  1  0.38784  0.19691  0.03147  1
 In  In4  1  0.11216  0.69691  0.96853  1
 Te  Te1  1  0.93696  0.63767  0.19784  1
 Te  Te2  1  0.56304  0.13767  0.80216  1
 Te  Te3  1  0.06304  0.36233  0.80216  1
 Te  Te4  1  0.43696  0.86233  0.19784  1
