CIF file written using JARVIS-Tools package.
data_K3ZnH5
_symmetry_space_group_name_H-M  'I4/mcm'
_cell_length_a       7.66537
_cell_length_b       7.66537
_cell_length_c       7.66537
_cell_angle_alpha    122.038
_cell_angle_beta     122.038
_cell_angle_gamma    86.5042

_symmetry_Int_Tables_number  140
_chemical_formula_structural  K3ZnH5
_chemical_formula_sum  K6Zn2H0
_cell_volume  308.04489495515526
_cell_formula_units_Z  2
loop_
  _symmetry_equiv_pos_site_id
 _symmetry_equiv_pos_as_xyz
 1  'x, y, z'
loop_
 _atom_site_type_symbol
 _atom_site_label
 _atom_site_symmetry_multiplicity
 _atom_site_fract_x
 _atom_site_fract_y
 _atom_site_fract_z
 _atom_site_fract_occupancy
 H  H1  1  0.28853  0.53348  0.50000  1
 H  H2  1  0.50000  0.50000  0.00000  1
 H  H3  1  0.21147  0.71147  0.24495  1
 H  H4  1  0.96652  0.21147  0.50000  1
 H  H5  1  0.46652  0.96652  0.75505  1
 H  H6  1  0.53348  0.03348  0.24495  1
 H  H7  1  0.78853  0.28853  0.75505  1
 H  H8  1  0.03348  0.78853  0.50000  1
 H  H9  1  0.00000  0.00000  0.00000  1
 H  H10  1  0.71147  0.46652  0.50000  1
 K  K1  1  0.75000  0.75000  0.00000  1
 K  K2  1  0.25000  0.25000  0.00000  1
 K  K3  1  0.32114  0.17886  0.50000  1
 K  K4  1  0.67886  0.82114  0.50000  1
 K  K5  1  0.82114  0.32114  0.14227  1
 K  K6  1  0.17886  0.67886  0.85773  1
 Zn  Zn1  1  0.75000  0.25000  0.50000  1
 Zn  Zn2  1  0.25000  0.75000  0.50000  1
