CIF file written using JARVIS-Tools package.
data_H5C7NO
_symmetry_space_group_name_H-M  'P1'
_cell_length_a       5.07374
_cell_length_b       5.03614
_cell_length_c       9.76565
_cell_angle_alpha    85.3146
_cell_angle_beta     84.351
_cell_angle_gamma    90.0347

_symmetry_Int_Tables_number  1
_chemical_formula_structural  H5C7NO
_chemical_formula_sum  H0C4N2O2
_cell_volume  247.4810259116958
_cell_formula_units_Z  2
loop_
  _symmetry_equiv_pos_site_id
 _symmetry_equiv_pos_as_xyz
 1  'x, y, z'
loop_
 _atom_site_type_symbol
 _atom_site_label
 _atom_site_symmetry_multiplicity
 _atom_site_fract_x
 _atom_site_fract_y
 _atom_site_fract_z
 _atom_site_fract_occupancy
 C  C1  1  0.68635  0.84824  0.73872  1
 C  C2  1  0.68548  0.45035  0.48296  1
 C  C3  1  0.76847  0.00614  0.10637  1
 C  C4  1  0.74483  0.80101  0.21291  1
 C  C5  1  0.53233  0.79997  0.31582  1
 C  C6  1  0.36997  0.20495  0.20505  1
 C  C7  1  0.58269  0.21199  0.10326  1
 C  C8  1  0.34223  0.00119  0.31043  1
 C  C9  1  0.59344  0.25417  0.60140  1
 C  C10  1  0.30886  0.11670  0.81020  1
 C  C11  1  0.37148  0.29566  0.69381  1
 C  C12  1  0.09078  0.18956  0.91454  1
 C  C13  1  0.75185  0.03059  0.62586  1
 C  C14  1  0.46599  0.89100  0.83106  1
 H  H1  1  0.60299  0.37054  0.02090  1
 H  H2  1  0.30005  0.55063  0.45790  1
 H  H3  1  0.22182  0.36114  0.20226  1
 H  H4  1  0.17429  -0.00151  0.38868  1
 H  H5  1  0.88953  0.64271  0.21478  1
 H  H6  1  0.42343  0.75181  0.92180  1
 H  H7  1  0.24990  0.47221  0.68077  1
 H  H8  1  0.92763  0.00246  0.55567  1
 H  H9  1  0.81043  0.67562  0.75817  1
 H  H10  1  0.03254  0.79576  0.98198  1
 N  N1  1  0.97672  0.98610  0.00025  1
 N  N2  1  0.49421  0.59722  0.42526  1
 O  O1  1  0.02521  0.42786  0.92224  1
 O  O2  1  0.92692  0.47624  0.44339  1
