CIF file written using JARVIS-Tools package.
data_MoBr2
_symmetry_space_group_name_H-M  'Cmce'
_cell_length_a       9.43576
_cell_length_b       9.43577
_cell_length_c       11.8646
_cell_angle_alpha    90
_cell_angle_beta     90
_cell_angle_gamma    102.153

_symmetry_Int_Tables_number  64
_chemical_formula_structural  MoBr2
_chemical_formula_sum  Mo2Br24
_cell_volume  1032.6729843198807
_cell_formula_units_Z  12
loop_
  _symmetry_equiv_pos_site_id
 _symmetry_equiv_pos_as_xyz
 1  'x, y, z'
loop_
 _atom_site_type_symbol
 _atom_site_label
 _atom_site_symmetry_multiplicity
 _atom_site_fract_x
 _atom_site_fract_y
 _atom_site_fract_z
 _atom_site_fract_occupancy
 Br  Br1  1  0.95206  0.20383  0.20788  1
 Br  Br2  1  0.85390  0.85390  0.35385  1
 Br  Br3  1  0.14610  0.14610  0.64615  1
 Br  Br4  1  0.35390  0.35390  0.14615  1
 Br  Br5  1  0.80182  0.19818  0.50000  1
 Br  Br6  1  0.69818  0.30182  0.00000  1
 Br  Br7  1  0.19818  0.80182  0.50000  1
 Br  Br8  1  0.04794  0.79617  0.79212  1
 Br  Br9  1  0.79617  0.04794  0.79212  1
 Br  Br10  1  0.41864  0.16554  0.42216  1
 Br  Br11  1  0.83446  0.58136  0.57784  1
 Br  Br12  1  0.66554  0.91864  0.07784  1
 Br  Br13  1  0.20383  0.95206  0.20788  1
 Br  Br14  1  0.29617  0.54794  0.70788  1
 Br  Br15  1  0.45206  0.70383  0.29212  1
 Br  Br16  1  0.30182  0.69818  0.00000  1
 Br  Br17  1  0.64610  0.64610  0.85385  1
 Br  Br18  1  0.70383  0.45206  0.29212  1
 Br  Br19  1  0.33446  0.08136  0.92216  1
 Br  Br20  1  0.16554  0.41864  0.42216  1
 Br  Br21  1  0.58136  0.83446  0.57784  1
 Br  Br22  1  0.91864  0.66554  0.07784  1
 Br  Br23  1  0.54794  0.29617  0.70788  1
 Br  Br24  1  0.08136  0.33446  0.92216  1
 Mo  Mo1  1  0.06558  0.06558  0.85703  1
 Mo  Mo2  1  0.43442  0.43442  0.35703  1
 Mo  Mo3  1  0.93442  0.93442  0.14297  1
 Mo  Mo4  1  0.85686  0.85686  0.93468  1
 Mo  Mo5  1  0.56558  0.56558  0.64297  1
 Mo  Mo6  1  0.62731  0.37269  0.50000  1
 Mo  Mo7  1  0.14314  0.14314  0.06532  1
 Mo  Mo8  1  0.87269  0.12731  0.00000  1
 Mo  Mo9  1  0.64314  0.64314  0.43468  1
 Mo  Mo10  1  0.37269  0.62731  0.50000  1
 Mo  Mo11  1  0.35686  0.35686  0.56532  1
 Mo  Mo12  1  0.12731  0.87269  0.00000  1
