CIF file written using JARVIS-Tools package.
data_CuSe3Br
_symmetry_space_group_name_H-M  'Pmna'
_cell_length_a       4.59306
_cell_length_b       7.68329
_cell_length_c       14.5261
_cell_angle_alpha    90
_cell_angle_beta     90
_cell_angle_gamma    90

_symmetry_Int_Tables_number  53
_chemical_formula_structural  CuSe3Br
_chemical_formula_sum  Cu4Se2Br4
_cell_volume  512.6225609366116
_cell_formula_units_Z  4
loop_
  _symmetry_equiv_pos_site_id
 _symmetry_equiv_pos_as_xyz
 1  'x, y, z'
loop_
 _atom_site_type_symbol
 _atom_site_label
 _atom_site_symmetry_multiplicity
 _atom_site_fract_x
 _atom_site_fract_y
 _atom_site_fract_z
 _atom_site_fract_occupancy
 Br  Br1  1  0.50000  0.50000  0.69293  1
 Br  Br2  1  0.50000  0.50000  0.32221  1
 Br  Br3  1  0.50000  0.00000  0.19293  1
 Br  Br4  1  0.50000  0.00000  0.82221  1
 Cu  Cu1  1  0.80236  0.75002  0.75752  1
 Cu  Cu2  1  0.80236  0.74998  0.25752  1
 Cu  Cu3  1  0.19764  0.25002  0.25752  1
 Cu  Cu4  1  0.19764  0.24998  0.75752  1
 Se  Se1  1  0.09911  0.64933  0.88225  1
 Se  Se2  1  0.09911  0.85067  0.38225  1
 Se  Se3  1  0.90089  0.35067  0.88225  1
 Se  Se4  1  0.16817  0.27341  0.50755  1
 Se  Se5  1  0.83183  0.77341  0.00755  1
 Se  Se6  1  0.16817  0.22659  0.00755  1
 Se  Se7  1  0.83183  0.72659  0.50755  1
 Se  Se8  1  0.09915  0.85068  0.63285  1
 Se  Se9  1  0.90085  0.14932  0.63285  1
 Se  Se10  1  0.09915  0.64932  0.13285  1
 Se  Se11  1  0.90085  0.35068  0.13285  1
 Se  Se12  1  0.90089  0.14933  0.38225  1
