CIF file written using JARVIS-Tools package.
data_GaCuCl4
_symmetry_space_group_name_H-M  'P-42c'
_cell_length_a       5.3027
_cell_length_b       5.3027
_cell_length_c       10.3436
_cell_angle_alpha    90
_cell_angle_beta     90
_cell_angle_gamma    90

_symmetry_Int_Tables_number  112
_chemical_formula_structural  GaCuCl4
_chemical_formula_sum  Ga2Cu2Cl8
_cell_volume  290.84801495037306
_cell_formula_units_Z  2
loop_
  _symmetry_equiv_pos_site_id
 _symmetry_equiv_pos_as_xyz
 1  'x, y, z'
loop_
 _atom_site_type_symbol
 _atom_site_label
 _atom_site_symmetry_multiplicity
 _atom_site_fract_x
 _atom_site_fract_y
 _atom_site_fract_z
 _atom_site_fract_occupancy
 Cl  Cl1  1  0.26355  0.75096  0.62757  1
 Cl  Cl2  1  0.75096  0.73645  0.37243  1
 Cl  Cl3  1  0.24904  0.26355  0.37243  1
 Cl  Cl4  1  0.73645  0.75096  0.87243  1
 Cl  Cl5  1  0.26355  0.24904  0.87243  1
 Cl  Cl6  1  0.73645  0.24904  0.62757  1
 Cl  Cl7  1  0.75096  0.26355  0.12757  1
 Cl  Cl8  1  0.24904  0.73645  0.12757  1
 Cu  Cu1  1  0.00000  0.00000  0.50000  1
 Cu  Cu2  1  0.00000  0.00000  0.00000  1
 Ga  Ga1  1  0.50000  0.00000  0.75000  1
 Ga  Ga2  1  0.00000  0.50000  0.25000  1
