CIF file written using JARVIS-Tools package.
data_AlVF5
_symmetry_space_group_name_H-M  'Immm'
_cell_length_a       5.23109
_cell_length_b       5.2311
_cell_length_c       5.2311
_cell_angle_alpha    140.217
_cell_angle_beta     107.064
_cell_angle_gamma    86.4505

_symmetry_Int_Tables_number  71
_chemical_formula_structural  AlVF5
_chemical_formula_sum  AlVF5
_cell_volume  84.37505418978411
_cell_formula_units_Z  1
loop_
  _symmetry_equiv_pos_site_id
 _symmetry_equiv_pos_as_xyz
 1  'x, y, z'
loop_
 _atom_site_type_symbol
 _atom_site_label
 _atom_site_symmetry_multiplicity
 _atom_site_fract_x
 _atom_site_fract_y
 _atom_site_fract_z
 _atom_site_fract_occupancy
 Al  Al1  1  0.50000  0.50000  -0.00000  1
 F  F1  1  0.79852  0.50000  0.29852  1
 F  F2  1  0.20148  0.50000  0.70148  1
 F  F3  1  0.26579  0.26579  -0.00000  1
 F  F4  1  0.73421  0.73421  -0.00000  1
 F  F5  1  0.50000  0.00000  0.50000  1
 V  V1  1  0.00000  0.00000  0.00000  1
