CIF file written using JARVIS-Tools package.
data_Mg2TiIrO6
_symmetry_space_group_name_H-M  'P2_1/c'
_cell_length_a       5.14257
_cell_length_b       5.31234
_cell_length_c       9.09048
_cell_angle_alpha    90
_cell_angle_beta     124.355
_cell_angle_gamma    90

_symmetry_Int_Tables_number  14
_chemical_formula_structural  Mg2TiIrO6
_chemical_formula_sum  Mg4Ti2Ir2O2
_cell_volume  205.02168810125764
_cell_formula_units_Z  2
loop_
  _symmetry_equiv_pos_site_id
 _symmetry_equiv_pos_as_xyz
 1  'x, y, z'
loop_
 _atom_site_type_symbol
 _atom_site_label
 _atom_site_symmetry_multiplicity
 _atom_site_fract_x
 _atom_site_fract_y
 _atom_site_fract_z
 _atom_site_fract_occupancy
 Ir  Ir1  1  0.50000  0.50000  0.50000  1
 Ir  Ir2  1  0.50000  0.00000  0.00000  1
 Mg  Mg1  1  0.24786  0.94529  0.25335  1
 Mg  Mg2  1  0.75214  0.44529  0.24665  1
 Mg  Mg3  1  0.24786  0.55471  0.75335  1
 Mg  Mg4  1  0.75214  0.05471  0.74665  1
 O  O1  1  0.62247  0.43041  0.75234  1
 O  O2  1  0.74314  0.82151  0.56285  1
 O  O3  1  0.25686  0.17849  0.43715  1
 O  O4  1  0.74314  0.67849  0.06285  1
 O  O5  1  0.89734  0.18737  0.07165  1
 O  O6  1  0.37753  0.93041  0.74766  1
 O  O7  1  0.25686  0.32151  0.93715  1
 O  O8  1  0.89734  0.31263  0.57165  1
 O  O9  1  0.10266  0.68737  0.42835  1
 O  O10  1  0.10266  0.81263  0.92835  1
 O  O11  1  0.62247  0.06959  0.25234  1
 O  O12  1  0.37753  0.56959  0.24766  1
 Ti  Ti1  1  0.00000  0.00000  0.50000  1
 Ti  Ti2  1  0.00000  0.50000  0.00000  1
