data_image0
_chemical_formula_structural       PtSb2Zr6
_chemical_formula_sum              "Pt1 Sb2 Zr6"
_cell_length_a       7.85154
_cell_length_b       7.85154
_cell_length_c       3.71728
_cell_angle_alpha    90
_cell_angle_beta     90
_cell_angle_gamma    120.002

_space_group_name_H-M_alt    "P 1"
_space_group_IT_number       1

loop_
  _space_group_symop_operation_xyz
  'x, y, z'

loop_
  _atom_site_type_symbol
  _atom_site_label
  _atom_site_symmetry_multiplicity
  _atom_site_fract_x
  _atom_site_fract_y
  _atom_site_fract_z
  _atom_site_occupancy
  Pt  Pt1       1.0  0.00000  0.00000  0.00000  1.0000
  Sb  Sb1       1.0  0.66700  0.33300  0.50000  1.0000
  Sb  Sb2       1.0  0.33300  0.66700  0.50000  1.0000
  Zr  Zr1       1.0  0.59600  0.00001  0.00000  1.0000
  Zr  Zr2       1.0  0.40400  0.40400  0.00000  1.0000
  Zr  Zr3       1.0  0.00000  0.59600  0.00000  1.0000
  Zr  Zr4       1.0  0.25200  0.00001  0.50000  1.0000
  Zr  Zr5       1.0  0.00001  0.25200  0.50000  1.0000
  Zr  Zr6       1.0  0.74800  0.74800  0.50000  1.0000
