CIF file written using JARVIS-Tools package.
data_LiAgF4
_symmetry_space_group_name_H-M  'P2_1/c'
_cell_length_a       5.94154
_cell_length_b       4.83591
_cell_length_c       6.38117
_cell_angle_alpha    90
_cell_angle_beta     121.735
_cell_angle_gamma    90

_symmetry_Int_Tables_number  14
_chemical_formula_structural  LiAgF4
_chemical_formula_sum  Li2Ag2F8
_cell_volume  155.9358342366145
_cell_formula_units_Z  2
loop_
  _symmetry_equiv_pos_site_id
 _symmetry_equiv_pos_as_xyz
 1  'x, y, z'
loop_
 _atom_site_type_symbol
 _atom_site_label
 _atom_site_symmetry_multiplicity
 _atom_site_fract_x
 _atom_site_fract_y
 _atom_site_fract_z
 _atom_site_fract_occupancy
 Ag  Ag1  1  0.00000  0.00000  0.00000  1
 Ag  Ag2  1  0.00000  0.50000  0.50000  1
 F  F1  1  0.32411  0.22415  0.15575  1
 F  F2  1  0.67589  0.72415  0.34425  1
 F  F3  1  0.82025  0.20876  0.69120  1
 F  F4  1  0.17975  0.70876  0.80880  1
 F  F5  1  0.82025  0.29124  0.19120  1
 F  F6  1  0.17975  0.79124  0.30880  1
 F  F7  1  0.32411  0.27585  0.65575  1
 F  F8  1  0.67589  0.77585  0.84425  1
 Li  Li1  1  0.50000  0.00000  0.50000  1
 Li  Li2  1  0.50000  0.50000  -0.00000  1
