CIF file written using JARVIS-Tools package.
data_Li2HfO3
_symmetry_space_group_name_H-M  'C2/c'
_cell_length_a       5.2318
_cell_length_b       5.2318
_cell_length_c       5.36317
_cell_angle_alpha    78.8745
_cell_angle_beta     101.126
_cell_angle_gamma    61.6398

_symmetry_Int_Tables_number  15
_chemical_formula_structural  Li2HfO3
_chemical_formula_sum  Li4Hf2O6
_cell_volume  119.66876878483865
_cell_formula_units_Z  2
loop_
  _symmetry_equiv_pos_site_id
 _symmetry_equiv_pos_as_xyz
 1  'x, y, z'
loop_
 _atom_site_type_symbol
 _atom_site_label
 _atom_site_symmetry_multiplicity
 _atom_site_fract_x
 _atom_site_fract_y
 _atom_site_fract_z
 _atom_site_fract_occupancy
 Hf  Hf1  1  0.90014  0.91717  0.49120  1
 Hf  Hf2  1  0.08283  0.09986  0.99120  1
 Li  Li1  1  0.56626  0.58382  0.49168  1
 Li  Li2  1  0.25082  0.26775  0.49120  1
 Li  Li3  1  0.41618  0.43374  0.99168  1
 Li  Li4  1  0.73225  0.74918  0.99120  1
 O  O1  1  0.29777  0.85378  0.75398  1
 O  O2  1  0.14622  0.70223  0.25398  1
 O  O3  1  0.99142  0.50856  0.74127  1
 O  O4  1  0.68536  0.16309  0.72848  1
 O  O5  1  0.49144  0.00858  0.24127  1
 O  O6  1  0.83691  0.31464  0.22848  1
