CIF file written using JARVIS-Tools package.
data_Ca4As2O
_symmetry_space_group_name_H-M  'I4/mmm'
_cell_length_a       4.53916
_cell_length_b       4.53917
_cell_length_c       8.32483
_cell_angle_alpha    105.821
_cell_angle_beta     105.821
_cell_angle_gamma    90

_symmetry_Int_Tables_number  139
_chemical_formula_structural  Ca4As2O
_chemical_formula_sum  Ca4As2O
_cell_volume  158.26366789424455
_cell_formula_units_Z  1
loop_
  _symmetry_equiv_pos_site_id
 _symmetry_equiv_pos_as_xyz
 1  'x, y, z'
loop_
 _atom_site_type_symbol
 _atom_site_label
 _atom_site_symmetry_multiplicity
 _atom_site_fract_x
 _atom_site_fract_y
 _atom_site_fract_z
 _atom_site_fract_occupancy
 As  As1  1  0.86272  0.86272  0.72545  1
 As  As2  1  0.13728  0.13728  0.27455  1
 Ca  Ca1  1  0.67122  0.67122  0.34245  1
 Ca  Ca2  1  0.32878  0.32878  0.65755  1
 Ca  Ca3  1  0.50000  0.00000  0.00000  1
 Ca  Ca4  1  0.00000  0.50000  -0.00000  1
 O  O1  1  0.50000  0.50000  -0.00000  1
