CIF file written using JARVIS-Tools package.
data_Se
_symmetry_space_group_name_H-M  'P3_121'
_cell_length_a       4.23646
_cell_length_b       4.23646
_cell_length_c       5.13158
_cell_angle_alpha    90
_cell_angle_beta     90
_cell_angle_gamma    120

_symmetry_Int_Tables_number  152
_chemical_formula_structural  Se
_chemical_formula_sum  Se3
_cell_volume  79.76036533508834
_cell_formula_units_Z  3
loop_
  _symmetry_equiv_pos_site_id
 _symmetry_equiv_pos_as_xyz
 1  'x, y, z'
loop_
 _atom_site_type_symbol
 _atom_site_label
 _atom_site_symmetry_multiplicity
 _atom_site_fract_x
 _atom_site_fract_y
 _atom_site_fract_z
 _atom_site_fract_occupancy
 Se  Se1  1  0.00000  0.23717  0.16667  1
 Se  Se2  1  0.76283  0.76283  0.50000  1
 Se  Se3  1  0.23717  0.00000  0.83333  1
