CIF file written using JARVIS-Tools package.
data_NbCoSb
_symmetry_space_group_name_H-M  'F-43m'
_cell_length_a       4.2365
_cell_length_b       4.2365
_cell_length_c       4.23651
_cell_angle_alpha    60
_cell_angle_beta     60
_cell_angle_gamma    60

_symmetry_Int_Tables_number  216
_chemical_formula_structural  NbCoSb
_chemical_formula_sum  NbCoSb
_cell_volume  53.7661502414969
_cell_formula_units_Z  1
loop_
  _symmetry_equiv_pos_site_id
 _symmetry_equiv_pos_as_xyz
 1  'x, y, z'
loop_
 _atom_site_type_symbol
 _atom_site_label
 _atom_site_symmetry_multiplicity
 _atom_site_fract_x
 _atom_site_fract_y
 _atom_site_fract_z
 _atom_site_fract_occupancy
 Co  Co1  1  0.25000  0.25000  0.25000  1
 Nb  Nb1  1  0.00000  0.00000  0.00000  1
 Sb  Sb1  1  0.50000  0.50000  0.50000  1
