CIF file written using JARVIS-Tools package.
data_H6C7
_symmetry_space_group_name_H-M  'P-1'
_cell_length_a       4.64949
_cell_length_b       8.79077
_cell_length_c       11.5072
_cell_angle_alpha    93.4421
_cell_angle_beta     101.591
_cell_angle_gamma    104.763

_symmetry_Int_Tables_number  2
_chemical_formula_structural  H6C7
_chemical_formula_sum  H24C28
_cell_volume  442.44434995865663
_cell_formula_units_Z  4
loop_
  _symmetry_equiv_pos_site_id
 _symmetry_equiv_pos_as_xyz
 1  'x, y, z'
loop_
 _atom_site_type_symbol
 _atom_site_label
 _atom_site_symmetry_multiplicity
 _atom_site_fract_x
 _atom_site_fract_y
 _atom_site_fract_z
 _atom_site_fract_occupancy
 C  C1  1  0.56552  0.90526  0.69202  1
 C  C2  1  0.74371  0.41708  0.96740  1
 C  C3  1  0.59275  0.38125  0.84679  1
 C  C4  1  0.63060  0.25707  0.77534  1
 C  C5  1  0.12970  0.78790  0.52758  1
 C  C6  1  0.12998  0.78744  0.02746  1
 C  C7  1  0.59231  0.38136  0.34678  1
 C  C8  1  0.99914  0.67675  0.59752  1
 C  C9  1  0.63005  0.25714  0.27534  1
 C  C10  1  0.82112  0.16472  0.82218  1
 C  C11  1  0.86296  0.03013  0.74421  1
 C  C12  1  0.74349  0.41727  0.46736  1
 C  C13  1  0.43433  0.79444  0.26210  1
 C  C14  1  0.93426  0.32474  0.01424  1
 C  C15  1  0.93411  0.32496  0.51419  1
 C  C16  1  0.15589  0.68172  0.21574  1
 C  C17  1  0.15638  0.68150  0.71560  1
 C  C18  1  0.97211  0.20056  0.94279  1
 C  C19  1  0.97185  0.20075  0.44274  1
 C  C20  1  0.70177  0.55163  0.04537  1
 C  C21  1  0.70170  0.55188  0.54533  1
 C  C22  1  0.40828  0.90051  0.57395  1
 C  C23  1  0.86255  0.03026  0.24419  1
 C  C24  1  0.43495  0.79411  0.76197  1
 C  C25  1  0.56520  0.90531  0.19203  1
 C  C26  1  0.40842  0.90017  0.07383  1
 C  C27  1  0.99911  0.67658  0.09754  1
 C  C28  1  0.82069  0.16484  0.32216  1
 H  H1  1  0.44144  0.45109  0.80890  1
 H  H2  1  0.44093  0.45118  0.30891  1
 H  H3  1  0.50763  0.98477  0.01726  1
 H  H4  1  0.50724  0.98536  0.51748  1
 H  H5  1  0.05668  0.59711  0.27230  1
 H  H6  1  0.12341  0.13071  0.98067  1
 H  H7  1  0.12325  0.13093  0.48061  1
 H  H8  1  0.05476  0.35083  0.10797  1
 H  H9  1  0.05478  0.35110  0.60790  1
 H  H10  1  0.55052  0.79732  0.35485  1
 H  H11  1  0.55151  0.79667  0.85462  1
 H  H12  1  0.05741  0.59666  0.77206  1
 H  H13  1  0.96384  0.07718  0.67068  1
 H  H14  1  0.96336  0.07730  0.17064  1
 H  H15  1  0.53703  0.60529  0.99270  1
 H  H16  1  0.53709  0.60561  0.49266  1
 H  H17  1  0.02757  0.97640  0.79689  1
 H  H18  1  0.02727  0.97658  0.29687  1
 H  H19  1  0.01380  0.78456  0.93471  1
 H  H20  1  0.01312  0.78536  0.43493  1
 H  H21  1  0.51010  0.23099  0.68161  1
 H  H22  1  0.60098  0.50455  0.11892  1
 H  H23  1  0.60082  0.50483  0.61887  1
 H  H24  1  0.50940  0.23100  0.18163  1
