CIF file written using JARVIS-Tools package.
data_Rb2PdC2
_symmetry_space_group_name_H-M  'P-3m1'
_cell_length_a       5.36046
_cell_length_b       5.36046
_cell_length_c       5.28886
_cell_angle_alpha    90
_cell_angle_beta     90
_cell_angle_gamma    120

_symmetry_Int_Tables_number  164
_chemical_formula_structural  Rb2PdC2
_chemical_formula_sum  Rb2PdC2
_cell_volume  131.6125826126176
_cell_formula_units_Z  1
loop_
  _symmetry_equiv_pos_site_id
 _symmetry_equiv_pos_as_xyz
 1  'x, y, z'
loop_
 _atom_site_type_symbol
 _atom_site_label
 _atom_site_symmetry_multiplicity
 _atom_site_fract_x
 _atom_site_fract_y
 _atom_site_fract_z
 _atom_site_fract_occupancy
 C  C1  1  0.00000  0.00000  0.61961  1
 C  C2  1  0.00000  0.00000  0.38039  1
 Pd  Pd1  1  0.00000  0.00000  0.00000  1
 Rb  Rb1  1  0.33333  0.66667  0.28394  1
 Rb  Rb2  1  0.66667  0.33333  0.71606  1
