CIF file written using JARVIS-Tools package.
data_InCo2N2
_symmetry_space_group_name_H-M  'R-3m'
_cell_length_a       3.15691
_cell_length_b       3.15595
_cell_length_c       8.33757
_cell_angle_alpha    90
_cell_angle_beta     67.6978
_cell_angle_gamma    119.99

_symmetry_Int_Tables_number  166
_chemical_formula_structural  InCo2N2
_chemical_formula_sum  InCo2N2
_cell_volume  64.67217477957276
_cell_formula_units_Z  1
loop_
  _symmetry_equiv_pos_site_id
 _symmetry_equiv_pos_as_xyz
 1  'x, y, z'
loop_
 _atom_site_type_symbol
 _atom_site_label
 _atom_site_symmetry_multiplicity
 _atom_site_fract_x
 _atom_site_fract_y
 _atom_site_fract_z
 _atom_site_fract_occupancy
 Co  Co1  1  0.52079  0.26040  0.10928  1
 Co  Co2  1  0.47921  0.73960  0.89072  1
 In  In1  1  -0.00000  0.00000  0.50000  1
 N  N1  1  0.87483  0.43742  0.84421  1
 N  N2  1  0.12517  0.56258  0.15579  1
