CIF file written using JARVIS-Tools package.
data_SnH8C4F2
_symmetry_space_group_name_H-M  'P-1'
_cell_length_a       4.28254
_cell_length_b       4.63846
_cell_length_c       14.1928
_cell_angle_alpha    91.7825
_cell_angle_beta     93.1897
_cell_angle_gamma    110.871

_symmetry_Int_Tables_number  2
_chemical_formula_structural  SnH8C4F2
_chemical_formula_sum  Sn2H6C8F4
_cell_volume  262.63109429839636
_cell_formula_units_Z  2
loop_
  _symmetry_equiv_pos_site_id
 _symmetry_equiv_pos_as_xyz
 1  'x, y, z'
loop_
 _atom_site_type_symbol
 _atom_site_label
 _atom_site_symmetry_multiplicity
 _atom_site_fract_x
 _atom_site_fract_y
 _atom_site_fract_z
 _atom_site_fract_occupancy
 C  C1  1  0.80256  0.93338  0.26002  1
 C  C2  1  0.90828  0.79980  0.09304  1
 C  C3  1  0.87421  0.28126  0.61022  1
 C  C4  1  0.98613  0.10210  0.68509  1
 C  C5  1  0.88080  0.05039  0.16064  1
 C  C6  1  0.77514  0.18399  0.32762  1
 C  C7  1  0.69741  0.88170  0.73558  1
 C  C8  1  0.80935  0.70255  0.81045  1
 F  F1  1  0.18967  0.95959  0.47287  1
 F  F2  1  0.13606  0.39313  0.94937  1
 F  F3  1  0.54748  0.59071  0.47132  1
 F  F4  1  0.49384  0.02422  0.94779  1
 H  H1  1  0.66977  0.35283  0.63134  1
 H  H2  1  0.11630  0.25297  0.16597  1
 H  H3  1  0.68422  0.13318  0.13319  1
 H  H4  1  0.11911  0.72826  0.11398  1
 H  H5  1  0.12863  0.97286  0.65358  1
 H  H6  1  0.16113  0.26798  0.73855  1
 H  H7  1  0.08059  0.48813  0.59195  1
 H  H8  1  0.55491  0.01093  0.76709  1
 H  H9  1  0.99914  0.85057  0.28747  1
 H  H10  1  0.56705  0.73082  0.25470  1
 H  H11  1  0.00539  0.39039  0.33298  1
 H  H12  1  0.56429  0.25554  0.30670  1
 H  H13  1  0.52241  0.71581  0.68212  1
 H  H14  1  0.01382  0.63101  0.78934  1
 H  H15  1  0.60299  0.49567  0.82872  1
 H  H16  1  0.67803  0.59340  0.08766  1
 Sn  Sn1  1  0.71514  0.05908  0.47162  1
 Sn  Sn2  1  -0.03162  0.92475  0.94905  1
