CIF file written using JARVIS-Tools package.
data_La2Cu3Ni
_symmetry_space_group_name_H-M  'Pmm2'
_cell_length_a       3.84837
_cell_length_b       4.28124
_cell_length_c       7.36572
_cell_angle_alpha    90
_cell_angle_beta     90
_cell_angle_gamma    90

_symmetry_Int_Tables_number  25
_chemical_formula_structural  La2Cu3Ni
_chemical_formula_sum  La2Cu3Ni
_cell_volume  121.35628956536455
_cell_formula_units_Z  1
loop_
  _symmetry_equiv_pos_site_id
 _symmetry_equiv_pos_as_xyz
 1  'x, y, z'
loop_
 _atom_site_type_symbol
 _atom_site_label
 _atom_site_symmetry_multiplicity
 _atom_site_fract_x
 _atom_site_fract_y
 _atom_site_fract_z
 _atom_site_fract_occupancy
 Cu  Cu1  1  0.50000  0.00000  0.83296  1
 Cu  Cu2  1  0.50000  0.00000  0.16806  1
 Cu  Cu3  1  0.50000  0.50000  0.66477  1
 La  La1  1  0.00000  0.50000  0.01116  1
 La  La2  1  0.00000  0.00000  0.49171  1
 Ni  Ni1  1  0.50000  0.50000  0.33135  1
