CIF file written using JARVIS-Tools package.
data_Li4CuF7
_symmetry_space_group_name_H-M  'C2/c'
_cell_length_a       7.47398
_cell_length_b       7.47398
_cell_length_c       5.38103
_cell_angle_alpha    78.1815
_cell_angle_beta     101.819
_cell_angle_gamma    108.276

_symmetry_Int_Tables_number  15
_chemical_formula_structural  Li4CuF7
_chemical_formula_sum  Li8Cu2F4
_cell_volume  276.1586427279013
_cell_formula_units_Z  2
loop_
  _symmetry_equiv_pos_site_id
 _symmetry_equiv_pos_as_xyz
 1  'x, y, z'
loop_
 _atom_site_type_symbol
 _atom_site_label
 _atom_site_symmetry_multiplicity
 _atom_site_fract_x
 _atom_site_fract_y
 _atom_site_fract_z
 _atom_site_fract_occupancy
 Cu  Cu1  1  0.23171  0.23171  0.25000  1
 Cu  Cu2  1  0.76829  0.76829  0.75000  1
 F  F1  1  0.60722  0.21180  0.04527  1
 F  F2  1  -0.01721  0.18228  0.33329  1
 F  F3  1  0.84274  0.66742  0.09005  1
 F  F4  1  0.21180  0.60722  0.45473  1
 F  F5  1  0.39278  0.78820  0.95473  1
 F  F6  1  0.18228  -0.01721  0.16671  1
 F  F7  1  0.15726  0.33258  0.90995  1
 F  F8  1  0.44666  0.44666  0.25000  1
 F  F9  1  0.55334  0.55334  0.75000  1
 F  F10  1  0.66742  0.84274  0.40995  1
 F  F11  1  0.01721  0.81772  0.66671  1
 F  F12  1  0.33258  0.15726  0.59005  1
 F  F13  1  0.78820  0.39278  0.54527  1
 F  F14  1  0.81772  0.01721  0.83329  1
 Li  Li1  1  0.95490  0.25348  0.64253  1
 Li  Li2  1  0.74652  0.04510  0.14253  1
 Li  Li3  1  0.68550  0.42089  0.20689  1
 Li  Li4  1  0.57911  0.31450  0.70689  1
 Li  Li5  1  0.42089  0.68550  0.29311  1
 Li  Li6  1  0.31450  0.57911  0.79311  1
 Li  Li7  1  0.25348  0.95490  0.85747  1
 Li  Li8  1  0.04510  0.74652  0.35747  1
