CIF file written using JARVIS-Tools package.
data_Tb2BaNiO5
_symmetry_space_group_name_H-M  'Immm'
_cell_length_a       3.72134
_cell_length_b       5.80984
_cell_length_c       6.73321
_cell_angle_alpha    115.558
_cell_angle_beta     106.042
_cell_angle_gamma    90

_symmetry_Int_Tables_number  71
_chemical_formula_structural  Tb2BaNiO5
_chemical_formula_sum  Tb2BaNiO5
_cell_volume  125.01645279506756
_cell_formula_units_Z  1
loop_
  _symmetry_equiv_pos_site_id
 _symmetry_equiv_pos_as_xyz
 1  'x, y, z'
loop_
 _atom_site_type_symbol
 _atom_site_label
 _atom_site_symmetry_multiplicity
 _atom_site_fract_x
 _atom_site_fract_y
 _atom_site_fract_z
 _atom_site_fract_occupancy
 Ba  Ba1  1  0.00000  0.00000  0.00000  1
 Ni  Ni1  1  0.50000  0.50000  0.00000  1
 O  O1  1  0.00000  0.50000  0.00000  1
 O  O2  1  0.35043  0.59189  0.70086  1
 O  O3  1  0.64957  0.40811  0.29914  1
 O  O4  1  0.64957  0.89103  0.29914  1
 O  O5  1  0.35043  0.10897  0.70086  1
 Tb  Tb1  1  0.20163  0.70163  0.40326  1
 Tb  Tb2  1  0.79837  0.29837  0.59674  1
