CIF file written using JARVIS-Tools package.
data_Li7SbO6
_symmetry_space_group_name_H-M  'P1'
_cell_length_a       5.35913
_cell_length_b       5.43466
_cell_length_c       5.84537
_cell_angle_alpha    63.4328
_cell_angle_beta     64.3499
_cell_angle_gamma    60.9681

_symmetry_Int_Tables_number  1
_chemical_formula_structural  Li7SbO6
_chemical_formula_sum  Li7SbO6
_cell_volume  127.9668602046626
_cell_formula_units_Z  1
loop_
  _symmetry_equiv_pos_site_id
 _symmetry_equiv_pos_as_xyz
 1  'x, y, z'
loop_
 _atom_site_type_symbol
 _atom_site_label
 _atom_site_symmetry_multiplicity
 _atom_site_fract_x
 _atom_site_fract_y
 _atom_site_fract_z
 _atom_site_fract_occupancy
 Li  Li1  1  0.10236  0.74024  0.62367  1
 Li  Li2  1  0.47750  0.14700  0.61678  1
 Li  Li3  1  0.35280  0.34846  0.98776  1
 Li  Li4  1  0.61265  0.63565  0.06075  1
 Li  Li5  1  0.49641  0.89984  0.37035  1
 Li  Li6  1  0.91402  0.24010  0.35279  1
 Li  Li7  1  0.80150  0.50023  0.61927  1
 O  O1  1  0.09146  0.36392  0.79076  1
 O  O2  1  0.23309  0.91270  0.24167  1
 O  O3  1  0.62834  0.21896  0.23280  1
 O  O4  1  0.38571  0.76350  0.76646  1
 O  O5  1  0.78377  0.10048  0.74134  1
 O  O6  1  0.88661  0.63158  0.23253  1
 Sb  Sb1  1  0.00469  0.98634  0.00575  1
