CIF file written using JARVIS-Tools package.
data_Al2Ru
_symmetry_space_group_name_H-M  'Fddd'
_cell_length_a       4.68543
_cell_length_b       4.68542
_cell_length_c       5.02042
_cell_angle_alpha    103.827
_cell_angle_beta     103.827
_cell_angle_gamma    119.199

_symmetry_Int_Tables_number  70
_chemical_formula_structural  Al2Ru
_chemical_formula_sum  Al4Ru2
_cell_volume  84.80410666591729
_cell_formula_units_Z  2
loop_
  _symmetry_equiv_pos_site_id
 _symmetry_equiv_pos_as_xyz
 1  'x, y, z'
loop_
 _atom_site_type_symbol
 _atom_site_label
 _atom_site_symmetry_multiplicity
 _atom_site_fract_x
 _atom_site_fract_y
 _atom_site_fract_z
 _atom_site_fract_occupancy
 Al  Al1  1  0.79626  0.20374  0.75000  1
 Al  Al2  1  0.45374  0.54626  0.75000  1
 Al  Al3  1  0.20374  0.79626  0.25000  1
 Al  Al4  1  0.54626  0.45374  0.25000  1
 Ru  Ru1  1  0.12500  0.87500  0.75000  1
 Ru  Ru2  1  0.87500  0.12500  0.25000  1
