CIF file written using JARVIS-Tools package.
data_ZnH4C4O4
_symmetry_space_group_name_H-M  'P1'
_cell_length_a       3.60801
_cell_length_b       4.7319
_cell_length_c       7.33045
_cell_angle_alpha    100.364
_cell_angle_beta     82.3711
_cell_angle_gamma    95.8545

_symmetry_Int_Tables_number  1
_chemical_formula_structural  ZnH4C4O4
_chemical_formula_sum  ZnH4C4O4
_cell_volume  121.62731187011653
_cell_formula_units_Z  1
loop_
  _symmetry_equiv_pos_site_id
 _symmetry_equiv_pos_as_xyz
 1  'x, y, z'
loop_
 _atom_site_type_symbol
 _atom_site_label
 _atom_site_symmetry_multiplicity
 _atom_site_fract_x
 _atom_site_fract_y
 _atom_site_fract_z
 _atom_site_fract_occupancy
 C  C1  1  0.34997  0.13627  0.53888  1
 C  C2  1  0.19747  0.21461  0.74328  1
 C  C3  1  0.09637  0.52872  0.80089  1
 C  C4  1  0.15038  0.62343  0.00319  1
 H  H1  1  0.95020  0.06449  0.76796  1
 H  H2  1  0.39997  0.16273  0.82920  1
 H  H3  1  0.80955  0.55074  0.77637  1
 H  H4  1  0.28296  0.66623  0.71795  1
 O  O1  1  0.52276  0.90418  0.49891  1
 O  O2  1  0.29244  0.28749  0.42198  1
 O  O3  1  0.41431  0.80742  0.04933  1
 O  O4  1  -0.03353  0.48179  0.13007  1
 Zn  Zn1  1  0.48045  0.60375  0.28028  1
