CIF file written using JARVIS-Tools package.
data_KZnSb
_symmetry_space_group_name_H-M  'P-6m2'
_cell_length_a       4.56046
_cell_length_b       4.56046
_cell_length_c       5.29021
_cell_angle_alpha    90
_cell_angle_beta     90
_cell_angle_gamma    120

_symmetry_Int_Tables_number  187
_chemical_formula_structural  KZnSb
_chemical_formula_sum  KZnSb
_cell_volume  95.28390568040805
_cell_formula_units_Z  1
loop_
  _symmetry_equiv_pos_site_id
 _symmetry_equiv_pos_as_xyz
 1  'x, y, z'
loop_
 _atom_site_type_symbol
 _atom_site_label
 _atom_site_symmetry_multiplicity
 _atom_site_fract_x
 _atom_site_fract_y
 _atom_site_fract_z
 _atom_site_fract_occupancy
 K  K1  1  0.00000  0.00000  0.00000  1
 Sb  Sb1  1  0.66667  0.33333  0.50000  1
 Zn  Zn1  1  0.33333  0.66667  0.50000  1
