CIF file written using JARVIS-Tools package.
data_RhF6
_symmetry_space_group_name_H-M  'Im-3m'
_cell_length_a       5.42128
_cell_length_b       5.42128
_cell_length_c       5.42128
_cell_angle_alpha    109.471
_cell_angle_beta     109.471
_cell_angle_gamma    109.471

_symmetry_Int_Tables_number  229
_chemical_formula_structural  RhF6
_chemical_formula_sum  RhF6
_cell_volume  122.6545960147844
_cell_formula_units_Z  1
loop_
  _symmetry_equiv_pos_site_id
 _symmetry_equiv_pos_as_xyz
 1  'x, y, z'
loop_
 _atom_site_type_symbol
 _atom_site_label
 _atom_site_symmetry_multiplicity
 _atom_site_fract_x
 _atom_site_fract_y
 _atom_site_fract_z
 _atom_site_fract_occupancy
 F  F1  1  0.70408  0.70408  -0.00000  1
 F  F2  1  0.29592  0.29592  -0.00000  1
 F  F3  1  0.70408  -0.00000  0.70408  1
 F  F4  1  0.29592  -0.00000  0.29592  1
 F  F5  1  -0.00000  0.70408  0.70408  1
 F  F6  1  -0.00000  0.29592  0.29592  1
 Rh  Rh1  1  0.00000  0.00000  0.00000  1
