CIF file written using JARVIS-Tools package.
data_H4C9S3O
_symmetry_space_group_name_H-M  'P1'
_cell_length_a       3.76539
_cell_length_b       5.79392
_cell_length_c       9.9499
_cell_angle_alpha    87.3257
_cell_angle_beta     82.1833
_cell_angle_gamma    88.985

_symmetry_Int_Tables_number  1
_chemical_formula_structural  H4C9S3O
_chemical_formula_sum  H4C9S3O
_cell_volume  214.80507103894257
_cell_formula_units_Z  1
loop_
  _symmetry_equiv_pos_site_id
 _symmetry_equiv_pos_as_xyz
 1  'x, y, z'
loop_
 _atom_site_type_symbol
 _atom_site_label
 _atom_site_symmetry_multiplicity
 _atom_site_fract_x
 _atom_site_fract_y
 _atom_site_fract_z
 _atom_site_fract_occupancy
 C  C1  1  0.61591  0.47143  0.70132  1
 C  C2  1  0.74985  0.67324  0.63779  1
 C  C3  1  0.74875  0.67178  0.49626  1
 C  C4  1  0.69792  0.22218  0.24190  1
 C  C5  1  0.46824  0.55844  0.93663  1
 C  C6  1  0.59587  0.41941  0.31288  1
 C  C7  1  0.53045  0.46376  0.06694  1
 C  C8  1  0.62286  0.46974  0.45176  1
 C  C9  1  0.66610  0.24784  0.10305  1
 H  H1  1  0.85358  0.81192  0.42663  1
 H  H2  1  0.74127  0.11530  0.03047  1
 H  H3  1  0.85251  0.81193  0.69038  1
 H  H4  1  0.81314  0.06993  0.28789  1
 O  O1  1  0.58658  0.40382  0.83638  1
 S  S1  1  0.49576  0.27579  0.58884  1
 S  S2  1  0.44330  0.63421  0.20685  1
 S  S3  1  0.28112  0.81325  0.91073  1
