CIF file written using JARVIS-Tools package.
data_NaZnSb
_symmetry_space_group_name_H-M  'P4/nmm'
_cell_length_a       4.47118
_cell_length_b       4.47118
_cell_length_c       7.43234
_cell_angle_alpha    90
_cell_angle_beta     90
_cell_angle_gamma    90

_symmetry_Int_Tables_number  129
_chemical_formula_structural  NaZnSb
_chemical_formula_sum  Na2Zn2Sb2
_cell_volume  148.58310079146455
_cell_formula_units_Z  2
loop_
  _symmetry_equiv_pos_site_id
 _symmetry_equiv_pos_as_xyz
 1  'x, y, z'
loop_
 _atom_site_type_symbol
 _atom_site_label
 _atom_site_symmetry_multiplicity
 _atom_site_fract_x
 _atom_site_fract_y
 _atom_site_fract_z
 _atom_site_fract_occupancy
 Na  Na1  1  0.50000  0.00000  0.34159  1
 Na  Na2  1  0.00000  0.50000  0.65841  1
 Sb  Sb1  1  0.00000  0.50000  0.22641  1
 Sb  Sb2  1  0.50000  0.00000  0.77359  1
 Zn  Zn1  1  0.00000  0.00000  0.00000  1
 Zn  Zn2  1  0.50000  0.50000  0.00000  1
