CIF file written using JARVIS-Tools package.
data_NaRhO2
_symmetry_space_group_name_H-M  'R-3m'
_cell_length_a       5.41985
_cell_length_b       5.41985
_cell_length_c       5.41986
_cell_angle_alpha    33.7662
_cell_angle_beta     33.7662
_cell_angle_gamma    33.7662

_symmetry_Int_Tables_number  166
_chemical_formula_structural  NaRhO2
_chemical_formula_sum  NaRhO2
_cell_volume  43.82287180103028
_cell_formula_units_Z  1
loop_
  _symmetry_equiv_pos_site_id
 _symmetry_equiv_pos_as_xyz
 1  'x, y, z'
loop_
 _atom_site_type_symbol
 _atom_site_label
 _atom_site_symmetry_multiplicity
 _atom_site_fract_x
 _atom_site_fract_y
 _atom_site_fract_z
 _atom_site_fract_occupancy
 Na  Na1  1  0.00000  0.00000  0.00000  1
 O  O1  1  0.76659  0.76659  0.76659  1
 O  O2  1  0.23341  0.23341  0.23341  1
 Rh  Rh1  1  0.50000  0.50000  0.50000  1
