CIF file written using JARVIS-Tools package.
data_ZnFe2S4
_symmetry_space_group_name_H-M  'Fd-3m'
_cell_length_a       6.84064
_cell_length_b       6.84064
_cell_length_c       6.84123
_cell_angle_alpha    119.997
_cell_angle_beta     119.997
_cell_angle_gamma    90

_symmetry_Int_Tables_number  227
_chemical_formula_structural  ZnFe2S4
_chemical_formula_sum  Zn2Fe4S8
_cell_volume  226.38586383099576
_cell_formula_units_Z  2
loop_
  _symmetry_equiv_pos_site_id
 _symmetry_equiv_pos_as_xyz
 1  'x, y, z'
loop_
 _atom_site_type_symbol
 _atom_site_label
 _atom_site_symmetry_multiplicity
 _atom_site_fract_x
 _atom_site_fract_y
 _atom_site_fract_z
 _atom_site_fract_occupancy
 Fe  Fe1  1  0.00000  -0.00000  0.50000  1
 Fe  Fe2  1  0.00000  0.50000  -0.00000  1
 Fe  Fe3  1  0.50000  -0.00000  0.50000  1
 Fe  Fe4  1  0.00000  0.00000  0.00000  1
 S  S1  1  0.76381  0.79135  0.52762  1
 S  S2  1  0.76373  0.23619  0.97238  1
 S  S3  1  0.20865  0.23619  0.97238  1
 S  S4  1  0.23619  0.20865  0.47238  1
 S  S5  1  0.23619  0.76373  0.47238  1
 S  S6  1  0.23627  0.76381  0.02762  1
 S  S7  1  0.76381  0.23627  0.52762  1
 S  S8  1  0.79135  0.76381  0.02762  1
 Zn  Zn1  1  0.37500  0.62500  0.75000  1
 Zn  Zn2  1  0.62500  0.37500  0.25000  1
