CIF file written using JARVIS-Tools package.
data_YbRb4I6
_symmetry_space_group_name_H-M  'R-3c'
_cell_length_a       9.938
_cell_length_b       9.938
_cell_length_c       9.938
_cell_angle_alpha    89.5269
_cell_angle_beta     89.5269
_cell_angle_gamma    89.5269

_symmetry_Int_Tables_number  167
_chemical_formula_structural  YbRb4I6
_chemical_formula_sum  Yb2Rb8I2
_cell_volume  981.414580408453
_cell_formula_units_Z  2
loop_
  _symmetry_equiv_pos_site_id
 _symmetry_equiv_pos_as_xyz
 1  'x, y, z'
loop_
 _atom_site_type_symbol
 _atom_site_label
 _atom_site_symmetry_multiplicity
 _atom_site_fract_x
 _atom_site_fract_y
 _atom_site_fract_z
 _atom_site_fract_occupancy
 I  I1  1  0.55860  0.19994  0.42962  1
 I  I2  1  0.07038  0.30006  0.94140  1
 I  I3  1  0.30006  0.94140  0.07038  1
 I  I4  1  0.94140  0.07038  0.30006  1
 I  I5  1  0.42962  0.55860  0.19994  1
 I  I6  1  0.80006  0.57038  0.44140  1
 I  I7  1  0.57038  0.44140  0.80006  1
 I  I8  1  0.92962  0.69994  0.05860  1
 I  I9  1  0.44140  0.80006  0.57038  1
 I  I10  1  0.69994  0.05860  0.92962  1
 I  I11  1  0.05860  0.92962  0.69994  1
 I  I12  1  0.19994  0.42962  0.55860  1
 Rb  Rb1  1  0.86855  0.25000  0.63145  1
 Rb  Rb2  1  0.75000  0.75000  0.75000  1
 Rb  Rb3  1  0.63145  0.86855  0.25000  1
 Rb  Rb4  1  0.25000  0.63145  0.86855  1
 Rb  Rb5  1  0.25000  0.25000  0.25000  1
 Rb  Rb6  1  0.36855  0.13145  0.75000  1
 Rb  Rb7  1  0.75000  0.36855  0.13145  1
 Rb  Rb8  1  0.13145  0.75000  0.36855  1
 Yb  Yb1  1  0.00000  0.00000  0.00000  1
 Yb  Yb2  1  0.50000  0.50000  0.50000  1
