CIF file written using JARVIS-Tools package.
data_Yb5Au3
_symmetry_space_group_name_H-M  'I4/mcm'
_cell_length_a       7.69615
_cell_length_b       7.69615
_cell_length_c       8.83057
_cell_angle_alpha    115.834
_cell_angle_beta     115.834
_cell_angle_gamma    90

_symmetry_Int_Tables_number  140
_chemical_formula_structural  Yb5Au3
_chemical_formula_sum  Yb0Au6
_cell_volume  411.913620090583
_cell_formula_units_Z  2
loop_
  _symmetry_equiv_pos_site_id
 _symmetry_equiv_pos_as_xyz
 1  'x, y, z'
loop_
 _atom_site_type_symbol
 _atom_site_label
 _atom_site_symmetry_multiplicity
 _atom_site_fract_x
 _atom_site_fract_y
 _atom_site_fract_z
 _atom_site_fract_occupancy
 Au  Au1  1  0.86505  0.63495  0.00000  1
 Au  Au2  1  0.25000  0.25000  0.50000  1
 Au  Au3  1  0.13495  0.36505  -0.00000  1
 Au  Au4  1  0.63495  0.13495  0.00000  1
 Au  Au5  1  0.36505  0.86505  -0.00000  1
 Au  Au6  1  0.75000  0.75000  0.50000  1
 Yb  Yb1  1  0.02295  0.52295  0.71206  1
 Yb  Yb2  1  0.47705  0.31088  0.28794  1
 Yb  Yb3  1  0.97705  0.47705  0.28794  1
 Yb  Yb4  1  0.18912  0.02295  0.71206  1
 Yb  Yb5  1  0.68912  0.18912  0.71206  1
 Yb  Yb6  1  0.52295  0.68912  0.71206  1
 Yb  Yb7  1  0.50000  0.50000  0.00000  1
 Yb  Yb8  1  0.81088  0.97705  0.28794  1
 Yb  Yb9  1  0.31088  0.81088  0.28794  1
 Yb  Yb10  1  0.00000  0.00000  0.00000  1
