CIF file written using JARVIS-Tools package.
data_Rb3Sb2Br9
_symmetry_space_group_name_H-M  'P-3m1'
_cell_length_a       7.76618
_cell_length_b       7.76618
_cell_length_c       9.65058
_cell_angle_alpha    90
_cell_angle_beta     90
_cell_angle_gamma    120

_symmetry_Int_Tables_number  164
_chemical_formula_structural  Rb3Sb2Br9
_chemical_formula_sum  Rb3Sb2Br9
_cell_volume  504.07988895042115
_cell_formula_units_Z  1
loop_
  _symmetry_equiv_pos_site_id
 _symmetry_equiv_pos_as_xyz
 1  'x, y, z'
loop_
 _atom_site_type_symbol
 _atom_site_label
 _atom_site_symmetry_multiplicity
 _atom_site_fract_x
 _atom_site_fract_y
 _atom_site_fract_z
 _atom_site_fract_occupancy
 Br  Br1  1  0.83551  0.67101  0.65791  1
 Br  Br2  1  0.83551  0.16449  0.65791  1
 Br  Br3  1  0.32899  0.16449  0.65791  1
 Br  Br4  1  0.67101  0.83551  0.34209  1
 Br  Br5  1  0.16449  0.83551  0.34209  1
 Br  Br6  1  0.50000  0.00000  0.00000  1
 Br  Br7  1  0.50000  0.50000  0.00000  1
 Br  Br8  1  0.00000  0.50000  0.00000  1
 Br  Br9  1  0.16449  0.32899  0.34209  1
 Rb  Rb1  1  0.00000  0.00000  0.00000  1
 Rb  Rb2  1  0.66667  0.33333  0.33295  1
 Rb  Rb3  1  0.33333  0.66667  0.66705  1
 Sb  Sb1  1  0.66667  0.33333  0.80644  1
 Sb  Sb2  1  0.33333  0.66667  0.19356  1
