CIF file written using JARVIS-Tools package.
data_TiTl4Se4
_symmetry_space_group_name_H-M  'P2_1/c'
_cell_length_a       8.50397
_cell_length_b       8.61652
_cell_length_c       15.8331
_cell_angle_alpha    103.775
_cell_angle_beta     90
_cell_angle_gamma    90

_symmetry_Int_Tables_number  14
_chemical_formula_structural  TiTl4Se4
_chemical_formula_sum  Ti4Tl6Se6
_cell_volume  1126.7950808756382
_cell_formula_units_Z  4
loop_
  _symmetry_equiv_pos_site_id
 _symmetry_equiv_pos_as_xyz
 1  'x, y, z'
loop_
 _atom_site_type_symbol
 _atom_site_label
 _atom_site_symmetry_multiplicity
 _atom_site_fract_x
 _atom_site_fract_y
 _atom_site_fract_z
 _atom_site_fract_occupancy
 Se  Se1  1  0.67504  0.04948  0.21521  1
 Se  Se2  1  0.17504  0.95052  0.28479  1
 Se  Se3  1  0.11494  0.82349  0.53687  1
 Se  Se4  1  0.61494  0.17651  0.96313  1
 Se  Se5  1  0.88506  0.17651  0.46313  1
 Se  Se6  1  0.66310  0.70364  0.53328  1
 Se  Se7  1  0.16310  0.29636  0.96672  1
 Se  Se8  1  0.38506  0.82349  0.03687  1
 Se  Se9  1  0.83690  0.70364  0.03328  1
 Se  Se10  1  0.94653  0.60502  0.70886  1
 Se  Se11  1  0.44653  0.39498  0.79114  1
 Se  Se12  1  0.05347  0.39498  0.29114  1
 Se  Se13  1  0.55347  0.60502  0.20886  1
 Se  Se14  1  0.82496  0.04948  0.71521  1
 Se  Se15  1  0.32496  0.95052  0.78479  1
 Se  Se16  1  0.33690  0.29636  0.46672  1
 Ti  Ti1  1  0.38813  0.20783  0.87734  1
 Ti  Ti2  1  0.61187  0.79217  0.12266  1
 Ti  Ti3  1  0.11187  0.20783  0.37734  1
 Ti  Ti4  1  0.88813  0.79217  0.62266  1
 Tl  Tl1  1  0.89383  0.80777  0.37085  1
 Tl  Tl2  1  -0.00198  0.96860  0.87394  1
 Tl  Tl3  1  0.49802  0.03140  0.62606  1
 Tl  Tl4  1  0.00198  0.03140  0.12606  1
 Tl  Tl5  1  0.50198  0.96860  0.37394  1
 Tl  Tl6  1  0.79210  0.39035  0.86036  1
 Tl  Tl7  1  0.17735  0.59833  0.88941  1
 Tl  Tl8  1  0.70790  0.39035  0.36036  1
 Tl  Tl9  1  0.32265  0.59833  0.38941  1
 Tl  Tl10  1  0.60617  0.80777  0.87085  1
 Tl  Tl11  1  0.10617  0.19223  0.62915  1
 Tl  Tl12  1  0.39383  0.19223  0.12915  1
 Tl  Tl13  1  0.82265  0.40167  0.11059  1
 Tl  Tl14  1  0.20790  0.60965  0.13964  1
 Tl  Tl15  1  0.67735  0.40167  0.61059  1
 Tl  Tl16  1  0.29210  0.60965  0.63964  1
