CIF file written using JARVIS-Tools package.
data_BH9C3O3
_symmetry_space_group_name_H-M  'P6_3/m'
_cell_length_a       6.93731
_cell_length_b       6.9373
_cell_length_c       6.35398
_cell_angle_alpha    90
_cell_angle_beta     90
_cell_angle_gamma    120

_symmetry_Int_Tables_number  176
_chemical_formula_structural  BH9C3O3
_chemical_formula_sum  B2H8C6O6
_cell_volume  264.8246455104729
_cell_formula_units_Z  2
loop_
  _symmetry_equiv_pos_site_id
 _symmetry_equiv_pos_as_xyz
 1  'x, y, z'
loop_
 _atom_site_type_symbol
 _atom_site_label
 _atom_site_symmetry_multiplicity
 _atom_site_fract_x
 _atom_site_fract_y
 _atom_site_fract_z
 _atom_site_fract_occupancy
 B  B1  1  0.00000  0.00000  0.25000  1
 B  B2  1  0.00000  0.00000  0.75000  1
 C  C1  1  0.36951  0.33067  0.25000  1
 C  C2  1  0.66933  0.03884  0.25000  1
 C  C3  1  0.03884  0.36951  0.75000  1
 C  C4  1  0.96116  0.63049  0.25000  1
 C  C5  1  0.33067  0.96116  0.75000  1
 C  C6  1  0.63049  0.66933  0.75000  1
 H  H1  1  0.28236  0.85587  0.60834  1
 H  H2  1  0.42649  0.28236  0.39166  1
 H  H3  1  0.51192  0.07249  0.75000  1
 H  H4  1  0.56057  0.48808  0.75000  1
 H  H5  1  0.57351  0.71764  0.89166  1
 H  H6  1  0.07249  0.56057  0.25000  1
 H  H7  1  0.14413  0.42649  0.89166  1
 H  H8  1  0.85587  0.57351  0.39166  1
 H  H9  1  0.43943  0.51192  0.25000  1
 H  H10  1  0.92751  0.43943  0.75000  1
 H  H11  1  0.57351  0.71764  0.60834  1
 H  H12  1  0.71764  0.14413  0.39166  1
 H  H13  1  0.14413  0.42649  0.60834  1
 H  H14  1  0.71764  0.14413  0.10834  1
 H  H15  1  0.48808  0.92751  0.25000  1
 H  H16  1  0.28236  0.85587  0.89166  1
 H  H17  1  0.42649  0.28236  0.10834  1
 H  H18  1  0.85587  0.57351  0.10834  1
 O  O1  1  0.86866  0.77231  0.75000  1
 O  O2  1  0.77231  0.90365  0.25000  1
 O  O3  1  0.13134  0.22769  0.25000  1
 O  O4  1  0.09635  0.86866  0.25000  1
 O  O5  1  0.22769  0.09635  0.75000  1
 O  O6  1  0.90365  0.13134  0.75000  1
