CIF file written using JARVIS-Tools package.
data_Ba2In2O5
_symmetry_space_group_name_H-M  'C2/c'
_cell_length_a       10.5287
_cell_length_b       6.06666
_cell_length_c       6.06666
_cell_angle_alpha    59.429
_cell_angle_beta     69.7164
_cell_angle_gamma    69.7164

_symmetry_Int_Tables_number  15
_chemical_formula_structural  Ba2In2O5
_chemical_formula_sum  Ba4In4O0
_cell_volume  305.90715617685987
_cell_formula_units_Z  2
loop_
  _symmetry_equiv_pos_site_id
 _symmetry_equiv_pos_as_xyz
 1  'x, y, z'
loop_
 _atom_site_type_symbol
 _atom_site_label
 _atom_site_symmetry_multiplicity
 _atom_site_fract_x
 _atom_site_fract_y
 _atom_site_fract_z
 _atom_site_fract_occupancy
 Ba  Ba1  1  0.62500  0.10477  0.14523  1
 Ba  Ba2  1  0.12500  0.64523  0.60477  1
 Ba  Ba3  1  0.87500  0.37500  0.37500  1
 Ba  Ba4  1  0.37500  0.87500  0.87500  1
 In  In1  1  0.01289  0.96832  0.00535  1
 In  In2  1  0.23711  0.24465  0.28168  1
 In  In3  1  0.51289  0.50535  0.46832  1
 In  In4  1  0.73711  0.78168  0.74465  1
 O  O1  1  0.87500  0.87500  0.37500  1
 O  O2  1  0.07940  0.23256  0.61713  1
 O  O3  1  0.17060  0.63287  0.01744  1
 O  O4  1  0.12500  0.12874  0.12126  1
 O  O5  1  0.62500  0.62126  0.62874  1
 O  O6  1  0.57940  0.11713  0.73256  1
 O  O7  1  0.37500  0.87500  0.37500  1
 O  O8  1  0.37500  0.37500  0.37500  1
 O  O9  1  0.67060  0.51744  0.13287  1
 O  O10  1  0.87500  0.87500  0.87500  1
