CIF file written using JARVIS-Tools package.
data_Rb2HgF4
_symmetry_space_group_name_H-M  'I4/mmm'
_cell_length_a       4.61146
_cell_length_b       4.61146
_cell_length_c       7.65595
_cell_angle_alpha    107.528
_cell_angle_beta     107.528
_cell_angle_gamma    90.0001

_symmetry_Int_Tables_number  139
_chemical_formula_structural  Rb2HgF4
_chemical_formula_sum  Rb2HgF4
_cell_volume  147.30247389843137
_cell_formula_units_Z  1
loop_
  _symmetry_equiv_pos_site_id
 _symmetry_equiv_pos_as_xyz
 1  'x, y, z'
loop_
 _atom_site_type_symbol
 _atom_site_label
 _atom_site_symmetry_multiplicity
 _atom_site_fract_x
 _atom_site_fract_y
 _atom_site_fract_z
 _atom_site_fract_occupancy
 F  F1  1  0.16467  0.16467  0.32934  1
 F  F2  1  0.83533  0.83533  0.67066  1
 F  F3  1  0.50000  -0.00000  -0.00000  1
 F  F4  1  -0.00000  0.50000  0.00000  1
 Hg  Hg1  1  0.00000  0.00000  0.00000  1
 Rb  Rb1  1  0.35932  0.35932  0.71864  1
 Rb  Rb2  1  0.64068  0.64068  0.28136  1
