CIF file written using JARVIS-Tools package.
data_ZnAg2O4
_symmetry_space_group_name_H-M  'Fddd'
_cell_length_a       6.14203
_cell_length_b       6.47602
_cell_length_c       6.2153
_cell_angle_alpha    103.551
_cell_angle_beta     119.611
_cell_angle_gamma    61.6919

_symmetry_Int_Tables_number  70
_chemical_formula_structural  ZnAg2O4
_chemical_formula_sum  Zn2Ag4O8
_cell_volume  189.2293397058279
_cell_formula_units_Z  2
loop_
  _symmetry_equiv_pos_site_id
 _symmetry_equiv_pos_as_xyz
 1  'x, y, z'
loop_
 _atom_site_type_symbol
 _atom_site_label
 _atom_site_symmetry_multiplicity
 _atom_site_fract_x
 _atom_site_fract_y
 _atom_site_fract_z
 _atom_site_fract_occupancy
 Ag  Ag1  1  0.50698  0.98604  0.25000  1
 Ag  Ag2  1  0.75698  0.48604  0.75000  1
 Ag  Ag3  1  0.24302  0.51396  0.25000  1
 Ag  Ag4  1  0.49302  0.01396  0.75000  1
 O  O1  1  0.87147  0.49846  0.11635  1
 O  O2  1  0.74642  0.99846  0.61635  1
 O  O3  1  0.74488  0.00154  0.11635  1
 O  O4  1  0.63007  0.49846  0.38365  1
 O  O5  1  0.25512  0.99846  0.88365  1
 O  O6  1  0.36993  0.50154  0.61635  1
 O  O7  1  0.25358  0.00154  0.38365  1
 O  O8  1  0.12853  0.50154  0.88365  1
 Zn  Zn1  1  0.87500  0.25000  0.25000  1
 Zn  Zn2  1  0.12500  0.75000  0.75000  1
