CIF file written using JARVIS-Tools package.
data_Li8ZrO6
_symmetry_space_group_name_H-M  'R-3'
_cell_length_a       6.05162
_cell_length_b       6.05162
_cell_length_c       6.05162
_cell_angle_alpha    53.7572
_cell_angle_beta     53.7572
_cell_angle_gamma    53.7572

_symmetry_Int_Tables_number  148
_chemical_formula_structural  Li8ZrO6
_chemical_formula_sum  Li8ZrO6
_cell_volume  133.8404808335846
_cell_formula_units_Z  1
loop_
  _symmetry_equiv_pos_site_id
 _symmetry_equiv_pos_as_xyz
 1  'x, y, z'
loop_
 _atom_site_type_symbol
 _atom_site_label
 _atom_site_symmetry_multiplicity
 _atom_site_fract_x
 _atom_site_fract_y
 _atom_site_fract_z
 _atom_site_fract_occupancy
 Li  Li1  1  0.10400  0.76662  0.49516  1
 Li  Li2  1  0.50484  0.89600  0.23338  1
 Li  Li3  1  0.23338  0.50484  0.89600  1
 Li  Li4  1  0.34480  0.34480  0.34480  1
 Li  Li5  1  0.65520  0.65520  0.65520  1
 Li  Li6  1  0.76662  0.49516  0.10400  1
 Li  Li7  1  0.49516  0.10400  0.76662  1
 Li  Li8  1  0.89600  0.23338  0.50484  1
 O  O1  1  0.23635  0.90754  0.61064  1
 O  O2  1  0.38936  0.76365  0.09246  1
 O  O3  1  0.09246  0.38936  0.76365  1
 O  O4  1  0.90754  0.61064  0.23635  1
 O  O5  1  0.61064  0.23635  0.90754  1
 O  O6  1  0.76365  0.09246  0.38936  1
 Zr  Zr1  1  0.00000  0.00000  0.00000  1
