CIF file written using JARVIS-Tools package.
data_SiOs
_symmetry_space_group_name_H-M  'P2_13'
_cell_length_a       4.8284
_cell_length_b       4.8284
_cell_length_c       4.8284
_cell_angle_alpha    90
_cell_angle_beta     90
_cell_angle_gamma    90

_symmetry_Int_Tables_number  198
_chemical_formula_structural  SiOs
_chemical_formula_sum  Si4Os4
_cell_volume  112.56676233793398
_cell_formula_units_Z  4
loop_
  _symmetry_equiv_pos_site_id
 _symmetry_equiv_pos_as_xyz
 1  'x, y, z'
loop_
 _atom_site_type_symbol
 _atom_site_label
 _atom_site_symmetry_multiplicity
 _atom_site_fract_x
 _atom_site_fract_y
 _atom_site_fract_z
 _atom_site_fract_occupancy
 Os  Os1  1  0.88055  0.61945  0.38055  1
 Os  Os2  1  0.61945  0.38055  0.88055  1
 Os  Os3  1  0.38055  0.88055  0.61945  1
 Os  Os4  1  0.11945  0.11945  0.11945  1
 Si  Si1  1  0.16613  0.33387  0.66613  1
 Si  Si2  1  0.33387  0.66613  0.16613  1
 Si  Si3  1  0.66613  0.16613  0.33387  1
 Si  Si4  1  0.83387  0.83387  0.83387  1
