CIF file written using JARVIS-Tools package.
data_Li3VO3F2
_symmetry_space_group_name_H-M  'P1'
_cell_length_a       3.59153
_cell_length_b       5.28191
_cell_length_c       5.33632
_cell_angle_alpha    84.1094
_cell_angle_beta     108.78
_cell_angle_gamma    108.693

_symmetry_Int_Tables_number  1
_chemical_formula_structural  Li3VO3F2
_chemical_formula_sum  Li3VO3F2
_cell_volume  90.78557451551929
_cell_formula_units_Z  1
loop_
  _symmetry_equiv_pos_site_id
 _symmetry_equiv_pos_as_xyz
 1  'x, y, z'
loop_
 _atom_site_type_symbol
 _atom_site_label
 _atom_site_symmetry_multiplicity
 _atom_site_fract_x
 _atom_site_fract_y
 _atom_site_fract_z
 _atom_site_fract_occupancy
 F  F1  1  0.24744  0.12374  0.38055  1
 F  F2  1  0.91034  0.58568  0.23492  1
 Li  Li1  1  0.16817  0.77990  0.53375  1
 Li  Li2  1  0.66603  0.44296  0.90345  1
 Li  Li3  1  0.81932  0.24944  0.40551  1
 O  O1  1  0.05493  0.30679  0.80577  1
 O  O2  1  0.53067  0.00604  0.05418  1
 O  O3  1  0.75830  0.78241  0.71857  1
 V  V1  1  -0.00892  0.00931  -0.03044  1
