CIF file written using JARVIS-Tools package.
data_Si3Bi2O9
_symmetry_space_group_name_H-M  'P6_3/m'
_cell_length_a       6.84408
_cell_length_b       6.84407
_cell_length_c       9.65547
_cell_angle_alpha    90
_cell_angle_beta     90
_cell_angle_gamma    120

_symmetry_Int_Tables_number  176
_chemical_formula_structural  Si3Bi2O9
_chemical_formula_sum  Si6Bi4O8
_cell_volume  391.6820813560594
_cell_formula_units_Z  2
loop_
  _symmetry_equiv_pos_site_id
 _symmetry_equiv_pos_as_xyz
 1  'x, y, z'
loop_
 _atom_site_type_symbol
 _atom_site_label
 _atom_site_symmetry_multiplicity
 _atom_site_fract_x
 _atom_site_fract_y
 _atom_site_fract_z
 _atom_site_fract_occupancy
 Bi  Bi1  1  0.33333  0.66667  0.47129  1
 Bi  Bi2  1  0.33333  0.66667  0.02871  1
 Bi  Bi3  1  0.66667  0.33333  0.52871  1
 Bi  Bi4  1  0.66667  0.33333  0.97129  1
 O  O1  1  0.65625  0.58479  0.39118  1
 O  O2  1  0.19429  0.24823  0.25000  1
 O  O3  1  0.58479  0.92854  0.60882  1
 O  O4  1  0.34375  0.41521  0.89118  1
 O  O5  1  0.34375  0.41521  0.60882  1
 O  O6  1  0.05394  0.80571  0.25000  1
 O  O7  1  0.92854  0.34375  0.39118  1
 O  O8  1  0.92854  0.34375  0.10882  1
 O  O9  1  0.94606  0.19429  0.75000  1
 O  O10  1  0.80571  0.75177  0.75000  1
 O  O11  1  0.41521  0.07146  0.39118  1
 O  O12  1  0.58479  0.92854  0.89118  1
 O  O13  1  0.65625  0.58479  0.10882  1
 O  O14  1  0.24823  0.05394  0.75000  1
 O  O15  1  0.75177  0.94606  0.25000  1
 O  O16  1  0.41521  0.07146  0.10882  1
 O  O17  1  0.07146  0.65625  0.60882  1
 O  O18  1  0.07146  0.65625  0.89118  1
 Si  Si1  1  0.28078  0.06255  0.25000  1
 Si  Si2  1  0.06255  0.78177  0.75000  1
 Si  Si3  1  0.93745  0.21823  0.25000  1
 Si  Si4  1  0.78177  0.71922  0.25000  1
 Si  Si5  1  0.71922  0.93745  0.75000  1
 Si  Si6  1  0.21823  0.28078  0.75000  1
