CIF file written using JARVIS-Tools package.
data_H10C14O
_symmetry_space_group_name_H-M  'C2'
_cell_length_a       5.99931
_cell_length_b       7.17906
_cell_length_c       11.9411
_cell_angle_alpha    94.5088
_cell_angle_beta     104.548
_cell_angle_gamma    114.684

_symmetry_Int_Tables_number  5
_chemical_formula_structural  H10C14O
_chemical_formula_sum  H20C28O2
_cell_volume  442.36279115899407
_cell_formula_units_Z  2
loop_
  _symmetry_equiv_pos_site_id
 _symmetry_equiv_pos_as_xyz
 1  'x, y, z'
loop_
 _atom_site_type_symbol
 _atom_site_label
 _atom_site_symmetry_multiplicity
 _atom_site_fract_x
 _atom_site_fract_y
 _atom_site_fract_z
 _atom_site_fract_occupancy
 C  C1  1  0.69495  0.44457  0.69441  1
 C  C2  1  0.69496  0.94457  0.19441  1
 C  C3  1  0.47242  0.25944  0.63695  1
 C  C4  1  0.46242  0.62573  0.04169  1
 C  C5  1  0.46241  0.12572  0.54169  1
 C  C6  1  0.17096  0.87378  0.79152  1
 C  C7  1  0.17097  0.37378  0.29152  1
 C  C8  1  0.39280  0.50895  0.38588  1
 C  C9  1  0.39280  0.00895  0.88587  1
 C  C10  1  0.20757  0.24734  0.91044  1
 C  C11  1  0.40835  0.69068  0.44523  1
 C  C12  1  0.20757  0.74733  0.41044  1
 C  C13  1  0.91046  0.36398  0.56616  1
 C  C14  1  0.91821  0.49923  0.66052  1
 C  C15  1  0.96852  0.92855  0.75768  1
 C  C16  1  0.96853  0.42854  0.25768  1
 C  C17  1  0.68496  0.68226  0.00685  1
 C  C18  1  0.68495  0.18226  0.50685  1
 C  C19  1  0.98862  0.11370  0.81518  1
 C  C20  1  0.98862  0.61370  0.31518  1
 C  C21  1  0.91047  0.86398  0.06616  1
 C  C22  1  0.20779  0.43656  0.97608  1
 C  C23  1  0.20779  0.93656  0.47608  1
 C  C24  1  0.16742  0.18649  0.22600  1
 C  C25  1  0.16741  0.68649  0.72600  1
 C  C26  1  0.91822  0.99924  0.16052  1
 C  C27  1  0.47243  0.75944  0.13696  1
 C  C28  1  0.40835  0.19069  0.94523  1
 H  H1  1  0.69326  0.54568  0.76637  1
 H  H2  1  0.79377  0.82750  0.68572  1
 H  H3  1  0.30267  0.72029  0.16583  1
 H  H4  1  0.30266  0.22029  0.66583  1
 H  H5  1  0.55093  0.96780  0.91242  1
 H  H6  1  0.82918  0.15294  0.78635  1
 H  H7  1  0.82918  0.65294  0.28635  1
 H  H8  1  0.08312  0.90504  0.03957  1
 H  H9  1  0.08312  0.40504  0.53957  1
 H  H10  1  0.68076  0.58315  0.93184  1
 H  H11  1  0.68076  0.08314  0.43184  1
 H  H12  1  0.79377  0.32750  0.18572  1
 H  H13  1  0.08914  0.48889  0.91247  1
 H  H14  1  0.08914  0.98888  0.41247  1
 H  H15  1  0.10047  0.38431  0.03970  1
 H  H16  1  0.10047  0.88430  0.53970  1
 H  H17  1  0.57827  0.28972  0.02024  1
 H  H18  1  0.57826  0.78972  0.52024  1
 H  H19  1  0.69327  0.04569  0.26637  1
 H  H20  1  0.55094  0.46780  0.41242  1
 O  O1  1  0.37452  0.68647  0.72597  1
 O  O2  1  0.37453  0.18647  0.22598  1
