CIF file written using JARVIS-Tools package.
data_Ag6Mo2ClO7F3
_symmetry_space_group_name_H-M  'P3m1'
_cell_length_a       7.46359
_cell_length_b       7.46359
_cell_length_c       5.94261
_cell_angle_alpha    90
_cell_angle_beta     90
_cell_angle_gamma    120

_symmetry_Int_Tables_number  156
_chemical_formula_structural  Ag6Mo2ClO7F3
_chemical_formula_sum  Ag6Mo2ClO7F3
_cell_volume  286.6838471197761
_cell_formula_units_Z  1
loop_
  _symmetry_equiv_pos_site_id
 _symmetry_equiv_pos_as_xyz
 1  'x, y, z'
loop_
 _atom_site_type_symbol
 _atom_site_label
 _atom_site_symmetry_multiplicity
 _atom_site_fract_x
 _atom_site_fract_y
 _atom_site_fract_z
 _atom_site_fract_occupancy
 Ag  Ag1  1  0.82143  0.17857  0.81850  1
 Ag  Ag2  1  0.49511  0.50489  0.26250  1
 Ag  Ag3  1  0.00979  0.50489  0.26250  1
 Ag  Ag4  1  0.35715  0.17857  0.81850  1
 Ag  Ag5  1  0.82143  0.64285  0.81850  1
 Ag  Ag6  1  0.49511  0.99021  0.26250  1
 Cl  Cl1  1  0.66667  0.33333  0.50414  1
 F  F1  1  0.11733  0.88267  0.56908  1
 F  F2  1  0.11733  0.23466  0.56908  1
 F  F3  1  0.76534  0.88267  0.56908  1
 Mo  Mo1  1  0.33333  0.66667  0.74937  1
 Mo  Mo2  1  0.00000  0.00000  0.32232  1
 O  O1  1  0.24765  0.12382  0.18959  1
 O  O2  1  0.46064  0.92127  0.86737  1
 O  O3  1  0.87618  0.12382  0.18959  1
 O  O4  1  0.87618  0.75235  0.18959  1
 O  O5  1  0.46064  0.53936  0.86737  1
 O  O6  1  0.33333  0.66667  0.44247  1
 O  O7  1  0.07873  0.53936  0.86737  1
