CIF file written using JARVIS-Tools package.
data_Li3Ti4O8
_symmetry_space_group_name_H-M  'C2/m'
_cell_length_a       5.77831
_cell_length_b       5.7515
_cell_length_c       5.846
_cell_angle_alpha    60.5131
_cell_angle_beta     60.3824
_cell_angle_gamma    90

_symmetry_Int_Tables_number  12
_chemical_formula_structural  Li3Ti4O8
_chemical_formula_sum  Li3Ti4O8
_cell_volume  139.21939234437036
_cell_formula_units_Z  1
loop_
  _symmetry_equiv_pos_site_id
 _symmetry_equiv_pos_as_xyz
 1  'x, y, z'
loop_
 _atom_site_type_symbol
 _atom_site_label
 _atom_site_symmetry_multiplicity
 _atom_site_fract_x
 _atom_site_fract_y
 _atom_site_fract_z
 _atom_site_fract_occupancy
 Li  Li1  1  0.50000  0.50000  0.50000  1
 Li  Li2  1  -0.00000  0.50000  0.50000  1
 Li  Li3  1  -0.00000  0.50000  -0.00000  1
 O  O1  1  0.75822  0.74904  0.99296  1
 O  O2  1  0.24882  0.74904  0.99296  1
 O  O3  1  0.75016  0.74297  0.49967  1
 O  O4  1  0.24314  0.76796  0.51372  1
 O  O5  1  0.75686  0.23204  0.48628  1
 O  O6  1  0.24984  0.25703  0.50033  1
 O  O7  1  0.75118  0.25096  0.00704  1
 O  O8  1  0.24178  0.25096  0.00704  1
 Ti  Ti1  1  0.50000  0.50000  -0.00000  1
 Ti  Ti2  1  0.50000  0.00000  0.50000  1
 Ti  Ti3  1  -0.00000  0.00000  0.50000  1
 Ti  Ti4  1  0.00000  0.00000  0.00000  1
