CIF file written using JARVIS-Tools package.
data_LiCoS2
_symmetry_space_group_name_H-M  'R3m'
_cell_length_a       3.40039
_cell_length_b       6.46508
_cell_length_c       3.40038
_cell_angle_alpha    105.247
_cell_angle_beta     60
_cell_angle_gamma    105.247

_symmetry_Int_Tables_number  160
_chemical_formula_structural  LiCoS2
_chemical_formula_sum  LiCoS2
_cell_volume  61.6813004013446
_cell_formula_units_Z  1
loop_
  _symmetry_equiv_pos_site_id
 _symmetry_equiv_pos_as_xyz
 1  'x, y, z'
loop_
 _atom_site_type_symbol
 _atom_site_label
 _atom_site_symmetry_multiplicity
 _atom_site_fract_x
 _atom_site_fract_y
 _atom_site_fract_z
 _atom_site_fract_occupancy
 Co  Co1  1  0.00103  0.00310  0.00103  1
 Li  Li1  1  0.14507  0.43520  0.14507  1
 S  S1  1  0.27318  0.81955  0.27318  1
 S  S2  1  0.73372  0.20116  0.73372  1
