CIF file written using JARVIS-Tools package.
data_Ni3Se4
_symmetry_space_group_name_H-M  'C2/m'
_cell_length_a       3.67038
_cell_length_b       6.21055
_cell_length_c       6.36694
_cell_angle_alpha    119.984
_cell_angle_beta     106.752
_cell_angle_gamma    90

_symmetry_Int_Tables_number  12
_chemical_formula_structural  Ni3Se4
_chemical_formula_sum  Ni3Se4
_cell_volume  118.54603095482163
_cell_formula_units_Z  1
loop_
  _symmetry_equiv_pos_site_id
 _symmetry_equiv_pos_as_xyz
 1  'x, y, z'
loop_
 _atom_site_type_symbol
 _atom_site_label
 _atom_site_symmetry_multiplicity
 _atom_site_fract_x
 _atom_site_fract_y
 _atom_site_fract_z
 _atom_site_fract_occupancy
 Ni  Ni1  1  0.00000  0.00000  0.00000  1
 Ni  Ni2  1  0.26038  0.24108  0.52076  1
 Ni  Ni3  1  0.73962  0.75892  0.47924  1
 Se  Se1  1  0.11844  0.78007  0.23689  1
 Se  Se2  1  0.88156  0.21993  0.76311  1
 Se  Se3  1  0.63453  0.29380  0.26906  1
 Se  Se4  1  0.36547  0.70620  0.73094  1
