CIF file written using JARVIS-Tools package.
data_BaYF5
_symmetry_space_group_name_H-M  'P4/mmm'
_cell_length_a       3.87981
_cell_length_b       3.87917
_cell_length_c       6.6559
_cell_angle_alpha    90.0026
_cell_angle_beta     90.0177
_cell_angle_gamma    90.0032

_symmetry_Int_Tables_number  123
_chemical_formula_structural  BaYF5
_chemical_formula_sum  BaYF5
_cell_volume  100.17432336657329
_cell_formula_units_Z  1
loop_
  _symmetry_equiv_pos_site_id
 _symmetry_equiv_pos_as_xyz
 1  'x, y, z'
loop_
 _atom_site_type_symbol
 _atom_site_label
 _atom_site_symmetry_multiplicity
 _atom_site_fract_x
 _atom_site_fract_y
 _atom_site_fract_z
 _atom_site_fract_occupancy
 Ba  Ba1  1  0.98812  0.00008  0.50000  1
 F  F1  1  0.48818  0.00007  0.81308  1
 F  F2  1  0.48794  0.00006  0.18694  1
 F  F3  1  0.98809  0.50005  0.81307  1
 F  F4  1  0.98805  0.50007  0.18692  1
 F  F5  1  0.48817  0.50009  0.50000  1
 Y  Y1  1  0.48803  0.50006  -0.00000  1
