CIF file written using JARVIS-Tools package.
data_V3O2F6
_symmetry_space_group_name_H-M  'P2_1/c'
_cell_length_a       5.41391
_cell_length_b       4.71194
_cell_length_c       10.0368
_cell_angle_alpha    90
_cell_angle_beta     95.4821
_cell_angle_gamma    90

_symmetry_Int_Tables_number  14
_chemical_formula_structural  V3O2F6
_chemical_formula_sum  V6O4F2
_cell_volume  254.8686269541923
_cell_formula_units_Z  2
loop_
  _symmetry_equiv_pos_site_id
 _symmetry_equiv_pos_as_xyz
 1  'x, y, z'
loop_
 _atom_site_type_symbol
 _atom_site_label
 _atom_site_symmetry_multiplicity
 _atom_site_fract_x
 _atom_site_fract_y
 _atom_site_fract_z
 _atom_site_fract_occupancy
 F  F1  1  0.02821  0.21837  0.19417  1
 F  F2  1  0.21570  0.67602  0.07373  1
 F  F3  1  0.78430  0.32398  0.92627  1
 F  F4  1  0.97179  0.78163  0.80583  1
 F  F5  1  0.02821  0.28163  0.69417  1
 F  F6  1  0.30499  0.18395  0.92443  1
 F  F7  1  0.69501  0.68395  0.57557  1
 F  F8  1  0.30499  0.31605  0.42443  1
 F  F9  1  0.78430  0.17602  0.42627  1
 F  F10  1  0.97179  0.71837  0.30583  1
 F  F11  1  0.69501  0.81605  0.07557  1
 F  F12  1  0.21570  0.82398  0.57373  1
 O  O1  1  0.52786  0.31513  0.17734  1
 O  O2  1  0.47214  0.81513  0.32266  1
 O  O3  1  0.52786  0.18487  0.67734  1
 O  O4  1  0.47214  0.68487  0.82266  1
 V  V1  1  0.73306  0.01941  0.24463  1
 V  V2  1  0.26694  0.51941  0.25537  1
 V  V3  1  0.50000  0.00000  0.50000  1
 V  V4  1  0.73306  0.48059  0.74463  1
 V  V5  1  0.26694  0.98059  0.75537  1
 V  V6  1  0.50000  0.50000  0.00000  1
