CIF file written using JARVIS-Tools package.
data_ZnFe4S8
_symmetry_space_group_name_H-M  'R-3m'
_cell_length_a       7.11435
_cell_length_b       7.11435
_cell_length_c       7.11435
_cell_angle_alpha    54.7481
_cell_angle_beta     54.7481
_cell_angle_gamma    54.7481

_symmetry_Int_Tables_number  166
_chemical_formula_structural  ZnFe4S8
_chemical_formula_sum  ZnFe4S8
_cell_volume  223.47400394350197
_cell_formula_units_Z  1
loop_
  _symmetry_equiv_pos_site_id
 _symmetry_equiv_pos_as_xyz
 1  'x, y, z'
loop_
 _atom_site_type_symbol
 _atom_site_label
 _atom_site_symmetry_multiplicity
 _atom_site_fract_x
 _atom_site_fract_y
 _atom_site_fract_z
 _atom_site_fract_occupancy
 Fe  Fe1  1  0.50000  1.00000  0.50000  1
 Fe  Fe2  1  1.00000  0.50000  0.50000  1
 Fe  Fe3  1  0.50000  0.50000  -0.00000  1
 Fe  Fe4  1  0.00000  0.00000  0.00000  1
 S  S1  1  0.75813  0.26729  0.75813  1
 S  S2  1  0.24187  0.24187  0.73271  1
 S  S3  1  0.24187  0.73272  0.24187  1
 S  S4  1  0.73271  0.24187  0.24187  1
 S  S5  1  0.26117  0.26117  0.26117  1
 S  S6  1  0.73883  0.73883  0.73883  1
 S  S7  1  0.26729  0.75813  0.75813  1
 S  S8  1  0.75813  0.75813  0.26729  1
 Zn  Zn1  1  0.50000  0.50000  0.50000  1
