CIF file written using JARVIS-Tools package.
data_CdH10C7O4
_symmetry_space_group_name_H-M  'P1'
_cell_length_a       3.77734
_cell_length_b       4.34591
_cell_length_c       11.1996
_cell_angle_alpha    92.6851
_cell_angle_beta     96.4919
_cell_angle_gamma    100.809

_symmetry_Int_Tables_number  1
_chemical_formula_structural  CdH10C7O4
_chemical_formula_sum  CdH0C7O4
_cell_volume  178.996183154938
_cell_formula_units_Z  1
loop_
  _symmetry_equiv_pos_site_id
 _symmetry_equiv_pos_as_xyz
 1  'x, y, z'
loop_
 _atom_site_type_symbol
 _atom_site_label
 _atom_site_symmetry_multiplicity
 _atom_site_fract_x
 _atom_site_fract_y
 _atom_site_fract_z
 _atom_site_fract_occupancy
 C  C1  1  0.88958  0.44665  0.97304  1
 C  C2  1  0.78054  0.32285  0.09050  1
 C  C3  1  0.77984  0.55645  0.19658  1
 C  C4  1  0.67679  0.37933  0.30662  1
 C  C5  1  0.65412  0.58599  0.41889  1
 C  C6  1  0.53149  0.38477  0.52075  1
 C  C7  1  0.48702  0.56376  0.63509  1
 Cd  Cd1  1  0.21442  0.96067  0.79904  1
 H  H1  1  0.72716  0.23508  0.54700  1
 H  H2  1  0.91964  0.73810  0.44954  1
 H  H3  1  0.96922  0.16434  0.11511  1
 H  H4  1  0.51467  0.16500  0.06986  1
 H  H5  1  0.41224  0.21939  0.28144  1
 H  H6  1  0.87173  0.22519  0.32927  1
 H  H7  1  0.04841  0.71085  0.21797  1
 H  H8  1  0.58508  0.70824  0.17171  1
 H  H9  1  0.46450  0.74446  0.39658  1
 H  H10  1  0.27282  0.22243  0.49090  1
 O  O1  1  0.67185  0.84193  0.66246  1
 O  O2  1  0.09442  0.71436  0.97285  1
 O  O3  1  0.25219  0.44325  0.70177  1
 O  O4  1  0.78353  0.25986  0.87766  1
