CIF file written using JARVIS-Tools package.
data_Ca2N
_symmetry_space_group_name_H-M  'R-3m'
_cell_length_a       6.67109
_cell_length_b       6.67109
_cell_length_c       6.67109
_cell_angle_alpha    31.173
_cell_angle_beta     31.173
_cell_angle_gamma    31.173

_symmetry_Int_Tables_number  166
_chemical_formula_structural  Ca2N
_chemical_formula_sum  Ca2N
_cell_volume  70.58557738258777
_cell_formula_units_Z  1
loop_
  _symmetry_equiv_pos_site_id
 _symmetry_equiv_pos_as_xyz
 1  'x, y, z'
loop_
 _atom_site_type_symbol
 _atom_site_label
 _atom_site_symmetry_multiplicity
 _atom_site_fract_x
 _atom_site_fract_y
 _atom_site_fract_z
 _atom_site_fract_occupancy
 Ca  Ca1  1  0.73263  0.73263  0.73263  1
 Ca  Ca2  1  0.26737  0.26737  0.26737  1
 N  N1  1  0.00000  0.00000  0.00000  1
