CIF file written using JARVIS-Tools package.
data_Sm4S3N2
_symmetry_space_group_name_H-M  'C2/m'
_cell_length_a       3.92784
_cell_length_b       6.89847
_cell_length_c       8.13396
_cell_angle_alpha    84.5302
_cell_angle_beta     76.0281
_cell_angle_gamma    73.4598

_symmetry_Int_Tables_number  12
_chemical_formula_structural  Sm4S3N2
_chemical_formula_sum  Sm4S3N2
_cell_volume  204.94347938688227
_cell_formula_units_Z  1
loop_
  _symmetry_equiv_pos_site_id
 _symmetry_equiv_pos_as_xyz
 1  'x, y, z'
loop_
 _atom_site_type_symbol
 _atom_site_label
 _atom_site_symmetry_multiplicity
 _atom_site_fract_x
 _atom_site_fract_y
 _atom_site_fract_z
 _atom_site_fract_occupancy
 N  N1  1  0.35408  0.93210  0.35974  1
 N  N2  1  0.64592  0.06790  0.64026  1
 S  S1  1  0.00000  0.00000  0.00000  1
 S  S2  1  0.83157  0.55749  0.77937  1
 S  S3  1  0.16843  0.44251  0.22063  1
 Sm  Sm1  1  0.24512  0.86293  0.64683  1
 Sm  Sm2  1  0.75488  0.13707  0.35317  1
 Sm  Sm3  1  0.56430  0.72901  0.14238  1
 Sm  Sm4  1  0.43570  0.27099  0.85762  1
