CIF file written using JARVIS-Tools package.
data_ZnH6C5O4
_symmetry_space_group_name_H-M  'P1'
_cell_length_a       3.8527
_cell_length_b       4.54988
_cell_length_c       8.5115
_cell_angle_alpha    85.6518
_cell_angle_beta     93.2234
_cell_angle_gamma    70.4645

_symmetry_Int_Tables_number  1
_chemical_formula_structural  ZnH6C5O4
_chemical_formula_sum  ZnH6C5O4
_cell_volume  139.67772620948895
_cell_formula_units_Z  1
loop_
  _symmetry_equiv_pos_site_id
 _symmetry_equiv_pos_as_xyz
 1  'x, y, z'
loop_
 _atom_site_type_symbol
 _atom_site_label
 _atom_site_symmetry_multiplicity
 _atom_site_fract_x
 _atom_site_fract_y
 _atom_site_fract_z
 _atom_site_fract_occupancy
 C  C1  1  0.21482  0.10066  0.54117  1
 C  C2  1  0.18688  0.32403  0.39678  1
 C  C3  1  0.32135  0.16361  0.24886  1
 C  C4  1  0.28727  0.40988  0.11133  1
 C  C5  1  0.39415  0.29181  0.95371  1
 H  H1  1  -0.09914  0.48625  0.37573  1
 H  H2  1  0.35771  0.46477  0.43143  1
 H  H3  1  0.15454  0.01902  0.21690  1
 H  H4  1  0.00679  0.58272  0.09354  1
 H  H5  1  0.60844  0.00491  0.27342  1
 H  H6  1  0.46597  0.54815  0.13893  1
 O  O1  1  -0.04498  0.17467  0.63193  1
 O  O2  1  0.50050  0.85097  0.56806  1
 O  O3  1  0.61752  0.01053  0.95280  1
 O  O4  1  0.27915  0.47618  0.82705  1
 Zn  Zn1  1  0.83378  0.84037  0.75727  1
