CIF file written using JARVIS-Tools package.
data_HoTaO4
_symmetry_space_group_name_H-M  'P-4m2'
_cell_length_a       3.58267
_cell_length_b       3.58267
_cell_length_c       5.37743
_cell_angle_alpha    90
_cell_angle_beta     90
_cell_angle_gamma    90

_symmetry_Int_Tables_number  115
_chemical_formula_structural  HoTaO4
_chemical_formula_sum  HoTaO4
_cell_volume  69.0221760885187
_cell_formula_units_Z  1
loop_
  _symmetry_equiv_pos_site_id
 _symmetry_equiv_pos_as_xyz
 1  'x, y, z'
loop_
 _atom_site_type_symbol
 _atom_site_label
 _atom_site_symmetry_multiplicity
 _atom_site_fract_x
 _atom_site_fract_y
 _atom_site_fract_z
 _atom_site_fract_occupancy
 Ho  Ho1  1  0.50000  0.50000  0.50000  1
 O  O1  1  0.50000  0.00000  0.82136  1
 O  O2  1  0.50000  0.00000  0.26939  1
 O  O3  1  0.00000  0.50000  0.17864  1
 O  O4  1  0.00000  0.50000  0.73061  1
 Ta  Ta1  1  0.00000  0.00000  0.00000  1
