CIF file written using JARVIS-Tools package.
data_Li5FeS4
_symmetry_space_group_name_H-M  'Pmmn'
_cell_length_a       5.8104
_cell_length_b       7.75283
_cell_length_c       7.87165
_cell_angle_alpha    90
_cell_angle_beta     90
_cell_angle_gamma    90

_symmetry_Int_Tables_number  59
_chemical_formula_structural  Li5FeS4
_chemical_formula_sum  Li0Fe2S8
_cell_volume  354.594650094771
_cell_formula_units_Z  2
loop_
  _symmetry_equiv_pos_site_id
 _symmetry_equiv_pos_as_xyz
 1  'x, y, z'
loop_
 _atom_site_type_symbol
 _atom_site_label
 _atom_site_symmetry_multiplicity
 _atom_site_fract_x
 _atom_site_fract_y
 _atom_site_fract_z
 _atom_site_fract_occupancy
 Fe  Fe1  1  0.22865  0.00000  0.50000  1
 Fe  Fe2  1  0.77135  0.50000  0.00000  1
 Li  Li1  1  0.25285  0.74474  0.21190  1
 Li  Li2  1  0.25285  0.25526  0.21190  1
 Li  Li3  1  0.79060  0.00000  0.00000  1
 Li  Li4  1  0.25285  0.74474  0.78810  1
 Li  Li5  1  0.25285  0.25526  0.78810  1
 Li  Li6  1  0.74715  0.75526  0.71190  1
 Li  Li7  1  0.74715  0.24474  0.71190  1
 Li  Li8  1  0.20940  0.50000  0.50000  1
 Li  Li9  1  0.74715  0.75526  0.28810  1
 Li  Li10  1  0.74715  0.24474  0.28810  1
 S  S1  1  0.44610  0.75546  0.50000  1
 S  S2  1  0.44610  0.24454  0.50000  1
 S  S3  1  0.98738  0.50000  0.24057  1
 S  S4  1  0.55390  0.74454  0.00000  1
 S  S5  1  0.55390  0.25546  0.00000  1
 S  S6  1  0.98738  0.50000  0.75943  1
 S  S7  1  0.01262  0.00000  0.74057  1
 S  S8  1  0.01262  0.00000  0.25943  1
