CIF file written using JARVIS-Tools package.
data_Dy2O3
_symmetry_space_group_name_H-M  'P-3m1'
_cell_length_a       3.67243
_cell_length_b       3.67243
_cell_length_c       5.83277
_cell_angle_alpha    90
_cell_angle_beta     90
_cell_angle_gamma    120

_symmetry_Int_Tables_number  164
_chemical_formula_structural  Dy2O3
_chemical_formula_sum  Dy2O3
_cell_volume  68.1259494800828
_cell_formula_units_Z  1
loop_
  _symmetry_equiv_pos_site_id
 _symmetry_equiv_pos_as_xyz
 1  'x, y, z'
loop_
 _atom_site_type_symbol
 _atom_site_label
 _atom_site_symmetry_multiplicity
 _atom_site_fract_x
 _atom_site_fract_y
 _atom_site_fract_z
 _atom_site_fract_occupancy
 Dy  Dy1  1  0.66667  0.33333  0.75145  1
 Dy  Dy2  1  0.33333  0.66667  0.24855  1
 O  O1  1  0.66667  0.33333  0.35416  1
 O  O2  1  0.33333  0.66667  0.64584  1
 O  O3  1  0.00000  0.00000  0.00000  1
