CIF file written using JARVIS-Tools package.
data_DyGa
_symmetry_space_group_name_H-M  'Cmcm'
_cell_length_a       4.0378
_cell_length_b       4.3184
_cell_length_c       5.81921
_cell_angle_alpha    111.78
_cell_angle_beta     90
_cell_angle_gamma    90

_symmetry_Int_Tables_number  63
_chemical_formula_structural  DyGa
_chemical_formula_sum  Dy2Ga2
_cell_volume  94.22500524637823
_cell_formula_units_Z  2
loop_
  _symmetry_equiv_pos_site_id
 _symmetry_equiv_pos_as_xyz
 1  'x, y, z'
loop_
 _atom_site_type_symbol
 _atom_site_label
 _atom_site_symmetry_multiplicity
 _atom_site_fract_x
 _atom_site_fract_y
 _atom_site_fract_z
 _atom_site_fract_occupancy
 Dy  Dy1  1  0.25000  0.86068  0.72137  1
 Dy  Dy2  1  0.75000  0.13932  0.27863  1
 Ga  Ga1  1  0.25000  0.57765  0.15531  1
 Ga  Ga2  1  0.75000  0.42235  0.84469  1
