CIF file written using JARVIS-Tools package.
data_H4IN
_symmetry_space_group_name_H-M  'Imm2'
_cell_length_a       4.95176
_cell_length_b       5.09947
_cell_length_c       5.09948
_cell_angle_alpha    62.2256
_cell_angle_beta     60.9537
_cell_angle_gamma    60.9536

_symmetry_Int_Tables_number  44
_chemical_formula_structural  H4IN
_chemical_formula_sum  H4IN
_cell_volume  93.84157278184708
_cell_formula_units_Z  1
loop_
  _symmetry_equiv_pos_site_id
 _symmetry_equiv_pos_as_xyz
 1  'x, y, z'
loop_
 _atom_site_type_symbol
 _atom_site_label
 _atom_site_symmetry_multiplicity
 _atom_site_fract_x
 _atom_site_fract_y
 _atom_site_fract_z
 _atom_site_fract_occupancy
 H  H1  1  0.13201  0.83888  0.16112  1
 H  H2  1  0.13201  0.16112  0.83888  1
 H  H3  1  0.77202  0.11921  0.11921  1
 H  H4  1  0.01043  0.88079  0.88079  1
 I  I1  1  0.49423  0.50000  0.50000  1
 N  N1  1  0.00829  0.00000  0.00000  1
