CIF file written using JARVIS-Tools package.
data_Fe2CuGe2
_symmetry_space_group_name_H-M  'Pmma'
_cell_length_a       3.93261
_cell_length_b       4.95488
_cell_length_c       6.79128
_cell_angle_alpha    90
_cell_angle_beta     90
_cell_angle_gamma    90

_symmetry_Int_Tables_number  51
_chemical_formula_structural  Fe2CuGe2
_chemical_formula_sum  Fe4Cu2Ge4
_cell_volume  132.33227619875595
_cell_formula_units_Z  2
loop_
  _symmetry_equiv_pos_site_id
 _symmetry_equiv_pos_as_xyz
 1  'x, y, z'
loop_
 _atom_site_type_symbol
 _atom_site_label
 _atom_site_symmetry_multiplicity
 _atom_site_fract_x
 _atom_site_fract_y
 _atom_site_fract_z
 _atom_site_fract_occupancy
 Cu  Cu1  1  0.00000  0.00000  0.00000  1
 Cu  Cu2  1  0.00000  0.50000  0.00000  1
 Fe  Fe1  1  0.50000  0.25000  0.84665  1
 Fe  Fe2  1  0.50000  0.75000  0.15335  1
 Fe  Fe3  1  0.50000  0.50000  0.50000  1
 Fe  Fe4  1  0.50000  0.00000  0.50000  1
 Ge  Ge1  1  0.00000  0.25000  0.62715  1
 Ge  Ge2  1  0.00000  0.75000  0.37285  1
 Ge  Ge3  1  0.50000  0.75000  0.80292  1
 Ge  Ge4  1  0.50000  0.25000  0.19708  1
