CIF file written using JARVIS-Tools package.
data_Sr4LiCuC2O10
_symmetry_space_group_name_H-M  'I-42m'
_cell_length_a       5.54327
_cell_length_b       8.3277
_cell_length_c       5.54327
_cell_angle_alpha    70.5599
_cell_angle_beta     90
_cell_angle_gamma    109.44

_symmetry_Int_Tables_number  121
_chemical_formula_structural  Sr4LiCuC2O10
_chemical_formula_sum  Sr4LiCuC2O0
_cell_volume  225.77446409726474
_cell_formula_units_Z  1
loop_
  _symmetry_equiv_pos_site_id
 _symmetry_equiv_pos_as_xyz
 1  'x, y, z'
loop_
 _atom_site_type_symbol
 _atom_site_label
 _atom_site_symmetry_multiplicity
 _atom_site_fract_x
 _atom_site_fract_y
 _atom_site_fract_z
 _atom_site_fract_occupancy
 C  C1  1  0.76315  0.52629  0.23685  1
 C  C2  1  0.23685  0.47371  0.76315  1
 Cu  Cu1  1  0.50000  0.00000  0.50000  1
 Li  Li1  1  0.00000  0.00000  0.00000  1
 O  O1  1  0.42417  0.55961  0.57583  1
 O  O2  1  0.14836  0.29673  0.85164  1
 O  O3  1  0.26060  0.99321  0.26738  1
 O  O4  1  0.57583  0.44039  0.13543  1
 O  O5  1  0.73940  0.00679  0.26060  1
 O  O6  1  0.86457  0.44039  0.42417  1
 O  O7  1  0.13543  0.55961  0.86457  1
 O  O8  1  0.73262  0.99321  0.73940  1
 O  O9  1  0.85164  0.70327  0.14836  1
 O  O10  1  0.26738  0.00679  0.73262  1
 Sr  Sr1  1  0.88587  0.77174  0.61413  1
 Sr  Sr2  1  0.61413  0.22826  0.88587  1
 Sr  Sr3  1  0.38587  0.77174  0.11413  1
 Sr  Sr4  1  0.11413  0.22826  0.38587  1
