CIF file written using JARVIS-Tools package.
data_TlSe
_symmetry_space_group_name_H-M  'I4/mcm'
_cell_length_a       6.74213
_cell_length_b       6.74212
_cell_length_c       6.74213
_cell_angle_alpha    106.22
_cell_angle_beta     106.22
_cell_angle_gamma    116.189

_symmetry_Int_Tables_number  140
_chemical_formula_structural  TlSe
_chemical_formula_sum  Tl4Se4
_cell_volume  233.4623154747458
_cell_formula_units_Z  4
loop_
  _symmetry_equiv_pos_site_id
 _symmetry_equiv_pos_as_xyz
 1  'x, y, z'
loop_
 _atom_site_type_symbol
 _atom_site_label
 _atom_site_symmetry_multiplicity
 _atom_site_fract_x
 _atom_site_fract_y
 _atom_site_fract_z
 _atom_site_fract_occupancy
 Se  Se1  1  0.68194  0.18194  0.86388  1
 Se  Se2  1  0.18194  0.31806  0.50000  1
 Se  Se3  1  0.81806  0.68194  0.50000  1
 Se  Se4  1  0.31806  0.81806  0.13612  1
 Tl  Tl1  1  0.25000  0.25000  0.00000  1
 Tl  Tl2  1  0.75000  0.75000  0.00000  1
 Tl  Tl3  1  0.75000  0.25000  0.50000  1
 Tl  Tl4  1  0.25000  0.75000  0.50000  1
