CIF file written using JARVIS-Tools package.
data_Er2Co3Ge5
_symmetry_space_group_name_H-M  'C2/c'
_cell_length_a       8.04926
_cell_length_b       8.04926
_cell_length_c       5.72864
_cell_angle_alpha    70.4764
_cell_angle_beta     109.524
_cell_angle_gamma    86.2693

_symmetry_Int_Tables_number  15
_chemical_formula_structural  Er2Co3Ge5
_chemical_formula_sum  Er4Co6Ge0
_cell_volume  323.1155216249228
_cell_formula_units_Z  2
loop_
  _symmetry_equiv_pos_site_id
 _symmetry_equiv_pos_as_xyz
 1  'x, y, z'
loop_
 _atom_site_type_symbol
 _atom_site_label
 _atom_site_symmetry_multiplicity
 _atom_site_fract_x
 _atom_site_fract_y
 _atom_site_fract_z
 _atom_site_fract_occupancy
 Co  Co1  1  0.26026  0.45837  0.37938  1
 Co  Co2  1  0.99494  0.99494  0.75000  1
 Co  Co3  1  0.00506  0.00506  0.25000  1
 Co  Co4  1  0.45837  0.26026  0.12062  1
 Co  Co5  1  0.73974  0.54163  0.62062  1
 Co  Co6  1  0.54163  0.73974  0.87938  1
 Er  Er1  1  0.59159  0.12695  0.73121  1
 Er  Er2  1  0.40841  0.87305  0.26879  1
 Er  Er3  1  0.87305  0.40841  0.23121  1
 Er  Er4  1  0.12695  0.59159  0.76879  1
 Ge  Ge1  1  0.50930  0.50930  0.25000  1
 Ge  Ge2  1  0.22834  0.22834  0.75000  1
 Ge  Ge3  1  0.73941  0.07961  0.32471  1
 Ge  Ge4  1  0.07961  0.73941  0.17529  1
 Ge  Ge5  1  0.26059  0.92039  0.67529  1
 Ge  Ge6  1  0.92039  0.26059  0.82471  1
 Ge  Ge7  1  0.78538  0.78538  0.75000  1
 Ge  Ge8  1  0.21462  0.21462  0.25000  1
 Ge  Ge9  1  0.49070  0.49070  0.75000  1
 Ge  Ge10  1  0.77166  0.77166  0.25000  1
