CIF file written using JARVIS-Tools package.
data_Li4FeSi2O7
_symmetry_space_group_name_H-M  'Cc'
_cell_length_a       5.40358
_cell_length_b       7.17068
_cell_length_c       8.01059
_cell_angle_alpha    85.6395
_cell_angle_beta     90
_cell_angle_gamma    67.8655

_symmetry_Int_Tables_number  9
_chemical_formula_structural  Li4FeSi2O7
_chemical_formula_sum  Li8Fe2Si4O4
_cell_volume  286.54396920055325
_cell_formula_units_Z  2
loop_
  _symmetry_equiv_pos_site_id
 _symmetry_equiv_pos_as_xyz
 1  'x, y, z'
loop_
 _atom_site_type_symbol
 _atom_site_label
 _atom_site_symmetry_multiplicity
 _atom_site_fract_x
 _atom_site_fract_y
 _atom_site_fract_z
 _atom_site_fract_occupancy
 Fe  Fe1  1  0.68832  0.29993  0.79737  1
 Fe  Fe2  1  0.01175  0.29993  0.29737  1
 Li  Li1  1  0.81883  0.99432  0.52329  1
 Li  Li2  1  0.18686  0.99432  0.02329  1
 Li  Li3  1  0.42851  0.44519  0.44581  1
 Li  Li4  1  0.73719  0.84756  0.87621  1
 Li  Li5  1  0.53287  0.58539  0.09285  1
 Li  Li6  1  0.88174  0.58539  0.59285  1
 Li  Li7  1  0.41525  0.84756  0.37621  1
 Li  Li8  1  0.12630  0.44519  0.94581  1
 O  O1  1  0.04556  0.67089  0.77213  1
 O  O2  1  0.08048  0.21823  0.83800  1
 O  O3  1  0.52105  0.33069  0.01945  1
 O  O4  1  0.14826  0.33069  0.51945  1
 O  O5  1  0.91032  0.55003  0.14063  1
 O  O6  1  0.53965  0.55003  0.64063  1
 O  O7  1  0.28356  0.67089  0.27213  1
 O  O8  1  0.79145  0.78142  0.40553  1
 O  O9  1  0.33230  0.08874  0.20753  1
 O  O10  1  0.84258  0.94338  0.10230  1
 O  O11  1  0.21403  0.94338  0.60230  1
 O  O12  1  0.57897  0.08874  0.70753  1
 O  O13  1  0.70128  0.21823  0.33800  1
 O  O14  1  0.42713  0.78142  0.90553  1
 Si  Si1  1  0.30676  0.72663  0.73862  1
 Si  Si2  1  0.59327  0.14858  0.16996  1
 Si  Si3  1  0.25815  0.14858  0.66996  1
 Si  Si4  1  0.96661  0.72663  0.23862  1
