CIF file written using JARVIS-Tools package.
data_Te2MoWSe2
_symmetry_space_group_name_H-M  'P3m1'
_cell_length_a       3.44451
_cell_length_b       3.44453
_cell_length_c       36.6279
_cell_angle_alpha    89.9998
_cell_angle_beta     90.0017
_cell_angle_gamma    119.999

_symmetry_Int_Tables_number  156
_chemical_formula_structural  Te2MoWSe2
_chemical_formula_sum  Te4Mo2W2Se4
_cell_volume  376.3590209408589
_cell_formula_units_Z  2
loop_
  _symmetry_equiv_pos_site_id
 _symmetry_equiv_pos_as_xyz
 1  'x, y, z'
loop_
 _atom_site_type_symbol
 _atom_site_label
 _atom_site_symmetry_multiplicity
 _atom_site_fract_x
 _atom_site_fract_y
 _atom_site_fract_z
 _atom_site_fract_occupancy
 Mo  Mo1  1  0.33334  0.66669  0.46400  1
 Mo  Mo2  1  0.66665  0.33331  0.27686  1
 Se  Se1  1  0.33333  0.66667  0.32153  1
 Se  Se2  1  0.66662  0.33328  0.05484  1
 Se  Se3  1  0.66663  0.33325  0.14444  1
 Se  Se4  1  0.33329  0.66663  0.23222  1
 Te  Te1  1  0.33340  0.66674  0.71339  1
 Te  Te2  1  0.66665  0.33333  0.41324  1
 Te  Te3  1  0.66670  0.33338  0.51475  1
 Te  Te4  1  0.33337  0.66672  0.61142  1
 W  W1  1  0.33329  0.66661  0.09961  1
 W  W2  1  0.66672  0.33340  0.66246  1
