CIF file written using JARVIS-Tools package.
data_Na2UO4
_symmetry_space_group_name_H-M  'I4/mmm'
_cell_length_a       4.33491
_cell_length_b       4.33491
_cell_length_c       6.66862
_cell_angle_alpha    108.968
_cell_angle_beta     108.968
_cell_angle_gamma    89.998

_symmetry_Int_Tables_number  139
_chemical_formula_structural  Na2UO4
_chemical_formula_sum  Na2UO4
_cell_volume  111.28962605143242
_cell_formula_units_Z  1
loop_
  _symmetry_equiv_pos_site_id
 _symmetry_equiv_pos_as_xyz
 1  'x, y, z'
loop_
 _atom_site_type_symbol
 _atom_site_label
 _atom_site_symmetry_multiplicity
 _atom_site_fract_x
 _atom_site_fract_y
 _atom_site_fract_z
 _atom_site_fract_occupancy
 Na  Na1  1  0.64726  0.64726  0.29453  1
 Na  Na2  1  0.35274  0.35274  0.70547  1
 O  O1  1  -0.00000  0.50000  -0.00000  1
 O  O2  1  0.50000  -0.00000  0.00000  1
 O  O3  1  0.83633  0.83633  0.67265  1
 O  O4  1  0.16367  0.16367  0.32735  1
 U  U1  1  0.00000  0.00000  0.00000  1
