CIF file written using JARVIS-Tools package.
data_InSn3Se4
_symmetry_space_group_name_H-M  'P4/mmm'
_cell_length_a       4.25848
_cell_length_b       4.25898
_cell_length_c       12.1218
_cell_angle_alpha    89.9872
_cell_angle_beta     90
_cell_angle_gamma    90

_symmetry_Int_Tables_number  123
_chemical_formula_structural  InSn3Se4
_chemical_formula_sum  InSn3Se4
_cell_volume  219.85102548430845
_cell_formula_units_Z  1
loop_
  _symmetry_equiv_pos_site_id
 _symmetry_equiv_pos_as_xyz
 1  'x, y, z'
loop_
 _atom_site_type_symbol
 _atom_site_label
 _atom_site_symmetry_multiplicity
 _atom_site_fract_x
 _atom_site_fract_y
 _atom_site_fract_z
 _atom_site_fract_occupancy
 In  In1  1  0.00000  0.74986  0.37501  1
 Se  Se1  1  0.00000  0.75001  0.12517  1
 Se  Se2  1  0.00000  0.75031  0.62486  1
 Se  Se3  1  0.50000  0.25006  0.87499  1
 Se  Se4  1  0.50000  0.24990  0.37500  1
 Sn  Sn1  1  0.00000  0.74990  0.87501  1
 Sn  Sn2  1  0.50000  0.24996  0.62446  1
 Sn  Sn3  1  0.50000  0.25000  0.12548  1
