CIF file written using JARVIS-Tools package.
data_LiAgF3
_symmetry_space_group_name_H-M  'R3c'
_cell_length_a       5.3912
_cell_length_b       5.86702
_cell_length_c       5.3912
_cell_angle_alpha    62.6484
_cell_angle_beta     60
_cell_angle_gamma    62.6484

_symmetry_Int_Tables_number  161
_chemical_formula_structural  LiAgF3
_chemical_formula_sum  Li2Ag2F6
_cell_volume  125.18298486578338
_cell_formula_units_Z  2
loop_
  _symmetry_equiv_pos_site_id
 _symmetry_equiv_pos_as_xyz
 1  'x, y, z'
loop_
 _atom_site_type_symbol
 _atom_site_label
 _atom_site_symmetry_multiplicity
 _atom_site_fract_x
 _atom_site_fract_y
 _atom_site_fract_z
 _atom_site_fract_occupancy
 Ag  Ag1  1  0.51267  0.46198  0.51267  1
 Ag  Ag2  1  0.01267  0.96198  0.01267  1
 F  F1  1  0.94006  0.24450  0.59129  1
 F  F2  1  0.44006  0.74450  0.72415  1
 F  F3  1  0.72415  0.74450  0.09129  1
 F  F4  1  0.59129  0.24450  0.22415  1
 F  F5  1  0.22415  0.24450  0.94006  1
 F  F6  1  0.09129  0.74450  0.44006  1
 Li  Li1  1  0.80130  0.59611  0.80130  1
 Li  Li2  1  0.30130  0.09611  0.30130  1
