CIF file written using JARVIS-Tools package.
data_Nd5AgS8
_symmetry_space_group_name_H-M  'I-4'
_cell_length_a       7.41972
_cell_length_b       7.41972
_cell_length_c       7.41972
_cell_angle_alpha    109.776
_cell_angle_beta     109.776
_cell_angle_gamma    108.864

_symmetry_Int_Tables_number  82
_chemical_formula_structural  Nd5AgS8
_chemical_formula_sum  Nd5AgS8
_cell_volume  314.415890829267
_cell_formula_units_Z  1
loop_
  _symmetry_equiv_pos_site_id
 _symmetry_equiv_pos_as_xyz
 1  'x, y, z'
loop_
 _atom_site_type_symbol
 _atom_site_label
 _atom_site_symmetry_multiplicity
 _atom_site_fract_x
 _atom_site_fract_y
 _atom_site_fract_z
 _atom_site_fract_occupancy
 Ag  Ag1  1  0.87500  0.12500  0.75000  1
 Nd  Nd1  1  0.11158  0.74359  0.86953  1
 Nd  Nd2  1  0.25641  0.62594  0.36799  1
 Nd  Nd3  1  0.37406  0.24205  0.63047  1
 Nd  Nd4  1  0.62500  0.37500  0.25000  1
 Nd  Nd5  1  0.75795  0.88842  0.13201  1
 S  S1  1  0.99066  0.85012  0.49852  1
 S  S2  1  0.48214  0.99190  0.85426  1
 S  S3  1  0.50786  0.00934  0.35946  1
 S  S4  1  0.14988  0.14840  0.14054  1
 S  S5  1  0.37212  0.51786  0.00976  1
 S  S6  1  0.63764  0.62788  0.64574  1
 S  S7  1  0.85160  0.49214  0.00148  1
 S  S8  1  0.00810  0.36236  0.49024  1
