CIF file written using JARVIS-Tools package.
data_NdAsO4
_symmetry_space_group_name_H-M  'I4_1/amd'
_cell_length_a       6.1234
_cell_length_b       6.1234
_cell_length_c       6.1234
_cell_angle_alpha    106.543
_cell_angle_beta     106.542
_cell_angle_gamma    115.502

_symmetry_Int_Tables_number  141
_chemical_formula_structural  NdAsO4
_chemical_formula_sum  Nd2As2O8
_cell_volume  175.26450619078997
_cell_formula_units_Z  2
loop_
  _symmetry_equiv_pos_site_id
 _symmetry_equiv_pos_as_xyz
 1  'x, y, z'
loop_
 _atom_site_type_symbol
 _atom_site_label
 _atom_site_symmetry_multiplicity
 _atom_site_fract_x
 _atom_site_fract_y
 _atom_site_fract_z
 _atom_site_fract_occupancy
 As  As1  1  0.62498  0.37498  0.25000  1
 As  As2  1  0.37502  0.62502  0.75000  1
 Nd  Nd1  1  0.87501  0.12501  0.75000  1
 Nd  Nd2  1  0.12499  0.87499  0.25000  1
 O  O1  1  0.79480  0.36552  0.07071  1
 O  O2  1  0.27587  0.20516  0.07071  1
 O  O3  1  0.63445  0.20516  0.42929  1
 O  O4  1  0.79480  0.72409  0.42929  1
 O  O5  1  0.20520  0.27591  0.57071  1
 O  O6  1  0.72413  0.79484  0.92929  1
 O  O7  1  0.36555  0.79484  0.57071  1
 O  O8  1  0.20520  0.63448  0.92929  1
