CIF file written using JARVIS-Tools package.
data_K2NbO3F
_symmetry_space_group_name_H-M  'I4mm'
_cell_length_a       7.41947
_cell_length_b       7.41947
_cell_length_c       7.41947
_cell_angle_alpha    148.733
_cell_angle_beta     148.733
_cell_angle_gamma    44.8041

_symmetry_Int_Tables_number  107
_chemical_formula_structural  K2NbO3F
_chemical_formula_sum  K2NbO3F
_cell_volume  109.68723110616413
_cell_formula_units_Z  1
loop_
  _symmetry_equiv_pos_site_id
 _symmetry_equiv_pos_as_xyz
 1  'x, y, z'
loop_
 _atom_site_type_symbol
 _atom_site_label
 _atom_site_symmetry_multiplicity
 _atom_site_fract_x
 _atom_site_fract_y
 _atom_site_fract_z
 _atom_site_fract_occupancy
 F  F1  1  0.15504  0.15504  -0.00000  1
 K  K1  1  0.65026  0.65026  0.00000  1
 K  K2  1  0.34298  0.34298  0.00000  1
 Nb  Nb1  1  0.98815  0.98815  0.00000  1
 O  O1  1  0.50527  0.00527  0.50000  1
 O  O2  1  0.00527  0.50527  0.50000  1
 O  O3  1  0.85302  0.85302  0.00000  1
