CIF file written using JARVIS-Tools package.
data_CuI
_symmetry_space_group_name_H-M  'R3m'
_cell_length_a       14.2901
_cell_length_b       14.2901
_cell_length_c       14.2901
_cell_angle_alpha    17.2313
_cell_angle_beta     17.2313
_cell_angle_gamma    17.2313

_symmetry_Int_Tables_number  160
_chemical_formula_structural  CuI
_chemical_formula_sum  Cu4I4
_cell_volume  223.4360463458951
_cell_formula_units_Z  4
loop_
  _symmetry_equiv_pos_site_id
 _symmetry_equiv_pos_as_xyz
 1  'x, y, z'
loop_
 _atom_site_type_symbol
 _atom_site_label
 _atom_site_symmetry_multiplicity
 _atom_site_fract_x
 _atom_site_fract_y
 _atom_site_fract_z
 _atom_site_fract_occupancy
 Cu  Cu1  1  0.27027  0.27027  0.27027  1
 Cu  Cu2  1  0.43743  0.43743  0.43743  1
 Cu  Cu3  1  0.68707  0.68707  0.68707  1
 Cu  Cu4  1  0.85397  0.85397  0.85397  1
 I  I1  1  0.20826  0.20826  0.20826  1
 I  I2  1  0.37510  0.37510  0.37510  1
 I  I3  1  0.62487  0.62487  0.62487  1
 I  I4  1  0.79182  0.79182  0.79182  1
