CIF file written using JARVIS-Tools package.
data_Li6CuF8
_symmetry_space_group_name_H-M  'Fm-3m'
_cell_length_a       5.79316
_cell_length_b       5.79316
_cell_length_c       5.79315
_cell_angle_alpha    120
_cell_angle_beta     60
_cell_angle_gamma    120

_symmetry_Int_Tables_number  225
_chemical_formula_structural  Li6CuF8
_chemical_formula_sum  Li6CuF8
_cell_volume  137.4773896401204
_cell_formula_units_Z  1
loop_
  _symmetry_equiv_pos_site_id
 _symmetry_equiv_pos_as_xyz
 1  'x, y, z'
loop_
 _atom_site_type_symbol
 _atom_site_label
 _atom_site_symmetry_multiplicity
 _atom_site_fract_x
 _atom_site_fract_y
 _atom_site_fract_z
 _atom_site_fract_occupancy
 Cu  Cu1  1  0.00000  0.00000  0.00000  1
 F  F1  1  0.25000  0.75000  0.25000  1
 F  F2  1  0.24481  0.24481  0.24481  1
 F  F3  1  0.24481  0.75519  0.75519  1
 F  F4  1  0.24481  0.24481  0.75519  1
 F  F5  1  0.75519  0.75519  0.24481  1
 F  F6  1  0.75519  0.24481  0.24481  1
 F  F7  1  0.75519  0.75519  0.75519  1
 F  F8  1  0.75000  0.25000  0.75000  1
 Li  Li1  1  -0.00000  0.50000  0.00000  1
 Li  Li2  1  -0.00000  0.50000  0.50000  1
 Li  Li3  1  -0.00000  0.00000  0.50000  1
 Li  Li4  1  0.50000  0.50000  0.00000  1
 Li  Li5  1  0.50000  0.00000  0.00000  1
 Li  Li6  1  0.50000  0.00000  0.50000  1
