CIF file written using JARVIS-Tools package.
data_YCl
_symmetry_space_group_name_H-M  'R-3m'
_cell_length_a       9.49851
_cell_length_b       9.49851
_cell_length_c       9.49852
_cell_angle_alpha    22.6827
_cell_angle_beta     22.6826
_cell_angle_gamma    22.6827

_symmetry_Int_Tables_number  166
_chemical_formula_structural  YCl
_chemical_formula_sum  Y2Cl2
_cell_volume  111.8062998713092
_cell_formula_units_Z  2
loop_
  _symmetry_equiv_pos_site_id
 _symmetry_equiv_pos_as_xyz
 1  'x, y, z'
loop_
 _atom_site_type_symbol
 _atom_site_label
 _atom_site_symmetry_multiplicity
 _atom_site_fract_x
 _atom_site_fract_y
 _atom_site_fract_z
 _atom_site_fract_occupancy
 Cl  Cl1  1  0.38668  0.38668  0.38668  1
 Cl  Cl2  1  0.61332  0.61332  0.61332  1
 Y  Y1  1  0.21756  0.21756  0.21756  1
 Y  Y2  1  0.78244  0.78244  0.78244  1
