CIF file written using JARVIS-Tools package.
data_Zr2NiP
_symmetry_space_group_name_H-M  'P2_1/m'
_cell_length_a       5.26974
_cell_length_b       3.66041
_cell_length_c       7.47819
_cell_angle_alpha    90
_cell_angle_beta     110.517
_cell_angle_gamma    90

_symmetry_Int_Tables_number  11
_chemical_formula_structural  Zr2NiP
_chemical_formula_sum  Zr4Ni2P2
_cell_volume  135.09966717738124
_cell_formula_units_Z  2
loop_
  _symmetry_equiv_pos_site_id
 _symmetry_equiv_pos_as_xyz
 1  'x, y, z'
loop_
 _atom_site_type_symbol
 _atom_site_label
 _atom_site_symmetry_multiplicity
 _atom_site_fract_x
 _atom_site_fract_y
 _atom_site_fract_z
 _atom_site_fract_occupancy
 Ni  Ni1  1  0.64565  0.25000  0.29139  1
 Ni  Ni2  1  0.35435  0.75000  0.70861  1
 P  P1  1  0.13982  0.25000  0.79016  1
 P  P2  1  0.86018  0.75000  0.20984  1
 Zr  Zr1  1  0.71569  0.25000  0.92378  1
 Zr  Zr2  1  0.28431  0.75000  0.07622  1
 Zr  Zr3  1  0.22110  0.25000  0.43107  1
 Zr  Zr4  1  0.77890  0.75000  0.56893  1
