CIF file written using JARVIS-Tools package.
data_ZnFeO3
_symmetry_space_group_name_H-M  'Pnma'
_cell_length_a       5.00414
_cell_length_b       5.06395
_cell_length_c       8.83928
_cell_angle_alpha    90
_cell_angle_beta     124.48
_cell_angle_gamma    90

_symmetry_Int_Tables_number  62
_chemical_formula_structural  ZnFeO3
_chemical_formula_sum  Zn4Fe4O2
_cell_volume  184.64326849165343
_cell_formula_units_Z  4
loop_
  _symmetry_equiv_pos_site_id
 _symmetry_equiv_pos_as_xyz
 1  'x, y, z'
loop_
 _atom_site_type_symbol
 _atom_site_label
 _atom_site_symmetry_multiplicity
 _atom_site_fract_x
 _atom_site_fract_y
 _atom_site_fract_z
 _atom_site_fract_occupancy
 Fe  Fe1  1  0.50000  0.00000  -0.00000  1
 Fe  Fe2  1  0.00000  0.50000  0.00000  1
 Fe  Fe3  1  0.50000  0.50000  0.50000  1
 Fe  Fe4  1  0.00000  0.00000  0.50000  1
 O  O1  1  0.37654  0.31122  0.06066  1
 O  O2  1  0.86526  0.55590  0.75000  1
 O  O3  1  0.24477  0.68878  0.56066  1
 O  O4  1  0.13474  0.05590  0.75000  1
 O  O5  1  0.13474  0.44410  0.25000  1
 O  O6  1  0.86526  0.94410  0.25000  1
 O  O7  1  0.37654  0.18878  0.56066  1
 O  O8  1  0.62346  0.81122  0.43934  1
 O  O9  1  0.62346  0.68878  0.93934  1
 O  O10  1  0.75523  0.31122  0.43934  1
 O  O11  1  0.75523  0.18878  0.93934  1
 O  O12  1  0.24477  0.81122  0.06066  1
 Zn  Zn1  1  0.74580  0.95514  0.74999  1
 Zn  Zn2  1  0.74580  0.54486  0.24999  1
 Zn  Zn3  1  0.25420  0.45514  0.75001  1
 Zn  Zn4  1  0.25420  0.04486  0.25001  1
