CIF file written using JARVIS-Tools package.
data_B4CCl6O
_symmetry_space_group_name_H-M  'R3m'
_cell_length_a       6.72084
_cell_length_b       6.72084
_cell_length_c       6.72084
_cell_angle_alpha    107.239
_cell_angle_beta     107.238
_cell_angle_gamma    107.238

_symmetry_Int_Tables_number  160
_chemical_formula_structural  B4CCl6O
_chemical_formula_sum  B4CCl6O
_cell_volume  251.16005448696984
_cell_formula_units_Z  1
loop_
  _symmetry_equiv_pos_site_id
 _symmetry_equiv_pos_as_xyz
 1  'x, y, z'
loop_
 _atom_site_type_symbol
 _atom_site_label
 _atom_site_symmetry_multiplicity
 _atom_site_fract_x
 _atom_site_fract_y
 _atom_site_fract_z
 _atom_site_fract_occupancy
 B  B1  1  0.05908  0.32068  0.32068  1
 B  B2  1  0.32068  0.32068  0.05908  1
 B  B3  1  0.30301  0.30301  0.30301  1
 B  B4  1  0.32068  0.05908  0.32068  1
 C  C1  1  0.50469  0.50469  0.50469  1
 Cl  Cl1  1  0.07305  0.54689  0.54689  1
 Cl  Cl2  1  0.78555  0.11430  0.11430  1
 Cl  Cl3  1  0.11430  0.11430  0.78555  1
 Cl  Cl4  1  0.11430  0.78555  0.11430  1
 Cl  Cl5  1  0.54689  0.07305  0.54689  1
 Cl  Cl6  1  0.54689  0.54689  0.07305  1
 O  O1  1  0.65858  0.65858  0.65858  1
