CIF file written using JARVIS-Tools package.
data_Co5O8
_symmetry_space_group_name_H-M  'F-43m'
_cell_length_a       5.67213
_cell_length_b       5.67213
_cell_length_c       5.67214
_cell_angle_alpha    89.9999
_cell_angle_beta     60
_cell_angle_gamma    60

_symmetry_Int_Tables_number  216
_chemical_formula_structural  Co5O8
_chemical_formula_sum  Co5O8
_cell_volume  129.0400269808358
_cell_formula_units_Z  1
loop_
  _symmetry_equiv_pos_site_id
 _symmetry_equiv_pos_as_xyz
 1  'x, y, z'
loop_
 _atom_site_type_symbol
 _atom_site_label
 _atom_site_symmetry_multiplicity
 _atom_site_fract_x
 _atom_site_fract_y
 _atom_site_fract_z
 _atom_site_fract_occupancy
 Co  Co1  1  0.49565  0.49783  0.50217  1
 Co  Co2  1  0.49565  0.00652  0.50217  1
 Co  Co3  1  0.25000  0.87500  0.12500  1
 Co  Co4  1  0.00435  0.49783  0.50217  1
 Co  Co5  1  0.00435  0.49783  0.99348  1
 O  O1  1  0.97775  0.73888  0.26112  1
 O  O2  1  0.97775  0.28337  0.26112  1
 O  O3  1  0.52225  0.73888  0.71663  1
 O  O4  1  0.52225  0.73888  0.26112  1
 O  O5  1  0.46945  0.26528  0.73472  1
 O  O6  1  0.46945  0.26528  0.29583  1
 O  O7  1  0.03055  0.70417  0.73472  1
 O  O8  1  0.03055  0.26528  0.73472  1
