CIF file written using JARVIS-Tools package.
data_Co2CuO4
_symmetry_space_group_name_H-M  'Imma'
_cell_length_a       5.84337
_cell_length_b       5.84337
_cell_length_c       5.84337
_cell_angle_alpha    58.1798
_cell_angle_beta     93.0359
_cell_angle_gamma    121.716

_symmetry_Int_Tables_number  74
_chemical_formula_structural  Co2CuO4
_chemical_formula_sum  Co4Cu2O8
_cell_volume  137.10343528035705
_cell_formula_units_Z  2
loop_
  _symmetry_equiv_pos_site_id
 _symmetry_equiv_pos_as_xyz
 1  'x, y, z'
loop_
 _atom_site_type_symbol
 _atom_site_label
 _atom_site_symmetry_multiplicity
 _atom_site_fract_x
 _atom_site_fract_y
 _atom_site_fract_z
 _atom_site_fract_occupancy
 Co  Co1  1  0.01202  -0.00000  0.98798  1
 Co  Co2  1  0.62500  0.25000  0.62500  1
 Co  Co3  1  0.23798  0.50000  0.26202  1
 Co  Co4  1  0.12500  0.75000  0.62500  1
 Cu  Cu1  1  0.62500  0.25000  0.12500  1
 Cu  Cu2  1  0.62500  0.75000  0.62500  1
 O  O1  1  0.83938  0.23787  0.39849  1
 O  O2  1  0.36755  0.22841  0.40403  1
 O  O3  1  0.88245  0.27159  0.84597  1
 O  O4  1  0.88245  0.72841  0.38914  1
 O  O5  1  0.88637  0.73787  0.85151  1
 O  O6  1  0.41062  0.26213  0.85151  1
 O  O7  1  0.36363  0.76213  0.39849  1
 O  O8  1  0.36755  0.77159  0.86086  1
