CIF file written using JARVIS-Tools package.
data_Al2FeS4
_symmetry_space_group_name_H-M  'R3m'
_cell_length_a       3.54535
_cell_length_b       3.54535
_cell_length_c       12.1164
_cell_angle_alpha    81.5873
_cell_angle_beta     81.5873
_cell_angle_gamma    59.9999

_symmetry_Int_Tables_number  160
_chemical_formula_structural  Al2FeS4
_chemical_formula_sum  Al2FeS4
_cell_volume  129.99735746310185
_cell_formula_units_Z  1
loop_
  _symmetry_equiv_pos_site_id
 _symmetry_equiv_pos_as_xyz
 1  'x, y, z'
loop_
 _atom_site_type_symbol
 _atom_site_label
 _atom_site_symmetry_multiplicity
 _atom_site_fract_x
 _atom_site_fract_y
 _atom_site_fract_z
 _atom_site_fract_occupancy
 Al  Al1  1  0.69987  0.69987  0.90039  1
 Al  Al2  1  0.46858  0.46858  0.59427  1
 Fe  Fe1  1  0.93696  0.93696  0.18912  1
 S  S1  1  -0.00027  -0.00027  0.00081  1
 S  S2  1  0.82965  0.82965  0.51105  1
 S  S3  1  0.58605  0.58605  0.24185  1
 S  S4  1  0.40636  0.40636  0.78092  1
