CIF file written using JARVIS-Tools package.
data_Mg3H2O4
_symmetry_space_group_name_H-M  'P-3m1'
_cell_length_a       3.05318
_cell_length_b       3.05318
_cell_length_c       19.4377
_cell_angle_alpha    90
_cell_angle_beta     90
_cell_angle_gamma    120

_symmetry_Int_Tables_number  164
_chemical_formula_structural  Mg3H2O4
_chemical_formula_sum  Mg6H4O8
_cell_volume  156.9207932767306
_cell_formula_units_Z  2
loop_
  _symmetry_equiv_pos_site_id
 _symmetry_equiv_pos_as_xyz
 1  'x, y, z'
loop_
 _atom_site_type_symbol
 _atom_site_label
 _atom_site_symmetry_multiplicity
 _atom_site_fract_x
 _atom_site_fract_y
 _atom_site_fract_z
 _atom_site_fract_occupancy
 H  H1  1  0.66667  0.33333  0.01703  1
 H  H2  1  0.33333  0.66667  0.98297  1
 H  H3  1  0.33333  0.66667  0.52263  1
 H  H4  1  0.66667  0.33333  0.47737  1
 Mg  Mg1  1  0.00000  0.00000  0.87812  1
 Mg  Mg2  1  0.33333  0.66667  0.75275  1
 Mg  Mg3  1  0.66667  0.33333  0.24725  1
 Mg  Mg4  1  0.33333  0.66667  0.37262  1
 Mg  Mg5  1  0.66667  0.33333  0.62738  1
 Mg  Mg6  1  0.00000  0.00000  0.12188  1
 O  O1  1  0.66667  0.33333  0.81528  1
 O  O2  1  0.00000  0.00000  0.69023  1
 O  O3  1  0.66667  0.33333  0.06708  1
 O  O4  1  0.00000  0.00000  0.30977  1
 O  O5  1  0.33333  0.66667  0.57258  1
 O  O6  1  0.66667  0.33333  0.42742  1
 O  O7  1  0.33333  0.66667  0.93292  1
 O  O8  1  0.33333  0.66667  0.18472  1
