CIF file written using JARVIS-Tools package.
data_Ag3AuS2
_symmetry_space_group_name_H-M  'R-3m'
_cell_length_a       5.38041
_cell_length_b       5.38041
_cell_length_c       5.38041
_cell_angle_alpha    94.5945
_cell_angle_beta     94.5945
_cell_angle_gamma    94.5945

_symmetry_Int_Tables_number  166
_chemical_formula_structural  Ag3AuS2
_chemical_formula_sum  Ag3AuS2
_cell_volume  154.16914409402594
_cell_formula_units_Z  1
loop_
  _symmetry_equiv_pos_site_id
 _symmetry_equiv_pos_as_xyz
 1  'x, y, z'
loop_
 _atom_site_type_symbol
 _atom_site_label
 _atom_site_symmetry_multiplicity
 _atom_site_fract_x
 _atom_site_fract_y
 _atom_site_fract_z
 _atom_site_fract_occupancy
 Ag  Ag1  1  0.16668  0.66669  0.16668  1
 Ag  Ag2  1  0.16668  0.16668  0.66669  1
 Ag  Ag3  1  0.66669  0.16668  0.16668  1
 Au  Au1  1  0.66665  0.66665  0.66665  1
 S  S1  1  0.93518  0.93518  0.93518  1
 S  S2  1  0.39812  0.39812  0.39812  1
