CIF file written using JARVIS-Tools package.
data_Li5SbO5
_symmetry_space_group_name_H-M  'C2/m'
_cell_length_a       4.04081
_cell_length_b       5.26088
_cell_length_c       5.82793
_cell_angle_alpha    107.465
_cell_angle_beta     90
_cell_angle_gamma    112.584

_symmetry_Int_Tables_number  12
_chemical_formula_structural  Li5SbO5
_chemical_formula_sum  Li5SbO5
_cell_volume  108.17936751037738
_cell_formula_units_Z  1
loop_
  _symmetry_equiv_pos_site_id
 _symmetry_equiv_pos_as_xyz
 1  'x, y, z'
loop_
 _atom_site_type_symbol
 _atom_site_label
 _atom_site_symmetry_multiplicity
 _atom_site_fract_x
 _atom_site_fract_y
 _atom_site_fract_z
 _atom_site_fract_occupancy
 Li  Li1  1  0.71267  0.42535  0.34466  1
 Li  Li2  1  -0.00000  0.00000  0.50000  1
 Li  Li3  1  0.31120  0.62240  0.14110  1
 Li  Li4  1  0.68880  0.37760  0.85890  1
 Li  Li5  1  0.28733  0.57465  0.65534  1
 O  O1  1  0.85449  0.70897  0.17488  1
 O  O2  1  0.50000  0.00000  0.00000  1
 O  O3  1  0.15845  0.31690  0.31942  1
 O  O4  1  0.84155  0.68310  0.68058  1
 O  O5  1  0.14551  0.29103  0.82512  1
 Sb  Sb1  1  0.00000  0.00000  0.00000  1
