CIF file written using JARVIS-Tools package.
data_Li3Nb3TeO12
_symmetry_space_group_name_H-M  'P1'
_cell_length_a       5.15677
_cell_length_b       5.50751
_cell_length_c       7.57081
_cell_angle_alpha    85.3059
_cell_angle_beta     89.829
_cell_angle_gamma    89.802

_symmetry_Int_Tables_number  1
_chemical_formula_structural  Li3Nb3TeO12
_chemical_formula_sum  Li3Nb3TeO2
_cell_volume  214.29517638146478
_cell_formula_units_Z  1
loop_
  _symmetry_equiv_pos_site_id
 _symmetry_equiv_pos_as_xyz
 1  'x, y, z'
loop_
 _atom_site_type_symbol
 _atom_site_label
 _atom_site_symmetry_multiplicity
 _atom_site_fract_x
 _atom_site_fract_y
 _atom_site_fract_z
 _atom_site_fract_occupancy
 Li  Li1  1  0.50262  0.00264  0.75343  1
 Li  Li2  1  0.49262  0.98808  0.25195  1
 Li  Li3  1  0.00382  0.50055  0.74422  1
 Nb  Nb1  1  0.49836  0.56133  0.53022  1
 Nb  Nb2  1  0.49325  0.56952  0.03506  1
 Nb  Nb3  1  0.99841  0.06405  0.52873  1
 O  O1  1  0.69413  0.90460  0.97943  1
 O  O2  1  0.32591  0.91496  0.48886  1
 O  O3  1  0.13601  0.10440  0.79804  1
 O  O4  1  0.20499  0.79767  0.11237  1
 O  O5  1  0.81040  0.77986  0.61592  1
 O  O6  1  0.17754  0.40293  0.50317  1
 O  O7  1  0.82038  0.39201  0.97623  1
 O  O8  1  0.37116  0.60894  0.79757  1
 O  O9  1  0.69225  0.27526  0.61386  1
 O  O10  1  0.30521  0.26792  0.11264  1
 O  O11  1  0.60874  0.60232  0.29076  1
 O  O12  1  0.86523  0.08555  0.28193  1
 Te  Te1  1  0.00099  0.07987  0.03602  1
