CIF file written using JARVIS-Tools package.
data_Sr2SnS4
_symmetry_space_group_name_H-M  'Ama2'
_cell_length_a       6.32522
_cell_length_b       6.32522
_cell_length_c       10.0377
_cell_angle_alpha    90
_cell_angle_beta     90
_cell_angle_gamma    109.577

_symmetry_Int_Tables_number  40
_chemical_formula_structural  Sr2SnS4
_chemical_formula_sum  Sr4Sn2S8
_cell_volume  378.3779332430282
_cell_formula_units_Z  2
loop_
  _symmetry_equiv_pos_site_id
 _symmetry_equiv_pos_as_xyz
 1  'x, y, z'
loop_
 _atom_site_type_symbol
 _atom_site_label
 _atom_site_symmetry_multiplicity
 _atom_site_fract_x
 _atom_site_fract_y
 _atom_site_fract_z
 _atom_site_fract_occupancy
 S  S1  1  0.64882  0.10020  0.44655  1
 S  S2  1  0.10020  0.64882  0.55345  1
 S  S3  1  0.64882  0.10020  0.05345  1
 S  S4  1  0.10020  0.64882  0.94655  1
 S  S5  1  0.38382  0.50200  0.25000  1
 S  S6  1  0.50200  0.38382  0.75000  1
 S  S7  1  0.95276  0.09118  0.75000  1
 S  S8  1  0.09118  0.95276  0.25000  1
 Sn  Sn1  1  0.45978  0.90255  0.25000  1
 Sn  Sn2  1  0.90255  0.45978  0.75000  1
 Sr  Sr1  1  0.20702  0.20702  0.50000  1
 Sr  Sr2  1  0.20702  0.20702  0.00000  1
 Sr  Sr3  1  0.85983  0.47725  0.25000  1
 Sr  Sr4  1  0.47725  0.85983  0.75000  1
