CIF file written using JARVIS-Tools package.
data_Ba2ZnF6
_symmetry_space_group_name_H-M  'I4/mmm'
_cell_length_a       4.16745
_cell_length_b       4.16744
_cell_length_c       8.5119
_cell_angle_alpha    104.17
_cell_angle_beta     104.17
_cell_angle_gamma    90.0001

_symmetry_Int_Tables_number  139
_chemical_formula_structural  Ba2ZnF6
_chemical_formula_sum  Ba2ZnF6
_cell_volume  138.6893274851269
_cell_formula_units_Z  1
loop_
  _symmetry_equiv_pos_site_id
 _symmetry_equiv_pos_as_xyz
 1  'x, y, z'
loop_
 _atom_site_type_symbol
 _atom_site_label
 _atom_site_symmetry_multiplicity
 _atom_site_fract_x
 _atom_site_fract_y
 _atom_site_fract_z
 _atom_site_fract_occupancy
 Ba  Ba1  1  0.84987  0.84987  0.69974  1
 Ba  Ba2  1  0.15013  0.15013  0.30026  1
 F  F1  1  0.62242  0.62242  0.24485  1
 F  F2  1  0.37758  0.37758  0.75515  1
 F  F3  1  -0.00000  0.50000  -0.00000  1
 F  F4  1  0.75000  0.25000  0.50000  1
 F  F5  1  0.25000  0.75000  0.50000  1
 F  F6  1  0.50000  0.00000  -0.00000  1
 Zn  Zn1  1  0.50000  0.50000  -0.00000  1
