CIF file written using JARVIS-Tools package.
data_Ni3Sn4
_symmetry_space_group_name_H-M  'C2/m'
_cell_length_a       4.08456
_cell_length_b       5.28153
_cell_length_c       6.49746
_cell_angle_alpha    103.963
_cell_angle_beta     108.32
_cell_angle_gamma    90

_symmetry_Int_Tables_number  12
_chemical_formula_structural  Ni3Sn4
_chemical_formula_sum  Ni3Sn4
_cell_volume  128.69400783994587
_cell_formula_units_Z  1
loop_
  _symmetry_equiv_pos_site_id
 _symmetry_equiv_pos_as_xyz
 1  'x, y, z'
loop_
 _atom_site_type_symbol
 _atom_site_label
 _atom_site_symmetry_multiplicity
 _atom_site_fract_x
 _atom_site_fract_y
 _atom_site_fract_z
 _atom_site_fract_occupancy
 Ni  Ni1  1  0.00000  0.00000  0.00000  1
 Ni  Ni2  1  0.78365  0.66431  0.56730  1
 Ni  Ni3  1  0.21635  0.33569  0.43270  1
 Sn  Sn1  1  0.57227  0.31296  0.14453  1
 Sn  Sn2  1  0.42773  0.68704  0.85547  1
 Sn  Sn3  1  0.82842  0.18721  0.65684  1
 Sn  Sn4  1  0.17158  0.81279  0.34316  1
