CIF file written using JARVIS-Tools package.
data_Li3Fe2CoO6
_symmetry_space_group_name_H-M  'C2/m'
_cell_length_a       2.83474
_cell_length_b       5.71047
_cell_length_c       6.37375
_cell_angle_alpha    103.501
_cell_angle_beta     102.854
_cell_angle_gamma    90.002

_symmetry_Int_Tables_number  12
_chemical_formula_structural  Li3Fe2CoO6
_chemical_formula_sum  Li3Fe2CoO6
_cell_volume  97.66423160463756
_cell_formula_units_Z  1
loop_
  _symmetry_equiv_pos_site_id
 _symmetry_equiv_pos_as_xyz
 1  'x, y, z'
loop_
 _atom_site_type_symbol
 _atom_site_label
 _atom_site_symmetry_multiplicity
 _atom_site_fract_x
 _atom_site_fract_y
 _atom_site_fract_z
 _atom_site_fract_occupancy
 Co  Co1  1  0.99885  0.49816  -0.00021  1
 Fe  Fe1  1  0.66757  0.83616  0.33717  1
 Fe  Fe2  1  0.33010  0.16016  0.66242  1
 Li  Li1  1  0.66359  0.33480  0.32918  1
 Li  Li2  1  0.33404  0.66142  0.67032  1
 Li  Li3  1  -0.00109  0.99812  0.99976  1
 O  O1  1  0.50719  0.73241  0.01642  1
 O  O2  1  0.15939  0.59993  0.32088  1
 O  O3  1  0.82812  0.92512  0.65847  1
 O  O4  1  0.16955  0.07119  0.34113  1
 O  O5  1  0.83827  0.39639  0.67872  1
 O  O6  1  0.49052  0.26392  0.98317  1
