CIF file written using JARVIS-Tools package.
data_BaVClO3
_symmetry_space_group_name_H-M  'Pnma'
_cell_length_a       5.31214
_cell_length_b       7.3955
_cell_length_c       10.5518
_cell_angle_alpha    90
_cell_angle_beta     90
_cell_angle_gamma    90

_symmetry_Int_Tables_number  62
_chemical_formula_structural  BaVClO3
_chemical_formula_sum  Ba4V4Cl4O2
_cell_volume  414.5359754757564
_cell_formula_units_Z  4
loop_
  _symmetry_equiv_pos_site_id
 _symmetry_equiv_pos_as_xyz
 1  'x, y, z'
loop_
 _atom_site_type_symbol
 _atom_site_label
 _atom_site_symmetry_multiplicity
 _atom_site_fract_x
 _atom_site_fract_y
 _atom_site_fract_z
 _atom_site_fract_occupancy
 Ba  Ba1  1  0.75000  0.59647  0.30439  1
 Ba  Ba2  1  0.25000  0.40353  0.69561  1
 Ba  Ba3  1  0.25000  0.09647  0.19561  1
 Ba  Ba4  1  0.75000  0.90353  0.80439  1
 Cl  Cl1  1  0.75000  0.92465  0.10397  1
 Cl  Cl2  1  0.75000  0.57535  0.60397  1
 Cl  Cl3  1  0.25000  0.07535  0.89603  1
 Cl  Cl4  1  0.25000  0.42465  0.39603  1
 O  O1  1  0.75000  0.21617  0.35392  1
 O  O2  1  0.25000  0.78383  0.64608  1
 O  O3  1  0.99203  0.40437  0.09356  1
 O  O4  1  0.49203  0.90437  0.40644  1
 O  O5  1  0.50797  0.09563  0.59356  1
 O  O6  1  0.00797  0.90437  0.40644  1
 O  O7  1  0.75000  0.28383  0.85392  1
 O  O8  1  0.25000  0.71617  0.14608  1
 O  O9  1  0.49203  0.59563  0.90644  1
 O  O10  1  0.50797  0.40437  0.09356  1
 O  O11  1  0.99203  0.09563  0.59356  1
 O  O12  1  0.00797  0.59563  0.90644  1
 V  V1  1  0.75000  0.04868  0.45660  1
 V  V2  1  0.25000  0.54868  0.04340  1
 V  V3  1  0.25000  0.95132  0.54340  1
 V  V4  1  0.75000  0.45132  0.95660  1
