CIF file written using JARVIS-Tools package.
data_YbSmSe3
_symmetry_space_group_name_H-M  'Cmcm'
_cell_length_a       4.04968
_cell_length_b       7.41284
_cell_length_c       9.24967
_cell_angle_alpha    90
_cell_angle_beta     90
_cell_angle_gamma    105.852

_symmetry_Int_Tables_number  63
_chemical_formula_structural  YbSmSe3
_chemical_formula_sum  Yb2Sm2Se6
_cell_volume  267.1121960586773
_cell_formula_units_Z  2
loop_
  _symmetry_equiv_pos_site_id
 _symmetry_equiv_pos_as_xyz
 1  'x, y, z'
loop_
 _atom_site_type_symbol
 _atom_site_label
 _atom_site_symmetry_multiplicity
 _atom_site_fract_x
 _atom_site_fract_y
 _atom_site_fract_z
 _atom_site_fract_occupancy
 Se  Se1  1  0.89076  0.78152  0.25000  1
 Se  Se2  1  0.10924  0.21848  0.75000  1
 Se  Se3  1  0.35755  0.71509  0.57508  1
 Se  Se4  1  0.64245  0.28491  0.42492  1
 Se  Se5  1  0.35755  0.71509  0.92492  1
 Se  Se6  1  0.64245  0.28491  0.07508  1
 Sm  Sm1  1  0.75143  0.50287  0.75000  1
 Sm  Sm2  1  0.24857  0.49713  0.25000  1
 Yb  Yb1  1  0.00000  0.00000  0.00000  1
 Yb  Yb2  1  0.00000  0.00000  0.50000  1
