CIF file written using JARVIS-Tools package.
data_Ga2NiO4
_symmetry_space_group_name_H-M  'Imma'
_cell_length_a       5.89996
_cell_length_b       5.89996
_cell_length_c       5.97302
_cell_angle_alpha    59.5895
_cell_angle_beta     59.5895
_cell_angle_gamma    59.3029

_symmetry_Int_Tables_number  74
_chemical_formula_structural  Ga2NiO4
_chemical_formula_sum  Ga4Ni2O8
_cell_volume  145.3256612524766
_cell_formula_units_Z  2
loop_
  _symmetry_equiv_pos_site_id
 _symmetry_equiv_pos_as_xyz
 1  'x, y, z'
loop_
 _atom_site_type_symbol
 _atom_site_label
 _atom_site_symmetry_multiplicity
 _atom_site_fract_x
 _atom_site_fract_y
 _atom_site_fract_z
 _atom_site_fract_occupancy
 Ga  Ga1  1  0.99275  0.99275  0.00725  1
 Ga  Ga2  1  0.25725  0.25725  0.24275  1
 Ga  Ga3  1  0.62500  0.62500  0.12500  1
 Ga  Ga4  1  0.62500  0.62500  0.62500  1
 Ni  Ni1  1  0.12500  0.62500  0.62500  1
 Ni  Ni2  1  0.62500  0.12500  0.62500  1
 O  O1  1  0.38744  0.38744  0.37119  1
 O  O2  1  0.38744  0.38744  0.85393  1
 O  O3  1  0.38820  0.85822  0.37679  1
 O  O4  1  0.85822  0.38820  0.37679  1
 O  O5  1  0.39178  0.86180  0.87321  1
 O  O6  1  0.86180  0.39178  0.87321  1
 O  O7  1  0.86256  0.86256  0.39607  1
 O  O8  1  0.86256  0.86256  0.87881  1
