CIF file written using JARVIS-Tools package.
data_Li4Ti3Cu3Te2O16
_symmetry_space_group_name_H-M  'Cm'
_cell_length_a       5.95343
_cell_length_b       5.95561
_cell_length_c       10.1019
_cell_angle_alpha    91.1311
_cell_angle_beta     90.0003
_cell_angle_gamma    119.986

_symmetry_Int_Tables_number  8
_chemical_formula_structural  Li4Ti3Cu3Te2O16
_chemical_formula_sum  Li4Ti3Cu3Te2O6
_cell_volume  310.1521802454883
_cell_formula_units_Z  1
loop_
  _symmetry_equiv_pos_site_id
 _symmetry_equiv_pos_as_xyz
 1  'x, y, z'
loop_
 _atom_site_type_symbol
 _atom_site_label
 _atom_site_symmetry_multiplicity
 _atom_site_fract_x
 _atom_site_fract_y
 _atom_site_fract_z
 _atom_site_fract_occupancy
 Cu  Cu1  1  0.33778  0.16847  0.28440  1
 Cu  Cu2  1  0.83066  0.16847  0.28440  1
 Cu  Cu3  1  0.17086  0.34171  0.79782  1
 Li  Li1  1  0.34382  0.68768  0.08750  1
 Li  Li2  1  0.00802  0.01608  0.01967  1
 Li  Li3  1  0.98716  0.97432  0.51180  1
 Li  Li4  1  0.66423  0.32846  0.59849  1
 O  O1  1  0.13722  0.78649  0.39049  1
 O  O2  1  0.52819  0.05645  0.14541  1
 O  O3  1  0.34164  0.68329  0.89319  1
 O  O4  1  0.00183  0.00367  0.70551  1
 O  O5  1  -0.00008  -0.00013  0.20104  1
 O  O6  1  0.64925  0.78650  0.39049  1
 O  O7  1  0.49085  0.98175  0.68668  1
 O  O8  1  0.52303  0.53845  0.66930  1
 O  O9  1  0.14860  0.29718  0.41405  1
 O  O10  1  0.33813  0.16656  0.91775  1
 O  O11  1  0.97362  0.51901  0.13519  1
 O  O12  1  0.66757  0.33517  0.38077  1
 O  O13  1  0.01542  0.53839  0.66933  1
 O  O14  1  0.83451  0.66903  0.90575  1
 O  O15  1  0.54538  0.51904  0.13519  1
 O  O16  1  0.82836  0.16654  0.91776  1
 Te  Te1  1  0.66835  0.33675  0.01400  1
 Te  Te2  1  0.32110  0.64221  0.49559  1
 Ti  Ti1  1  0.82615  0.65230  0.27604  1
 Ti  Ti2  1  0.65084  0.81809  0.78226  1
 Ti  Ti3  1  0.16722  0.81807  0.78227  1
