CIF file written using JARVIS-Tools package.
data_CdSnO3
_symmetry_space_group_name_H-M  'R-3'
_cell_length_a       5.96682
_cell_length_b       5.96682
_cell_length_c       5.96682
_cell_angle_alpha    55.4013
_cell_angle_beta     55.4013
_cell_angle_gamma    55.4013

_symmetry_Int_Tables_number  148
_chemical_formula_structural  CdSnO3
_chemical_formula_sum  Cd2Sn2O6
_cell_volume  134.16969632235129
_cell_formula_units_Z  2
loop_
  _symmetry_equiv_pos_site_id
 _symmetry_equiv_pos_as_xyz
 1  'x, y, z'
loop_
 _atom_site_type_symbol
 _atom_site_label
 _atom_site_symmetry_multiplicity
 _atom_site_fract_x
 _atom_site_fract_y
 _atom_site_fract_z
 _atom_site_fract_occupancy
 Cd  Cd1  1  0.36707  0.36707  0.36707  1
 Cd  Cd2  1  0.63293  0.63293  0.63293  1
 O  O1  1  0.03806  0.78696  0.44412  1
 O  O2  1  0.55588  0.96194  0.21304  1
 O  O3  1  0.21304  0.55588  0.96194  1
 O  O4  1  0.78696  0.44412  0.03806  1
 O  O5  1  0.44412  0.03806  0.78696  1
 O  O6  1  0.96194  0.21304  0.55588  1
 Sn  Sn1  1  0.15349  0.15349  0.15349  1
 Sn  Sn2  1  0.84651  0.84651  0.84651  1
