CIF file written using JARVIS-Tools package.
data_YbAlO3
_symmetry_space_group_name_H-M  'P6_3/mmc'
_cell_length_a       3.36937
_cell_length_b       3.36912
_cell_length_c       11.9199
_cell_angle_alpha    89.9957
_cell_angle_beta     90.0027
_cell_angle_gamma    120.001

_symmetry_Int_Tables_number  194
_chemical_formula_structural  YbAlO3
_chemical_formula_sum  Yb2Al2O6
_cell_volume  117.18382104130582
_cell_formula_units_Z  2
loop_
  _symmetry_equiv_pos_site_id
 _symmetry_equiv_pos_as_xyz
 1  'x, y, z'
loop_
 _atom_site_type_symbol
 _atom_site_label
 _atom_site_symmetry_multiplicity
 _atom_site_fract_x
 _atom_site_fract_y
 _atom_site_fract_z
 _atom_site_fract_occupancy
 Al  Al1  1  0.33331  0.66663  0.75000  1
 Al  Al2  1  0.66674  0.33342  0.25000  1
 O  O1  1  0.33317  0.66650  0.90050  1
 O  O2  1  0.33357  0.66689  0.59950  1
 O  O3  1  0.99996  0.99995  0.75000  1
 O  O4  1  0.00008  0.00010  0.25000  1
 O  O5  1  0.66648  0.33314  0.09950  1
 O  O6  1  0.66686  0.33354  0.40050  1
 Yb  Yb1  1  0.99983  0.99982  0.00000  1
 Yb  Yb2  1  0.00021  0.00021  0.50000  1
