CIF file written using JARVIS-Tools package.
data_H6C11S2O
_symmetry_space_group_name_H-M  'P1'
_cell_length_a       4.12083
_cell_length_b       5.87245
_cell_length_c       10.0283
_cell_angle_alpha    91.3343
_cell_angle_beta     98.741
_cell_angle_gamma    107.692

_symmetry_Int_Tables_number  1
_chemical_formula_structural  H6C11S2O
_chemical_formula_sum  H6CS2O
_cell_volume  227.89320760721208
_cell_formula_units_Z  1
loop_
  _symmetry_equiv_pos_site_id
 _symmetry_equiv_pos_as_xyz
 1  'x, y, z'
loop_
 _atom_site_type_symbol
 _atom_site_label
 _atom_site_symmetry_multiplicity
 _atom_site_fract_x
 _atom_site_fract_y
 _atom_site_fract_z
 _atom_site_fract_occupancy
 C  C1  1  0.69093  0.59080  0.19894  1
 C  C2  1  0.69093  0.39016  0.27341  1
 C  C3  1  0.41951  0.46647  0.63783  1
 C  C4  1  0.55367  0.48504  0.77611  1
 C  C5  1  0.28424  0.64694  0.59650  1
 C  C6  1  0.88788  0.41584  0.39997  1
 C  C7  1  0.89753  0.81889  0.25772  1
 C  C8  1  0.08771  0.84438  0.38785  1
 C  C9  1  0.48340  0.54621  0.06342  1
 C  C10  1  0.51071  0.67749  0.84270  1
 C  C11  1  0.08984  0.64398  0.46176  1
 H  H1  1  0.24679  0.02239  0.43089  1
 H  H2  1  0.91025  0.97654  0.20111  1
 H  H3  1  0.88075  0.25746  0.45528  1
 H  H4  1  0.53540  0.21303  0.22831  1
 H  H5  1  0.42673  0.32561  0.56757  1
 H  H6  1  0.67830  0.36423  0.82591  1
 O  O1  1  0.59800  0.73285  0.98102  1
 S  S1  1  0.15960  0.30091  0.01291  1
 S  S2  1  0.32434  0.84720  0.73467  1
