CIF file written using JARVIS-Tools package.
data_WO3
_symmetry_space_group_name_H-M  'Pbcm'
_cell_length_a       3.92527
_cell_length_b       7.53667
_cell_length_c       7.73048
_cell_angle_alpha    90
_cell_angle_beta     90.0008
_cell_angle_gamma    90

_symmetry_Int_Tables_number  57
_chemical_formula_structural  WO3
_chemical_formula_sum  W4O2
_cell_volume  228.6941263842821
_cell_formula_units_Z  4
loop_
  _symmetry_equiv_pos_site_id
 _symmetry_equiv_pos_as_xyz
 1  'x, y, z'
loop_
 _atom_site_type_symbol
 _atom_site_label
 _atom_site_symmetry_multiplicity
 _atom_site_fract_x
 _atom_site_fract_y
 _atom_site_fract_z
 _atom_site_fract_occupancy
 O  O1  1  0.51118  0.75000  -0.01256  1
 O  O2  1  0.48882  0.25000  0.01256  1
 O  O3  1  0.00691  0.25000  0.76002  1
 O  O4  1  -0.00691  0.75000  0.23998  1
 O  O5  1  0.00000  0.50000  0.50000  1
 O  O6  1  0.00000  0.00000  0.50000  1
 O  O7  1  0.00000  0.00000  0.00000  1
 O  O8  1  0.00000  0.50000  0.00000  1
 O  O9  1  0.00692  0.75000  0.73998  1
 O  O10  1  0.99308  0.25000  0.26002  1
 O  O11  1  0.51117  0.25000  0.51256  1
 O  O12  1  0.48883  0.75000  0.48744  1
 W  W1  1  0.94189  0.25000  0.02851  1
 W  W2  1  0.05811  0.75000  0.97149  1
 W  W3  1  0.94190  0.75000  0.47149  1
 W  W4  1  0.05810  0.25000  0.52851  1
