CIF file written using JARVIS-Tools package.
data_Li5NCl2
_symmetry_space_group_name_H-M  'P2/m'
_cell_length_a       6.66803
_cell_length_b       3.61499
_cell_length_c       9.12095
_cell_angle_alpha    90
_cell_angle_beta     95.0122
_cell_angle_gamma    90

_symmetry_Int_Tables_number  10
_chemical_formula_structural  Li5NCl2
_chemical_formula_sum  Li0N2Cl4
_cell_volume  219.01887858518256
_cell_formula_units_Z  2
loop_
  _symmetry_equiv_pos_site_id
 _symmetry_equiv_pos_as_xyz
 1  'x, y, z'
loop_
 _atom_site_type_symbol
 _atom_site_label
 _atom_site_symmetry_multiplicity
 _atom_site_fract_x
 _atom_site_fract_y
 _atom_site_fract_z
 _atom_site_fract_occupancy
 Cl  Cl1  1  0.33675  0.50000  0.83922  1
 Cl  Cl2  1  0.50000  0.00000  0.50000  1
 Cl  Cl3  1  -0.00000  0.50000  0.50000  1
 Cl  Cl4  1  0.66325  0.50000  0.16078  1
 Li  Li1  1  0.97422  0.50000  0.76789  1
 Li  Li2  1  0.54275  0.00000  0.75487  1
 Li  Li3  1  0.45725  0.00000  0.24513  1
 Li  Li4  1  0.87166  0.00000  0.06363  1
 Li  Li5  1  0.17381  0.00000  0.39107  1
 Li  Li6  1  0.82619  0.00000  0.60893  1
 Li  Li7  1  0.02578  0.50000  0.23211  1
 Li  Li8  1  0.27981  0.50000  0.10106  1
 Li  Li9  1  0.12834  0.00000  0.93637  1
 Li  Li10  1  0.72019  0.50000  0.89894  1
 N  N1  1  0.83915  0.00000  0.83307  1
 N  N2  1  0.16085  0.00000  0.16693  1
