CIF file written using JARVIS-Tools package.
data_Li2TiB2O6
_symmetry_space_group_name_H-M  'P-1'
_cell_length_a       5.04667
_cell_length_b       5.90522
_cell_length_c       8.13736
_cell_angle_alpha    76.6559
_cell_angle_beta     87.8489
_cell_angle_gamma    89.4741

_symmetry_Int_Tables_number  2
_chemical_formula_structural  Li2TiB2O6
_chemical_formula_sum  Li4Ti2B4O2
_cell_volume  235.79353659916654
_cell_formula_units_Z  2
loop_
  _symmetry_equiv_pos_site_id
 _symmetry_equiv_pos_as_xyz
 1  'x, y, z'
loop_
 _atom_site_type_symbol
 _atom_site_label
 _atom_site_symmetry_multiplicity
 _atom_site_fract_x
 _atom_site_fract_y
 _atom_site_fract_z
 _atom_site_fract_occupancy
 B  B1  1  0.84924  0.83150  0.43468  1
 B  B2  1  0.36378  0.30715  0.89859  1
 B  B3  1  0.66676  0.67222  0.08986  1
 B  B4  1  0.18130  0.14786  0.55377  1
 Li  Li1  1  0.33601  0.67645  0.60674  1
 Li  Li2  1  0.17029  0.49061  0.20370  1
 Li  Li3  1  0.86024  0.48875  0.78478  1
 Li  Li4  1  0.69452  0.30292  0.38172  1
 O  O1  1  0.28281  0.25081  0.07112  1
 O  O2  1  0.74775  0.72856  0.91733  1
 O  O3  1  0.12062  0.80884  0.40576  1
 O  O4  1  0.72789  0.73057  0.58700  1
 O  O5  1  0.31936  -0.00819  0.67792  1
 O  O6  1  0.41698  0.76490  0.12765  1
 O  O7  1  0.90992  0.17053  0.58269  1
 O  O8  1  0.80737  0.53851  0.20840  1
 O  O9  1  0.30265  0.24879  0.40145  1
 O  O10  1  0.22317  0.44086  0.78005  1
 O  O11  1  0.61357  0.21447  0.86080  1
 O  O12  1  0.71119  0.98755  0.31053  1
 Ti  Ti1  1  0.66965  -0.01917  0.74325  1
 Ti  Ti2  1  0.36089  -0.00147  0.24520  1
