CIF file written using JARVIS-Tools package.
data_H16C8O5
_symmetry_space_group_name_H-M  'P2_1'
_cell_length_a       5.67179
_cell_length_b       7.82175
_cell_length_c       9.9505
_cell_angle_alpha    90
_cell_angle_beta     94.1507
_cell_angle_gamma    90

_symmetry_Int_Tables_number  4
_chemical_formula_structural  H16C8O5
_chemical_formula_sum  H32C6O0
_cell_volume  440.2796490329425
_cell_formula_units_Z  2
loop_
  _symmetry_equiv_pos_site_id
 _symmetry_equiv_pos_as_xyz
 1  'x, y, z'
loop_
 _atom_site_type_symbol
 _atom_site_label
 _atom_site_symmetry_multiplicity
 _atom_site_fract_x
 _atom_site_fract_y
 _atom_site_fract_z
 _atom_site_fract_occupancy
 C  C1  1  0.24356  0.38879  0.68317  1
 C  C2  1  0.55995  0.30267  0.35935  1
 C  C3  1  0.44005  0.80267  0.64065  1
 C  C4  1  0.23319  0.88396  0.55876  1
 C  C5  1  0.63658  0.92893  0.68169  1
 C  C6  1  0.76681  0.38396  0.44124  1
 C  C7  1  0.36342  0.42893  0.31831  1
 C  C8  1  0.09483  0.47219  0.90389  1
 C  C9  1  0.75644  0.88879  0.31683  1
 C  C10  1  0.90517  0.97219  0.09611  1
 C  C11  1  0.34345  0.53835  0.94561  1
 C  C12  1  0.65655  0.03835  0.05439  1
 C  C13  1  0.46704  0.59171  0.81970  1
 C  C14  1  0.53296  0.09171  0.18030  1
 C  C15  1  0.10544  0.32757  0.79994  1
 C  C16  1  0.89456  0.82757  0.20006  1
 H  H1  1  0.85384  -0.00834  0.37225  1
 H  H2  1  0.27272  0.28263  0.61443  1
 H  H3  1  0.48971  0.19571  0.41670  1
 H  H4  1  0.34710  0.12626  0.15445  1
 H  H5  1  0.92429  0.29285  0.76267  1
 H  H6  1  0.72728  0.78263  0.38557  1
 H  H7  1  0.51029  0.69571  0.58330  1
 H  H8  1  0.07571  0.79285  0.23733  1
 H  H9  1  0.14616  0.49166  0.62775  1
 H  H10  1  0.00726  0.07846  0.14451  1
 H  H11  1  0.37964  0.19320  0.88823  1
 H  H12  1  0.62036  0.69320  0.11177  1
 H  H13  1  0.92520  0.51149  0.07044  1
 H  H14  1  0.22551  0.76577  0.01021  1
 H  H15  1  0.77449  0.26577  0.98979  1
 H  H16  1  0.15708  0.98641  0.61762  1
 H  H17  1  0.99274  0.57846  0.85549  1
 H  H18  1  0.29141  0.93620  0.46417  1
 H  H19  1  0.70859  0.43620  0.53583  1
 H  H20  1  0.09491  0.78811  0.53440  1
 H  H21  1  0.90509  0.28811  0.46560  1
 H  H22  1  0.84292  0.48641  0.38238  1
 H  H23  1  0.21706  0.36844  0.25743  1
 H  H24  1  0.78294  0.86844  0.74257  1
 H  H25  1  0.44755  0.43515  0.99582  1
 H  H26  1  0.55245  0.93515  0.00418  1
 H  H27  1  0.65290  0.62626  0.84555  1
 H  H28  1  0.56843  0.03416  0.74036  1
 H  H29  1  0.07480  0.01149  0.92956  1
 H  H30  1  0.29107  0.48285  0.40868  1
 H  H31  1  0.70893  -0.01715  0.59132  1
 H  H32  1  0.43157  0.53416  0.25964  1
 O  O1  1  0.34068  0.67369  0.04173  1
 O  O2  1  0.20939  0.17454  0.85795  1
 O  O3  1  0.79061  0.67454  0.14205  1
 O  O4  1  0.98036  0.41113  0.01861  1
 O  O5  1  0.01964  0.91113  0.98139  1
 O  O6  1  0.47708  0.44769  0.73022  1
 O  O7  1  0.65932  0.17369  0.95827  1
 O  O8  1  0.52292  0.94769  0.26978  1
 O  O9  1  0.66047  0.22998  0.24032  1
 O  O10  1  0.33953  0.72998  0.75968  1
