CIF file written using JARVIS-Tools package.
data_NbTe2
_symmetry_space_group_name_H-M  'C2/m'
_cell_length_a       3.69232
_cell_length_b       7.67563
_cell_length_c       9.50575
_cell_angle_alpha    109.993
_cell_angle_beta     90
_cell_angle_gamma    103.917

_symmetry_Int_Tables_number  12
_chemical_formula_structural  NbTe2
_chemical_formula_sum  Nb3Te6
_cell_volume  244.73364384827113
_cell_formula_units_Z  3
loop_
  _symmetry_equiv_pos_site_id
 _symmetry_equiv_pos_as_xyz
 1  'x, y, z'
loop_
 _atom_site_type_symbol
 _atom_site_label
 _atom_site_symmetry_multiplicity
 _atom_site_fract_x
 _atom_site_fract_y
 _atom_site_fract_z
 _atom_site_fract_occupancy
 Nb  Nb1  1  0.00000  0.00000  0.00000  1
 Nb  Nb2  1  0.36199  0.72398  0.71050  1
 Nb  Nb3  1  0.63801  0.27602  0.28950  1
 Te  Te1  1  0.35152  0.70304  0.98802  1
 Te  Te2  1  0.64848  0.29696  0.01198  1
 Te  Te3  1  0.70408  0.40816  0.62000  1
 Te  Te4  1  0.29592  0.59184  0.38000  1
 Te  Te5  1  0.00419  0.00838  0.30783  1
 Te  Te6  1  0.99581  0.99162  0.69217  1
