CIF file written using JARVIS-Tools package.
data_BaP3
_symmetry_space_group_name_H-M  'C2/m'
_cell_length_a       4.79636
_cell_length_b       7.04331
_cell_length_c       7.04331
_cell_angle_alpha    66.6347
_cell_angle_beta     71.025
_cell_angle_gamma    71.025

_symmetry_Int_Tables_number  12
_chemical_formula_structural  BaP3
_chemical_formula_sum  Ba2P6
_cell_volume  201.21325119738495
_cell_formula_units_Z  2
loop_
  _symmetry_equiv_pos_site_id
 _symmetry_equiv_pos_as_xyz
 1  'x, y, z'
loop_
 _atom_site_type_symbol
 _atom_site_label
 _atom_site_symmetry_multiplicity
 _atom_site_fract_x
 _atom_site_fract_y
 _atom_site_fract_z
 _atom_site_fract_occupancy
 Ba  Ba1  1  0.31556  0.82659  0.82659  1
 Ba  Ba2  1  0.68444  0.17341  0.17341  1
 P  P1  1  0.01547  0.59327  0.59327  1
 P  P2  1  0.98453  0.40673  0.40673  1
 P  P3  1  0.71088  0.64878  0.18165  1
 P  P4  1  0.28912  0.81835  0.35122  1
 P  P5  1  0.28912  0.35122  0.81835  1
 P  P6  1  0.71088  0.18165  0.64878  1
