CIF file written using JARVIS-Tools package.
data_WO3
_symmetry_space_group_name_H-M  'P6/mmm'
_cell_length_a       7.45617
_cell_length_b       7.45617
_cell_length_c       7.66677
_cell_angle_alpha    90
_cell_angle_beta     90
_cell_angle_gamma    60

_symmetry_Int_Tables_number  191
_chemical_formula_structural  WO3
_chemical_formula_sum  W6O8
_cell_volume  369.1259237267747
_cell_formula_units_Z  6
loop_
  _symmetry_equiv_pos_site_id
 _symmetry_equiv_pos_as_xyz
 1  'x, y, z'
loop_
 _atom_site_type_symbol
 _atom_site_label
 _atom_site_symmetry_multiplicity
 _atom_site_fract_x
 _atom_site_fract_y
 _atom_site_fract_z
 _atom_site_fract_occupancy
 O  O1  1  0.78575  0.42851  0.00000  1
 O  O2  1  0.57149  0.21425  0.00000  1
 O  O3  1  0.57149  0.21425  0.50000  1
 O  O4  1  0.21425  0.57149  0.00000  1
 O  O5  1  0.21425  0.57149  0.50000  1
 O  O6  1  0.42851  0.78575  0.00000  1
 O  O7  1  0.50000  0.50000  0.25000  1
 O  O8  1  0.78575  0.78575  0.00000  1
 O  O9  1  0.42851  0.78575  0.50000  1
 O  O10  1  0.21425  0.21425  0.00000  1
 O  O11  1  0.21425  0.21425  0.50000  1
 O  O12  1  0.50000  0.50000  0.75000  1
 O  O13  1  0.78575  0.42851  0.50000  1
 O  O14  1  0.50000  0.00000  0.25000  1
 O  O15  1  0.50000  0.00000  0.75000  1
 O  O16  1  0.00000  0.50000  0.25000  1
 O  O17  1  0.00000  0.50000  0.75000  1
 O  O18  1  0.78575  0.78575  0.50000  1
 W  W1  1  0.00000  0.50000  0.50000  1
 W  W2  1  0.50000  0.00000  0.50000  1
 W  W3  1  0.50000  0.50000  0.50000  1
 W  W4  1  0.00000  0.50000  0.00000  1
 W  W5  1  0.50000  0.00000  0.00000  1
 W  W6  1  0.50000  0.50000  0.00000  1
