CIF file written using JARVIS-Tools package.
data_RbBe2F5
_symmetry_space_group_name_H-M  'C2'
_cell_length_a       4.46582
_cell_length_b       4.70974
_cell_length_c       6.12176
_cell_angle_alpha    94.755
_cell_angle_beta     90.0082
_cell_angle_gamma    118.303

_symmetry_Int_Tables_number  5
_chemical_formula_structural  RbBe2F5
_chemical_formula_sum  RbBe2F5
_cell_volume  112.86091970344383
_cell_formula_units_Z  1
loop_
  _symmetry_equiv_pos_site_id
 _symmetry_equiv_pos_as_xyz
 1  'x, y, z'
loop_
 _atom_site_type_symbol
 _atom_site_label
 _atom_site_symmetry_multiplicity
 _atom_site_fract_x
 _atom_site_fract_y
 _atom_site_fract_z
 _atom_site_fract_occupancy
 Be  Be1  1  0.28054  0.68438  0.39983  1
 Be  Be2  1  0.61206  0.34735  0.57841  1
 F  F1  1  0.39871  0.69119  0.16871  1
 F  F2  1  0.89639  0.40928  0.40638  1
 F  F3  1  0.28741  0.01586  0.48913  1
 F  F4  1  0.50301  0.62243  0.57186  1
 F  F5  1  0.72355  0.34064  0.80955  1
 Rb  Rb1  1  0.04033  0.01587  0.98913  1
