CIF file written using JARVIS-Tools package.
data_CaMoN3
_symmetry_space_group_name_H-M  'Pmm2'
_cell_length_a       3.51175
_cell_length_b       4.28319
_cell_length_c       8.72405
_cell_angle_alpha    90
_cell_angle_beta     90
_cell_angle_gamma    90

_symmetry_Int_Tables_number  25
_chemical_formula_structural  CaMoN3
_chemical_formula_sum  Ca2Mo2N6
_cell_volume  131.22297280078735
_cell_formula_units_Z  2
loop_
  _symmetry_equiv_pos_site_id
 _symmetry_equiv_pos_as_xyz
 1  'x, y, z'
loop_
 _atom_site_type_symbol
 _atom_site_label
 _atom_site_symmetry_multiplicity
 _atom_site_fract_x
 _atom_site_fract_y
 _atom_site_fract_z
 _atom_site_fract_occupancy
 Ca  Ca1  1  0.50000  0.50000  0.81988  1
 Ca  Ca2  1  0.50000  0.00000  0.18386  1
 Mo  Mo1  1  0.00000  0.00000  0.61327  1
 Mo  Mo2  1  0.00000  0.50000  0.40255  1
 N  N1  1  0.00000  0.00000  0.39009  1
 N  N2  1  0.50000  0.50000  0.31236  1
 N  N3  1  0.00000  0.64425  0.02632  1
 N  N4  1  0.00000  0.50000  0.62457  1
 N  N5  1  0.50000  0.00000  0.70551  1
 N  N6  1  0.00000  0.35575  0.02632  1
