CIF file written using JARVIS-Tools package.
data_Mg3H4O5
_symmetry_space_group_name_H-M  'P-3m1'
_cell_length_a       3.1062
_cell_length_b       3.1062
_cell_length_c       12.1121
_cell_angle_alpha    90
_cell_angle_beta     90
_cell_angle_gamma    120

_symmetry_Int_Tables_number  164
_chemical_formula_structural  Mg3H4O5
_chemical_formula_sum  Mg3H4O5
_cell_volume  101.20658025274595
_cell_formula_units_Z  1
loop_
  _symmetry_equiv_pos_site_id
 _symmetry_equiv_pos_as_xyz
 1  'x, y, z'
loop_
 _atom_site_type_symbol
 _atom_site_label
 _atom_site_symmetry_multiplicity
 _atom_site_fract_x
 _atom_site_fract_y
 _atom_site_fract_z
 _atom_site_fract_occupancy
 H  H1  1  0.66667  0.33333  0.73202  1
 H  H2  1  0.33333  0.66667  0.26798  1
 H  H3  1  0.33333  0.66667  0.66748  1
 H  H4  1  0.66667  0.33333  0.33252  1
 Mg  Mg1  1  0.33333  0.66667  0.89945  1
 Mg  Mg2  1  0.66667  0.33333  0.10055  1
 Mg  Mg3  1  0.00000  0.00000  0.50000  1
 O  O1  1  0.66667  0.33333  0.41271  1
 O  O2  1  0.33333  0.66667  0.58729  1
 O  O3  1  0.33333  0.66667  0.18764  1
 O  O4  1  0.00000  0.00000  0.00000  1
 O  O5  1  0.66667  0.33333  0.81236  1
