CIF file written using JARVIS-Tools package.
data_Rb3ErO3
_symmetry_space_group_name_H-M  'C2/m'
_cell_length_a       7.18311
_cell_length_b       7.18311
_cell_length_c       7.1507
_cell_angle_alpha    84.9249
_cell_angle_beta     95.0751
_cell_angle_gamma    64.713

_symmetry_Int_Tables_number  12
_chemical_formula_structural  Rb3ErO3
_chemical_formula_sum  Rb6Er2O6
_cell_volume  329.01263087613955
_cell_formula_units_Z  2
loop_
  _symmetry_equiv_pos_site_id
 _symmetry_equiv_pos_as_xyz
 1  'x, y, z'
loop_
 _atom_site_type_symbol
 _atom_site_label
 _atom_site_symmetry_multiplicity
 _atom_site_fract_x
 _atom_site_fract_y
 _atom_site_fract_z
 _atom_site_fract_occupancy
 Er  Er1  1  0.17926  0.82074  0.14666  1
 Er  Er2  1  0.82074  0.17926  0.85334  1
 O  O1  1  0.16781  0.55085  0.26806  1
 O  O2  1  0.09843  0.90157  0.83930  1
 O  O3  1  0.55085  0.16781  0.73194  1
 O  O4  1  0.44915  0.83219  0.26806  1
 O  O5  1  0.90157  0.09843  0.16070  1
 O  O6  1  0.83219  0.44915  0.73194  1
 Rb  Rb1  1  0.20065  0.20065  0.50000  1
 Rb  Rb2  1  0.25980  0.25980  0.00000  1
 Rb  Rb3  1  0.36126  0.63874  0.63953  1
 Rb  Rb4  1  0.63874  0.36126  0.36047  1
 Rb  Rb5  1  0.74020  0.74020  -0.00000  1
 Rb  Rb6  1  0.79935  0.79935  0.50000  1
