CIF file written using JARVIS-Tools package.
data_SnS
_symmetry_space_group_name_H-M  'Aem2'
_cell_length_a       4.15762
_cell_length_b       4.15762
_cell_length_c       5.80745
_cell_angle_alpha    90
_cell_angle_beta     90
_cell_angle_gamma    89.9012

_symmetry_Int_Tables_number  39
_chemical_formula_structural  SnS
_chemical_formula_sum  Sn2S2
_cell_volume  100.38644485287134
_cell_formula_units_Z  2
loop_
  _symmetry_equiv_pos_site_id
 _symmetry_equiv_pos_as_xyz
 1  'x, y, z'
loop_
 _atom_site_type_symbol
 _atom_site_label
 _atom_site_symmetry_multiplicity
 _atom_site_fract_x
 _atom_site_fract_y
 _atom_site_fract_z
 _atom_site_fract_occupancy
 S  S1  1  0.72948  0.22948  0.76064  1
 S  S2  1  0.22948  0.72948  0.23936  1
 Sn  Sn1  1  0.24652  0.74652  0.75405  1
 Sn  Sn2  1  0.74652  0.24652  0.24595  1
