CIF file written using JARVIS-Tools package.
data_Na2SnO3
_symmetry_space_group_name_H-M  'C2/m'
_cell_length_a       5.5892
_cell_length_b       5.5892
_cell_length_c       5.78826
_cell_angle_alpha    99.4341
_cell_angle_beta     99.4379
_cell_angle_gamma    119.922

_symmetry_Int_Tables_number  12
_chemical_formula_structural  Na2SnO3
_chemical_formula_sum  Na4Sn2O6
_cell_volume  148.07573002900995
_cell_formula_units_Z  2
loop_
  _symmetry_equiv_pos_site_id
 _symmetry_equiv_pos_as_xyz
 1  'x, y, z'
loop_
 _atom_site_type_symbol
 _atom_site_label
 _atom_site_symmetry_multiplicity
 _atom_site_fract_x
 _atom_site_fract_y
 _atom_site_fract_z
 _atom_site_fract_occupancy
 Na  Na1  1  -0.00027  0.49980  0.50100  1
 Na  Na2  1  0.34193  0.15756  0.50095  1
 Na  Na3  1  0.65752  0.84200  0.50097  1
 Na  Na4  1  0.49968  -0.00025  0.00096  1
 O  O1  1  0.57289  0.43980  0.21525  1
 O  O2  1  0.42648  0.55970  0.78670  1
 O  O3  1  0.79386  0.29392  0.78626  1
 O  O4  1  0.93972  0.07295  0.21524  1
 O  O5  1  0.05964  0.92655  0.78672  1
 O  O6  1  0.20553  0.70559  0.21570  1
 Sn  Sn1  1  0.16707  0.33237  0.00098  1
 Sn  Sn2  1  0.83230  0.66714  0.00098  1
