CIF file written using JARVIS-Tools package.
data_NbCrSe5
_symmetry_space_group_name_H-M  'P2_1/m'
_cell_length_a       3.55215
_cell_length_b       9.23588
_cell_length_c       10.4861
_cell_angle_alpha    116.522
_cell_angle_beta     90
_cell_angle_gamma    90

_symmetry_Int_Tables_number  11
_chemical_formula_structural  NbCrSe5
_chemical_formula_sum  Nb2Cr2Se0
_cell_volume  307.81340868399764
_cell_formula_units_Z  2
loop_
  _symmetry_equiv_pos_site_id
 _symmetry_equiv_pos_as_xyz
 1  'x, y, z'
loop_
 _atom_site_type_symbol
 _atom_site_label
 _atom_site_symmetry_multiplicity
 _atom_site_fract_x
 _atom_site_fract_y
 _atom_site_fract_z
 _atom_site_fract_occupancy
 Cr  Cr1  1  0.25000  0.57396  0.89777  1
 Cr  Cr2  1  0.75000  0.42604  0.10223  1
 Nb  Nb1  1  0.75000  0.73496  0.63769  1
 Nb  Nb2  1  0.25000  0.26504  0.36231  1
 Se  Se1  1  0.75000  0.48096  0.36394  1
 Se  Se2  1  0.25000  0.63814  0.15212  1
 Se  Se3  1  0.25000  0.51904  0.63606  1
 Se  Se4  1  0.75000  0.16376  0.49745  1
 Se  Se5  1  0.25000  0.83624  0.50255  1
 Se  Se6  1  0.25000  0.97708  0.75906  1
 Se  Se7  1  0.25000  0.22303  0.08430  1
 Se  Se8  1  0.75000  0.02292  0.24094  1
 Se  Se9  1  0.75000  0.77697  0.91570  1
 Se  Se10  1  0.75000  0.36186  0.84788  1
