CIF file written using JARVIS-Tools package.
data_ZnH6C5O4
_symmetry_space_group_name_H-M  'P1'
_cell_length_a       4.74219
_cell_length_b       4.56187
_cell_length_c       8.08043
_cell_angle_alpha    88.73
_cell_angle_beta     106.179
_cell_angle_gamma    116.608

_symmetry_Int_Tables_number  1
_chemical_formula_structural  ZnH6C5O4
_chemical_formula_sum  ZnH6C5O4
_cell_volume  149.02614563596572
_cell_formula_units_Z  1
loop_
  _symmetry_equiv_pos_site_id
 _symmetry_equiv_pos_as_xyz
 1  'x, y, z'
loop_
 _atom_site_type_symbol
 _atom_site_label
 _atom_site_symmetry_multiplicity
 _atom_site_fract_x
 _atom_site_fract_y
 _atom_site_fract_z
 _atom_site_fract_occupancy
 C  C1  1  0.25238  -0.00099  0.46863  1
 C  C2  1  0.44922  0.93701  0.63595  1
 C  C3  1  0.22747  0.67768  0.72834  1
 C  C4  1  0.42445  0.59714  0.89393  1
 C  C5  1  0.56872  0.86583  0.04346  1
 H  H1  1  0.60760  0.84569  0.60162  1
 H  H2  1  0.60949  0.17076  0.71981  1
 H  H3  1  0.06837  0.45057  0.63837  1
 H  H4  1  0.26172  0.36293  0.93063  1
 H  H5  1  0.06273  0.76158  0.76138  1
 H  H6  1  0.62900  0.57267  0.86830  1
 O  O1  1  0.01749  0.75876  0.35902  1
 O  O2  1  0.33170  0.30119  0.44683  1
 O  O3  1  0.82252  0.13396  0.03748  1
 O  O4  1  0.44098  0.83457  0.16533  1
 Zn  Zn1  1  0.10889  0.44470  0.24455  1
