CIF file written using JARVIS-Tools package.
data_CuCl4
_symmetry_space_group_name_H-M  'Fmm2'
_cell_length_a       7.36773
_cell_length_b       9.9178
_cell_length_c       7.13743
_cell_angle_alpha    24.3065
_cell_angle_beta     58.9268
_cell_angle_gamma    42.0227

_symmetry_Int_Tables_number  42
_chemical_formula_structural  CuCl4
_chemical_formula_sum  CuCl4
_cell_volume  116.66565752985801
_cell_formula_units_Z  1
loop_
  _symmetry_equiv_pos_site_id
 _symmetry_equiv_pos_as_xyz
 1  'x, y, z'
loop_
 _atom_site_type_symbol
 _atom_site_label
 _atom_site_symmetry_multiplicity
 _atom_site_fract_x
 _atom_site_fract_y
 _atom_site_fract_z
 _atom_site_fract_occupancy
 Cl  Cl1  1  0.12024  0.02603  0.20745  1
 Cl  Cl2  1  0.64646  -0.02658  0.26022  1
 Cl  Cl3  1  0.36775  0.50021  0.25298  1
 Cl  Cl4  1  0.87885  0.50021  0.25298  1
 Cu  Cu1  1  0.23670  0.50012  0.02636  1
