CIF file written using JARVIS-Tools package.
data_Na6SbO5
_symmetry_space_group_name_H-M  'Cmcm'
_cell_length_a       5.64984
_cell_length_b       6.08147
_cell_length_c       10.9597
_cell_angle_alpha    90
_cell_angle_beta     90
_cell_angle_gamma    62.3213

_symmetry_Int_Tables_number  63
_chemical_formula_structural  Na6SbO5
_chemical_formula_sum  Na2Sb2O0
_cell_volume  333.4756508702228
_cell_formula_units_Z  2
loop_
  _symmetry_equiv_pos_site_id
 _symmetry_equiv_pos_as_xyz
 1  'x, y, z'
loop_
 _atom_site_type_symbol
 _atom_site_label
 _atom_site_symmetry_multiplicity
 _atom_site_fract_x
 _atom_site_fract_y
 _atom_site_fract_z
 _atom_site_fract_occupancy
 Na  Na1  1  0.56719  0.59525  0.75000  1
 Na  Na2  1  0.83755  0.59525  0.25000  1
 Na  Na3  1  0.22320  0.55360  0.50000  1
 Na  Na4  1  0.22320  0.55360  0.00000  1
 Na  Na5  1  0.77680  0.44640  0.00000  1
 Na  Na6  1  0.30840  0.00000  0.94131  1
 Na  Na7  1  0.77680  0.44640  0.50000  1
 Na  Na8  1  0.16245  0.40475  0.75000  1
 Na  Na9  1  0.69160  -0.00000  0.44131  1
 Na  Na10  1  0.69160  -0.00000  0.05869  1
 Na  Na11  1  0.30840  0.00000  0.55869  1
 Na  Na12  1  0.43281  0.40475  0.25000  1
 O  O1  1  0.86524  -0.00000  0.25000  1
 O  O2  1  0.43455  0.72563  0.11571  1
 O  O3  1  0.83982  0.72563  0.88429  1
 O  O4  1  0.83982  0.72563  0.61571  1
 O  O5  1  0.16018  0.27437  0.11571  1
 O  O6  1  0.16018  0.27437  0.38429  1
 O  O7  1  0.56545  0.27437  0.88429  1
 O  O8  1  0.43455  0.72563  0.38429  1
 O  O9  1  0.56545  0.27437  0.61571  1
 O  O10  1  0.13476  0.00000  0.75000  1
 Sb  Sb1  1  0.77836  0.00000  0.75000  1
 Sb  Sb2  1  0.22164  -0.00000  0.25000  1
