CIF file written using JARVIS-Tools package.
data_H8C14S2O
_symmetry_space_group_name_H-M  'P1'
_cell_length_a       4.43447
_cell_length_b       6.06957
_cell_length_c       11.0183
_cell_angle_alpha    81.3273
_cell_angle_beta     77.8086
_cell_angle_gamma    68.2205

_symmetry_Int_Tables_number  1
_chemical_formula_structural  H8C14S2O
_chemical_formula_sum  H8C4S2O
_cell_volume  268.3215094619965
_cell_formula_units_Z  1
loop_
  _symmetry_equiv_pos_site_id
 _symmetry_equiv_pos_as_xyz
 1  'x, y, z'
loop_
 _atom_site_type_symbol
 _atom_site_label
 _atom_site_symmetry_multiplicity
 _atom_site_fract_x
 _atom_site_fract_y
 _atom_site_fract_z
 _atom_site_fract_occupancy
 C  C1  1  0.43344  0.40802  0.21472  1
 C  C2  1  0.40652  0.53615  0.46264  1
 C  C3  1  0.15083  0.16797  0.91324  1
 C  C4  1  0.03695  0.14047  0.80844  1
 C  C5  1  0.64785  0.21081  0.59339  1
 C  C6  1  0.48257  0.29468  0.48956  1
 C  C7  1  0.84810  0.35428  0.75345  1
 C  C8  1  0.05433  0.40162  0.94122  1
 C  C9  1  0.93990  0.75820  0.21183  1
 C  C10  1  0.89540  0.69507  0.10232  1
 C  C11  1  0.20649  0.61243  0.26881  1
 C  C12  1  0.11186  0.48512  0.04832  1
 C  C13  1  0.69292  0.38567  0.64682  1
 C  C14  1  0.38344  0.34558  0.10633  1
 H  H1  1  0.67937  0.80457  0.06119  1
 H  H2  1  0.76476  0.91608  0.25568  1
 H  H3  1  0.56614  0.19025  0.06275  1
 H  H4  1  0.65425  0.30422  0.25391  1
 H  H5  1  0.41309  0.18328  0.44056  1
 H  H6  1  0.29084  0.01832  0.97033  1
 H  H7  1  0.72712  0.02569  0.63022  1
 H  H8  1  0.09188  0.96952  0.77302  1
 O  O1  1  0.23883  0.69258  0.37588  1
 S  S1  1  0.53310  0.66197  0.56510  1
 S  S2  1  0.81620  0.58983  0.83402  1
