CIF file written using JARVIS-Tools package.
data_Te2Mo3WSe2S4
_symmetry_space_group_name_H-M  'Cm'
_cell_length_a       3.31395
_cell_length_b       3.31385
_cell_length_c       26.2337
_cell_angle_alpha    90.0019
_cell_angle_beta     90
_cell_angle_gamma    120.001

_symmetry_Int_Tables_number  8
_chemical_formula_structural  Te2Mo3WSe2S4
_chemical_formula_sum  Te2Mo3WSe2S4
_cell_volume  249.49697767618193
_cell_formula_units_Z  1
loop_
  _symmetry_equiv_pos_site_id
 _symmetry_equiv_pos_as_xyz
 1  'x, y, z'
loop_
 _atom_site_type_symbol
 _atom_site_label
 _atom_site_symmetry_multiplicity
 _atom_site_fract_x
 _atom_site_fract_y
 _atom_site_fract_z
 _atom_site_fract_occupancy
 Mo  Mo1  1  0.33306  0.66613  0.00787  1
 Mo  Mo2  1  0.33440  0.66879  0.49361  1
 Mo  Mo3  1  0.66608  0.33215  0.75072  1
 S  S1  1  0.66638  0.33276  0.94963  1
 S  S2  1  0.66773  0.33545  0.43537  1
 S  S3  1  0.66641  0.33282  0.06611  1
 S  S4  1  0.66773  0.33545  0.55184  1
 Se  Se1  1  0.33316  0.66633  0.31502  1
 Se  Se2  1  0.33310  0.66620  0.18641  1
 Te  Te1  1  0.33276  0.66552  0.82381  1
 Te  Te2  1  0.33272  0.66545  0.67762  1
 W  W1  1  0.66647  0.33295  0.25072  1
