CIF file written using JARVIS-Tools package.
data_AgAuO3
_symmetry_space_group_name_H-M  'Fd-3m'
_cell_length_a       7.23069
_cell_length_b       7.23069
_cell_length_c       7.23069
_cell_angle_alpha    60
_cell_angle_beta     90
_cell_angle_gamma    120

_symmetry_Int_Tables_number  227
_chemical_formula_structural  AgAuO3
_chemical_formula_sum  Ag4Au4O2
_cell_volume  267.31541109508066
_cell_formula_units_Z  4
loop_
  _symmetry_equiv_pos_site_id
 _symmetry_equiv_pos_as_xyz
 1  'x, y, z'
loop_
 _atom_site_type_symbol
 _atom_site_label
 _atom_site_symmetry_multiplicity
 _atom_site_fract_x
 _atom_site_fract_y
 _atom_site_fract_z
 _atom_site_fract_occupancy
 Ag  Ag1  1  0.00000  0.00000  0.00000  1
 Ag  Ag2  1  0.50000  0.50000  -0.00000  1
 Ag  Ag3  1  0.00000  0.50000  -0.00000  1
 Ag  Ag4  1  0.00000  0.00000  0.50000  1
 Au  Au1  1  0.50000  0.00000  0.00000  1
 Au  Au2  1  0.50000  0.00000  0.50000  1
 Au  Au3  1  0.50000  0.50000  0.50000  1
 Au  Au4  1  0.00000  0.50000  0.50000  1
 O  O1  1  0.84090  0.25000  0.40910  1
 O  O2  1  0.40910  0.81819  0.84090  1
 O  O3  1  0.59090  0.75000  0.15910  1
 O  O4  1  0.84090  0.25000  0.84090  1
 O  O5  1  0.59090  0.18181  0.15910  1
 O  O6  1  0.15910  0.31819  0.59090  1
 O  O7  1  0.59090  0.75000  0.59090  1
 O  O8  1  0.15910  0.75000  0.15910  1
 O  O9  1  0.40910  0.25000  0.40910  1
 O  O10  1  0.40910  0.25000  0.84090  1
 O  O11  1  0.84090  0.68181  0.40910  1
 O  O12  1  0.15910  0.75000  0.59090  1
