CIF file written using JARVIS-Tools package.
data_Sr2GeSe4
_symmetry_space_group_name_H-M  'Ama2'
_cell_length_a       6.47076
_cell_length_b       6.47077
_cell_length_c       10.3407
_cell_angle_alpha    90
_cell_angle_beta     90
_cell_angle_gamma    109.578

_symmetry_Int_Tables_number  40
_chemical_formula_structural  Sr2GeSe4
_chemical_formula_sum  Sr4Ge2Se8
_cell_volume  407.9421347266693
_cell_formula_units_Z  2
loop_
  _symmetry_equiv_pos_site_id
 _symmetry_equiv_pos_as_xyz
 1  'x, y, z'
loop_
 _atom_site_type_symbol
 _atom_site_label
 _atom_site_symmetry_multiplicity
 _atom_site_fract_x
 _atom_site_fract_y
 _atom_site_fract_z
 _atom_site_fract_occupancy
 Ge  Ge1  1  0.75998  0.31235  0.75000  1
 Ge  Ge2  1  0.31235  0.75998  0.25000  1
 Se  Se1  1  0.26431  0.11435  0.25000  1
 Se  Se2  1  0.11435  0.26431  0.75000  1
 Se  Se3  1  0.70207  0.83575  0.25000  1
 Se  Se4  1  0.83575  0.70207  0.75000  1
 Se  Se5  1  0.13731  0.57183  0.44132  1
 Se  Se6  1  0.57183  0.13731  0.55868  1
 Se  Se7  1  0.13731  0.57183  0.05868  1
 Se  Se8  1  0.57183  0.13731  0.94132  1
 Sr  Sr1  1  0.74720  0.36246  0.25000  1
 Sr  Sr2  1  0.36246  0.74720  0.75000  1
 Sr  Sr3  1  0.00153  0.00153  0.50000  1
 Sr  Sr4  1  0.00153  0.00153  0.00000  1
