CIF file written using JARVIS-Tools package.
data_BaEr2CoO5
_symmetry_space_group_name_H-M  'Immm'
_cell_length_a       3.68202
_cell_length_b       5.74353
_cell_length_c       6.67894
_cell_angle_alpha    115.47
_cell_angle_beta     105.999
_cell_angle_gamma    90.0007

_symmetry_Int_Tables_number  71
_chemical_formula_structural  BaEr2CoO5
_chemical_formula_sum  BaEr2CoO5
_cell_volume  121.4291753400659
_cell_formula_units_Z  1
loop_
  _symmetry_equiv_pos_site_id
 _symmetry_equiv_pos_as_xyz
 1  'x, y, z'
loop_
 _atom_site_type_symbol
 _atom_site_label
 _atom_site_symmetry_multiplicity
 _atom_site_fract_x
 _atom_site_fract_y
 _atom_site_fract_z
 _atom_site_fract_occupancy
 Ba  Ba1  1  0.00000  1.00000  1.00000  1
 Co  Co1  1  0.50000  0.50000  -0.00000  1
 Er  Er1  1  0.79664  0.29665  0.59329  1
 Er  Er2  1  0.20335  0.70335  0.40671  1
 O  O1  1  0.34835  0.58897  0.69672  1
 O  O2  1  0.65165  0.41103  0.30328  1
 O  O3  1  0.65164  0.89223  0.30327  1
 O  O4  1  0.34836  0.10777  0.69672  1
 O  O5  1  -0.00000  0.50000  -0.00000  1
