CIF file written using JARVIS-Tools package.
data_HoTiO3
_symmetry_space_group_name_H-M  'Pnma'
_cell_length_a       5.30195
_cell_length_b       5.68991
_cell_length_c       7.64261
_cell_angle_alpha    90
_cell_angle_beta     90
_cell_angle_gamma    90

_symmetry_Int_Tables_number  62
_chemical_formula_structural  HoTiO3
_chemical_formula_sum  Ho4Ti4O2
_cell_volume  230.55929886951117
_cell_formula_units_Z  4
loop_
  _symmetry_equiv_pos_site_id
 _symmetry_equiv_pos_as_xyz
 1  'x, y, z'
loop_
 _atom_site_type_symbol
 _atom_site_label
 _atom_site_symmetry_multiplicity
 _atom_site_fract_x
 _atom_site_fract_y
 _atom_site_fract_z
 _atom_site_fract_occupancy
 Ho  Ho1  1  0.97758  0.92671  0.75804  1
 Ho  Ho2  1  0.52242  0.42671  0.75804  1
 Ho  Ho3  1  0.47758  0.57329  0.25804  1
 Ho  Ho4  1  0.02242  0.07329  0.25804  1
 O  O1  1  0.87657  0.45356  0.25805  1
 O  O2  1  0.18785  0.80420  0.44894  1
 O  O3  1  0.81215  0.19580  0.94894  1
 O  O4  1  0.68787  0.69585  0.56718  1
 O  O5  1  0.81213  0.19585  0.56718  1
 O  O6  1  0.62343  0.95356  0.25805  1
 O  O7  1  0.37657  0.04644  0.75805  1
 O  O8  1  0.31215  0.30420  0.44894  1
 O  O9  1  0.68785  0.69580  0.94894  1
 O  O10  1  0.18787  0.80415  0.06718  1
 O  O11  1  0.31213  0.30415  0.06718  1
 O  O12  1  0.12343  0.54644  0.75805  1
 Ti  Ti1  1  -0.00000  0.49999  0.00805  1
 Ti  Ti2  1  0.50000  0.99999  0.00805  1
 Ti  Ti3  1  0.50000  0.00001  0.50805  1
 Ti  Ti4  1  0.00000  0.50001  0.50805  1
