CIF file written using JARVIS-Tools package.
data_LiTeO3
_symmetry_space_group_name_H-M  'Pnn2'
_cell_length_a       5.10852
_cell_length_b       5.22887
_cell_length_c       9.22483
_cell_angle_alpha    90
_cell_angle_beta     90
_cell_angle_gamma    90

_symmetry_Int_Tables_number  34
_chemical_formula_structural  LiTeO3
_chemical_formula_sum  Li4Te4O2
_cell_volume  246.41170346122703
_cell_formula_units_Z  4
loop_
  _symmetry_equiv_pos_site_id
 _symmetry_equiv_pos_as_xyz
 1  'x, y, z'
loop_
 _atom_site_type_symbol
 _atom_site_label
 _atom_site_symmetry_multiplicity
 _atom_site_fract_x
 _atom_site_fract_y
 _atom_site_fract_z
 _atom_site_fract_occupancy
 Li  Li1  1  0.00000  0.00000  0.32820  1
 Li  Li2  1  0.50000  0.00000  0.15038  1
 Li  Li3  1  0.00000  0.50000  0.65038  1
 Li  Li4  1  0.50000  0.50000  0.82820  1
 O  O1  1  0.70252  0.81535  0.73290  1
 O  O2  1  0.28644  0.15862  0.43547  1
 O  O3  1  0.78534  0.81494  0.06220  1
 O  O4  1  0.28534  0.68506  0.56220  1
 O  O5  1  0.71356  0.84138  0.43547  1
 O  O6  1  0.20252  0.68465  0.23290  1
 O  O7  1  0.79748  0.31535  0.23290  1
 O  O8  1  0.71466  0.31494  0.56220  1
 O  O9  1  0.21356  0.65862  0.93547  1
 O  O10  1  0.21466  0.18506  0.06220  1
 O  O11  1  0.78644  0.34138  0.93547  1
 O  O12  1  0.29748  0.18465  0.73290  1
 Te  Te1  1  0.50000  0.50000  0.39803  1
 Te  Te2  1  0.00000  0.50000  0.09169  1
 Te  Te3  1  0.50000  0.00000  0.59169  1
 Te  Te4  1  0.00000  0.00000  0.89803  1
