CIF file written using JARVIS-Tools package.
data_Ti2ZnO4
_symmetry_space_group_name_H-M  'Imma'
_cell_length_a       6.0832
_cell_length_b       6.0832
_cell_length_c       5.9186
_cell_angle_alpha    60.8911
_cell_angle_beta     60.8911
_cell_angle_gamma    60.2671

_symmetry_Int_Tables_number  74
_chemical_formula_structural  Ti2ZnO4
_chemical_formula_sum  Ti4Zn2O8
_cell_volume  157.24634746361923
_cell_formula_units_Z  2
loop_
  _symmetry_equiv_pos_site_id
 _symmetry_equiv_pos_as_xyz
 1  'x, y, z'
loop_
 _atom_site_type_symbol
 _atom_site_label
 _atom_site_symmetry_multiplicity
 _atom_site_fract_x
 _atom_site_fract_y
 _atom_site_fract_z
 _atom_site_fract_occupancy
 O  O1  1  0.38604  0.38604  0.37168  1
 O  O2  1  0.38368  0.87212  0.37210  1
 O  O3  1  0.38604  0.38604  0.85624  1
 O  O4  1  0.87212  0.38368  0.37210  1
 O  O5  1  0.37788  0.86632  0.87790  1
 O  O6  1  0.86632  0.37788  0.87790  1
 O  O7  1  0.86396  0.86396  0.39376  1
 O  O8  1  0.86396  0.86396  0.87832  1
 Ti  Ti1  1  0.99506  0.99506  0.00494  1
 Ti  Ti2  1  0.25494  0.25494  0.24506  1
 Ti  Ti3  1  0.62500  0.62500  0.12500  1
 Ti  Ti4  1  0.62500  0.62500  0.62500  1
 Zn  Zn1  1  0.12500  0.62500  0.62500  1
 Zn  Zn2  1  0.62500  0.12500  0.62500  1
