CIF file written using JARVIS-Tools package.
data_Na2GeS3
_symmetry_space_group_name_H-M  'P2_1/c'
_cell_length_a       5.82244
_cell_length_b       15.329
_cell_length_c       6.82782
_cell_angle_alpha    90
_cell_angle_beta     113.663
_cell_angle_gamma    90

_symmetry_Int_Tables_number  14
_chemical_formula_structural  Na2GeS3
_chemical_formula_sum  Na8Ge4S2
_cell_volume  558.159746316813
_cell_formula_units_Z  4
loop_
  _symmetry_equiv_pos_site_id
 _symmetry_equiv_pos_as_xyz
 1  'x, y, z'
loop_
 _atom_site_type_symbol
 _atom_site_label
 _atom_site_symmetry_multiplicity
 _atom_site_fract_x
 _atom_site_fract_y
 _atom_site_fract_z
 _atom_site_fract_occupancy
 Ge  Ge1  1  0.34963  0.16913  0.03973  1
 Ge  Ge2  1  0.15037  0.66913  0.96027  1
 Ge  Ge3  1  0.65037  0.83087  0.96027  1
 Ge  Ge4  1  0.84963  0.33087  0.03973  1
 Na  Na1  1  0.33403  0.97041  0.22529  1
 Na  Na2  1  0.16597  0.47041  0.77471  1
 Na  Na3  1  0.98103  0.16554  0.44197  1
 Na  Na4  1  0.83403  0.52959  0.22529  1
 Na  Na5  1  0.51897  0.66554  0.55803  1
 Na  Na6  1  0.48103  0.33446  0.44197  1
 Na  Na7  1  0.01897  0.83446  0.55803  1
 Na  Na8  1  0.66597  0.02959  0.77471  1
 S  S1  1  0.80274  0.69206  0.03353  1
 S  S2  1  0.32999  0.56227  0.18444  1
 S  S3  1  0.17001  0.06227  0.81556  1
 S  S4  1  0.67001  0.43773  0.81556  1
 S  S5  1  0.82999  0.93773  0.18444  1
 S  S6  1  0.95085  0.35514  0.38311  1
 S  S7  1  0.04915  0.64486  0.61689  1
 S  S8  1  0.54915  0.85514  0.61689  1
 S  S9  1  0.19726  0.30794  0.96647  1
 S  S10  1  0.69726  0.19206  0.96647  1
 S  S11  1  0.45085  0.14486  0.38311  1
 S  S12  1  0.30274  0.80794  0.03353  1
