CIF file written using JARVIS-Tools package.
data_Al2Cu
_symmetry_space_group_name_H-M  'I4/mcm'
_cell_length_a       4.90464
_cell_length_b       4.94704
_cell_length_c       4.94704
_cell_angle_alpha    75.7748
_cell_angle_beta     60.2832
_cell_angle_gamma    60.2831

_symmetry_Int_Tables_number  140
_chemical_formula_structural  Al2Cu
_chemical_formula_sum  Al4Cu2
_cell_volume  90.53643075825798
_cell_formula_units_Z  2
loop_
  _symmetry_equiv_pos_site_id
 _symmetry_equiv_pos_as_xyz
 1  'x, y, z'
loop_
 _atom_site_type_symbol
 _atom_site_label
 _atom_site_symmetry_multiplicity
 _atom_site_fract_x
 _atom_site_fract_y
 _atom_site_fract_z
 _atom_site_fract_occupancy
 Al  Al1  1  0.15813  0.50000  0.18373  1
 Al  Al2  1  0.34187  0.81627  0.50000  1
 Al  Al3  1  0.65813  0.18373  0.50000  1
 Al  Al4  1  0.84187  0.50000  0.81627  1
 Cu  Cu1  1  0.25000  0.00000  -0.00000  1
 Cu  Cu2  1  0.75000  0.00000  0.00000  1
