CIF file written using JARVIS-Tools package.
data_ZnH6C5O4
_symmetry_space_group_name_H-M  'P1'
_cell_length_a       4.21898
_cell_length_b       4.43128
_cell_length_c       8.40763
_cell_angle_alpha    82.8275
_cell_angle_beta     83.8026
_cell_angle_gamma    69.1654

_symmetry_Int_Tables_number  1
_chemical_formula_structural  ZnH6C5O4
_chemical_formula_sum  ZnH6C5O4
_cell_volume  145.41409039028088
_cell_formula_units_Z  1
loop_
  _symmetry_equiv_pos_site_id
 _symmetry_equiv_pos_as_xyz
 1  'x, y, z'
loop_
 _atom_site_type_symbol
 _atom_site_label
 _atom_site_symmetry_multiplicity
 _atom_site_fract_x
 _atom_site_fract_y
 _atom_site_fract_z
 _atom_site_fract_occupancy
 C  C1  1  0.70688  0.33121  0.47586  1
 C  C2  1  0.63414  0.50564  0.62617  1
 C  C3  1  0.52678  0.31274  0.77424  1
 C  C4  1  0.39853  0.53032  0.91188  1
 C  C5  1  0.24627  0.39300  0.06221  1
 H  H1  1  0.86354  0.55304  0.64853  1
 H  H2  1  0.43177  0.74055  0.60414  1
 H  H3  1  0.73981  0.09317  0.80954  1
 H  H4  1  0.60515  0.59611  0.95031  1
 H  H5  1  0.32493  0.23039  0.74433  1
 H  H6  1  0.20703  0.76243  0.87165  1
 O  O1  1  0.52300  0.44193  0.35820  1
 O  O2  1  0.96078  0.06139  0.47485  1
 O  O3  1  0.34404  0.08502  0.08987  1
 O  O4  1  0.02689  0.58520  0.15380  1
 Zn  Zn1  1  0.16810  0.86650  0.27683  1
