CIF file written using JARVIS-Tools package.
data_Sm2Se2O
_symmetry_space_group_name_H-M  'P2_1/c'
_cell_length_a       7.24804
_cell_length_b       7.22471
_cell_length_c       8.73252
_cell_angle_alpha    90
_cell_angle_beta     100.294
_cell_angle_gamma    90

_symmetry_Int_Tables_number  14
_chemical_formula_structural  Sm2Se2O
_chemical_formula_sum  Sm8Se8O4
_cell_volume  449.91807315505014
_cell_formula_units_Z  4
loop_
  _symmetry_equiv_pos_site_id
 _symmetry_equiv_pos_as_xyz
 1  'x, y, z'
loop_
 _atom_site_type_symbol
 _atom_site_label
 _atom_site_symmetry_multiplicity
 _atom_site_fract_x
 _atom_site_fract_y
 _atom_site_fract_z
 _atom_site_fract_occupancy
 O  O1  1  0.85000  0.41498  0.38638  1
 O  O2  1  0.15000  0.58502  0.61362  1
 O  O3  1  0.35000  0.08502  0.38638  1
 O  O4  1  0.65000  0.91498  0.61362  1
 Se  Se1  1  0.57485  0.37504  0.68263  1
 Se  Se2  1  0.47025  0.77950  0.92274  1
 Se  Se3  1  0.07485  0.12496  0.68263  1
 Se  Se4  1  0.97025  0.72050  0.92274  1
 Se  Se5  1  0.42515  0.62496  0.31737  1
 Se  Se6  1  0.92515  0.87504  0.31737  1
 Se  Se7  1  0.02975  0.27950  0.07726  1
 Se  Se8  1  0.52975  0.22050  0.07726  1
 Sm  Sm1  1  0.75227  0.55173  0.14282  1
 Sm  Sm2  1  0.25227  0.94827  0.14282  1
 Sm  Sm3  1  0.67117  0.15038  0.42686  1
 Sm  Sm4  1  0.17117  0.34962  0.42686  1
 Sm  Sm5  1  0.82883  0.65038  0.57314  1
 Sm  Sm6  1  0.32883  0.84962  0.57314  1
 Sm  Sm7  1  0.74773  0.05173  0.85718  1
 Sm  Sm8  1  0.24773  0.44827  0.85718  1
