CIF file written using JARVIS-Tools package.
data_BaY2NiO5
_symmetry_space_group_name_H-M  'Immm'
_cell_length_a       3.7494
_cell_length_b       5.78447
_cell_length_c       6.67703
_cell_angle_alpha    115.668
_cell_angle_beta     106.306
_cell_angle_gamma    90.0001

_symmetry_Int_Tables_number  71
_chemical_formula_structural  BaY2NiO5
_chemical_formula_sum  BaY2NiO5
_cell_volume  124.0278527837852
_cell_formula_units_Z  1
loop_
  _symmetry_equiv_pos_site_id
 _symmetry_equiv_pos_as_xyz
 1  'x, y, z'
loop_
 _atom_site_type_symbol
 _atom_site_label
 _atom_site_symmetry_multiplicity
 _atom_site_fract_x
 _atom_site_fract_y
 _atom_site_fract_z
 _atom_site_fract_occupancy
 Ba  Ba1  1  0.00000  0.00000  0.00000  1
 Ni  Ni1  1  0.50000  0.50000  0.00000  1
 O  O1  1  0.35038  0.10964  0.70076  1
 O  O2  1  0.64962  0.89036  0.29924  1
 O  O3  1  0.64962  0.40888  0.29924  1
 O  O4  1  0.35038  0.59112  0.70076  1
 O  O5  1  0.00000  0.50000  0.00000  1
 Y  Y1  1  0.79816  0.29816  0.59632  1
 Y  Y2  1  0.20184  0.70184  0.40368  1
