CIF file written using JARVIS-Tools package.
data_CdH10C7O4
_symmetry_space_group_name_H-M  'P1'
_cell_length_a       4.05699
_cell_length_b       4.33139
_cell_length_c       10.6374
_cell_angle_alpha    85.5395
_cell_angle_beta     88.0253
_cell_angle_gamma    76.0554

_symmetry_Int_Tables_number  1
_chemical_formula_structural  CdH10C7O4
_chemical_formula_sum  CdH0C7O4
_cell_volume  180.84196523078433
_cell_formula_units_Z  1
loop_
  _symmetry_equiv_pos_site_id
 _symmetry_equiv_pos_as_xyz
 1  'x, y, z'
loop_
 _atom_site_type_symbol
 _atom_site_label
 _atom_site_symmetry_multiplicity
 _atom_site_fract_x
 _atom_site_fract_y
 _atom_site_fract_z
 _atom_site_fract_occupancy
 C  C1  1  0.24090  0.29182  0.00250  1
 C  C2  1  0.36795  0.41014  0.11686  1
 C  C3  1  0.08650  0.58755  0.20264  1
 C  C4  1  0.21067  0.72891  0.31459  1
 C  C5  1  0.34404  0.49284  0.42686  1
 C  C6  1  0.42199  0.67542  0.53536  1
 C  C7  1  0.53184  0.48612  0.65897  1
 Cd  Cd1  1  0.92816  0.95431  0.84010  1
 H  H1  1  0.20045  0.86790  0.55581  1
 H  H2  1  0.15080  0.36235  0.45820  1
 H  H3  1  0.52215  0.57298  0.07936  1
 H  H4  1  0.53918  0.20710  0.16738  1
 H  H5  1  0.40622  0.85598  0.28264  1
 H  H6  1  0.99612  0.91238  0.34955  1
 H  H7  1  0.92257  0.78076  0.14402  1
 H  H8  1  0.92562  0.42866  0.23887  1
 H  H9  1  0.57224  0.31329  0.40020  1
 H  H10  1  0.62798  0.79365  0.50708  1
 O  O1  1  0.42086  0.60791  0.76169  1
 O  O2  1  0.96943  0.44898  0.94837  1
 O  O3  1  0.74815  0.21533  0.65573  1
 O  O4  1  0.40136  0.02402  0.96173  1
