CIF file written using JARVIS-Tools package.
data_UI3
_symmetry_space_group_name_H-M  'Cmcm'
_cell_length_a       4.1833
_cell_length_b       7.42676
_cell_length_c       9.95971
_cell_angle_alpha    90
_cell_angle_beta     90
_cell_angle_gamma    106.358

_symmetry_Int_Tables_number  63
_chemical_formula_structural  UI3
_chemical_formula_sum  U2I6
_cell_volume  296.90664305502065
_cell_formula_units_Z  2
loop_
  _symmetry_equiv_pos_site_id
 _symmetry_equiv_pos_as_xyz
 1  'x, y, z'
loop_
 _atom_site_type_symbol
 _atom_site_label
 _atom_site_symmetry_multiplicity
 _atom_site_fract_x
 _atom_site_fract_y
 _atom_site_fract_z
 _atom_site_fract_occupancy
 I  I1  1  0.35438  0.70876  0.43435  1
 I  I2  1  0.64562  0.29124  0.56565  1
 I  I3  1  0.92348  0.84696  0.75000  1
 I  I4  1  0.07652  0.15304  0.25000  1
 I  I5  1  0.35438  0.70876  0.06565  1
 I  I6  1  0.64562  0.29124  0.93435  1
 U  U1  1  0.73820  0.47640  0.25000  1
 U  U2  1  0.26180  0.52360  0.75000  1
