CIF file written using JARVIS-Tools package.
data_Li5BiO5
_symmetry_space_group_name_H-M  'C2/m'
_cell_length_a       4.26821
_cell_length_b       5.39604
_cell_length_c       6.01538
_cell_angle_alpha    108.249
_cell_angle_beta     90
_cell_angle_gamma    113.297

_symmetry_Int_Tables_number  12
_chemical_formula_structural  Li5BiO5
_chemical_formula_sum  Li5BiO5
_cell_volume  119.62284546709611
_cell_formula_units_Z  1
loop_
  _symmetry_equiv_pos_site_id
 _symmetry_equiv_pos_as_xyz
 1  'x, y, z'
loop_
 _atom_site_type_symbol
 _atom_site_label
 _atom_site_symmetry_multiplicity
 _atom_site_fract_x
 _atom_site_fract_y
 _atom_site_fract_z
 _atom_site_fract_occupancy
 Bi  Bi1  1  0.99383  0.98767  0.01547  1
 Li  Li1  1  0.70553  0.41105  0.35782  1
 Li  Li2  1  0.99377  0.98754  0.51546  1
 Li  Li3  1  0.30556  0.61113  0.15593  1
 Li  Li4  1  0.68215  0.36430  0.87493  1
 Li  Li5  1  0.28207  0.56415  0.67305  1
 O  O1  1  0.84384  0.68767  0.19714  1
 O  O2  1  0.49378  0.98757  0.01557  1
 O  O3  1  0.16255  0.32511  0.34399  1
 O  O4  1  0.82512  0.65024  0.68691  1
 O  O5  1  0.14379  0.28758  0.83373  1
