CIF file written using JARVIS-Tools package.
data_Li2CuF6
_symmetry_space_group_name_H-M  'Cmmm'
_cell_length_a       4.58187
_cell_length_b       4.582
_cell_length_c       8.82616
_cell_angle_alpha    89.9985
_cell_angle_beta     89.9996
_cell_angle_gamma    90.3249

_symmetry_Int_Tables_number  65
_chemical_formula_structural  Li2CuF6
_chemical_formula_sum  Li4Cu2F2
_cell_volume  185.29450674004647
_cell_formula_units_Z  2
loop_
  _symmetry_equiv_pos_site_id
 _symmetry_equiv_pos_as_xyz
 1  'x, y, z'
loop_
 _atom_site_type_symbol
 _atom_site_label
 _atom_site_symmetry_multiplicity
 _atom_site_fract_x
 _atom_site_fract_y
 _atom_site_fract_z
 _atom_site_fract_occupancy
 Cu  Cu1  1  0.00000  0.00000  0.00000  1
 Cu  Cu2  1  0.50000  0.50000  0.50000  1
 F  F1  1  0.69174  0.69173  0.65820  1
 F  F2  1  0.18976  0.81023  0.15581  1
 F  F3  1  0.18977  0.81024  0.84420  1
 F  F4  1  0.81023  0.18976  0.15580  1
 F  F5  1  0.29079  0.29079  -0.00000  1
 F  F6  1  0.21247  0.78752  0.50000  1
 F  F7  1  0.30826  0.30826  0.65821  1
 F  F8  1  0.81024  0.18977  0.84419  1
 F  F9  1  0.30826  0.30827  0.34180  1
 F  F10  1  0.70921  0.70921  0.00000  1
 F  F11  1  0.78752  0.21248  0.50000  1
 F  F12  1  0.69174  0.69174  0.34179  1
 Li  Li1  1  0.50001  0.49999  0.83486  1
 Li  Li2  1  0.49999  0.50001  0.16514  1
 Li  Li3  1  -0.00001  0.00000  0.66245  1
 Li  Li4  1  0.00001  1.00000  0.33755  1
