CIF file written using JARVIS-Tools package.
data_MgVF6
_symmetry_space_group_name_H-M  'R-3'
_cell_length_a       5.35534
_cell_length_b       5.35533
_cell_length_c       5.35534
_cell_angle_alpha    56.479
_cell_angle_beta     56.479
_cell_angle_gamma    56.4791

_symmetry_Int_Tables_number  148
_chemical_formula_structural  MgVF6
_chemical_formula_sum  MgVF6
_cell_volume  99.76472685374999
_cell_formula_units_Z  1
loop_
  _symmetry_equiv_pos_site_id
 _symmetry_equiv_pos_as_xyz
 1  'x, y, z'
loop_
 _atom_site_type_symbol
 _atom_site_label
 _atom_site_symmetry_multiplicity
 _atom_site_fract_x
 _atom_site_fract_y
 _atom_site_fract_z
 _atom_site_fract_occupancy
 F  F1  1  0.35344  0.12774  0.76017  1
 F  F2  1  0.12774  0.76017  0.35344  1
 F  F3  1  0.23983  0.64656  0.87226  1
 F  F4  1  0.87226  0.23983  0.64656  1
 F  F5  1  0.64656  0.87226  0.23983  1
 F  F6  1  0.76017  0.35344  0.12774  1
 Mg  Mg1  1  0.50000  0.50000  0.50000  1
 V  V1  1  0.00000  0.00000  0.00000  1
