CIF file written using JARVIS-Tools package.
data_CdO
_symmetry_space_group_name_H-M  'P6_3mc'
_cell_length_a       3.66142
_cell_length_b       3.66142
_cell_length_c       5.78163
_cell_angle_alpha    90
_cell_angle_beta     90
_cell_angle_gamma    120

_symmetry_Int_Tables_number  186
_chemical_formula_structural  CdO
_chemical_formula_sum  Cd2O2
_cell_volume  67.12404326531309
_cell_formula_units_Z  2
loop_
  _symmetry_equiv_pos_site_id
 _symmetry_equiv_pos_as_xyz
 1  'x, y, z'
loop_
 _atom_site_type_symbol
 _atom_site_label
 _atom_site_symmetry_multiplicity
 _atom_site_fract_x
 _atom_site_fract_y
 _atom_site_fract_z
 _atom_site_fract_occupancy
 Cd  Cd1  1  0.66667  0.33333  0.50065  1
 Cd  Cd2  1  0.33333  0.66667  0.00065  1
 O  O1  1  0.66667  0.33333  0.11445  1
 O  O2  1  0.33333  0.66667  0.61445  1
