CIF file written using JARVIS-Tools package.
data_Li5BiS4
_symmetry_space_group_name_H-M  'Cmc2_1'
_cell_length_a       7.34438
_cell_length_b       7.34438
_cell_length_c       7.70882
_cell_angle_alpha    90
_cell_angle_beta     90
_cell_angle_gamma    62.4208

_symmetry_Int_Tables_number  36
_chemical_formula_structural  Li5BiS4
_chemical_formula_sum  Li0Bi2S8
_cell_volume  368.5655811885946
_cell_formula_units_Z  2
loop_
  _symmetry_equiv_pos_site_id
 _symmetry_equiv_pos_as_xyz
 1  'x, y, z'
loop_
 _atom_site_type_symbol
 _atom_site_label
 _atom_site_symmetry_multiplicity
 _atom_site_fract_x
 _atom_site_fract_y
 _atom_site_fract_z
 _atom_site_fract_occupancy
 Bi  Bi1  1  0.66654  0.66654  0.57878  1
 Bi  Bi2  1  0.33346  0.33346  0.07878  1
 Li  Li1  1  0.24096  0.88339  0.30368  1
 Li  Li2  1  0.11661  0.75904  0.80368  1
 Li  Li3  1  0.42627  0.83509  0.01606  1
 Li  Li4  1  0.16491  0.57373  0.51606  1
 Li  Li5  1  0.13662  0.13662  0.71366  1
 Li  Li6  1  0.86338  0.86338  0.21366  1
 Li  Li7  1  0.57373  0.16491  0.51606  1
 Li  Li8  1  0.83509  0.42627  0.01606  1
 Li  Li9  1  0.75904  0.11661  0.80368  1
 Li  Li10  1  0.88339  0.24096  0.30368  1
 S  S1  1  0.52327  0.52327  0.21512  1
 S  S2  1  0.50086  0.00586  0.27055  1
 S  S3  1  0.49914  0.99414  0.77055  1
 S  S4  1  0.00586  0.50086  0.27055  1
 S  S5  1  0.02296  0.02296  0.02756  1
 S  S6  1  0.97704  0.97704  0.52756  1
 S  S7  1  0.47673  0.47673  0.71512  1
 S  S8  1  0.99414  0.49914  0.77055  1
