CIF file written using JARVIS-Tools package.
data_KAsO2
_symmetry_space_group_name_H-M  'Pbcm'
_cell_length_a       5.45546
_cell_length_b       7.07751
_cell_length_c       7.43294
_cell_angle_alpha    90
_cell_angle_beta     90
_cell_angle_gamma    90

_symmetry_Int_Tables_number  57
_chemical_formula_structural  KAsO2
_chemical_formula_sum  K4As4O8
_cell_volume  286.99341193548884
_cell_formula_units_Z  4
loop_
  _symmetry_equiv_pos_site_id
 _symmetry_equiv_pos_as_xyz
 1  'x, y, z'
loop_
 _atom_site_type_symbol
 _atom_site_label
 _atom_site_symmetry_multiplicity
 _atom_site_fract_x
 _atom_site_fract_y
 _atom_site_fract_z
 _atom_site_fract_occupancy
 As  As1  1  0.25000  0.86314  0.37717  1
 As  As2  1  0.75000  0.13686  0.62283  1
 As  As3  1  0.75000  0.86314  0.12283  1
 As  As4  1  0.25000  0.13686  0.87717  1
 K  K1  1  0.25000  0.36830  0.40783  1
 K  K2  1  0.75000  0.36830  0.09217  1
 K  K3  1  0.75000  0.63170  0.59217  1
 K  K4  1  0.25000  0.63170  0.90783  1
 O  O1  1  0.50000  0.26251  0.75000  1
 O  O2  1  0.00000  0.73749  0.25000  1
 O  O3  1  0.50000  0.73749  0.25000  1
 O  O4  1  0.00000  0.26251  0.75000  1
 O  O5  1  0.25000  0.71981  0.56374  1
 O  O6  1  0.25000  0.28019  0.06374  1
 O  O7  1  0.75000  0.71981  0.93626  1
 O  O8  1  0.75000  0.28019  0.43626  1
