CIF file written using JARVIS-Tools package.
data_YbPO4
_symmetry_space_group_name_H-M  'I4_1/a'
_cell_length_a       4.85924
_cell_length_b       4.85923
_cell_length_c       6.59156
_cell_angle_alpha    111.629
_cell_angle_beta     111.629
_cell_angle_gamma    90

_symmetry_Int_Tables_number  88
_chemical_formula_structural  YbPO4
_chemical_formula_sum  Yb2P2O8
_cell_volume  132.82289148742677
_cell_formula_units_Z  2
loop_
  _symmetry_equiv_pos_site_id
 _symmetry_equiv_pos_as_xyz
 1  'x, y, z'
loop_
 _atom_site_type_symbol
 _atom_site_label
 _atom_site_symmetry_multiplicity
 _atom_site_fract_x
 _atom_site_fract_y
 _atom_site_fract_z
 _atom_site_fract_occupancy
 O  O1  1  0.70532  0.58462  0.89768  1
 O  O2  1  0.31306  0.20532  0.39768  1
 O  O3  1  0.08462  0.69235  0.39768  1
 O  O4  1  0.19235  0.81306  0.89768  1
 O  O5  1  0.80765  0.18694  0.10232  1
 O  O6  1  0.91538  0.30765  0.60232  1
 O  O7  1  0.68694  0.79468  0.60232  1
 O  O8  1  0.29468  0.41538  0.10232  1
 P  P1  1  0.87500  0.62500  0.75000  1
 P  P2  1  0.12500  0.37500  0.25000  1
 Yb  Yb1  1  0.37500  0.12500  0.75000  1
 Yb  Yb2  1  0.62500  0.87500  0.25000  1
