CIF file written using JARVIS-Tools package.
data_H12C5O4
_symmetry_space_group_name_H-M  'I-4'
_cell_length_a       5.94683
_cell_length_b       5.94682
_cell_length_c       5.94682
_cell_angle_alpha    118.847
_cell_angle_beta     118.847
_cell_angle_gamma    92.0096

_symmetry_Int_Tables_number  82
_chemical_formula_structural  H12C5O4
_chemical_formula_sum  H2C5O4
_cell_volume  151.20189321180086
_cell_formula_units_Z  1
loop_
  _symmetry_equiv_pos_site_id
 _symmetry_equiv_pos_as_xyz
 1  'x, y, z'
loop_
 _atom_site_type_symbol
 _atom_site_label
 _atom_site_symmetry_multiplicity
 _atom_site_fract_x
 _atom_site_fract_y
 _atom_site_fract_z
 _atom_site_fract_occupancy
 C  C1  1  0.72859  0.01741  0.96408  1
 C  C2  1  0.05333  0.76451  0.03592  1
 C  C3  1  0.23549  0.27141  0.28882  1
 C  C4  1  0.98259  0.94667  0.71118  1
 C  C5  1  0.00000  0.00000  0.00000  1
 H  H1  1  0.94864  0.11687  0.68751  1
 H  H2  1  0.19503  0.43901  0.26273  1
 H  H3  1  0.88313  0.57064  0.83176  1
 H  H4  1  0.42936  0.26113  0.31249  1
 H  H5  1  0.17628  0.93230  0.73727  1
 H  H6  1  0.27414  0.60293  0.86866  1
 H  H7  1  0.06770  0.80497  0.24398  1
 H  H8  1  0.56099  0.82372  0.75602  1
 H  H9  1  0.59452  0.72586  0.32879  1
 H  H10  1  0.39707  0.26573  0.67121  1
 H  H11  1  0.73427  0.40548  0.13134  1
 H  H12  1  0.73887  0.05136  0.16824  1
 O  O1  1  0.66225  0.23219  0.92442  1
 O  O2  1  0.76781  0.69223  0.43006  1
 O  O3  1  0.30777  0.73783  0.07558  1
 O  O4  1  0.26217  0.33775  0.56994  1
