CIF file written using JARVIS-Tools package.
data_TeO2
_symmetry_space_group_name_H-M  'Pbca'
_cell_length_a       5.45696
_cell_length_b       5.72338
_cell_length_c       11.8249
_cell_angle_alpha    90
_cell_angle_beta     90
_cell_angle_gamma    90

_symmetry_Int_Tables_number  61
_chemical_formula_structural  TeO2
_chemical_formula_sum  Te8O6
_cell_volume  369.31743495655144
_cell_formula_units_Z  8
loop_
  _symmetry_equiv_pos_site_id
 _symmetry_equiv_pos_as_xyz
 1  'x, y, z'
loop_
 _atom_site_type_symbol
 _atom_site_label
 _atom_site_symmetry_multiplicity
 _atom_site_fract_x
 _atom_site_fract_y
 _atom_site_fract_z
 _atom_site_fract_occupancy
 O  O1  1  0.64518  0.16447  0.53139  1
 O  O2  1  0.71833  0.42294  0.32588  1
 O  O3  1  0.21833  0.07706  0.67412  1
 O  O4  1  0.28167  0.92294  0.17412  1
 O  O5  1  0.35482  0.83553  0.46861  1
 O  O6  1  0.28167  0.57706  0.67412  1
 O  O7  1  0.78167  0.92294  0.32588  1
 O  O8  1  0.78167  0.57706  0.82588  1
 O  O9  1  0.21833  0.42294  0.17412  1
 O  O10  1  0.35482  0.66447  0.96861  1
 O  O11  1  0.85482  0.83553  0.03139  1
 O  O12  1  0.85482  0.66447  0.53139  1
 O  O13  1  0.14518  0.33553  0.46861  1
 O  O14  1  0.64518  0.33553  0.03139  1
 O  O15  1  0.14518  0.16447  0.96861  1
 O  O16  1  0.71833  0.07706  0.82588  1
 Te  Te1  1  0.02072  0.12888  0.12098  1
 Te  Te2  1  0.52072  0.37112  0.87902  1
 Te  Te3  1  0.97928  0.62888  0.37902  1
 Te  Te4  1  0.47928  0.87112  0.62098  1
 Te  Te5  1  0.97928  0.87112  0.87902  1
 Te  Te6  1  0.47928  0.62888  0.12098  1
 Te  Te7  1  0.02072  0.37112  0.62098  1
 Te  Te8  1  0.52072  0.12888  0.37902  1
