CIF file written using JARVIS-Tools package.
data_H8C13SO
_symmetry_space_group_name_H-M  'P1'
_cell_length_a       3.85331
_cell_length_b       5.96643
_cell_length_c       10.5531
_cell_angle_alpha    89.6279
_cell_angle_beta     99.3241
_cell_angle_gamma    105.77

_symmetry_Int_Tables_number  1
_chemical_formula_structural  H8C13SO
_chemical_formula_sum  H8C3SO
_cell_volume  230.2232718192028
_cell_formula_units_Z  1
loop_
  _symmetry_equiv_pos_site_id
 _symmetry_equiv_pos_as_xyz
 1  'x, y, z'
loop_
 _atom_site_type_symbol
 _atom_site_label
 _atom_site_symmetry_multiplicity
 _atom_site_fract_x
 _atom_site_fract_y
 _atom_site_fract_z
 _atom_site_fract_occupancy
 C  C1  1  0.38308  0.71487  0.79242  1
 C  C2  1  0.26276  0.51721  0.58209  1
 C  C3  1  0.54618  0.35324  0.77046  1
 C  C4  1  0.90041  0.26217  0.39404  1
 C  C5  1  0.41602  0.34481  0.63961  1
 C  C6  1  0.51709  0.53558  0.84614  1
 C  C7  1  0.08922  0.48767  0.44577  1
 C  C8  1  0.71723  0.22691  0.26874  1
 C  C9  1  0.91708  0.64135  0.23736  1
 C  C10  1  0.25856  0.70574  0.66021  1
 C  C11  1  0.09310  0.67582  0.36469  1
 C  C12  1  0.72132  0.41582  0.18804  1
 C  C13  1  0.52299  0.37101  0.05551  1
 H  H1  1  0.36158  0.85422  0.85432  1
 H  H2  1  0.92979  0.78961  0.17579  1
 H  H3  1  0.13109  0.83823  0.61973  1
 H  H4  1  0.89003  0.11282  0.45486  1
 H  H5  1  0.67898  0.22511  0.81296  1
 H  H6  1  0.57013  0.05204  0.23042  1
 H  H7  1  0.44313  0.20472  0.57977  1
 H  H8  1  0.24240  0.85193  0.40116  1
 O  O1  1  0.64531  0.55193  0.97936  1
 S  S1  1  0.18872  0.13445  0.00719  1
