CIF file written using JARVIS-Tools package.
data_Te4Mo2WSe2
_symmetry_space_group_name_H-M  'P3m1'
_cell_length_a       3.4859
_cell_length_b       3.48591
_cell_length_c       30.2975
_cell_angle_alpha    89.9997
_cell_angle_beta     90
_cell_angle_gamma    120

_symmetry_Int_Tables_number  156
_chemical_formula_structural  Te4Mo2WSe2
_chemical_formula_sum  Te4Mo2WSe2
_cell_volume  318.83698259026204
_cell_formula_units_Z  1
loop_
  _symmetry_equiv_pos_site_id
 _symmetry_equiv_pos_as_xyz
 1  'x, y, z'
loop_
 _atom_site_type_symbol
 _atom_site_label
 _atom_site_symmetry_multiplicity
 _atom_site_fract_x
 _atom_site_fract_y
 _atom_site_fract_z
 _atom_site_fract_occupancy
 Mo  Mo1  1  0.33333  0.66667  0.11767  1
 Mo  Mo2  1  0.33333  0.66667  0.58079  1
 Se  Se1  1  0.66667  0.33333  0.06418  1
 Se  Se2  1  0.66667  0.33334  0.17126  1
 Te  Te1  1  0.33331  0.66661  0.40360  1
 Te  Te2  1  0.66667  0.33335  0.51994  1
 Te  Te3  1  0.66666  0.33333  0.64153  1
 Te  Te4  1  0.33331  0.66662  0.28138  1
 W  W1  1  0.66664  0.33329  0.34249  1
