CIF file written using JARVIS-Tools package.
data_PrZnFe2O6
_symmetry_space_group_name_H-M  'Pmn2_1'
_cell_length_a       5.24135
_cell_length_b       5.40572
_cell_length_c       9.13888
_cell_angle_alpha    90
_cell_angle_beta     124.994
_cell_angle_gamma    90

_symmetry_Int_Tables_number  31
_chemical_formula_structural  PrZnFe2O6
_chemical_formula_sum  Pr2Zn2Fe4O2
_cell_volume  212.12122126408167
_cell_formula_units_Z  2
loop_
  _symmetry_equiv_pos_site_id
 _symmetry_equiv_pos_as_xyz
 1  'x, y, z'
loop_
 _atom_site_type_symbol
 _atom_site_label
 _atom_site_symmetry_multiplicity
 _atom_site_fract_x
 _atom_site_fract_y
 _atom_site_fract_z
 _atom_site_fract_occupancy
 Fe  Fe1  1  0.00128  0.75793  0.00113  1
 Fe  Fe2  1  0.49901  0.75793  0.49886  1
 Fe  Fe3  1  0.00128  0.24207  0.50113  1
 Fe  Fe4  1  0.49901  0.24207  -0.00114  1
 O  O1  1  0.18555  0.98813  0.45017  1
 O  O2  1  0.31760  0.77263  0.25000  1
 O  O3  1  0.24724  0.45450  0.44647  1
 O  O4  1  0.78520  0.01187  0.54982  1
 O  O5  1  0.85430  0.54550  0.55352  1
 O  O6  1  0.18555  0.01187  0.95017  1
 O  O7  1  0.62025  0.26100  0.25000  1
 O  O8  1  0.62025  0.73900  0.75000  1
 O  O9  1  0.78520  0.98813  0.04982  1
 O  O10  1  0.24724  0.54550  0.94647  1
 O  O11  1  0.85430  0.45450  0.05352  1
 O  O12  1  0.31760  0.22737  0.75000  1
 Pr  Pr1  1  0.75938  0.71381  0.25000  1
 Pr  Pr2  1  0.75938  0.28619  0.75000  1
 Zn  Zn1  1  0.23020  0.23186  0.25000  1
 Zn  Zn2  1  0.23020  0.76814  0.75000  1
