CIF file written using JARVIS-Tools package.
data_TiO
_symmetry_space_group_name_H-M  'P6_3/mmc'
_cell_length_a       2.84662
_cell_length_b       2.84664
_cell_length_c       5.55088
_cell_angle_alpha    89.9998
_cell_angle_beta     89.9999
_cell_angle_gamma    120

_symmetry_Int_Tables_number  194
_chemical_formula_structural  TiO
_chemical_formula_sum  Ti2O2
_cell_volume  38.954209247778834
_cell_formula_units_Z  2
loop_
  _symmetry_equiv_pos_site_id
 _symmetry_equiv_pos_as_xyz
 1  'x, y, z'
loop_
 _atom_site_type_symbol
 _atom_site_label
 _atom_site_symmetry_multiplicity
 _atom_site_fract_x
 _atom_site_fract_y
 _atom_site_fract_z
 _atom_site_fract_occupancy
 O  O1  1  0.99997  0.99990  0.75278  1
 O  O2  1  -0.00004  -0.00011  0.25278  1
 Ti  Ti1  1  0.66663  0.33323  0.00277  1
 Ti  Ti2  1  0.33330  0.66656  0.50278  1
