CIF file written using JARVIS-Tools package.
data_Nb3TeI7
_symmetry_space_group_name_H-M  'P3m1'
_cell_length_a       7.70909
_cell_length_b       7.70909
_cell_length_c       6.96983
_cell_angle_alpha    90
_cell_angle_beta     90
_cell_angle_gamma    120

_symmetry_Int_Tables_number  156
_chemical_formula_structural  Nb3TeI7
_chemical_formula_sum  Nb3TeI7
_cell_volume  358.72301730013936
_cell_formula_units_Z  1
loop_
  _symmetry_equiv_pos_site_id
 _symmetry_equiv_pos_as_xyz
 1  'x, y, z'
loop_
 _atom_site_type_symbol
 _atom_site_label
 _atom_site_symmetry_multiplicity
 _atom_site_fract_x
 _atom_site_fract_y
 _atom_site_fract_z
 _atom_site_fract_occupancy
 I  I1  1  0.66123  0.83062  0.76402  1
 I  I2  1  0.49876  0.99752  0.27570  1
 I  I3  1  0.16938  0.83062  0.76402  1
 I  I4  1  0.00248  0.50124  0.27570  1
 I  I5  1  0.66667  0.33333  0.71388  1
 I  I6  1  0.16938  0.33877  0.76402  1
 I  I7  1  0.49876  0.50124  0.27570  1
 Nb  Nb1  1  0.26493  0.13246  0.49897  1
 Nb  Nb2  1  0.86754  0.13246  0.49897  1
 Nb  Nb3  1  0.86754  0.73507  0.49897  1
 Te  Te1  1  0.00000  0.00000  0.19964  1
