CIF file written using JARVIS-Tools package.
data_Li2CoNiO4
_symmetry_space_group_name_H-M  'I-4m2'
_cell_length_a       5.02679
_cell_length_b       3.96
_cell_length_c       3.96
_cell_angle_alpha    90
_cell_angle_beta     66.8033
_cell_angle_gamma    66.8033

_symmetry_Int_Tables_number  119
_chemical_formula_structural  Li2CoNiO4
_chemical_formula_sum  Li2CoNiO4
_cell_volume  65.46536902188286
_cell_formula_units_Z  1
loop_
  _symmetry_equiv_pos_site_id
 _symmetry_equiv_pos_as_xyz
 1  'x, y, z'
loop_
 _atom_site_type_symbol
 _atom_site_label
 _atom_site_symmetry_multiplicity
 _atom_site_fract_x
 _atom_site_fract_y
 _atom_site_fract_z
 _atom_site_fract_occupancy
 Co  Co1  1  0.50000  0.25000  0.75000  1
 Li  Li1  1  0.50000  0.75000  0.25000  1
 Li  Li2  1  0.00000  0.50000  0.50000  1
 Ni  Ni1  1  0.00000  0.00000  0.00000  1
 O  O1  1  0.95710  0.02145  0.52145  1
 O  O2  1  0.45611  0.77195  0.77195  1
 O  O3  1  0.54389  0.22805  0.22805  1
 O  O4  1  0.04290  0.47855  0.97855  1
