CIF file written using JARVIS-Tools package.
data_HgNO2
_symmetry_space_group_name_H-M  'P2_1/c'
_cell_length_a       4.33469
_cell_length_b       6.23084
_cell_length_c       10.8257
_cell_angle_alpha    90
_cell_angle_beta     90
_cell_angle_gamma    109.305

_symmetry_Int_Tables_number  14
_chemical_formula_structural  HgNO2
_chemical_formula_sum  Hg4N4O8
_cell_volume  275.9483714184022
_cell_formula_units_Z  4
loop_
  _symmetry_equiv_pos_site_id
 _symmetry_equiv_pos_as_xyz
 1  'x, y, z'
loop_
 _atom_site_type_symbol
 _atom_site_label
 _atom_site_symmetry_multiplicity
 _atom_site_fract_x
 _atom_site_fract_y
 _atom_site_fract_z
 _atom_site_fract_occupancy
 Hg  Hg1  1  0.84485  0.85419  0.91637  1
 Hg  Hg2  1  0.15515  0.64581  0.41637  1
 Hg  Hg3  1  0.15515  0.14581  0.08363  1
 Hg  Hg4  1  0.84485  0.35419  0.58363  1
 N  N1  1  0.31338  0.50437  0.78770  1
 N  N2  1  0.68662  -0.00437  0.28770  1
 N  N3  1  0.68662  0.49563  0.21230  1
 N  N4  1  0.31338  0.00437  0.71230  1
 O  O1  1  0.60717  0.61332  0.75477  1
 O  O2  1  0.39283  0.88668  0.25477  1
 O  O3  1  0.39283  0.38668  0.24523  1
 O  O4  1  0.60717  0.11332  0.74523  1
 O  O5  1  0.23406  0.54672  0.89284  1
 O  O6  1  0.76594  0.95328  0.39284  1
 O  O7  1  0.76594  0.45328  0.10716  1
 O  O8  1  0.23406  0.04672  0.60716  1
