CIF file written using JARVIS-Tools package.
data_PrMgNi2O6
_symmetry_space_group_name_H-M  'Pmn2_1'
_cell_length_a       5.3725
_cell_length_b       5.1981
_cell_length_c       7.43368
_cell_angle_alpha    90
_cell_angle_beta     89.9968
_cell_angle_gamma    90

_symmetry_Int_Tables_number  31
_chemical_formula_structural  PrMgNi2O6
_chemical_formula_sum  Pr2Mg2Ni4O2
_cell_volume  207.59878310797043
_cell_formula_units_Z  2
loop_
  _symmetry_equiv_pos_site_id
 _symmetry_equiv_pos_as_xyz
 1  'x, y, z'
loop_
 _atom_site_type_symbol
 _atom_site_label
 _atom_site_symmetry_multiplicity
 _atom_site_fract_x
 _atom_site_fract_y
 _atom_site_fract_z
 _atom_site_fract_occupancy
 Mg  Mg1  1  0.81256  0.52949  0.75000  1
 Mg  Mg2  1  0.18744  0.02949  0.25000  1
 Ni  Ni1  1  0.75049  0.00288  0.99849  1
 Ni  Ni2  1  0.75049  0.00288  0.50151  1
 Ni  Ni3  1  0.24951  0.50288  0.49849  1
 Ni  Ni4  1  0.24951  0.50288  0.00151  1
 O  O1  1  0.99018  0.26569  0.44304  1
 O  O2  1  0.79898  0.92742  0.25000  1
 O  O3  1  0.44969  0.19324  0.44465  1
 O  O4  1  0.00982  0.76569  0.55696  1
 O  O5  1  0.55031  0.69324  0.55535  1
 O  O6  1  0.00982  0.76569  0.94304  1
 O  O7  1  0.73486  0.12886  0.75000  1
 O  O8  1  0.20102  0.42742  0.75000  1
 O  O9  1  0.99018  0.26569  0.05696  1
 O  O10  1  0.55031  0.69324  0.94465  1
 O  O11  1  0.44969  0.19324  0.05535  1
 O  O12  1  0.26514  0.62886  0.25000  1
 Pr  Pr1  1  0.71004  0.49064  0.25000  1
 Pr  Pr2  1  0.28996  0.99064  0.75000  1
