CIF file written using JARVIS-Tools package.
data_PrZnBi2O6
_symmetry_space_group_name_H-M  'Pmn2_1'
_cell_length_a       6.50866
_cell_length_b       5.70338
_cell_length_c       8.55764
_cell_angle_alpha    90
_cell_angle_beta     89.9988
_cell_angle_gamma    90

_symmetry_Int_Tables_number  31
_chemical_formula_structural  PrZnBi2O6
_chemical_formula_sum  Pr2Zn2Bi4O2
_cell_volume  317.67138776613643
_cell_formula_units_Z  2
loop_
  _symmetry_equiv_pos_site_id
 _symmetry_equiv_pos_as_xyz
 1  'x, y, z'
loop_
 _atom_site_type_symbol
 _atom_site_label
 _atom_site_symmetry_multiplicity
 _atom_site_fract_x
 _atom_site_fract_y
 _atom_site_fract_z
 _atom_site_fract_occupancy
 Bi  Bi1  1  0.28363  0.00857  0.00806  1
 Bi  Bi2  1  0.28363  0.00856  0.49193  1
 Bi  Bi3  1  0.71637  0.50856  0.50807  1
 Bi  Bi4  1  0.71637  0.50857  0.99194  1
 O  O1  1  0.41084  0.65882  0.56494  1
 O  O2  1  0.23630  0.12894  0.74999  1
 O  O3  1  0.95702  0.81084  0.57416  1
 O  O4  1  0.58916  0.15882  0.43506  1
 O  O5  1  0.04298  0.31084  0.42584  1
 O  O6  1  0.58916  0.15881  0.06494  1
 O  O7  1  0.81008  0.35052  0.75000  1
 O  O8  1  0.18992  0.85052  0.25000  1
 O  O9  1  0.41084  0.65881  0.93506  1
 O  O10  1  0.04298  0.31084  0.07415  1
 O  O11  1  0.95702  0.81084  0.92585  1
 O  O12  1  0.76370  0.62894  0.25001  1
 Pr  Pr1  1  0.16316  0.53698  0.75000  1
 Pr  Pr2  1  0.83684  0.03698  0.25000  1
 Zn  Zn1  1  0.89854  0.02713  0.75001  1
 Zn  Zn2  1  0.10146  0.52713  0.24999  1
