CIF file written using JARVIS-Tools package.
data_YbSnRh
_symmetry_space_group_name_H-M  'P-62m'
_cell_length_a       7.29625
_cell_length_b       7.29625
_cell_length_c       4.07104
_cell_angle_alpha    90
_cell_angle_beta     90
_cell_angle_gamma    120

_symmetry_Int_Tables_number  189
_chemical_formula_structural  YbSnRh
_chemical_formula_sum  Yb3Sn3Rh3
_cell_volume  187.68788249887243
_cell_formula_units_Z  3
loop_
  _symmetry_equiv_pos_site_id
 _symmetry_equiv_pos_as_xyz
 1  'x, y, z'
loop_
 _atom_site_type_symbol
 _atom_site_label
 _atom_site_symmetry_multiplicity
 _atom_site_fract_x
 _atom_site_fract_y
 _atom_site_fract_z
 _atom_site_fract_occupancy
 Rh  Rh1  1  0.33333  0.66667  0.50000  1
 Rh  Rh2  1  0.66667  0.33333  0.50000  1
 Rh  Rh3  1  0.00000  0.00000  0.00000  1
 Sn  Sn1  1  -0.00000  0.25979  0.50000  1
 Sn  Sn2  1  0.25979  -0.00000  0.50000  1
 Sn  Sn3  1  0.74021  0.74021  0.50000  1
 Yb  Yb1  1  0.59207  -0.00000  0.00000  1
 Yb  Yb2  1  -0.00000  0.59207  0.00000  1
 Yb  Yb3  1  0.40793  0.40793  0.00000  1
