CIF file written using JARVIS-Tools package.
data_Rb2NbF6
_symmetry_space_group_name_H-M  'P-3m1'
_cell_length_a       6.14511
_cell_length_b       6.14511
_cell_length_c       4.67349
_cell_angle_alpha    90
_cell_angle_beta     90
_cell_angle_gamma    120

_symmetry_Int_Tables_number  164
_chemical_formula_structural  Rb2NbF6
_chemical_formula_sum  Rb2NbF6
_cell_volume  152.83783627960514
_cell_formula_units_Z  1
loop_
  _symmetry_equiv_pos_site_id
 _symmetry_equiv_pos_as_xyz
 1  'x, y, z'
loop_
 _atom_site_type_symbol
 _atom_site_label
 _atom_site_symmetry_multiplicity
 _atom_site_fract_x
 _atom_site_fract_y
 _atom_site_fract_z
 _atom_site_fract_occupancy
 F  F1  1  0.83866  0.67732  0.77274  1
 F  F2  1  0.32268  0.16134  0.77274  1
 F  F3  1  0.83866  0.16134  0.77274  1
 F  F4  1  0.16134  0.32268  0.22726  1
 F  F5  1  0.67732  0.83866  0.22726  1
 F  F6  1  0.16134  0.83866  0.22726  1
 Nb  Nb1  1  0.00000  0.00000  0.00000  1
 Rb  Rb1  1  0.33333  0.66667  0.70623  1
 Rb  Rb2  1  0.66667  0.33333  0.29377  1
