CIF file written using JARVIS-Tools package.
data_CaPrFe2O6
_symmetry_space_group_name_H-M  'Pmn2_1'
_cell_length_a       5.3853
_cell_length_b       5.38711
_cell_length_c       9.31114
_cell_angle_alpha    90
_cell_angle_beta     125.337
_cell_angle_gamma    90

_symmetry_Int_Tables_number  31
_chemical_formula_structural  CaPrFe2O6
_chemical_formula_sum  Ca2Pr2Fe4O2
_cell_volume  220.3607131987556
_cell_formula_units_Z  2
loop_
  _symmetry_equiv_pos_site_id
 _symmetry_equiv_pos_as_xyz
 1  'x, y, z'
loop_
 _atom_site_type_symbol
 _atom_site_label
 _atom_site_symmetry_multiplicity
 _atom_site_fract_x
 _atom_site_fract_y
 _atom_site_fract_z
 _atom_site_fract_occupancy
 Ca  Ca1  1  0.24364  0.78405  0.74999  1
 Ca  Ca2  1  0.24364  0.21595  0.24999  1
 Fe  Fe1  1  -0.00008  0.75101  0.99978  1
 Fe  Fe2  1  0.50034  0.75101  0.50020  1
 Fe  Fe3  1  -0.00008  0.24899  0.49978  1
 Fe  Fe4  1  0.50034  0.24899  0.00020  1
 O  O1  1  0.30816  0.75938  0.24999  1
 O  O2  1  0.24621  0.46877  0.46483  1
 O  O3  1  0.75325  0.02748  0.53044  1
 O  O4  1  0.81655  0.53123  0.53516  1
 O  O5  1  0.19236  0.02747  0.96955  1
 O  O6  1  0.68407  0.25649  0.25000  1
 O  O7  1  0.19236  0.97253  0.46955  1
 O  O8  1  0.75325  0.97252  0.03044  1
 O  O9  1  0.24621  0.53123  0.96483  1
 O  O10  1  0.81655  0.46877  0.03516  1
 O  O11  1  0.30816  0.24062  0.74999  1
 O  O12  1  0.68407  0.74351  0.75000  1
 Pr  Pr1  1  0.75532  0.72153  0.24999  1
 Pr  Pr2  1  0.75532  0.27847  0.74999  1
