CIF file written using JARVIS-Tools package.
data_TbCl3
_symmetry_space_group_name_H-M  'Cmcm'
_cell_length_a       3.82591
_cell_length_b       6.18785
_cell_length_c       8.49987
_cell_angle_alpha    90
_cell_angle_beta     90
_cell_angle_gamma    108.008

_symmetry_Int_Tables_number  63
_chemical_formula_structural  TbCl3
_chemical_formula_sum  Tb2Cl6
_cell_volume  191.36965120416002
_cell_formula_units_Z  2
loop_
  _symmetry_equiv_pos_site_id
 _symmetry_equiv_pos_as_xyz
 1  'x, y, z'
loop_
 _atom_site_type_symbol
 _atom_site_label
 _atom_site_symmetry_multiplicity
 _atom_site_fract_x
 _atom_site_fract_y
 _atom_site_fract_z
 _atom_site_fract_occupancy
 Cl  Cl1  1  0.14704  0.29408  0.06607  1
 Cl  Cl2  1  0.85296  0.70592  0.93393  1
 Cl  Cl3  1  0.58372  0.16744  0.75000  1
 Cl  Cl4  1  0.41628  0.83256  0.25000  1
 Cl  Cl5  1  0.14704  0.29408  0.43393  1
 Cl  Cl6  1  0.85296  0.70592  0.56607  1
 Tb  Tb1  1  0.75723  0.51447  0.25000  1
 Tb  Tb2  1  0.24277  0.48553  0.75000  1
