CIF file written using JARVIS-Tools package.
data_Cr5Sb3O16
_symmetry_space_group_name_H-M  'Cm'
_cell_length_a       6.03223
_cell_length_b       6.03224
_cell_length_c       8.84175
_cell_angle_alpha    89.4714
_cell_angle_beta     89.4714
_cell_angle_gamma    60.3475

_symmetry_Int_Tables_number  8
_chemical_formula_structural  Cr5Sb3O16
_chemical_formula_sum  Cr5Sb3O6
_cell_volume  279.58325529714375
_cell_formula_units_Z  1
loop_
  _symmetry_equiv_pos_site_id
 _symmetry_equiv_pos_as_xyz
 1  'x, y, z'
loop_
 _atom_site_type_symbol
 _atom_site_label
 _atom_site_symmetry_multiplicity
 _atom_site_fract_x
 _atom_site_fract_y
 _atom_site_fract_z
 _atom_site_fract_occupancy
 Cr  Cr1  1  0.83609  0.33570  0.79441  1
 Cr  Cr2  1  0.65684  0.65683  0.51956  1
 Cr  Cr3  1  0.33572  0.83608  0.79441  1
 Cr  Cr4  1  0.16920  0.16919  0.29112  1
 Cr  Cr5  1  0.32618  0.32617  0.00219  1
 O  O1  1  0.83143  0.33514  0.39821  1
 O  O2  1  0.52967  0.52965  0.66914  1
 O  O3  1  0.66567  0.66566  0.90602  1
 O  O4  1  0.47827  0.47825  0.14941  1
 O  O5  1  0.00433  0.00431  0.17562  1
 O  O6  1  0.33515  0.83142  0.39821  1
 O  O7  1  0.00484  0.00482  0.68637  1
 O  O8  1  0.51964  0.94817  0.65576  1
 O  O9  1  0.47097  0.04988  0.15898  1
 O  O10  1  0.83063  0.83062  0.40064  1
 O  O11  1  0.94819  0.51962  0.65575  1
 O  O12  1  0.04989  0.47095  0.15898  1
 O  O13  1  0.33222  0.33220  0.40962  1
 O  O14  1  0.65946  0.17402  0.89990  1
 O  O15  1  0.17221  0.17219  0.89217  1
 O  O16  1  0.17404  0.65945  0.89990  1
 Sb  Sb1  1  0.16929  0.66642  0.28837  1
 Sb  Sb2  1  0.66643  0.16927  0.28837  1
 Sb  Sb3  1  0.83383  0.83381  0.79115  1
