CIF file written using JARVIS-Tools package.
data_TlSbS2
_symmetry_space_group_name_H-M  'P-1'
_cell_length_a       6.17826
_cell_length_b       6.45985
_cell_length_c       11.9133
_cell_angle_alpha    102.487
_cell_angle_beta     97.0274
_cell_angle_gamma    104.931

_symmetry_Int_Tables_number  2
_chemical_formula_structural  TlSbS2
_chemical_formula_sum  Tl4Sb4S8
_cell_volume  440.48501660275525
_cell_formula_units_Z  4
loop_
  _symmetry_equiv_pos_site_id
 _symmetry_equiv_pos_as_xyz
 1  'x, y, z'
loop_
 _atom_site_type_symbol
 _atom_site_label
 _atom_site_symmetry_multiplicity
 _atom_site_fract_x
 _atom_site_fract_y
 _atom_site_fract_z
 _atom_site_fract_occupancy
 S  S1  1  0.02135  0.19085  0.63968  1
 S  S2  1  0.97865  0.80915  0.36032  1
 S  S3  1  0.36247  0.77706  0.61491  1
 S  S4  1  0.63753  0.22294  0.38509  1
 S  S5  1  -0.01270  0.77942  0.82406  1
 S  S6  1  0.41759  0.81620  0.09433  1
 S  S7  1  0.58241  0.18380  0.90567  1
 S  S8  1  0.01270  0.22058  0.17594  1
 Sb  Sb1  1  0.60316  0.21632  0.16012  1
 Sb  Sb2  1  0.04381  0.21380  0.40970  1
 Sb  Sb3  1  0.39684  0.78368  0.83988  1
 Sb  Sb4  1  0.95619  0.78620  0.59030  1
 Tl  Tl1  1  0.89755  0.71789  0.08109  1
 Tl  Tl2  1  0.10245  0.28211  0.91891  1
 Tl  Tl3  1  0.43205  0.69491  0.33416  1
 Tl  Tl4  1  0.56795  0.30509  0.66584  1
