CIF file written using JARVIS-Tools package.
data_UGe2Rh2
_symmetry_space_group_name_H-M  'I4/mmm'
_cell_length_a       4.1103
_cell_length_b       4.11031
_cell_length_c       5.97497
_cell_angle_alpha    110.118
_cell_angle_beta     110.118
_cell_angle_gamma    90

_symmetry_Int_Tables_number  139
_chemical_formula_structural  UGe2Rh2
_chemical_formula_sum  UGe2Rh2
_cell_volume  88.19740655657827
_cell_formula_units_Z  1
loop_
  _symmetry_equiv_pos_site_id
 _symmetry_equiv_pos_as_xyz
 1  'x, y, z'
loop_
 _atom_site_type_symbol
 _atom_site_label
 _atom_site_symmetry_multiplicity
 _atom_site_fract_x
 _atom_site_fract_y
 _atom_site_fract_z
 _atom_site_fract_occupancy
 Ge  Ge1  1  0.61863  0.61863  0.23727  1
 Ge  Ge2  1  0.38137  0.38137  0.76273  1
 Rh  Rh1  1  0.75000  0.25000  0.50000  1
 Rh  Rh2  1  0.25000  0.75000  0.50000  1
 U  U1  1  0.00000  0.00000  0.00000  1
