CIF file written using JARVIS-Tools package.
data_Cu2S
_symmetry_space_group_name_H-M  'I4_1/amd'
_cell_length_a       5.29414
_cell_length_b       5.29414
_cell_length_c       5.29414
_cell_angle_alpha    97.5987
_cell_angle_beta     97.5988
_cell_angle_gamma    137.352

_symmetry_Int_Tables_number  141
_chemical_formula_structural  Cu2S
_chemical_formula_sum  Cu4S2
_cell_volume  93.64666129539229
_cell_formula_units_Z  2
loop_
  _symmetry_equiv_pos_site_id
 _symmetry_equiv_pos_as_xyz
 1  'x, y, z'
loop_
 _atom_site_type_symbol
 _atom_site_label
 _atom_site_symmetry_multiplicity
 _atom_site_fract_x
 _atom_site_fract_y
 _atom_site_fract_z
 _atom_site_fract_occupancy
 Cu  Cu1  1  0.25009  0.75000  0.00009  1
 Cu  Cu2  1  0.25000  0.75009  0.50009  1
 Cu  Cu3  1  0.24991  0.25000  0.49991  1
 Cu  Cu4  1  0.75000  0.74991  -0.00009  1
 S  S1  1  0.62500  0.37500  0.25000  1
 S  S2  1  0.87500  0.12500  0.75000  1
