CIF file written using JARVIS-Tools package.
data_KO2
_symmetry_space_group_name_H-M  'Imma'
_cell_length_a       3.87171
_cell_length_b       5.39045
_cell_length_c       5.39238
_cell_angle_alpha    81.7214
_cell_angle_beta     68.9612
_cell_angle_gamma    68.9534

_symmetry_Int_Tables_number  74
_chemical_formula_structural  KO2
_chemical_formula_sum  K2O4
_cell_volume  98.01620414671824
_cell_formula_units_Z  2
loop_
  _symmetry_equiv_pos_site_id
 _symmetry_equiv_pos_as_xyz
 1  'x, y, z'
loop_
 _atom_site_type_symbol
 _atom_site_label
 _atom_site_symmetry_multiplicity
 _atom_site_fract_x
 _atom_site_fract_y
 _atom_site_fract_z
 _atom_site_fract_occupancy
 K  K1  1  0.50000  0.50000  0.50000  1
 K  K2  1  0.00000  0.00000  0.00000  1
 O  O1  1  0.15612  0.04524  0.45473  1
 O  O2  1  0.15609  0.45476  0.04527  1
 O  O3  1  0.84391  0.54524  -0.04527  1
 O  O4  1  0.84388  0.95476  0.54527  1
