CIF file written using JARVIS-Tools package.
data_AlP
_symmetry_space_group_name_H-M  'P6_3mc'
_cell_length_a       3.89042
_cell_length_b       3.89042
_cell_length_c       6.39796
_cell_angle_alpha    90
_cell_angle_beta     90
_cell_angle_gamma    120

_symmetry_Int_Tables_number  186
_chemical_formula_structural  AlP
_chemical_formula_sum  Al2P2
_cell_volume  83.86210653106478
_cell_formula_units_Z  2
loop_
  _symmetry_equiv_pos_site_id
 _symmetry_equiv_pos_as_xyz
 1  'x, y, z'
loop_
 _atom_site_type_symbol
 _atom_site_label
 _atom_site_symmetry_multiplicity
 _atom_site_fract_x
 _atom_site_fract_y
 _atom_site_fract_z
 _atom_site_fract_occupancy
 Al  Al1  1  0.33333  0.66667  0.00029  1
 Al  Al2  1  0.66667  0.33333  0.50029  1
 P  P1  1  0.33333  0.66667  0.37471  1
 P  P2  1  0.66667  0.33333  0.87471  1
