CIF file written using JARVIS-Tools package.
data_YV2S4
_symmetry_space_group_name_H-M  'I4_1/amd'
_cell_length_a       7.34601
_cell_length_b       7.34601
_cell_length_c       7.57765
_cell_angle_alpha    118.994
_cell_angle_beta     118.994
_cell_angle_gamma    90

_symmetry_Int_Tables_number  141
_chemical_formula_structural  YV2S4
_chemical_formula_sum  Y2V4S8
_cell_volume  297.7267611291262
_cell_formula_units_Z  2
loop_
  _symmetry_equiv_pos_site_id
 _symmetry_equiv_pos_as_xyz
 1  'x, y, z'
loop_
 _atom_site_type_symbol
 _atom_site_label
 _atom_site_symmetry_multiplicity
 _atom_site_fract_x
 _atom_site_fract_y
 _atom_site_fract_z
 _atom_site_fract_occupancy
 S  S1  1  0.77312  0.79564  0.54624  1
 S  S2  1  0.74940  0.22688  0.95376  1
 S  S3  1  0.20436  0.22688  0.95376  1
 S  S4  1  0.22688  0.20436  0.45376  1
 S  S5  1  0.22688  0.74940  0.45376  1
 S  S6  1  0.25060  0.77312  0.04624  1
 S  S7  1  0.77312  0.25060  0.54624  1
 S  S8  1  0.79564  0.77312  0.04624  1
 V  V1  1  0.00000  0.50000  0.00000  1
 V  V2  1  0.00000  -0.00000  0.50000  1
 V  V3  1  0.50000  -0.00000  0.50000  1
 V  V4  1  0.00000  0.00000  0.00000  1
 Y  Y1  1  0.37500  0.62500  0.75000  1
 Y  Y2  1  0.62500  0.37500  0.25000  1
