CIF file written using JARVIS-Tools package.
data_Cr2FeSe4
_symmetry_space_group_name_H-M  'C2/m'
_cell_length_a       3.64263
_cell_length_b       6.32199
_cell_length_c       6.48033
_cell_angle_alpha    117.734
_cell_angle_beta     106.323
_cell_angle_gamma    90

_symmetry_Int_Tables_number  12
_chemical_formula_structural  Cr2FeSe4
_chemical_formula_sum  Cr2FeSe4
_cell_volume  125.25362600936481
_cell_formula_units_Z  1
loop_
  _symmetry_equiv_pos_site_id
 _symmetry_equiv_pos_as_xyz
 1  'x, y, z'
loop_
 _atom_site_type_symbol
 _atom_site_label
 _atom_site_symmetry_multiplicity
 _atom_site_fract_x
 _atom_site_fract_y
 _atom_site_fract_z
 _atom_site_fract_occupancy
 Cr  Cr1  1  0.74110  0.72096  0.48221  1
 Cr  Cr2  1  0.25890  0.27904  0.51779  1
 Fe  Fe1  1  0.00000  0.00000  0.00000  1
 Se  Se1  1  0.37518  0.03158  0.75037  1
 Se  Se2  1  0.62482  0.96842  0.24963  1
 Se  Se3  1  0.88615  0.55693  0.77230  1
 Se  Se4  1  0.11385  0.44307  0.22770  1
