CIF file written using JARVIS-Tools package.
data_K2CoSe2
_symmetry_space_group_name_H-M  'Ibam'
_cell_length_a       6.19547
_cell_length_b       6.89814
_cell_length_c       8.02703
_cell_angle_alpha    115.447
_cell_angle_beta     112.7
_cell_angle_gamma    90

_symmetry_Int_Tables_number  72
_chemical_formula_structural  K2CoSe2
_chemical_formula_sum  K4Co2Se4
_cell_volume  280.05488090097526
_cell_formula_units_Z  2
loop_
  _symmetry_equiv_pos_site_id
 _symmetry_equiv_pos_as_xyz
 1  'x, y, z'
loop_
 _atom_site_type_symbol
 _atom_site_label
 _atom_site_symmetry_multiplicity
 _atom_site_fract_x
 _atom_site_fract_y
 _atom_site_fract_z
 _atom_site_fract_occupancy
 Co  Co1  1  0.25000  -0.00000  0.00000  1
 Co  Co2  1  0.75000  -0.00000  0.00000  1
 K  K1  1  0.14492  0.47460  0.28985  1
 K  K2  1  0.85508  0.52540  0.71015  1
 K  K3  1  0.35508  0.18476  0.71015  1
 K  K4  1  0.64492  0.81524  0.28985  1
 Se  Se1  1  0.89682  0.08532  0.79364  1
 Se  Se2  1  0.10318  0.91468  0.20636  1
 Se  Se3  1  0.60318  0.29168  0.20636  1
 Se  Se4  1  0.39682  0.70832  0.79364  1
