CIF file written using JARVIS-Tools package.
data_HgB2C8N8
_symmetry_space_group_name_H-M  'P-3m1'
_cell_length_a       7.83092
_cell_length_b       7.83092
_cell_length_c       5.90756
_cell_angle_alpha    90
_cell_angle_beta     90
_cell_angle_gamma    120

_symmetry_Int_Tables_number  164
_chemical_formula_structural  HgB2C8N8
_chemical_formula_sum  HgB2C8N8
_cell_volume  313.73611660980055
_cell_formula_units_Z  1
loop_
  _symmetry_equiv_pos_site_id
 _symmetry_equiv_pos_as_xyz
 1  'x, y, z'
loop_
 _atom_site_type_symbol
 _atom_site_label
 _atom_site_symmetry_multiplicity
 _atom_site_fract_x
 _atom_site_fract_y
 _atom_site_fract_z
 _atom_site_fract_occupancy
 B  B1  1  0.66667  0.33333  0.39102  1
 B  B2  1  0.33333  0.66667  0.60898  1
 C  C1  1  0.77677  0.55355  0.30002  1
 C  C2  1  0.22323  0.77677  0.69998  1
 C  C3  1  0.66667  0.33333  0.65912  1
 C  C4  1  0.77677  0.22323  0.30002  1
 C  C5  1  0.44645  0.22323  0.30002  1
 C  C6  1  0.33333  0.66667  0.34088  1
 C  C7  1  0.55355  0.77677  0.69998  1
 C  C8  1  0.22323  0.44645  0.69998  1
 Hg  Hg1  1  0.00000  0.00000  0.00000  1
 N  N1  1  0.66667  0.33333  0.85571  1
 N  N2  1  0.14234  0.28468  0.76265  1
 N  N3  1  0.14234  0.85766  0.76265  1
 N  N4  1  0.28468  0.14234  0.23735  1
 N  N5  1  0.85766  0.71532  0.23735  1
 N  N6  1  0.71532  0.85766  0.76265  1
 N  N7  1  0.33333  0.66667  0.14429  1
 N  N8  1  0.85766  0.14234  0.23735  1
