CIF file written using JARVIS-Tools package.
data_Na2CuH4C4O10
_symmetry_space_group_name_H-M  'P-1'
_cell_length_a       3.52867
_cell_length_b       7.50017
_cell_length_c       9.54248
_cell_angle_alpha    103.768
_cell_angle_beta     99.2083
_cell_angle_gamma    102.736

_symmetry_Int_Tables_number  2
_chemical_formula_structural  Na2CuH4C4O10
_chemical_formula_sum  Na2CuH4C4O0
_cell_volume  233.16025255289583
_cell_formula_units_Z  1
loop_
  _symmetry_equiv_pos_site_id
 _symmetry_equiv_pos_as_xyz
 1  'x, y, z'
loop_
 _atom_site_type_symbol
 _atom_site_label
 _atom_site_symmetry_multiplicity
 _atom_site_fract_x
 _atom_site_fract_y
 _atom_site_fract_z
 _atom_site_fract_occupancy
 C  C1  1  0.95977  0.78086  0.72155  1
 C  C2  1  0.04023  0.21914  0.27845  1
 C  C3  1  0.73853  0.02600  0.25704  1
 C  C4  1  0.26147  0.97400  0.74296  1
 Cu  Cu1  1  0.00000  0.00000  0.00000  1
 H  H1  1  0.46895  0.53195  0.80185  1
 H  H2  1  0.53105  0.46805  0.19815  1
 H  H3  1  0.34615  0.32592  0.82701  1
 H  H4  1  0.65385  0.67408  0.17299  1
 Na  Na1  1  0.68976  0.30153  0.57603  1
 Na  Na2  1  0.31024  0.69847  0.42397  1
 O  O1  1  0.42387  0.00167  0.64131  1
 O  O2  1  0.29382  0.40091  0.75784  1
 O  O3  1  0.18856  0.23457  0.16491  1
 O  O4  1  0.81144  0.76543  0.83509  1
 O  O5  1  0.67227  0.90450  0.12755  1
 O  O6  1  0.32773  0.09550  0.87245  1
 O  O7  1  0.12574  0.34427  0.39885  1
 O  O8  1  0.87426  0.65573  0.60115  1
 O  O9  1  0.57613  -0.00167  0.35869  1
 O  O10  1  0.70618  0.59909  0.24216  1
