CIF file written using JARVIS-Tools package.
data_SmSI
_symmetry_space_group_name_H-M  'R-3m'
_cell_length_a       11.2157
_cell_length_b       11.2156
_cell_length_c       11.2157
_cell_angle_alpha    23.4906
_cell_angle_beta     23.4906
_cell_angle_gamma    23.4906

_symmetry_Int_Tables_number  166
_chemical_formula_structural  SmSI
_chemical_formula_sum  Sm2S2I2
_cell_volume  196.8404755859858
_cell_formula_units_Z  2
loop_
  _symmetry_equiv_pos_site_id
 _symmetry_equiv_pos_as_xyz
 1  'x, y, z'
loop_
 _atom_site_type_symbol
 _atom_site_label
 _atom_site_symmetry_multiplicity
 _atom_site_fract_x
 _atom_site_fract_y
 _atom_site_fract_z
 _atom_site_fract_occupancy
 I  I1  1  0.11612  0.11612  0.11612  1
 I  I2  1  0.88388  0.88388  0.88388  1
 S  S1  1  0.30170  0.30170  0.30170  1
 S  S2  1  0.69830  0.69830  0.69830  1
 Sm  Sm1  1  0.38833  0.38833  0.38833  1
 Sm  Sm2  1  0.61167  0.61167  0.61167  1
