CIF file written using JARVIS-Tools package.
data_SnO
_symmetry_space_group_name_H-M  'Pmn2_1'
_cell_length_a       3.93094
_cell_length_b       3.37708
_cell_length_c       5.90408
_cell_angle_alpha    90
_cell_angle_beta     90.0039
_cell_angle_gamma    90

_symmetry_Int_Tables_number  31
_chemical_formula_structural  SnO
_chemical_formula_sum  Sn2O2
_cell_volume  78.37726606958759
_cell_formula_units_Z  2
loop_
  _symmetry_equiv_pos_site_id
 _symmetry_equiv_pos_as_xyz
 1  'x, y, z'
loop_
 _atom_site_type_symbol
 _atom_site_label
 _atom_site_symmetry_multiplicity
 _atom_site_fract_x
 _atom_site_fract_y
 _atom_site_fract_z
 _atom_site_fract_occupancy
 O  O1  1  0.27721  0.00000  0.61333  1
 O  O2  1  0.77717  0.50000  0.38667  1
 Sn  Sn1  1  0.47278  0.00000  0.27291  1
 Sn  Sn2  1  0.97284  0.50000  0.72708  1
