CIF file written using JARVIS-Tools package.
data_GaP
_symmetry_space_group_name_H-M  'P6_3mc'
_cell_length_a       3.87423
_cell_length_b       3.87423
_cell_length_c       6.3959
_cell_angle_alpha    90
_cell_angle_beta     90
_cell_angle_gamma    120

_symmetry_Int_Tables_number  186
_chemical_formula_structural  GaP
_chemical_formula_sum  Ga2P2
_cell_volume  83.1386705208825
_cell_formula_units_Z  2
loop_
  _symmetry_equiv_pos_site_id
 _symmetry_equiv_pos_as_xyz
 1  'x, y, z'
loop_
 _atom_site_type_symbol
 _atom_site_label
 _atom_site_symmetry_multiplicity
 _atom_site_fract_x
 _atom_site_fract_y
 _atom_site_fract_z
 _atom_site_fract_occupancy
 Ga  Ga1  1  0.66667  0.33333  0.50018  1
 Ga  Ga2  1  0.33333  0.66667  0.00018  1
 P  P1  1  0.66667  0.33333  0.87382  1
 P  P2  1  0.33333  0.66667  0.37382  1
