CIF file written using JARVIS-Tools package.
data_MgMn2N2
_symmetry_space_group_name_H-M  'P-4m2'
_cell_length_a       3.60681
_cell_length_b       3.60683
_cell_length_c       5.01804
_cell_angle_alpha    90
_cell_angle_beta     90
_cell_angle_gamma    90

_symmetry_Int_Tables_number  115
_chemical_formula_structural  MgMn2N2
_chemical_formula_sum  MgMn2N2
_cell_volume  65.28043421232094
_cell_formula_units_Z  1
loop_
  _symmetry_equiv_pos_site_id
 _symmetry_equiv_pos_as_xyz
 1  'x, y, z'
loop_
 _atom_site_type_symbol
 _atom_site_label
 _atom_site_symmetry_multiplicity
 _atom_site_fract_x
 _atom_site_fract_y
 _atom_site_fract_z
 _atom_site_fract_occupancy
 Mg  Mg1  1  0.00000  0.00000  0.75000  1
 Mn  Mn1  1  0.50000  0.50000  0.00598  1
 Mn  Mn2  1  0.50000  0.50000  0.49402  1
 N  N1  1  0.00000  0.50000  0.49702  1
 N  N2  1  0.50000  0.00000  0.00298  1
