CIF file written using JARVIS-Tools package.
data_RbLiMoO4
_symmetry_space_group_name_H-M  'Cc'
_cell_length_a       5.60671
_cell_length_b       5.6067
_cell_length_c       9.85563
_cell_angle_alpha    92.2571
_cell_angle_beta     104.541
_cell_angle_gamma    119.302

_symmetry_Int_Tables_number  9
_chemical_formula_structural  RbLiMoO4
_chemical_formula_sum  Rb2Li2Mo2O8
_cell_volume  256.64029855561716
_cell_formula_units_Z  2
loop_
  _symmetry_equiv_pos_site_id
 _symmetry_equiv_pos_as_xyz
 1  'x, y, z'
loop_
 _atom_site_type_symbol
 _atom_site_label
 _atom_site_symmetry_multiplicity
 _atom_site_fract_x
 _atom_site_fract_y
 _atom_site_fract_z
 _atom_site_fract_occupancy
 Li  Li1  1  0.74084  0.36452  0.12792  1
 Li  Li2  1  0.76341  0.88709  0.62792  1
 Mo  Mo1  1  0.50153  0.25188  0.75193  1
 Mo  Mo2  1  0.50005  0.75041  0.25193  1
 O  O1  1  0.13403  0.49289  0.22648  1
 O  O2  1  0.63095  0.21548  0.92940  1
 O  O3  1  0.52544  0.07186  0.22189  1
 O  O4  1  0.15003  0.19645  0.72189  1
 O  O5  1  0.71391  0.79845  0.42940  1
 O  O6  1  0.49266  0.00450  0.62908  1
 O  O7  1  0.62458  0.63642  0.12908  1
 O  O8  1  0.73360  0.59246  0.72648  1
 Rb  Rb1  1  0.97382  0.46333  0.49830  1
 Rb  Rb2  1  0.03497  0.02448  0.99830  1
