CIF file written using JARVIS-Tools package.
data_KAlTe2
_symmetry_space_group_name_H-M  'I4/mcm'
_cell_length_a       6.99688
_cell_length_b       7.00661
_cell_length_c       7.00661
_cell_angle_alpha    75.5636
_cell_angle_beta     60.0459
_cell_angle_gamma    60.046

_symmetry_Int_Tables_number  140
_chemical_formula_structural  KAlTe2
_chemical_formula_sum  K2Al2Te4
_cell_volume  257.8596173167232
_cell_formula_units_Z  2
loop_
  _symmetry_equiv_pos_site_id
 _symmetry_equiv_pos_as_xyz
 1  'x, y, z'
loop_
 _atom_site_type_symbol
 _atom_site_label
 _atom_site_symmetry_multiplicity
 _atom_site_fract_x
 _atom_site_fract_y
 _atom_site_fract_z
 _atom_site_fract_occupancy
 Al  Al1  1  0.75000  0.50000  0.50000  1
 Al  Al2  1  0.25000  0.50000  0.50000  1
 K  K1  1  0.75000  0.00000  0.00000  1
 K  K2  1  0.25000  0.00000  -0.00000  1
 Te  Te1  1  0.16643  0.50000  0.16715  1
 Te  Te2  1  0.33357  0.83285  0.50000  1
 Te  Te3  1  0.66643  0.16715  0.50000  1
 Te  Te4  1  0.83357  0.50000  0.83285  1
