CIF file written using JARVIS-Tools package.
data_VTe2
_symmetry_space_group_name_H-M  'C2/m'
_cell_length_a       3.61635
_cell_length_b       7.48561
_cell_length_c       9.23507
_cell_angle_alpha    109.836
_cell_angle_beta     90
_cell_angle_gamma    103.978

_symmetry_Int_Tables_number  12
_chemical_formula_structural  VTe2
_chemical_formula_sum  V3Te6
_cell_volume  227.28058654699046
_cell_formula_units_Z  3
loop_
  _symmetry_equiv_pos_site_id
 _symmetry_equiv_pos_as_xyz
 1  'x, y, z'
loop_
 _atom_site_type_symbol
 _atom_site_label
 _atom_site_symmetry_multiplicity
 _atom_site_fract_x
 _atom_site_fract_y
 _atom_site_fract_z
 _atom_site_fract_occupancy
 Te  Te1  1  0.35565  0.71130  0.98226  1
 Te  Te2  1  0.64435  0.28870  0.01774  1
 Te  Te3  1  0.70613  0.41225  0.62055  1
 Te  Te4  1  0.29387  0.58775  0.37945  1
 Te  Te5  1  0.01023  0.02047  0.30464  1
 Te  Te6  1  0.98977  0.97953  0.69536  1
 V  V1  1  0.00000  0.00000  0.00000  1
 V  V2  1  0.35845  0.71691  0.70471  1
 V  V3  1  0.64155  0.28309  0.29529  1
