CIF file written using JARVIS-Tools package.
data_AlAs
_symmetry_space_group_name_H-M  'P6_3mc'
_cell_length_a       4.03756
_cell_length_b       4.03756
_cell_length_c       6.64679
_cell_angle_alpha    90
_cell_angle_beta     90
_cell_angle_gamma    120

_symmetry_Int_Tables_number  186
_chemical_formula_structural  AlAs
_chemical_formula_sum  Al2As2
_cell_volume  93.83867416753475
_cell_formula_units_Z  2
loop_
  _symmetry_equiv_pos_site_id
 _symmetry_equiv_pos_as_xyz
 1  'x, y, z'
loop_
 _atom_site_type_symbol
 _atom_site_label
 _atom_site_symmetry_multiplicity
 _atom_site_fract_x
 _atom_site_fract_y
 _atom_site_fract_z
 _atom_site_fract_occupancy
 Al  Al1  1  0.33333  0.66667  0.00094  1
 Al  Al2  1  0.66667  0.33333  0.50094  1
 As  As1  1  0.33333  0.66667  0.37506  1
 As  As2  1  0.66667  0.33333  0.87506  1
