CIF file written using JARVIS-Tools package.
data_Sr2Hf7O16
_symmetry_space_group_name_H-M  'R-3'
_cell_length_a       6.38683
_cell_length_b       9.64014
_cell_length_c       6.38683
_cell_angle_alpha    109.345
_cell_angle_beta     60
_cell_angle_gamma    109.345

_symmetry_Int_Tables_number  148
_chemical_formula_structural  Sr2Hf7O16
_chemical_formula_sum  Sr2Hf7O6
_cell_volume  314.6546915410476
_cell_formula_units_Z  1
loop_
  _symmetry_equiv_pos_site_id
 _symmetry_equiv_pos_as_xyz
 1  'x, y, z'
loop_
 _atom_site_type_symbol
 _atom_site_label
 _atom_site_symmetry_multiplicity
 _atom_site_fract_x
 _atom_site_fract_y
 _atom_site_fract_z
 _atom_site_fract_occupancy
 Hf  Hf1  1  0.00000  0.00000  0.00000  1
 Hf  Hf2  1  0.25230  0.65402  0.51462  1
 Hf  Hf3  1  0.11290  0.34598  0.74770  1
 Hf  Hf4  1  0.48538  0.34598  0.11290  1
 Hf  Hf5  1  0.51462  0.65402  0.88710  1
 Hf  Hf6  1  0.88710  0.65402  0.25230  1
 Hf  Hf7  1  0.74770  0.34598  0.48538  1
 O  O1  1  0.67927  0.87214  0.96243  1
 O  O2  1  0.23605  0.70814  0.23605  1
 O  O3  1  0.23044  0.87214  0.67927  1
 O  O4  1  0.14932  0.40989  0.40944  1
 O  O5  1  0.76956  0.12786  0.32073  1
 O  O6  1  0.03757  0.12786  0.76956  1
 O  O7  1  0.32073  0.12786  0.03757  1
 O  O8  1  0.14887  0.59011  0.85068  1
 O  O9  1  0.76395  0.29186  0.76395  1
 O  O10  1  0.42992  0.28977  0.42992  1
 O  O11  1  0.40944  0.40989  0.85113  1
 O  O12  1  0.59056  0.59011  0.14887  1
 O  O13  1  0.96243  0.87214  0.23044  1
 O  O14  1  0.85113  0.40989  0.14932  1
 O  O15  1  0.85068  0.59011  0.59056  1
 O  O16  1  0.57008  0.71023  0.57008  1
 Sr  Sr1  1  0.66626  0.99878  0.66626  1
 Sr  Sr2  1  0.33374  0.00122  0.33374  1
