CIF file written using JARVIS-Tools package.
data_Al2NiO4
_symmetry_space_group_name_H-M  'Imma'
_cell_length_a       5.7334
_cell_length_b       5.73339
_cell_length_c       5.779
_cell_angle_alpha    59.7366
_cell_angle_beta     59.7366
_cell_angle_gamma    59.1344

_symmetry_Int_Tables_number  74
_chemical_formula_structural  Al2NiO4
_chemical_formula_sum  Al4Ni2O8
_cell_volume  132.89883021231117
_cell_formula_units_Z  2
loop_
  _symmetry_equiv_pos_site_id
 _symmetry_equiv_pos_as_xyz
 1  'x, y, z'
loop_
 _atom_site_type_symbol
 _atom_site_label
 _atom_site_symmetry_multiplicity
 _atom_site_fract_x
 _atom_site_fract_y
 _atom_site_fract_z
 _atom_site_fract_occupancy
 Al  Al1  1  0.13192  0.13192  0.11808  1
 Al  Al2  1  0.50000  0.50000  0.00000  1
 Al  Al3  1  0.50000  0.50000  0.50000  1
 Al  Al4  1  0.86808  0.86808  0.88192  1
 Ni  Ni1  1  0.50000  0.00000  0.50000  1
 Ni  Ni2  1  0.00000  0.50000  0.50000  1
 O  O1  1  0.26617  0.26617  0.23093  1
 O  O2  1  0.26976  0.73814  0.24605  1
 O  O3  1  0.26617  0.26617  0.73673  1
 O  O4  1  0.73814  0.26976  0.24605  1
 O  O5  1  0.26186  0.73024  0.75395  1
 O  O6  1  0.73024  0.26186  0.75395  1
 O  O7  1  0.73383  0.73383  0.26327  1
 O  O8  1  0.73383  0.73383  0.76907  1
