CIF file written using JARVIS-Tools package.
data_LiVSiO4
_symmetry_space_group_name_H-M  'Imma'
_cell_length_a       5.51181
_cell_length_b       5.79099
_cell_length_c       5.79099
_cell_angle_alpha    59.7607
_cell_angle_beta     61.5823
_cell_angle_gamma    61.5823

_symmetry_Int_Tables_number  74
_chemical_formula_structural  LiVSiO4
_chemical_formula_sum  Li2V2Si2O8
_cell_volume  133.48796851288932
_cell_formula_units_Z  2
loop_
  _symmetry_equiv_pos_site_id
 _symmetry_equiv_pos_as_xyz
 1  'x, y, z'
loop_
 _atom_site_type_symbol
 _atom_site_label
 _atom_site_symmetry_multiplicity
 _atom_site_fract_x
 _atom_site_fract_y
 _atom_site_fract_z
 _atom_site_fract_occupancy
 Li  Li1  1  0.00604  0.99396  0.99396  1
 Li  Li2  1  0.24396  0.25604  0.25604  1
 O  O1  1  0.83116  0.41143  0.41143  1
 O  O2  1  0.34599  0.41143  0.41143  1
 O  O3  1  0.38032  0.83059  0.40878  1
 O  O4  1  0.86968  0.84122  0.41941  1
 O  O5  1  0.86968  0.41941  0.84122  1
 O  O6  1  0.38032  0.40878  0.83059  1
 O  O7  1  0.41884  0.83857  0.83857  1
 O  O8  1  0.90401  0.83857  0.83857  1
 Si  Si1  1  0.62500  0.62500  0.62500  1
 Si  Si2  1  0.12500  0.62500  0.62500  1
 V  V1  1  0.62500  0.62500  0.12500  1
 V  V2  1  0.62500  0.12500  0.62500  1
