CIF file written using JARVIS-Tools package.
data_NaAlO2
_symmetry_space_group_name_H-M  'R-3m'
_cell_length_a       5.57095
_cell_length_b       5.57095
_cell_length_c       5.57095
_cell_angle_alpha    30.0907
_cell_angle_beta     30.0907
_cell_angle_gamma    30.0907

_symmetry_Int_Tables_number  166
_chemical_formula_structural  NaAlO2
_chemical_formula_sum  NaAlO2
_cell_volume  38.502513179177356
_cell_formula_units_Z  1
loop_
  _symmetry_equiv_pos_site_id
 _symmetry_equiv_pos_as_xyz
 1  'x, y, z'
loop_
 _atom_site_type_symbol
 _atom_site_label
 _atom_site_symmetry_multiplicity
 _atom_site_fract_x
 _atom_site_fract_y
 _atom_site_fract_z
 _atom_site_fract_occupancy
 Al  Al1  1  0.50000  0.50000  0.50000  1
 Na  Na1  1  0.00000  0.00000  0.00000  1
 O  O1  1  0.77010  0.77010  0.77010  1
 O  O2  1  0.22990  0.22990  0.22990  1
