CIF file written using JARVIS-Tools package.
data_Ca3SiO5
_symmetry_space_group_name_H-M  'P6_3mc'
_cell_length_a       7.23014
_cell_length_b       7.23014
_cell_length_c       5.48915
_cell_angle_alpha    90
_cell_angle_beta     90
_cell_angle_gamma    120

_symmetry_Int_Tables_number  186
_chemical_formula_structural  Ca3SiO5
_chemical_formula_sum  Ca6Si2O0
_cell_volume  248.5020996717172
_cell_formula_units_Z  2
loop_
  _symmetry_equiv_pos_site_id
 _symmetry_equiv_pos_as_xyz
 1  'x, y, z'
loop_
 _atom_site_type_symbol
 _atom_site_label
 _atom_site_symmetry_multiplicity
 _atom_site_fract_x
 _atom_site_fract_y
 _atom_site_fract_z
 _atom_site_fract_occupancy
 Ca  Ca1  1  0.15121  0.84879  0.23156  1
 Ca  Ca2  1  0.69759  0.84879  0.23156  1
 Ca  Ca3  1  0.84879  0.69759  0.73156  1
 Ca  Ca4  1  0.15121  0.30241  0.23156  1
 Ca  Ca5  1  0.30241  0.15121  0.73156  1
 Ca  Ca6  1  0.84879  0.15121  0.73156  1
 O  O1  1  0.41792  0.20896  0.16568  1
 O  O2  1  0.00000  0.00000  0.47352  1
 O  O3  1  0.00000  0.00000  0.97352  1
 O  O4  1  0.20896  0.79104  0.66568  1
 O  O5  1  0.33333  0.66667  0.07047  1
 O  O6  1  0.66667  0.33333  0.57047  1
 O  O7  1  0.79104  0.58208  0.16568  1
 O  O8  1  0.58208  0.79104  0.66568  1
 O  O9  1  0.20896  0.41792  0.66568  1
 O  O10  1  0.79104  0.20896  0.16568  1
 Si  Si1  1  0.66667  0.33333  0.26564  1
 Si  Si2  1  0.33333  0.66667  0.76564  1
