CIF file written using JARVIS-Tools package.
data_BaSiO3
_symmetry_space_group_name_H-M  'P6_3/mmc'
_cell_length_a       5.50453
_cell_length_b       5.50453
_cell_length_c       13.2566
_cell_angle_alpha    90
_cell_angle_beta     90
_cell_angle_gamma    120

_symmetry_Int_Tables_number  194
_chemical_formula_structural  BaSiO3
_chemical_formula_sum  Ba6Si6O8
_cell_volume  347.85897911946074
_cell_formula_units_Z  6
loop_
  _symmetry_equiv_pos_site_id
 _symmetry_equiv_pos_as_xyz
 1  'x, y, z'
loop_
 _atom_site_type_symbol
 _atom_site_label
 _atom_site_symmetry_multiplicity
 _atom_site_fract_x
 _atom_site_fract_y
 _atom_site_fract_z
 _atom_site_fract_occupancy
 Ba  Ba1  1  0.33333  0.66667  0.59581  1
 Ba  Ba2  1  0.66667  0.33333  0.09581  1
 Ba  Ba3  1  0.66667  0.33333  0.40419  1
 Ba  Ba4  1  0.33333  0.66667  0.90419  1
 Ba  Ba5  1  0.00000  0.00000  0.25000  1
 Ba  Ba6  1  0.00000  0.00000  0.75000  1
 O  O1  1  0.33336  0.16668  0.92007  1
 O  O2  1  0.33336  0.16668  0.57993  1
 O  O3  1  0.16668  0.83332  0.07993  1
 O  O4  1  0.16668  0.33336  0.07993  1
 O  O5  1  0.52462  0.04924  0.75000  1
 O  O6  1  0.66664  0.83332  0.07993  1
 O  O7  1  0.16668  0.33336  0.42007  1
 O  O8  1  0.83332  0.16668  0.57993  1
 O  O9  1  0.83332  0.66664  0.57993  1
 O  O10  1  0.16668  0.83332  0.42007  1
 O  O11  1  0.83332  0.16668  0.92007  1
 O  O12  1  0.04924  0.52462  0.25000  1
 O  O13  1  0.47538  0.95076  0.25000  1
 O  O14  1  0.83332  0.66664  0.92007  1
 O  O15  1  0.95076  0.47538  0.75000  1
 O  O16  1  0.66664  0.83332  0.42007  1
 O  O17  1  0.52462  0.47538  0.75000  1
 O  O18  1  0.47538  0.52462  0.25000  1
 Si  Si1  1  0.66667  0.33333  0.65554  1
 Si  Si2  1  0.33333  0.66667  0.34446  1
 Si  Si3  1  0.66667  0.33333  0.84446  1
 Si  Si4  1  0.33333  0.66667  0.15554  1
 Si  Si5  1  0.00000  0.00000  0.50000  1
 Si  Si6  1  0.00000  0.00000  0.00000  1
