CIF file written using JARVIS-Tools package.
data_CaPr2Te4
_symmetry_space_group_name_H-M  'I-42d'
_cell_length_a       8.31022
_cell_length_b       8.31021
_cell_length_c       8.31021
_cell_angle_alpha    109.839
_cell_angle_beta     109.839
_cell_angle_gamma    108.739

_symmetry_Int_Tables_number  122
_chemical_formula_structural  CaPr2Te4
_chemical_formula_sum  Ca2Pr4Te8
_cell_volume  441.73516929093626
_cell_formula_units_Z  2
loop_
  _symmetry_equiv_pos_site_id
 _symmetry_equiv_pos_as_xyz
 1  'x, y, z'
loop_
 _atom_site_type_symbol
 _atom_site_label
 _atom_site_symmetry_multiplicity
 _atom_site_fract_x
 _atom_site_fract_y
 _atom_site_fract_z
 _atom_site_fract_occupancy
 Ca  Ca1  1  0.62500  0.37500  0.25000  1
 Ca  Ca2  1  0.87500  0.12500  0.75000  1
 Pr  Pr1  1  0.12567  0.75000  0.87567  1
 Pr  Pr2  1  0.25000  0.62567  0.37567  1
 Pr  Pr3  1  0.37433  0.25000  0.62433  1
 Pr  Pr4  1  0.75000  0.87433  0.12433  1
 Te  Te1  1  0.00150  0.85630  0.50350  1
 Te  Te2  1  0.99801  0.35280  0.49650  1
 Te  Te3  1  0.14370  0.14720  0.14521  1
 Te  Te4  1  0.35630  0.50150  0.00350  1
 Te  Te5  1  0.49850  0.00199  0.85479  1
 Te  Te6  1  0.64720  0.64370  0.64521  1
 Te  Te7  1  0.50199  0.99850  0.35479  1
 Te  Te8  1  0.85280  0.49801  0.99650  1
