CIF file written using JARVIS-Tools package.
data_Li2HN
_symmetry_space_group_name_H-M  'Imm2'
_cell_length_a       3.63408
_cell_length_b       3.63409
_cell_length_c       3.52045
_cell_angle_alpha    61.0292
_cell_angle_beta     61.0293
_cell_angle_gamma    53.9664

_symmetry_Int_Tables_number  44
_chemical_formula_structural  Li2HN
_chemical_formula_sum  Li2HN
_cell_volume  31.55909622939477
_cell_formula_units_Z  1
loop_
  _symmetry_equiv_pos_site_id
 _symmetry_equiv_pos_as_xyz
 1  'x, y, z'
loop_
 _atom_site_type_symbol
 _atom_site_label
 _atom_site_symmetry_multiplicity
 _atom_site_fract_x
 _atom_site_fract_y
 _atom_site_fract_z
 _atom_site_fract_occupancy
 H  H1  1  0.74182  0.25818  -0.00000  1
 Li  Li1  1  0.20214  0.21945  0.28920  1
 Li  Li2  1  0.78055  0.79786  0.71080  1
 N  N1  1  0.05548  0.94452  0.00000  1
