CIF file written using JARVIS-Tools package.
data_Na2SO3
_symmetry_space_group_name_H-M  'Cmcm'
_cell_length_a       5.55669
_cell_length_b       5.55669
_cell_length_c       6.15429
_cell_angle_alpha    90
_cell_angle_beta     90
_cell_angle_gamma    112.216

_symmetry_Int_Tables_number  63
_chemical_formula_structural  Na2SO3
_chemical_formula_sum  Na4S2O6
_cell_volume  175.91800259397442
_cell_formula_units_Z  2
loop_
  _symmetry_equiv_pos_site_id
 _symmetry_equiv_pos_as_xyz
 1  'x, y, z'
loop_
 _atom_site_type_symbol
 _atom_site_label
 _atom_site_symmetry_multiplicity
 _atom_site_fract_x
 _atom_site_fract_y
 _atom_site_fract_z
 _atom_site_fract_occupancy
 Na  Na1  1  0.31257  0.68743  0.75000  1
 Na  Na2  1  0.00006  0.00006  0.00000  1
 Na  Na3  1  -0.00006  -0.00006  0.50000  1
 Na  Na4  1  0.68743  0.31257  0.25000  1
 O  O1  1  0.19927  0.80073  0.25000  1
 O  O2  1  0.12264  0.35309  0.25007  1
 O  O3  1  0.64691  0.87736  0.24993  1
 O  O4  1  0.35309  0.12264  0.74993  1
 O  O5  1  0.87736  0.64691  0.75007  1
 O  O6  1  0.80073  0.19927  0.75000  1
 S  S1  1  0.36485  0.63515  0.25000  1
 S  S2  1  0.63515  0.36485  0.75000  1
