CIF file written using JARVIS-Tools package.
data_HfSe3
_symmetry_space_group_name_H-M  'P2_1/m'
_cell_length_a       5.42907
_cell_length_b       3.73478
_cell_length_c       9.49907
_cell_angle_alpha    90
_cell_angle_beta     97.3334
_cell_angle_gamma    90

_symmetry_Int_Tables_number  11
_chemical_formula_structural  HfSe3
_chemical_formula_sum  Hf2Se6
_cell_volume  191.03133161872782
_cell_formula_units_Z  2
loop_
  _symmetry_equiv_pos_site_id
 _symmetry_equiv_pos_as_xyz
 1  'x, y, z'
loop_
 _atom_site_type_symbol
 _atom_site_label
 _atom_site_symmetry_multiplicity
 _atom_site_fract_x
 _atom_site_fract_y
 _atom_site_fract_z
 _atom_site_fract_occupancy
 Hf  Hf1  1  0.28469  0.75000  0.65722  1
 Hf  Hf2  1  0.71531  0.25000  0.34278  1
 Se  Se1  1  0.89440  0.75000  0.16937  1
 Se  Se2  1  0.10560  0.25000  0.83063  1
 Se  Se3  1  0.23767  0.25000  0.44675  1
 Se  Se4  1  0.76233  0.75000  0.55325  1
 Se  Se5  1  0.54667  0.25000  0.82546  1
 Se  Se6  1  0.45333  0.75000  0.17454  1
