CIF file written using JARVIS-Tools package.
data_YTi2S4
_symmetry_space_group_name_H-M  'Fd-3m'
_cell_length_a       7.56905
_cell_length_b       7.56905
_cell_length_c       7.57541
_cell_angle_alpha    119.972
_cell_angle_beta     119.972
_cell_angle_gamma    89.9999

_symmetry_Int_Tables_number  227
_chemical_formula_structural  YTi2S4
_chemical_formula_sum  Y2Ti4S8
_cell_volume  307.14052914700255
_cell_formula_units_Z  2
loop_
  _symmetry_equiv_pos_site_id
 _symmetry_equiv_pos_as_xyz
 1  'x, y, z'
loop_
 _atom_site_type_symbol
 _atom_site_label
 _atom_site_symmetry_multiplicity
 _atom_site_fract_x
 _atom_site_fract_y
 _atom_site_fract_z
 _atom_site_fract_occupancy
 S  S1  1  0.76389  0.79104  0.52778  1
 S  S2  1  0.76326  0.23611  0.97222  1
 S  S3  1  0.20896  0.23611  0.97222  1
 S  S4  1  0.23611  0.20896  0.47222  1
 S  S5  1  0.23611  0.76326  0.47222  1
 S  S6  1  0.23674  0.76389  0.02778  1
 S  S7  1  0.76389  0.23674  0.52778  1
 S  S8  1  0.79104  0.76389  0.02778  1
 Ti  Ti1  1  0.00000  0.50000  0.00000  1
 Ti  Ti2  1  0.00000  0.00000  0.50000  1
 Ti  Ti3  1  0.50000  0.00000  0.50000  1
 Ti  Ti4  1  0.00000  0.00000  0.00000  1
 Y  Y1  1  0.37500  0.62500  0.75000  1
 Y  Y2  1  0.62500  0.37500  0.25000  1
