CIF file written using JARVIS-Tools package.
data_H4C7SO2
_symmetry_space_group_name_H-M  'Pm'
_cell_length_a       3.77354
_cell_length_b       5.34309
_cell_length_c       7.54107
_cell_angle_alpha    89.9848
_cell_angle_beta     89.9695
_cell_angle_gamma    87.2752

_symmetry_Int_Tables_number  6
_chemical_formula_structural  H4C7SO2
_chemical_formula_sum  H4C7SO2
_cell_volume  151.8736266982071
_cell_formula_units_Z  1
loop_
  _symmetry_equiv_pos_site_id
 _symmetry_equiv_pos_as_xyz
 1  'x, y, z'
loop_
 _atom_site_type_symbol
 _atom_site_label
 _atom_site_symmetry_multiplicity
 _atom_site_fract_x
 _atom_site_fract_y
 _atom_site_fract_z
 _atom_site_fract_occupancy
 C  C1  1  0.29980  0.31648  0.48113  1
 C  C2  1  0.30005  0.31658  0.66537  1
 C  C3  1  0.45943  0.50935  0.39177  1
 C  C4  1  0.45990  0.50955  0.75436  1
 C  C5  1  0.59961  0.71080  0.48012  1
 C  C6  1  0.59987  0.71090  0.66565  1
 C  C7  1  0.41261  0.59897  0.07305  1
 H  H1  1  0.72808  0.85534  0.40552  1
 H  H2  1  0.19441  0.16397  0.74174  1
 H  H3  1  0.19393  0.16379  0.40505  1
 H  H4  1  0.72854  0.85551  0.73995  1
 O  O1  1  0.52853  0.45953  0.21226  1
 O  O2  1  0.52951  0.45992  0.93383  1
 S  S1  1  0.18593  0.86758  0.07306  1
