CIF file written using JARVIS-Tools package.
data_Ca3Fe2Cl2O5
_symmetry_space_group_name_H-M  'I4/mmm'
_cell_length_a       3.82314
_cell_length_b       3.82314
_cell_length_c       11.8046
_cell_angle_alpha    99.3192
_cell_angle_beta     99.3192
_cell_angle_gamma    90

_symmetry_Int_Tables_number  139
_chemical_formula_structural  Ca3Fe2Cl2O5
_chemical_formula_sum  Ca3Fe2Cl2O5
_cell_volume  167.95606695085215
_cell_formula_units_Z  1
loop_
  _symmetry_equiv_pos_site_id
 _symmetry_equiv_pos_as_xyz
 1  'x, y, z'
loop_
 _atom_site_type_symbol
 _atom_site_label
 _atom_site_symmetry_multiplicity
 _atom_site_fract_x
 _atom_site_fract_y
 _atom_site_fract_z
 _atom_site_fract_occupancy
 Ca  Ca1  1  0.34696  0.34696  0.69392  1
 Ca  Ca2  1  0.65304  0.65304  0.30608  1
 Ca  Ca3  1  0.50000  0.50000  0.00000  1
 Cl  Cl1  1  0.20371  0.20371  0.40742  1
 Cl  Cl2  1  0.79629  0.79629  0.59258  1
 Fe  Fe1  1  0.08183  0.08183  0.16365  1
 Fe  Fe2  1  0.91817  0.91817  0.83635  1
 O  O1  1  0.41035  0.91035  0.82070  1
 O  O2  1  0.91035  0.41035  0.82070  1
 O  O3  1  0.58965  0.08965  0.17930  1
 O  O4  1  0.08965  0.58965  0.17930  1
 O  O5  1  0.00000  0.00000  0.00000  1
