CIF file written using JARVIS-Tools package.
data_TiCl3
_symmetry_space_group_name_H-M  'P-31m'
_cell_length_a       5.99733
_cell_length_b       5.99733
_cell_length_c       5.85147
_cell_angle_alpha    90
_cell_angle_beta     90
_cell_angle_gamma    120

_symmetry_Int_Tables_number  162
_chemical_formula_structural  TiCl3
_chemical_formula_sum  Ti2Cl6
_cell_volume  182.26824591281496
_cell_formula_units_Z  2
loop_
  _symmetry_equiv_pos_site_id
 _symmetry_equiv_pos_as_xyz
 1  'x, y, z'
loop_
 _atom_site_type_symbol
 _atom_site_label
 _atom_site_symmetry_multiplicity
 _atom_site_fract_x
 _atom_site_fract_y
 _atom_site_fract_z
 _atom_site_fract_occupancy
 Cl  Cl1  1  0.65878  0.65878  0.76042  1
 Cl  Cl2  1  0.34122  0.34122  0.23958  1
 Cl  Cl3  1  1.00000  0.34122  0.76042  1
 Cl  Cl4  1  0.34122  0.00000  0.76042  1
 Cl  Cl5  1  0.65878  0.00000  0.23958  1
 Cl  Cl6  1  0.00000  0.65878  0.23958  1
 Ti  Ti1  1  0.66667  0.33333  0.00000  1
 Ti  Ti2  1  0.33333  0.66667  0.00000  1
