CIF file written using JARVIS-Tools package.
data_BiOF
_symmetry_space_group_name_H-M  'Pnma'
_cell_length_a       3.62665
_cell_length_b       6.40387
_cell_length_c       7.67165
_cell_angle_alpha    90
_cell_angle_beta     90
_cell_angle_gamma    90

_symmetry_Int_Tables_number  62
_chemical_formula_structural  BiOF
_chemical_formula_sum  Bi4O4F4
_cell_volume  178.17084690806416
_cell_formula_units_Z  4
loop_
  _symmetry_equiv_pos_site_id
 _symmetry_equiv_pos_as_xyz
 1  'x, y, z'
loop_
 _atom_site_type_symbol
 _atom_site_label
 _atom_site_symmetry_multiplicity
 _atom_site_fract_x
 _atom_site_fract_y
 _atom_site_fract_z
 _atom_site_fract_occupancy
 Bi  Bi1  1  0.75000  0.20741  0.10300  1
 Bi  Bi2  1  0.25000  0.29259  0.60300  1
 Bi  Bi3  1  0.75000  0.70741  0.39700  1
 Bi  Bi4  1  0.25000  0.79259  0.89700  1
 F  F1  1  0.75000  0.14011  0.42038  1
 F  F2  1  0.25000  0.35989  0.92038  1
 F  F3  1  0.75000  0.64011  0.07962  1
 F  F4  1  0.25000  0.85989  0.57962  1
 O  O1  1  0.75000  0.01124  0.85825  1
 O  O2  1  0.25000  0.48876  0.35825  1
 O  O3  1  0.75000  0.51124  0.64175  1
 O  O4  1  0.25000  0.98876  0.14175  1
