CIF file written using JARVIS-Tools package.
data_SmEr3S6
_symmetry_space_group_name_H-M  'P2_1/m'
_cell_length_a       10.959
_cell_length_b       3.92663
_cell_length_c       11.238
_cell_angle_alpha    90
_cell_angle_beta     108.902
_cell_angle_gamma    90

_symmetry_Int_Tables_number  11
_chemical_formula_structural  SmEr3S6
_chemical_formula_sum  Sm2Er6S2
_cell_volume  457.5138392944698
_cell_formula_units_Z  2
loop_
  _symmetry_equiv_pos_site_id
 _symmetry_equiv_pos_as_xyz
 1  'x, y, z'
loop_
 _atom_site_type_symbol
 _atom_site_label
 _atom_site_symmetry_multiplicity
 _atom_site_fract_x
 _atom_site_fract_y
 _atom_site_fract_z
 _atom_site_fract_occupancy
 Er  Er1  1  0.33880  0.25000  0.41433  1
 Er  Er2  1  0.66120  0.75000  0.58567  1
 Er  Er3  1  0.81925  0.25000  0.99781  1
 Er  Er4  1  0.18075  0.75000  0.00219  1
 Er  Er5  1  0.06167  0.25000  0.66754  1
 Er  Er6  1  0.93833  0.75000  0.33246  1
 S  S1  1  0.89500  0.75000  0.55966  1
 S  S2  1  0.69586  0.25000  0.74914  1
 S  S3  1  0.23859  0.75000  0.77339  1
 S  S4  1  0.58217  0.25000  0.40450  1
 S  S5  1  0.41783  0.75000  0.59550  1
 S  S6  1  0.30414  0.75000  0.25086  1
 S  S7  1  0.76141  0.25000  0.22661  1
 S  S8  1  0.02087  0.25000  0.88689  1
 S  S9  1  0.97913  0.75000  0.11311  1
 S  S10  1  0.38377  0.25000  0.03639  1
 S  S11  1  0.10500  0.25000  0.44034  1
 S  S12  1  0.61623  0.75000  0.96361  1
 Sm  Sm1  1  0.54780  0.75000  0.19424  1
 Sm  Sm2  1  0.45220  0.25000  0.80576  1
