CIF file written using JARVIS-Tools package.
data_BaSiP4H2O14
_symmetry_space_group_name_H-M  'P-1'
_cell_length_a       4.62966
_cell_length_b       6.64666
_cell_length_c       9.00623
_cell_angle_alpha    75.7928
_cell_angle_beta     85.417
_cell_angle_gamma    75.7121

_symmetry_Int_Tables_number  2
_chemical_formula_structural  BaSiP4H2O14
_chemical_formula_sum  BaSiP4H2O4
_cell_volume  260.29643407506745
_cell_formula_units_Z  1
loop_
  _symmetry_equiv_pos_site_id
 _symmetry_equiv_pos_as_xyz
 1  'x, y, z'
loop_
 _atom_site_type_symbol
 _atom_site_label
 _atom_site_symmetry_multiplicity
 _atom_site_fract_x
 _atom_site_fract_y
 _atom_site_fract_z
 _atom_site_fract_occupancy
 Ba  Ba1  1  0.00000  0.00000  0.00000  1
 H  H1  1  0.54259  0.54696  0.83470  1
 H  H2  1  0.45741  0.45304  0.16530  1
 O  O1  1  0.51165  0.09729  0.82854  1
 O  O2  1  0.48835  0.90271  0.17146  1
 O  O3  1  0.31682  0.61932  0.83639  1
 O  O4  1  0.85317  0.92185  0.35083  1
 O  O5  1  0.35628  0.84849  0.46343  1
 O  O6  1  0.14683  0.07815  0.64917  1
 O  O7  1  0.28369  0.42985  0.62754  1
 O  O8  1  0.71631  0.57015  0.37246  1
 O  O9  1  0.92023  0.77573  0.63792  1
 O  O10  1  0.64372  0.15151  0.53657  1
 O  O11  1  0.12009  0.55429  0.16300  1
 O  O12  1  0.87991  0.44571  0.83700  1
 O  O13  1  0.07977  0.22427  0.36208  1
 O  O14  1  0.68318  0.38068  0.16361  1
 P  P1  1  0.90973  0.43274  0.26012  1
 P  P2  1  0.09027  0.56726  0.73988  1
 P  P3  1  0.58792  0.82662  0.33496  1
 P  P4  1  0.41208  0.17338  0.66504  1
 Si  Si1  1  0.00000  0.00000  0.50000  1
