CIF file written using JARVIS-Tools package.
data_Ir3W
_symmetry_space_group_name_H-M  'P6_3/mmc'
_cell_length_a       5.5592
_cell_length_b       5.5592
_cell_length_c       4.43576
_cell_angle_alpha    90
_cell_angle_beta     90
_cell_angle_gamma    120

_symmetry_Int_Tables_number  194
_chemical_formula_structural  Ir3W
_chemical_formula_sum  Ir6W2
_cell_volume  118.72014490629203
_cell_formula_units_Z  2
loop_
  _symmetry_equiv_pos_site_id
 _symmetry_equiv_pos_as_xyz
 1  'x, y, z'
loop_
 _atom_site_type_symbol
 _atom_site_label
 _atom_site_symmetry_multiplicity
 _atom_site_fract_x
 _atom_site_fract_y
 _atom_site_fract_z
 _atom_site_fract_occupancy
 Ir  Ir1  1  0.16651  0.33302  0.25000  1
 Ir  Ir2  1  0.83349  0.66698  0.75000  1
 Ir  Ir3  1  0.83349  0.16651  0.75000  1
 Ir  Ir4  1  0.66698  0.83349  0.25000  1
 Ir  Ir5  1  0.16651  0.83349  0.25000  1
 Ir  Ir6  1  0.33302  0.16651  0.75000  1
 W  W1  1  0.66667  0.33333  0.25000  1
 W  W2  1  0.33333  0.66667  0.75000  1
