CIF file written using JARVIS-Tools package.
data_UB2O6
_symmetry_space_group_name_H-M  'C2/c'
_cell_length_a       4.19572
_cell_length_b       6.62127
_cell_length_c       8.96913
_cell_angle_alpha    81.2065
_cell_angle_beta     76.4733
_cell_angle_gamma    71.5282

_symmetry_Int_Tables_number  15
_chemical_formula_structural  UB2O6
_chemical_formula_sum  U2B4O2
_cell_volume  228.93864417480285
_cell_formula_units_Z  2
loop_
  _symmetry_equiv_pos_site_id
 _symmetry_equiv_pos_as_xyz
 1  'x, y, z'
loop_
 _atom_site_type_symbol
 _atom_site_label
 _atom_site_symmetry_multiplicity
 _atom_site_fract_x
 _atom_site_fract_y
 _atom_site_fract_z
 _atom_site_fract_occupancy
 B  B1  1  0.15943  0.14870  0.24966  1
 B  B2  1  0.55778  0.35130  0.25034  1
 B  B3  1  0.84057  0.85130  0.75034  1
 B  B4  1  0.44222  0.64870  0.74966  1
 O  O1  1  0.64738  0.44814  0.75907  1
 O  O2  1  0.66822  0.72655  0.45841  1
 O  O3  1  0.88817  0.33456  0.26566  1
 O  O4  1  0.48839  0.16544  0.23434  1
 O  O5  1  0.11183  0.66544  0.73434  1
 O  O6  1  0.51161  0.83456  0.76566  1
 O  O7  1  0.35262  0.55186  0.24093  1
 O  O8  1  0.85459  0.05186  0.74093  1
 O  O9  1  0.85318  0.77345  0.04159  1
 O  O10  1  0.33178  0.27345  0.54159  1
 O  O11  1  0.14682  0.22655  0.95841  1
 O  O12  1  0.14541  0.94814  0.25907  1
 U  U1  1  0.23233  0.25000  0.75000  1
 U  U2  1  0.76767  0.75000  0.25000  1
