CIF file written using JARVIS-Tools package.
data_KCuO2
_symmetry_space_group_name_H-M  'Cmcm'
_cell_length_a       4.32802
_cell_length_b       5.4886
_cell_length_c       6.23599
_cell_angle_alpha    90
_cell_angle_beta     110.305
_cell_angle_gamma    90

_symmetry_Int_Tables_number  63
_chemical_formula_structural  KCuO2
_chemical_formula_sum  K2Cu2O4
_cell_volume  138.92940363453872
_cell_formula_units_Z  2
loop_
  _symmetry_equiv_pos_site_id
 _symmetry_equiv_pos_as_xyz
 1  'x, y, z'
loop_
 _atom_site_type_symbol
 _atom_site_label
 _atom_site_symmetry_multiplicity
 _atom_site_fract_x
 _atom_site_fract_y
 _atom_site_fract_z
 _atom_site_fract_occupancy
 Cu  Cu1  1  0.99722  0.25000  0.99443  1
 Cu  Cu2  1  0.00278  0.75000  0.00557  1
 K  K1  1  0.29965  0.75000  0.59930  1
 K  K2  1  0.70035  0.25000  0.40070  1
 O  O1  1  0.89464  0.50504  0.78928  1
 O  O2  1  0.10536  0.49496  0.21072  1
 O  O3  1  0.89464  0.99496  0.78928  1
 O  O4  1  0.10536  0.00504  0.21072  1
