CIF file written using JARVIS-Tools package.
data_YCo2S4
_symmetry_space_group_name_H-M  'C2/c'
_cell_length_a       6.89063
_cell_length_b       6.92483
_cell_length_c       6.92475
_cell_angle_alpha    88.7279
_cell_angle_beta     117.203
_cell_angle_gamma    117.205

_symmetry_Int_Tables_number  15
_chemical_formula_structural  YCo2S4
_chemical_formula_sum  Y2Co4S8
_cell_volume  253.97669787790358
_cell_formula_units_Z  2
loop_
  _symmetry_equiv_pos_site_id
 _symmetry_equiv_pos_as_xyz
 1  'x, y, z'
loop_
 _atom_site_type_symbol
 _atom_site_label
 _atom_site_symmetry_multiplicity
 _atom_site_fract_x
 _atom_site_fract_y
 _atom_site_fract_z
 _atom_site_fract_occupancy
 Co  Co1  1  0.00000  0.00000  0.50000  1
 Co  Co2  1  0.50000  0.00000  -0.00000  1
 Co  Co3  1  0.50000  0.00000  0.50000  1
 Co  Co4  1  0.00000  0.50000  0.50000  1
 S  S1  1  0.06338  0.77507  0.31916  1
 S  S2  1  0.00973  0.74247  0.72747  1
 S  S3  1  0.43662  0.18085  0.72494  1
 S  S4  1  0.50975  0.22747  0.24248  1
 S  S5  1  0.56338  0.81915  0.27506  1
 S  S6  1  0.99027  0.25753  0.27253  1
 S  S7  1  0.49025  0.77253  0.75752  1
 S  S8  1  0.93662  0.22493  0.68084  1
 Y  Y1  1  0.00000  0.00000  0.00000  1
 Y  Y2  1  0.50000  0.50000  0.50000  1
