CIF file written using JARVIS-Tools package.
data_Mg2Nb2CoO8
_symmetry_space_group_name_H-M  'C2/c'
_cell_length_a       5.16135
_cell_length_b       5.98224
_cell_length_c       9.92582
_cell_angle_alpha    107.538
_cell_angle_beta     90.9166
_cell_angle_gamma    89.9985

_symmetry_Int_Tables_number  15
_chemical_formula_structural  Mg2Nb2CoO8
_chemical_formula_sum  Mg4Nb4Co2O6
_cell_volume  292.187678690365
_cell_formula_units_Z  2
loop_
  _symmetry_equiv_pos_site_id
 _symmetry_equiv_pos_as_xyz
 1  'x, y, z'
loop_
 _atom_site_type_symbol
 _atom_site_label
 _atom_site_symmetry_multiplicity
 _atom_site_fract_x
 _atom_site_fract_y
 _atom_site_fract_z
 _atom_site_fract_occupancy
 Co  Co1  1  0.25068  0.63920  0.99955  1
 Co  Co2  1  0.75065  0.36043  0.99954  1
 Mg  Mg1  1  0.25364  0.86981  0.45796  1
 Mg  Mg2  1  0.75364  0.58818  0.45793  1
 Mg  Mg3  1  0.74770  0.12980  0.54115  1
 Mg  Mg4  1  0.24771  0.41143  0.54116  1
 Nb  Nb1  1  0.74813  0.71683  0.77154  1
 Nb  Nb2  1  0.75323  0.94480  0.22755  1
 Nb  Nb3  1  0.25321  0.28280  0.22755  1
 Nb  Nb4  1  0.24811  0.05483  0.77155  1
 O  O1  1  0.91933  0.67829  0.11459  1
 O  O2  1  0.09088  0.81654  0.86316  1
 O  O3  1  0.41047  0.95291  0.13594  1
 O  O4  1  0.95737  0.91553  0.62530  1
 O  O5  1  0.59087  0.04672  0.86315  1
 O  O6  1  0.58201  0.56328  0.88450  1
 O  O7  1  0.91046  0.18310  0.13594  1
 O  O8  1  0.11323  0.54661  0.38028  1
 O  O9  1  0.45737  0.70987  0.62529  1
 O  O10  1  0.04396  0.08409  0.37380  1
 O  O11  1  0.38811  0.16590  0.61882  1
 O  O12  1  0.41931  0.43636  0.11459  1
 O  O13  1  0.61323  0.83372  0.38027  1
 O  O14  1  0.88811  0.45301  0.61882  1
 O  O15  1  0.08200  0.32135  0.88450  1
 O  O16  1  0.54396  0.28976  0.37381  1
