CIF file written using JARVIS-Tools package.
data_BaYTiCuO5
_symmetry_space_group_name_H-M  'P4mm'
_cell_length_a       3.92701
_cell_length_b       3.92701
_cell_length_c       7.84328
_cell_angle_alpha    90
_cell_angle_beta     90
_cell_angle_gamma    90

_symmetry_Int_Tables_number  99
_chemical_formula_structural  BaYTiCuO5
_chemical_formula_sum  BaYTiCuO5
_cell_volume  120.95421492533676
_cell_formula_units_Z  1
loop_
  _symmetry_equiv_pos_site_id
 _symmetry_equiv_pos_as_xyz
 1  'x, y, z'
loop_
 _atom_site_type_symbol
 _atom_site_label
 _atom_site_symmetry_multiplicity
 _atom_site_fract_x
 _atom_site_fract_y
 _atom_site_fract_z
 _atom_site_fract_occupancy
 Ba  Ba1  1  0.00000  0.00000  0.99078  1
 Cu  Cu1  1  0.50000  0.50000  0.72098  1
 O  O1  1  0.50000  0.00000  0.36017  1
 O  O2  1  0.00000  0.50000  0.36017  1
 O  O3  1  0.50000  0.00000  0.72433  1
 O  O4  1  0.00000  0.50000  0.72433  1
 O  O5  1  0.50000  0.50000  0.07672  1
 Ti  Ti1  1  0.50000  0.50000  0.30542  1
 Y  Y1  1  0.00000  0.00000  0.54918  1
