CIF file written using JARVIS-Tools package.
data_Zn2PHO5
_symmetry_space_group_name_H-M  'P-1'
_cell_length_a       5.55391
_cell_length_b       5.74123
_cell_length_c       6.54252
_cell_angle_alpha    77.5752
_cell_angle_beta     76.7546
_cell_angle_gamma    86.7578

_symmetry_Int_Tables_number  2
_chemical_formula_structural  Zn2PHO5
_chemical_formula_sum  Zn4P2H2O0
_cell_volume  198.3053884941294
_cell_formula_units_Z  2
loop_
  _symmetry_equiv_pos_site_id
 _symmetry_equiv_pos_as_xyz
 1  'x, y, z'
loop_
 _atom_site_type_symbol
 _atom_site_label
 _atom_site_symmetry_multiplicity
 _atom_site_fract_x
 _atom_site_fract_y
 _atom_site_fract_z
 _atom_site_fract_occupancy
 H  H1  1  0.43468  0.90599  0.82535  1
 H  H2  1  0.56532  0.09401  0.17465  1
 O  O1  1  0.02785  0.24810  0.51330  1
 O  O2  1  0.36031  0.88912  0.70589  1
 O  O3  1  0.22892  0.00724  0.14800  1
 O  O4  1  0.93966  0.38770  0.86598  1
 O  O5  1  0.77108  0.99276  0.85200  1
 O  O6  1  0.59446  0.38028  0.67080  1
 O  O7  1  0.40554  0.61972  0.32920  1
 O  O8  1  0.63969  0.11088  0.29411  1
 O  O9  1  0.06034  0.61230  0.13402  1
 O  O10  1  0.97215  0.75190  0.48670  1
 P  P1  1  0.16760  0.75004  0.27348  1
 P  P2  1  0.83240  0.24996  0.72652  1
 Zn  Zn1  1  0.97390  0.26263  0.18811  1
 Zn  Zn2  1  0.02610  0.73737  0.81189  1
 Zn  Zn3  1  0.61468  0.75132  0.49142  1
 Zn  Zn4  1  0.38532  0.24868  0.50858  1
