CIF file written using JARVIS-Tools package.
data_Yb2BaNiO5
_symmetry_space_group_name_H-M  'Immm'
_cell_length_a       3.74126
_cell_length_b       5.7181
_cell_length_c       6.36979
_cell_angle_alpha    116.669
_cell_angle_beta     107.078
_cell_angle_gamma    89.9999

_symmetry_Int_Tables_number  71
_chemical_formula_structural  Yb2BaNiO5
_chemical_formula_sum  Yb2BaNiO5
_cell_volume  115.00747777713106
_cell_formula_units_Z  1
loop_
  _symmetry_equiv_pos_site_id
 _symmetry_equiv_pos_as_xyz
 1  'x, y, z'
loop_
 _atom_site_type_symbol
 _atom_site_label
 _atom_site_symmetry_multiplicity
 _atom_site_fract_x
 _atom_site_fract_y
 _atom_site_fract_z
 _atom_site_fract_occupancy
 Ba  Ba1  1  0.50000  0.50000  0.00000  1
 Ni  Ni1  1  -0.00000  0.00000  -0.00000  1
 O  O1  1  0.50000  -0.00000  0.00000  1
 O  O2  1  0.13462  0.90728  0.26925  1
 O  O3  1  0.86538  0.09272  0.73075  1
 O  O4  1  0.86538  0.63802  0.73075  1
 O  O5  1  0.13462  0.36198  0.26925  1
 Yb  Yb1  1  0.29072  0.79071  0.58142  1
 Yb  Yb2  1  0.70928  0.20929  0.41858  1
