CIF file written using JARVIS-Tools package.
data_Rb2O
_symmetry_space_group_name_H-M  'Pnma'
_cell_length_a       4.61479
_cell_length_b       7.17397
_cell_length_c       8.63659
_cell_angle_alpha    90
_cell_angle_beta     90
_cell_angle_gamma    90

_symmetry_Int_Tables_number  62
_chemical_formula_structural  Rb2O
_chemical_formula_sum  Rb8O4
_cell_volume  285.9259677996407
_cell_formula_units_Z  4
loop_
  _symmetry_equiv_pos_site_id
 _symmetry_equiv_pos_as_xyz
 1  'x, y, z'
loop_
 _atom_site_type_symbol
 _atom_site_label
 _atom_site_symmetry_multiplicity
 _atom_site_fract_x
 _atom_site_fract_y
 _atom_site_fract_z
 _atom_site_fract_occupancy
 O  O1  1  0.25000  0.74254  0.40401  1
 O  O2  1  0.75000  0.75746  0.90401  1
 O  O3  1  0.25000  0.24254  0.09599  1
 O  O4  1  0.75000  0.25746  0.59599  1
 Rb  Rb1  1  0.75000  0.98833  0.16041  1
 Rb  Rb2  1  0.75000  0.86033  0.58530  1
 Rb  Rb3  1  0.25000  0.63967  0.08530  1
 Rb  Rb4  1  0.25000  0.51167  0.66041  1
 Rb  Rb5  1  0.75000  0.48833  0.33959  1
 Rb  Rb6  1  0.75000  0.36033  0.91470  1
 Rb  Rb7  1  0.25000  0.13967  0.41470  1
 Rb  Rb8  1  0.25000  0.01167  0.83959  1
