CIF file written using JARVIS-Tools package.
data_Pr5AgSe8
_symmetry_space_group_name_H-M  'I-4'
_cell_length_a       7.77098
_cell_length_b       7.77098
_cell_length_c       7.77098
_cell_angle_alpha    109.886
_cell_angle_beta     109.886
_cell_angle_gamma    108.645

_symmetry_Int_Tables_number  82
_chemical_formula_structural  Pr5AgSe8
_chemical_formula_sum  Pr5AgSe8
_cell_volume  361.19207411367614
_cell_formula_units_Z  1
loop_
  _symmetry_equiv_pos_site_id
 _symmetry_equiv_pos_as_xyz
 1  'x, y, z'
loop_
 _atom_site_type_symbol
 _atom_site_label
 _atom_site_symmetry_multiplicity
 _atom_site_fract_x
 _atom_site_fract_y
 _atom_site_fract_z
 _atom_site_fract_occupancy
 Ag  Ag1  1  0.87500  0.12500  0.75000  1
 Pr  Pr1  1  0.11403  0.74457  0.87194  1
 Pr  Pr2  1  0.25543  0.62737  0.36946  1
 Pr  Pr3  1  0.37263  0.24209  0.62806  1
 Pr  Pr4  1  0.75791  0.88597  0.13054  1
 Pr  Pr5  1  0.62500  0.37500  0.25000  1
 Se  Se1  1  0.98956  0.85116  0.50092  1
 Se  Se2  1  0.14884  0.14976  0.13840  1
 Se  Se3  1  0.36915  0.51629  0.00831  1
 Se  Se4  1  0.63916  0.63085  0.64714  1
 Se  Se5  1  0.48371  0.99202  0.85286  1
 Se  Se6  1  0.51136  0.01044  0.36160  1
 Se  Se7  1  0.85024  0.48864  0.99908  1
 Se  Se8  1  0.00798  0.36084  0.49169  1
