CIF file written using JARVIS-Tools package.
data_CaZnSn
_symmetry_space_group_name_H-M  'P6_3mc'
_cell_length_a       4.67486
_cell_length_b       4.67486
_cell_length_c       7.56047
_cell_angle_alpha    90
_cell_angle_beta     90
_cell_angle_gamma    120

_symmetry_Int_Tables_number  186
_chemical_formula_structural  CaZnSn
_chemical_formula_sum  Ca2Zn2Sn2
_cell_volume  143.0928465650581
_cell_formula_units_Z  2
loop_
  _symmetry_equiv_pos_site_id
 _symmetry_equiv_pos_as_xyz
 1  'x, y, z'
loop_
 _atom_site_type_symbol
 _atom_site_label
 _atom_site_symmetry_multiplicity
 _atom_site_fract_x
 _atom_site_fract_y
 _atom_site_fract_z
 _atom_site_fract_occupancy
 Ca  Ca1  1  0.00000  0.00000  0.75529  1
 Ca  Ca2  1  0.00000  0.00000  0.25529  1
 Sn  Sn1  1  0.33333  0.66667  0.53591  1
 Sn  Sn2  1  0.66667  0.33333  0.03591  1
 Zn  Zn1  1  0.33333  0.66667  0.94300  1
 Zn  Zn2  1  0.66667  0.33333  0.44300  1
