CIF file written using JARVIS-Tools package.
data_BN
_symmetry_space_group_name_H-M  'P4_2/mnm'
_cell_length_a       4.42148
_cell_length_b       4.42148
_cell_length_c       2.54923
_cell_angle_alpha    90
_cell_angle_beta     90
_cell_angle_gamma    90

_symmetry_Int_Tables_number  136
_chemical_formula_structural  BN
_chemical_formula_sum  B4N4
_cell_volume  49.83617461728146
_cell_formula_units_Z  4
loop_
  _symmetry_equiv_pos_site_id
 _symmetry_equiv_pos_as_xyz
 1  'x, y, z'
loop_
 _atom_site_type_symbol
 _atom_site_label
 _atom_site_symmetry_multiplicity
 _atom_site_fract_x
 _atom_site_fract_y
 _atom_site_fract_z
 _atom_site_fract_occupancy
 B  B1  1  0.17449  0.82551  0.50000  1
 B  B2  1  0.32551  0.32551  0.00000  1
 B  B3  1  0.67449  0.67449  0.00000  1
 B  B4  1  0.82551  0.17449  0.50000  1
 N  N1  1  0.81245  0.81245  0.50000  1
 N  N2  1  0.31245  0.68755  0.00000  1
 N  N3  1  0.68755  0.31245  0.00000  1
 N  N4  1  0.18755  0.18755  0.50000  1
