CIF file written using JARVIS-Tools package.
data_S5N6
_symmetry_space_group_name_H-M  'C2/c'
_cell_length_a       7.06954
_cell_length_b       7.06955
_cell_length_c       7.36992
_cell_angle_alpha    99.8184
_cell_angle_beta     99.8185
_cell_angle_gamma    103.506

_symmetry_Int_Tables_number  15
_chemical_formula_structural  S5N6
_chemical_formula_sum  S0N2
_cell_volume  344.29553393737564
_cell_formula_units_Z  2
loop_
  _symmetry_equiv_pos_site_id
 _symmetry_equiv_pos_as_xyz
 1  'x, y, z'
loop_
 _atom_site_type_symbol
 _atom_site_label
 _atom_site_symmetry_multiplicity
 _atom_site_fract_x
 _atom_site_fract_y
 _atom_site_fract_z
 _atom_site_fract_occupancy
 N  N1  1  0.84155  0.12415  0.92951  1
 N  N2  1  0.47997  0.76147  0.51016  1
 N  N3  1  0.76147  0.47997  0.01016  1
 N  N4  1  0.52003  0.23853  0.48984  1
 N  N5  1  0.53146  0.83079  0.16141  1
 N  N6  1  0.16921  0.46854  0.33859  1
 N  N7  1  0.46854  0.16921  0.83859  1
 N  N8  1  0.83079  0.53146  0.66141  1
 N  N9  1  0.15845  0.87585  0.07049  1
 N  N10  1  0.23853  0.52003  -0.01016  1
 N  N11  1  0.87585  0.15845  0.57049  1
 N  N12  1  0.12415  0.84155  0.42951  1
 S  S1  1  0.07737  0.92263  0.25000  1
 S  S2  1  0.57771  0.71925  0.33018  1
 S  S3  1  0.28075  0.42229  0.16982  1
 S  S4  1  0.42229  0.28075  0.66982  1
 S  S5  1  0.71925  0.57771  0.83018  1
 S  S6  1  0.32619  0.75692  -0.00155  1
 S  S7  1  0.24308  0.67381  0.50155  1
 S  S8  1  0.67381  0.24308  0.00155  1
 S  S9  1  0.75692  0.32619  0.49845  1
 S  S10  1  0.92263  0.07737  0.75000  1
