CIF file written using JARVIS-Tools package.
data_U3Si2C3
_symmetry_space_group_name_H-M  'I4/mmm'
_cell_length_a       3.68826
_cell_length_b       3.68865
_cell_length_c       9.84549
_cell_angle_alpha    100.797
_cell_angle_beta     100.796
_cell_angle_gamma    90

_symmetry_Int_Tables_number  139
_chemical_formula_structural  U3Si2C3
_chemical_formula_sum  U3Si2C3
_cell_volume  129.15977980774633
_cell_formula_units_Z  1
loop_
  _symmetry_equiv_pos_site_id
 _symmetry_equiv_pos_as_xyz
 1  'x, y, z'
loop_
 _atom_site_type_symbol
 _atom_site_label
 _atom_site_symmetry_multiplicity
 _atom_site_fract_x
 _atom_site_fract_y
 _atom_site_fract_z
 _atom_site_fract_occupancy
 C  C1  1  0.74999  0.24999  0.49998  1
 C  C2  1  0.25001  0.75001  0.50002  1
 C  C3  1  0.00000  0.00000  0.00000  1
 Si  Si1  1  0.09662  0.09662  0.19323  1
 Si  Si2  1  0.90338  0.90338  0.80677  1
 U  U1  1  0.68367  0.68367  0.36735  1
 U  U2  1  0.31633  0.31633  0.63265  1
 U  U3  1  0.50000  0.50000  -0.00000  1
