CIF file written using JARVIS-Tools package.
data_HoHO2
_symmetry_space_group_name_H-M  'P6_3/mmc'
_cell_length_a       3.48926
_cell_length_b       3.48926
_cell_length_c       9.20742
_cell_angle_alpha    90
_cell_angle_beta     90
_cell_angle_gamma    120

_symmetry_Int_Tables_number  194
_chemical_formula_structural  HoHO2
_chemical_formula_sum  Ho2H2O4
_cell_volume  97.08164171542423
_cell_formula_units_Z  2
loop_
  _symmetry_equiv_pos_site_id
 _symmetry_equiv_pos_as_xyz
 1  'x, y, z'
loop_
 _atom_site_type_symbol
 _atom_site_label
 _atom_site_symmetry_multiplicity
 _atom_site_fract_x
 _atom_site_fract_y
 _atom_site_fract_z
 _atom_site_fract_occupancy
 H  H1  1  0.66667  0.33333  0.75000  1
 H  H2  1  0.33333  0.66667  0.25000  1
 Ho  Ho1  1  0.00000  0.00000  0.00000  1
 Ho  Ho2  1  0.00000  0.00000  0.50000  1
 O  O1  1  0.66667  0.33333  0.88296  1
 O  O2  1  0.66667  0.33333  0.61704  1
 O  O3  1  0.33333  0.66667  0.11704  1
 O  O4  1  0.33333  0.66667  0.38296  1
