CIF file written using JARVIS-Tools package.
data_AgNO2
_symmetry_space_group_name_H-M  'Imm2'
_cell_length_a       3.24049
_cell_length_b       4.46162
_cell_length_c       4.46162
_cell_angle_alpha    69.4753
_cell_angle_beta     68.7062
_cell_angle_gamma    68.7061

_symmetry_Int_Tables_number  44
_chemical_formula_structural  AgNO2
_chemical_formula_sum  AgNO2
_cell_volume  54.191681611268464
_cell_formula_units_Z  1
loop_
  _symmetry_equiv_pos_site_id
 _symmetry_equiv_pos_as_xyz
 1  'x, y, z'
loop_
 _atom_site_type_symbol
 _atom_site_label
 _atom_site_symmetry_multiplicity
 _atom_site_fract_x
 _atom_site_fract_y
 _atom_site_fract_z
 _atom_site_fract_occupancy
 Ag  Ag1  1  0.00000  0.95541  0.04459  1
 N  N1  1  -0.00000  0.39210  0.60790  1
 O  O1  1  0.83791  0.68833  0.63584  1
 O  O2  1  0.16209  0.36416  0.31167  1
