CIF file written using JARVIS-Tools package.
data_NaSe
_symmetry_space_group_name_H-M  'P6_3/mmc'
_cell_length_a       4.65838
_cell_length_b       4.65838
_cell_length_c       10.7505
_cell_angle_alpha    90
_cell_angle_beta     90
_cell_angle_gamma    120

_symmetry_Int_Tables_number  194
_chemical_formula_structural  NaSe
_chemical_formula_sum  Na4Se4
_cell_volume  202.0360688551814
_cell_formula_units_Z  4
loop_
  _symmetry_equiv_pos_site_id
 _symmetry_equiv_pos_as_xyz
 1  'x, y, z'
loop_
 _atom_site_type_symbol
 _atom_site_label
 _atom_site_symmetry_multiplicity
 _atom_site_fract_x
 _atom_site_fract_y
 _atom_site_fract_z
 _atom_site_fract_occupancy
 Na  Na1  1  0.00000  0.00000  0.00000  1
 Na  Na2  1  0.00000  0.00000  0.50000  1
 Na  Na3  1  0.33333  0.66667  0.25000  1
 Na  Na4  1  0.66667  0.33333  0.75000  1
 Se  Se1  1  0.33333  0.66667  0.63440  1
 Se  Se2  1  0.66667  0.33333  0.13440  1
 Se  Se3  1  0.66667  0.33333  0.36560  1
 Se  Se4  1  0.33333  0.66667  0.86560  1
