CIF file written using JARVIS-Tools package.
data_NaAlSe2
_symmetry_space_group_name_H-M  'I4/mcm'
_cell_length_a       6.37575
_cell_length_b       6.2561
_cell_length_c       6.2561
_cell_angle_alpha    74.9505
_cell_angle_beta     59.3653
_cell_angle_gamma    59.3653

_symmetry_Int_Tables_number  140
_chemical_formula_structural  NaAlSe2
_chemical_formula_sum  Na2Al2Se4
_cell_volume  184.7453873861992
_cell_formula_units_Z  2
loop_
  _symmetry_equiv_pos_site_id
 _symmetry_equiv_pos_as_xyz
 1  'x, y, z'
loop_
 _atom_site_type_symbol
 _atom_site_label
 _atom_site_symmetry_multiplicity
 _atom_site_fract_x
 _atom_site_fract_y
 _atom_site_fract_z
 _atom_site_fract_occupancy
 Al  Al1  1  0.25000  0.50000  0.50000  1
 Al  Al2  1  0.75000  0.50000  0.50000  1
 Na  Na1  1  0.25000  0.00000  -0.00000  1
 Na  Na2  1  0.75000  0.00000  -0.00000  1
 Se  Se1  1  0.17019  0.50000  0.15963  1
 Se  Se2  1  0.32981  0.84037  0.50000  1
 Se  Se3  1  0.67019  0.15963  0.50000  1
 Se  Se4  1  0.82981  0.50000  0.84037  1
