CIF file written using JARVIS-Tools package.
data_H16C9O3
_symmetry_space_group_name_H-M  'P-1'
_cell_length_a       5.83676
_cell_length_b       8.22134
_cell_length_c       9.23348
_cell_angle_alpha    92.5337
_cell_angle_beta     109.362
_cell_angle_gamma    99.299

_symmetry_Int_Tables_number  2
_chemical_formula_structural  H16C9O3
_chemical_formula_sum  H32C8O6
_cell_volume  410.2432651083723
_cell_formula_units_Z  2
loop_
  _symmetry_equiv_pos_site_id
 _symmetry_equiv_pos_as_xyz
 1  'x, y, z'
loop_
 _atom_site_type_symbol
 _atom_site_label
 _atom_site_symmetry_multiplicity
 _atom_site_fract_x
 _atom_site_fract_y
 _atom_site_fract_z
 _atom_site_fract_occupancy
 C  C1  1  0.54672  0.00679  0.79308  1
 C  C2  1  0.27372  0.92942  0.71246  1
 C  C3  1  0.87542  0.69191  0.01055  1
 C  C4  1  0.26819  0.11059  0.18720  1
 C  C5  1  0.73181  0.88941  0.81280  1
 C  C6  1  0.45328  0.99321  0.20692  1
 C  C7  1  0.72628  0.07058  0.28754  1
 C  C8  1  0.80179  0.14580  0.45524  1
 C  C9  1  0.12458  0.30809  0.98945  1
 C  C10  1  0.32109  0.57068  0.62542  1
 C  C11  1  0.31136  0.70532  0.51302  1
 C  C12  1  0.67891  0.42932  0.37458  1
 C  C13  1  0.42824  0.42518  0.24792  1
 C  C14  1  0.57176  0.57482  0.75208  1
 C  C15  1  0.34097  0.27522  0.12252  1
 C  C16  1  0.65903  0.72478  0.87748  1
 C  C17  1  0.19821  0.85420  0.54476  1
 C  C18  1  0.68864  0.29468  0.48698  1
 H  H1  1  0.08637  0.04453  0.11027  1
 H  H2  1  0.75962  0.85990  0.70348  1
 H  H3  1  0.99520  0.81437  0.50072  1
 H  H4  1  0.43196  0.93760  0.09127  1
 H  H5  1  0.40041  0.88966  0.26810  1
 H  H6  1  0.24038  0.14010  0.29652  1
 H  H7  1  0.59959  0.11034  0.73190  1
 H  H8  1  0.91363  0.95547  0.88973  1
 H  H9  1  0.56804  0.06240  0.90873  1
 H  H10  1  0.76238  0.04842  0.52660  1
 H  H11  1  0.23762  0.95158  0.47340  1
 H  H12  1  0.80103  0.35086  0.60443  1
 H  H13  1  0.19897  0.64914  0.39557  1
 H  H14  1  0.49704  0.74781  0.50802  1
 H  H15  1  0.72484  0.55248  0.44008  1
 H  H16  1  0.27516  0.44752  0.55992  1
 H  H17  1  0.82064  0.42710  0.32017  1
 H  H18  1  0.17936  0.57290  0.67983  1
 H  H19  1  0.16627  0.02729  0.71489  1
 H  H20  1  0.71602  0.57568  0.69953  1
 H  H21  1  0.28398  0.42432  0.30047  1
 H  H22  1  0.51016  0.73383  0.92374  1
 H  H23  1  0.83373  0.97271  0.28511  1
 H  H24  1  0.48984  0.26617  0.07626  1
 H  H25  1  0.21597  0.83538  0.78094  1
 H  H26  1  0.00480  0.18563  0.49928  1
 H  H27  1  0.78403  0.16462  0.21906  1
 H  H28  1  0.39868  0.38315  0.83362  1
 H  H29  1  0.50296  0.25219  0.49198  1
 H  H30  1  0.20810  0.64202  0.06131  1
 H  H31  1  0.79190  0.35798  0.93869  1
 H  H32  1  0.60132  0.61685  0.16638  1
 O  O1  1  0.92835  0.32311  0.02797  1
 O  O2  1  0.56414  0.42107  0.82340  1
 O  O3  1  0.87310  0.67946  0.14345  1
 O  O4  1  0.12690  0.32054  0.85655  1
 O  O5  1  0.07165  0.67689  0.97203  1
 O  O6  1  0.43586  0.57893  0.17660  1
