CIF file written using JARVIS-Tools package.
data_SrAl4O7
_symmetry_space_group_name_H-M  'C2/c'
_cell_length_a       5.59066
_cell_length_b       7.99278
_cell_length_c       7.99277
_cell_angle_alpha    69.3523
_cell_angle_beta     76.8962
_cell_angle_gamma    76.8962

_symmetry_Int_Tables_number  15
_chemical_formula_structural  SrAl4O7
_chemical_formula_sum  Sr2Al8O4
_cell_volume  321.2635547281485
_cell_formula_units_Z  2
loop_
  _symmetry_equiv_pos_site_id
 _symmetry_equiv_pos_as_xyz
 1  'x, y, z'
loop_
 _atom_site_type_symbol
 _atom_site_label
 _atom_site_symmetry_multiplicity
 _atom_site_fract_x
 _atom_site_fract_y
 _atom_site_fract_z
 _atom_site_fract_occupancy
 Al  Al1  1  0.70503  0.25504  0.08118  1
 Al  Al2  1  0.79497  0.91882  0.74496  1
 Al  Al3  1  0.29497  0.74496  0.91882  1
 Al  Al4  1  0.20503  0.08118  0.25504  1
 Al  Al5  1  0.73583  0.56172  0.68137  1
 Al  Al6  1  0.76417  0.31863  0.43828  1
 Al  Al7  1  0.26417  0.43828  0.31863  1
 Al  Al8  1  0.23583  0.68137  0.56172  1
 O  O1  1  0.45202  0.15832  0.07922  1
 O  O2  1  0.59589  0.36522  0.25390  1
 O  O3  1  0.09589  0.25390  0.36522  1
 O  O4  1  0.40411  0.63478  0.74610  1
 O  O5  1  0.33233  0.86573  0.38338  1
 O  O6  1  0.16767  0.61662  0.13427  1
 O  O7  1  0.66767  0.13427  0.61662  1
 O  O8  1  0.25000  0.47446  0.52554  1
 O  O9  1  0.95202  0.07922  0.15832  1
 O  O10  1  0.54798  0.84168  0.92078  1
 O  O11  1  0.90411  0.74610  0.63478  1
 O  O12  1  0.75000  0.52554  0.47446  1
 O  O13  1  0.04798  0.92078  0.84168  1
 O  O14  1  0.83233  0.38338  0.86573  1
 Sr  Sr1  1  0.25000  0.19036  0.80964  1
 Sr  Sr2  1  0.75000  0.80964  0.19036  1
