CIF file written using JARVIS-Tools package.
data_LiFePO4
_symmetry_space_group_name_H-M  'I-4'
_cell_length_a       4.81676
_cell_length_b       5.01027
_cell_length_c       4.81676
_cell_angle_alpha    61.2696
_cell_angle_beta     90
_cell_angle_gamma    118.73

_symmetry_Int_Tables_number  82
_chemical_formula_structural  LiFePO4
_chemical_formula_sum  LiFePO4
_cell_volume  85.25341014788162
_cell_formula_units_Z  1
loop_
  _symmetry_equiv_pos_site_id
 _symmetry_equiv_pos_as_xyz
 1  'x, y, z'
loop_
 _atom_site_type_symbol
 _atom_site_label
 _atom_site_symmetry_multiplicity
 _atom_site_fract_x
 _atom_site_fract_y
 _atom_site_fract_z
 _atom_site_fract_occupancy
 Fe  Fe1  1  0.00000  0.00000  0.00000  1
 Li  Li1  1  0.50000  0.00000  0.50000  1
 O  O1  1  0.44441  0.25952  0.06011  1
 O  O2  1  0.68037  0.74048  0.44441  1
 O  O3  1  0.81511  0.25952  0.68037  1
 O  O4  1  0.06011  0.74048  0.81511  1
 P  P1  1  0.75000  0.50000  0.75000  1
