CIF file written using JARVIS-Tools package.
data_K2TiF6
_symmetry_space_group_name_H-M  'P-3m1'
_cell_length_a       5.71457
_cell_length_b       5.71457
_cell_length_c       4.60027
_cell_angle_alpha    90
_cell_angle_beta     90
_cell_angle_gamma    120

_symmetry_Int_Tables_number  164
_chemical_formula_structural  K2TiF6
_chemical_formula_sum  K2TiF6
_cell_volume  130.10078026399668
_cell_formula_units_Z  1
loop_
  _symmetry_equiv_pos_site_id
 _symmetry_equiv_pos_as_xyz
 1  'x, y, z'
loop_
 _atom_site_type_symbol
 _atom_site_label
 _atom_site_symmetry_multiplicity
 _atom_site_fract_x
 _atom_site_fract_y
 _atom_site_fract_z
 _atom_site_fract_occupancy
 F  F1  1  0.31787  0.15894  0.77146  1
 F  F2  1  0.84106  0.15894  0.77146  1
 F  F3  1  0.84106  0.68213  0.77146  1
 F  F4  1  0.15894  0.31787  0.22854  1
 F  F5  1  0.68213  0.84106  0.22854  1
 F  F6  1  0.15894  0.84106  0.22854  1
 K  K1  1  0.33333  0.66667  0.70188  1
 K  K2  1  0.66667  0.33333  0.29812  1
 Ti  Ti1  1  0.00000  0.00000  0.00000  1
