CIF file written using JARVIS-Tools package.
data_As2Pb4S6ICl
_symmetry_space_group_name_H-M  'Pmn2_1'
_cell_length_a       6.72311
_cell_length_b       9.50502
_cell_length_c       11.6688
_cell_angle_alpha    90
_cell_angle_beta     90
_cell_angle_gamma    90

_symmetry_Int_Tables_number  31
_chemical_formula_structural  As2Pb4S6ICl
_chemical_formula_sum  As4Pb8S2I2Cl2
_cell_volume  745.6749224378385
_cell_formula_units_Z  2
loop_
  _symmetry_equiv_pos_site_id
 _symmetry_equiv_pos_as_xyz
 1  'x, y, z'
loop_
 _atom_site_type_symbol
 _atom_site_label
 _atom_site_symmetry_multiplicity
 _atom_site_fract_x
 _atom_site_fract_y
 _atom_site_fract_z
 _atom_site_fract_occupancy
 As  As1  1  0.50000  0.95142  0.17285  1
 As  As2  1  0.00000  0.45142  0.82715  1
 As  As3  1  0.50000  0.52162  0.67182  1
 As  As4  1  0.00000  0.02162  0.32818  1
 Cl  Cl1  1  0.50000  0.87603  0.70907  1
 Cl  Cl2  1  0.00000  0.37603  0.29093  1
 I  I1  1  0.50000  0.58305  0.20520  1
 I  I2  1  0.00000  0.08305  0.79480  1
 Pb  Pb1  1  0.50000  0.71717  0.91536  1
 Pb  Pb2  1  0.00000  0.79178  0.62461  1
 Pb  Pb3  1  0.50000  0.77279  0.42926  1
 Pb  Pb4  1  0.00000  0.67799  0.12576  1
 Pb  Pb5  1  0.50000  0.29178  0.37539  1
 Pb  Pb6  1  0.00000  0.21717  0.08464  1
 Pb  Pb7  1  0.50000  0.17799  0.87424  1
 Pb  Pb8  1  0.00000  0.27279  0.57074  1
 S  S1  1  0.75124  0.90583  0.04628  1
 S  S2  1  0.74876  0.40583  0.95372  1
 S  S3  1  0.25114  0.57040  0.54401  1
 S  S4  1  0.74886  0.57040  0.54401  1
 S  S5  1  0.50000  0.18935  0.15136  1
 S  S6  1  0.24886  0.07040  0.45599  1
 S  S7  1  0.25124  0.40583  0.95372  1
 S  S8  1  0.50000  0.28467  0.65034  1
 S  S9  1  0.75114  0.07040  0.45599  1
 S  S10  1  0.24876  0.90583  0.04628  1
 S  S11  1  0.00000  0.68935  0.84864  1
 S  S12  1  0.00000  0.78467  0.34966  1
