CIF file written using JARVIS-Tools package.
data_Al5HO8
_symmetry_space_group_name_H-M  'P6_3mc'
_cell_length_a       5.62845
_cell_length_b       5.62848
_cell_length_c       8.82776
_cell_angle_alpha    90
_cell_angle_beta     90
_cell_angle_gamma    120

_symmetry_Int_Tables_number  186
_chemical_formula_structural  Al5HO8
_chemical_formula_sum  Al0H2O6
_cell_volume  242.19355882734752
_cell_formula_units_Z  2
loop_
  _symmetry_equiv_pos_site_id
 _symmetry_equiv_pos_as_xyz
 1  'x, y, z'
loop_
 _atom_site_type_symbol
 _atom_site_label
 _atom_site_symmetry_multiplicity
 _atom_site_fract_x
 _atom_site_fract_y
 _atom_site_fract_z
 _atom_site_fract_occupancy
 Al  Al1  1  0.83431  0.16568  0.86567  1
 Al  Al2  1  0.83431  0.66862  0.86567  1
 Al  Al3  1  0.33137  0.16568  0.86567  1
 Al  Al4  1  0.16569  0.83432  0.36567  1
 Al  Al5  1  0.33333  0.66667  0.04773  1
 Al  Al6  1  0.16569  0.33138  0.36567  1
 Al  Al7  1  0.33333  0.66666  0.65868  1
 Al  Al8  1  0.66667  0.33334  0.15868  1
 Al  Al9  1  0.66667  0.33333  0.54773  1
 Al  Al10  1  0.66863  0.83432  0.36567  1
 H  H1  1  -0.00001  -0.00001  0.59777  1
 H  H2  1  0.00001  0.00001  0.09777  1
 O  O1  1  0.51450  0.48549  0.00098  1
 O  O2  1  0.00000  0.00000  0.48526  1
 O  O3  1  0.66666  0.33332  0.75474  1
 O  O4  1  0.48550  0.51451  0.50098  1
 O  O5  1  0.48550  0.97100  0.50098  1
 O  O6  1  0.02901  0.51451  0.50098  1
 O  O7  1  -0.00000  -0.00000  0.98526  1
 O  O8  1  0.83410  0.66821  0.26264  1
 O  O9  1  0.16590  0.83408  0.76264  1
 O  O10  1  0.16590  0.33179  0.76264  1
 O  O11  1  0.33182  0.16592  0.26264  1
 O  O12  1  0.83410  0.16592  0.26264  1
 O  O13  1  0.51450  0.02900  0.00098  1
 O  O14  1  0.66818  0.83408  0.76264  1
 O  O15  1  0.97099  0.48549  0.00098  1
 O  O16  1  0.33334  0.66668  0.25474  1
