CIF file written using JARVIS-Tools package.
data_Rb2CO3
_symmetry_space_group_name_H-M  'P2_1/c'
_cell_length_a       5.90184
_cell_length_b       10.2205
_cell_length_c       7.13076
_cell_angle_alpha    90
_cell_angle_beta     99.3486
_cell_angle_gamma    90

_symmetry_Int_Tables_number  14
_chemical_formula_structural  Rb2CO3
_chemical_formula_sum  Rb8C4O2
_cell_volume  424.4137355080914
_cell_formula_units_Z  4
loop_
  _symmetry_equiv_pos_site_id
 _symmetry_equiv_pos_as_xyz
 1  'x, y, z'
loop_
 _atom_site_type_symbol
 _atom_site_label
 _atom_site_symmetry_multiplicity
 _atom_site_fract_x
 _atom_site_fract_y
 _atom_site_fract_z
 _atom_site_fract_occupancy
 C  C1  1  0.24550  0.91737  0.75090  1
 C  C2  1  0.75450  0.41737  0.74910  1
 C  C3  1  0.75450  0.08263  0.24910  1
 C  C4  1  0.24550  0.58263  0.25090  1
 O  O1  1  0.26486  0.46200  0.31107  1
 O  O2  1  0.59734  0.36591  0.83477  1
 O  O3  1  0.59734  0.13409  0.33477  1
 O  O4  1  0.40266  0.63409  0.16523  1
 O  O5  1  0.40266  0.86591  0.66523  1
 O  O6  1  0.06836  0.65151  0.27984  1
 O  O7  1  0.93164  0.15151  0.22016  1
 O  O8  1  0.93164  0.34849  0.72016  1
 O  O9  1  0.06836  0.84849  0.77984  1
 O  O10  1  0.26486  0.03800  0.81107  1
 O  O11  1  0.73514  0.96200  0.18893  1
 O  O12  1  0.73514  0.53800  0.68893  1
 Rb  Rb1  1  0.24062  0.58195  0.70833  1
 Rb  Rb2  1  0.75938  0.08195  0.79167  1
 Rb  Rb3  1  0.75938  0.41805  0.29167  1
 Rb  Rb4  1  0.24062  0.91805  0.20833  1
 Rb  Rb5  1  0.26515  0.23483  0.53043  1
 Rb  Rb6  1  0.73485  0.73483  0.96957  1
 Rb  Rb7  1  0.73485  0.76517  0.46957  1
 Rb  Rb8  1  0.26515  0.26517  0.03043  1
