CIF file written using JARVIS-Tools package.
data_ScTlO3
_symmetry_space_group_name_H-M  'Pnma'
_cell_length_a       5.52909
_cell_length_b       5.66786
_cell_length_c       9.8224
_cell_angle_alpha    90
_cell_angle_beta     124.261
_cell_angle_gamma    90

_symmetry_Int_Tables_number  62
_chemical_formula_structural  ScTlO3
_chemical_formula_sum  Sc4Tl4O2
_cell_volume  254.40283690872192
_cell_formula_units_Z  4
loop_
  _symmetry_equiv_pos_site_id
 _symmetry_equiv_pos_as_xyz
 1  'x, y, z'
loop_
 _atom_site_type_symbol
 _atom_site_label
 _atom_site_symmetry_multiplicity
 _atom_site_fract_x
 _atom_site_fract_y
 _atom_site_fract_z
 _atom_site_fract_occupancy
 O  O1  1  0.75090  0.31136  0.43552  1
 O  O2  1  0.13294  0.43323  0.25000  1
 O  O3  1  0.62014  0.81136  0.43551  1
 O  O4  1  0.75090  0.18864  0.93552  1
 O  O5  1  0.24910  0.68864  0.56448  1
 O  O6  1  0.37986  0.18864  0.56449  1
 O  O7  1  0.86706  0.93323  0.25000  1
 O  O8  1  0.13294  0.06677  0.75000  1
 O  O9  1  0.37986  0.31136  0.06449  1
 O  O10  1  0.86706  0.56677  0.75000  1
 O  O11  1  0.24910  0.81136  0.06448  1
 O  O12  1  0.62014  0.68864  0.93551  1
 Sc  Sc1  1  0.50000  0.00000  -0.00000  1
 Sc  Sc2  1  0.00000  0.00000  0.50000  1
 Sc  Sc3  1  0.00000  0.50000  0.00000  1
 Sc  Sc4  1  0.50000  0.50000  0.50000  1
 Tl  Tl1  1  0.26505  0.04984  0.25000  1
 Tl  Tl2  1  0.73495  0.54984  0.25000  1
 Tl  Tl3  1  0.26505  0.45016  0.75000  1
 Tl  Tl4  1  0.73495  0.95016  0.75000  1
