CIF file written using JARVIS-Tools package.
data_H7C9S2N
_symmetry_space_group_name_H-M  'P1'
_cell_length_a       4.70798
_cell_length_b       7.71387
_cell_length_c       11.4117
_cell_angle_alpha    81.9892
_cell_angle_beta     85.9744
_cell_angle_gamma    82.4979

_symmetry_Int_Tables_number  1
_chemical_formula_structural  H7C9S2N
_chemical_formula_sum  H4C8S4N2
_cell_volume  406.30853996779155
_cell_formula_units_Z  2
loop_
  _symmetry_equiv_pos_site_id
 _symmetry_equiv_pos_as_xyz
 1  'x, y, z'
loop_
 _atom_site_type_symbol
 _atom_site_label
 _atom_site_symmetry_multiplicity
 _atom_site_fract_x
 _atom_site_fract_y
 _atom_site_fract_z
 _atom_site_fract_occupancy
 C  C1  1  0.21663  0.31110  0.07609  1
 C  C2  1  0.04715  0.97833  0.36349  1
 C  C3  1  0.05949  0.10108  0.24957  1
 C  C4  1  0.28720  0.82680  0.36760  1
 C  C5  1  0.78720  0.82679  0.86760  1
 C  C6  1  0.55949  0.10108  0.74957  1
 C  C7  1  0.65997  0.57174  0.43224  1
 C  C8  1  0.94056  0.75502  0.77517  1
 C  C9  1  0.52136  0.20693  0.54785  1
 C  C10  1  0.02136  0.20693  0.04785  1
 C  C11  1  0.44056  0.75502  0.27517  1
 C  C12  1  0.43444  0.08850  0.64651  1
 C  C13  1  0.93444  0.08849  0.14651  1
 C  C14  1  0.65106  0.61065  0.31162  1
 C  C15  1  0.15106  0.61065  0.81162  1
 C  C16  1  0.15997  0.57174  0.93224  1
 C  C17  1  0.54714  0.97832  0.86349  1
 C  C18  1  0.71663  0.31110  0.57609  1
 H  H1  1  0.55051  0.04947  0.94049  1
 H  H2  1  0.29401  0.53673  0.75203  1
 H  H3  1  0.83826  0.92629  0.37169  1
 H  H4  1  0.33825  0.92629  0.87169  1
 H  H5  1  0.52527  0.47855  0.02425  1
 H  H6  1  0.78705  0.99254  0.14241  1
 H  H7  1  0.79401  0.53673  0.25203  1
 H  H8  1  0.28704  0.99254  0.64241  1
 H  H9  1  0.45102  0.21484  0.45831  1
 H  H10  1  0.95102  0.21484  0.95831  1
 H  H11  1  0.39981  0.80450  0.18300  1
 H  H12  1  0.89980  0.80450  0.68300  1
 H  H13  1  0.05052  0.04948  0.44049  1
 H  H14  1  0.02527  0.47855  0.52425  1
 N  N1  1  0.34077  0.44112  0.99927  1
 N  N2  1  0.84077  0.44112  0.49927  1
 S  S1  1  0.90306  0.71645  0.00220  1
 S  S2  1  0.40306  0.71645  0.50220  1
 S  S3  1  0.28092  0.26777  0.22687  1
 S  S4  1  0.78092  0.26777  0.72687  1
