CIF file written using JARVIS-Tools package.
data_CaHoTi2O6
_symmetry_space_group_name_H-M  'Pmn2_1'
_cell_length_a       5.34165
_cell_length_b       5.56569
_cell_length_c       7.66789
_cell_angle_alpha    90
_cell_angle_beta     90
_cell_angle_gamma    90

_symmetry_Int_Tables_number  31
_chemical_formula_structural  CaHoTi2O6
_chemical_formula_sum  Ca2Ho2Ti4O2
_cell_volume  227.9661269636792
_cell_formula_units_Z  2
loop_
  _symmetry_equiv_pos_site_id
 _symmetry_equiv_pos_as_xyz
 1  'x, y, z'
loop_
 _atom_site_type_symbol
 _atom_site_label
 _atom_site_symmetry_multiplicity
 _atom_site_fract_x
 _atom_site_fract_y
 _atom_site_fract_z
 _atom_site_fract_occupancy
 Ca  Ca1  1  0.48845  0.19614  0.00000  1
 Ca  Ca2  1  0.98845  0.80386  0.50000  1
 Ho  Ho1  1  0.01671  0.68403  0.00000  1
 Ho  Ho2  1  0.51671  0.31597  0.50000  1
 O  O1  1  0.10724  0.22115  0.50000  1
 O  O2  1  0.79533  0.54148  0.29820  1
 O  O3  1  0.19119  0.94505  0.19661  1
 O  O4  1  0.29533  0.45852  0.79820  1
 O  O5  1  0.19119  0.94505  0.80339  1
 O  O6  1  0.41328  0.71860  0.50000  1
 O  O7  1  0.60724  0.77885  0.00000  1
 O  O8  1  0.69119  0.05495  0.69661  1
 O  O9  1  0.29533  0.45852  0.20180  1
 O  O10  1  0.79533  0.54148  0.70180  1
 O  O11  1  0.69119  0.05495  0.30339  1
 O  O12  1  0.91328  0.28140  0.00000  1
 Ti  Ti1  1  0.50068  0.75374  0.74978  1
 Ti  Ti2  1  0.50068  0.75374  0.25022  1
 Ti  Ti3  1  0.00068  0.24626  0.24978  1
 Ti  Ti4  1  0.00068  0.24626  0.75022  1
