CIF file written using JARVIS-Tools package.
data_PrRhO3
_symmetry_space_group_name_H-M  'Pnma'
_cell_length_a       5.42329
_cell_length_b       5.87687
_cell_length_c       7.86569
_cell_angle_alpha    90
_cell_angle_beta     90
_cell_angle_gamma    90

_symmetry_Int_Tables_number  62
_chemical_formula_structural  PrRhO3
_chemical_formula_sum  Pr4Rh4O2
_cell_volume  250.69490296417692
_cell_formula_units_Z  4
loop_
  _symmetry_equiv_pos_site_id
 _symmetry_equiv_pos_as_xyz
 1  'x, y, z'
loop_
 _atom_site_type_symbol
 _atom_site_label
 _atom_site_symmetry_multiplicity
 _atom_site_fract_x
 _atom_site_fract_y
 _atom_site_fract_z
 _atom_site_fract_occupancy
 O  O1  1  0.39366  0.03175  0.25000  1
 O  O2  1  0.81359  0.19725  0.44839  1
 O  O3  1  0.10634  0.53175  0.25000  1
 O  O4  1  0.68641  0.69725  0.05161  1
 O  O5  1  0.18641  0.80275  0.94839  1
 O  O6  1  0.31359  0.30275  0.55161  1
 O  O7  1  0.68641  0.69725  0.44839  1
 O  O8  1  0.31359  0.30275  0.94839  1
 O  O9  1  0.81359  0.19725  0.05161  1
 O  O10  1  0.60634  0.96825  0.75000  1
 O  O11  1  0.89366  0.46825  0.75000  1
 O  O12  1  0.18641  0.80275  0.55161  1
 Pr  Pr1  1  0.52351  0.42554  0.25000  1
 Pr  Pr2  1  0.02351  0.07446  0.75000  1
 Pr  Pr3  1  0.97649  0.92554  0.25000  1
 Pr  Pr4  1  0.47649  0.57446  0.75000  1
 Rh  Rh1  1  0.50000  0.00000  0.00000  1
 Rh  Rh2  1  0.00000  0.50000  0.00000  1
 Rh  Rh3  1  0.00000  0.50000  0.50000  1
 Rh  Rh4  1  0.50000  0.00000  0.50000  1
