CIF file written using JARVIS-Tools package.
data_SrPr2Se4
_symmetry_space_group_name_H-M  'I-42d'
_cell_length_a       7.86027
_cell_length_b       7.86027
_cell_length_c       7.86027
_cell_angle_alpha    109.45
_cell_angle_beta     109.514
_cell_angle_gamma    109.45

_symmetry_Int_Tables_number  122
_chemical_formula_structural  SrPr2Se4
_chemical_formula_sum  Sr2Pr4Se8
_cell_volume  373.8442518445004
_cell_formula_units_Z  2
loop_
  _symmetry_equiv_pos_site_id
 _symmetry_equiv_pos_as_xyz
 1  'x, y, z'
loop_
 _atom_site_type_symbol
 _atom_site_label
 _atom_site_symmetry_multiplicity
 _atom_site_fract_x
 _atom_site_fract_y
 _atom_site_fract_z
 _atom_site_fract_occupancy
 Pr  Pr1  1  0.25000  0.62711  0.37711  1
 Pr  Pr2  1  0.62289  0.37289  0.25000  1
 Pr  Pr3  1  0.75000  0.87289  0.12289  1
 Pr  Pr4  1  0.87711  0.12711  0.75000  1
 Se  Se1  1  0.14518  0.15239  0.14558  1
 Se  Se2  1  0.50682  0.99961  0.35442  1
 Se  Se3  1  0.35482  0.50039  0.00721  1
 Se  Se4  1  0.50721  0.00039  0.85482  1
 Se  Se5  1  0.64558  0.65239  0.64518  1
 Se  Se6  1  0.99279  0.84761  0.49318  1
 Se  Se7  1  0.85442  0.49961  0.00682  1
 Se  Se8  1  0.99318  0.34761  0.49279  1
 Sr  Sr1  1  0.12500  0.75000  0.87500  1
 Sr  Sr2  1  0.37500  0.25000  0.62500  1
