CIF file written using JARVIS-Tools package.
data_SrSeO4
_symmetry_space_group_name_H-M  'P2_1/c'
_cell_length_a       6.91961
_cell_length_b       7.38463
_cell_length_c       8.71337
_cell_angle_alpha    90
_cell_angle_beta     127.196
_cell_angle_gamma    90

_symmetry_Int_Tables_number  14
_chemical_formula_structural  SrSeO4
_chemical_formula_sum  Sr4Se4O6
_cell_volume  354.66933716899297
_cell_formula_units_Z  4
loop_
  _symmetry_equiv_pos_site_id
 _symmetry_equiv_pos_as_xyz
 1  'x, y, z'
loop_
 _atom_site_type_symbol
 _atom_site_label
 _atom_site_symmetry_multiplicity
 _atom_site_fract_x
 _atom_site_fract_y
 _atom_site_fract_z
 _atom_site_fract_occupancy
 O  O1  1  0.80898  0.00343  0.75190  1
 O  O2  1  0.59541  0.71433  0.87895  1
 O  O3  1  0.40459  0.21433  0.62105  1
 O  O4  1  0.40459  0.28567  0.12105  1
 O  O5  1  0.88375  0.33942  0.88575  1
 O  O6  1  0.33107  0.61027  0.51851  1
 O  O7  1  0.66893  0.11027  0.98149  1
 O  O8  1  0.59541  0.78567  0.37895  1
 O  O9  1  0.33107  0.88973  0.01851  1
 O  O10  1  0.19102  0.99657  0.24810  1
 O  O11  1  0.80898  0.49657  0.25190  1
 O  O12  1  0.11625  0.83942  0.61425  1
 O  O13  1  0.19102  0.50343  0.74810  1
 O  O14  1  0.11625  0.66058  0.11425  1
 O  O15  1  0.88375  0.16058  0.38575  1
 O  O16  1  0.66893  0.38973  0.48149  1
 Se  Se1  1  0.31083  0.83532  0.19469  1
 Se  Se2  1  0.68917  0.33532  0.30531  1
 Se  Se3  1  0.68917  0.16468  0.80531  1
 Se  Se4  1  0.31083  0.66468  0.69469  1
 Sr  Sr1  1  0.82367  0.84380  0.22197  1
 Sr  Sr2  1  0.17633  0.34380  0.27803  1
 Sr  Sr3  1  0.17633  0.15620  0.77803  1
 Sr  Sr4  1  0.82367  0.65620  0.72197  1
