CIF file written using JARVIS-Tools package.
data_NbVO4
_symmetry_space_group_name_H-M  'Pbcn'
_cell_length_a       4.62781
_cell_length_b       4.90517
_cell_length_c       12.5578
_cell_angle_alpha    90
_cell_angle_beta     111.622
_cell_angle_gamma    90

_symmetry_Int_Tables_number  60
_chemical_formula_structural  NbVO4
_chemical_formula_sum  Nb4V4O6
_cell_volume  265.0048611303814
_cell_formula_units_Z  4
loop_
  _symmetry_equiv_pos_site_id
 _symmetry_equiv_pos_as_xyz
 1  'x, y, z'
loop_
 _atom_site_type_symbol
 _atom_site_label
 _atom_site_symmetry_multiplicity
 _atom_site_fract_x
 _atom_site_fract_y
 _atom_site_fract_z
 _atom_site_fract_occupancy
 Nb  Nb1  1  0.17602  0.25005  0.67603  1
 Nb  Nb2  1  0.17602  0.24995  0.17603  1
 Nb  Nb3  1  0.82398  0.75005  0.82397  1
 Nb  Nb4  1  0.82398  0.74995  0.32397  1
 O  O1  1  0.54062  0.07708  0.81272  1
 O  O2  1  0.68058  0.58047  0.93814  1
 O  O3  1  0.54062  0.42292  0.31272  1
 O  O4  1  0.31942  0.41953  0.06186  1
 O  O5  1  0.68058  0.91953  0.43814  1
 O  O6  1  0.19571  0.91954  0.93814  1
 O  O7  1  0.08484  0.42298  0.81273  1
 O  O8  1  0.91516  0.92298  0.68727  1
 O  O9  1  0.08484  0.07702  0.31273  1
 O  O10  1  0.80429  0.08046  0.06186  1
 O  O11  1  0.80429  0.41954  0.56186  1
 O  O12  1  0.31942  0.08047  0.56186  1
 O  O13  1  0.91516  0.57702  0.18727  1
 O  O14  1  0.45938  0.57708  0.68728  1
 O  O15  1  0.19571  0.58046  0.43814  1
 O  O16  1  0.45938  0.92292  0.18728  1
 V  V1  1  0.56044  0.74998  0.06044  1
 V  V2  1  0.56044  0.75002  0.56044  1
 V  V3  1  0.43956  0.24998  0.43956  1
 V  V4  1  0.43956  0.25002  0.93956  1
