CIF file written using JARVIS-Tools package.
data_Sb2O3
_symmetry_space_group_name_H-M  'Pccn'
_cell_length_a       4.94648
_cell_length_b       5.46065
_cell_length_c       12.4872
_cell_angle_alpha    90
_cell_angle_beta     90
_cell_angle_gamma    90

_symmetry_Int_Tables_number  56
_chemical_formula_structural  Sb2O3
_chemical_formula_sum  Sb8O2
_cell_volume  337.2906574457517
_cell_formula_units_Z  4
loop_
  _symmetry_equiv_pos_site_id
 _symmetry_equiv_pos_as_xyz
 1  'x, y, z'
loop_
 _atom_site_type_symbol
 _atom_site_label
 _atom_site_symmetry_multiplicity
 _atom_site_fract_x
 _atom_site_fract_y
 _atom_site_fract_z
 _atom_site_fract_occupancy
 O  O1  1  0.14456  0.15118  0.05787  1
 O  O2  1  0.75000  0.01022  0.75000  1
 O  O3  1  0.35544  0.15118  0.44213  1
 O  O4  1  0.25000  0.98978  0.25000  1
 O  O5  1  0.75000  0.51022  0.75000  1
 O  O6  1  0.25000  0.48978  0.25000  1
 O  O7  1  0.35544  0.65118  0.05787  1
 O  O8  1  0.64456  0.84882  0.55787  1
 O  O9  1  0.14456  0.65118  0.44213  1
 O  O10  1  0.85544  0.34882  0.55787  1
 O  O11  1  0.64456  0.34882  0.94213  1
 O  O12  1  0.85544  0.84882  0.94213  1
 Sb  Sb1  1  0.96164  0.67744  0.62724  1
 Sb  Sb2  1  0.46164  0.82256  0.37276  1
 Sb  Sb3  1  0.53836  0.67744  0.87276  1
 Sb  Sb4  1  0.03836  0.82256  0.12724  1
 Sb  Sb5  1  0.03836  0.32256  0.37276  1
 Sb  Sb6  1  0.53836  0.17744  0.62724  1
 Sb  Sb7  1  0.46164  0.32256  0.12724  1
 Sb  Sb8  1  0.96164  0.17744  0.87276  1
