CIF file written using JARVIS-Tools package.
data_SmEr3Se6
_symmetry_space_group_name_H-M  'P2_1/m'
_cell_length_a       11.4861
_cell_length_b       4.07385
_cell_length_c       11.7727
_cell_angle_alpha    90
_cell_angle_beta     109.249
_cell_angle_gamma    90

_symmetry_Int_Tables_number  11
_chemical_formula_structural  SmEr3Se6
_chemical_formula_sum  Sm2Er6Se2
_cell_volume  520.0829203978855
_cell_formula_units_Z  2
loop_
  _symmetry_equiv_pos_site_id
 _symmetry_equiv_pos_as_xyz
 1  'x, y, z'
loop_
 _atom_site_type_symbol
 _atom_site_label
 _atom_site_symmetry_multiplicity
 _atom_site_fract_x
 _atom_site_fract_y
 _atom_site_fract_z
 _atom_site_fract_occupancy
 Er  Er1  1  0.34036  0.25000  0.41512  1
 Er  Er2  1  0.65964  0.75000  0.58488  1
 Er  Er3  1  0.81862  0.25000  0.99916  1
 Er  Er4  1  0.18138  0.75000  0.00084  1
 Er  Er5  1  0.06314  0.25000  0.66662  1
 Er  Er6  1  0.93686  0.75000  0.33338  1
 Se  Se1  1  0.89337  0.75000  0.55968  1
 Se  Se2  1  0.69648  0.25000  0.75025  1
 Se  Se3  1  0.24056  0.75000  0.77403  1
 Se  Se4  1  0.58292  0.25000  0.40417  1
 Se  Se5  1  0.41708  0.75000  0.59583  1
 Se  Se6  1  0.30352  0.75000  0.24975  1
 Se  Se7  1  0.75944  0.25000  0.22597  1
 Se  Se8  1  0.01897  0.25000  0.88466  1
 Se  Se9  1  0.98103  0.75000  0.11534  1
 Se  Se10  1  0.38446  0.25000  0.03464  1
 Se  Se11  1  0.10663  0.25000  0.44032  1
 Se  Se12  1  0.61554  0.75000  0.96536  1
 Sm  Sm1  1  0.54680  0.75000  0.19532  1
 Sm  Sm2  1  0.45320  0.25000  0.80468  1
