CIF file written using JARVIS-Tools package.
data_Rb2MnBr4
_symmetry_space_group_name_H-M  'I4/mmm'
_cell_length_a       5.29165
_cell_length_b       5.29165
_cell_length_c       9.25315
_cell_angle_alpha    106.615
_cell_angle_beta     106.615
_cell_angle_gamma    90

_symmetry_Int_Tables_number  139
_chemical_formula_structural  Rb2MnBr4
_chemical_formula_sum  Rb2MnBr4
_cell_volume  236.97297201324557
_cell_formula_units_Z  1
loop_
  _symmetry_equiv_pos_site_id
 _symmetry_equiv_pos_as_xyz
 1  'x, y, z'
loop_
 _atom_site_type_symbol
 _atom_site_label
 _atom_site_symmetry_multiplicity
 _atom_site_fract_x
 _atom_site_fract_y
 _atom_site_fract_z
 _atom_site_fract_occupancy
 Br  Br1  1  0.15915  0.15915  0.31830  1
 Br  Br2  1  -0.00000  0.50000  0.00000  1
 Br  Br3  1  0.84085  0.84085  0.68170  1
 Br  Br4  1  0.50000  -0.00000  -0.00000  1
 Mn  Mn1  1  0.00000  0.00000  0.00000  1
 Rb  Rb1  1  0.35918  0.35918  0.71836  1
 Rb  Rb2  1  0.64082  0.64082  0.28164  1
