CIF file written using JARVIS-Tools package.
data_H4C6S
_symmetry_space_group_name_H-M  'P1'
_cell_length_a       5.49568
_cell_length_b       5.85903
_cell_length_c       9.04623
_cell_angle_alpha    95.9389
_cell_angle_beta     89.5718
_cell_angle_gamma    117.61

_symmetry_Int_Tables_number  1
_chemical_formula_structural  H4C6S
_chemical_formula_sum  H8C2S2
_cell_volume  256.45513017366994
_cell_formula_units_Z  2
loop_
  _symmetry_equiv_pos_site_id
 _symmetry_equiv_pos_as_xyz
 1  'x, y, z'
loop_
 _atom_site_type_symbol
 _atom_site_label
 _atom_site_symmetry_multiplicity
 _atom_site_fract_x
 _atom_site_fract_y
 _atom_site_fract_z
 _atom_site_fract_occupancy
 C  C1  1  0.35220  0.94596  0.02705  1
 C  C2  1  0.98809  0.80610  0.38658  1
 C  C3  1  0.97121  0.94804  0.71453  1
 C  C4  1  0.84982  0.98396  0.84660  1
 C  C5  1  0.70998  0.12479  0.83412  1
 C  C6  1  0.55062  0.18308  0.95395  1
 C  C7  1  0.93189  0.06805  0.59982  1
 C  C8  1  0.09262  0.77644  0.25118  1
 C  C9  1  0.28843  0.23649  0.23564  1
 C  C10  1  0.17986  0.26644  0.37187  1
 C  C11  1  0.03017  0.05245  0.45074  1
 C  C12  1  0.24708  0.98982  0.17151  1
 H  H1  1  0.22162  0.45964  0.42104  1
 H  H2  1  0.40569  0.40774  0.17902  1
 H  H3  1  0.86865  0.63788  0.44529  1
 H  H4  1  0.05729  0.58521  0.20295  1
 H  H5  1  0.69639  0.33014  0.03981  1
 H  H6  1  0.08940  0.84151  0.70312  1
 H  H7  1  0.85876  0.90420  0.94844  1
 H  H8  1  0.43213  0.27308  0.91071  1
 S  S1  1  0.73543  0.22066  0.65736  1
 S  S2  1  0.24930  0.64989  0.94307  1
