CIF file written using JARVIS-Tools package.
data_LiSmS2
_symmetry_space_group_name_H-M  'I4_1/amd'
_cell_length_a       7.84528
_cell_length_b       10.4137
_cell_length_c       6.84812
_cell_angle_alpha    29.1468
_cell_angle_beta     55.0539
_cell_angle_gamma    41.1177

_symmetry_Int_Tables_number  141
_chemical_formula_structural  LiSmS2
_chemical_formula_sum  Li2Sm2S4
_cell_volume  172.7441078471108
_cell_formula_units_Z  2
loop_
  _symmetry_equiv_pos_site_id
 _symmetry_equiv_pos_as_xyz
 1  'x, y, z'
loop_
 _atom_site_type_symbol
 _atom_site_label
 _atom_site_symmetry_multiplicity
 _atom_site_fract_x
 _atom_site_fract_y
 _atom_site_fract_z
 _atom_site_fract_occupancy
 Li  Li1  1  0.50001  0.00000  0.00000  1
 Li  Li2  1  0.24999  0.50000  -0.00000  1
 S  S1  1  0.24827  0.00000  0.50345  1
 S  S2  1  0.99827  0.50000  0.50345  1
 S  S3  1  0.75173  -0.00000  0.49655  1
 S  S4  1  0.50173  0.50000  0.49655  1
 Sm  Sm1  1  -0.00000  0.00000  0.00000  1
 Sm  Sm2  1  0.75000  0.50000  -0.00000  1
