CIF file written using JARVIS-Tools package.
data_K2H6Pt
_symmetry_space_group_name_H-M  'Fm-3m'
_cell_length_a       5.71141
_cell_length_b       5.71141
_cell_length_c       5.71141
_cell_angle_alpha    60
_cell_angle_beta     60
_cell_angle_gamma    60

_symmetry_Int_Tables_number  225
_chemical_formula_structural  K2H6Pt
_chemical_formula_sum  K2H6Pt
_cell_volume  131.73961984670476
_cell_formula_units_Z  1
loop_
  _symmetry_equiv_pos_site_id
 _symmetry_equiv_pos_as_xyz
 1  'x, y, z'
loop_
 _atom_site_type_symbol
 _atom_site_label
 _atom_site_symmetry_multiplicity
 _atom_site_fract_x
 _atom_site_fract_y
 _atom_site_fract_z
 _atom_site_fract_occupancy
 H  H1  1  0.20566  0.79434  0.79434  1
 H  H2  1  0.20566  0.20566  0.79434  1
 H  H3  1  0.20566  0.79434  0.20566  1
 H  H4  1  0.79434  0.20566  0.20566  1
 H  H5  1  0.79434  0.79434  0.20566  1
 H  H6  1  0.79434  0.20566  0.79434  1
 K  K1  1  0.75000  0.75000  0.75000  1
 K  K2  1  0.25000  0.25000  0.25000  1
 Pt  Pt1  1  0.00000  0.00000  0.00000  1
