CIF file written using JARVIS-Tools package.
data_AlNiF5
_symmetry_space_group_name_H-M  'Immm'
_cell_length_a       3.52582
_cell_length_b       5.14638
_cell_length_c       5.14639
_cell_angle_alpha    73.7745
_cell_angle_beta     69.9676
_cell_angle_gamma    69.9675

_symmetry_Int_Tables_number  71
_chemical_formula_structural  AlNiF5
_chemical_formula_sum  AlNiF5
_cell_volume  81.02300768907627
_cell_formula_units_Z  1
loop_
  _symmetry_equiv_pos_site_id
 _symmetry_equiv_pos_as_xyz
 1  'x, y, z'
loop_
 _atom_site_type_symbol
 _atom_site_label
 _atom_site_symmetry_multiplicity
 _atom_site_fract_x
 _atom_site_fract_y
 _atom_site_fract_z
 _atom_site_fract_occupancy
 Al  Al1  1  0.50000  0.50000  0.50000  1
 F  F1  1  0.50000  0.79975  0.20025  1
 F  F2  1  0.50000  0.20025  0.79975  1
 F  F3  1  0.74204  0.25796  0.25796  1
 F  F4  1  0.25796  0.74204  0.74204  1
 F  F5  1  -0.00000  0.50000  0.50000  1
 Ni  Ni1  1  0.00000  0.00000  0.00000  1
