CIF file written using JARVIS-Tools package.
data_BaTm2NiO5
_symmetry_space_group_name_H-M  'Immm'
_cell_length_a       3.71603
_cell_length_b       5.71352
_cell_length_c       6.59769
_cell_angle_alpha    115.658
_cell_angle_beta     106.357
_cell_angle_gamma    90

_symmetry_Int_Tables_number  71
_chemical_formula_structural  BaTm2NiO5
_chemical_formula_sum  BaTm2NiO5
_cell_volume  119.946807830348
_cell_formula_units_Z  1
loop_
  _symmetry_equiv_pos_site_id
 _symmetry_equiv_pos_as_xyz
 1  'x, y, z'
loop_
 _atom_site_type_symbol
 _atom_site_label
 _atom_site_symmetry_multiplicity
 _atom_site_fract_x
 _atom_site_fract_y
 _atom_site_fract_z
 _atom_site_fract_occupancy
 Ba  Ba1  1  0.50000  0.50000  -0.00000  1
 Ni  Ni1  1  0.00000  0.00000  0.00000  1
 O  O1  1  0.50000  0.00000  0.00000  1
 O  O2  1  0.15185  0.91238  0.30371  1
 O  O3  1  0.84815  0.08762  0.69629  1
 O  O4  1  0.84815  0.60868  0.69629  1
 O  O5  1  0.15185  0.39132  0.30370  1
 Tm  Tm1  1  0.29796  0.79796  0.59591  1
 Tm  Tm2  1  0.70204  0.20204  0.40409  1
