CIF file written using JARVIS-Tools package.
data_CuTe2Cl
_symmetry_space_group_name_H-M  'P2_1/c'
_cell_length_a       8.24522
_cell_length_b       5.04078
_cell_length_c       12.1392
_cell_angle_alpha    90
_cell_angle_beta     117.382
_cell_angle_gamma    90

_symmetry_Int_Tables_number  14
_chemical_formula_structural  CuTe2Cl
_chemical_formula_sum  Cu4Te8Cl4
_cell_volume  448.00642846016416
_cell_formula_units_Z  4
loop_
  _symmetry_equiv_pos_site_id
 _symmetry_equiv_pos_as_xyz
 1  'x, y, z'
loop_
 _atom_site_type_symbol
 _atom_site_label
 _atom_site_symmetry_multiplicity
 _atom_site_fract_x
 _atom_site_fract_y
 _atom_site_fract_z
 _atom_site_fract_occupancy
 Cl  Cl1  1  0.08978  0.10490  0.37876  1
 Cl  Cl2  1  0.91022  0.60490  0.12124  1
 Cl  Cl3  1  0.91022  0.89510  0.62124  1
 Cl  Cl4  1  0.08978  0.39510  0.87876  1
 Cu  Cu1  1  0.82772  0.85689  0.25214  1
 Cu  Cu2  1  0.17228  0.35689  0.24786  1
 Cu  Cu3  1  0.17228  0.14311  0.74786  1
 Cu  Cu4  1  0.82772  0.64311  0.75214  1
 Te  Te1  1  0.58166  0.20917  0.13927  1
 Te  Te2  1  0.41834  0.70917  0.36073  1
 Te  Te3  1  0.41834  0.79083  0.86073  1
 Te  Te4  1  0.58166  0.29083  0.63927  1
 Te  Te5  1  0.26483  0.00977  0.13338  1
 Te  Te6  1  0.73517  0.50977  0.36662  1
 Te  Te7  1  0.73517  0.99023  0.86662  1
 Te  Te8  1  0.26483  0.49023  0.63338  1
