CIF file written using JARVIS-Tools package.
data_Li2TiCo2O6
_symmetry_space_group_name_H-M  'Cmce'
_cell_length_a       4.93426
_cell_length_b       4.94379
_cell_length_c       9.90424
_cell_angle_alpha    90
_cell_angle_beta     90
_cell_angle_gamma    59.936

_symmetry_Int_Tables_number  64
_chemical_formula_structural  Li2TiCo2O6
_chemical_formula_sum  Li4Ti2Co4O2
_cell_volume  209.09945660855925
_cell_formula_units_Z  2
loop_
  _symmetry_equiv_pos_site_id
 _symmetry_equiv_pos_as_xyz
 1  'x, y, z'
loop_
 _atom_site_type_symbol
 _atom_site_label
 _atom_site_symmetry_multiplicity
 _atom_site_fract_x
 _atom_site_fract_y
 _atom_site_fract_z
 _atom_site_fract_occupancy
 Co  Co1  1  0.32916  0.33542  0.00000  1
 Co  Co2  1  0.32916  0.83542  0.50000  1
 Co  Co3  1  0.67084  0.16458  0.50000  1
 Co  Co4  1  0.67084  0.66458  0.00000  1
 Li  Li1  1  0.50000  0.16492  0.75000  1
 Li  Li2  1  0.50000  0.33508  0.25000  1
 Li  Li3  1  0.50000  0.66492  0.75000  1
 Li  Li4  1  0.50000  0.83508  0.25000  1
 O  O1  1  0.65485  0.50257  0.39316  1
 O  O2  1  0.00000  0.34018  0.10350  1
 O  O3  1  -0.00000  0.65982  0.89650  1
 O  O4  1  0.34515  0.99743  0.89316  1
 O  O5  1  -0.00000  0.15982  0.60350  1
 O  O6  1  0.34515  0.15741  0.39316  1
 O  O7  1  0.65485  0.34259  0.89316  1
 O  O8  1  0.34515  0.65741  0.10684  1
 O  O9  1  0.65485  0.00257  0.10684  1
 O  O10  1  0.00000  0.84018  0.39650  1
 O  O11  1  0.34515  0.49743  0.60684  1
 O  O12  1  0.65485  0.84259  0.60684  1
 Ti  Ti1  1  0.00000  0.50000  0.50000  1
 Ti  Ti2  1  0.00000  0.00000  0.00000  1
