CIF file written using JARVIS-Tools package.
data_LaVCrO6
_symmetry_space_group_name_H-M  'P1'
_cell_length_a       5.31088
_cell_length_b       5.31115
_cell_length_c       5.31257
_cell_angle_alpha    119.996
_cell_angle_beta     119.995
_cell_angle_gamma    89.9956

_symmetry_Int_Tables_number  1
_chemical_formula_structural  LaVCrO6
_chemical_formula_sum  LaVCrO6
_cell_volume  105.97905481531167
_cell_formula_units_Z  1
loop_
  _symmetry_equiv_pos_site_id
 _symmetry_equiv_pos_as_xyz
 1  'x, y, z'
loop_
 _atom_site_type_symbol
 _atom_site_label
 _atom_site_symmetry_multiplicity
 _atom_site_fract_x
 _atom_site_fract_y
 _atom_site_fract_z
 _atom_site_fract_occupancy
 Cr  Cr1  1  0.51017  0.51019  0.51127  1
 La  La1  1  0.26042  0.76045  0.01132  1
 O  O1  1  0.25897  0.75749  0.51883  1
 O  O2  1  0.26756  0.25634  0.51339  1
 O  O3  1  0.75254  0.76388  0.50899  1
 O  O4  1  0.76424  0.75681  0.00981  1
 O  O5  1  0.25606  0.26353  0.01278  1
 O  O6  1  0.76128  0.26284  0.50395  1
 V  V1  1  0.01017  0.01029  0.51131  1
