CIF file written using JARVIS-Tools package.
data_Mg2Al2Se5
_symmetry_space_group_name_H-M  'P-3m1'
_cell_length_a       3.90036
_cell_length_b       3.90036
_cell_length_c       16.0753
_cell_angle_alpha    90
_cell_angle_beta     90
_cell_angle_gamma    120

_symmetry_Int_Tables_number  164
_chemical_formula_structural  Mg2Al2Se5
_chemical_formula_sum  Mg2Al2Se5
_cell_volume  211.7862588925246
_cell_formula_units_Z  1
loop_
  _symmetry_equiv_pos_site_id
 _symmetry_equiv_pos_as_xyz
 1  'x, y, z'
loop_
 _atom_site_type_symbol
 _atom_site_label
 _atom_site_symmetry_multiplicity
 _atom_site_fract_x
 _atom_site_fract_y
 _atom_site_fract_z
 _atom_site_fract_occupancy
 Al  Al1  1  0.33333  0.66667  0.83093  1
 Al  Al2  1  0.66667  0.33333  0.16907  1
 Mg  Mg1  1  0.33333  0.66667  0.40065  1
 Mg  Mg2  1  0.66667  0.33333  0.59935  1
 Se  Se1  1  0.66667  0.33333  0.89727  1
 Se  Se2  1  0.33333  0.66667  0.10273  1
 Se  Se3  1  0.66667  0.33333  0.31255  1
 Se  Se4  1  0.33333  0.66667  0.68745  1
 Se  Se5  1  0.00000  0.00000  0.50000  1
