CIF file written using JARVIS-Tools package.
data_Al2Si2H4O9
_symmetry_space_group_name_H-M  'P1'
_cell_length_a       5.19847
_cell_length_b       7.38441
_cell_length_c       9.02244
_cell_angle_alpha    88.1144
_cell_angle_beta     89.8062
_cell_angle_gamma    74.802

_symmetry_Int_Tables_number  1
_chemical_formula_structural  Al2Si2H4O9
_chemical_formula_sum  Al4Si4H8O8
_cell_volume  334.05096613062335
_cell_formula_units_Z  2
loop_
  _symmetry_equiv_pos_site_id
 _symmetry_equiv_pos_as_xyz
 1  'x, y, z'
loop_
 _atom_site_type_symbol
 _atom_site_label
 _atom_site_symmetry_multiplicity
 _atom_site_fract_x
 _atom_site_fract_y
 _atom_site_fract_z
 _atom_site_fract_occupancy
 Al  Al1  1  0.36180  0.53996  0.49350  1
 Al  Al2  1  0.35503  0.54238  0.82915  1
 Al  Al3  1  0.86177  0.53996  0.99350  1
 Al  Al4  1  0.85505  0.54238  0.32914  1
 H  H1  1  0.60685  0.28657  0.31352  1
 H  H2  1  0.60882  0.28273  0.00237  1
 H  H3  1  0.20529  0.69440  0.06248  1
 H  H4  1  0.12527  0.28117  0.17050  1
 H  H5  1  0.10886  0.28272  0.50236  1
 H  H6  1  0.10681  0.28657  0.81353  1
 H  H7  1  0.62525  0.28116  0.67051  1
 H  H8  1  0.70533  0.69438  0.56250  1
 O  O1  1  0.59962  0.40755  0.35562  1
 O  O2  1  0.09942  0.41239  0.47229  1
 O  O3  1  0.02230  0.41207  0.16561  1
 O  O4  1  0.11155  0.69448  0.96862  1
 O  O5  1  0.75737  0.02537  0.26489  1
 O  O6  1  0.09959  0.40755  0.85561  1
 O  O7  1  0.61159  0.69447  0.46863  1
 O  O8  1  0.52230  0.41207  0.66562  1
 O  O9  1  0.59938  0.41240  0.97231  1
 O  O10  1  0.61123  0.70461  0.85158  1
 O  O11  1  0.68222  0.70312  0.16123  1
 O  O12  1  0.26402  0.00175  0.22574  1
 O  O13  1  0.06451  0.02565  0.49718  1
 O  O14  1  0.18221  0.70311  0.66123  1
 O  O15  1  0.11127  0.70461  0.35157  1
 O  O16  1  0.56451  0.02565  0.99717  1
 O  O17  1  0.25730  0.02536  0.76492  1
 O  O18  1  0.76395  0.00174  0.72572  1
 Si  Si1  1  0.56966  0.92900  0.16440  1
 Si  Si2  1  0.55562  0.93084  0.83581  1
 Si  Si3  1  0.06961  0.92900  0.66440  1
 Si  Si4  1  0.05567  0.93084  0.33581  1
