CIF file written using JARVIS-Tools package.
data_Na4ReN3
_symmetry_space_group_name_H-M  'Cc'
_cell_length_a       6.01984
_cell_length_b       6.22644
_cell_length_c       8.79939
_cell_angle_alpha    69.4197
_cell_angle_beta     69.9976
_cell_angle_gamma    61.0917

_symmetry_Int_Tables_number  9
_chemical_formula_structural  Na4ReN3
_chemical_formula_sum  Na8Re2N6
_cell_volume  264.2672212209777
_cell_formula_units_Z  2
loop_
  _symmetry_equiv_pos_site_id
 _symmetry_equiv_pos_as_xyz
 1  'x, y, z'
loop_
 _atom_site_type_symbol
 _atom_site_label
 _atom_site_symmetry_multiplicity
 _atom_site_fract_x
 _atom_site_fract_y
 _atom_site_fract_z
 _atom_site_fract_occupancy
 N  N1  1  0.38436  0.39649  0.69117  1
 N  N2  1  0.52798  0.89649  0.19117  1
 N  N3  1  0.17145  0.05113  0.64369  1
 N  N4  1  0.13373  0.55113  0.14369  1
 N  N5  1  0.83288  0.45233  0.86919  1
 N  N6  1  0.84560  0.95233  0.36919  1
 Na  Na1  1  0.01775  0.22661  0.13638  1
 Na  Na2  1  0.79557  0.23770  0.52460  1
 Na  Na3  1  0.25201  0.75432  0.45745  1
 Na  Na4  1  0.53622  0.25432  0.95745  1
 Na  Na5  1  0.03628  0.73505  0.86033  1
 Na  Na6  1  0.36834  0.23505  0.36033  1
 Na  Na7  1  0.44214  0.73770  0.02460  1
 Na  Na8  1  0.61925  0.72661  0.63638  1
 Re  Re1  1  0.14220  0.27268  0.74929  1
 Re  Re2  1  0.83583  0.77268  0.24929  1
