CIF file written using JARVIS-Tools package.
data_MgAl2Se4
_symmetry_space_group_name_H-M  'R-3m'
_cell_length_a       13.1186
_cell_length_b       13.1186
_cell_length_c       13.1186
_cell_angle_alpha    17.1221
_cell_angle_beta     17.1221
_cell_angle_gamma    17.1221

_symmetry_Int_Tables_number  166
_chemical_formula_structural  MgAl2Se4
_chemical_formula_sum  MgAl2Se4
_cell_volume  170.73000485552743
_cell_formula_units_Z  1
loop_
  _symmetry_equiv_pos_site_id
 _symmetry_equiv_pos_as_xyz
 1  'x, y, z'
loop_
 _atom_site_type_symbol
 _atom_site_label
 _atom_site_symmetry_multiplicity
 _atom_site_fract_x
 _atom_site_fract_y
 _atom_site_fract_z
 _atom_site_fract_occupancy
 Al  Al1  1  0.40438  0.40438  0.40438  1
 Al  Al2  1  0.93076  0.93076  0.93076  1
 Mg  Mg1  1  0.16757  0.16757  0.16757  1
 Se  Se1  1  0.87127  0.87127  0.87127  1
 Se  Se2  1  0.46387  0.46387  0.46387  1
 Se  Se3  1  0.29158  0.29158  0.29158  1
 Se  Se4  1  0.04357  0.04357  0.04357  1
