CIF file written using JARVIS-Tools package.
data_Tl2SO4
_symmetry_space_group_name_H-M  'Pnma'
_cell_length_a       5.91078
_cell_length_b       7.81792
_cell_length_c       10.616
_cell_angle_alpha    90
_cell_angle_beta     90
_cell_angle_gamma    90

_symmetry_Int_Tables_number  62
_chemical_formula_structural  Tl2SO4
_chemical_formula_sum  Tl8S4O6
_cell_volume  490.56695928069
_cell_formula_units_Z  4
loop_
  _symmetry_equiv_pos_site_id
 _symmetry_equiv_pos_as_xyz
 1  'x, y, z'
loop_
 _atom_site_type_symbol
 _atom_site_label
 _atom_site_symmetry_multiplicity
 _atom_site_fract_x
 _atom_site_fract_y
 _atom_site_fract_z
 _atom_site_fract_occupancy
 O  O1  1  0.75000  0.96302  0.41729  1
 O  O2  1  0.95646  0.20528  0.14265  1
 O  O3  1  0.75000  0.46302  0.08271  1
 O  O4  1  0.54354  0.70528  0.35735  1
 O  O5  1  0.04354  0.29472  0.64265  1
 O  O6  1  0.04354  0.79472  0.85735  1
 O  O7  1  0.54354  0.20528  0.14265  1
 O  O8  1  0.45646  0.79472  0.85735  1
 O  O9  1  0.95646  0.70528  0.35735  1
 O  O10  1  0.25000  0.78849  0.05503  1
 O  O11  1  0.75000  0.21151  0.94497  1
 O  O12  1  0.25000  0.28849  0.44497  1
 O  O13  1  0.75000  0.71151  0.55503  1
 O  O14  1  0.25000  0.53698  0.91729  1
 O  O15  1  0.25000  0.03698  0.58271  1
 O  O16  1  0.45646  0.29472  0.64265  1
 S  S1  1  0.25000  0.72678  0.92123  1
 S  S2  1  0.75000  0.27322  0.07877  1
 S  S3  1  0.25000  0.22678  0.57877  1
 S  S4  1  0.75000  0.77322  0.42123  1
 Tl  Tl1  1  0.75000  0.33012  0.41190  1
 Tl  Tl2  1  0.25000  0.66988  0.58810  1
 Tl  Tl3  1  0.75000  0.83012  0.08810  1
 Tl  Tl4  1  0.25000  0.16988  0.91190  1
 Tl  Tl5  1  0.75000  0.00945  0.70168  1
 Tl  Tl6  1  0.25000  0.99055  0.29832  1
 Tl  Tl7  1  0.75000  0.50945  0.79832  1
 Tl  Tl8  1  0.25000  0.49055  0.20168  1
