CIF file written using JARVIS-Tools package.
data_Dy2Fe2Si2C
_symmetry_space_group_name_H-M  'C2/m'
_cell_length_a       3.92178
_cell_length_b       5.64472
_cell_length_c       5.65533
_cell_angle_alpha    73.3084
_cell_angle_beta     69.7123
_cell_angle_gamma    69.6725

_symmetry_Int_Tables_number  12
_chemical_formula_structural  Dy2Fe2Si2C
_chemical_formula_sum  Dy2Fe2Si2C
_cell_volume  108.11694852728915
_cell_formula_units_Z  1
loop_
  _symmetry_equiv_pos_site_id
 _symmetry_equiv_pos_as_xyz
 1  'x, y, z'
loop_
 _atom_site_type_symbol
 _atom_site_label
 _atom_site_symmetry_multiplicity
 _atom_site_fract_x
 _atom_site_fract_y
 _atom_site_fract_z
 _atom_site_fract_occupancy
 C  C1  1  0.50000  0.50000  0.50000  1
 Dy  Dy1  1  0.05941  0.67470  0.20648  1
 Dy  Dy2  1  0.94059  0.32530  0.79352  1
 Fe  Fe1  1  0.29951  0.80623  0.59475  1
 Fe  Fe2  1  0.70049  0.19377  0.40525  1
 Si  Si1  1  0.66296  0.89089  0.78318  1
 Si  Si2  1  0.33704  0.10911  0.21682  1
