CIF file written using JARVIS-Tools package.
data_MgV2N2
_symmetry_space_group_name_H-M  'I-4m2'
_cell_length_a       3.00936
_cell_length_b       3.00933
_cell_length_c       7.29026
_cell_angle_alpha    101.805
_cell_angle_beta     101.805
_cell_angle_gamma    90.0698

_symmetry_Int_Tables_number  119
_chemical_formula_structural  MgV2N2
_chemical_formula_sum  MgV2N2
_cell_volume  63.194751313313155
_cell_formula_units_Z  1
loop_
  _symmetry_equiv_pos_site_id
 _symmetry_equiv_pos_as_xyz
 1  'x, y, z'
loop_
 _atom_site_type_symbol
 _atom_site_label
 _atom_site_symmetry_multiplicity
 _atom_site_fract_x
 _atom_site_fract_y
 _atom_site_fract_z
 _atom_site_fract_occupancy
 Mg  Mg1  1  0.00025  -0.00021  0.75000  1
 N  N1  1  0.90129  0.40160  0.55211  1
 N  N2  1  0.59842  0.09871  0.94789  1
 V  V1  1  0.67477  0.67474  0.10150  1
 V  V2  1  0.32527  0.32516  0.39850  1
