CIF file written using JARVIS-Tools package.
data_CrHO2
_symmetry_space_group_name_H-M  'R3m'
_cell_length_a       4.83017
_cell_length_b       4.83017
_cell_length_c       4.83017
_cell_angle_alpha    36.3434
_cell_angle_beta     36.3434
_cell_angle_gamma    36.3434

_symmetry_Int_Tables_number  160
_chemical_formula_structural  CrHO2
_chemical_formula_sum  CrHO2
_cell_volume  35.42017193064342
_cell_formula_units_Z  1
loop_
  _symmetry_equiv_pos_site_id
 _symmetry_equiv_pos_as_xyz
 1  'x, y, z'
loop_
 _atom_site_type_symbol
 _atom_site_label
 _atom_site_symmetry_multiplicity
 _atom_site_fract_x
 _atom_site_fract_y
 _atom_site_fract_z
 _atom_site_fract_occupancy
 Cr  Cr1  1  0.00233  0.00233  0.00233  1
 H  H1  1  0.51390  0.51390  0.51390  1
 O  O1  1  0.40536  0.40536  0.40536  1
 O  O2  1  0.59181  0.59181  0.59181  1
