CIF file written using JARVIS-Tools package.
data_MoN2
_symmetry_space_group_name_H-M  'C2/m'
_cell_length_a       3.77324
_cell_length_b       5.57688
_cell_length_c       5.76153
_cell_angle_alpha    41.9794
_cell_angle_beta     70.8858
_cell_angle_gamma    70.2271

_symmetry_Int_Tables_number  12
_chemical_formula_structural  MoN2
_chemical_formula_sum  Mo2N4
_cell_volume  75.75347974787822
_cell_formula_units_Z  2
loop_
  _symmetry_equiv_pos_site_id
 _symmetry_equiv_pos_as_xyz
 1  'x, y, z'
loop_
 _atom_site_type_symbol
 _atom_site_label
 _atom_site_symmetry_multiplicity
 _atom_site_fract_x
 _atom_site_fract_y
 _atom_site_fract_z
 _atom_site_fract_occupancy
 Mo  Mo1  1  0.38037  0.93337  0.30588  1
 Mo  Mo2  1  0.61963  0.06663  0.69412  1
 N  N1  1  0.17176  0.05548  0.60100  1
 N  N2  1  0.82824  0.94452  0.39900  1
 N  N3  1  0.41661  0.33661  0.83016  1
 N  N4  1  0.58339  0.66339  0.16984  1
