CIF file written using JARVIS-Tools package.
data_Sr2Sb2O7
_symmetry_space_group_name_H-M  'Imma'
_cell_length_a       7.56019
_cell_length_b       7.54352
_cell_length_c       7.54352
_cell_angle_alpha    61.9781
_cell_angle_beta     59.9269
_cell_angle_gamma    59.9269

_symmetry_Int_Tables_number  74
_chemical_formula_structural  Sr2Sb2O7
_chemical_formula_sum  Sr4Sb4O4
_cell_volume  308.1370388747505
_cell_formula_units_Z  2
loop_
  _symmetry_equiv_pos_site_id
 _symmetry_equiv_pos_as_xyz
 1  'x, y, z'
loop_
 _atom_site_type_symbol
 _atom_site_label
 _atom_site_symmetry_multiplicity
 _atom_site_fract_x
 _atom_site_fract_y
 _atom_site_fract_z
 _atom_site_fract_occupancy
 O  O1  1  0.90817  0.37249  0.81117  1
 O  O2  1  0.08600  0.68624  0.55145  1
 O  O3  1  0.17631  0.05145  0.18624  1
 O  O4  1  0.41400  0.94855  0.81376  1
 O  O5  1  0.67631  0.68624  0.55145  1
 O  O6  1  0.91400  0.31376  0.44855  1
 O  O7  1  0.82369  0.94855  0.81376  1
 O  O8  1  0.58600  0.05145  0.18624  1
 O  O9  1  0.25000  0.90096  0.59904  1
 O  O10  1  0.32369  0.31376  0.44855  1
 O  O11  1  0.09183  0.62751  0.18883  1
 O  O12  1  0.40817  0.31117  0.87249  1
 O  O13  1  0.59183  0.68883  0.12751  1
 O  O14  1  0.75000  0.09904  0.40096  1
 Sb  Sb1  1  -0.00000  0.50000  0.50000  1
 Sb  Sb2  1  0.50000  0.00000  0.50000  1
 Sb  Sb3  1  0.00000  0.00000  0.50000  1
 Sb  Sb4  1  0.50000  -0.00000  0.00000  1
 Sr  Sr1  1  0.50000  0.50000  0.00000  1
 Sr  Sr2  1  -0.00000  0.50000  0.00000  1
 Sr  Sr3  1  0.00000  0.00000  0.00000  1
 Sr  Sr4  1  0.50000  0.50000  0.50000  1
