CIF file written using JARVIS-Tools package.
data_MnAlF5
_symmetry_space_group_name_H-M  'Immm'
_cell_length_a       3.62063
_cell_length_b       5.26936
_cell_length_c       5.26936
_cell_angle_alpha    73.6241
_cell_angle_beta     69.9064
_cell_angle_gamma    69.9064

_symmetry_Int_Tables_number  71
_chemical_formula_structural  MnAlF5
_chemical_formula_sum  MnAlF5
_cell_volume  87.12047142811124
_cell_formula_units_Z  1
loop_
  _symmetry_equiv_pos_site_id
 _symmetry_equiv_pos_as_xyz
 1  'x, y, z'
loop_
 _atom_site_type_symbol
 _atom_site_label
 _atom_site_symmetry_multiplicity
 _atom_site_fract_x
 _atom_site_fract_y
 _atom_site_fract_z
 _atom_site_fract_occupancy
 Al  Al1  1  0.50000  0.50000  0.50000  1
 F  F1  1  0.50000  0.79129  0.20871  1
 F  F2  1  0.50000  0.20871  0.79129  1
 F  F3  1  0.73636  0.26364  0.26364  1
 F  F4  1  0.26364  0.73636  0.73636  1
 F  F5  1  0.00000  0.50000  0.50000  1
 Mn  Mn1  1  0.00000  0.00000  0.00000  1
