CIF file written using JARVIS-Tools package.
data_AlCrF5
_symmetry_space_group_name_H-M  'Immm'
_cell_length_a       3.63427
_cell_length_b       5.21483
_cell_length_c       5.21484
_cell_angle_alpha    73.5213
_cell_angle_beta     69.6073
_cell_angle_gamma    69.6072

_symmetry_Int_Tables_number  71
_chemical_formula_structural  AlCrF5
_chemical_formula_sum  AlCrF5
_cell_volume  85.33864428190621
_cell_formula_units_Z  1
loop_
  _symmetry_equiv_pos_site_id
 _symmetry_equiv_pos_as_xyz
 1  'x, y, z'
loop_
 _atom_site_type_symbol
 _atom_site_label
 _atom_site_symmetry_multiplicity
 _atom_site_fract_x
 _atom_site_fract_y
 _atom_site_fract_z
 _atom_site_fract_occupancy
 Al  Al1  1  0.50000  0.50000  0.50000  1
 Cr  Cr1  1  0.00000  0.00000  0.00000  1
 F  F1  1  0.50000  0.79353  0.20647  1
 F  F2  1  0.50000  0.20647  0.79353  1
 F  F3  1  0.74014  0.25986  0.25986  1
 F  F4  1  0.25986  0.74014  0.74014  1
 F  F5  1  0.00000  0.50000  0.50000  1
