CIF file written using JARVIS-Tools package.
data_Al2Fe2O7
_symmetry_space_group_name_H-M  'Fd-3m'
_cell_length_a       6.54214
_cell_length_b       6.54238
_cell_length_c       6.54279
_cell_angle_alpha    60.0027
_cell_angle_beta     60.001
_cell_angle_gamma    59.9991

_symmetry_Int_Tables_number  227
_chemical_formula_structural  Al2Fe2O7
_chemical_formula_sum  Al4Fe4O4
_cell_volume  198.0214993992707
_cell_formula_units_Z  2
loop_
  _symmetry_equiv_pos_site_id
 _symmetry_equiv_pos_as_xyz
 1  'x, y, z'
loop_
 _atom_site_type_symbol
 _atom_site_label
 _atom_site_symmetry_multiplicity
 _atom_site_fract_x
 _atom_site_fract_y
 _atom_site_fract_z
 _atom_site_fract_occupancy
 Al  Al1  1  0.50000  0.00000  0.50000  1
 Al  Al2  1  0.00000  0.50000  0.50000  1
 Al  Al3  1  0.50000  0.50000  0.00000  1
 Al  Al4  1  0.50000  0.50000  0.50000  1
 Fe  Fe1  1  0.00000  0.50000  -0.00000  1
 Fe  Fe2  1  0.50000  -0.00000  -0.00000  1
 Fe  Fe3  1  0.00000  -0.00000  0.50000  1
 Fe  Fe4  1  0.00000  -0.00000  -0.00000  1
 O  O1  1  0.62496  0.62501  0.62504  1
 O  O2  1  0.37504  0.37499  0.37496  1
 O  O3  1  0.65665  0.09333  0.65668  1
 O  O4  1  0.09339  0.65662  0.65664  1
 O  O5  1  0.90661  0.34333  0.90672  1
 O  O6  1  0.34330  0.90668  0.90673  1
 O  O7  1  0.65668  0.65670  0.09328  1
 O  O8  1  0.34335  0.90667  0.34332  1
 O  O9  1  0.90661  0.34338  0.34336  1
 O  O10  1  0.90661  0.90667  0.34335  1
 O  O11  1  0.09339  0.09333  0.65665  1
 O  O12  1  0.65670  0.09332  0.09327  1
 O  O13  1  0.34332  0.34331  0.90672  1
 O  O14  1  0.09339  0.65667  0.09328  1
