CIF file written using JARVIS-Tools package.
data_CaFe2O4
_symmetry_space_group_name_H-M  'P4/mmm'
_cell_length_a       3.28995
_cell_length_b       5.2113
_cell_length_c       5.2113
_cell_angle_alpha    90.0035
_cell_angle_beta     90
_cell_angle_gamma    90

_symmetry_Int_Tables_number  123
_chemical_formula_structural  CaFe2O4
_chemical_formula_sum  CaFe2O4
_cell_volume  89.34733316049817
_cell_formula_units_Z  1
loop_
  _symmetry_equiv_pos_site_id
 _symmetry_equiv_pos_as_xyz
 1  'x, y, z'
loop_
 _atom_site_type_symbol
 _atom_site_label
 _atom_site_symmetry_multiplicity
 _atom_site_fract_x
 _atom_site_fract_y
 _atom_site_fract_z
 _atom_site_fract_occupancy
 Ca  Ca1  1  0.50015  0.50000  -0.00000  1
 Fe  Fe1  1  0.00015  0.00000  0.00000  1
 Fe  Fe2  1  0.00015  0.50000  0.50000  1
 O  O1  1  0.99915  0.74188  0.24188  1
 O  O2  1  0.00115  0.25812  0.24188  1
 O  O3  1  0.00115  0.74188  0.75812  1
 O  O4  1  0.99915  0.25812  0.75812  1
