CIF file written using JARVIS-Tools package.
data_SmAl2Cl8
_symmetry_space_group_name_H-M  'P2/c'
_cell_length_a       6.82267
_cell_length_b       6.46825
_cell_length_c       13.0194
_cell_angle_alpha    91.7148
_cell_angle_beta     90
_cell_angle_gamma    90

_symmetry_Int_Tables_number  13
_chemical_formula_structural  SmAl2Cl8
_chemical_formula_sum  Sm2Al4Cl6
_cell_volume  574.3003193193068
_cell_formula_units_Z  2
loop_
  _symmetry_equiv_pos_site_id
 _symmetry_equiv_pos_as_xyz
 1  'x, y, z'
loop_
 _atom_site_type_symbol
 _atom_site_label
 _atom_site_symmetry_multiplicity
 _atom_site_fract_x
 _atom_site_fract_y
 _atom_site_fract_z
 _atom_site_fract_occupancy
 Al  Al1  1  0.25777  0.66759  0.91240  1
 Al  Al2  1  0.74223  0.33241  0.08760  1
 Al  Al3  1  0.25777  0.33241  0.58760  1
 Al  Al4  1  0.74223  0.66759  0.41240  1
 Cl  Cl1  1  0.49262  0.76723  0.32173  1
 Cl  Cl2  1  0.33912  0.71327  0.07240  1
 Cl  Cl3  1  0.15606  0.35663  0.87272  1
 Cl  Cl4  1  -0.00010  0.84316  0.87103  1
 Cl  Cl5  1  0.84394  0.35663  0.37272  1
 Cl  Cl6  1  0.00010  0.84316  0.37103  1
 Cl  Cl7  1  0.49262  0.23277  0.17827  1
 Cl  Cl8  1  0.50738  0.23277  0.67827  1
 Cl  Cl9  1  -0.00010  0.15684  0.62897  1
 Cl  Cl10  1  0.50738  0.76723  0.82173  1
 Cl  Cl11  1  0.66088  0.71327  0.57240  1
 Cl  Cl12  1  0.15606  0.64337  0.62728  1
 Cl  Cl13  1  0.84394  0.64337  0.12728  1
 Cl  Cl14  1  0.66088  0.28673  0.92760  1
 Cl  Cl15  1  0.00010  0.15684  0.12897  1
 Cl  Cl16  1  0.33912  0.28673  0.42760  1
 Sm  Sm1  1  0.17578  0.50000  0.25000  1
 Sm  Sm2  1  0.82422  0.50000  0.75000  1
