CIF file written using JARVIS-Tools package.
data_PbI2
_symmetry_space_group_name_H-M  'R-3m'
_cell_length_a       14.3723
_cell_length_b       14.3723
_cell_length_c       14.3723
_cell_angle_alpha    18.357
_cell_angle_beta     18.357
_cell_angle_gamma    18.357

_symmetry_Int_Tables_number  166
_chemical_formula_structural  PbI2
_chemical_formula_sum  Pb2I4
_cell_volume  257.1927347647124
_cell_formula_units_Z  2
loop_
  _symmetry_equiv_pos_site_id
 _symmetry_equiv_pos_as_xyz
 1  'x, y, z'
loop_
 _atom_site_type_symbol
 _atom_site_label
 _atom_site_symmetry_multiplicity
 _atom_site_fract_x
 _atom_site_fract_y
 _atom_site_fract_z
 _atom_site_fract_occupancy
 I  I1  1  0.87161  0.87161  0.87161  1
 I  I2  1  0.12839  0.12839  0.12839  1
 I  I3  1  0.70557  0.70557  0.70557  1
 I  I4  1  0.29443  0.29443  0.29443  1
 Pb  Pb1  1  0.41698  0.41698  0.41698  1
 Pb  Pb2  1  0.58302  0.58302  0.58302  1
