CIF file written using JARVIS-Tools package.
data_Li5VSi2O8
_symmetry_space_group_name_H-M  'C2'
_cell_length_a       5.21722
_cell_length_b       5.21722
_cell_length_c       6.24332
_cell_angle_alpha    90.4524
_cell_angle_beta     89.5476
_cell_angle_gamma    88.7981

_symmetry_Int_Tables_number  5
_chemical_formula_structural  Li5VSi2O8
_chemical_formula_sum  Li5VSi2O8
_cell_volume  169.89134398391317
_cell_formula_units_Z  1
loop_
  _symmetry_equiv_pos_site_id
 _symmetry_equiv_pos_as_xyz
 1  'x, y, z'
loop_
 _atom_site_type_symbol
 _atom_site_label
 _atom_site_symmetry_multiplicity
 _atom_site_fract_x
 _atom_site_fract_y
 _atom_site_fract_z
 _atom_site_fract_occupancy
 Li  Li1  1  0.17048  0.79884  0.48771  1
 Li  Li2  1  0.69672  0.69672  0.75000  1
 Li  Li3  1  0.32964  0.32964  0.25000  1
 Li  Li4  1  0.68030  0.68030  0.25000  1
 Li  Li5  1  0.79884  0.17048  0.01229  1
 O  O1  1  0.30393  0.69663  0.21639  1
 O  O2  1  0.30331  0.69200  0.78162  1
 O  O3  1  0.13877  0.22049  0.50623  1
 O  O4  1  0.79988  0.85923  0.50015  1
 O  O5  1  0.22049  0.13877  0.99377  1
 O  O6  1  0.85923  0.79988  -0.00015  1
 O  O7  1  0.69200  0.30331  0.71838  1
 O  O8  1  0.69663  0.30393  0.28361  1
 Si  Si1  1  0.16883  0.81829  0.00728  1
 Si  Si2  1  0.81829  0.16883  0.49272  1
 V  V1  1  0.32266  0.32266  0.75000  1
