CIF file written using JARVIS-Tools package.
data_LiInSe2
_symmetry_space_group_name_H-M  'I4_1/amd'
_cell_length_a       5.64572
_cell_length_b       5.64572
_cell_length_c       6.86114
_cell_angle_alpha    114.294
_cell_angle_beta     114.294
_cell_angle_gamma    89.9991

_symmetry_Int_Tables_number  141
_chemical_formula_structural  LiInSe2
_chemical_formula_sum  Li2In2Se4
_cell_volume  177.8639462196525
_cell_formula_units_Z  2
loop_
  _symmetry_equiv_pos_site_id
 _symmetry_equiv_pos_as_xyz
 1  'x, y, z'
loop_
 _atom_site_type_symbol
 _atom_site_label
 _atom_site_symmetry_multiplicity
 _atom_site_fract_x
 _atom_site_fract_y
 _atom_site_fract_z
 _atom_site_fract_occupancy
 In  In1  1  0.37493  0.62504  0.75000  1
 In  In2  1  0.62507  0.37496  0.25000  1
 Li  Li1  1  0.87503  0.12498  0.75000  1
 Li  Li2  1  0.12497  0.87502  0.25000  1
 Se  Se1  1  0.38402  0.13395  0.76789  1
 Se  Se2  1  0.61598  0.86605  0.23211  1
 Se  Se3  1  0.86606  0.61602  0.73211  1
 Se  Se4  1  0.13394  0.38398  0.26789  1
