CIF file written using JARVIS-Tools package.
data_RbCuC2
_symmetry_space_group_name_H-M  'P4/mmm'
_cell_length_a       4.46601
_cell_length_b       4.46601
_cell_length_c       4.94637
_cell_angle_alpha    90
_cell_angle_beta     90
_cell_angle_gamma    90

_symmetry_Int_Tables_number  123
_chemical_formula_structural  RbCuC2
_chemical_formula_sum  RbCuC2
_cell_volume  98.6565488646731
_cell_formula_units_Z  1
loop_
  _symmetry_equiv_pos_site_id
 _symmetry_equiv_pos_as_xyz
 1  'x, y, z'
loop_
 _atom_site_type_symbol
 _atom_site_label
 _atom_site_symmetry_multiplicity
 _atom_site_fract_x
 _atom_site_fract_y
 _atom_site_fract_z
 _atom_site_fract_occupancy
 C  C1  1  0.00000  0.00000  0.62628  1
 C  C2  1  0.00000  0.00000  0.37372  1
 Cu  Cu1  1  0.00000  0.00000  0.00000  1
 Rb  Rb1  1  0.50000  0.50000  0.50000  1
