CIF file written using JARVIS-Tools package.
data_TlPd2Se3
_symmetry_space_group_name_H-M  'P-3m1'
_cell_length_a       7.48668
_cell_length_b       7.48668
_cell_length_c       5.7837
_cell_angle_alpha    90
_cell_angle_beta     90
_cell_angle_gamma    120

_symmetry_Int_Tables_number  164
_chemical_formula_structural  TlPd2Se3
_chemical_formula_sum  Tl2Pd4Se6
_cell_volume  280.7473390745358
_cell_formula_units_Z  2
loop_
  _symmetry_equiv_pos_site_id
 _symmetry_equiv_pos_as_xyz
 1  'x, y, z'
loop_
 _atom_site_type_symbol
 _atom_site_label
 _atom_site_symmetry_multiplicity
 _atom_site_fract_x
 _atom_site_fract_y
 _atom_site_fract_z
 _atom_site_fract_occupancy
 Pd  Pd1  1  0.00000  0.00000  0.00000  1
 Pd  Pd2  1  0.50000  -0.00000  0.00000  1
 Pd  Pd3  1  0.00000  0.50000  0.00000  1
 Pd  Pd4  1  0.50000  0.50000  0.00000  1
 Se  Se1  1  0.83093  0.16907  0.77672  1
 Se  Se2  1  0.33814  0.16907  0.77672  1
 Se  Se3  1  0.83093  0.66186  0.77672  1
 Se  Se4  1  0.16907  0.33814  0.22328  1
 Se  Se5  1  0.16907  0.83093  0.22328  1
 Se  Se6  1  0.66186  0.83093  0.22328  1
 Tl  Tl1  1  0.66667  0.33333  0.35504  1
 Tl  Tl2  1  0.33333  0.66667  0.64496  1
