CIF file written using JARVIS-Tools package.
data_CrN2
_symmetry_space_group_name_H-M  'C2/m'
_cell_length_a       3.7218
_cell_length_b       5.1701
_cell_length_c       5.06191
_cell_angle_alpha    43.9266
_cell_angle_beta     68.4306
_cell_angle_gamma    68.9038

_symmetry_Int_Tables_number  12
_chemical_formula_structural  CrN2
_chemical_formula_sum  Cr2N4
_cell_volume  62.15182086108761
_cell_formula_units_Z  2
loop_
  _symmetry_equiv_pos_site_id
 _symmetry_equiv_pos_as_xyz
 1  'x, y, z'
loop_
 _atom_site_type_symbol
 _atom_site_label
 _atom_site_symmetry_multiplicity
 _atom_site_fract_x
 _atom_site_fract_y
 _atom_site_fract_z
 _atom_site_fract_occupancy
 Cr  Cr1  1  0.35375  0.96564  0.32686  1
 Cr  Cr2  1  0.64625  0.03436  0.67314  1
 N  N1  1  0.14384  0.13135  0.58098  1
 N  N2  1  0.85616  0.86865  0.41902  1
 N  N3  1  0.39686  0.34282  0.86347  1
 N  N4  1  0.60314  0.65718  0.13653  1
