CIF file written using JARVIS-Tools package.
data_Fe2O3
_symmetry_space_group_name_H-M  'R-3c'
_cell_length_a       4.75528
_cell_length_b       5.20558
_cell_length_c       4.75528
_cell_angle_alpha    62.8225
_cell_angle_beta     120
_cell_angle_gamma    117.177

_symmetry_Int_Tables_number  167
_chemical_formula_structural  Fe2O3
_chemical_formula_sum  Fe4O6
_cell_volume  86.6109847037191
_cell_formula_units_Z  2
loop_
  _symmetry_equiv_pos_site_id
 _symmetry_equiv_pos_as_xyz
 1  'x, y, z'
loop_
 _atom_site_type_symbol
 _atom_site_label
 _atom_site_symmetry_multiplicity
 _atom_site_fract_x
 _atom_site_fract_y
 _atom_site_fract_z
 _atom_site_fract_occupancy
 Fe  Fe1  1  0.34624  0.03873  0.65376  1
 Fe  Fe2  1  0.15376  0.46127  0.84624  1
 Fe  Fe3  1  0.65376  0.96128  0.34624  1
 Fe  Fe4  1  0.84624  0.53872  0.15376  1
 O  O1  1  0.56544  0.75000  0.06544  1
 O  O2  1  0.25000  0.75000  0.43456  1
 O  O3  1  0.06544  0.25000  0.25000  1
 O  O4  1  0.75000  0.25000  0.56544  1
 O  O5  1  0.43456  0.25000  0.93456  1
 O  O6  1  0.93456  0.75000  0.75000  1
