CIF file written using JARVIS-Tools package.
data_VO2F
_symmetry_space_group_name_H-M  'Pnma'
_cell_length_a       3.58192
_cell_length_b       4.29558
_cell_length_c       12.8524
_cell_angle_alpha    90
_cell_angle_beta     90
_cell_angle_gamma    90

_symmetry_Int_Tables_number  62
_chemical_formula_structural  VO2F
_chemical_formula_sum  V4O8F4
_cell_volume  197.75350920644001
_cell_formula_units_Z  4
loop_
  _symmetry_equiv_pos_site_id
 _symmetry_equiv_pos_as_xyz
 1  'x, y, z'
loop_
 _atom_site_type_symbol
 _atom_site_label
 _atom_site_symmetry_multiplicity
 _atom_site_fract_x
 _atom_site_fract_y
 _atom_site_fract_z
 _atom_site_fract_occupancy
 F  F1  1  0.25000  0.00431  0.22378  1
 F  F2  1  0.75000  0.50431  0.27622  1
 F  F3  1  0.25000  0.49569  0.72378  1
 F  F4  1  0.75000  -0.00431  0.77622  1
 O  O1  1  0.75000  0.00326  0.06146  1
 O  O2  1  0.25000  0.48350  0.09240  1
 O  O3  1  0.75000  0.98350  0.40760  1
 O  O4  1  0.25000  0.50326  0.43854  1
 O  O5  1  0.75000  0.49674  0.56146  1
 O  O6  1  0.25000  0.01650  0.59240  1
 O  O7  1  0.75000  0.51650  0.90760  1
 O  O8  1  0.25000  -0.00326  0.93854  1
 V  V1  1  0.25000  0.10997  0.09188  1
 V  V2  1  0.75000  0.60997  0.40812  1
 V  V3  1  0.25000  0.39003  0.59188  1
 V  V4  1  0.75000  0.89003  0.90812  1
