CIF file written using JARVIS-Tools package.
data_Ca4Sb2S
_symmetry_space_group_name_H-M  'I-42d'
_cell_length_a       7.98182
_cell_length_b       7.98182
_cell_length_c       7.98181
_cell_angle_alpha    110.402
_cell_angle_beta     110.402
_cell_angle_gamma    107.625

_symmetry_Int_Tables_number  122
_chemical_formula_structural  Ca4Sb2S
_chemical_formula_sum  Ca8Sb4S2
_cell_volume  391.15227958653026
_cell_formula_units_Z  2
loop_
  _symmetry_equiv_pos_site_id
 _symmetry_equiv_pos_as_xyz
 1  'x, y, z'
loop_
 _atom_site_type_symbol
 _atom_site_label
 _atom_site_symmetry_multiplicity
 _atom_site_fract_x
 _atom_site_fract_y
 _atom_site_fract_z
 _atom_site_fract_occupancy
 Ca  Ca1  1  -0.00035  0.86941  0.51145  1
 Ca  Ca2  1  0.51180  0.00035  0.36976  1
 Ca  Ca3  1  0.13059  0.14204  0.13024  1
 Ca  Ca4  1  0.36941  0.49965  0.01145  1
 Ca  Ca5  1  0.64204  0.63059  0.63024  1
 Ca  Ca6  1  0.50035  0.01180  0.86976  1
 Ca  Ca7  1  0.85796  0.48820  0.98855  1
 Ca  Ca8  1  0.98820  0.35796  0.48855  1
 S  S1  1  0.62500  0.37500  0.25000  1
 S  S2  1  0.87500  0.12500  0.75000  1
 Sb  Sb1  1  0.12345  0.75000  0.87345  1
 Sb  Sb2  1  0.25000  0.62345  0.37345  1
 Sb  Sb3  1  0.37655  0.25000  0.62655  1
 Sb  Sb4  1  0.75000  0.87655  0.12655  1
