CIF file written using JARVIS-Tools package.
data_Yb5Pb3
_symmetry_space_group_name_H-M  'P6_3/mcm'
_cell_length_a       9.3095
_cell_length_b       9.30951
_cell_length_c       6.71739
_cell_angle_alpha    90
_cell_angle_beta     90
_cell_angle_gamma    120

_symmetry_Int_Tables_number  193
_chemical_formula_structural  Yb5Pb3
_chemical_formula_sum  Yb0Pb6
_cell_volume  504.17825637168124
_cell_formula_units_Z  2
loop_
  _symmetry_equiv_pos_site_id
 _symmetry_equiv_pos_as_xyz
 1  'x, y, z'
loop_
 _atom_site_type_symbol
 _atom_site_label
 _atom_site_symmetry_multiplicity
 _atom_site_fract_x
 _atom_site_fract_y
 _atom_site_fract_z
 _atom_site_fract_occupancy
 Pb  Pb1  1  0.38316  0.38316  0.25000  1
 Pb  Pb2  1  -0.00000  0.38316  0.75000  1
 Pb  Pb3  1  0.61684  0.61684  0.75000  1
 Pb  Pb4  1  0.00000  0.61684  0.25000  1
 Pb  Pb5  1  0.61684  0.00000  0.25000  1
 Pb  Pb6  1  0.38316  0.00000  0.75000  1
 Yb  Yb1  1  0.00000  0.72743  0.75000  1
 Yb  Yb2  1  0.72743  0.72743  0.25000  1
 Yb  Yb3  1  0.27257  0.27257  0.75000  1
 Yb  Yb4  1  0.72743  0.00000  0.75000  1
 Yb  Yb5  1  0.33333  0.66667  0.50000  1
 Yb  Yb6  1  0.27257  0.00000  0.25000  1
 Yb  Yb7  1  -0.00000  0.27257  0.25000  1
 Yb  Yb8  1  0.66667  0.33333  0.50000  1
 Yb  Yb9  1  0.33333  0.66667  0.00000  1
 Yb  Yb10  1  0.66667  0.33333  0.00000  1
