CIF file written using JARVIS-Tools package.
data_NaZnF3
_symmetry_space_group_name_H-M  'Pnma'
_cell_length_a       5.41985
_cell_length_b       5.64783
_cell_length_c       7.80871
_cell_angle_alpha    90
_cell_angle_beta     90
_cell_angle_gamma    90

_symmetry_Int_Tables_number  62
_chemical_formula_structural  NaZnF3
_chemical_formula_sum  Na4Zn4F2
_cell_volume  239.02768403604392
_cell_formula_units_Z  4
loop_
  _symmetry_equiv_pos_site_id
 _symmetry_equiv_pos_as_xyz
 1  'x, y, z'
loop_
 _atom_site_type_symbol
 _atom_site_label
 _atom_site_symmetry_multiplicity
 _atom_site_fract_x
 _atom_site_fract_y
 _atom_site_fract_z
 _atom_site_fract_occupancy
 F  F1  1  0.11230  0.45789  0.25000  1
 F  F2  1  0.69338  0.30170  0.44149  1
 F  F3  1  0.38770  0.95789  0.25000  1
 F  F4  1  0.80662  0.80170  0.05851  1
 F  F5  1  0.30662  0.69830  0.94149  1
 F  F6  1  0.19338  0.19830  0.55851  1
 F  F7  1  0.80662  0.80170  0.44149  1
 F  F8  1  0.19338  0.19830  0.94149  1
 F  F9  1  0.69338  0.30170  0.05851  1
 F  F10  1  0.88770  0.54211  0.75000  1
 F  F11  1  0.61230  0.04211  0.75000  1
 F  F12  1  0.30662  0.69830  0.55851  1
 Na  Na1  1  0.98226  0.06170  0.25000  1
 Na  Na2  1  0.48226  0.43830  0.75000  1
 Na  Na3  1  0.51774  0.56170  0.25000  1
 Na  Na4  1  0.01774  0.93830  0.75000  1
 Zn  Zn1  1  0.50000  0.00000  0.00000  1
 Zn  Zn2  1  0.00000  0.50000  0.00000  1
 Zn  Zn3  1  0.00000  0.50000  0.50000  1
 Zn  Zn4  1  0.50000  0.00000  0.50000  1
