CIF file written using JARVIS-Tools package.
data_LiBiB2O6
_symmetry_space_group_name_H-M  'P2_1/c'
_cell_length_a       4.59026
_cell_length_b       5.88994
_cell_length_c       9.07658
_cell_angle_alpha    90
_cell_angle_beta     117.628
_cell_angle_gamma    90

_symmetry_Int_Tables_number  14
_chemical_formula_structural  LiBiB2O6
_chemical_formula_sum  Li2Bi2B4O2
_cell_volume  217.41624981927512
_cell_formula_units_Z  2
loop_
  _symmetry_equiv_pos_site_id
 _symmetry_equiv_pos_as_xyz
 1  'x, y, z'
loop_
 _atom_site_type_symbol
 _atom_site_label
 _atom_site_symmetry_multiplicity
 _atom_site_fract_x
 _atom_site_fract_y
 _atom_site_fract_z
 _atom_site_fract_occupancy
 B  B1  1  0.73369  0.13607  0.74123  1
 B  B2  1  0.26631  0.63607  0.75877  1
 B  B3  1  0.73369  0.36393  0.24123  1
 B  B4  1  0.26631  0.86393  0.25877  1
 Bi  Bi1  1  0.00000  0.50000  0.00000  1
 Bi  Bi2  1  -0.00000  0.00000  0.50000  1
 Li  Li1  1  0.50000  0.50000  0.50000  1
 Li  Li2  1  0.50000  0.00000  -0.00000  1
 O  O1  1  0.00978  0.45235  0.23908  1
 O  O2  1  0.25192  0.81539  0.10580  1
 O  O3  1  0.45535  0.18695  0.59447  1
 O  O4  1  0.54465  0.68695  0.90553  1
 O  O5  1  0.74808  0.18461  0.89420  1
 O  O6  1  0.45535  0.31305  0.09447  1
 O  O7  1  0.00978  0.04765  0.73908  1
 O  O8  1  0.74808  0.31539  0.39420  1
 O  O9  1  0.25192  0.68461  0.60580  1
 O  O10  1  0.54465  0.81305  0.40553  1
 O  O11  1  0.99022  0.95235  0.26092  1
 O  O12  1  0.99022  0.54765  0.76092  1
