CIF file written using JARVIS-Tools package.
data_VFe2Sn
_symmetry_space_group_name_H-M  'Fm-3m'
_cell_length_a       4.22475
_cell_length_b       4.2254
_cell_length_c       4.22465
_cell_angle_alpha    59.9948
_cell_angle_beta     59.9985
_cell_angle_gamma    59.9962

_symmetry_Int_Tables_number  225
_chemical_formula_structural  VFe2Sn
_chemical_formula_sum  VFe2Sn
_cell_volume  53.32256865000834
_cell_formula_units_Z  1
loop_
  _symmetry_equiv_pos_site_id
 _symmetry_equiv_pos_as_xyz
 1  'x, y, z'
loop_
 _atom_site_type_symbol
 _atom_site_label
 _atom_site_symmetry_multiplicity
 _atom_site_fract_x
 _atom_site_fract_y
 _atom_site_fract_z
 _atom_site_fract_occupancy
 Fe  Fe1  1  0.24997  0.25003  0.24997  1
 Fe  Fe2  1  0.75003  0.74997  0.75003  1
 Sn  Sn1  1  -0.00000  -0.00000  0.00000  1
 V  V1  1  0.50000  0.50000  0.50000  1
