CIF file written using JARVIS-Tools package.
data_Te4Mo3WSe4
_symmetry_space_group_name_H-M  'Cm'
_cell_length_a       3.44728
_cell_length_b       3.44731
_cell_length_c       27.4562
_cell_angle_alpha    90.0019
_cell_angle_beta     90
_cell_angle_gamma    120

_symmetry_Int_Tables_number  8
_chemical_formula_structural  Te4Mo3WSe4
_chemical_formula_sum  Te4Mo3WSe4
_cell_volume  282.5720073909066
_cell_formula_units_Z  1
loop_
  _symmetry_equiv_pos_site_id
 _symmetry_equiv_pos_as_xyz
 1  'x, y, z'
loop_
 _atom_site_type_symbol
 _atom_site_label
 _atom_site_symmetry_multiplicity
 _atom_site_fract_x
 _atom_site_fract_y
 _atom_site_fract_z
 _atom_site_fract_occupancy
 Mo  Mo1  1  0.33200  0.66400  0.00785  1
 Mo  Mo2  1  0.33486  0.66972  0.49333  1
 Mo  Mo3  1  0.66579  0.33159  0.24360  1
 Se  Se1  1  0.33254  0.66508  0.30316  1
 Se  Se2  1  0.66541  0.33082  0.94829  1
 Se  Se3  1  0.66528  0.33055  0.06737  1
 Se  Se4  1  0.33237  0.66474  0.18407  1
 Te  Te1  1  0.33400  0.66801  0.82615  1
 Te  Te2  1  0.66815  0.33630  0.42565  1
 Te  Te3  1  0.66826  0.33651  0.56101  1
 Te  Te4  1  0.33400  0.66801  0.69011  1
 W  W1  1  0.66734  0.33467  0.75814  1
