CIF file written using JARVIS-Tools package.
data_LiCuS
_symmetry_space_group_name_H-M  'I4/m'
_cell_length_a       4.70382
_cell_length_b       7.57203
_cell_length_c       7.57203
_cell_angle_alpha    95.5362
_cell_angle_beta     108.096
_cell_angle_gamma    71.9043

_symmetry_Int_Tables_number  87
_chemical_formula_structural  LiCuS
_chemical_formula_sum  Li4Cu4S4
_cell_volume  243.67760233962343
_cell_formula_units_Z  4
loop_
  _symmetry_equiv_pos_site_id
 _symmetry_equiv_pos_as_xyz
 1  'x, y, z'
loop_
 _atom_site_type_symbol
 _atom_site_label
 _atom_site_symmetry_multiplicity
 _atom_site_fract_x
 _atom_site_fract_y
 _atom_site_fract_z
 _atom_site_fract_occupancy
 Cu  Cu1  1  0.90136  0.19684  0.49956  1
 Cu  Cu2  1  0.59821  0.50044  0.19684  1
 Cu  Cu3  1  0.90179  0.49956  0.80316  1
 Cu  Cu4  1  0.59864  0.80316  0.50044  1
 Li  Li1  1  0.24965  0.15424  0.15353  1
 Li  Li2  1  0.90389  0.84647  0.15424  1
 Li  Li3  1  0.59611  0.15353  0.84576  1
 Li  Li4  1  0.25035  0.84576  0.84647  1
 S  S1  1  0.74956  0.20152  0.20064  1
 S  S2  1  0.45108  0.79936  0.20152  1
 S  S3  1  0.04892  0.20064  0.79848  1
 S  S4  1  0.75044  0.79848  0.79936  1
