CIF file written using JARVIS-Tools package.
data_K2UTe3
_symmetry_space_group_name_H-M  'C2/m'
_cell_length_a       8.02308
_cell_length_b       8.02054
_cell_length_c       8.4879
_cell_angle_alpha    80.8811
_cell_angle_beta     71.5264
_cell_angle_gamma    59.9896

_symmetry_Int_Tables_number  12
_chemical_formula_structural  K2UTe3
_chemical_formula_sum  K4U2Te6
_cell_volume  448.5938863307585
_cell_formula_units_Z  2
loop_
  _symmetry_equiv_pos_site_id
 _symmetry_equiv_pos_as_xyz
 1  'x, y, z'
loop_
 _atom_site_type_symbol
 _atom_site_label
 _atom_site_symmetry_multiplicity
 _atom_site_fract_x
 _atom_site_fract_y
 _atom_site_fract_z
 _atom_site_fract_occupancy
 K  K1  1  0.65426  0.69148  0.50000  1
 K  K2  1  0.34574  0.30852  0.50000  1
 K  K3  1  0.00000  0.00000  0.50000  1
 K  K4  1  0.50000  0.00000  -0.00000  1
 Te  Te1  1  0.20688  0.00000  0.78765  1
 Te  Te2  1  0.57356  0.36582  0.78249  1
 Te  Te3  1  0.93938  0.63418  0.78249  1
 Te  Te4  1  0.42644  0.63418  0.21751  1
 Te  Te5  1  0.06062  0.36582  0.21751  1
 Te  Te6  1  0.79312  0.00000  0.21235  1
 U  U1  1  0.83181  0.33638  -0.00000  1
 U  U2  1  0.16819  0.66362  -0.00000  1
