CIF file written using JARVIS-Tools package.
data_PrSF
_symmetry_space_group_name_H-M  'P4/nmm'
_cell_length_a       3.98502
_cell_length_b       3.98502
_cell_length_c       6.98476
_cell_angle_alpha    90
_cell_angle_beta     90
_cell_angle_gamma    90

_symmetry_Int_Tables_number  129
_chemical_formula_structural  PrSF
_chemical_formula_sum  Pr2S2F2
_cell_volume  110.92074617106395
_cell_formula_units_Z  2
loop_
  _symmetry_equiv_pos_site_id
 _symmetry_equiv_pos_as_xyz
 1  'x, y, z'
loop_
 _atom_site_type_symbol
 _atom_site_label
 _atom_site_symmetry_multiplicity
 _atom_site_fract_x
 _atom_site_fract_y
 _atom_site_fract_z
 _atom_site_fract_occupancy
 F  F1  1  0.50000  0.50000  0.00000  1
 F  F2  1  0.00000  0.00000  0.00000  1
 Pr  Pr1  1  0.00000  0.50000  0.77075  1
 Pr  Pr2  1  0.50000  0.00000  0.22925  1
 S  S1  1  0.50000  0.00000  0.64852  1
 S  S2  1  0.00000  0.50000  0.35148  1
