CIF file written using JARVIS-Tools package.
data_RbSnS2
_symmetry_space_group_name_H-M  'R3m'
_cell_length_a       8.09239
_cell_length_b       8.09239
_cell_length_c       8.09239
_cell_angle_alpha    28.8541
_cell_angle_beta     28.8541
_cell_angle_gamma    28.8542

_symmetry_Int_Tables_number  160
_chemical_formula_structural  RbSnS2
_chemical_formula_sum  RbSnS2
_cell_volume  109.13719757153584
_cell_formula_units_Z  1
loop_
  _symmetry_equiv_pos_site_id
 _symmetry_equiv_pos_as_xyz
 1  'x, y, z'
loop_
 _atom_site_type_symbol
 _atom_site_label
 _atom_site_symmetry_multiplicity
 _atom_site_fract_x
 _atom_site_fract_y
 _atom_site_fract_z
 _atom_site_fract_occupancy
 Rb  Rb1  1  0.82205  0.82205  0.82205  1
 S  S1  1  0.59060  0.59060  0.59060  1
 S  S2  1  0.38781  0.38781  0.38781  1
 Sn  Sn1  1  0.98954  0.98954  0.98954  1
