CIF file written using JARVIS-Tools package.
data_YH3O3
_symmetry_space_group_name_H-M  'P6_3'
_cell_length_a       6.28614
_cell_length_b       6.28614
_cell_length_c       3.5455
_cell_angle_alpha    90
_cell_angle_beta     90
_cell_angle_gamma    120

_symmetry_Int_Tables_number  173
_chemical_formula_structural  YH3O3
_chemical_formula_sum  Y2H6O6
_cell_volume  121.33215644663395
_cell_formula_units_Z  2
loop_
  _symmetry_equiv_pos_site_id
 _symmetry_equiv_pos_as_xyz
 1  'x, y, z'
loop_
 _atom_site_type_symbol
 _atom_site_label
 _atom_site_symmetry_multiplicity
 _atom_site_fract_x
 _atom_site_fract_y
 _atom_site_fract_z
 _atom_site_fract_occupancy
 H  H1  1  0.13439  0.27440  0.32873  1
 H  H2  1  0.14002  0.86561  0.32873  1
 H  H3  1  0.72560  0.85998  0.32873  1
 H  H4  1  0.86561  0.72560  0.82873  1
 H  H5  1  0.85998  0.13439  0.82873  1
 H  H6  1  0.27440  0.14002  0.82873  1
 O  O1  1  0.30986  0.39414  0.32563  1
 O  O2  1  0.08428  0.69014  0.32563  1
 O  O3  1  0.60586  0.91572  0.32563  1
 O  O4  1  0.69014  0.60586  0.82563  1
 O  O5  1  0.91572  0.30986  0.82563  1
 O  O6  1  0.39414  0.08428  0.82563  1
 Y  Y1  1  0.66667  0.33333  0.32628  1
 Y  Y2  1  0.33333  0.66667  0.82628  1
