CIF file written using JARVIS-Tools package.
data_Li5Sn2
_symmetry_space_group_name_H-M  'R-3m'
_cell_length_a       7.10795
_cell_length_b       7.10795
_cell_length_c       7.10795
_cell_angle_alpha    38.5257
_cell_angle_beta     38.5257
_cell_angle_gamma    38.5258

_symmetry_Int_Tables_number  166
_chemical_formula_structural  Li5Sn2
_chemical_formula_sum  Li5Sn2
_cell_volume  125.18435241816154
_cell_formula_units_Z  1
loop_
  _symmetry_equiv_pos_site_id
 _symmetry_equiv_pos_as_xyz
 1  'x, y, z'
loop_
 _atom_site_type_symbol
 _atom_site_label
 _atom_site_symmetry_multiplicity
 _atom_site_fract_x
 _atom_site_fract_y
 _atom_site_fract_z
 _atom_site_fract_occupancy
 Li  Li1  1  0.50000  0.50000  0.50000  1
 Li  Li2  1  0.35530  0.35530  0.35530  1
 Li  Li3  1  0.64470  0.64470  0.64470  1
 Li  Li4  1  0.21456  0.21456  0.21456  1
 Li  Li5  1  0.78544  0.78544  0.78544  1
 Sn  Sn1  1  0.07418  0.07418  0.07418  1
 Sn  Sn2  1  0.92582  0.92582  0.92582  1
