CIF file written using JARVIS-Tools package.
data_Na2TiAu
_symmetry_space_group_name_H-M  'Fm-3m'
_cell_length_a       4.84664
_cell_length_b       4.84664
_cell_length_c       4.84664
_cell_angle_alpha    60
_cell_angle_beta     60
_cell_angle_gamma    60

_symmetry_Int_Tables_number  225
_chemical_formula_structural  Na2TiAu
_chemical_formula_sum  Na2TiAu
_cell_volume  80.50210135924816
_cell_formula_units_Z  1
loop_
  _symmetry_equiv_pos_site_id
 _symmetry_equiv_pos_as_xyz
 1  'x, y, z'
loop_
 _atom_site_type_symbol
 _atom_site_label
 _atom_site_symmetry_multiplicity
 _atom_site_fract_x
 _atom_site_fract_y
 _atom_site_fract_z
 _atom_site_fract_occupancy
 Au  Au1  1  0.00000  0.00000  0.00000  1
 Na  Na1  1  0.75000  0.75000  0.75000  1
 Na  Na2  1  0.25000  0.25000  0.25000  1
 Ti  Ti1  1  0.50000  0.50000  0.50000  1
