CIF file written using JARVIS-Tools package.
data_ThPd
_symmetry_space_group_name_H-M  'Pnma'
_cell_length_a       4.57243
_cell_length_b       5.88974
_cell_length_c       7.34287
_cell_angle_alpha    90
_cell_angle_beta     90
_cell_angle_gamma    90

_symmetry_Int_Tables_number  62
_chemical_formula_structural  ThPd
_chemical_formula_sum  Th4Pd4
_cell_volume  197.746931829783
_cell_formula_units_Z  4
loop_
  _symmetry_equiv_pos_site_id
 _symmetry_equiv_pos_as_xyz
 1  'x, y, z'
loop_
 _atom_site_type_symbol
 _atom_site_label
 _atom_site_symmetry_multiplicity
 _atom_site_fract_x
 _atom_site_fract_y
 _atom_site_fract_z
 _atom_site_fract_occupancy
 Pd  Pd1  1  0.25000  0.64992  0.04702  1
 Pd  Pd2  1  0.75000  0.35008  0.95298  1
 Pd  Pd3  1  0.75000  0.14992  0.45298  1
 Pd  Pd4  1  0.25000  0.85008  0.54702  1
 Th  Th1  1  0.25000  0.14020  0.17930  1
 Th  Th2  1  0.75000  0.85980  0.82070  1
 Th  Th3  1  0.75000  0.64020  0.32070  1
 Th  Th4  1  0.25000  0.35980  0.67930  1
