CIF file written using JARVIS-Tools package.
data_Li2CdCl4
_symmetry_space_group_name_H-M  'Imma'
_cell_length_a       7.49599
_cell_length_b       7.6698
_cell_length_c       7.49598
_cell_angle_alpha    59.2299
_cell_angle_beta     59.3275
_cell_angle_gamma    59.2299

_symmetry_Int_Tables_number  74
_chemical_formula_structural  Li2CdCl4
_chemical_formula_sum  Li4Cd2Cl8
_cell_volume  299.6180318313509
_cell_formula_units_Z  2
loop_
  _symmetry_equiv_pos_site_id
 _symmetry_equiv_pos_as_xyz
 1  'x, y, z'
loop_
 _atom_site_type_symbol
 _atom_site_label
 _atom_site_symmetry_multiplicity
 _atom_site_fract_x
 _atom_site_fract_y
 _atom_site_fract_z
 _atom_site_fract_occupancy
 Cd  Cd1  1  0.50000  0.00000  0.50000  1
 Cd  Cd2  1  0.50000  0.50000  0.50000  1
 Cl  Cl1  1  0.25294  0.26472  0.25294  1
 Cl  Cl2  1  0.24544  0.25423  0.74611  1
 Cl  Cl3  1  0.25294  0.72940  0.25294  1
 Cl  Cl4  1  0.74611  0.25423  0.24544  1
 Cl  Cl5  1  0.25389  0.74577  0.75456  1
 Cl  Cl6  1  0.74706  0.27060  0.74706  1
 Cl  Cl7  1  0.75456  0.74577  0.25389  1
 Cl  Cl8  1  0.74706  0.73528  0.74706  1
 Li  Li1  1  0.14136  0.10864  0.14136  1
 Li  Li2  1  0.00000  0.50000  0.50000  1
 Li  Li3  1  0.50000  0.50000  -0.00000  1
 Li  Li4  1  0.85864  0.89136  0.85864  1
