CIF file written using JARVIS-Tools package.
data_InFe2O4
_symmetry_space_group_name_H-M  'R-3m'
_cell_length_a       8.7728
_cell_length_b       8.7728
_cell_length_c       8.7728
_cell_angle_alpha    22.2836
_cell_angle_beta     22.2835
_cell_angle_gamma    22.2835

_symmetry_Int_Tables_number  166
_chemical_formula_structural  InFe2O4
_chemical_formula_sum  InFe2O4
_cell_volume  85.13295129698257
_cell_formula_units_Z  1
loop_
  _symmetry_equiv_pos_site_id
 _symmetry_equiv_pos_as_xyz
 1  'x, y, z'
loop_
 _atom_site_type_symbol
 _atom_site_label
 _atom_site_symmetry_multiplicity
 _atom_site_fract_x
 _atom_site_fract_y
 _atom_site_fract_z
 _atom_site_fract_occupancy
 Fe  Fe1  1  0.78602  0.78602  0.78602  1
 Fe  Fe2  1  0.21398  0.21398  0.21398  1
 In  In1  1  0.00000  0.00000  0.00000  1
 O  O1  1  0.70802  0.70802  0.70802  1
 O  O2  1  0.29198  0.29198  0.29198  1
 O  O3  1  0.87272  0.87272  0.87272  1
 O  O4  1  0.12728  0.12728  0.12728  1
