CIF file written using JARVIS-Tools package.
data_ScGaO3
_symmetry_space_group_name_H-M  'Pnma'
_cell_length_a       5.05121
_cell_length_b       5.37708
_cell_length_c       7.56855
_cell_angle_alpha    90
_cell_angle_beta     90
_cell_angle_gamma    90

_symmetry_Int_Tables_number  62
_chemical_formula_structural  ScGaO3
_chemical_formula_sum  Sc4Ga4O2
_cell_volume  205.56768898881487
_cell_formula_units_Z  4
loop_
  _symmetry_equiv_pos_site_id
 _symmetry_equiv_pos_as_xyz
 1  'x, y, z'
loop_
 _atom_site_type_symbol
 _atom_site_label
 _atom_site_symmetry_multiplicity
 _atom_site_fract_x
 _atom_site_fract_y
 _atom_site_fract_z
 _atom_site_fract_occupancy
 Ga  Ga1  1  0.00000  0.50000  0.00000  1
 Ga  Ga2  1  0.00000  0.50000  0.50000  1
 Ga  Ga3  1  0.50000  0.00000  0.00000  1
 Ga  Ga4  1  0.50000  0.00000  0.50000  1
 O  O1  1  0.68677  0.30928  0.42764  1
 O  O2  1  0.14211  0.43828  0.25000  1
 O  O3  1  0.81323  0.80928  0.42764  1
 O  O4  1  0.18677  0.19072  0.92764  1
 O  O5  1  0.31323  0.69072  0.57236  1
 O  O6  1  0.18677  0.19072  0.57236  1
 O  O7  1  0.35789  0.93828  0.25000  1
 O  O8  1  0.85789  0.56172  0.75000  1
 O  O9  1  0.68677  0.30928  0.07236  1
 O  O10  1  0.31323  0.69072  0.92764  1
 O  O11  1  0.81323  0.80928  0.07236  1
 O  O12  1  0.64211  0.06172  0.75000  1
 Sc  Sc1  1  0.97414  0.07058  0.25000  1
 Sc  Sc2  1  0.52586  0.57058  0.25000  1
 Sc  Sc3  1  0.47414  0.42942  0.75000  1
 Sc  Sc4  1  0.02586  0.92942  0.75000  1
