CIF file written using JARVIS-Tools package.
data_Na2PtC2
_symmetry_space_group_name_H-M  'P-3m1'
_cell_length_a       4.49303
_cell_length_b       4.49303
_cell_length_c       5.21727
_cell_angle_alpha    90
_cell_angle_beta     90
_cell_angle_gamma    120

_symmetry_Int_Tables_number  164
_chemical_formula_structural  Na2PtC2
_chemical_formula_sum  Na2PtC2
_cell_volume  91.21227000781114
_cell_formula_units_Z  1
loop_
  _symmetry_equiv_pos_site_id
 _symmetry_equiv_pos_as_xyz
 1  'x, y, z'
loop_
 _atom_site_type_symbol
 _atom_site_label
 _atom_site_symmetry_multiplicity
 _atom_site_fract_x
 _atom_site_fract_y
 _atom_site_fract_z
 _atom_site_fract_occupancy
 C  C1  1  0.00000  0.00000  0.37847  1
 C  C2  1  0.00000  0.00000  0.62153  1
 Na  Na1  1  0.33333  0.66667  0.27169  1
 Na  Na2  1  0.66667  0.33333  0.72831  1
 Pt  Pt1  1  0.00000  0.00000  0.00000  1
