CIF file written using JARVIS-Tools package.
data_SmAlGe
_symmetry_space_group_name_H-M  'I4_1md'
_cell_length_a       4.22182
_cell_length_b       4.22182
_cell_length_c       7.92383
_cell_angle_alpha    105.45
_cell_angle_beta     105.45
_cell_angle_gamma    90

_symmetry_Int_Tables_number  109
_chemical_formula_structural  SmAlGe
_chemical_formula_sum  Sm2Al2Ge2
_cell_volume  130.82578168069705
_cell_formula_units_Z  2
loop_
  _symmetry_equiv_pos_site_id
 _symmetry_equiv_pos_as_xyz
 1  'x, y, z'
loop_
 _atom_site_type_symbol
 _atom_site_label
 _atom_site_symmetry_multiplicity
 _atom_site_fract_x
 _atom_site_fract_y
 _atom_site_fract_z
 _atom_site_fract_occupancy
 Al  Al1  1  0.91916  0.41916  0.83832  1
 Al  Al2  1  0.16916  0.16916  0.33832  1
 Ge  Ge1  1  0.00349  0.00349  0.00697  1
 Ge  Ge2  1  0.75349  0.25349  0.50697  1
 Sm  Sm1  1  0.33495  0.83495  0.66990  1
 Sm  Sm2  1  0.58495  0.58495  0.16990  1
