CIF file written using JARVIS-Tools package.
data_SrS3
_symmetry_space_group_name_H-M  'Aea2'
_cell_length_a       5.40005
_cell_length_b       5.40005
_cell_length_c       6.87547
_cell_angle_alpha    90
_cell_angle_beta     90
_cell_angle_gamma    97.2792

_symmetry_Int_Tables_number  41
_chemical_formula_structural  SrS3
_chemical_formula_sum  Sr2S6
_cell_volume  198.8770066251288
_cell_formula_units_Z  2
loop_
  _symmetry_equiv_pos_site_id
 _symmetry_equiv_pos_as_xyz
 1  'x, y, z'
loop_
 _atom_site_type_symbol
 _atom_site_label
 _atom_site_symmetry_multiplicity
 _atom_site_fract_x
 _atom_site_fract_y
 _atom_site_fract_z
 _atom_site_fract_occupancy
 S  S1  1  0.53702  0.53702  0.00000  1
 S  S2  1  0.03702  0.03702  0.50000  1
 S  S3  1  0.19129  0.52658  0.85918  1
 S  S4  1  0.52658  0.19129  0.14082  1
 S  S5  1  0.69129  0.02658  0.64082  1
 S  S6  1  0.02658  0.69129  0.35918  1
 Sr  Sr1  1  0.00122  0.00122  0.00000  1
 Sr  Sr2  1  0.50122  0.50122  0.50000  1
