CIF file written using JARVIS-Tools package.
data_Li2Ti2CoO6
_symmetry_space_group_name_H-M  'Cmce'
_cell_length_a       5.16197
_cell_length_b       5.06984
_cell_length_c       10.2776
_cell_angle_alpha    90
_cell_angle_beta     90
_cell_angle_gamma    60.5887

_symmetry_Int_Tables_number  64
_chemical_formula_structural  Li2Ti2CoO6
_chemical_formula_sum  Li4Ti4Co2O2
_cell_volume  234.30297854885117
_cell_formula_units_Z  2
loop_
  _symmetry_equiv_pos_site_id
 _symmetry_equiv_pos_as_xyz
 1  'x, y, z'
loop_
 _atom_site_type_symbol
 _atom_site_label
 _atom_site_symmetry_multiplicity
 _atom_site_fract_x
 _atom_site_fract_y
 _atom_site_fract_z
 _atom_site_fract_occupancy
 Co  Co1  1  0.00000  0.00000  0.00000  1
 Co  Co2  1  -0.00000  0.50000  0.50000  1
 Li  Li1  1  0.50000  0.16932  0.75000  1
 Li  Li2  1  0.50000  0.33068  0.25000  1
 Li  Li3  1  0.50000  0.66932  0.75000  1
 Li  Li4  1  0.50000  0.83068  0.25000  1
 O  O1  1  0.63228  0.50458  0.39029  1
 O  O2  1  0.00000  0.34137  0.09875  1
 O  O3  1  -0.00000  0.65863  0.90125  1
 O  O4  1  0.36772  0.99542  0.89029  1
 O  O5  1  -0.00000  0.15863  0.59875  1
 O  O6  1  0.36772  0.13686  0.39029  1
 O  O7  1  0.36772  0.49542  0.60971  1
 O  O8  1  0.63228  0.36314  0.89029  1
 O  O9  1  0.63228  0.00458  0.10971  1
 O  O10  1  0.00000  0.84137  0.40125  1
 O  O11  1  0.36772  0.63686  0.10971  1
 O  O12  1  0.63228  0.86314  0.60971  1
 Ti  Ti1  1  0.67627  0.66186  0.00000  1
 Ti  Ti2  1  0.67627  0.16186  0.50000  1
 Ti  Ti3  1  0.32373  0.83814  0.50000  1
 Ti  Ti4  1  0.32373  0.33814  0.00000  1
