CIF file written using JARVIS-Tools package.
data_SrCrF6
_symmetry_space_group_name_H-M  'R-3m'
_cell_length_a       4.72156
_cell_length_b       4.72156
_cell_length_c       4.72155
_cell_angle_alpha    98.3811
_cell_angle_beta     98.3812
_cell_angle_gamma    98.3811

_symmetry_Int_Tables_number  166
_chemical_formula_structural  SrCrF6
_chemical_formula_sum  SrCrF6
_cell_volume  101.51118083526146
_cell_formula_units_Z  1
loop_
  _symmetry_equiv_pos_site_id
 _symmetry_equiv_pos_as_xyz
 1  'x, y, z'
loop_
 _atom_site_type_symbol
 _atom_site_label
 _atom_site_symmetry_multiplicity
 _atom_site_fract_x
 _atom_site_fract_y
 _atom_site_fract_z
 _atom_site_fract_occupancy
 Cr  Cr1  1  0.00000  0.00000  0.00000  1
 F  F1  1  0.72025  0.72025  0.07629  1
 F  F2  1  0.72025  0.07629  0.72025  1
 F  F3  1  0.27975  0.92371  0.27975  1
 F  F4  1  0.27975  0.27975  0.92371  1
 F  F5  1  0.92371  0.27975  0.27975  1
 F  F6  1  0.07629  0.72025  0.72025  1
 Sr  Sr1  1  0.50000  0.50000  0.50000  1
