CIF file written using JARVIS-Tools package.
data_LiMnO2
_symmetry_space_group_name_H-M  'Pmmn'
_cell_length_a       2.8152
_cell_length_b       4.66805
_cell_length_c       5.71333
_cell_angle_alpha    90
_cell_angle_beta     90
_cell_angle_gamma    90

_symmetry_Int_Tables_number  59
_chemical_formula_structural  LiMnO2
_chemical_formula_sum  Li2Mn2O4
_cell_volume  75.08159020842278
_cell_formula_units_Z  2
loop_
  _symmetry_equiv_pos_site_id
 _symmetry_equiv_pos_as_xyz
 1  'x, y, z'
loop_
 _atom_site_type_symbol
 _atom_site_label
 _atom_site_symmetry_multiplicity
 _atom_site_fract_x
 _atom_site_fract_y
 _atom_site_fract_z
 _atom_site_fract_occupancy
 Li  Li1  1  0.50000  0.50000  0.87862  1
 Li  Li2  1  0.00000  0.00000  0.12138  1
 Mn  Mn1  1  0.50000  0.50000  0.36268  1
 Mn  Mn2  1  0.00000  0.00000  0.63732  1
 O  O1  1  0.50000  0.00000  0.86287  1
 O  O2  1  0.00000  0.50000  0.60028  1
 O  O3  1  0.50000  0.00000  0.39972  1
 O  O4  1  0.00000  0.50000  0.13713  1
