CIF file written using JARVIS-Tools package.
data_DyTmO3
_symmetry_space_group_name_H-M  'Pnma'
_cell_length_a       5.60679
_cell_length_b       5.89068
_cell_length_c       8.30016
_cell_angle_alpha    90
_cell_angle_beta     90
_cell_angle_gamma    90

_symmetry_Int_Tables_number  62
_chemical_formula_structural  DyTmO3
_chemical_formula_sum  Dy4Tm4O2
_cell_volume  274.13600131338467
_cell_formula_units_Z  4
loop_
  _symmetry_equiv_pos_site_id
 _symmetry_equiv_pos_as_xyz
 1  'x, y, z'
loop_
 _atom_site_type_symbol
 _atom_site_label
 _atom_site_symmetry_multiplicity
 _atom_site_fract_x
 _atom_site_fract_y
 _atom_site_fract_z
 _atom_site_fract_occupancy
 Dy  Dy1  1  0.97942  0.05650  0.25000  1
 Dy  Dy2  1  0.47942  0.44350  0.75000  1
 Dy  Dy3  1  0.52058  0.55650  0.25000  1
 Dy  Dy4  1  0.02058  0.94350  0.75000  1
 O  O1  1  0.64776  0.07557  0.75000  1
 O  O2  1  0.81464  0.81071  0.42166  1
 O  O3  1  0.18536  0.18929  0.92166  1
 O  O4  1  0.68536  0.31071  0.07834  1
 O  O5  1  0.18536  0.18929  0.57834  1
 O  O6  1  0.14776  0.42443  0.25000  1
 O  O7  1  0.85224  0.57557  0.75000  1
 O  O8  1  0.31464  0.68929  0.57834  1
 O  O9  1  0.68536  0.31071  0.42166  1
 O  O10  1  0.81464  0.81071  0.07834  1
 O  O11  1  0.31464  0.68929  0.92166  1
 O  O12  1  0.35224  0.92443  0.25000  1
 Tm  Tm1  1  0.00000  0.50000  0.50000  1
 Tm  Tm2  1  0.00000  0.50000  0.00000  1
 Tm  Tm3  1  0.50000  0.00000  0.50000  1
 Tm  Tm4  1  0.50000  0.00000  0.00000  1
