CIF file written using JARVIS-Tools package.
data_H10C9O3
_symmetry_space_group_name_H-M  'P2_1'
_cell_length_a       8.57063
_cell_length_b       4.62636
_cell_length_c       9.91867
_cell_angle_alpha    90
_cell_angle_beta     91.0468
_cell_angle_gamma    90

_symmetry_Int_Tables_number  4
_chemical_formula_structural  H10C9O3
_chemical_formula_sum  H20C8O6
_cell_volume  393.21777235631345
_cell_formula_units_Z  2
loop_
  _symmetry_equiv_pos_site_id
 _symmetry_equiv_pos_as_xyz
 1  'x, y, z'
loop_
 _atom_site_type_symbol
 _atom_site_label
 _atom_site_symmetry_multiplicity
 _atom_site_fract_x
 _atom_site_fract_y
 _atom_site_fract_z
 _atom_site_fract_occupancy
 C  C1  1  0.62042  0.32763  0.65489  1
 C  C2  1  0.37958  0.82763  0.34511  1
 C  C3  1  0.71513  0.43583  0.77640  1
 C  C4  1  0.28487  0.93583  0.22360  1
 C  C5  1  0.60743  0.56164  0.88224  1
 C  C6  1  0.39257  0.06164  0.11776  1
 C  C7  1  0.00603  0.23922  0.66699  1
 C  C8  1  0.15230  0.14430  0.62552  1
 C  C9  1  0.99397  0.73922  0.33301  1
 C  C10  1  0.94477  0.12789  0.78587  1
 C  C11  1  0.76398  0.43735  0.30080  1
 C  C12  1  0.17219  0.82441  0.81678  1
 C  C13  1  0.82781  0.32441  0.18322  1
 C  C14  1  0.02761  0.91962  0.86062  1
 C  C15  1  0.97239  0.41962  0.13938  1
 C  C16  1  0.05523  0.62789  0.21413  1
 C  C17  1  0.84770  0.64430  0.37448  1
 C  C18  1  0.23602  0.93735  0.69920  1
 H  H1  1  0.97698  0.83477  0.95249  1
 H  H2  1  0.20720  0.10810  0.25965  1
 H  H3  1  0.76522  0.16027  0.12484  1
 H  H4  1  0.67837  0.64108  0.96755  1
 H  H5  1  0.32163  0.14108  0.03245  1
 H  H6  1  0.52660  0.39574  0.91819  1
 H  H7  1  0.47340  0.89574  0.08181  1
 H  H8  1  0.54064  0.74123  0.83843  1
 H  H9  1  0.94401  0.39924  0.60629  1
 H  H10  1  0.23478  0.66027  0.87516  1
 H  H11  1  0.20027  0.23741  0.53428  1
 H  H12  1  0.05599  0.89924  0.39371  1
 H  H13  1  0.45936  0.24123  0.16157  1
 H  H14  1  0.65156  0.36021  0.33493  1
 H  H15  1  0.34844  0.86021  0.66507  1
 H  H16  1  0.42123  0.50319  0.46179  1
 H  H17  1  0.57877  0.00319  0.53821  1
 H  H18  1  0.02302  0.33477  0.04751  1
 H  H19  1  0.79280  0.60810  0.74035  1
 H  H20  1  0.79973  0.73741  0.46572  1
 O  O1  1  0.64789  0.05821  0.61881  1
 O  O2  1  0.19601  0.70971  0.16003  1
 O  O3  1  0.47543  0.98894  0.40201  1
 O  O4  1  0.52457  0.48894  0.59799  1
 O  O5  1  0.35211  0.55821  0.38119  1
 O  O6  1  0.80399  0.20971  0.83997  1
