CIF file written using JARVIS-Tools package.
data_Ca2Al2O5
_symmetry_space_group_name_H-M  'Ima2'
_cell_length_a       5.26395
_cell_length_b       5.44491
_cell_length_c       8.15906
_cell_angle_alpha    109.492
_cell_angle_beta     108.819
_cell_angle_gamma    90.0001

_symmetry_Int_Tables_number  46
_chemical_formula_structural  Ca2Al2O5
_chemical_formula_sum  Ca4Al4O0
_cell_volume  207.14222049195592
_cell_formula_units_Z  2
loop_
  _symmetry_equiv_pos_site_id
 _symmetry_equiv_pos_as_xyz
 1  'x, y, z'
loop_
 _atom_site_type_symbol
 _atom_site_label
 _atom_site_symmetry_multiplicity
 _atom_site_fract_x
 _atom_site_fract_y
 _atom_site_fract_z
 _atom_site_fract_occupancy
 Al  Al1  1  0.29563  0.17642  0.50000  1
 Al  Al2  1  0.79563  0.82358  0.50000  1
 Al  Al3  1  0.49690  0.50000  -0.00000  1
 Al  Al4  1  0.99690  0.00000  -0.00000  1
 Ca  Ca1  1  0.39671  0.86781  0.78525  1
 Ca  Ca2  1  0.89671  0.41744  0.78525  1
 Ca  Ca3  1  0.11146  0.58256  0.21475  1
 Ca  Ca4  1  0.61146  0.13219  0.21475  1
 O  O1  1  0.75898  0.75832  0.02183  1
 O  O2  1  0.23714  0.23649  0.97817  1
 O  O3  1  0.25898  0.76351  0.02183  1
 O  O4  1  0.13305  0.88587  0.50000  1
 O  O5  1  0.12179  0.19896  0.28215  1
 O  O6  1  0.62179  0.58319  0.28215  1
 O  O7  1  0.73714  0.24168  0.97817  1
 O  O8  1  0.33964  0.41681  0.71785  1
 O  O9  1  0.63305  0.11413  0.50000  1
 O  O10  1  0.83964  0.80104  0.71785  1
