CIF file written using JARVIS-Tools package.
data_Sb3Pb
_symmetry_space_group_name_H-M  'P6_3/mmc'
_cell_length_a       6.81867
_cell_length_b       6.81867
_cell_length_c       5.77883
_cell_angle_alpha    90
_cell_angle_beta     90
_cell_angle_gamma    120

_symmetry_Int_Tables_number  194
_chemical_formula_structural  Sb3Pb
_chemical_formula_sum  Sb6Pb2
_cell_volume  232.68575127328478
_cell_formula_units_Z  2
loop_
  _symmetry_equiv_pos_site_id
 _symmetry_equiv_pos_as_xyz
 1  'x, y, z'
loop_
 _atom_site_type_symbol
 _atom_site_label
 _atom_site_symmetry_multiplicity
 _atom_site_fract_x
 _atom_site_fract_y
 _atom_site_fract_z
 _atom_site_fract_occupancy
 Pb  Pb1  1  0.33333  0.66667  0.75000  1
 Pb  Pb2  1  0.66667  0.33333  0.25000  1
 Sb  Sb1  1  0.16410  0.32820  0.25000  1
 Sb  Sb2  1  0.67180  0.83590  0.25000  1
 Sb  Sb3  1  0.16410  0.83590  0.25000  1
 Sb  Sb4  1  0.83590  0.67180  0.75000  1
 Sb  Sb5  1  0.32820  0.16410  0.75000  1
 Sb  Sb6  1  0.83590  0.16410  0.75000  1
