CIF file written using JARVIS-Tools package.
data_H8C8O
_symmetry_space_group_name_H-M  'P1'
_cell_length_a       3.9022
_cell_length_b       5.85302
_cell_length_c       7.19795
_cell_angle_alpha    112.936
_cell_angle_beta     93.9638
_cell_angle_gamma    106.344

_symmetry_Int_Tables_number  1
_chemical_formula_structural  H8C8O
_chemical_formula_sum  H8C8O
_cell_volume  142.27939358528434
_cell_formula_units_Z  1
loop_
  _symmetry_equiv_pos_site_id
 _symmetry_equiv_pos_as_xyz
 1  'x, y, z'
loop_
 _atom_site_type_symbol
 _atom_site_label
 _atom_site_symmetry_multiplicity
 _atom_site_fract_x
 _atom_site_fract_y
 _atom_site_fract_z
 _atom_site_fract_occupancy
 C  C1  1  0.14057  0.04741  0.29657  1
 C  C2  1  0.07868  0.17223  0.49367  1
 C  C3  1  0.86635  0.16033  0.81590  1
 C  C4  1  0.90373  0.62764  0.30822  1
 C  C5  1  0.11423  0.64011  0.98630  1
 C  C6  1  0.05325  0.77333  0.20177  1
 C  C7  1  0.93133  0.02668  0.60153  1
 C  C8  1  0.84485  0.75334  0.50591  1
 H  H1  1  0.25999  0.16532  0.21638  1
 H  H2  1  0.83966  0.41509  0.23761  1
 H  H3  1  0.72962  0.63605  0.58708  1
 H  H4  1  0.83101  0.02557  0.89101  1
 H  H5  1  0.87896  0.60650  0.87277  1
 H  H6  1  0.61690  0.21206  0.81151  1
 H  H7  1  0.35702  0.76998  0.96349  1
 H  H8  1  0.15096  0.38583  0.56523  1
 O  O1  1  0.17082  0.39430  0.94448  1
