CIF file written using JARVIS-Tools package.
data_Na4C2O5
_symmetry_space_group_name_H-M  'Cm'
_cell_length_a       5.0166
_cell_length_b       5.01661
_cell_length_c       6.03675
_cell_angle_alpha    80.3599
_cell_angle_beta     80.3599
_cell_angle_gamma    64.2011

_symmetry_Int_Tables_number  8
_chemical_formula_structural  Na4C2O5
_chemical_formula_sum  Na4C2O5
_cell_volume  134.0808457173662
_cell_formula_units_Z  1
loop_
  _symmetry_equiv_pos_site_id
 _symmetry_equiv_pos_as_xyz
 1  'x, y, z'
loop_
 _atom_site_type_symbol
 _atom_site_label
 _atom_site_symmetry_multiplicity
 _atom_site_fract_x
 _atom_site_fract_y
 _atom_site_fract_z
 _atom_site_fract_occupancy
 C  C1  1  0.31744  0.31744  0.24523  1
 C  C2  1  0.66055  0.66055  0.76224  1
 Na  Na1  1  0.00609  0.00609  0.00960  1
 Na  Na2  1  0.33458  0.33458  0.72924  1
 Na  Na3  1  0.66820  0.66820  0.26934  1
 Na  Na4  1  0.99951  0.99951  0.50211  1
 O  O1  1  0.18386  0.59764  0.28537  1
 O  O2  1  0.59764  0.18386  0.28537  1
 O  O3  1  0.38713  0.80820  0.71522  1
 O  O4  1  0.80820  0.38713  0.71522  1
 O  O5  1  0.78579  0.78579  0.85306  1
