CIF file written using JARVIS-Tools package.
data_Co3W
_symmetry_space_group_name_H-M  'P6_3/mmc'
_cell_length_a       5.10612
_cell_length_b       5.10612
_cell_length_c       4.08918
_cell_angle_alpha    90
_cell_angle_beta     90
_cell_angle_gamma    120

_symmetry_Int_Tables_number  194
_chemical_formula_structural  Co3W
_chemical_formula_sum  Co6W2
_cell_volume  92.33148663283745
_cell_formula_units_Z  2
loop_
  _symmetry_equiv_pos_site_id
 _symmetry_equiv_pos_as_xyz
 1  'x, y, z'
loop_
 _atom_site_type_symbol
 _atom_site_label
 _atom_site_symmetry_multiplicity
 _atom_site_fract_x
 _atom_site_fract_y
 _atom_site_fract_z
 _atom_site_fract_occupancy
 Co  Co1  1  0.16183  0.32366  0.75000  1
 Co  Co2  1  0.32366  0.16183  0.25000  1
 Co  Co3  1  0.83817  0.16183  0.25000  1
 Co  Co4  1  0.16183  0.83817  0.75000  1
 Co  Co5  1  0.67634  0.83817  0.75000  1
 Co  Co6  1  0.83817  0.67634  0.25000  1
 W  W1  1  0.66667  0.33333  0.75000  1
 W  W2  1  0.33333  0.66667  0.25000  1
