CIF file written using JARVIS-Tools package.
data_SnHg2Se4
_symmetry_space_group_name_H-M  'I-4'
_cell_length_a       5.88586
_cell_length_b       5.88586
_cell_length_c       7.1859
_cell_angle_alpha    114.176
_cell_angle_beta     114.176
_cell_angle_gamma    90

_symmetry_Int_Tables_number  82
_chemical_formula_structural  SnHg2Se4
_chemical_formula_sum  SnHg2Se4
_cell_volume  202.9386452857718
_cell_formula_units_Z  1
loop_
  _symmetry_equiv_pos_site_id
 _symmetry_equiv_pos_as_xyz
 1  'x, y, z'
loop_
 _atom_site_type_symbol
 _atom_site_label
 _atom_site_symmetry_multiplicity
 _atom_site_fract_x
 _atom_site_fract_y
 _atom_site_fract_z
 _atom_site_fract_occupancy
 Hg  Hg1  1  0.50000  0.50000  0.00000  1
 Hg  Hg2  1  0.75000  0.25000  0.50000  1
 Se  Se1  1  0.90792  0.33496  0.22316  1
 Se  Se2  1  0.11180  0.09208  0.77684  1
 Se  Se3  1  0.66504  0.68475  0.77684  1
 Se  Se4  1  0.31525  0.88820  0.22316  1
 Sn  Sn1  1  0.25000  0.75000  0.50000  1
