CIF file written using JARVIS-Tools package.
data_Ti3Zn2O8
_symmetry_space_group_name_H-M  'R-3m'
_cell_length_a       5.88167
_cell_length_b       6.00536
_cell_length_c       6.00536
_cell_angle_alpha    60
_cell_angle_beta     59.3019
_cell_angle_gamma    59.3019

_symmetry_Int_Tables_number  166
_chemical_formula_structural  Ti3Zn2O8
_chemical_formula_sum  Ti3Zn2O8
_cell_volume  148.38825020173826
_cell_formula_units_Z  1
loop_
  _symmetry_equiv_pos_site_id
 _symmetry_equiv_pos_as_xyz
 1  'x, y, z'
loop_
 _atom_site_type_symbol
 _atom_site_label
 _atom_site_symmetry_multiplicity
 _atom_site_fract_x
 _atom_site_fract_y
 _atom_site_fract_z
 _atom_site_fract_occupancy
 O  O1  1  0.41535  0.37299  0.37299  1
 O  O2  1  0.41535  0.37299  0.83867  1
 O  O3  1  0.41535  0.83867  0.37299  1
 O  O4  1  0.85482  0.38173  0.38173  1
 O  O5  1  0.39518  0.86827  0.86827  1
 O  O6  1  0.83465  0.87701  0.41133  1
 O  O7  1  0.83465  0.41133  0.87701  1
 O  O8  1  0.83465  0.87701  0.87701  1
 Ti  Ti1  1  0.62500  0.12500  0.62500  1
 Ti  Ti2  1  0.62500  0.62500  0.12500  1
 Ti  Ti3  1  0.62500  0.62500  0.62500  1
 Zn  Zn1  1  0.97183  0.00939  0.00939  1
 Zn  Zn2  1  0.27817  0.24061  0.24061  1
