CIF file written using JARVIS-Tools package.
data_Mo3WSe6S2
_symmetry_space_group_name_H-M  'P3m1'
_cell_length_a       3.29215
_cell_length_b       3.29212
_cell_length_c       34.9849
_cell_angle_alpha    89.9987
_cell_angle_beta     90
_cell_angle_gamma    120

_symmetry_Int_Tables_number  156
_chemical_formula_structural  Mo3WSe6S2
_chemical_formula_sum  Mo3WSe6S2
_cell_volume  328.37286230831353
_cell_formula_units_Z  1
loop_
  _symmetry_equiv_pos_site_id
 _symmetry_equiv_pos_as_xyz
 1  'x, y, z'
loop_
 _atom_site_type_symbol
 _atom_site_label
 _atom_site_symmetry_multiplicity
 _atom_site_fract_x
 _atom_site_fract_y
 _atom_site_fract_z
 _atom_site_fract_occupancy
 Mo  Mo1  1  0.33332  0.66663  0.09669  1
 Mo  Mo2  1  0.33333  0.66665  0.46884  1
 Mo  Mo3  1  0.66666  0.33332  0.65807  1
 S  S1  1  0.66665  0.33330  0.05284  1
 S  S2  1  0.66665  0.33329  0.14059  1
 Se  Se1  1  0.33334  0.66669  0.32779  1
 Se  Se2  1  0.33332  0.66665  0.70620  1
 Se  Se3  1  0.66666  0.33332  0.42066  1
 Se  Se4  1  0.66665  0.33329  0.51703  1
 Se  Se5  1  0.33339  0.66677  0.23086  1
 Se  Se6  1  0.33334  0.66667  0.60987  1
 W  W1  1  0.66670  0.33341  0.27932  1
