CIF file written using JARVIS-Tools package.
data_Al2GeH2O6
_symmetry_space_group_name_H-M  'C2/c'
_cell_length_a       5.02161
_cell_length_b       5.02161
_cell_length_c       9.47049
_cell_angle_alpha    78.8361
_cell_angle_beta     101.164
_cell_angle_gamma    64.5538

_symmetry_Int_Tables_number  15
_chemical_formula_structural  Al2GeH2O6
_chemical_formula_sum  Al4Ge2H4O2
_cell_volume  200.97250808162846
_cell_formula_units_Z  2
loop_
  _symmetry_equiv_pos_site_id
 _symmetry_equiv_pos_as_xyz
 1  'x, y, z'
loop_
 _atom_site_type_symbol
 _atom_site_label
 _atom_site_symmetry_multiplicity
 _atom_site_fract_x
 _atom_site_fract_y
 _atom_site_fract_z
 _atom_site_fract_occupancy
 Al  Al1  1  0.46979  0.29791  0.91423  1
 Al  Al2  1  0.29791  0.46979  0.58577  1
 Al  Al3  1  0.53021  0.70209  0.08577  1
 Al  Al4  1  0.70209  0.53021  0.41423  1
 Ge  Ge1  1  0.02745  0.02745  0.75000  1
 Ge  Ge2  1  0.97255  0.97255  0.25000  1
 H  H1  1  0.92033  0.38727  0.94770  1
 H  H2  1  0.38727  0.92033  0.55230  1
 H  H3  1  0.07967  0.61273  0.05230  1
 H  H4  1  0.61273  0.07967  0.44770  1
 O  O1  1  0.28692  0.51534  0.04110  1
 O  O2  1  0.24656  0.06944  0.91113  1
 O  O3  1  0.93056  0.75344  0.41113  1
 O  O4  1  0.75344  0.93056  0.08887  1
 O  O5  1  0.06944  0.24656  0.58887  1
 O  O6  1  0.48466  0.71308  0.54110  1
 O  O7  1  0.83655  0.35672  0.26222  1
 O  O8  1  0.35672  0.83655  0.23778  1
 O  O9  1  0.71308  0.48466  0.95890  1
 O  O10  1  0.16345  0.64328  0.73778  1
 O  O11  1  0.64328  0.16345  0.76222  1
 O  O12  1  0.51534  0.28692  0.45890  1
