CIF file written using JARVIS-Tools package.
data_Sm5AgS8
_symmetry_space_group_name_H-M  'I-4'
_cell_length_a       7.32887
_cell_length_b       7.32886
_cell_length_c       7.32886
_cell_angle_alpha    109.736
_cell_angle_beta     109.736
_cell_angle_gamma    108.942

_symmetry_Int_Tables_number  82
_chemical_formula_structural  Sm5AgS8
_chemical_formula_sum  Sm5AgS8
_cell_volume  303.01261448970774
_cell_formula_units_Z  1
loop_
  _symmetry_equiv_pos_site_id
 _symmetry_equiv_pos_as_xyz
 1  'x, y, z'
loop_
 _atom_site_type_symbol
 _atom_site_label
 _atom_site_symmetry_multiplicity
 _atom_site_fract_x
 _atom_site_fract_y
 _atom_site_fract_z
 _atom_site_fract_occupancy
 Ag  Ag1  1  0.87500  0.12500  0.75000  1
 S  S1  1  0.99168  0.85161  0.49806  1
 S  S2  1  0.00799  0.36463  0.49004  1
 S  S3  1  0.14839  0.14645  0.14008  1
 S  S4  1  0.37459  0.51795  0.00996  1
 S  S5  1  0.48205  0.99201  0.85664  1
 S  S6  1  0.63537  0.62541  0.64336  1
 S  S7  1  0.50638  0.00832  0.35992  1
 S  S8  1  0.85355  0.49362  0.00194  1
 Sm  Sm1  1  0.11074  0.74374  0.86921  1
 Sm  Sm2  1  0.25626  0.62547  0.36700  1
 Sm  Sm3  1  0.37453  0.24153  0.63079  1
 Sm  Sm4  1  0.62500  0.37500  0.25000  1
 Sm  Sm5  1  0.75847  0.88926  0.13300  1
