CIF file written using JARVIS-Tools package.
data_MoF5
_symmetry_space_group_name_H-M  'Immm'
_cell_length_a       3.64267
_cell_length_b       5.32388
_cell_length_c       5.32389
_cell_angle_alpha    49.4275
_cell_angle_beta     69.9947
_cell_angle_gamma    69.9947

_symmetry_Int_Tables_number  71
_chemical_formula_structural  MoF5
_chemical_formula_sum  MoF5
_cell_volume  72.65075780093476
_cell_formula_units_Z  1
loop_
  _symmetry_equiv_pos_site_id
 _symmetry_equiv_pos_as_xyz
 1  'x, y, z'
loop_
 _atom_site_type_symbol
 _atom_site_label
 _atom_site_symmetry_multiplicity
 _atom_site_fract_x
 _atom_site_fract_y
 _atom_site_fract_z
 _atom_site_fract_occupancy
 F  F1  1  0.50000  0.76926  0.23074  1
 F  F2  1  0.50000  0.23074  0.76926  1
 F  F3  1  0.79243  0.20757  0.20757  1
 F  F4  1  0.20757  0.79243  0.79243  1
 F  F5  1  -0.00000  0.50000  0.50000  1
 Mo  Mo1  1  0.00000  0.00000  0.00000  1
