CIF file written using JARVIS-Tools package.
data_AgBiS2
_symmetry_space_group_name_H-M  'R-3m'
_cell_length_a       4.04723
_cell_length_b       4.04723
_cell_length_c       6.74215
_cell_angle_alpha    72.5337
_cell_angle_beta     72.5337
_cell_angle_gamma    59.9999

_symmetry_Int_Tables_number  166
_chemical_formula_structural  AgBiS2
_chemical_formula_sum  AgBiS2
_cell_volume  89.71343567404098
_cell_formula_units_Z  1
loop_
  _symmetry_equiv_pos_site_id
 _symmetry_equiv_pos_as_xyz
 1  'x, y, z'
loop_
 _atom_site_type_symbol
 _atom_site_label
 _atom_site_symmetry_multiplicity
 _atom_site_fract_x
 _atom_site_fract_y
 _atom_site_fract_z
 _atom_site_fract_occupancy
 Ag  Ag1  1  0.50000  0.50000  0.50000  1
 Bi  Bi1  1  0.00000  0.00000  0.00000  1
 S  S1  1  0.75372  0.75372  0.73884  1
 S  S2  1  0.24628  0.24628  0.26116  1
