CIF file written using JARVIS-Tools package.
data_Ca3Ti2O7
_symmetry_space_group_name_H-M  'Cmc2_1'
_cell_length_a       5.43361
_cell_length_b       5.49382
_cell_length_c       10.1039
_cell_angle_alpha    90
_cell_angle_beta     105.598
_cell_angle_gamma    90

_symmetry_Int_Tables_number  36
_chemical_formula_structural  Ca3Ti2O7
_chemical_formula_sum  Ca6Ti4O4
_cell_volume  290.5068478005501
_cell_formula_units_Z  2
loop_
  _symmetry_equiv_pos_site_id
 _symmetry_equiv_pos_as_xyz
 1  'x, y, z'
loop_
 _atom_site_type_symbol
 _atom_site_label
 _atom_site_symmetry_multiplicity
 _atom_site_fract_x
 _atom_site_fract_y
 _atom_site_fract_z
 _atom_site_fract_occupancy
 Ca  Ca1  1  0.44547  0.04117  0.37545  1
 Ca  Ca2  1  0.55453  0.54117  0.62455  1
 Ca  Ca3  1  0.07002  0.04117  0.62455  1
 Ca  Ca4  1  0.92998  0.54117  0.37545  1
 Ca  Ca5  1  0.74535  0.45919  -0.00000  1
 Ca  Ca6  1  0.25465  0.95919  0.00000  1
 O  O1  1  0.07166  0.28728  0.22579  1
 O  O2  1  0.84587  0.28728  0.77421  1
 O  O3  1  0.15413  0.78728  0.22579  1
 O  O4  1  0.45668  0.70541  0.83284  1
 O  O5  1  0.54332  0.20541  0.16716  1
 O  O6  1  0.37616  0.20541  0.83284  1
 O  O7  1  0.62384  0.70541  0.16716  1
 O  O8  1  0.48516  0.97692  0.60417  1
 O  O9  1  0.88100  0.97692  0.39583  1
 O  O10  1  0.92834  0.78728  0.77421  1
 O  O11  1  0.82478  0.01489  0.00000  1
 O  O12  1  0.11900  0.47692  0.60417  1
 O  O13  1  0.51484  0.47692  0.39583  1
 O  O14  1  0.17522  0.51489  -0.00000  1
 Ti  Ti1  1  0.84938  0.00639  0.19944  1
 Ti  Ti2  1  0.35006  0.50639  0.19944  1
 Ti  Ti3  1  0.64994  0.00639  0.80056  1
 Ti  Ti4  1  0.15062  0.50639  0.80056  1
