CIF file written using JARVIS-Tools package.
data_NaTmO2
_symmetry_space_group_name_H-M  'I4_1/amd'
_cell_length_a       4.55507
_cell_length_b       4.55507
_cell_length_c       5.95815
_cell_angle_alpha    67.5265
_cell_angle_beta     67.5266
_cell_angle_gamma    90.0001

_symmetry_Int_Tables_number  141
_chemical_formula_structural  NaTmO2
_chemical_formula_sum  Na2Tm2O4
_cell_volume  104.00275616166661
_cell_formula_units_Z  2
loop_
  _symmetry_equiv_pos_site_id
 _symmetry_equiv_pos_as_xyz
 1  'x, y, z'
loop_
 _atom_site_type_symbol
 _atom_site_label
 _atom_site_symmetry_multiplicity
 _atom_site_fract_x
 _atom_site_fract_y
 _atom_site_fract_z
 _atom_site_fract_occupancy
 Na  Na1  1  0.25000  0.75000  0.50000  1
 Na  Na2  1  0.50000  0.50000  0.00000  1
 O  O1  1  0.52636  0.02636  0.94729  1
 O  O2  1  0.22364  0.22364  0.55271  1
 O  O3  1  0.77636  0.77636  0.44729  1
 O  O4  1  0.97364  0.47364  0.05271  1
 Tm  Tm1  1  0.75000  0.25000  0.50000  1
 Tm  Tm2  1  0.00000  0.00000  0.00000  1
