CIF file written using JARVIS-Tools package.
data_MoW3Se4S4
_symmetry_space_group_name_H-M  'Cm'
_cell_length_a       3.2585
_cell_length_b       3.2585
_cell_length_c       33.7183
_cell_angle_alpha    90.0252
_cell_angle_beta     90
_cell_angle_gamma    120

_symmetry_Int_Tables_number  8
_chemical_formula_structural  MoW3Se4S4
_chemical_formula_sum  MoW3Se4S4
_cell_volume  310.04900774662735
_cell_formula_units_Z  1
loop_
  _symmetry_equiv_pos_site_id
 _symmetry_equiv_pos_as_xyz
 1  'x, y, z'
loop_
 _atom_site_type_symbol
 _atom_site_label
 _atom_site_symmetry_multiplicity
 _atom_site_fract_x
 _atom_site_fract_y
 _atom_site_fract_z
 _atom_site_fract_occupancy
 Mo  Mo1  1  0.66634  0.33268  0.27698  1
 S  S1  1  0.33315  0.66631  0.32283  1
 S  S2  1  0.66577  0.33154  0.04715  1
 S  S3  1  0.66604  0.33207  0.13924  1
 S  S4  1  0.33287  0.66575  0.23115  1
 Se  Se1  1  0.33440  0.66881  0.71602  1
 Se  Se2  1  0.66668  0.33336  0.41669  1
 Se  Se3  1  0.66700  0.33399  0.51802  1
 Se  Se4  1  0.33409  0.66817  0.61474  1
 W  W1  1  0.33257  0.66515  0.09318  1
 W  W2  1  0.33350  0.66701  0.46735  1
 W  W3  1  0.66758  0.33516  0.66541  1
