CIF file written using JARVIS-Tools package.
data_Li2CuF4
_symmetry_space_group_name_H-M  'Cmmm'
_cell_length_a       5.01075
_cell_length_b       5.01075
_cell_length_c       3.07588
_cell_angle_alpha    90
_cell_angle_beta     90
_cell_angle_gamma    70.9587

_symmetry_Int_Tables_number  65
_chemical_formula_structural  Li2CuF4
_chemical_formula_sum  Li2CuF4
_cell_volume  73.00249855005278
_cell_formula_units_Z  1
loop_
  _symmetry_equiv_pos_site_id
 _symmetry_equiv_pos_as_xyz
 1  'x, y, z'
loop_
 _atom_site_type_symbol
 _atom_site_label
 _atom_site_symmetry_multiplicity
 _atom_site_fract_x
 _atom_site_fract_y
 _atom_site_fract_z
 _atom_site_fract_occupancy
 Cu  Cu1  1  0.00000  0.00000  0.00000  1
 F  F1  1  0.23984  0.23984  0.00000  1
 F  F2  1  0.23405  0.76595  0.50000  1
 F  F3  1  0.76595  0.23405  0.50000  1
 F  F4  1  0.76016  0.76016  0.00000  1
 Li  Li1  1  0.00000  0.50000  0.50000  1
 Li  Li2  1  0.50000  -0.00000  0.50000  1
