CIF file written using JARVIS-Tools package.
data_Ag2S
_symmetry_space_group_name_H-M  'P1'
_cell_length_a       4.36023
_cell_length_b       4.65462
_cell_length_c       9.96951
_cell_angle_alpha    102.667
_cell_angle_beta     104.306
_cell_angle_gamma    82.0535

_symmetry_Int_Tables_number  1
_chemical_formula_structural  Ag2S
_chemical_formula_sum  Ag6S3
_cell_volume  190.5292366463668
_cell_formula_units_Z  3
loop_
  _symmetry_equiv_pos_site_id
 _symmetry_equiv_pos_as_xyz
 1  'x, y, z'
loop_
 _atom_site_type_symbol
 _atom_site_label
 _atom_site_symmetry_multiplicity
 _atom_site_fract_x
 _atom_site_fract_y
 _atom_site_fract_z
 _atom_site_fract_occupancy
 Ag  Ag1  1  0.13797  0.61861  0.80945  1
 Ag  Ag2  1  0.57928  0.06170  0.80801  1
 Ag  Ag3  1  0.80368  0.52414  0.04453  1
 Ag  Ag4  1  0.69341  -0.05267  0.52298  1
 Ag  Ag5  1  0.27372  0.47061  0.42713  1
 Ag  Ag6  1  0.51698  0.02141  0.21593  1
 S  S1  1  0.18943  0.21897  0.61426  1
 S  S2  1  0.67891  0.54065  0.29930  1
 S  S3  1  0.00161  0.97157  0.00841  1
