CIF file written using JARVIS-Tools package.
data_MgTi2O5
_symmetry_space_group_name_H-M  'Cmcm'
_cell_length_a       3.7527
_cell_length_b       5.24444
_cell_length_c       10.0863
_cell_angle_alpha    90
_cell_angle_beta     90
_cell_angle_gamma    110.964

_symmetry_Int_Tables_number  63
_chemical_formula_structural  MgTi2O5
_chemical_formula_sum  Mg2Ti4O0
_cell_volume  185.3662747952943
_cell_formula_units_Z  2
loop_
  _symmetry_equiv_pos_site_id
 _symmetry_equiv_pos_as_xyz
 1  'x, y, z'
loop_
 _atom_site_type_symbol
 _atom_site_label
 _atom_site_symmetry_multiplicity
 _atom_site_fract_x
 _atom_site_fract_y
 _atom_site_fract_z
 _atom_site_fract_occupancy
 Mg  Mg1  1  0.19583  0.39167  0.75000  1
 Mg  Mg2  1  0.80417  0.60833  0.25000  1
 O  O1  1  0.31378  0.62757  0.56238  1
 O  O2  1  0.68622  0.37243  0.43762  1
 O  O3  1  0.68622  0.37243  0.06238  1
 O  O4  1  0.31378  0.62757  0.93762  1
 O  O5  1  0.04663  0.09327  0.61334  1
 O  O6  1  0.95337  0.90673  0.38666  1
 O  O7  1  0.78242  0.56485  0.75000  1
 O  O8  1  0.21758  0.43515  0.25000  1
 O  O9  1  0.04663  0.09327  0.88666  1
 O  O10  1  0.95337  0.90673  0.11334  1
 Ti  Ti1  1  0.86706  0.73412  0.56738  1
 Ti  Ti2  1  0.13294  0.26588  0.43262  1
 Ti  Ti3  1  0.86706  0.73412  0.93262  1
 Ti  Ti4  1  0.13294  0.26588  0.06738  1
