CIF file written using JARVIS-Tools package.
data_TlCuPO4
_symmetry_space_group_name_H-M  'C2/c'
_cell_length_a       4.85636
_cell_length_b       4.85636
_cell_length_c       17.9457
_cell_angle_alpha    92.0215
_cell_angle_beta     92.0215
_cell_angle_gamma    92.5292

_symmetry_Int_Tables_number  15
_chemical_formula_structural  TlCuPO4
_chemical_formula_sum  Tl4Cu4P4O6
_cell_volume  422.2719526750959
_cell_formula_units_Z  4
loop_
  _symmetry_equiv_pos_site_id
 _symmetry_equiv_pos_as_xyz
 1  'x, y, z'
loop_
 _atom_site_type_symbol
 _atom_site_label
 _atom_site_symmetry_multiplicity
 _atom_site_fract_x
 _atom_site_fract_y
 _atom_site_fract_z
 _atom_site_fract_occupancy
 Cu  Cu1  1  0.16676  0.32885  0.24923  1
 Cu  Cu2  1  0.67115  0.83324  0.25077  1
 Cu  Cu3  1  0.83324  0.67115  0.75077  1
 Cu  Cu4  1  0.32885  0.16676  0.74923  1
 O  O1  1  0.95133  0.24639  0.15753  1
 O  O2  1  0.47551  0.13712  0.20480  1
 O  O3  1  0.04867  0.75361  0.84247  1
 O  O4  1  0.52449  0.86288  0.79520  1
 O  O5  1  0.13712  0.47551  0.70480  1
 O  O6  1  0.46074  0.78261  0.93404  1
 O  O7  1  0.21739  0.53926  0.56596  1
 O  O8  1  0.86288  0.52449  0.29520  1
 O  O9  1  0.78261  0.46074  0.43404  1
 O  O10  1  0.58456  0.61649  0.15955  1
 O  O11  1  0.38351  0.41544  0.34045  1
 O  O12  1  0.24639  0.95133  0.65753  1
 O  O13  1  0.61649  0.58456  0.65955  1
 O  O14  1  0.53926  0.21739  0.06596  1
 O  O15  1  0.75361  0.04867  0.34247  1
 O  O16  1  0.41544  0.38351  0.84045  1
 P  P1  1  0.64202  0.30607  0.14444  1
 P  P2  1  0.69393  0.35798  0.35556  1
 P  P3  1  0.35798  0.69393  0.85556  1
 P  P4  1  0.30607  0.64202  0.64444  1
 Tl  Tl1  1  0.78623  0.18719  0.56303  1
 Tl  Tl2  1  0.81281  0.21377  0.93697  1
 Tl  Tl3  1  0.21377  0.81281  0.43697  1
 Tl  Tl4  1  0.18719  0.78623  0.06303  1
