CIF file written using JARVIS-Tools package.
data_KAlP4H4O14
_symmetry_space_group_name_H-M  'P-1'
_cell_length_a       4.91275
_cell_length_b       7.43995
_cell_length_c       7.72269
_cell_angle_alpha    82.54
_cell_angle_beta     84.0872
_cell_angle_gamma    74.4227

_symmetry_Int_Tables_number  2
_chemical_formula_structural  KAlP4H4O14
_chemical_formula_sum  KAlP4H4O4
_cell_volume  268.9125796330066
_cell_formula_units_Z  1
loop_
  _symmetry_equiv_pos_site_id
 _symmetry_equiv_pos_as_xyz
 1  'x, y, z'
loop_
 _atom_site_type_symbol
 _atom_site_label
 _atom_site_symmetry_multiplicity
 _atom_site_fract_x
 _atom_site_fract_y
 _atom_site_fract_z
 _atom_site_fract_occupancy
 Al  Al1  1  0.00000  0.50000  -0.00000  1
 H  H1  1  0.11792  0.78629  0.41780  1
 H  H2  1  0.88208  0.21371  0.58220  1
 H  H3  1  0.31078  0.00344  0.61844  1
 H  H4  1  0.68922  -0.00344  0.38156  1
 K  K1  1  0.00000  0.00000  0.00000  1
 O  O1  1  0.16604  0.16262  0.48107  1
 O  O2  1  0.38717  0.90384  0.71934  1
 O  O3  1  0.16168  0.27811  0.15057  1
 O  O4  1  0.83832  0.72189  0.84943  1
 O  O5  1  0.24622  0.62807  0.07242  1
 O  O6  1  0.83396  0.83738  0.51893  1
 O  O7  1  0.37716  0.42806  0.35777  1
 O  O8  1  0.62284  0.57194  0.64223  1
 O  O9  1  0.30228  0.77751  0.33818  1
 O  O10  1  0.73161  0.59192  0.18422  1
 O  O11  1  0.75378  0.37193  0.92758  1
 O  O12  1  0.69772  0.22249  0.66182  1
 O  O13  1  0.26839  0.40808  0.81578  1
 O  O14  1  0.61283  0.09616  0.28066  1
 P  P1  1  0.68441  0.76492  0.68279  1
 P  P2  1  0.31559  0.23508  0.31721  1
 P  P3  1  0.57923  0.39196  0.77104  1
 P  P4  1  0.42077  0.60804  0.22896  1
