CIF file written using JARVIS-Tools package.
data_KH4F5
_symmetry_space_group_name_H-M  'I4_1/a'
_cell_length_a       7.77726
_cell_length_b       7.77726
_cell_length_c       7.77726
_cell_angle_alpha    132.595
_cell_angle_beta     132.595
_cell_angle_gamma    69.2914

_symmetry_Int_Tables_number  88
_chemical_formula_structural  KH4F5
_chemical_formula_sum  K2H8F0
_cell_volume  250.15073699154783
_cell_formula_units_Z  2
loop_
  _symmetry_equiv_pos_site_id
 _symmetry_equiv_pos_as_xyz
 1  'x, y, z'
loop_
 _atom_site_type_symbol
 _atom_site_label
 _atom_site_symmetry_multiplicity
 _atom_site_fract_x
 _atom_site_fract_y
 _atom_site_fract_z
 _atom_site_fract_occupancy
 F  F1  1  0.72248  0.52279  0.78660  1
 F  F2  1  0.43587  0.22248  0.69969  1
 F  F3  1  0.27752  0.47721  0.21340  1
 F  F4  1  0.76382  0.06413  0.28660  1
 F  F5  1  -0.02279  0.26382  0.19969  1
 F  F6  1  0.56413  0.77752  0.30031  1
 F  F7  1  0.12500  0.37500  0.75000  1
 F  F8  1  0.87500  0.62500  0.25000  1
 F  F9  1  0.23618  0.93587  0.71340  1
 F  F10  1  0.02279  0.73618  0.80031  1
 H  H1  1  0.21421  0.43366  0.02486  1
 H  H2  1  0.93366  0.40879  0.21945  1
 H  H3  1  0.90879  0.18935  0.47514  1
 H  H4  1  0.78579  0.56634  0.97514  1
 H  H5  1  0.31065  0.28579  0.71945  1
 H  H6  1  0.06634  0.59121  0.78055  1
 H  H7  1  0.09121  0.81065  0.52486  1
 H  H8  1  0.68935  0.71421  0.28055  1
 K  K1  1  0.62500  0.87500  0.75000  1
 K  K2  1  0.37500  0.12500  0.25000  1
