CIF file written using JARVIS-Tools package.
data_NiCN2
_symmetry_space_group_name_H-M  'P6_3/mmc'
_cell_length_a       3.07052
_cell_length_b       3.07052
_cell_length_c       9.22869
_cell_angle_alpha    90
_cell_angle_beta     90
_cell_angle_gamma    120

_symmetry_Int_Tables_number  194
_chemical_formula_structural  NiCN2
_chemical_formula_sum  Ni2C2N4
_cell_volume  75.35203038283775
_cell_formula_units_Z  2
loop_
  _symmetry_equiv_pos_site_id
 _symmetry_equiv_pos_as_xyz
 1  'x, y, z'
loop_
 _atom_site_type_symbol
 _atom_site_label
 _atom_site_symmetry_multiplicity
 _atom_site_fract_x
 _atom_site_fract_y
 _atom_site_fract_z
 _atom_site_fract_occupancy
 C  C1  1  0.66667  0.33333  0.25000  1
 C  C2  1  0.33333  0.66667  0.75000  1
 N  N1  1  0.66667  0.33333  0.38431  1
 N  N2  1  0.33333  0.66667  0.61569  1
 N  N3  1  0.33333  0.66667  0.88431  1
 N  N4  1  0.66667  0.33333  0.11569  1
 Ni  Ni1  1  0.00000  0.00000  0.50000  1
 Ni  Ni2  1  0.00000  0.00000  0.00000  1
