CIF file written using JARVIS-Tools package.
data_Li4MnSi2O7
_symmetry_space_group_name_H-M  'C2'
_cell_length_a       4.5118
_cell_length_b       5.24796
_cell_length_c       6.84817
_cell_angle_alpha    79.8421
_cell_angle_beta     90
_cell_angle_gamma    64.5412

_symmetry_Int_Tables_number  5
_chemical_formula_structural  Li4MnSi2O7
_chemical_formula_sum  Li4MnSi2O7
_cell_volume  143.58335986685552
_cell_formula_units_Z  1
loop_
  _symmetry_equiv_pos_site_id
 _symmetry_equiv_pos_as_xyz
 1  'x, y, z'
loop_
 _atom_site_type_symbol
 _atom_site_label
 _atom_site_symmetry_multiplicity
 _atom_site_fract_x
 _atom_site_fract_y
 _atom_site_fract_z
 _atom_site_fract_occupancy
 Li  Li1  1  0.16560  0.70116  0.43832  1
 Li  Li2  1  0.71836  0.57598  0.14857  1
 Li  Li3  1  0.29434  0.42402  0.85143  1
 Li  Li4  1  0.86676  0.29884  0.56168  1
 Mn  Mn1  1  0.99905  0.00000  -0.00000  1
 O  O1  1  0.34288  0.89218  0.23134  1
 O  O2  1  0.86406  0.72415  0.89005  1
 O  O3  1  0.49658  0.58818  0.65550  1
 O  O4  1  0.08476  0.41182  0.34450  1
 O  O5  1  0.58821  0.27585  0.10995  1
 O  O6  1  0.23507  0.10782  0.76866  1
 O  O7  1  0.68885  -0.00000  0.50000  1
 Si  Si1  1  0.56782  0.84683  0.70950  1
 Si  Si2  1  0.41466  0.15317  0.29050  1
