CIF file written using JARVIS-Tools package.
data_Sb2Pb2O7
_symmetry_space_group_name_H-M  'Ima2'
_cell_length_a       7.6165
_cell_length_b       7.6165
_cell_length_c       7.6165
_cell_angle_alpha    92.1532
_cell_angle_beta     117.238
_cell_angle_gamma    120.314

_symmetry_Int_Tables_number  46
_chemical_formula_structural  Sb2Pb2O7
_chemical_formula_sum  Sb4Pb4O4
_cell_volume  317.69221761647736
_cell_formula_units_Z  2
loop_
  _symmetry_equiv_pos_site_id
 _symmetry_equiv_pos_as_xyz
 1  'x, y, z'
loop_
 _atom_site_type_symbol
 _atom_site_label
 _atom_site_symmetry_multiplicity
 _atom_site_fract_x
 _atom_site_fract_y
 _atom_site_fract_z
 _atom_site_fract_occupancy
 O  O1  1  0.36820  0.82533  0.30936  1
 O  O2  1  0.10869  0.65978  0.69041  1
 O  O3  1  0.96936  0.41827  0.30959  1
 O  O4  1  0.89565  0.48945  0.90620  1
 O  O5  1  0.96936  0.15978  0.05109  1
 O  O6  1  0.45229  0.64629  0.62630  1
 O  O7  1  0.10869  0.91827  0.94891  1
 O  O8  1  0.45229  0.32599  0.30600  1
 O  O9  1  0.01999  0.14629  0.69400  1
 O  O10  1  0.51597  0.05884  0.69064  1
 O  O11  1  0.58326  0.98945  0.09380  1
 O  O12  1  0.51597  0.32533  0.95713  1
 O  O13  1  0.36820  0.55884  0.04287  1
 O  O14  1  0.01999  0.82599  0.37370  1
 Pb  Pb1  1  0.73129  0.73129  0.00000  1
 Pb  Pb2  1  0.73129  0.23129  0.50000  1
 Pb  Pb3  1  0.78385  0.75174  0.53211  1
 Pb  Pb4  1  0.21963  0.25174  0.46789  1
 Sb  Sb1  1  0.24091  0.24091  0.00000  1
 Sb  Sb2  1  0.24091  0.74091  0.50000  1
 Sb  Sb3  1  0.73701  0.23880  0.99820  1
 Sb  Sb4  1  0.24060  0.73880  0.00180  1
