CIF file written using JARVIS-Tools package.
data_Ta2CuO6
_symmetry_space_group_name_H-M  'P4_2/mnm'
_cell_length_a       4.77657
_cell_length_b       4.77657
_cell_length_c       9.20597
_cell_angle_alpha    90
_cell_angle_beta     90
_cell_angle_gamma    90

_symmetry_Int_Tables_number  136
_chemical_formula_structural  Ta2CuO6
_chemical_formula_sum  Ta4Cu2O2
_cell_volume  210.0401501765332
_cell_formula_units_Z  2
loop_
  _symmetry_equiv_pos_site_id
 _symmetry_equiv_pos_as_xyz
 1  'x, y, z'
loop_
 _atom_site_type_symbol
 _atom_site_label
 _atom_site_symmetry_multiplicity
 _atom_site_fract_x
 _atom_site_fract_y
 _atom_site_fract_z
 _atom_site_fract_occupancy
 Cu  Cu1  1  0.50000  0.50000  0.50000  1
 Cu  Cu2  1  0.00000  0.00000  0.00000  1
 O  O1  1  0.18963  0.81037  0.50000  1
 O  O2  1  0.70374  0.70374  0.67577  1
 O  O3  1  0.29626  0.29626  0.67577  1
 O  O4  1  0.29626  0.29626  0.32423  1
 O  O5  1  0.20374  0.79626  0.17577  1
 O  O6  1  0.70374  0.70374  0.32423  1
 O  O7  1  0.79626  0.20374  0.82423  1
 O  O8  1  0.20374  0.79626  0.82423  1
 O  O9  1  0.79626  0.20374  0.17577  1
 O  O10  1  0.81037  0.18963  0.50000  1
 O  O11  1  0.68963  0.68963  0.00000  1
 O  O12  1  0.31037  0.31037  0.00000  1
 Ta  Ta1  1  0.00000  0.00000  0.33176  1
 Ta  Ta2  1  0.50000  0.50000  0.83176  1
 Ta  Ta3  1  0.50000  0.50000  0.16824  1
 Ta  Ta4  1  0.00000  0.00000  0.66824  1
