CIF file written using JARVIS-Tools package.
data_Si2Mo
_symmetry_space_group_name_H-M  'P6_222'
_cell_length_a       4.64654
_cell_length_b       4.64654
_cell_length_c       6.63842
_cell_angle_alpha    90
_cell_angle_beta     90
_cell_angle_gamma    120

_symmetry_Int_Tables_number  180
_chemical_formula_structural  Si2Mo
_chemical_formula_sum  Si6Mo3
_cell_volume  124.12382742198396
_cell_formula_units_Z  3
loop_
  _symmetry_equiv_pos_site_id
 _symmetry_equiv_pos_as_xyz
 1  'x, y, z'
loop_
 _atom_site_type_symbol
 _atom_site_label
 _atom_site_symmetry_multiplicity
 _atom_site_fract_x
 _atom_site_fract_y
 _atom_site_fract_z
 _atom_site_fract_occupancy
 Mo  Mo1  1  0.50000  0.00000  0.50000  1
 Mo  Mo2  1  0.00000  0.50000  0.16667  1
 Mo  Mo3  1  0.50000  0.50000  0.83333  1
 Si  Si1  1  0.16415  0.83585  0.83333  1
 Si  Si2  1  0.32830  0.16415  0.16667  1
 Si  Si3  1  0.83585  0.67170  0.50000  1
 Si  Si4  1  0.83585  0.16415  0.83333  1
 Si  Si5  1  0.67170  0.83585  0.16667  1
 Si  Si6  1  0.16415  0.32830  0.50000  1
