CIF file written using JARVIS-Tools package.
data_LiFeO2
_symmetry_space_group_name_H-M  'R-3m'
_cell_length_a       4.97694
_cell_length_b       4.97694
_cell_length_c       4.97695
_cell_angle_alpha    33.0104
_cell_angle_beta     33.0104
_cell_angle_gamma    33.0104

_symmetry_Int_Tables_number  166
_chemical_formula_structural  LiFeO2
_chemical_formula_sum  LiFeO2
_cell_volume  32.56134180705715
_cell_formula_units_Z  1
loop_
  _symmetry_equiv_pos_site_id
 _symmetry_equiv_pos_as_xyz
 1  'x, y, z'
loop_
 _atom_site_type_symbol
 _atom_site_label
 _atom_site_symmetry_multiplicity
 _atom_site_fract_x
 _atom_site_fract_y
 _atom_site_fract_z
 _atom_site_fract_occupancy
 Fe  Fe1  1  0.50000  0.50000  0.50000  1
 Li  Li1  1  0.00000  0.00000  0.00000  1
 O  O1  1  0.24148  0.24148  0.24148  1
 O  O2  1  0.75852  0.75852  0.75852  1
