CIF file written using JARVIS-Tools package.
data_H4C6S
_symmetry_space_group_name_H-M  'P1'
_cell_length_a       3.99852
_cell_length_b       6.25093
_cell_length_c       9.80697
_cell_angle_alpha    86.3248
_cell_angle_beta     81.8373
_cell_angle_gamma    88.1211

_symmetry_Int_Tables_number  1
_chemical_formula_structural  H4C6S
_chemical_formula_sum  H8C2S2
_cell_volume  242.06793585289773
_cell_formula_units_Z  2
loop_
  _symmetry_equiv_pos_site_id
 _symmetry_equiv_pos_as_xyz
 1  'x, y, z'
loop_
 _atom_site_type_symbol
 _atom_site_label
 _atom_site_symmetry_multiplicity
 _atom_site_fract_x
 _atom_site_fract_y
 _atom_site_fract_z
 _atom_site_fract_occupancy
 C  C1  1  0.60919  0.37326  0.45028  1
 C  C2  1  0.63835  0.28099  0.59158  1
 C  C3  1  0.28928  0.70794  0.82296  1
 C  C4  1  0.33645  0.60686  0.69788  1
 C  C5  1  0.52388  0.41551  0.70296  1
 C  C6  1  0.48141  0.69723  0.05668  1
 C  C7  1  0.43995  0.59692  0.92559  1
 C  C8  1  0.69160  0.67579  0.28243  1
 C  C9  1  0.47685  0.25959  0.35194  1
 C  C10  1  0.44059  0.35664  0.22225  1
 C  C11  1  0.72060  0.58234  0.41229  1
 C  C12  1  0.54467  0.56732  0.18616  1
 H  H1  1  0.31754  0.26962  0.15092  1
 H  H2  1  0.38508  0.09847  0.38088  1
 H  H3  1  0.77804  0.83931  0.25663  1
 H  H4  1  0.83140  0.67362  0.48444  1
 H  H5  1  0.25407  0.79997  0.08309  1
 H  H6  1  0.15935  0.86255  0.83645  1
 H  H7  1  0.24165  0.67139  0.60504  1
 H  H8  1  0.68848  0.81218  0.03032  1
 S  S1  1  0.62852  0.35907  0.86938  1
 S  S2  1  0.81765  0.04168  0.61807  1
