CIF file written using JARVIS-Tools package.
data_UCO5
_symmetry_space_group_name_H-M  'Imm2'
_cell_length_a       4.29646
_cell_length_b       4.8693
_cell_length_c       5.59298
_cell_angle_alpha    115.805
_cell_angle_beta     112.588
_cell_angle_gamma    90

_symmetry_Int_Tables_number  44
_chemical_formula_structural  UCO5
_chemical_formula_sum  UCO5
_cell_volume  95.27331835950699
_cell_formula_units_Z  1
loop_
  _symmetry_equiv_pos_site_id
 _symmetry_equiv_pos_as_xyz
 1  'x, y, z'
loop_
 _atom_site_type_symbol
 _atom_site_label
 _atom_site_symmetry_multiplicity
 _atom_site_fract_x
 _atom_site_fract_y
 _atom_site_fract_z
 _atom_site_fract_occupancy
 C  C1  1  0.38122  0.50000  -0.00000  1
 O  O1  1  0.79970  0.80256  0.60513  1
 O  O2  1  0.07801  0.50000  0.00000  1
 O  O3  1  0.19458  0.19744  0.39487  1
 O  O4  1  0.51102  0.26340  -0.00000  1
 O  O5  1  0.51102  0.73660  -0.00000  1
 U  U1  1  0.99374  -0.00000  0.00000  1
