CIF file written using JARVIS-Tools package.
data_Li2AgF3
_symmetry_space_group_name_H-M  'P6_3/mcm'
_cell_length_a       5.31674
_cell_length_b       5.31674
_cell_length_c       5.33523
_cell_angle_alpha    90
_cell_angle_beta     90
_cell_angle_gamma    119.961

_symmetry_Int_Tables_number  193
_chemical_formula_structural  Li2AgF3
_chemical_formula_sum  Li4Ag2F6
_cell_volume  130.6616029697942
_cell_formula_units_Z  2
loop_
  _symmetry_equiv_pos_site_id
 _symmetry_equiv_pos_as_xyz
 1  'x, y, z'
loop_
 _atom_site_type_symbol
 _atom_site_label
 _atom_site_symmetry_multiplicity
 _atom_site_fract_x
 _atom_site_fract_y
 _atom_site_fract_z
 _atom_site_fract_occupancy
 Ag  Ag1  1  0.49971  0.49971  0.75000  1
 Ag  Ag2  1  0.50029  0.50029  0.25000  1
 F  F1  1  0.07504  0.49991  0.25000  1
 F  F2  1  0.07505  0.07505  0.75000  1
 F  F3  1  0.50009  0.92496  0.75000  1
 F  F4  1  0.49991  0.07504  0.25000  1
 F  F5  1  0.92495  0.92495  0.25000  1
 F  F6  1  0.92496  0.50009  0.75000  1
 Li  Li1  1  0.16665  0.83335  0.00000  1
 Li  Li2  1  0.16665  0.83335  0.50000  1
 Li  Li3  1  0.83335  0.16665  0.00000  1
 Li  Li4  1  0.83335  0.16665  0.50000  1
