CIF file written using JARVIS-Tools package.
data_FeCoO4
_symmetry_space_group_name_H-M  'P2/c'
_cell_length_a       4.14473
_cell_length_b       5.30371
_cell_length_c       4.755
_cell_angle_alpha    90
_cell_angle_beta     89.8792
_cell_angle_gamma    90

_symmetry_Int_Tables_number  13
_chemical_formula_structural  FeCoO4
_chemical_formula_sum  Fe2Co2O8
_cell_volume  104.52640769173344
_cell_formula_units_Z  2
loop_
  _symmetry_equiv_pos_site_id
 _symmetry_equiv_pos_as_xyz
 1  'x, y, z'
loop_
 _atom_site_type_symbol
 _atom_site_label
 _atom_site_symmetry_multiplicity
 _atom_site_fract_x
 _atom_site_fract_y
 _atom_site_fract_z
 _atom_site_fract_occupancy
 Co  Co1  1  0.50000  0.64264  0.25000  1
 Co  Co2  1  0.50000  0.35736  0.75000  1
 Fe  Fe1  1  -0.00000  0.14659  0.25000  1
 Fe  Fe2  1  -0.00000  0.85341  0.75000  1
 O  O1  1  0.23959  0.88706  0.07759  1
 O  O2  1  0.25810  0.38681  0.08067  1
 O  O3  1  0.74190  0.38681  0.41933  1
 O  O4  1  0.76041  0.88706  0.42241  1
 O  O5  1  0.23959  0.11294  0.57759  1
 O  O6  1  0.25810  0.61319  0.58067  1
 O  O7  1  0.74190  0.61319  0.91933  1
 O  O8  1  0.76041  0.11294  0.92241  1
