CIF file written using JARVIS-Tools package.
data_HgO
_symmetry_space_group_name_H-M  'P3_121'
_cell_length_a       3.66339
_cell_length_b       3.66339
_cell_length_c       8.87947
_cell_angle_alpha    90
_cell_angle_beta     90
_cell_angle_gamma    120

_symmetry_Int_Tables_number  152
_chemical_formula_structural  HgO
_chemical_formula_sum  Hg3O3
_cell_volume  103.20086878597104
_cell_formula_units_Z  3
loop_
  _symmetry_equiv_pos_site_id
 _symmetry_equiv_pos_as_xyz
 1  'x, y, z'
loop_
 _atom_site_type_symbol
 _atom_site_label
 _atom_site_symmetry_multiplicity
 _atom_site_fract_x
 _atom_site_fract_y
 _atom_site_fract_z
 _atom_site_fract_occupancy
 Hg  Hg1  1  0.23886  0.00000  0.83333  1
 Hg  Hg2  1  0.00000  0.23886  0.16667  1
 Hg  Hg3  1  0.76114  0.76114  0.50000  1
 O  O1  1  0.54511  -0.00000  0.33333  1
 O  O2  1  -0.00000  0.54511  0.66667  1
 O  O3  1  0.45489  0.45489  0.00000  1
