CIF file written using JARVIS-Tools package.
data_YCuF5
_symmetry_space_group_name_H-M  'Immm'
_cell_length_a       4.19827
_cell_length_b       5.68741
_cell_length_c       5.68742
_cell_angle_alpha    74.189
_cell_angle_beta     68.3409
_cell_angle_gamma    68.3408

_symmetry_Int_Tables_number  71
_chemical_formula_structural  YCuF5
_chemical_formula_sum  YCuF5
_cell_volume  115.8328272509032
_cell_formula_units_Z  1
loop_
  _symmetry_equiv_pos_site_id
 _symmetry_equiv_pos_as_xyz
 1  'x, y, z'
loop_
 _atom_site_type_symbol
 _atom_site_label
 _atom_site_symmetry_multiplicity
 _atom_site_fract_x
 _atom_site_fract_y
 _atom_site_fract_z
 _atom_site_fract_occupancy
 Cu  Cu1  1  0.00000  0.00000  0.00000  1
 F  F1  1  0.50000  0.81629  0.18371  1
 F  F2  1  0.50000  0.18371  0.81629  1
 F  F3  1  0.77357  0.22643  0.22643  1
 F  F4  1  0.22643  0.77357  0.77357  1
 F  F5  1  -0.00000  0.50000  0.50000  1
 Y  Y1  1  0.50000  0.50000  0.50000  1
