CIF file written using JARVIS-Tools package.
data_CuBr
_symmetry_space_group_name_H-M  'I-4m2'
_cell_length_a       4.01868
_cell_length_b       4.01868
_cell_length_c       4.01869
_cell_angle_alpha    119.671
_cell_angle_beta     90.5706
_cell_angle_gamma    119.671

_symmetry_Int_Tables_number  119
_chemical_formula_structural  CuBr
_chemical_formula_sum  CuBr
_cell_volume  46.117620590603806
_cell_formula_units_Z  1
loop_
  _symmetry_equiv_pos_site_id
 _symmetry_equiv_pos_as_xyz
 1  'x, y, z'
loop_
 _atom_site_type_symbol
 _atom_site_label
 _atom_site_symmetry_multiplicity
 _atom_site_fract_x
 _atom_site_fract_y
 _atom_site_fract_z
 _atom_site_fract_occupancy
 Br  Br1  1  0.00000  0.00000  0.00000  1
 Cu  Cu1  1  0.75000  0.50000  0.25000  1
