CIF file written using JARVIS-Tools package.
data_Te4MoW2S2
_symmetry_space_group_name_H-M  'P-6m2'
_cell_length_a       3.43896
_cell_length_b       3.43898
_cell_length_c       21.1543
_cell_angle_alpha    90
_cell_angle_beta     90
_cell_angle_gamma    120

_symmetry_Int_Tables_number  187
_chemical_formula_structural  Te4MoW2S2
_chemical_formula_sum  Te4MoW2S2
_cell_volume  216.66379415521462
_cell_formula_units_Z  1
loop_
  _symmetry_equiv_pos_site_id
 _symmetry_equiv_pos_as_xyz
 1  'x, y, z'
loop_
 _atom_site_type_symbol
 _atom_site_label
 _atom_site_symmetry_multiplicity
 _atom_site_fract_x
 _atom_site_fract_y
 _atom_site_fract_z
 _atom_site_fract_occupancy
 Mo  Mo1  1  0.66662  0.33323  0.34698  1
 S  S1  1  0.33328  0.66656  0.41747  1
 S  S2  1  0.33328  0.66656  0.27650  1
 Te  Te1  1  0.66668  0.33337  0.94570  1
 Te  Te2  1  0.66668  0.33336  0.57125  1
 Te  Te3  1  0.66668  0.33336  0.12272  1
 Te  Te4  1  0.66668  0.33337  0.74826  1
 W  W1  1  0.33335  0.66669  0.03415  1
 W  W2  1  0.33335  0.66669  0.65981  1
