CIF file written using JARVIS-Tools package.
data_Yb2Ge2Ir
_symmetry_space_group_name_H-M  'C2/m'
_cell_length_a       4.29981
_cell_length_b       5.8084
_cell_length_c       9.25663
_cell_angle_alpha    82.2054
_cell_angle_beta     76.5701
_cell_angle_gamma    68.2759

_symmetry_Int_Tables_number  12
_chemical_formula_structural  Yb2Ge2Ir
_chemical_formula_sum  Yb4Ge4Ir2
_cell_volume  208.57623840638794
_cell_formula_units_Z  2
loop_
  _symmetry_equiv_pos_site_id
 _symmetry_equiv_pos_as_xyz
 1  'x, y, z'
loop_
 _atom_site_type_symbol
 _atom_site_label
 _atom_site_symmetry_multiplicity
 _atom_site_fract_x
 _atom_site_fract_y
 _atom_site_fract_z
 _atom_site_fract_occupancy
 Ge  Ge1  1  0.48591  0.14728  0.88090  1
 Ge  Ge2  1  0.35259  0.73361  0.56121  1
 Ge  Ge3  1  0.51409  0.85272  0.11910  1
 Ge  Ge4  1  0.64741  0.26639  0.43879  1
 Ir  Ir1  1  0.72380  0.91495  0.63745  1
 Ir  Ir2  1  0.27620  0.08505  0.36255  1
 Yb  Yb1  1  0.81574  0.25730  0.11122  1
 Yb  Yb2  1  0.00194  0.67007  0.32605  1
 Yb  Yb3  1  0.18426  0.74270  0.88878  1
 Yb  Yb4  1  0.99806  0.32993  0.67395  1
