CIF file written using JARVIS-Tools package.
data_Li2BiO3
_symmetry_space_group_name_H-M  'C2/m'
_cell_length_a       3.46037
_cell_length_b       4.44842
_cell_length_c       5.36347
_cell_angle_alpha    114.504
_cell_angle_beta     90.1879
_cell_angle_gamma    90.0001

_symmetry_Int_Tables_number  12
_chemical_formula_structural  Li2BiO3
_chemical_formula_sum  Li2BiO3
_cell_volume  75.12395800408017
_cell_formula_units_Z  1
loop_
  _symmetry_equiv_pos_site_id
 _symmetry_equiv_pos_as_xyz
 1  'x, y, z'
loop_
 _atom_site_type_symbol
 _atom_site_label
 _atom_site_symmetry_multiplicity
 _atom_site_fract_x
 _atom_site_fract_y
 _atom_site_fract_z
 _atom_site_fract_occupancy
 Bi  Bi1  1  0.99908  0.00084  0.00110  1
 Li  Li1  1  0.49948  0.65651  0.31210  1
 Li  Li2  1  0.49877  0.34554  0.69014  1
 O  O1  1  0.50062  0.15032  0.30049  1
 O  O2  1  0.49751  0.85096  0.70172  1
 O  O3  1  -0.00098  0.50080  0.00108  1
