CIF file written using JARVIS-Tools package.
data_Dy2Se3
_symmetry_space_group_name_H-M  'Pnma'
_cell_length_a       4.01068
_cell_length_b       10.9475
_cell_length_c       11.1187
_cell_angle_alpha    90
_cell_angle_beta     90
_cell_angle_gamma    90

_symmetry_Int_Tables_number  62
_chemical_formula_structural  Dy2Se3
_chemical_formula_sum  Dy8Se2
_cell_volume  488.18647741440054
_cell_formula_units_Z  4
loop_
  _symmetry_equiv_pos_site_id
 _symmetry_equiv_pos_as_xyz
 1  'x, y, z'
loop_
 _atom_site_type_symbol
 _atom_site_label
 _atom_site_symmetry_multiplicity
 _atom_site_fract_x
 _atom_site_fract_y
 _atom_site_fract_z
 _atom_site_fract_occupancy
 Dy  Dy1  1  0.25000  0.99868  0.80606  1
 Dy  Dy2  1  0.75000  0.00132  0.19394  1
 Dy  Dy3  1  0.75000  0.49868  0.69394  1
 Dy  Dy4  1  0.25000  0.50132  0.30606  1
 Dy  Dy5  1  0.25000  0.18746  0.48659  1
 Dy  Dy6  1  0.75000  0.81254  0.51341  1
 Dy  Dy7  1  0.75000  0.68746  0.01341  1
 Dy  Dy8  1  0.25000  0.31254  0.98659  1
 Se  Se1  1  0.25000  0.30379  0.72621  1
 Se  Se2  1  0.75000  0.37454  0.45510  1
 Se  Se3  1  0.75000  0.80379  0.77379  1
 Se  Se4  1  0.25000  0.19621  0.22621  1
 Se  Se5  1  0.75000  0.69621  0.27379  1
 Se  Se6  1  0.25000  0.87454  0.04490  1
 Se  Se7  1  0.75000  0.44379  0.11875  1
 Se  Se8  1  0.25000  0.55621  0.88125  1
 Se  Se9  1  0.25000  0.94379  0.38125  1
 Se  Se10  1  0.75000  0.12546  0.95510  1
 Se  Se11  1  0.75000  0.05621  0.61875  1
 Se  Se12  1  0.25000  0.62546  0.54490  1
