CIF file written using JARVIS-Tools package.
data_H4C7O
_symmetry_space_group_name_H-M  'P2_1/c'
_cell_length_a       7.81729
_cell_length_b       3.76726
_cell_length_c       15.5758
_cell_angle_alpha    90
_cell_angle_beta     102.419
_cell_angle_gamma    90

_symmetry_Int_Tables_number  14
_chemical_formula_structural  H4C7O
_chemical_formula_sum  H6C28O4
_cell_volume  447.970164641013
_cell_formula_units_Z  4
loop_
  _symmetry_equiv_pos_site_id
 _symmetry_equiv_pos_as_xyz
 1  'x, y, z'
loop_
 _atom_site_type_symbol
 _atom_site_label
 _atom_site_symmetry_multiplicity
 _atom_site_fract_x
 _atom_site_fract_y
 _atom_site_fract_z
 _atom_site_fract_occupancy
 C  C1  1  0.82393  0.35900  0.47454  1
 C  C2  1  0.88447  0.51646  0.56329  1
 C  C3  1  0.88447  0.98354  0.06329  1
 C  C4  1  0.17607  0.64100  0.52546  1
 C  C5  1  0.11553  0.01646  0.93671  1
 C  C6  1  0.17607  0.85900  0.02546  1
 C  C7  1  0.82393  0.14100  0.97454  1
 C  C8  1  0.93438  0.34202  0.41386  1
 C  C9  1  0.06562  0.65798  0.58614  1
 C  C10  1  0.06562  0.84202  0.08614  1
 C  C11  1  0.93438  0.15798  0.91386  1
 C  C12  1  0.12856  0.80849  0.66910  1
 C  C13  1  0.59194  0.07463  0.36837  1
 C  C14  1  0.87144  0.30849  0.83090  1
 C  C15  1  0.65335  0.27398  0.95084  1
 C  C16  1  0.34665  0.72602  0.04916  1
 C  C17  1  0.34665  0.77398  0.54916  1
 C  C18  1  0.65335  0.22602  0.45084  1
 C  C19  1  0.12856  0.69151  0.16910  1
 C  C20  1  0.40806  0.57463  0.13163  1
 C  C21  1  0.59194  0.42537  0.86837  1
 C  C22  1  0.70139  0.44184  0.80824  1
 C  C23  1  0.29861  0.55816  0.19176  1
 C  C24  1  0.29861  0.94184  0.69176  1
 C  C25  1  0.70139  0.05816  0.30824  1
 C  C26  1  0.40806  0.92537  0.63163  1
 C  C27  1  0.11553  0.48354  0.43671  1
 C  C28  1  0.87144  0.19151  0.33090  1
 H  H1  1  0.57049  0.25518  0.99840  1
 H  H2  1  0.45906  0.96902  0.35145  1
 H  H3  1  0.95728  0.17879  0.28445  1
 H  H4  1  0.04272  0.67879  0.21555  1
 H  H5  1  0.95728  0.32121  0.78445  1
 H  H6  1  0.65585  0.94142  0.24352  1
 H  H7  1  0.34415  0.05858  0.75648  1
 H  H8  1  0.65585  0.55858  0.74352  1
 H  H9  1  0.34415  0.44142  0.25648  1
 H  H10  1  0.54094  0.03098  0.64855  1
 H  H11  1  0.54094  0.46902  0.14855  1
 H  H12  1  0.45906  0.53098  0.85145  1
 H  H13  1  0.57049  0.24482  0.49840  1
 H  H14  1  0.42951  0.75518  0.50160  1
 H  H15  1  0.42951  0.74482  0.00160  1
 H  H16  1  0.04272  0.82121  0.71555  1
 O  O1  1  0.78694  0.97208  0.11645  1
 O  O2  1  0.78694  0.52792  0.61645  1
 O  O3  1  0.21306  0.02792  0.88355  1
 O  O4  1  0.21306  0.47208  0.38355  1
