CIF file written using JARVIS-Tools package.
data_Li3ZrNbTe2O12
_symmetry_space_group_name_H-M  'P1'
_cell_length_a       5.1588
_cell_length_b       5.51282
_cell_length_c       7.57278
_cell_angle_alpha    94.9973
_cell_angle_beta     90.2068
_cell_angle_gamma    90.0124

_symmetry_Int_Tables_number  1
_chemical_formula_structural  Li3ZrNbTe2O12
_chemical_formula_sum  Li3ZrNbTe2O2
_cell_volume  214.54641586166395
_cell_formula_units_Z  1
loop_
  _symmetry_equiv_pos_site_id
 _symmetry_equiv_pos_as_xyz
 1  'x, y, z'
loop_
 _atom_site_type_symbol
 _atom_site_label
 _atom_site_symmetry_multiplicity
 _atom_site_fract_x
 _atom_site_fract_y
 _atom_site_fract_z
 _atom_site_fract_occupancy
 Li  Li1  1  0.50207  0.05080  0.72286  1
 Li  Li2  1  0.00201  0.55265  0.72972  1
 Li  Li3  1  0.99655  0.59001  0.20730  1
 Nb  Nb1  1  0.50104  0.48695  0.48808  1
 O  O1  1  0.81954  0.67620  0.44394  1
 O  O2  1  0.62685  0.48715  0.75202  1
 O  O3  1  0.30002  0.79866  0.57674  1
 O  O4  1  0.86976  0.97789  0.74084  1
 O  O5  1  0.69028  0.17608  0.45117  1
 O  O6  1  0.33497  0.19036  0.93557  1
 O  O7  1  0.11642  0.97325  0.26802  1
 O  O8  1  0.80602  0.33033  0.07268  1
 O  O9  1  0.18947  0.66827  0.94549  1
 O  O10  1  0.36535  0.48927  0.24762  1
 O  O11  1  0.68834  0.79164  0.06384  1
 O  O12  1  0.18675  0.29491  0.57252  1
 Te  Te1  1  0.00138  0.99265  0.50456  1
 Te  Te2  1  0.50232  0.50025  0.99682  1
 Zr  Zr1  1  0.00087  0.01308  0.00999  1
