CIF file written using JARVIS-Tools package.
data_BN
_symmetry_space_group_name_H-M  'Cc'
_cell_length_a       3.20534
_cell_length_b       4.34964
_cell_length_c       4.99594
_cell_angle_alpha    85.0102
_cell_angle_beta     71.289
_cell_angle_gamma    74.2684

_symmetry_Int_Tables_number  9
_chemical_formula_structural  BN
_chemical_formula_sum  B4N4
_cell_volume  63.50137607823476
_cell_formula_units_Z  4
loop_
  _symmetry_equiv_pos_site_id
 _symmetry_equiv_pos_as_xyz
 1  'x, y, z'
loop_
 _atom_site_type_symbol
 _atom_site_label
 _atom_site_symmetry_multiplicity
 _atom_site_fract_x
 _atom_site_fract_y
 _atom_site_fract_z
 _atom_site_fract_occupancy
 B  B1  1  0.56613  0.99981  0.86853  1
 B  B2  1  0.43466  0.49981  0.13147  1
 B  B3  1  0.56453  0.50810  0.61351  1
 B  B4  1  0.17804  0.00810  0.38649  1
 N  N1  1  0.77773  0.15958  0.60895  1
 N  N2  1  0.38667  0.65958  0.39105  1
 N  N3  1  0.51072  0.67861  0.86860  1
 N  N4  1  0.37932  0.17861  0.13140  1
