CIF file written using JARVIS-Tools package.
data_CaSm2O4
_symmetry_space_group_name_H-M  'Fd-3m'
_cell_length_a       6.97028
_cell_length_b       6.97028
_cell_length_c       6.97082
_cell_angle_alpha    60.0026
_cell_angle_beta     60.0026
_cell_angle_gamma    90

_symmetry_Int_Tables_number  227
_chemical_formula_structural  CaSm2O4
_chemical_formula_sum  Ca2Sm4O8
_cell_volume  239.4986838988239
_cell_formula_units_Z  2
loop_
  _symmetry_equiv_pos_site_id
 _symmetry_equiv_pos_as_xyz
 1  'x, y, z'
loop_
 _atom_site_type_symbol
 _atom_site_label
 _atom_site_symmetry_multiplicity
 _atom_site_fract_x
 _atom_site_fract_y
 _atom_site_fract_z
 _atom_site_fract_occupancy
 Ca  Ca1  1  0.37500  0.12500  0.75000  1
 Ca  Ca2  1  0.62500  0.87500  0.25000  1
 O  O1  1  0.23877  0.26114  0.02244  1
 O  O2  1  0.78359  0.26123  0.47756  1
 O  O3  1  0.23886  0.26121  0.47756  1
 O  O4  1  0.76121  0.28359  0.97756  1
 O  O5  1  0.23879  0.71641  0.02244  1
 O  O6  1  0.76114  0.73879  0.52244  1
 O  O7  1  0.21641  0.73877  0.52244  1
 O  O8  1  0.76123  0.73886  0.97756  1
 Sm  Sm1  1  0.00000  0.00000  0.50000  1
 Sm  Sm2  1  0.50000  0.50000  0.00000  1
 Sm  Sm3  1  0.00000  0.50000  0.00000  1
 Sm  Sm4  1  0.00000  0.50000  0.50000  1
