CIF file written using JARVIS-Tools package.
data_Ag2S
_symmetry_space_group_name_H-M  'Cmcm'
_cell_length_a       4.22885
_cell_length_b       4.22881
_cell_length_c       7.39429
_cell_angle_alpha    89.9449
_cell_angle_beta     89.9414
_cell_angle_gamma    68.7856

_symmetry_Int_Tables_number  63
_chemical_formula_structural  Ag2S
_chemical_formula_sum  Ag4S2
_cell_volume  123.27106161949396
_cell_formula_units_Z  2
loop_
  _symmetry_equiv_pos_site_id
 _symmetry_equiv_pos_as_xyz
 1  'x, y, z'
loop_
 _atom_site_type_symbol
 _atom_site_label
 _atom_site_symmetry_multiplicity
 _atom_site_fract_x
 _atom_site_fract_y
 _atom_site_fract_z
 _atom_site_fract_occupancy
 Ag  Ag1  1  0.76051  0.71881  0.73956  1
 Ag  Ag2  1  0.37551  0.33382  0.98966  1
 Ag  Ag3  1  0.14531  0.10370  0.48946  1
 Ag  Ag4  1  0.76039  0.71866  0.23959  1
 S  S1  1  0.53598  0.49434  0.48984  1
 S  S2  1  0.98481  0.94316  0.98940  1
