CIF file written using JARVIS-Tools package.
data_Te2MoW2Se4
_symmetry_space_group_name_H-M  'Cm'
_cell_length_a       3.40754
_cell_length_b       3.40752
_cell_length_c       20.5027
_cell_angle_alpha    94.7901
_cell_angle_beta     85.2034
_cell_angle_gamma    120

_symmetry_Int_Tables_number  8
_chemical_formula_structural  Te2MoW2Se4
_chemical_formula_sum  Te2MoW2Se4
_cell_volume  205.20657525426952
_cell_formula_units_Z  1
loop_
  _symmetry_equiv_pos_site_id
 _symmetry_equiv_pos_as_xyz
 1  'x, y, z'
loop_
 _atom_site_type_symbol
 _atom_site_label
 _atom_site_symmetry_multiplicity
 _atom_site_fract_x
 _atom_site_fract_y
 _atom_site_fract_z
 _atom_site_fract_occupancy
 Mo  Mo1  1  0.66892  0.33127  0.34090  1
 Se  Se1  1  0.30841  0.69162  0.42165  1
 Se  Se2  1  0.80347  0.19765  0.93999  1
 Se  Se3  1  0.74898  0.25198  0.10215  1
 Se  Se4  1  0.36272  0.63761  0.26022  1
 Te  Te1  1  0.58588  0.41295  0.58661  1
 Te  Te2  1  0.52382  0.47475  0.77124  1
 W  W1  1  0.44289  0.55815  0.02109  1
 W  W2  1  0.22151  0.77720  0.67898  1
