CIF file written using JARVIS-Tools package.
data_Na4CO4
_symmetry_space_group_name_H-M  'C2'
_cell_length_a       5.39464
_cell_length_b       5.25314
_cell_length_c       5.26795
_cell_angle_alpha    119.907
_cell_angle_beta     112.876
_cell_angle_gamma    90

_symmetry_Int_Tables_number  5
_chemical_formula_structural  Na4CO4
_chemical_formula_sum  Na4CO4
_cell_volume  115.66459733715675
_cell_formula_units_Z  1
loop_
  _symmetry_equiv_pos_site_id
 _symmetry_equiv_pos_as_xyz
 1  'x, y, z'
loop_
 _atom_site_type_symbol
 _atom_site_label
 _atom_site_symmetry_multiplicity
 _atom_site_fract_x
 _atom_site_fract_y
 _atom_site_fract_z
 _atom_site_fract_occupancy
 C  C1  1  -0.00000  0.77420  -0.00000  1
 Na  Na1  1  0.46610  0.74795  0.68223  1
 Na  Na2  1  0.53390  0.06571  0.31777  1
 Na  Na3  1  0.88199  0.49006  0.26375  1
 Na  Na4  1  0.11801  0.22631  0.73625  1
 O  O1  1  0.11033  0.84213  0.83114  1
 O  O2  1  0.88967  0.01099  0.16886  1
 O  O3  1  0.21545  0.72626  0.22741  1
 O  O4  1  0.78455  0.49884  0.77259  1
