CIF file written using JARVIS-Tools package.
data_Nb3B4
_symmetry_space_group_name_H-M  'Immm'
_cell_length_a       3.15633
_cell_length_b       3.33946
_cell_length_c       7.45542
_cell_angle_alpha    102.941
_cell_angle_beta     102.22
_cell_angle_gamma    90.0021

_symmetry_Int_Tables_number  71
_chemical_formula_structural  Nb3B4
_chemical_formula_sum  Nb3B4
_cell_volume  74.75921734092836
_cell_formula_units_Z  1
loop_
  _symmetry_equiv_pos_site_id
 _symmetry_equiv_pos_as_xyz
 1  'x, y, z'
loop_
 _atom_site_type_symbol
 _atom_site_label
 _atom_site_symmetry_multiplicity
 _atom_site_fract_x
 _atom_site_fract_y
 _atom_site_fract_z
 _atom_site_fract_occupancy
 B  B1  1  0.93584  0.43584  0.87167  1
 B  B2  1  0.06416  0.56416  0.12833  1
 B  B3  1  0.36847  0.36847  0.73696  1
 B  B4  1  0.63153  0.63153  0.26304  1
 Nb  Nb1  1  0.18530  0.18530  0.37062  1
 Nb  Nb2  1  0.81470  0.81470  0.62938  1
 Nb  Nb3  1  0.50000  0.00000  -0.00000  1
