CIF file written using JARVIS-Tools package.
data_GeO2
_symmetry_space_group_name_H-M  'P3_221'
_cell_length_a       4.98359
_cell_length_b       4.98359
_cell_length_c       5.74111
_cell_angle_alpha    90
_cell_angle_beta     90
_cell_angle_gamma    120

_symmetry_Int_Tables_number  154
_chemical_formula_structural  GeO2
_chemical_formula_sum  Ge3O6
_cell_volume  123.48419258613838
_cell_formula_units_Z  3
loop_
  _symmetry_equiv_pos_site_id
 _symmetry_equiv_pos_as_xyz
 1  'x, y, z'
loop_
 _atom_site_type_symbol
 _atom_site_label
 _atom_site_symmetry_multiplicity
 _atom_site_fract_x
 _atom_site_fract_y
 _atom_site_fract_z
 _atom_site_fract_occupancy
 Ge  Ge1  1  0.44677  0.44677  0.00000  1
 Ge  Ge2  1  0.55323  0.00000  0.66667  1
 Ge  Ge3  1  0.00000  0.55323  0.33333  1
 O  O1  1  0.60929  0.69042  0.75265  1
 O  O2  1  0.08114  0.39071  0.08598  1
 O  O3  1  0.30958  0.91886  0.41931  1
 O  O4  1  0.69042  0.60929  0.24735  1
 O  O5  1  0.91886  0.30958  0.58069  1
 O  O6  1  0.39071  0.08114  0.91402  1
