CIF file written using JARVIS-Tools package.
data_TlPt2Se3
_symmetry_space_group_name_H-M  'P-3m1'
_cell_length_a       7.53388
_cell_length_b       7.53388
_cell_length_c       5.8537
_cell_angle_alpha    90
_cell_angle_beta     90
_cell_angle_gamma    120

_symmetry_Int_Tables_number  164
_chemical_formula_structural  TlPt2Se3
_chemical_formula_sum  Tl2Pt4Se6
_cell_volume  287.73863426984343
_cell_formula_units_Z  2
loop_
  _symmetry_equiv_pos_site_id
 _symmetry_equiv_pos_as_xyz
 1  'x, y, z'
loop_
 _atom_site_type_symbol
 _atom_site_label
 _atom_site_symmetry_multiplicity
 _atom_site_fract_x
 _atom_site_fract_y
 _atom_site_fract_z
 _atom_site_fract_occupancy
 Pt  Pt1  1  0.00000  0.00000  0.00000  1
 Pt  Pt2  1  0.50000  0.00000  0.00000  1
 Pt  Pt3  1  0.00000  0.50000  0.00000  1
 Pt  Pt4  1  0.50000  0.50000  0.00000  1
 Se  Se1  1  0.16926  0.83074  0.78303  1
 Se  Se2  1  0.16926  0.33852  0.78303  1
 Se  Se3  1  0.66148  0.83074  0.78303  1
 Se  Se4  1  0.33852  0.16926  0.21697  1
 Se  Se5  1  0.83074  0.66148  0.21697  1
 Se  Se6  1  0.83074  0.16926  0.21697  1
 Tl  Tl1  1  0.33333  0.66667  0.34915  1
 Tl  Tl2  1  0.66667  0.33333  0.65085  1
