CIF file written using JARVIS-Tools package.
data_CoRe2O8
_symmetry_space_group_name_H-M  'P-3m1'
_cell_length_a       5.7179
_cell_length_b       5.7179
_cell_length_c       6.07308
_cell_angle_alpha    90
_cell_angle_beta     90
_cell_angle_gamma    120

_symmetry_Int_Tables_number  164
_chemical_formula_structural  CoRe2O8
_chemical_formula_sum  CoRe2O8
_cell_volume  171.95433451760363
_cell_formula_units_Z  1
loop_
  _symmetry_equiv_pos_site_id
 _symmetry_equiv_pos_as_xyz
 1  'x, y, z'
loop_
 _atom_site_type_symbol
 _atom_site_label
 _atom_site_symmetry_multiplicity
 _atom_site_fract_x
 _atom_site_fract_y
 _atom_site_fract_z
 _atom_site_fract_occupancy
 Co  Co1  1  0.00000  0.00000  0.00000  1
 O  O1  1  0.66667  0.33333  0.42743  1
 O  O2  1  0.33333  0.66667  0.57257  1
 O  O3  1  0.83458  0.16569  0.81103  1
 O  O4  1  0.16569  0.33111  0.18897  1
 O  O5  1  0.66889  0.83458  0.18897  1
 O  O6  1  0.16542  0.83431  0.18897  1
 O  O7  1  0.83431  0.66889  0.81103  1
 O  O8  1  0.33111  0.16542  0.81103  1
 Re  Re1  1  0.33333  0.66667  0.28553  1
 Re  Re2  1  0.66667  0.33333  0.71447  1
