CIF file written using JARVIS-Tools package.
data_VOF3
_symmetry_space_group_name_H-M  'Pca2_1'
_cell_length_a       4.9342
_cell_length_b       7.19416
_cell_length_c       8.2888
_cell_angle_alpha    90
_cell_angle_beta     90
_cell_angle_gamma    90

_symmetry_Int_Tables_number  29
_chemical_formula_structural  VOF3
_chemical_formula_sum  V4O4F2
_cell_volume  294.2311014589152
_cell_formula_units_Z  4
loop_
  _symmetry_equiv_pos_site_id
 _symmetry_equiv_pos_as_xyz
 1  'x, y, z'
loop_
 _atom_site_type_symbol
 _atom_site_label
 _atom_site_symmetry_multiplicity
 _atom_site_fract_x
 _atom_site_fract_y
 _atom_site_fract_z
 _atom_site_fract_occupancy
 F  F1  1  0.13791  0.76068  0.50828  1
 F  F2  1  0.27855  0.08234  0.40078  1
 F  F3  1  0.70043  0.93105  0.56455  1
 F  F4  1  0.86209  0.26068  0.50828  1
 F  F5  1  0.86209  0.23932  0.00828  1
 F  F6  1  0.29957  0.06895  0.06455  1
 F  F7  1  0.27855  0.41766  0.90078  1
 F  F8  1  0.72145  0.58234  0.40078  1
 F  F9  1  0.70043  0.56895  0.06455  1
 F  F10  1  0.72145  0.91766  0.90078  1
 F  F11  1  0.13791  0.73932  0.00828  1
 F  F12  1  0.29957  0.43105  0.56455  1
 O  O1  1  0.84734  0.95044  0.21876  1
 O  O2  1  0.84734  0.54956  0.71876  1
 O  O3  1  0.15266  0.45044  0.21876  1
 O  O4  1  0.15266  0.04956  0.71876  1
 V  V1  1  0.02987  0.02034  0.54230  1
 V  V2  1  0.02987  0.47966  0.04230  1
 V  V3  1  0.97013  0.52034  0.54230  1
 V  V4  1  0.97013  -0.02034  0.04230  1
