CIF file written using JARVIS-Tools package.
data_ZnS
_symmetry_space_group_name_H-M  'P6_3mc'
_cell_length_a       3.83876
_cell_length_b       3.83876
_cell_length_c       12.5786
_cell_angle_alpha    90
_cell_angle_beta     90
_cell_angle_gamma    120

_symmetry_Int_Tables_number  186
_chemical_formula_structural  ZnS
_chemical_formula_sum  Zn4S4
_cell_volume  160.52660154151562
_cell_formula_units_Z  4
loop_
  _symmetry_equiv_pos_site_id
 _symmetry_equiv_pos_as_xyz
 1  'x, y, z'
loop_
 _atom_site_type_symbol
 _atom_site_label
 _atom_site_symmetry_multiplicity
 _atom_site_fract_x
 _atom_site_fract_y
 _atom_site_fract_z
 _atom_site_fract_occupancy
 S  S1  1  0.33333  0.66667  0.06247  1
 S  S2  1  0.66667  0.33333  0.56247  1
 S  S3  1  0.00000  0.00000  0.31284  1
 S  S4  1  0.00000  0.00000  0.81284  1
 Zn  Zn1  1  0.33333  0.66667  0.24991  1
 Zn  Zn2  1  0.66667  0.33333  0.74991  1
 Zn  Zn3  1  0.00000  0.00000  0.49978  1
 Zn  Zn4  1  0.00000  0.00000  0.99978  1
