CIF file written using JARVIS-Tools package.
data_NiO2
_symmetry_space_group_name_H-M  'P-3m1'
_cell_length_a       2.82825
_cell_length_b       8.62813
_cell_length_c       2.82825
_cell_angle_alpha    89.9999
_cell_angle_beta     120
_cell_angle_gamma    90

_symmetry_Int_Tables_number  164
_chemical_formula_structural  NiO2
_chemical_formula_sum  Ni2O4
_cell_volume  59.77009529245746
_cell_formula_units_Z  2
loop_
  _symmetry_equiv_pos_site_id
 _symmetry_equiv_pos_as_xyz
 1  'x, y, z'
loop_
 _atom_site_type_symbol
 _atom_site_label
 _atom_site_symmetry_multiplicity
 _atom_site_fract_x
 _atom_site_fract_y
 _atom_site_fract_z
 _atom_site_fract_occupancy
 Ni  Ni1  1  0.00000  -0.00000  -0.00003  1
 Ni  Ni2  1  -0.00000  0.50000  -0.00003  1
 O  O1  1  0.66667  0.10902  0.33330  1
 O  O2  1  0.66667  0.60903  0.33330  1
 O  O3  1  0.33333  0.39098  0.66663  1
 O  O4  1  0.33333  0.89097  0.66663  1
