CIF file written using JARVIS-Tools package.
data_Ga3Fe
_symmetry_space_group_name_H-M  'P4_2/mnm'
_cell_length_a       6.25506
_cell_length_b       6.25507
_cell_length_c       6.57571
_cell_angle_alpha    89.9998
_cell_angle_beta     89.9999
_cell_angle_gamma    89.9999

_symmetry_Int_Tables_number  136
_chemical_formula_structural  Ga3Fe
_chemical_formula_sum  Ga2Fe4
_cell_volume  257.28004602086656
_cell_formula_units_Z  4
loop_
  _symmetry_equiv_pos_site_id
 _symmetry_equiv_pos_as_xyz
 1  'x, y, z'
loop_
 _atom_site_type_symbol
 _atom_site_label
 _atom_site_symmetry_multiplicity
 _atom_site_fract_x
 _atom_site_fract_y
 _atom_site_fract_z
 _atom_site_fract_occupancy
 Fe  Fe1  1  0.84258  0.15741  0.50000  1
 Fe  Fe2  1  0.15742  0.84258  0.50001  1
 Fe  Fe3  1  0.65743  0.65741  1.00000  1
 Fe  Fe4  1  0.34259  0.34258  0.00000  1
 Ga  Ga1  1  0.34504  0.65497  0.23707  1
 Ga  Ga2  1  0.84501  0.84503  0.26294  1
 Ga  Ga3  1  0.65499  0.34499  0.76297  1
 Ga  Ga4  1  0.65504  0.34497  0.23700  1
 Ga  Ga5  1  0.00003  0.50004  1.00000  1
 Ga  Ga6  1  0.15497  0.15500  0.73706  1
 Ga  Ga7  1  0.49999  0.00002  0.50000  1
 Ga  Ga8  1  0.84498  0.84499  0.73701  1
 Ga  Ga9  1  0.34500  0.65500  0.76297  1
 Ga  Ga10  1  0.15502  0.15501  0.26299  1
 Ga  Ga11  1  0.99996  0.50001  0.49998  1
 Ga  Ga12  1  0.49998  -0.00002  1.00000  1
