CIF file written using JARVIS-Tools package.
data_InAgTe2
_symmetry_space_group_name_H-M  'I-42d'
_cell_length_a       6.53272
_cell_length_b       6.53272
_cell_length_c       7.95028
_cell_angle_alpha    114.258
_cell_angle_beta     114.258
_cell_angle_gamma    90

_symmetry_Int_Tables_number  122
_chemical_formula_structural  InAgTe2
_chemical_formula_sum  In2Ag2Te4
_cell_volume  276.14246217821835
_cell_formula_units_Z  2
loop_
  _symmetry_equiv_pos_site_id
 _symmetry_equiv_pos_as_xyz
 1  'x, y, z'
loop_
 _atom_site_type_symbol
 _atom_site_label
 _atom_site_symmetry_multiplicity
 _atom_site_fract_x
 _atom_site_fract_y
 _atom_site_fract_z
 _atom_site_fract_occupancy
 Ag  Ag1  1  0.00000  0.00000  0.00000  1
 Ag  Ag2  1  0.25000  0.75000  0.50000  1
 In  In1  1  0.50000  0.50000  -0.00000  1
 In  In2  1  0.75000  0.25000  0.50000  1
 Te  Te1  1  0.36826  0.37500  0.25000  1
 Te  Te2  1  0.12500  0.63174  0.75000  1
 Te  Te3  1  0.62500  0.11826  0.75000  1
 Te  Te4  1  0.88174  0.87500  0.25000  1
