CIF file written using JARVIS-Tools package.
data_NaCuO2
_symmetry_space_group_name_H-M  'C2/m'
_cell_length_a       2.77836
_cell_length_b       3.50605
_cell_length_c       5.41143
_cell_angle_alpha    84.634
_cell_angle_beta     75.1249
_cell_angle_gamma    66.6576

_symmetry_Int_Tables_number  12
_chemical_formula_structural  NaCuO2
_chemical_formula_sum  NaCuO2
_cell_volume  46.77483920703167
_cell_formula_units_Z  1
loop_
  _symmetry_equiv_pos_site_id
 _symmetry_equiv_pos_as_xyz
 1  'x, y, z'
loop_
 _atom_site_type_symbol
 _atom_site_label
 _atom_site_symmetry_multiplicity
 _atom_site_fract_x
 _atom_site_fract_y
 _atom_site_fract_z
 _atom_site_fract_occupancy
 Cu  Cu1  1  0.00000  0.00000  0.00000  1
 Na  Na1  1  0.50000  0.50000  0.50000  1
 O  O1  1  0.33900  0.09350  0.22849  1
 O  O2  1  0.66100  0.90650  0.77151  1
