CIF file written using JARVIS-Tools package.
data_SrHIO
_symmetry_space_group_name_H-M  'Pnma'
_cell_length_a       4.2458
_cell_length_b       7.71089
_cell_length_c       10.7483
_cell_angle_alpha    90
_cell_angle_beta     90
_cell_angle_gamma    90

_symmetry_Int_Tables_number  62
_chemical_formula_structural  SrHIO
_chemical_formula_sum  Sr4H4I4O4
_cell_volume  351.88702968331927
_cell_formula_units_Z  4
loop_
  _symmetry_equiv_pos_site_id
 _symmetry_equiv_pos_as_xyz
 1  'x, y, z'
loop_
 _atom_site_type_symbol
 _atom_site_label
 _atom_site_symmetry_multiplicity
 _atom_site_fract_x
 _atom_site_fract_y
 _atom_site_fract_z
 _atom_site_fract_occupancy
 H  H1  1  0.75000  0.22197  0.09933  1
 H  H2  1  0.75000  0.72197  0.40067  1
 H  H3  1  0.25000  0.77803  0.90067  1
 H  H4  1  0.25000  0.27803  0.59933  1
 I  I1  1  0.25000  0.47383  0.17951  1
 I  I2  1  0.25000  0.97383  0.32049  1
 I  I3  1  0.75000  0.52617  0.82049  1
 I  I4  1  0.75000  0.02617  0.67951  1
 O  O1  1  0.75000  0.13443  0.03351  1
 O  O2  1  0.75000  0.63443  0.46649  1
 O  O3  1  0.25000  0.86557  0.96649  1
 O  O4  1  0.25000  0.36557  0.53351  1
 Sr  Sr1  1  0.75000  0.32086  0.41935  1
 Sr  Sr2  1  0.75000  0.82086  0.08065  1
 Sr  Sr3  1  0.25000  0.67914  0.58065  1
 Sr  Sr4  1  0.25000  0.17914  0.91935  1
