CIF file written using JARVIS-Tools package.
data_LiFeO2
_symmetry_space_group_name_H-M  'I4_1/amd'
_cell_length_a       4.02159
_cell_length_b       4.02158
_cell_length_c       4.99207
_cell_angle_alpha    113.753
_cell_angle_beta     113.753
_cell_angle_gamma    90

_symmetry_Int_Tables_number  141
_chemical_formula_structural  LiFeO2
_chemical_formula_sum  Li2Fe2O4
_cell_volume  66.3574711066533
_cell_formula_units_Z  2
loop_
  _symmetry_equiv_pos_site_id
 _symmetry_equiv_pos_as_xyz
 1  'x, y, z'
loop_
 _atom_site_type_symbol
 _atom_site_label
 _atom_site_symmetry_multiplicity
 _atom_site_fract_x
 _atom_site_fract_y
 _atom_site_fract_z
 _atom_site_fract_occupancy
 Fe  Fe1  1  0.62500  0.37500  0.25000  1
 Fe  Fe2  1  0.37500  0.62500  0.75000  1
 Li  Li1  1  0.87500  0.12500  0.75000  1
 Li  Li2  1  0.12500  0.87500  0.25000  1
 O  O1  1  0.13598  0.38598  0.27197  1
 O  O2  1  0.38598  0.13598  0.77197  1
 O  O3  1  0.86402  0.61402  0.72804  1
 O  O4  1  0.61402  0.86402  0.22804  1
