CIF file written using JARVIS-Tools package.
data_CoCl2O8
_symmetry_space_group_name_H-M  'R-3'
_cell_length_a       7.59258
_cell_length_b       7.59258
_cell_length_c       7.59258
_cell_angle_alpha    36.9055
_cell_angle_beta     36.9055
_cell_angle_gamma    36.9055

_symmetry_Int_Tables_number  148
_chemical_formula_structural  CoCl2O8
_chemical_formula_sum  CoCl2O8
_cell_volume  141.3943439723883
_cell_formula_units_Z  1
loop_
  _symmetry_equiv_pos_site_id
 _symmetry_equiv_pos_as_xyz
 1  'x, y, z'
loop_
 _atom_site_type_symbol
 _atom_site_label
 _atom_site_symmetry_multiplicity
 _atom_site_fract_x
 _atom_site_fract_y
 _atom_site_fract_z
 _atom_site_fract_occupancy
 Cl  Cl1  1  0.74898  0.74898  0.74898  1
 Cl  Cl2  1  0.25102  0.25102  0.25102  1
 Co  Co1  1  0.00000  0.00000  0.00000  1
 O  O1  1  0.81560  0.81560  0.81560  1
 O  O2  1  0.18440  0.18440  0.18440  1
 O  O3  1  0.00529  0.42999  0.73796  1
 O  O4  1  0.26204  -0.00529  0.57001  1
 O  O5  1  0.57001  0.26204  -0.00529  1
 O  O6  1  -0.00529  0.57001  0.26204  1
 O  O7  1  0.73796  0.00529  0.42999  1
 O  O8  1  0.42999  0.73796  0.00529  1
