CIF file written using JARVIS-Tools package.
data_NaBe4SbO7
_symmetry_space_group_name_H-M  'P6_3mc'
_cell_length_a       5.48444
_cell_length_b       5.48444
_cell_length_c       8.93926
_cell_angle_alpha    90
_cell_angle_beta     90
_cell_angle_gamma    120

_symmetry_Int_Tables_number  186
_chemical_formula_structural  NaBe4SbO7
_chemical_formula_sum  Na2Be8Sb2O4
_cell_volume  232.86035022186238
_cell_formula_units_Z  2
loop_
  _symmetry_equiv_pos_site_id
 _symmetry_equiv_pos_as_xyz
 1  'x, y, z'
loop_
 _atom_site_type_symbol
 _atom_site_label
 _atom_site_symmetry_multiplicity
 _atom_site_fract_x
 _atom_site_fract_y
 _atom_site_fract_z
 _atom_site_fract_occupancy
 Be  Be1  1  0.83443  0.16557  0.18665  1
 Be  Be2  1  0.16557  0.83443  0.68665  1
 Be  Be3  1  0.33115  0.16557  0.18665  1
 Be  Be4  1  0.00000  0.00000  0.43921  1
 Be  Be5  1  0.00000  0.00000  0.93921  1
 Be  Be6  1  0.83443  0.66885  0.18665  1
 Be  Be7  1  0.66885  0.83443  0.68665  1
 Be  Be8  1  0.16557  0.33115  0.68665  1
 Na  Na1  1  0.66667  0.33333  0.87406  1
 Na  Na2  1  0.33333  0.66667  0.37406  1
 O  O1  1  0.16073  0.83927  0.87108  1
 O  O2  1  0.00000  0.00000  0.62459  1
 O  O3  1  0.00000  0.00000  0.12459  1
 O  O4  1  0.67854  0.83927  0.87108  1
 O  O5  1  0.16073  0.32146  0.87108  1
 O  O6  1  0.32146  0.16073  0.37108  1
 O  O7  1  0.49498  0.50502  0.62913  1
 O  O8  1  0.50502  0.01003  0.12913  1
 O  O9  1  0.01003  0.50502  0.62913  1
 O  O10  1  0.49498  0.98997  0.62913  1
 O  O11  1  0.50502  0.49498  0.12913  1
 O  O12  1  0.83927  0.16073  0.37108  1
 O  O13  1  0.98997  0.49498  0.12913  1
 O  O14  1  0.83927  0.67854  0.37108  1
 Sb  Sb1  1  0.33333  0.66667  0.99955  1
 Sb  Sb2  1  0.66667  0.33333  0.49955  1
