CIF file written using JARVIS-Tools package.
data_AgCNO
_symmetry_space_group_name_H-M  'Pmmn'
_cell_length_a       3.5124
_cell_length_b       5.67651
_cell_length_c       5.58144
_cell_angle_alpha    90
_cell_angle_beta     90
_cell_angle_gamma    90

_symmetry_Int_Tables_number  59
_chemical_formula_structural  AgCNO
_chemical_formula_sum  Ag2C2N2O2
_cell_volume  111.28375420693332
_cell_formula_units_Z  2
loop_
  _symmetry_equiv_pos_site_id
 _symmetry_equiv_pos_as_xyz
 1  'x, y, z'
loop_
 _atom_site_type_symbol
 _atom_site_label
 _atom_site_symmetry_multiplicity
 _atom_site_fract_x
 _atom_site_fract_y
 _atom_site_fract_z
 _atom_site_fract_occupancy
 Ag  Ag1  1  0.75000  0.25000  0.58444  1
 Ag  Ag2  1  0.25000  0.75000  0.41556  1
 C  C1  1  0.75000  0.75000  0.17405  1
 C  C2  1  0.25000  0.25000  0.82595  1
 N  N1  1  0.25000  0.25000  0.03841  1
 N  N2  1  0.75000  0.75000  0.96159  1
 O  O1  1  0.75000  0.75000  0.73583  1
 O  O2  1  0.25000  0.25000  0.26417  1
