CIF file written using JARVIS-Tools package.
data_SmInO3
_symmetry_space_group_name_H-M  'Pnma'
_cell_length_a       5.60648
_cell_length_b       5.94341
_cell_length_c       8.18959
_cell_angle_alpha    90
_cell_angle_beta     90
_cell_angle_gamma    90

_symmetry_Int_Tables_number  62
_chemical_formula_structural  SmInO3
_chemical_formula_sum  Sm4In4O2
_cell_volume  272.8902346561709
_cell_formula_units_Z  4
loop_
  _symmetry_equiv_pos_site_id
 _symmetry_equiv_pos_as_xyz
 1  'x, y, z'
loop_
 _atom_site_type_symbol
 _atom_site_label
 _atom_site_symmetry_multiplicity
 _atom_site_fract_x
 _atom_site_fract_y
 _atom_site_fract_z
 _atom_site_fract_occupancy
 In  In1  1  0.50000  0.00000  0.00000  1
 In  In2  1  0.50000  0.00000  0.50000  1
 In  In3  1  0.00000  0.50000  0.00000  1
 In  In4  1  0.00000  0.50000  0.50000  1
 O  O1  1  0.31175  0.69237  0.56906  1
 O  O2  1  0.63437  0.05985  0.75000  1
 O  O3  1  0.81175  0.80763  0.43094  1
 O  O4  1  0.18825  0.19237  0.93094  1
 O  O5  1  0.68825  0.30763  0.43094  1
 O  O6  1  0.18825  0.19237  0.56906  1
 O  O7  1  0.13437  0.44015  0.25000  1
 O  O8  1  0.36563  0.94015  0.25000  1
 O  O9  1  0.31175  0.69237  0.93094  1
 O  O10  1  0.68825  0.30763  0.06906  1
 O  O11  1  0.81175  0.80763  0.06906  1
 O  O12  1  0.86563  0.55985  0.75000  1
 Sm  Sm1  1  0.02159  0.93468  0.75000  1
 Sm  Sm2  1  0.52159  0.56532  0.25000  1
 Sm  Sm3  1  0.47841  0.43468  0.75000  1
 Sm  Sm4  1  0.97841  0.06532  0.25000  1
