CIF file written using JARVIS-Tools package.
data_Y2TeO2
_symmetry_space_group_name_H-M  'I4/mmm'
_cell_length_a       6.80391
_cell_length_b       6.80391
_cell_length_c       6.80391
_cell_angle_alpha    146.39
_cell_angle_beta     146.39
_cell_angle_gamma    48.2685

_symmetry_Int_Tables_number  139
_chemical_formula_structural  Y2TeO2
_chemical_formula_sum  Y2TeO2
_cell_volume  96.10922015905035
_cell_formula_units_Z  1
loop_
  _symmetry_equiv_pos_site_id
 _symmetry_equiv_pos_as_xyz
 1  'x, y, z'
loop_
 _atom_site_type_symbol
 _atom_site_label
 _atom_site_symmetry_multiplicity
 _atom_site_fract_x
 _atom_site_fract_y
 _atom_site_fract_z
 _atom_site_fract_occupancy
 O  O1  1  0.75000  0.25000  0.50000  1
 O  O2  1  0.25000  0.75000  0.50000  1
 Te  Te1  1  0.00000  0.00000  0.00000  1
 Y  Y1  1  0.33762  0.33762  0.00000  1
 Y  Y2  1  0.66238  0.66238  -0.00000  1
