CIF file written using JARVIS-Tools package.
data_Li3MnCo2O6
_symmetry_space_group_name_H-M  'C2/m'
_cell_length_a       6.38107
_cell_length_b       2.85248
_cell_length_c       5.72895
_cell_angle_alpha    89.9999
_cell_angle_beta     103.167
_cell_angle_gamma    77.0846

_symmetry_Int_Tables_number  12
_chemical_formula_structural  Li3MnCo2O6
_chemical_formula_sum  Li3MnCo2O6
_cell_volume  98.82509150774264
_cell_formula_units_Z  1
loop_
  _symmetry_equiv_pos_site_id
 _symmetry_equiv_pos_as_xyz
 1  'x, y, z'
loop_
 _atom_site_type_symbol
 _atom_site_label
 _atom_site_symmetry_multiplicity
 _atom_site_fract_x
 _atom_site_fract_y
 _atom_site_fract_z
 _atom_site_fract_occupancy
 Co  Co1  1  -0.00002  0.00001  0.99911  1
 Co  Co2  1  0.66669  0.66666  0.66756  1
 Li  Li1  1  0.99348  0.00326  0.50328  1
 Li  Li2  1  0.33333  0.33333  0.83333  1
 Li  Li3  1  0.67318  0.66341  0.16339  1
 Mn  Mn1  1  0.33333  0.33333  0.33333  1
 O  O1  1  0.01388  0.49306  0.23589  1
 O  O2  1  0.34273  0.82864  0.57048  1
 O  O3  1  0.68201  0.15900  0.90023  1
 O  O4  1  0.32394  0.83803  0.09619  1
 O  O5  1  0.65279  0.17361  0.43078  1
 O  O6  1  0.98466  0.50767  0.76644  1
