CIF file written using JARVIS-Tools package.
data_Na3PS3O
_symmetry_space_group_name_H-M  'Cmc2_1'
_cell_length_a       5.90732
_cell_length_b       7.48529
_cell_length_c       7.48529
_cell_angle_alpha    101.178
_cell_angle_beta     90
_cell_angle_gamma    90

_symmetry_Int_Tables_number  36
_chemical_formula_structural  Na3PS3O
_chemical_formula_sum  Na6P2S6O2
_cell_volume  324.70516096420533
_cell_formula_units_Z  2
loop_
  _symmetry_equiv_pos_site_id
 _symmetry_equiv_pos_as_xyz
 1  'x, y, z'
loop_
 _atom_site_type_symbol
 _atom_site_label
 _atom_site_symmetry_multiplicity
 _atom_site_fract_x
 _atom_site_fract_y
 _atom_site_fract_z
 _atom_site_fract_occupancy
 Na  Na1  1  0.25297  0.08591  0.31816  1
 Na  Na2  1  0.70506  0.36946  0.63054  1
 Na  Na3  1  0.20506  0.63054  0.36946  1
 Na  Na4  1  0.25297  0.68184  0.91409  1
 Na  Na5  1  0.75297  0.91409  0.68184  1
 Na  Na6  1  0.75297  0.31816  0.08591  1
 O  O1  1  0.88521  0.19551  0.80449  1
 O  O2  1  0.38521  0.80449  0.19551  1
 P  P1  1  0.14578  0.20530  0.79470  1
 P  P2  1  0.64578  0.79470  0.20530  1
 S  S1  1  0.27338  0.95154  0.68712  1
 S  S2  1  0.22935  0.38108  0.61892  1
 S  S3  1  0.72935  0.61892  0.38108  1
 S  S4  1  0.77338  0.04846  0.31288  1
 S  S5  1  0.27338  0.31288  0.04846  1
 S  S6  1  0.77338  0.68712  0.95154  1
