CIF file written using JARVIS-Tools package.
data_Na2MgH4S2O8
_symmetry_space_group_name_H-M  'P-1'
_cell_length_a       5.1958
_cell_length_b       5.88217
_cell_length_c       7.49232
_cell_angle_alpha    102.772
_cell_angle_beta     109.568
_cell_angle_gamma    106.342

_symmetry_Int_Tables_number  2
_chemical_formula_structural  Na2MgH4S2O8
_chemical_formula_sum  Na2MgH4S2O8
_cell_volume  194.04660819822686
_cell_formula_units_Z  1
loop_
  _symmetry_equiv_pos_site_id
 _symmetry_equiv_pos_as_xyz
 1  'x, y, z'
loop_
 _atom_site_type_symbol
 _atom_site_label
 _atom_site_symmetry_multiplicity
 _atom_site_fract_x
 _atom_site_fract_y
 _atom_site_fract_z
 _atom_site_fract_occupancy
 H  H1  1  0.27022  0.23683  0.10107  1
 H  H2  1  0.72978  0.76317  0.89893  1
 H  H3  1  0.14377  0.04387  0.20177  1
 H  H4  1  0.85623  0.95613  0.79823  1
 Mg  Mg1  1  0.50000  0.50000  0.50000  1
 Na  Na1  1  0.34437  0.00581  0.67577  1
 Na  Na2  1  0.65563  -0.00581  0.32423  1
 O  O1  1  0.84306  0.68446  0.43460  1
 O  O2  1  0.14211  0.22115  0.86037  1
 O  O3  1  0.85789  0.77885  0.13963  1
 O  O4  1  0.73552  0.30065  0.64182  1
 O  O5  1  0.67960  0.80441  0.77167  1
 O  O6  1  0.32040  0.19559  0.22833  1
 O  O7  1  0.15694  0.31554  0.56540  1
 O  O8  1  0.26448  0.69935  0.35818  1
 S  S1  1  0.07736  0.40083  0.74423  1
 S  S2  1  0.92264  0.59917  0.25577  1
