CIF file written using JARVIS-Tools package.
data_LiMnF3
_symmetry_space_group_name_H-M  'R-3'
_cell_length_a       5.28493
_cell_length_b       5.55409
_cell_length_c       5.28493
_cell_angle_alpha    118.409
_cell_angle_beta     59.9999
_cell_angle_gamma    118.409

_symmetry_Int_Tables_number  148
_chemical_formula_structural  LiMnF3
_chemical_formula_sum  Li2Mn2F6
_cell_volume  112.25601565874328
_cell_formula_units_Z  2
loop_
  _symmetry_equiv_pos_site_id
 _symmetry_equiv_pos_as_xyz
 1  'x, y, z'
loop_
 _atom_site_type_symbol
 _atom_site_label
 _atom_site_symmetry_multiplicity
 _atom_site_fract_x
 _atom_site_fract_y
 _atom_site_fract_z
 _atom_site_fract_occupancy
 F  F1  1  0.23674  0.74744  0.55895  1
 F  F2  1  0.04824  0.25256  0.76326  1
 F  F3  1  0.44105  0.25256  0.04824  1
 F  F4  1  0.55895  0.74744  0.95176  1
 F  F5  1  0.95176  0.74744  0.23674  1
 F  F6  1  0.76326  0.25256  0.44105  1
 Li  Li1  1  0.14479  0.43438  0.14479  1
 Li  Li2  1  0.85521  0.56562  0.85521  1
 Mn  Mn1  1  0.64239  0.92718  0.64239  1
 Mn  Mn2  1  0.35761  0.07282  0.35761  1
