CIF file written using JARVIS-Tools package.
data_SiAs2
_symmetry_space_group_name_H-M  'Pbam'
_cell_length_a       15.0112
_cell_length_b       10.2425
_cell_length_c       3.71183
_cell_angle_alpha    90
_cell_angle_beta     90
_cell_angle_gamma    90

_symmetry_Int_Tables_number  55
_chemical_formula_structural  SiAs2
_chemical_formula_sum  Si8As6
_cell_volume  570.7002416952915
_cell_formula_units_Z  8
loop_
  _symmetry_equiv_pos_site_id
 _symmetry_equiv_pos_as_xyz
 1  'x, y, z'
loop_
 _atom_site_type_symbol
 _atom_site_label
 _atom_site_symmetry_multiplicity
 _atom_site_fract_x
 _atom_site_fract_y
 _atom_site_fract_z
 _atom_site_fract_occupancy
 As  As1  1  0.89329  0.44643  0.50000  1
 As  As2  1  0.11342  0.10047  0.50000  1
 As  As3  1  0.88658  0.89953  0.50000  1
 As  As4  1  0.61342  0.39953  0.50000  1
 As  As5  1  0.79509  0.15889  0.00000  1
 As  As6  1  0.04156  0.23055  0.00000  1
 As  As7  1  0.95844  0.76945  0.00000  1
 As  As8  1  0.38658  0.60047  0.50000  1
 As  As9  1  0.45844  0.73055  0.00000  1
 As  As10  1  0.39329  0.05357  0.50000  1
 As  As11  1  0.60671  0.94643  0.50000  1
 As  As12  1  0.20491  0.84111  0.00000  1
 As  As13  1  0.10671  0.55357  0.50000  1
 As  As14  1  0.29509  0.34111  0.00000  1
 As  As15  1  0.70491  0.65889  0.00000  1
 As  As16  1  0.54156  0.26945  0.00000  1
 Si  Si1  1  0.35634  0.91353  0.00000  1
 Si  Si2  1  0.64366  0.08647  0.00000  1
 Si  Si3  1  0.85634  0.58647  0.00000  1
 Si  Si4  1  0.14366  0.41353  0.00000  1
 Si  Si5  1  0.23512  0.69616  0.50000  1
 Si  Si6  1  0.76488  0.30384  0.50000  1
 Si  Si7  1  0.73512  0.80384  0.50000  1
 Si  Si8  1  0.26489  0.19616  0.50000  1
