CIF file written using JARVIS-Tools package.
data_Sr2B5H2O11
_symmetry_space_group_name_H-M  'C2'
_cell_length_a       6.50909
_cell_length_b       6.50909
_cell_length_c       6.3781
_cell_angle_alpha    61.4238
_cell_angle_beta     118.576
_cell_angle_gamma    102.951

_symmetry_Int_Tables_number  5
_chemical_formula_structural  Sr2B5H2O11
_chemical_formula_sum  Sr2B5H2O
_cell_volume  208.39732912777387
_cell_formula_units_Z  1
loop_
  _symmetry_equiv_pos_site_id
 _symmetry_equiv_pos_as_xyz
 1  'x, y, z'
loop_
 _atom_site_type_symbol
 _atom_site_label
 _atom_site_symmetry_multiplicity
 _atom_site_fract_x
 _atom_site_fract_y
 _atom_site_fract_z
 _atom_site_fract_occupancy
 B  B1  1  0.74986  0.89766  0.74396  1
 B  B2  1  0.89766  0.74986  0.25604  1
 B  B3  1  0.65337  0.65337  0.50000  1
 B  B4  1  0.80946  0.33679  0.49609  1
 B  B5  1  0.33679  0.80946  0.50391  1
 H  H1  1  0.30148  0.37365  0.74488  1
 H  H2  1  0.37365  0.30148  0.25512  1
 O  O1  1  0.49752  0.91125  0.66548  1
 O  O2  1  0.38615  0.24331  0.91609  1
 O  O3  1  0.69020  0.40120  0.58379  1
 O  O4  1  0.82501  0.10814  0.54990  1
 O  O5  1  0.10814  0.82501  0.45010  1
 O  O6  1  0.40120  0.69020  0.41621  1
 O  O7  1  0.24331  0.38615  0.08391  1
 O  O8  1  0.89946  0.89946  -0.00000  1
 O  O9  1  0.91125  0.49752  0.33452  1
 O  O10  1  0.69306  0.79967  0.26294  1
 O  O11  1  0.79967  0.69306  0.73706  1
 Sr  Sr1  1  0.24383  0.83809  0.91395  1
 Sr  Sr2  1  0.83809  0.24383  0.08605  1
