CIF file written using JARVIS-Tools package.
data_SrS2
_symmetry_space_group_name_H-M  'I4/mcm'
_cell_length_a       5.77764
_cell_length_b       5.77764
_cell_length_c       5.77763
_cell_angle_alpha    97.0053
_cell_angle_beta     116.041
_cell_angle_gamma    116.041

_symmetry_Int_Tables_number  140
_chemical_formula_structural  SrS2
_chemical_formula_sum  Sr2S4
_cell_volume  143.3737538588886
_cell_formula_units_Z  2
loop_
  _symmetry_equiv_pos_site_id
 _symmetry_equiv_pos_as_xyz
 1  'x, y, z'
loop_
 _atom_site_type_symbol
 _atom_site_label
 _atom_site_symmetry_multiplicity
 _atom_site_fract_x
 _atom_site_fract_y
 _atom_site_fract_z
 _atom_site_fract_occupancy
 S  S1  1  0.25391  0.37696  0.87696  1
 S  S2  1  0.50000  0.87696  0.62304  1
 S  S3  1  0.74609  0.62304  0.12304  1
 S  S4  1  0.50000  0.12304  0.37696  1
 Sr  Sr1  1  -0.00000  0.75000  0.75000  1
 Sr  Sr2  1  -0.00000  0.25000  0.25000  1
