CIF file written using JARVIS-Tools package.
data_Ga2Ge4Pb3O14
_symmetry_space_group_name_H-M  'P321'
_cell_length_a       8.49008
_cell_length_b       8.49008
_cell_length_c       5.00917
_cell_angle_alpha    90
_cell_angle_beta     90
_cell_angle_gamma    120

_symmetry_Int_Tables_number  150
_chemical_formula_structural  Ga2Ge4Pb3O14
_chemical_formula_sum  Ga2Ge4Pb3O4
_cell_volume  312.6946217913074
_cell_formula_units_Z  1
loop_
  _symmetry_equiv_pos_site_id
 _symmetry_equiv_pos_as_xyz
 1  'x, y, z'
loop_
 _atom_site_type_symbol
 _atom_site_label
 _atom_site_symmetry_multiplicity
 _atom_site_fract_x
 _atom_site_fract_y
 _atom_site_fract_z
 _atom_site_fract_occupancy
 Ga  Ga1  1  0.66667  0.33333  0.49318  1
 Ga  Ga2  1  0.33333  0.66667  0.50682  1
 Ge  Ge1  1  0.24404  0.00000  0.50000  1
 Ge  Ge2  1  0.00000  0.00000  0.00000  1
 Ge  Ge3  1  0.00000  0.24404  0.50000  1
 Ge  Ge4  1  0.75596  0.75596  0.50000  1
 O  O1  1  0.66667  0.33333  0.85136  1
 O  O2  1  0.55147  0.70975  0.66877  1
 O  O3  1  0.33333  0.66667  0.14864  1
 O  O4  1  0.79154  0.91183  0.23324  1
 O  O5  1  0.12029  0.20846  0.23324  1
 O  O6  1  0.29025  0.84172  0.66877  1
 O  O7  1  0.87971  0.08817  0.76676  1
 O  O8  1  0.08817  0.87971  0.23324  1
 O  O9  1  0.70975  0.55147  0.33123  1
 O  O10  1  0.84172  0.29025  0.33123  1
 O  O11  1  0.91183  0.79154  0.76676  1
 O  O12  1  0.15828  0.44853  0.66877  1
 O  O13  1  0.44853  0.15828  0.33123  1
 O  O14  1  0.20846  0.12029  0.76676  1
 Pb  Pb1  1  0.42874  0.42874  0.00000  1
 Pb  Pb2  1  0.00000  0.57126  0.00000  1
 Pb  Pb3  1  0.57126  0.00000  0.00000  1
