CIF file written using JARVIS-Tools package.
data_Ca2TaAgO6
_symmetry_space_group_name_H-M  'P2_1/m'
_cell_length_a       5.91866
_cell_length_b       7.56605
_cell_length_c       6.00283
_cell_angle_alpha    90
_cell_angle_beta     102.666
_cell_angle_gamma    90

_symmetry_Int_Tables_number  11
_chemical_formula_structural  Ca2TaAgO6
_chemical_formula_sum  Ca4Ta2Ag2O2
_cell_volume  262.27092769288754
_cell_formula_units_Z  2
loop_
  _symmetry_equiv_pos_site_id
 _symmetry_equiv_pos_as_xyz
 1  'x, y, z'
loop_
 _atom_site_type_symbol
 _atom_site_label
 _atom_site_symmetry_multiplicity
 _atom_site_fract_x
 _atom_site_fract_y
 _atom_site_fract_z
 _atom_site_fract_occupancy
 Ag  Ag1  1  0.50000  0.00000  -0.00000  1
 Ag  Ag2  1  0.50000  0.50000  -0.00000  1
 Ca  Ca1  1  0.97277  0.75000  0.93015  1
 Ca  Ca2  1  0.46448  0.75000  0.44834  1
 Ca  Ca3  1  0.53552  0.25000  0.55166  1
 Ca  Ca4  1  0.02723  0.25000  0.06985  1
 O  O1  1  0.16958  0.45345  0.82810  1
 O  O2  1  0.61215  0.25000  0.94347  1
 O  O3  1  0.83042  0.54655  0.17190  1
 O  O4  1  0.26701  0.05027  0.36618  1
 O  O5  1  0.73299  0.55027  0.63382  1
 O  O6  1  0.26701  0.44973  0.36618  1
 O  O7  1  0.38785  0.75000  0.05653  1
 O  O8  1  0.16958  0.04655  0.82810  1
 O  O9  1  0.89399  0.25000  0.45215  1
 O  O10  1  0.83042  0.95345  0.17190  1
 O  O11  1  0.73299  0.94973  0.63382  1
 O  O12  1  0.10601  0.75000  0.54785  1
 Ta  Ta1  1  0.00000  0.50000  0.50000  1
 Ta  Ta2  1  0.00000  0.00000  0.50000  1
