CIF file written using JARVIS-Tools package.
data_MgSiN2
_symmetry_space_group_name_H-M  'I-42d'
_cell_length_a       4.61464
_cell_length_b       4.61464
_cell_length_c       5.20177
_cell_angle_alpha    116.332
_cell_angle_beta     116.332
_cell_angle_gamma    89.9999

_symmetry_Int_Tables_number  122
_chemical_formula_structural  MgSiN2
_chemical_formula_sum  Mg2Si2N4
_cell_volume  86.26647932126744
_cell_formula_units_Z  2
loop_
  _symmetry_equiv_pos_site_id
 _symmetry_equiv_pos_as_xyz
 1  'x, y, z'
loop_
 _atom_site_type_symbol
 _atom_site_label
 _atom_site_symmetry_multiplicity
 _atom_site_fract_x
 _atom_site_fract_y
 _atom_site_fract_z
 _atom_site_fract_occupancy
 Mg  Mg1  1  0.25000  0.75000  0.50000  1
 Mg  Mg2  1  0.00000  0.00000  0.00000  1
 N  N1  1  0.81377  0.87500  0.25000  1
 N  N2  1  0.62500  0.18623  0.75000  1
 N  N3  1  0.43623  0.37500  0.25000  1
 N  N4  1  0.12500  0.56377  0.75000  1
 Si  Si1  1  0.50000  0.50000  -0.00000  1
 Si  Si2  1  0.75000  0.25000  0.50000  1
