CIF file written using JARVIS-Tools package.
data_Sm2CdS4
_symmetry_space_group_name_H-M  'I-42d'
_cell_length_a       7.36167
_cell_length_b       7.36167
_cell_length_c       7.36167
_cell_angle_alpha    110.595
_cell_angle_beta     110.595
_cell_angle_gamma    107.246

_symmetry_Int_Tables_number  122
_chemical_formula_structural  Sm2CdS4
_chemical_formula_sum  Sm4Cd2S8
_cell_volume  306.77376180453814
_cell_formula_units_Z  2
loop_
  _symmetry_equiv_pos_site_id
 _symmetry_equiv_pos_as_xyz
 1  'x, y, z'
loop_
 _atom_site_type_symbol
 _atom_site_label
 _atom_site_symmetry_multiplicity
 _atom_site_fract_x
 _atom_site_fract_y
 _atom_site_fract_z
 _atom_site_fract_occupancy
 Cd  Cd1  1  0.62500  0.37500  0.25000  1
 Cd  Cd2  1  0.87500  0.12500  0.75000  1
 S  S1  1  0.00795  0.88128  0.51191  1
 S  S2  1  0.49205  0.00396  0.87333  1
 S  S3  1  0.11872  0.13063  0.12667  1
 S  S4  1  0.38128  0.50795  0.01191  1
 S  S5  1  0.63063  0.61872  0.62667  1
 S  S6  1  0.50396  0.99205  0.37333  1
 S  S7  1  0.86937  0.49604  0.98809  1
 S  S8  1  0.99604  0.36937  0.48809  1
 Sm  Sm1  1  0.11177  0.75000  0.86177  1
 Sm  Sm2  1  0.25000  0.61177  0.36177  1
 Sm  Sm3  1  0.38823  0.25000  0.63823  1
 Sm  Sm4  1  0.75000  0.88823  0.13823  1
