CIF file written using JARVIS-Tools package.
data_Y2Pb2O7
_symmetry_space_group_name_H-M  'Fd-3m'
_cell_length_a       7.5985
_cell_length_b       7.59863
_cell_length_c       7.59851
_cell_angle_alpha    60.0011
_cell_angle_beta     60.0002
_cell_angle_gamma    60.0002

_symmetry_Int_Tables_number  227
_chemical_formula_structural  Y2Pb2O7
_chemical_formula_sum  Y4Pb4O4
_cell_volume  310.22853004474035
_cell_formula_units_Z  2
loop_
  _symmetry_equiv_pos_site_id
 _symmetry_equiv_pos_as_xyz
 1  'x, y, z'
loop_
 _atom_site_type_symbol
 _atom_site_label
 _atom_site_symmetry_multiplicity
 _atom_site_fract_x
 _atom_site_fract_y
 _atom_site_fract_z
 _atom_site_fract_occupancy
 O  O1  1  0.34996  0.34998  0.90003  1
 O  O2  1  0.65002  0.09998  0.09997  1
 O  O3  1  0.90006  0.34996  0.34994  1
 O  O4  1  0.09999  0.65002  0.65001  1
 O  O5  1  0.65001  0.65005  0.09997  1
 O  O6  1  0.37501  0.37498  0.37500  1
 O  O7  1  0.09995  0.09997  0.65004  1
 O  O8  1  0.09997  0.65005  0.09997  1
 O  O9  1  0.34997  0.90002  0.34999  1
 O  O10  1  0.90002  0.90002  0.34998  1
 O  O11  1  0.34997  0.90004  0.90002  1
 O  O12  1  0.62501  0.62498  0.62500  1
 O  O13  1  0.90004  0.34998  0.90003  1
 O  O14  1  0.65003  0.09996  0.65005  1
 Pb  Pb1  1  0.99999  0.50004  -0.00002  1
 Pb  Pb2  1  0.99999  -0.00001  0.50000  1
 Pb  Pb3  1  0.49997  0.00001  0.00002  1
 Pb  Pb4  1  -0.00001  0.00002  0.00001  1
 Y  Y1  1  0.50001  0.49998  0.50000  1
 Y  Y2  1  0.00001  0.49999  0.49999  1
 Y  Y3  1  0.50001  0.49999  -0.00001  1
 Y  Y4  1  0.50000  -0.00002  0.50001  1
