CIF file written using JARVIS-Tools package.
data_YbClO
_symmetry_space_group_name_H-M  'R-3m'
_cell_length_a       9.13202
_cell_length_b       9.13202
_cell_length_c       9.13203
_cell_angle_alpha    24.2002
_cell_angle_beta     24.2002
_cell_angle_gamma    24.2002

_symmetry_Int_Tables_number  166
_chemical_formula_structural  YbClO
_chemical_formula_sum  Yb2Cl2O2
_cell_volume  112.47355069726612
_cell_formula_units_Z  2
loop_
  _symmetry_equiv_pos_site_id
 _symmetry_equiv_pos_as_xyz
 1  'x, y, z'
loop_
 _atom_site_type_symbol
 _atom_site_label
 _atom_site_symmetry_multiplicity
 _atom_site_fract_x
 _atom_site_fract_y
 _atom_site_fract_z
 _atom_site_fract_occupancy
 Cl  Cl1  1  0.11710  0.11710  0.11710  1
 Cl  Cl2  1  0.88290  0.88290  0.88290  1
 O  O1  1  0.30274  0.30274  0.30274  1
 O  O2  1  0.69726  0.69726  0.69726  1
 Yb  Yb1  1  0.38836  0.38836  0.38836  1
 Yb  Yb2  1  0.61164  0.61164  0.61164  1
