CIF file written using JARVIS-Tools package.
data_Sb3O2F5
_symmetry_space_group_name_H-M  'P2/c'
_cell_length_a       5.89527
_cell_length_b       8.92241
_cell_length_c       13.2328
_cell_angle_alpha    107.858
_cell_angle_beta     90
_cell_angle_gamma    90

_symmetry_Int_Tables_number  13
_chemical_formula_structural  Sb3O2F5
_chemical_formula_sum  Sb2O8F20
_cell_volume  662.5107725031049
_cell_formula_units_Z  4
loop_
  _symmetry_equiv_pos_site_id
 _symmetry_equiv_pos_as_xyz
 1  'x, y, z'
loop_
 _atom_site_type_symbol
 _atom_site_label
 _atom_site_symmetry_multiplicity
 _atom_site_fract_x
 _atom_site_fract_y
 _atom_site_fract_z
 _atom_site_fract_occupancy
 F  F1  1  0.23707  0.56526  0.84857  1
 F  F2  1  0.76293  0.06526  0.84857  1
 F  F3  1  0.87343  0.72614  0.15100  1
 F  F4  1  0.87343  0.77386  0.84900  1
 F  F5  1  0.12657  0.27386  0.84900  1
 F  F6  1  0.12657  0.22614  0.15100  1
 F  F7  1  0.55634  0.97570  0.29211  1
 F  F8  1  0.55634  0.52430  0.70789  1
 F  F9  1  0.44366  0.02430  0.70789  1
 F  F10  1  0.73819  0.57879  0.95690  1
 F  F11  1  0.73819  0.92121  0.04310  1
 F  F12  1  0.26181  0.42121  0.04310  1
 F  F13  1  0.26181  0.07879  0.95690  1
 F  F14  1  0.20221  0.75412  0.35735  1
 F  F15  1  0.20221  0.74588  0.64265  1
 F  F16  1  0.79779  0.24588  0.64265  1
 F  F17  1  0.79779  0.25412  0.35735  1
 F  F18  1  0.23707  0.93474  0.15143  1
 F  F19  1  0.76293  0.43474  0.15143  1
 F  F20  1  0.44366  0.47570  0.29211  1
 O  O1  1  0.73628  0.71264  0.33836  1
 O  O2  1  0.26372  0.28736  0.66164  1
 O  O3  1  0.73628  0.78736  0.66164  1
 O  O4  1  0.82318  0.57103  0.49383  1
 O  O5  1  0.17682  0.07103  0.49383  1
 O  O6  1  0.17682  0.42897  0.50617  1
 O  O7  1  0.82318  0.92897  0.50617  1
 O  O8  1  0.26372  0.21264  0.33836  1
 Sb  Sb1  1  0.96786  0.75000  -0.00000  1
 Sb  Sb2  1  0.44537  0.11850  0.20661  1
 Sb  Sb3  1  0.44537  0.38150  0.79339  1
 Sb  Sb4  1  0.55463  0.88150  0.79339  1
 Sb  Sb5  1  0.55463  0.61850  0.20661  1
 Sb  Sb6  1  0.03934  0.41618  0.35988  1
 Sb  Sb7  1  0.60173  0.75000  0.50000  1
 Sb  Sb8  1  0.03934  0.08382  0.64012  1
 Sb  Sb9  1  0.96066  0.58382  0.64012  1
 Sb  Sb10  1  0.96066  0.91618  0.35988  1
 Sb  Sb11  1  0.39827  0.25000  0.50000  1
 Sb  Sb12  1  0.03214  0.25000  -0.00000  1
