CIF file written using JARVIS-Tools package.
data_H14C3NF5
_symmetry_space_group_name_H-M  'P-1'
_cell_length_a       6.29353
_cell_length_b       6.64386
_cell_length_c       9.92173
_cell_angle_alpha    84.5248
_cell_angle_beta     71.6808
_cell_angle_gamma    89.0665

_symmetry_Int_Tables_number  2
_chemical_formula_structural  H14C3NF5
_chemical_formula_sum  H28C6N2F0
_cell_volume  391.99757529021514
_cell_formula_units_Z  2
loop_
  _symmetry_equiv_pos_site_id
 _symmetry_equiv_pos_as_xyz
 1  'x, y, z'
loop_
 _atom_site_type_symbol
 _atom_site_label
 _atom_site_symmetry_multiplicity
 _atom_site_fract_x
 _atom_site_fract_y
 _atom_site_fract_z
 _atom_site_fract_occupancy
 C  C1  1  0.20921  0.62418  0.84237  1
 C  C2  1  0.61246  0.55183  0.75146  1
 C  C3  1  0.47726  0.89571  0.70703  1
 C  C4  1  0.79079  0.37582  0.15763  1
 C  C5  1  0.38754  0.44817  0.24854  1
 C  C6  1  0.52274  0.10429  0.29297  1
 F  F1  1  0.64624  0.65644  0.42147  1
 F  F2  1  0.03223  0.76214  0.34453  1
 F  F3  1  0.96777  0.23786  0.65547  1
 F  F4  1  0.91275  0.08184  0.88644  1
 F  F5  1  0.87294  0.20168  0.43879  1
 F  F6  1  0.64410  0.80714  0.01628  1
 F  F7  1  0.35590  0.19286  0.98372  1
 F  F8  1  0.12706  0.79832  0.56121  1
 F  F9  1  0.35376  0.34356  0.57853  1
 F  F10  1  0.08725  0.91816  0.11356  1
 H  H1  1  0.90367  0.21166  0.52958  1
 H  H2  1  0.57100  0.39174  0.75582  1
 H  H3  1  0.92560  0.29404  0.18581  1
 H  H4  1  0.19216  0.30201  0.60972  1
 H  H5  1  0.33801  0.97766  0.68499  1
 H  H6  1  0.49974  0.93959  0.80550  1
 H  H7  1  0.66199  0.02234  0.31501  1
 H  H8  1  0.42900  0.60826  0.24418  1
 H  H9  1  0.76618  0.59205  0.66388  1
 H  H10  1  0.77600  0.32722  0.05830  1
 H  H11  1  0.40629  0.63427  0.63146  1
 H  H12  1  0.25110  0.08257  0.03407  1
 H  H13  1  0.92782  0.14425  0.78437  1
 H  H14  1  0.63034  0.92565  0.61664  1
 H  H15  1  0.36928  0.41241  0.14704  1
 H  H16  1  0.63072  0.58759  0.85296  1
 H  H17  1  0.80784  0.69799  0.39028  1
 H  H18  1  0.23382  0.40795  0.33612  1
 H  H19  1  0.22400  0.67278  0.94170  1
 H  H20  1  0.18032  0.46032  0.85322  1
 H  H21  1  0.74890  0.91743  0.96593  1
 H  H22  1  0.81968  0.53968  0.14678  1
 H  H23  1  0.09633  0.78834  0.47042  1
 H  H24  1  0.59371  0.36573  0.36854  1
 H  H25  1  0.07218  0.85575  0.21563  1
 H  H26  1  0.36966  0.07435  0.38336  1
 H  H27  1  0.50026  0.06041  0.19450  1
 H  H28  1  0.07440  0.70596  0.81419  1
 N  N1  1  0.57539  0.32594  0.27408  1
 N  N2  1  0.42461  0.67406  0.72592  1
