CIF file written using JARVIS-Tools package.
data_TlClO3
_symmetry_space_group_name_H-M  'R3m'
_cell_length_a       4.40392
_cell_length_b       4.40392
_cell_length_c       4.40392
_cell_angle_alpha    86.8261
_cell_angle_beta     86.8261
_cell_angle_gamma    86.8262

_symmetry_Int_Tables_number  160
_chemical_formula_structural  TlClO3
_chemical_formula_sum  TlClO3
_cell_volume  85.03248711045819
_cell_formula_units_Z  1
loop_
  _symmetry_equiv_pos_site_id
 _symmetry_equiv_pos_as_xyz
 1  'x, y, z'
loop_
 _atom_site_type_symbol
 _atom_site_label
 _atom_site_symmetry_multiplicity
 _atom_site_fract_x
 _atom_site_fract_y
 _atom_site_fract_z
 _atom_site_fract_occupancy
 Cl  Cl1  1  0.48998  0.48998  0.48998  1
 O  O1  1  0.15181  0.55092  0.55092  1
 O  O2  1  0.55092  0.55092  0.15181  1
 O  O3  1  0.55092  0.15181  0.55092  1
 Tl  Tl1  1  0.01636  0.01636  0.01636  1
