CIF file written using JARVIS-Tools package.
data_NaTeH6O6F
_symmetry_space_group_name_H-M  'R3'
_cell_length_a       5.68155
_cell_length_b       5.68155
_cell_length_c       5.68155
_cell_angle_alpha    63.8138
_cell_angle_beta     63.8138
_cell_angle_gamma    63.8138

_symmetry_Int_Tables_number  146
_chemical_formula_structural  NaTeH6O6F
_chemical_formula_sum  NaTeH6O6F
_cell_volume  140.59328859013993
_cell_formula_units_Z  1
loop_
  _symmetry_equiv_pos_site_id
 _symmetry_equiv_pos_as_xyz
 1  'x, y, z'
loop_
 _atom_site_type_symbol
 _atom_site_label
 _atom_site_symmetry_multiplicity
 _atom_site_fract_x
 _atom_site_fract_y
 _atom_site_fract_z
 _atom_site_fract_occupancy
 F  F1  1  0.55445  0.55445  0.55445  1
 H  H1  1  0.95223  0.01550  0.46265  1
 H  H2  1  0.01550  0.46265  0.95223  1
 H  H3  1  0.46265  0.95223  0.01550  1
 H  H4  1  0.32278  0.80218  0.61077  1
 H  H5  1  0.80218  0.61077  0.32278  1
 H  H6  1  0.61077  0.32278  0.80218  1
 Na  Na1  1  0.37415  0.37415  0.37415  1
 O  O1  1  0.82030  0.06010  0.36439  1
 O  O2  1  0.06010  0.36439  0.82030  1
 O  O3  1  0.36439  0.82030  0.06010  1
 O  O4  1  0.15740  0.97730  0.62911  1
 O  O5  1  0.97730  0.62911  0.15740  1
 O  O6  1  0.62911  0.15740  0.97730  1
 Te  Te1  1  0.00378  0.00378  0.00378  1
