CIF file written using JARVIS-Tools package.
data_AsF3
_symmetry_space_group_name_H-M  'Pna2_1'
_cell_length_a       5.08248
_cell_length_b       6.67685
_cell_length_c       7.18112
_cell_angle_alpha    90
_cell_angle_beta     90
_cell_angle_gamma    90

_symmetry_Int_Tables_number  33
_chemical_formula_structural  AsF3
_chemical_formula_sum  As4F2
_cell_volume  243.69103795657438
_cell_formula_units_Z  4
loop_
  _symmetry_equiv_pos_site_id
 _symmetry_equiv_pos_as_xyz
 1  'x, y, z'
loop_
 _atom_site_type_symbol
 _atom_site_label
 _atom_site_symmetry_multiplicity
 _atom_site_fract_x
 _atom_site_fract_y
 _atom_site_fract_z
 _atom_site_fract_occupancy
 As  As1  1  0.46333  0.20674  0.24327  1
 As  As2  1  0.53667  0.79326  0.74327  1
 As  As3  1  0.03667  0.70674  0.24327  1
 As  As4  1  0.96333  0.29326  0.74327  1
 F  F1  1  0.18537  0.32216  0.35556  1
 F  F2  1  0.81463  0.67784  0.85556  1
 F  F3  1  0.31463  0.82216  0.35556  1
 F  F4  1  0.68537  0.17784  0.85556  1
 F  F5  1  0.10306  0.05542  0.68599  1
 F  F6  1  0.89694  0.94458  0.18599  1
 F  F7  1  0.39694  0.55542  0.68599  1
 F  F8  1  0.60306  0.44458  0.18599  1
 F  F9  1  0.13559  0.31038  0.96038  1
 F  F10  1  0.86441  0.68962  0.46038  1
 F  F11  1  0.36441  0.81038  0.96038  1
 F  F12  1  0.63559  0.18962  0.46038  1
