CIF file written using JARVIS-Tools package.
data_Ge2N2O
_symmetry_space_group_name_H-M  'Cc'
_cell_length_a       5.44879
_cell_length_b       5.65263
_cell_length_c       5.97632
_cell_angle_alpha    61.9906
_cell_angle_beta     90
_cell_angle_gamma    61.1858

_symmetry_Int_Tables_number  9
_chemical_formula_structural  Ge2N2O
_chemical_formula_sum  Ge4N4O2
_cell_volume  136.15813197535024
_cell_formula_units_Z  2
loop_
  _symmetry_equiv_pos_site_id
 _symmetry_equiv_pos_as_xyz
 1  'x, y, z'
loop_
 _atom_site_type_symbol
 _atom_site_label
 _atom_site_symmetry_multiplicity
 _atom_site_fract_x
 _atom_site_fract_y
 _atom_site_fract_z
 _atom_site_fract_occupancy
 Ge  Ge1  1  0.62264  0.92196  0.63498  1
 Ge  Ge2  1  0.45540  0.92196  0.13498  1
 Ge  Ge3  1  0.28469  0.57842  0.62645  1
 Ge  Ge4  1  0.13688  0.57842  0.12645  1
 N  N1  1  0.51918  0.73473  0.50051  1
 N  N2  1  0.74609  0.73473  0.00051  1
 N  N3  1  0.30645  0.33990  0.48717  1
 N  N4  1  0.35365  0.33990  0.98717  1
 O  O1  1  0.91753  0.92518  0.50089  1
 O  O2  1  0.15729  0.92518  0.00089  1
