CIF file written using JARVIS-Tools package.
data_Li2FeCo2O6
_symmetry_space_group_name_H-M  'Cmce'
_cell_length_a       4.89258
_cell_length_b       4.91263
_cell_length_c       9.72241
_cell_angle_alpha    90
_cell_angle_beta     90
_cell_angle_gamma    59.8644

_symmetry_Int_Tables_number  64
_chemical_formula_structural  Li2FeCo2O6
_chemical_formula_sum  Li4Fe2Co4O2
_cell_volume  202.0975099844096
_cell_formula_units_Z  2
loop_
  _symmetry_equiv_pos_site_id
 _symmetry_equiv_pos_as_xyz
 1  'x, y, z'
loop_
 _atom_site_type_symbol
 _atom_site_label
 _atom_site_symmetry_multiplicity
 _atom_site_fract_x
 _atom_site_fract_y
 _atom_site_fract_z
 _atom_site_fract_occupancy
 Co  Co1  1  0.32799  0.33601  0.00000  1
 Co  Co2  1  0.32799  0.83601  0.50000  1
 Co  Co3  1  0.67201  0.16399  0.50000  1
 Co  Co4  1  0.67201  0.66399  0.00000  1
 Fe  Fe1  1  0.00000  0.00000  0.00000  1
 Fe  Fe2  1  -0.00000  0.50000  0.50000  1
 Li  Li1  1  0.50000  0.15837  0.75000  1
 Li  Li2  1  0.50000  0.34163  0.25000  1
 Li  Li3  1  0.50000  0.65837  0.75000  1
 Li  Li4  1  0.50000  0.84163  0.25000  1
 O  O1  1  0.66284  0.50352  0.39609  1
 O  O2  1  -0.00000  0.32867  0.10019  1
 O  O3  1  0.00000  0.67133  0.89981  1
 O  O4  1  0.33716  0.99648  0.89609  1
 O  O5  1  0.00000  0.17133  0.60019  1
 O  O6  1  0.66284  0.33364  0.89609  1
 O  O7  1  0.33716  0.49648  0.60391  1
 O  O8  1  0.33716  0.66636  0.10391  1
 O  O9  1  0.66284  0.00352  0.10391  1
 O  O10  1  -0.00000  0.82867  0.39981  1
 O  O11  1  0.33716  0.16636  0.39609  1
 O  O12  1  0.66284  0.83364  0.60391  1
