CIF file written using JARVIS-Tools package.
data_RbO
_symmetry_space_group_name_H-M  'Immm'
_cell_length_a       4.15859
_cell_length_b       5.08946
_cell_length_c       5.08946
_cell_angle_alpha    72.3792
_cell_angle_beta     65.8862
_cell_angle_gamma    65.8863

_symmetry_Int_Tables_number  71
_chemical_formula_structural  RbO
_chemical_formula_sum  Rb2O2
_cell_volume  88.53847770988415
_cell_formula_units_Z  2
loop_
  _symmetry_equiv_pos_site_id
 _symmetry_equiv_pos_as_xyz
 1  'x, y, z'
loop_
 _atom_site_type_symbol
 _atom_site_label
 _atom_site_symmetry_multiplicity
 _atom_site_fract_x
 _atom_site_fract_y
 _atom_site_fract_z
 _atom_site_fract_occupancy
 O  O1  1  -0.00000  0.62725  0.37275  1
 O  O2  1  0.00000  0.37275  0.62725  1
 Rb  Rb1  1  0.74642  0.25358  0.25358  1
 Rb  Rb2  1  0.25358  0.74642  0.74642  1
