CIF file written using JARVIS-Tools package.
data_CdI2
_symmetry_space_group_name_H-M  'P3m1'
_cell_length_a       4.28615
_cell_length_b       4.28614
_cell_length_c       55.0207
_cell_angle_alpha    90
_cell_angle_beta     90
_cell_angle_gamma    120

_symmetry_Int_Tables_number  156
_chemical_formula_structural  CdI2
_chemical_formula_sum  Cd8I6
_cell_volume  875.3675994308308
_cell_formula_units_Z  8
loop_
  _symmetry_equiv_pos_site_id
 _symmetry_equiv_pos_as_xyz
 1  'x, y, z'
loop_
 _atom_site_type_symbol
 _atom_site_label
 _atom_site_symmetry_multiplicity
 _atom_site_fract_x
 _atom_site_fract_y
 _atom_site_fract_z
 _atom_site_fract_occupancy
 Cd  Cd1  1  0.00000  0.00000  0.78124  1
 Cd  Cd2  1  0.00000  0.00000  0.40628  1
 Cd  Cd3  1  0.00000  0.00000  0.90621  1
 Cd  Cd4  1  0.66667  0.33333  0.03123  1
 Cd  Cd5  1  0.00000  0.00000  0.15625  1
 Cd  Cd6  1  0.00000  0.00000  0.65624  1
 Cd  Cd7  1  0.66667  0.33333  0.28124  1
 Cd  Cd8  1  0.00000  0.00000  0.53123  1
 I  I1  1  0.33333  0.66667  0.81277  1
 I  I2  1  0.33333  0.66667  0.56275  1
 I  I3  1  0.66667  0.33333  0.12475  1
 I  I4  1  0.00000  0.00000  -0.00027  1
 I  I5  1  0.33333  0.66667  0.06277  1
 I  I6  1  0.66667  0.33333  0.87471  1
 I  I7  1  0.00000  0.00000  0.24975  1
 I  I8  1  0.66667  0.33333  0.62473  1
 I  I9  1  0.33333  0.66667  0.18778  1
 I  I10  1  0.66667  0.33333  0.49972  1
 I  I11  1  0.33333  0.66667  0.43780  1
 I  I12  1  0.33333  0.66667  0.31278  1
 I  I13  1  0.33333  0.66667  0.93774  1
 I  I14  1  0.66667  0.33333  0.37478  1
 I  I15  1  0.66667  0.33333  0.74974  1
 I  I16  1  0.33333  0.66667  0.68776  1
