CIF file written using JARVIS-Tools package.
data_NaAsSe2
_symmetry_space_group_name_H-M  'C2/c'
_cell_length_a       8.6169
_cell_length_b       11.0423
_cell_length_c       7.27781
_cell_angle_alpha    29.3439
_cell_angle_beta     53.6971
_cell_angle_gamma    38.7032

_symmetry_Int_Tables_number  15
_chemical_formula_structural  NaAsSe2
_chemical_formula_sum  Na2As2Se4
_cell_volume  203.2104007204565
_cell_formula_units_Z  2
loop_
  _symmetry_equiv_pos_site_id
 _symmetry_equiv_pos_as_xyz
 1  'x, y, z'
loop_
 _atom_site_type_symbol
 _atom_site_label
 _atom_site_symmetry_multiplicity
 _atom_site_fract_x
 _atom_site_fract_y
 _atom_site_fract_z
 _atom_site_fract_occupancy
 As  As1  1  0.20522  0.49996  0.00003  1
 As  As2  1  0.54478  0.00004  -0.00003  1
 Na  Na1  1  -0.01282  -0.00003  0.00001  1
 Na  Na2  1  0.76282  0.50003  -0.00001  1
 Se  Se1  1  -0.02859  0.52596  0.45024  1
 Se  Se2  1  0.47355  0.47410  0.54970  1
 Se  Se3  1  0.27645  0.02590  0.45030  1
 Se  Se4  1  0.77859  0.97404  0.54976  1
