CIF file written using JARVIS-Tools package.
data_H12C10O3
_symmetry_space_group_name_H-M  'P2_1'
_cell_length_a       7.97165
_cell_length_b       5.19398
_cell_length_c       10.7688
_cell_angle_alpha    90
_cell_angle_beta     110.052
_cell_angle_gamma    90

_symmetry_Int_Tables_number  4
_chemical_formula_structural  H12C10O3
_chemical_formula_sum  H24C20O6
_cell_volume  418.84832987435396
_cell_formula_units_Z  2
loop_
  _symmetry_equiv_pos_site_id
 _symmetry_equiv_pos_as_xyz
 1  'x, y, z'
loop_
 _atom_site_type_symbol
 _atom_site_label
 _atom_site_symmetry_multiplicity
 _atom_site_fract_x
 _atom_site_fract_y
 _atom_site_fract_z
 _atom_site_fract_occupancy
 C  C1  1  0.17613  0.13285  0.77510  1
 C  C2  1  0.77862  0.44832  0.62526  1
 C  C3  1  0.22138  0.94832  0.37474  1
 C  C4  1  0.61724  0.56478  0.64684  1
 C  C5  1  0.38276  0.06478  0.35316  1
 C  C6  1  0.51552  0.38671  0.70721  1
 C  C7  1  0.48448  0.88671  0.29279  1
 C  C8  1  0.34433  0.50221  0.71652  1
 C  C9  1  0.65567  0.00221  0.28348  1
 C  C10  1  0.82387  0.63285  0.22490  1
 C  C11  1  0.72043  0.85602  0.18675  1
 C  C12  1  0.88760  0.50607  0.13566  1
 C  C13  1  0.15310  0.09973  0.99289  1
 C  C14  1  0.84690  0.59973  0.00711  1
 C  C15  1  0.25897  0.31971  0.03238  1
 C  C16  1  0.74103  0.81971  0.96762  1
 C  C17  1  0.32167  0.44689  0.94287  1
 C  C18  1  0.67833  0.94689  0.05713  1
 C  C19  1  0.27957  0.35602  0.81325  1
 C  C20  1  0.11240  0.00607  0.86434  1
 H  H1  1  0.17241  0.26301  0.46773  1
 H  H2  1  0.40212  0.62072  0.97297  1
 H  H3  1  0.14311  0.83787  0.28675  1
 H  H4  1  0.82759  0.76301  0.53227  1
 H  H5  1  0.48928  0.20195  0.65381  1
 H  H6  1  0.51072  0.70195  0.34619  1
 H  H7  1  0.60692  0.34071  0.80765  1
 H  H8  1  0.39308  0.84071  0.19235  1
 H  H9  1  0.37163  0.70308  0.75087  1
 H  H10  1  0.62837  0.20308  0.24913  1
 H  H11  1  0.14050  0.06150  0.67402  1
 H  H12  1  0.59788  0.12072  0.02703  1
 H  H13  1  0.97037  0.33551  0.16833  1
 H  H14  1  0.09936  0.00246  0.06079  1
 H  H15  1  0.02963  0.83551  0.83167  1
 H  H16  1  0.85950  0.56150  0.32598  1
 H  H17  1  0.70950  0.89487  0.86767  1
 H  H18  1  0.29050  0.39487  0.13233  1
 H  H19  1  0.26902  0.80754  0.45636  1
 H  H20  1  0.73098  0.30754  0.54364  1
 H  H21  1  0.90576  0.05356  0.40861  1
 H  H22  1  0.09424  0.55356  0.59139  1
 H  H23  1  0.85689  0.33787  0.71325  1
 H  H24  1  0.90064  0.50246  0.93921  1
 O  O1  1  0.89471  0.63593  0.60114  1
 O  O2  1  0.78748  0.00324  0.41482  1
 O  O3  1  0.42372  0.29145  0.38055  1
 O  O4  1  0.57628  0.79145  0.61945  1
 O  O5  1  0.10529  0.13593  0.39886  1
 O  O6  1  0.21252  0.50324  0.58518  1
