CIF file written using JARVIS-Tools package.
data_TbNbO4
_symmetry_space_group_name_H-M  'I4_1/amd'
_cell_length_a       6.17804
_cell_length_b       6.17804
_cell_length_c       6.17804
_cell_angle_alpha    107.224
_cell_angle_beta     107.224
_cell_angle_gamma    114.066

_symmetry_Int_Tables_number  141
_chemical_formula_structural  TbNbO4
_chemical_formula_sum  Tb2Nb2O8
_cell_volume  180.63952730391566
_cell_formula_units_Z  2
loop_
  _symmetry_equiv_pos_site_id
 _symmetry_equiv_pos_as_xyz
 1  'x, y, z'
loop_
 _atom_site_type_symbol
 _atom_site_label
 _atom_site_symmetry_multiplicity
 _atom_site_fract_x
 _atom_site_fract_y
 _atom_site_fract_z
 _atom_site_fract_occupancy
 Nb  Nb1  1  0.50000  0.50000  0.00000  1
 Nb  Nb2  1  0.25000  0.75000  0.50000  1
 O  O1  1  0.50884  0.31654  0.19230  1
 O  O2  1  0.68346  0.87576  0.19230  1
 O  O3  1  0.06654  0.37424  0.30770  1
 O  O4  1  0.68346  0.49116  0.80770  1
 O  O5  1  0.12424  0.31654  0.80770  1
 O  O6  1  0.24116  0.93346  0.30770  1
 O  O7  1  0.62576  0.93346  0.69230  1
 O  O8  1  0.06654  0.75884  0.69230  1
 Tb  Tb1  1  0.00000  0.00000  0.00000  1
 Tb  Tb2  1  0.75000  0.25000  0.50000  1
