CIF file written using JARVIS-Tools package.
data_TaPd3
_symmetry_space_group_name_H-M  'I4/mmm'
_cell_length_a       3.92463
_cell_length_b       3.92463
_cell_length_c       4.89234
_cell_angle_alpha    113.647
_cell_angle_beta     113.647
_cell_angle_gamma    90

_symmetry_Int_Tables_number  139
_chemical_formula_structural  TaPd3
_chemical_formula_sum  TaPd3
_cell_volume  62.058990980865254
_cell_formula_units_Z  1
loop_
  _symmetry_equiv_pos_site_id
 _symmetry_equiv_pos_as_xyz
 1  'x, y, z'
loop_
 _atom_site_type_symbol
 _atom_site_label
 _atom_site_symmetry_multiplicity
 _atom_site_fract_x
 _atom_site_fract_y
 _atom_site_fract_z
 _atom_site_fract_occupancy
 Pd  Pd1  1  0.50000  0.50000  -0.00000  1
 Pd  Pd2  1  0.25000  0.75000  0.50000  1
 Pd  Pd3  1  0.75000  0.25000  0.50000  1
 Ta  Ta1  1  0.00000  0.00000  0.00000  1
