CIF file written using JARVIS-Tools package.
data_BeSiN2
_symmetry_space_group_name_H-M  'I-42d'
_cell_length_a       4.07695
_cell_length_b       4.07695
_cell_length_c       5.00385
_cell_angle_alpha    114.04
_cell_angle_beta     114.04
_cell_angle_gamma    90

_symmetry_Int_Tables_number  122
_chemical_formula_structural  BeSiN2
_chemical_formula_sum  Be2Si2N4
_cell_volume  67.98140630642888
_cell_formula_units_Z  2
loop_
  _symmetry_equiv_pos_site_id
 _symmetry_equiv_pos_as_xyz
 1  'x, y, z'
loop_
 _atom_site_type_symbol
 _atom_site_label
 _atom_site_symmetry_multiplicity
 _atom_site_fract_x
 _atom_site_fract_y
 _atom_site_fract_z
 _atom_site_fract_occupancy
 Be  Be1  1  0.00000  0.00000  0.00000  1
 Be  Be2  1  0.25000  0.75000  0.50000  1
 N  N1  1  0.37947  0.37500  0.25000  1
 N  N2  1  0.87053  0.87500  0.25000  1
 N  N3  1  0.12500  0.62053  0.75000  1
 N  N4  1  0.62500  0.12947  0.75000  1
 Si  Si1  1  0.50000  0.50000  -0.00000  1
 Si  Si2  1  0.75000  0.25000  0.50000  1
