CIF file written using JARVIS-Tools package.
data_Cu2H3ClO3
_symmetry_space_group_name_H-M  'P2_1/m'
_cell_length_a       5.76675
_cell_length_b       5.68637
_cell_length_c       6.14731
_cell_angle_alpha    90
_cell_angle_beta     90
_cell_angle_gamma    92.7286

_symmetry_Int_Tables_number  11
_chemical_formula_structural  Cu2H3ClO3
_chemical_formula_sum  Cu4H6Cl2O6
_cell_volume  201.35369995073012
_cell_formula_units_Z  2
loop_
  _symmetry_equiv_pos_site_id
 _symmetry_equiv_pos_as_xyz
 1  'x, y, z'
loop_
 _atom_site_type_symbol
 _atom_site_label
 _atom_site_symmetry_multiplicity
 _atom_site_fract_x
 _atom_site_fract_y
 _atom_site_fract_z
 _atom_site_fract_occupancy
 Cl  Cl1  1  0.72072  0.88643  0.75000  1
 Cl  Cl2  1  0.27928  0.11357  0.25000  1
 Cu  Cu1  1  0.99575  0.52062  0.75000  1
 Cu  Cu2  1  0.50000  0.50000  0.00000  1
 Cu  Cu3  1  0.50000  0.50000  0.50000  1
 Cu  Cu4  1  0.00425  0.47938  0.25000  1
 H  H1  1  0.54774  0.83500  0.25000  1
 H  H2  1  0.20058  0.80837  0.03498  1
 H  H3  1  0.79942  0.19163  0.96502  1
 H  H4  1  0.20058  0.80837  0.46502  1
 H  H5  1  0.79942  0.19163  0.53498  1
 H  H6  1  0.45226  0.16500  0.75000  1
 O  O1  1  0.18959  0.63615  0.49482  1
 O  O2  1  0.18959  0.63615  0.00518  1
 O  O3  1  0.81041  0.36385  0.50518  1
 O  O4  1  0.61110  0.67628  0.25000  1
 O  O5  1  0.38890  0.32372  0.75000  1
 O  O6  1  0.81041  0.36385  0.99482  1
