CIF file written using JARVIS-Tools package.
data_Ga2Se3
_symmetry_space_group_name_H-M  'Cc'
_cell_length_a       6.73963
_cell_length_b       6.72593
_cell_length_c       6.78782
_cell_angle_alpha    80.7697
_cell_angle_beta     60.2346
_cell_angle_gamma    71.1496

_symmetry_Int_Tables_number  9
_chemical_formula_structural  Ga2Se3
_chemical_formula_sum  Ga4Se6
_cell_volume  252.77229432522878
_cell_formula_units_Z  2
loop_
  _symmetry_equiv_pos_site_id
 _symmetry_equiv_pos_as_xyz
 1  'x, y, z'
loop_
 _atom_site_type_symbol
 _atom_site_label
 _atom_site_symmetry_multiplicity
 _atom_site_fract_x
 _atom_site_fract_y
 _atom_site_fract_z
 _atom_site_fract_occupancy
 Ga  Ga1  1  0.72247  0.50449  0.49459  1
 Ga  Ga2  1  0.21706  0.00449  0.50541  1
 Ga  Ga3  1  0.41509  0.50075  0.17009  1
 Ga  Ga4  1  0.58518  0.00075  0.82991  1
 Se  Se1  1  0.25193  0.88841  0.15743  1
 Se  Se2  1  0.40936  0.38841  0.84257  1
 Se  Se3  1  0.78907  0.36081  0.16232  1
 Se  Se4  1  0.95139  0.86081  0.83768  1
 Se  Se5  1  0.09745  0.39314  0.52315  1
 Se  Se6  1  0.62060  0.89314  0.47685  1
