CIF file written using JARVIS-Tools package.
data_Li2MnCrP2O8
_symmetry_space_group_name_H-M  'P2_1/m'
_cell_length_a       4.73675
_cell_length_b       6.20316
_cell_length_c       10.2548
_cell_angle_alpha    90
_cell_angle_beta     91.6909
_cell_angle_gamma    90

_symmetry_Int_Tables_number  11
_chemical_formula_structural  Li2MnCrP2O8
_chemical_formula_sum  Li4Mn2Cr2P4O6
_cell_volume  301.18368283291096
_cell_formula_units_Z  2
loop_
  _symmetry_equiv_pos_site_id
 _symmetry_equiv_pos_as_xyz
 1  'x, y, z'
loop_
 _atom_site_type_symbol
 _atom_site_label
 _atom_site_symmetry_multiplicity
 _atom_site_fract_x
 _atom_site_fract_y
 _atom_site_fract_z
 _atom_site_fract_occupancy
 Cr  Cr1  1  0.55843  0.25000  0.21489  1
 Cr  Cr2  1  0.44157  0.75000  0.78511  1
 Li  Li1  1  0.00000  0.00000  0.00000  1
 Li  Li2  1  0.00000  0.50000  0.00000  1
 Li  Li3  1  0.50000  0.00000  0.50000  1
 Li  Li4  1  0.50000  0.50000  0.50000  1
 Mn  Mn1  1  0.03176  0.75000  0.28344  1
 Mn  Mn2  1  0.96824  0.25000  0.71656  1
 O  O1  1  0.25276  0.75000  0.09080  1
 O  O2  1  0.22129  0.04728  0.33760  1
 O  O3  1  0.22129  0.45272  0.33760  1
 O  O4  1  0.30755  0.25000  0.05130  1
 O  O5  1  0.71539  0.94766  0.16097  1
 O  O6  1  0.74724  0.25000  0.90920  1
 O  O7  1  0.78477  0.75000  0.45334  1
 O  O8  1  0.71539  0.55234  0.16097  1
 O  O9  1  0.21523  0.25000  0.54666  1
 O  O10  1  0.28461  0.44766  0.83903  1
 O  O11  1  0.77871  0.95272  0.66240  1
 O  O12  1  0.77871  0.54728  0.66240  1
 O  O13  1  0.76683  0.25000  0.39655  1
 O  O14  1  0.28461  0.05234  0.83903  1
 O  O15  1  0.23317  0.75000  0.60345  1
 O  O16  1  0.69245  0.75000  0.94870  1
 P  P1  1  0.57663  0.75000  0.08981  1
 P  P2  1  0.09377  0.25000  0.40407  1
 P  P3  1  0.90623  0.75000  0.59593  1
 P  P4  1  0.42337  0.25000  0.91019  1
