CIF file written using JARVIS-Tools package.
data_NaNb6O15F
_symmetry_space_group_name_H-M  'Amm2'
_cell_length_a       3.95279
_cell_length_b       9.11973
_cell_length_c       9.11972
_cell_angle_alpha    109.852
_cell_angle_beta     90
_cell_angle_gamma    90

_symmetry_Int_Tables_number  38
_chemical_formula_structural  NaNb6O15F
_chemical_formula_sum  NaNb6O5F
_cell_volume  309.2129932753667
_cell_formula_units_Z  1
loop_
  _symmetry_equiv_pos_site_id
 _symmetry_equiv_pos_as_xyz
 1  'x, y, z'
loop_
 _atom_site_type_symbol
 _atom_site_label
 _atom_site_symmetry_multiplicity
 _atom_site_fract_x
 _atom_site_fract_y
 _atom_site_fract_z
 _atom_site_fract_occupancy
 F  F1  1  0.50000  0.00047  0.99953  1
 Na  Na1  1  0.50000  0.40396  0.59604  1
 Nb  Nb1  1  0.00000  0.21844  0.78156  1
 Nb  Nb2  1  0.00000  0.73593  0.62273  1
 Nb  Nb3  1  0.00000  0.37727  0.26407  1
 Nb  Nb4  1  0.00000  0.99427  0.37216  1
 Nb  Nb5  1  0.00000  0.99952  0.00048  1
 Nb  Nb6  1  0.00000  0.62784  0.00573  1
 O  O1  1  0.50000  0.99103  0.36050  1
 O  O2  1  0.00000  0.51097  0.48903  1
 O  O3  1  0.00000  0.86289  0.13711  1
 O  O4  1  0.00000  0.53431  0.16876  1
 O  O5  1  0.00000  0.83124  0.46569  1
 O  O6  1  0.00000  0.76902  0.85752  1
 O  O7  1  0.50000  0.71550  0.63728  1
 O  O8  1  0.50000  0.22222  0.77778  1
 O  O9  1  0.00000  0.18256  0.55302  1
 O  O10  1  0.50000  0.63950  0.00897  1
 O  O11  1  0.00000  0.98964  0.77078  1
 O  O12  1  0.00000  0.22922  0.01036  1
 O  O13  1  0.00000  0.44698  0.81744  1
 O  O14  1  0.00000  0.14248  0.23098  1
 O  O15  1  0.50000  0.36272  0.28450  1
