CIF file written using JARVIS-Tools package.
data_AgN3
_symmetry_space_group_name_H-M  'Ibam'
_cell_length_a       5.0882
_cell_length_b       5.0882
_cell_length_c       5.0882
_cell_angle_alpha    108.317
_cell_angle_beta     105.87
_cell_angle_gamma    114.348

_symmetry_Int_Tables_number  72
_chemical_formula_structural  AgN3
_chemical_formula_sum  Ag2N6
_cell_volume  100.80972897754098
_cell_formula_units_Z  2
loop_
  _symmetry_equiv_pos_site_id
 _symmetry_equiv_pos_as_xyz
 1  'x, y, z'
loop_
 _atom_site_type_symbol
 _atom_site_label
 _atom_site_symmetry_multiplicity
 _atom_site_fract_x
 _atom_site_fract_y
 _atom_site_fract_z
 _atom_site_fract_occupancy
 Ag  Ag1  1  0.50000  0.25000  0.75000  1
 Ag  Ag2  1  0.50000  0.75000  0.25000  1
 N  N1  1  0.28854  0.17066  0.11787  1
 N  N2  1  0.05279  0.67066  0.38213  1
 N  N3  1  0.00000  0.00000  0.00000  1
 N  N4  1  -0.00000  0.50000  0.50000  1
 N  N5  1  0.71146  0.82934  0.88213  1
 N  N6  1  0.94721  0.32934  0.61787  1
