CIF file written using JARVIS-Tools package.
data_Rb3AlO3
_symmetry_space_group_name_H-M  'C2/m'
_cell_length_a       6.77885
_cell_length_b       6.77885
_cell_length_c       6.78633
_cell_angle_alpha    97.6348
_cell_angle_beta     97.6348
_cell_angle_gamma    114.725

_symmetry_Int_Tables_number  12
_chemical_formula_structural  Rb3AlO3
_chemical_formula_sum  Rb6Al2O6
_cell_volume  274.53337189045794
_cell_formula_units_Z  2
loop_
  _symmetry_equiv_pos_site_id
 _symmetry_equiv_pos_as_xyz
 1  'x, y, z'
loop_
 _atom_site_type_symbol
 _atom_site_label
 _atom_site_symmetry_multiplicity
 _atom_site_fract_x
 _atom_site_fract_y
 _atom_site_fract_z
 _atom_site_fract_occupancy
 Al  Al1  1  0.84214  0.84214  0.85420  1
 Al  Al2  1  0.15786  0.15786  0.14580  1
 O  O1  1  0.85206  0.59665  0.73830  1
 O  O2  1  0.40335  0.14794  0.26170  1
 O  O3  1  0.14794  0.40335  0.26170  1
 O  O4  1  0.59665  0.85206  0.73830  1
 O  O5  1  0.90273  0.90273  0.13562  1
 O  O6  1  0.09727  0.09727  0.86438  1
 Rb  Rb1  1  0.36951  0.36951  0.65292  1
 Rb  Rb2  1  0.63049  0.63049  0.34708  1
 Rb  Rb3  1  0.19637  0.80363  0.50000  1
 Rb  Rb4  1  0.80363  0.19637  0.50000  1
 Rb  Rb5  1  0.26938  0.73062  0.00000  1
 Rb  Rb6  1  0.73062  0.26938  -0.00000  1
