CIF file written using JARVIS-Tools package.
data_P3N5
_symmetry_space_group_name_H-M  'Imm2'
_cell_length_a       2.63628
_cell_length_b       4.42277
_cell_length_c       6.97181
_cell_angle_alpha    108.493
_cell_angle_beta     100.898
_cell_angle_gamma    90.0002

_symmetry_Int_Tables_number  44
_chemical_formula_structural  P3N5
_chemical_formula_sum  P3N5
_cell_volume  75.5439189080008
_cell_formula_units_Z  1
loop_
  _symmetry_equiv_pos_site_id
 _symmetry_equiv_pos_as_xyz
 1  'x, y, z'
loop_
 _atom_site_type_symbol
 _atom_site_label
 _atom_site_symmetry_multiplicity
 _atom_site_fract_x
 _atom_site_fract_y
 _atom_site_fract_z
 _atom_site_fract_occupancy
 N  N1  1  0.22368  0.49995  0.44735  1
 N  N2  1  0.77633  0.05260  0.55265  1
 N  N3  1  0.89605  0.81284  0.79211  1
 N  N4  1  0.49999  0.49369  0.00000  1
 N  N5  1  0.10395  0.02073  0.20789  1
 P  P1  1  0.31830  0.86572  0.63659  1
 P  P2  1  0.68171  0.22912  0.36341  1
 P  P3  1  -0.00001  0.69176  0.00000  1
