CIF file written using JARVIS-Tools package.
data_MgC2
_symmetry_space_group_name_H-M  'P4_2/mnm'
_cell_length_a       3.93763
_cell_length_b       3.93763
_cell_length_c       4.95846
_cell_angle_alpha    90
_cell_angle_beta     90
_cell_angle_gamma    90

_symmetry_Int_Tables_number  136
_chemical_formula_structural  MgC2
_chemical_formula_sum  Mg2C4
_cell_volume  76.88061374681106
_cell_formula_units_Z  2
loop_
  _symmetry_equiv_pos_site_id
 _symmetry_equiv_pos_as_xyz
 1  'x, y, z'
loop_
 _atom_site_type_symbol
 _atom_site_label
 _atom_site_symmetry_multiplicity
 _atom_site_fract_x
 _atom_site_fract_y
 _atom_site_fract_z
 _atom_site_fract_occupancy
 C  C1  1  0.88784  0.88784  0.00000  1
 C  C2  1  0.61216  0.38784  0.50000  1
 C  C3  1  0.11216  0.11216  0.00000  1
 C  C4  1  0.38784  0.61216  0.50000  1
 Mg  Mg1  1  0.50000  0.50000  0.00000  1
 Mg  Mg2  1  0.00000  0.00000  0.50000  1
