CIF file written using JARVIS-Tools package.
data_Sr3Fe2Cu2Se2O5
_symmetry_space_group_name_H-M  'I4/mmm'
_cell_length_a       3.93474
_cell_length_b       3.93474
_cell_length_c       13.9092
_cell_angle_alpha    98.1314
_cell_angle_beta     98.1314
_cell_angle_gamma    90

_symmetry_Int_Tables_number  139
_chemical_formula_structural  Sr3Fe2Cu2Se2O5
_chemical_formula_sum  Sr3Fe2Cu2Se2O5
_cell_volume  210.99163678654546
_cell_formula_units_Z  1
loop_
  _symmetry_equiv_pos_site_id
 _symmetry_equiv_pos_as_xyz
 1  'x, y, z'
loop_
 _atom_site_type_symbol
 _atom_site_label
 _atom_site_symmetry_multiplicity
 _atom_site_fract_x
 _atom_site_fract_y
 _atom_site_fract_z
 _atom_site_fract_occupancy
 Cu  Cu1  1  0.75000  0.25000  0.50000  1
 Cu  Cu2  1  0.25000  0.75000  0.50000  1
 Fe  Fe1  1  0.93024  0.93024  0.86048  1
 Fe  Fe2  1  0.06976  0.06976  0.13952  1
 O  O1  1  0.57677  0.07677  0.15355  1
 O  O2  1  0.00000  0.00000  0.00000  1
 O  O3  1  0.92323  0.42323  0.84645  1
 O  O4  1  0.07677  0.57677  0.15355  1
 O  O5  1  0.42323  0.92323  0.84645  1
 Se  Se1  1  0.80787  0.80787  0.61575  1
 Se  Se2  1  0.19213  0.19213  0.38425  1
 Sr  Sr1  1  0.36487  0.36487  0.72973  1
 Sr  Sr2  1  0.50000  0.50000  -0.00000  1
 Sr  Sr3  1  0.63513  0.63513  0.27027  1
