CIF file written using JARVIS-Tools package.
data_Ho2Sn2O7
_symmetry_space_group_name_H-M  'Fd-3m'
_cell_length_a       7.38341
_cell_length_b       7.38341
_cell_length_c       7.38341
_cell_angle_alpha    60
_cell_angle_beta     60
_cell_angle_gamma    60

_symmetry_Int_Tables_number  227
_chemical_formula_structural  Ho2Sn2O7
_chemical_formula_sum  Ho4Sn4O4
_cell_volume  284.6142435418347
_cell_formula_units_Z  2
loop_
  _symmetry_equiv_pos_site_id
 _symmetry_equiv_pos_as_xyz
 1  'x, y, z'
loop_
 _atom_site_type_symbol
 _atom_site_label
 _atom_site_symmetry_multiplicity
 _atom_site_fract_x
 _atom_site_fract_y
 _atom_site_fract_z
 _atom_site_fract_occupancy
 Ho  Ho1  1  0.50000  0.50000  0.50000  1
 Ho  Ho2  1  0.00000  0.50000  0.50000  1
 Ho  Ho3  1  0.50000  0.00000  0.50000  1
 Ho  Ho4  1  0.50000  0.50000  -0.00000  1
 O  O1  1  0.37500  0.37500  0.37500  1
 O  O2  1  0.34022  0.90978  0.90978  1
 O  O3  1  0.09022  0.65978  0.65978  1
 O  O4  1  0.90978  0.34022  0.90978  1
 O  O5  1  0.90978  0.90978  0.34022  1
 O  O6  1  0.34022  0.34022  0.90978  1
 O  O7  1  0.34022  0.90978  0.34022  1
 O  O8  1  0.90978  0.34022  0.34022  1
 O  O9  1  0.65978  0.09022  0.09022  1
 O  O10  1  0.65978  0.65978  0.09022  1
 O  O11  1  0.65978  0.09022  0.65978  1
 O  O12  1  0.09022  0.65978  0.09022  1
 O  O13  1  0.62500  0.62500  0.62500  1
 O  O14  1  0.09022  0.09022  0.65978  1
 Sn  Sn1  1  0.00000  0.50000  -0.00000  1
 Sn  Sn2  1  0.50000  0.00000  -0.00000  1
 Sn  Sn3  1  0.00000  0.00000  0.50000  1
 Sn  Sn4  1  0.00000  0.00000  0.00000  1
