CIF file written using JARVIS-Tools package.
data_LiSbTe3O12
_symmetry_space_group_name_H-M  'P1'
_cell_length_a       5.06107
_cell_length_b       5.32221
_cell_length_c       7.35053
_cell_angle_alpha    94.1291
_cell_angle_beta     90.1156
_cell_angle_gamma    89.9912

_symmetry_Int_Tables_number  1
_chemical_formula_structural  LiSbTe3O12
_chemical_formula_sum  LiSbTe3O2
_cell_volume  197.480299005365
_cell_formula_units_Z  1
loop_
  _symmetry_equiv_pos_site_id
 _symmetry_equiv_pos_as_xyz
 1  'x, y, z'
loop_
 _atom_site_type_symbol
 _atom_site_label
 _atom_site_symmetry_multiplicity
 _atom_site_fract_x
 _atom_site_fract_y
 _atom_site_fract_z
 _atom_site_fract_occupancy
 Li  Li1  1  0.49751  0.92540  0.78775  1
 O  O1  1  0.33448  0.82850  0.05185  1
 O  O2  1  0.68373  0.81944  0.56686  1
 O  O3  1  0.18665  0.68568  0.42513  1
 O  O4  1  0.85856  0.00209  0.25677  1
 O  O5  1  0.80128  0.69233  0.92473  1
 O  O6  1  0.36830  0.52168  0.74492  1
 O  O7  1  0.64452  0.50183  0.24946  1
 O  O8  1  0.18001  0.33469  0.06638  1
 O  O9  1  0.32127  0.18201  0.42697  1
 O  O10  1  0.67626  0.18987  0.92773  1
 O  O11  1  0.81587  0.31895  0.57017  1
 O  O12  1  0.13557  0.01051  0.74426  1
 Sb  Sb1  1  0.99879  0.00594  0.00645  1
 Te  Te1  1  0.50129  0.49763  0.49415  1
 Te  Te2  1  0.49875  0.50144  0.00236  1
 Te  Te3  1  0.00255  0.00357  0.49682  1
