CIF file written using JARVIS-Tools package.
data_CaPbO3
_symmetry_space_group_name_H-M  'Pnma'
_cell_length_a       5.71227
_cell_length_b       5.9716
_cell_length_c       8.25344
_cell_angle_alpha    90
_cell_angle_beta     90
_cell_angle_gamma    90

_symmetry_Int_Tables_number  62
_chemical_formula_structural  CaPbO3
_chemical_formula_sum  Ca4Pb4O2
_cell_volume  281.5362149812834
_cell_formula_units_Z  4
loop_
  _symmetry_equiv_pos_site_id
 _symmetry_equiv_pos_as_xyz
 1  'x, y, z'
loop_
 _atom_site_type_symbol
 _atom_site_label
 _atom_site_symmetry_multiplicity
 _atom_site_fract_x
 _atom_site_fract_y
 _atom_site_fract_z
 _atom_site_fract_occupancy
 Ca  Ca1  1  0.98095  0.06214  0.25000  1
 Ca  Ca2  1  0.48095  0.43786  0.75000  1
 Ca  Ca3  1  0.51905  0.56214  0.25000  1
 Ca  Ca4  1  0.01905  0.93786  0.75000  1
 O  O1  1  0.68897  0.30568  0.43069  1
 O  O2  1  0.36800  0.93633  0.25000  1
 O  O3  1  0.81103  0.80568  0.06931  1
 O  O4  1  0.31103  0.69432  0.93069  1
 O  O5  1  0.18897  0.19432  0.56931  1
 O  O6  1  0.81103  0.80568  0.43069  1
 O  O7  1  0.18897  0.19432  0.93069  1
 O  O8  1  0.13200  0.43633  0.25000  1
 O  O9  1  0.31103  0.69432  0.56931  1
 O  O10  1  0.63200  0.06367  0.75000  1
 O  O11  1  0.68897  0.30568  0.06931  1
 O  O12  1  0.86800  0.56367  0.75000  1
 Pb  Pb1  1  0.50000  0.00000  0.50000  1
 Pb  Pb2  1  0.00000  0.50000  0.50000  1
 Pb  Pb3  1  0.00000  0.50000  0.00000  1
 Pb  Pb4  1  0.50000  0.00000  0.00000  1
