CIF file written using JARVIS-Tools package.
data_BaPdS2
_symmetry_space_group_name_H-M  'Cmcm'
_cell_length_a       5.64323
_cell_length_b       6.36444
_cell_length_c       6.36444
_cell_angle_alpha    115.267
_cell_angle_beta     90
_cell_angle_gamma    90

_symmetry_Int_Tables_number  63
_chemical_formula_structural  BaPdS2
_chemical_formula_sum  Ba2Pd2S4
_cell_volume  206.7157692631465
_cell_formula_units_Z  2
loop_
  _symmetry_equiv_pos_site_id
 _symmetry_equiv_pos_as_xyz
 1  'x, y, z'
loop_
 _atom_site_type_symbol
 _atom_site_label
 _atom_site_symmetry_multiplicity
 _atom_site_fract_x
 _atom_site_fract_y
 _atom_site_fract_z
 _atom_site_fract_occupancy
 Ba  Ba1  1  0.75000  0.34941  0.65059  1
 Ba  Ba2  1  0.25000  0.65059  0.34941  1
 Pd  Pd1  1  0.50000  0.00000  0.00000  1
 Pd  Pd2  1  0.00000  0.00000  0.00000  1
 S  S1  1  0.75000  0.85868  0.66452  1
 S  S2  1  0.25000  0.14132  0.33548  1
 S  S3  1  0.75000  0.33548  0.14132  1
 S  S4  1  0.25000  0.66452  0.85868  1
