CIF file written using JARVIS-Tools package.
data_Cd3PCl3
_symmetry_space_group_name_H-M  'P-3m1'
_cell_length_a       7.72011
_cell_length_b       7.72011
_cell_length_c       7.18211
_cell_angle_alpha    90
_cell_angle_beta     90
_cell_angle_gamma    120

_symmetry_Int_Tables_number  164
_chemical_formula_structural  Cd3PCl3
_chemical_formula_sum  Cd6P2Cl6
_cell_volume  370.7062794791596
_cell_formula_units_Z  2
loop_
  _symmetry_equiv_pos_site_id
 _symmetry_equiv_pos_as_xyz
 1  'x, y, z'
loop_
 _atom_site_type_symbol
 _atom_site_label
 _atom_site_symmetry_multiplicity
 _atom_site_fract_x
 _atom_site_fract_y
 _atom_site_fract_z
 _atom_site_fract_occupancy
 Cd  Cd1  1  0.66667  0.33333  0.49140  1
 Cd  Cd2  1  0.33333  0.66667  0.50860  1
 Cd  Cd3  1  0.50000  -0.00000  0.00000  1
 Cd  Cd4  1  0.50000  0.50000  0.00000  1
 Cd  Cd5  1  -0.00000  0.50000  0.00000  1
 Cd  Cd6  1  0.00000  0.00000  0.50000  1
 Cl  Cl1  1  0.83057  0.16958  0.69692  1
 Cl  Cl2  1  0.33901  0.16943  0.69692  1
 Cl  Cl3  1  0.16943  0.83042  0.30308  1
 Cl  Cl4  1  0.66099  0.83057  0.30308  1
 Cl  Cl5  1  0.16958  0.33901  0.30308  1
 Cl  Cl6  1  0.83042  0.66099  0.69692  1
 P  P1  1  0.66667  0.33333  0.14694  1
 P  P2  1  0.33333  0.66667  0.85306  1
