CIF file written using JARVIS-Tools package.
data_CdI2
_symmetry_space_group_name_H-M  'P3m1'
_cell_length_a       4.28625
_cell_length_b       4.28625
_cell_length_c       48.1049
_cell_angle_alpha    90
_cell_angle_beta     90
_cell_angle_gamma    120

_symmetry_Int_Tables_number  156
_chemical_formula_structural  CdI2
_chemical_formula_sum  Cd7I4
_cell_volume  765.3758567300293
_cell_formula_units_Z  7
loop_
  _symmetry_equiv_pos_site_id
 _symmetry_equiv_pos_as_xyz
 1  'x, y, z'
loop_
 _atom_site_type_symbol
 _atom_site_label
 _atom_site_symmetry_multiplicity
 _atom_site_fract_x
 _atom_site_fract_y
 _atom_site_fract_z
 _atom_site_fract_occupancy
 Cd  Cd1  1  0.66667  0.33333  0.03575  1
 Cd  Cd2  1  0.33333  0.66667  0.60712  1
 Cd  Cd3  1  0.33333  0.66667  0.89283  1
 Cd  Cd4  1  0.33333  0.66667  0.74998  1
 Cd  Cd5  1  0.33333  0.66667  0.17864  1
 Cd  Cd6  1  0.33333  0.66667  0.46429  1
 Cd  Cd7  1  0.33333  0.66667  0.32142  1
 I  I1  1  0.00000  0.00000  0.14258  1
 I  I2  1  0.66667  0.33333  0.21466  1
 I  I3  1  0.66667  0.33333  0.35746  1
 I  I4  1  0.00000  0.00000  0.85679  1
 I  I5  1  0.66667  0.33333  0.92887  1
 I  I6  1  0.33333  0.66667  0.07177  1
 I  I7  1  0.66667  0.33333  0.50033  1
 I  I8  1  0.00000  0.00000  0.99969  1
 I  I9  1  0.00000  0.00000  0.42825  1
 I  I10  1  0.66667  0.33333  0.78601  1
 I  I11  1  0.00000  0.00000  0.57107  1
 I  I12  1  0.00000  0.00000  0.71394  1
 I  I13  1  0.66667  0.33333  0.64316  1
 I  I14  1  0.00000  0.00000  0.28538  1
