CIF file written using JARVIS-Tools package.
data_NaO3
_symmetry_space_group_name_H-M  'Imm2'
_cell_length_a       3.51049
_cell_length_b       4.2629
_cell_length_c       4.2629
_cell_angle_alpha    77.7171
_cell_angle_beta     65.6852
_cell_angle_gamma    65.6852

_symmetry_Int_Tables_number  44
_chemical_formula_structural  NaO3
_chemical_formula_sum  NaO3
_cell_volume  52.906518156133835
_cell_formula_units_Z  1
loop_
  _symmetry_equiv_pos_site_id
 _symmetry_equiv_pos_as_xyz
 1  'x, y, z'
loop_
 _atom_site_type_symbol
 _atom_site_label
 _atom_site_symmetry_multiplicity
 _atom_site_fract_x
 _atom_site_fract_y
 _atom_site_fract_z
 _atom_site_fract_occupancy
 Na  Na1  1  0.51999  0.48001  0.48001  1
 O  O1  1  0.90690  0.88074  0.30547  1
 O  O2  1  0.04181  0.95819  0.95819  1
 O  O3  1  0.90690  0.30547  0.88074  1
