CIF file written using JARVIS-Tools package.
data_CdSiAs2
_symmetry_space_group_name_H-M  'I-42d'
_cell_length_a       5.96838
_cell_length_b       5.96838
_cell_length_c       6.96958
_cell_angle_alpha    115.352
_cell_angle_beta     115.352
_cell_angle_gamma    90

_symmetry_Int_Tables_number  122
_chemical_formula_structural  CdSiAs2
_chemical_formula_sum  Cd2Si2As4
_cell_volume  197.57716138712382
_cell_formula_units_Z  2
loop_
  _symmetry_equiv_pos_site_id
 _symmetry_equiv_pos_as_xyz
 1  'x, y, z'
loop_
 _atom_site_type_symbol
 _atom_site_label
 _atom_site_symmetry_multiplicity
 _atom_site_fract_x
 _atom_site_fract_y
 _atom_site_fract_z
 _atom_site_fract_occupancy
 As  As1  1  0.12500  0.58690  0.75000  1
 As  As2  1  0.83690  0.87500  0.25000  1
 As  As3  1  0.41310  0.37500  0.25000  1
 As  As4  1  0.62500  0.16310  0.75000  1
 Cd  Cd1  1  0.25000  0.75000  0.50000  1
 Cd  Cd2  1  0.00000  0.00000  0.00000  1
 Si  Si1  1  0.75000  0.25000  0.50000  1
 Si  Si2  1  0.50000  0.50000  0.00000  1
