CIF file written using JARVIS-Tools package.
data_Sr2Nb2O7
_symmetry_space_group_name_H-M  'Cmc2_1'
_cell_length_a       4.01236
_cell_length_b       5.78536
_cell_length_c       13.6337
_cell_angle_alpha    90
_cell_angle_beta     98.4618
_cell_angle_gamma    90

_symmetry_Int_Tables_number  36
_chemical_formula_structural  Sr2Nb2O7
_chemical_formula_sum  Sr4Nb4O4
_cell_volume  313.03299320642975
_cell_formula_units_Z  2
loop_
  _symmetry_equiv_pos_site_id
 _symmetry_equiv_pos_as_xyz
 1  'x, y, z'
loop_
 _atom_site_type_symbol
 _atom_site_label
 _atom_site_symmetry_multiplicity
 _atom_site_fract_x
 _atom_site_fract_y
 _atom_site_fract_z
 _atom_site_fract_occupancy
 Nb  Nb1  1  0.94150  0.97045  0.88300  1
 Nb  Nb2  1  0.16232  0.00258  0.32464  1
 Nb  Nb3  1  0.83768  0.50258  0.67536  1
 Nb  Nb4  1  0.05850  0.47045  0.11700  1
 O  O1  1  0.11323  0.66716  0.22645  1
 O  O2  1  0.54848  0.44362  0.09696  1
 O  O3  1  0.90824  0.66034  0.81648  1
 O  O4  1  0.09176  0.16034  0.18352  1
 O  O5  1  0.80031  0.77075  0.60062  1
 O  O6  1  0.19969  0.27075  0.39938  1
 O  O7  1  0.21647  0.79241  0.43294  1
 O  O8  1  0.78353  0.29241  0.56706  1
 O  O9  1  0.88677  0.16716  0.77355  1
 O  O10  1  0.45152  0.94362  0.90304  1
 O  O11  1  0.00911  0.72710  0.01822  1
 O  O12  1  0.34905  0.46522  0.69811  1
 O  O13  1  0.65095  0.96522  0.30189  1
 O  O14  1  0.99089  0.22710  0.98178  1
 Sr  Sr1  1  0.29361  0.04030  0.58722  1
 Sr  Sr2  1  0.70639  0.54030  0.41278  1
 Sr  Sr3  1  0.44856  0.47019  0.89712  1
 Sr  Sr4  1  0.55144  0.97019  0.10288  1
