CIF file written using JARVIS-Tools package.
data_BaCO3
_symmetry_space_group_name_H-M  'R3m'
_cell_length_a       4.29331
_cell_length_b       4.29331
_cell_length_c       4.29332
_cell_angle_alpha    78.4265
_cell_angle_beta     78.4265
_cell_angle_gamma    78.4264

_symmetry_Int_Tables_number  160
_chemical_formula_structural  BaCO3
_chemical_formula_sum  BaCO3
_cell_volume  74.88351031323984
_cell_formula_units_Z  1
loop_
  _symmetry_equiv_pos_site_id
 _symmetry_equiv_pos_as_xyz
 1  'x, y, z'
loop_
 _atom_site_type_symbol
 _atom_site_label
 _atom_site_symmetry_multiplicity
 _atom_site_fract_x
 _atom_site_fract_y
 _atom_site_fract_z
 _atom_site_fract_occupancy
 Ba  Ba1  1  0.03013  0.03013  0.03013  1
 C  C1  1  0.46686  0.46686  0.46686  1
 O  O1  1  0.18736  0.60182  0.60182  1
 O  O2  1  0.60182  0.18736  0.60182  1
 O  O3  1  0.60182  0.60182  0.18736  1
