CIF file written using JARVIS-Tools package.
data_SiO2
_symmetry_space_group_name_H-M  'Cc'
_cell_length_a       4.979
_cell_length_b       4.97901
_cell_length_c       8.24108
_cell_angle_alpha    91.3479
_cell_angle_beta     91.3479
_cell_angle_gamma    118.47

_symmetry_Int_Tables_number  9
_chemical_formula_structural  SiO2
_chemical_formula_sum  Si4O8
_cell_volume  179.40450944541013
_cell_formula_units_Z  4
loop_
  _symmetry_equiv_pos_site_id
 _symmetry_equiv_pos_as_xyz
 1  'x, y, z'
loop_
 _atom_site_type_symbol
 _atom_site_label
 _atom_site_symmetry_multiplicity
 _atom_site_fract_x
 _atom_site_fract_y
 _atom_site_fract_z
 _atom_site_fract_occupancy
 O  O1  1  0.55826  0.21489  0.97526  1
 O  O2  1  0.43157  0.28804  0.67020  1
 O  O3  1  0.58379  0.86194  0.73469  1
 O  O4  1  0.21489  0.55826  0.47526  1
 O  O5  1  0.86194  0.58379  0.23469  1
 O  O6  1  0.44099  0.00910  0.27160  1
 O  O7  1  0.28804  0.43157  0.17020  1
 O  O8  1  0.00910  0.44099  0.77160  1
 Si  Si1  1  0.20476  0.64739  0.28841  1
 Si  Si2  1  0.53720  0.30765  0.16214  1
 Si  Si3  1  0.64739  0.20476  0.78841  1
 Si  Si4  1  0.30765  0.53720  0.66214  1
