CIF file written using JARVIS-Tools package.
data_RbPt2Se3
_symmetry_space_group_name_H-M  'R-3m'
_cell_length_a       7.9336
_cell_length_b       7.93359
_cell_length_c       7.93359
_cell_angle_alpha    56.3141
_cell_angle_beta     56.3142
_cell_angle_gamma    56.3142

_symmetry_Int_Tables_number  166
_chemical_formula_structural  RbPt2Se3
_chemical_formula_sum  Rb2Pt4Se6
_cell_volume  322.9904850453965
_cell_formula_units_Z  2
loop_
  _symmetry_equiv_pos_site_id
 _symmetry_equiv_pos_as_xyz
 1  'x, y, z'
loop_
 _atom_site_type_symbol
 _atom_site_label
 _atom_site_symmetry_multiplicity
 _atom_site_fract_x
 _atom_site_fract_y
 _atom_site_fract_z
 _atom_site_fract_occupancy
 Pt  Pt1  1  0.00000  0.00000  0.00000  1
 Pt  Pt2  1  0.50000  0.50000  0.00000  1
 Pt  Pt3  1  -0.00000  0.50000  0.50000  1
 Pt  Pt4  1  0.50000  -0.00000  0.50000  1
 Rb  Rb1  1  0.80005  0.80005  0.80005  1
 Rb  Rb2  1  0.19995  0.19995  0.19995  1
 Se  Se1  1  0.76567  0.76567  0.27888  1
 Se  Se2  1  0.76567  0.27888  0.76567  1
 Se  Se3  1  0.27888  0.76567  0.76567  1
 Se  Se4  1  0.23433  0.72112  0.23433  1
 Se  Se5  1  0.23433  0.23433  0.72112  1
 Se  Se6  1  0.72112  0.23433  0.23433  1
