CIF file written using JARVIS-Tools package.
data_Ag3As2O8
_symmetry_space_group_name_H-M  'R3'
_cell_length_a       5.87683
_cell_length_b       5.87683
_cell_length_c       5.87683
_cell_angle_alpha    87.352
_cell_angle_beta     87.352
_cell_angle_gamma    87.352

_symmetry_Int_Tables_number  146
_chemical_formula_structural  Ag3As2O8
_chemical_formula_sum  Ag3As2O8
_cell_volume  202.33790654409734
_cell_formula_units_Z  1
loop_
  _symmetry_equiv_pos_site_id
 _symmetry_equiv_pos_as_xyz
 1  'x, y, z'
loop_
 _atom_site_type_symbol
 _atom_site_label
 _atom_site_symmetry_multiplicity
 _atom_site_fract_x
 _atom_site_fract_y
 _atom_site_fract_z
 _atom_site_fract_occupancy
 Ag  Ag1  1  0.48807  0.74540  0.00381  1
 Ag  Ag2  1  0.74540  0.00381  0.48807  1
 Ag  Ag3  1  0.00381  0.48807  0.74540  1
 As  As1  1  0.99798  0.99798  0.99798  1
 As  As2  1  0.50145  0.50145  0.50145  1
 O  O1  1  0.15993  0.78504  0.85188  1
 O  O2  1  0.15409  0.15409  0.15409  1
 O  O3  1  0.34565  0.34225  0.69820  1
 O  O4  1  0.34225  0.69820  0.34565  1
 O  O5  1  0.69820  0.34565  0.34225  1
 O  O6  1  0.67626  0.67626  0.67626  1
 O  O7  1  0.85188  0.15993  0.78504  1
 O  O8  1  0.78504  0.85188  0.15993  1
