CIF file written using JARVIS-Tools package.
data_Na3SbO3
_symmetry_space_group_name_H-M  'I-43m'
_cell_length_a       8.25427
_cell_length_b       8.25427
_cell_length_c       8.25427
_cell_angle_alpha    109.471
_cell_angle_beta     109.471
_cell_angle_gamma    109.471

_symmetry_Int_Tables_number  217
_chemical_formula_structural  Na3SbO3
_chemical_formula_sum  Na2Sb4O2
_cell_volume  432.9268055682405
_cell_formula_units_Z  4
loop_
  _symmetry_equiv_pos_site_id
 _symmetry_equiv_pos_as_xyz
 1  'x, y, z'
loop_
 _atom_site_type_symbol
 _atom_site_label
 _atom_site_symmetry_multiplicity
 _atom_site_fract_x
 _atom_site_fract_y
 _atom_site_fract_z
 _atom_site_fract_occupancy
 Na  Na1  1  0.24390  0.72403  0.72403  1
 Na  Na2  1  0.72403  0.72403  0.24390  1
 Na  Na3  1  0.72403  0.24390  0.72403  1
 Na  Na4  1  0.51987  0.00000  0.27597  1
 Na  Na5  1  0.48013  0.75610  0.48013  1
 Na  Na6  1  0.75610  0.48013  0.48013  1
 Na  Na7  1  0.27597  0.00000  0.51987  1
 Na  Na8  1  0.51987  0.27597  -0.00000  1
 Na  Na9  1  0.27597  0.51987  -0.00000  1
 Na  Na10  1  0.48013  0.48013  0.75610  1
 Na  Na11  1  0.00000  0.27597  0.51987  1
 Na  Na12  1  0.00000  0.51987  0.27597  1
 O  O1  1  -0.00000  0.77782  0.51895  1
 O  O2  1  0.25887  0.48105  0.48105  1
 O  O3  1  -0.00000  0.51895  0.77782  1
 O  O4  1  0.51895  0.77782  0.00000  1
 O  O5  1  0.77782  0.51895  0.00000  1
 O  O6  1  0.22218  0.22218  0.74113  1
 O  O7  1  0.77782  0.00000  0.51895  1
 O  O8  1  0.48105  0.48105  0.25887  1
 O  O9  1  0.22218  0.74113  0.22218  1
 O  O10  1  0.51895  0.00000  0.77782  1
 O  O11  1  0.48105  0.25887  0.48105  1
 O  O12  1  0.74113  0.22218  0.22218  1
 Sb  Sb1  1  0.28806  0.28806  0.28806  1
 Sb  Sb2  1  0.00000  0.71194  -0.00000  1
 Sb  Sb3  1  0.71194  0.00000  -0.00000  1
 Sb  Sb4  1  0.00000  0.00000  0.71194  1
