CIF file written using JARVIS-Tools package.
data_Si2W
_symmetry_space_group_name_H-M  'P6_222'
_cell_length_a       4.6448
_cell_length_b       4.6448
_cell_length_c       6.67115
_cell_angle_alpha    90
_cell_angle_beta     90
_cell_angle_gamma    120

_symmetry_Int_Tables_number  180
_chemical_formula_structural  Si2W
_chemical_formula_sum  Si6W3
_cell_volume  124.64278736255852
_cell_formula_units_Z  3
loop_
  _symmetry_equiv_pos_site_id
 _symmetry_equiv_pos_as_xyz
 1  'x, y, z'
loop_
 _atom_site_type_symbol
 _atom_site_label
 _atom_site_symmetry_multiplicity
 _atom_site_fract_x
 _atom_site_fract_y
 _atom_site_fract_z
 _atom_site_fract_occupancy
 Si  Si1  1  0.16383  0.32767  0.00000  1
 Si  Si2  1  0.32767  0.16383  0.66667  1
 Si  Si3  1  0.83617  0.16383  0.33333  1
 Si  Si4  1  0.83617  0.67233  0.00000  1
 Si  Si5  1  0.67233  0.83617  0.66667  1
 Si  Si6  1  0.16383  0.83617  0.33333  1
 W  W1  1  0.50000  0.50000  0.33333  1
 W  W2  1  0.00000  0.50000  0.66667  1
 W  W3  1  0.50000  0.00000  0.00000  1
