CIF file written using JARVIS-Tools package.
data_H4C2O
_symmetry_space_group_name_H-M  'I4'
_cell_length_a       7.57068
_cell_length_b       7.57068
_cell_length_c       7.57069
_cell_angle_alpha    93.9535
_cell_angle_beta     93.9535
_cell_angle_gamma    149.554

_symmetry_Int_Tables_number  79
_chemical_formula_structural  H4C2O
_chemical_formula_sum  H6C8O4
_cell_volume  212.16122760667417
_cell_formula_units_Z  4
loop_
  _symmetry_equiv_pos_site_id
 _symmetry_equiv_pos_as_xyz
 1  'x, y, z'
loop_
 _atom_site_type_symbol
 _atom_site_label
 _atom_site_symmetry_multiplicity
 _atom_site_fract_x
 _atom_site_fract_y
 _atom_site_fract_z
 _atom_site_fract_occupancy
 C  C1  1  0.04957  0.93935  0.79058  1
 C  C2  1  0.25899  0.04957  0.11022  1
 C  C3  1  0.93935  0.14877  0.88978  1
 C  C4  1  0.14877  0.25899  0.20942  1
 C  C5  1  0.32398  0.93420  0.20436  1
 C  C6  1  0.72984  0.11962  0.79564  1
 C  C7  1  0.11962  0.32398  0.38978  1
 C  C8  1  0.93420  0.72984  0.61022  1
 H  H1  1  0.50880  0.32738  0.09562  1
 H  H2  1  0.95196  0.82326  0.49612  1
 H  H3  1  0.23176  0.41317  0.90438  1
 H  H4  1  0.32738  0.23176  0.81858  1
 H  H5  1  0.41317  0.50880  0.18142  1
 H  H6  1  0.82326  0.32714  0.87131  1
 H  H7  1  0.32714  0.45583  0.50388  1
 H  H8  1  0.44253  0.85331  0.78817  1
 H  H9  1  0.49497  0.10667  0.34384  1
 H  H10  1  0.76284  0.15113  0.65616  1
 H  H11  1  0.15113  0.49497  0.38829  1
 H  H12  1  0.10667  0.76284  0.61171  1
 H  H13  1  0.06515  0.65436  0.21183  1
 H  H14  1  0.85331  0.06515  0.41078  1
 H  H15  1  0.65436  0.44253  0.58922  1
 H  H16  1  0.45583  0.95196  0.12869  1
 O  O1  1  0.80669  0.87475  0.78053  1
 O  O2  1  0.87475  0.09422  0.06806  1
 O  O3  1  0.09422  0.02616  0.21947  1
 O  O4  1  0.02616  0.80669  0.93194  1
