CIF file written using JARVIS-Tools package.
data_Mn2H2SO6
_symmetry_space_group_name_H-M  'C2/c'
_cell_length_a       6.13416
_cell_length_b       6.76643
_cell_length_c       6.76643
_cell_angle_alpha    66.8665
_cell_angle_beta     69.2295
_cell_angle_gamma    69.2295

_symmetry_Int_Tables_number  15
_chemical_formula_structural  Mn2H2SO6
_chemical_formula_sum  Mn4H4S2O2
_cell_volume  233.78889477842583
_cell_formula_units_Z  2
loop_
  _symmetry_equiv_pos_site_id
 _symmetry_equiv_pos_as_xyz
 1  'x, y, z'
loop_
 _atom_site_type_symbol
 _atom_site_label
 _atom_site_symmetry_multiplicity
 _atom_site_fract_x
 _atom_site_fract_y
 _atom_site_fract_z
 _atom_site_fract_occupancy
 H  H1  1  0.18949  0.05215  0.76966  1
 H  H2  1  0.31051  0.23034  0.94785  1
 H  H3  1  0.81051  0.94785  0.23034  1
 H  H4  1  0.68949  0.76966  0.05215  1
 Mn  Mn1  1  0.82066  0.34467  0.15059  1
 Mn  Mn2  1  0.17934  0.65533  0.84941  1
 Mn  Mn3  1  0.32066  0.15059  0.34467  1
 Mn  Mn4  1  0.67934  0.84941  0.65533  1
 O  O1  1  0.79560  0.68202  0.95095  1
 O  O2  1  0.70440  0.04905  0.31798  1
 O  O3  1  0.20440  0.31798  0.04905  1
 O  O4  1  0.29560  0.95095  0.68202  1
 O  O5  1  0.60484  0.15513  0.74963  1
 O  O6  1  0.10484  0.74963  0.15513  1
 O  O7  1  0.41479  0.45912  0.32131  1
 O  O8  1  0.58521  0.54088  0.67869  1
 O  O9  1  0.91479  0.32131  0.45912  1
 O  O10  1  0.08521  0.67869  0.54088  1
 O  O11  1  0.39516  0.84487  0.25037  1
 O  O12  1  0.89516  0.25037  0.84487  1
 S  S1  1  0.25000  0.68445  0.31555  1
 S  S2  1  0.75000  0.31555  0.68445  1
