CIF file written using JARVIS-Tools package.
data_Sn4P3
_symmetry_space_group_name_H-M  'R-3m'
_cell_length_a       12.2976
_cell_length_b       12.2976
_cell_length_c       12.2976
_cell_angle_alpha    18.8631
_cell_angle_beta     18.8631
_cell_angle_gamma    18.8631

_symmetry_Int_Tables_number  166
_chemical_formula_structural  Sn4P3
_chemical_formula_sum  Sn4P3
_cell_volume  169.8743278334968
_cell_formula_units_Z  1
loop_
  _symmetry_equiv_pos_site_id
 _symmetry_equiv_pos_as_xyz
 1  'x, y, z'
loop_
 _atom_site_type_symbol
 _atom_site_label
 _atom_site_symmetry_multiplicity
 _atom_site_fract_x
 _atom_site_fract_y
 _atom_site_fract_z
 _atom_site_fract_occupancy
 P  P1  1  0.00000  0.00000  0.00000  1
 P  P2  1  0.57095  0.57095  0.57095  1
 P  P3  1  0.42905  0.42905  0.42905  1
 Sn  Sn1  1  0.70997  0.70997  0.70997  1
 Sn  Sn2  1  0.29003  0.29003  0.29003  1
 Sn  Sn3  1  0.86689  0.86689  0.86689  1
 Sn  Sn4  1  0.13311  0.13311  0.13311  1
