CIF file written using JARVIS-Tools package.
data_Hf4N3
_symmetry_space_group_name_H-M  'I4/mmm'
_cell_length_a       6.3974
_cell_length_b       8.47689
_cell_length_c       5.5615
_cell_angle_alpha    29.1787
_cell_angle_beta     54.8898
_cell_angle_gamma    41.002

_symmetry_Int_Tables_number  139
_chemical_formula_structural  Hf4N3
_chemical_formula_sum  Hf4N3
_cell_volume  93.10395942677795
_cell_formula_units_Z  1
loop_
  _symmetry_equiv_pos_site_id
 _symmetry_equiv_pos_as_xyz
 1  'x, y, z'
loop_
 _atom_site_type_symbol
 _atom_site_label
 _atom_site_symmetry_multiplicity
 _atom_site_fract_x
 _atom_site_fract_y
 _atom_site_fract_z
 _atom_site_fract_occupancy
 Hf  Hf1  1  0.99021  0.00000  0.01957  1
 Hf  Hf2  1  0.25000  0.50000  -0.00000  1
 Hf  Hf3  1  0.75000  0.50000  -0.00000  1
 Hf  Hf4  1  0.50979  -0.00000  0.98043  1
 N  N1  1  0.00000  0.50000  0.50000  1
 N  N2  1  0.50000  0.50000  0.50000  1
 N  N3  1  0.75000  0.00000  0.50000  1
