CIF file written using JARVIS-Tools package.
data_AlCo2O4
_symmetry_space_group_name_H-M  'Imma'
_cell_length_a       5.74089
_cell_length_b       5.74089
_cell_length_c       5.74089
_cell_angle_alpha    60.0869
_cell_angle_beta     90.087
_cell_angle_gamma    120.188

_symmetry_Int_Tables_number  74
_chemical_formula_structural  AlCo2O4
_chemical_formula_sum  Al2Co4O8
_cell_volume  133.68633263280228
_cell_formula_units_Z  2
loop_
  _symmetry_equiv_pos_site_id
 _symmetry_equiv_pos_as_xyz
 1  'x, y, z'
loop_
 _atom_site_type_symbol
 _atom_site_label
 _atom_site_symmetry_multiplicity
 _atom_site_fract_x
 _atom_site_fract_y
 _atom_site_fract_z
 _atom_site_fract_occupancy
 Al  Al1  1  0.50000  0.00000  0.50000  1
 Al  Al2  1  -0.00000  0.50000  0.50000  1
 Co  Co1  1  0.50000  0.00000  -0.00000  1
 Co  Co2  1  0.12390  0.25000  0.12610  1
 Co  Co3  1  0.50000  0.50000  0.50000  1
 Co  Co4  1  0.87610  0.75000  0.87390  1
 O  O1  1  0.74004  0.02877  0.73119  1
 O  O2  1  0.74004  0.47123  0.28873  1
 O  O3  1  0.74158  0.47678  0.73520  1
 O  O4  1  0.28802  0.02322  0.73520  1
 O  O5  1  0.71198  0.97678  0.26480  1
 O  O6  1  0.25842  0.52322  0.26480  1
 O  O7  1  0.25996  0.97123  0.26881  1
 O  O8  1  0.25996  0.52877  0.71127  1
