CIF file written using JARVIS-Tools package.
data_InI3
_symmetry_space_group_name_H-M  'P2_1/c'
_cell_length_a       6.04175
_cell_length_b       9.86612
_cell_length_c       12.1751
_cell_angle_alpha    107.582
_cell_angle_beta     90
_cell_angle_gamma    90

_symmetry_Int_Tables_number  14
_chemical_formula_structural  InI3
_chemical_formula_sum  In4I2
_cell_volume  691.8377863139472
_cell_formula_units_Z  4
loop_
  _symmetry_equiv_pos_site_id
 _symmetry_equiv_pos_as_xyz
 1  'x, y, z'
loop_
 _atom_site_type_symbol
 _atom_site_label
 _atom_site_symmetry_multiplicity
 _atom_site_fract_x
 _atom_site_fract_y
 _atom_site_fract_z
 _atom_site_fract_occupancy
 I  I1  1  0.78369  0.33746  0.72335  1
 I  I2  1  0.25558  0.00061  0.62496  1
 I  I3  1  0.77626  0.65807  0.55599  1
 I  I4  1  0.28369  0.66254  0.77665  1
 I  I5  1  0.71631  0.33746  0.22335  1
 I  I6  1  0.74442  -0.00061  0.37504  1
 I  I7  1  0.27626  0.34193  0.94401  1
 I  I8  1  0.75558  -0.00061  0.87504  1
 I  I9  1  0.72374  0.65807  0.05599  1
 I  I10  1  0.21631  0.66254  0.27665  1
 I  I11  1  0.22374  0.34193  0.44401  1
 I  I12  1  0.24442  0.00061  0.12496  1
 In  In1  1  0.00188  0.79068  0.94863  1
 In  In2  1  -0.00188  0.20932  0.05137  1
 In  In3  1  0.49812  0.79068  0.44863  1
 In  In4  1  0.50188  0.20932  0.55137  1
