CIF file written using JARVIS-Tools package.
data_Rb2Sb4S7
_symmetry_space_group_name_H-M  'P2_1/c'
_cell_length_a       7.10093
_cell_length_b       12.4629
_cell_length_c       10.7101
_cell_angle_alpha    90
_cell_angle_beta     127.986
_cell_angle_gamma    90

_symmetry_Int_Tables_number  14
_chemical_formula_structural  Rb2Sb4S7
_chemical_formula_sum  Rb4Sb8S4
_cell_volume  747.0419264709371
_cell_formula_units_Z  2
loop_
  _symmetry_equiv_pos_site_id
 _symmetry_equiv_pos_as_xyz
 1  'x, y, z'
loop_
 _atom_site_type_symbol
 _atom_site_label
 _atom_site_symmetry_multiplicity
 _atom_site_fract_x
 _atom_site_fract_y
 _atom_site_fract_z
 _atom_site_fract_occupancy
 Rb  Rb1  1  0.14987  0.43702  0.85287  1
 Rb  Rb2  1  0.14987  0.06298  0.35287  1
 Rb  Rb3  1  0.85013  0.56298  0.14713  1
 Rb  Rb4  1  0.85013  0.93702  0.64713  1
 S  S1  1  0.82965  0.77132  0.35015  1
 S  S2  1  0.61990  0.03749  0.28182  1
 S  S3  1  0.38010  0.53749  0.21818  1
 S  S4  1  0.38010  0.96251  0.71818  1
 S  S5  1  0.00000  0.00000  0.00000  1
 S  S6  1  0.17035  0.27132  0.14985  1
 S  S7  1  0.68024  0.19910  0.66967  1
 S  S8  1  0.31976  0.80090  0.33033  1
 S  S9  1  0.68024  0.30090  0.16967  1
 S  S10  1  0.17035  0.22868  0.64985  1
 S  S11  1  0.31976  0.69910  0.83033  1
 S  S12  1  -0.00000  0.50000  0.50000  1
 S  S13  1  0.82965  0.72868  0.85015  1
 S  S14  1  0.61990  0.46251  0.78182  1
 Sb  Sb1  1  0.32769  0.15490  0.04865  1
 Sb  Sb2  1  0.32769  0.34510  0.54865  1
 Sb  Sb3  1  0.67231  0.84510  0.95135  1
 Sb  Sb4  1  0.67231  0.65490  0.45135  1
 Sb  Sb5  1  0.59452  0.13677  0.84798  1
 Sb  Sb6  1  0.40548  0.63677  0.65202  1
 Sb  Sb7  1  0.40548  0.86323  0.15202  1
 Sb  Sb8  1  0.59452  0.36323  0.34798  1
