CIF file written using JARVIS-Tools package.
data_YMn2O4
_symmetry_space_group_name_H-M  'R-3m'
_cell_length_a       6.29504
_cell_length_b       6.29504
_cell_length_c       6.29504
_cell_angle_alpha    60.3392
_cell_angle_beta     60.3393
_cell_angle_gamma    60.3392

_symmetry_Int_Tables_number  166
_chemical_formula_structural  YMn2O4
_chemical_formula_sum  Y2Mn4O8
_cell_volume  177.7467238020294
_cell_formula_units_Z  2
loop_
  _symmetry_equiv_pos_site_id
 _symmetry_equiv_pos_as_xyz
 1  'x, y, z'
loop_
 _atom_site_type_symbol
 _atom_site_label
 _atom_site_symmetry_multiplicity
 _atom_site_fract_x
 _atom_site_fract_y
 _atom_site_fract_z
 _atom_site_fract_occupancy
 Mn  Mn1  1  0.00000  0.50000  0.00000  1
 Mn  Mn2  1  0.00000  0.00000  0.00000  1
 Mn  Mn3  1  0.50000  -0.00000  -0.00000  1
 Mn  Mn4  1  0.00000  0.00000  0.50000  1
 O  O1  1  0.19733  0.75769  0.75769  1
 O  O2  1  0.24231  0.24231  0.80267  1
 O  O3  1  0.24231  0.80267  0.24231  1
 O  O4  1  0.24615  0.24615  0.24615  1
 O  O5  1  0.75769  0.75769  0.19733  1
 O  O6  1  0.80267  0.24231  0.24231  1
 O  O7  1  0.75769  0.19733  0.75769  1
 O  O8  1  0.75385  0.75385  0.75385  1
 Y  Y1  1  0.61717  0.61717  0.61717  1
 Y  Y2  1  0.38283  0.38283  0.38283  1
