CIF file written using JARVIS-Tools package.
data_CaTiF6
_symmetry_space_group_name_H-M  'R-3'
_cell_length_a       5.76598
_cell_length_b       5.76598
_cell_length_c       5.76598
_cell_angle_alpha    54.65
_cell_angle_beta     54.65
_cell_angle_gamma    54.65

_symmetry_Int_Tables_number  148
_chemical_formula_structural  CaTiF6
_chemical_formula_sum  CaTiF6
_cell_volume  118.65513846923513
_cell_formula_units_Z  1
loop_
  _symmetry_equiv_pos_site_id
 _symmetry_equiv_pos_as_xyz
 1  'x, y, z'
loop_
 _atom_site_type_symbol
 _atom_site_label
 _atom_site_symmetry_multiplicity
 _atom_site_fract_x
 _atom_site_fract_y
 _atom_site_fract_z
 _atom_site_fract_occupancy
 Ca  Ca1  1  0.50000  0.50000  0.50000  1
 F  F1  1  0.35747  0.09043  0.77722  1
 F  F2  1  0.09043  0.77722  0.35747  1
 F  F3  1  0.22278  0.64253  0.90957  1
 F  F4  1  0.90957  0.22278  0.64253  1
 F  F5  1  0.64253  0.90957  0.22278  1
 F  F6  1  0.77722  0.35747  0.09043  1
 Ti  Ti1  1  0.00000  0.00000  0.00000  1
