CIF file written using JARVIS-Tools package.
data_BaPdF4
_symmetry_space_group_name_H-M  'I4/mcm'
_cell_length_a       6.22948
_cell_length_b       6.22948
_cell_length_c       7.02175
_cell_angle_alpha    116.333
_cell_angle_beta     116.333
_cell_angle_gamma    90

_symmetry_Int_Tables_number  140
_chemical_formula_structural  BaPdF4
_chemical_formula_sum  Ba2Pd2F8
_cell_volume  212.20271989886524
_cell_formula_units_Z  2
loop_
  _symmetry_equiv_pos_site_id
 _symmetry_equiv_pos_as_xyz
 1  'x, y, z'
loop_
 _atom_site_type_symbol
 _atom_site_label
 _atom_site_symmetry_multiplicity
 _atom_site_fract_x
 _atom_site_fract_y
 _atom_site_fract_z
 _atom_site_fract_occupancy
 Ba  Ba1  1  0.75000  0.75000  0.50000  1
 Ba  Ba2  1  0.25000  0.25000  0.50000  1
 F  F1  1  0.96703  0.46703  0.25643  1
 F  F2  1  0.71059  0.21059  0.74357  1
 F  F3  1  0.03297  0.53297  0.74357  1
 F  F4  1  0.21059  0.03297  0.74357  1
 F  F5  1  0.28941  0.78941  0.25643  1
 F  F6  1  0.46703  0.28941  0.25643  1
 F  F7  1  0.78941  0.96703  0.25643  1
 F  F8  1  0.53297  0.71059  0.74357  1
 Pd  Pd1  1  0.50000  -0.00000  -0.00000  1
 Pd  Pd2  1  0.00000  0.50000  0.00000  1
