CIF file written using JARVIS-Tools package.
data_BaLu2O4
_symmetry_space_group_name_H-M  'Pnma'
_cell_length_a       3.38069
_cell_length_b       10.3122
_cell_length_c       11.9179
_cell_angle_alpha    90
_cell_angle_beta     90
_cell_angle_gamma    90

_symmetry_Int_Tables_number  62
_chemical_formula_structural  BaLu2O4
_chemical_formula_sum  Ba4Lu8O6
_cell_volume  415.48595363254606
_cell_formula_units_Z  4
loop_
  _symmetry_equiv_pos_site_id
 _symmetry_equiv_pos_as_xyz
 1  'x, y, z'
loop_
 _atom_site_type_symbol
 _atom_site_label
 _atom_site_symmetry_multiplicity
 _atom_site_fract_x
 _atom_site_fract_y
 _atom_site_fract_z
 _atom_site_fract_occupancy
 Ba  Ba1  1  0.25000  0.75342  0.34961  1
 Ba  Ba2  1  0.75000  0.74658  0.84961  1
 Ba  Ba3  1  0.25000  0.25342  0.15039  1
 Ba  Ba4  1  0.75000  0.24658  0.65039  1
 Lu  Lu1  1  0.75000  0.57784  0.10758  1
 Lu  Lu2  1  0.25000  0.92216  0.60758  1
 Lu  Lu3  1  0.75000  0.57217  0.61009  1
 Lu  Lu4  1  0.25000  0.92783  0.11009  1
 Lu  Lu5  1  0.25000  0.42216  0.89242  1
 Lu  Lu6  1  0.75000  0.07217  0.88991  1
 Lu  Lu7  1  0.75000  0.07784  0.39242  1
 Lu  Lu8  1  0.25000  0.42783  0.38991  1
 O  O1  1  0.25000  0.61223  0.98320  1
 O  O2  1  0.75000  0.98093  0.71749  1
 O  O3  1  0.75000  0.06840  0.07362  1
 O  O4  1  0.75000  0.88777  0.48320  1
 O  O5  1  0.75000  0.79051  0.15261  1
 O  O6  1  0.25000  0.70949  0.65261  1
 O  O7  1  0.25000  0.93160  0.92638  1
 O  O8  1  0.25000  0.11223  0.51680  1
 O  O9  1  0.25000  0.43160  0.57362  1
 O  O10  1  0.75000  0.38777  0.01680  1
 O  O11  1  0.75000  0.29051  0.34739  1
 O  O12  1  0.25000  0.20949  0.84739  1
 O  O13  1  0.75000  0.56840  0.42638  1
 O  O14  1  0.75000  0.48093  0.78251  1
 O  O15  1  0.25000  0.51907  0.21749  1
 O  O16  1  0.25000  0.01907  0.28251  1
