CIF file written using JARVIS-Tools package.
data_TaCrO4
_symmetry_space_group_name_H-M  'Pbcn'
_cell_length_a       4.42703
_cell_length_b       5.00139
_cell_length_c       11.8166
_cell_angle_alpha    90
_cell_angle_beta     90
_cell_angle_gamma    90

_symmetry_Int_Tables_number  60
_chemical_formula_structural  TaCrO4
_chemical_formula_sum  Ta4Cr4O6
_cell_volume  261.6345163321806
_cell_formula_units_Z  4
loop_
  _symmetry_equiv_pos_site_id
 _symmetry_equiv_pos_as_xyz
 1  'x, y, z'
loop_
 _atom_site_type_symbol
 _atom_site_label
 _atom_site_symmetry_multiplicity
 _atom_site_fract_x
 _atom_site_fract_y
 _atom_site_fract_z
 _atom_site_fract_occupancy
 Cr  Cr1  1  0.00000  0.75000  0.17965  1
 Cr  Cr2  1  0.00000  0.25000  0.82035  1
 Cr  Cr3  1  0.50000  0.75000  0.67965  1
 Cr  Cr4  1  0.50000  0.25000  0.32035  1
 O  O1  1  0.25552  0.91550  0.05748  1
 O  O2  1  0.76095  0.57928  0.30864  1
 O  O3  1  0.76095  0.07928  0.69136  1
 O  O4  1  0.75552  0.08450  0.44252  1
 O  O5  1  0.23905  0.92072  0.30864  1
 O  O6  1  0.74448  0.58450  0.05748  1
 O  O7  1  0.74448  0.08450  0.94252  1
 O  O8  1  0.75552  0.58450  0.55748  1
 O  O9  1  0.73905  0.57928  0.80864  1
 O  O10  1  0.23905  0.42072  0.69136  1
 O  O11  1  0.26095  0.92072  0.80864  1
 O  O12  1  0.73905  0.07928  0.19136  1
 O  O13  1  0.25552  0.41550  0.94252  1
 O  O14  1  0.24448  0.41550  0.44252  1
 O  O15  1  0.24448  0.91550  0.55748  1
 O  O16  1  0.26095  0.42072  0.19136  1
 Ta  Ta1  1  0.50000  0.75000  0.92355  1
 Ta  Ta2  1  0.50000  0.25000  0.07645  1
 Ta  Ta3  1  0.00000  0.25000  0.57645  1
 Ta  Ta4  1  0.00000  0.75000  0.42355  1
