CIF file written using JARVIS-Tools package.
data_AgCNO
_symmetry_space_group_name_H-M  'Cmcm'
_cell_length_a       3.72311
_cell_length_b       5.87055
_cell_length_c       5.87899
_cell_angle_alpha    90
_cell_angle_beta     90
_cell_angle_gamma    108.488

_symmetry_Int_Tables_number  63
_chemical_formula_structural  AgCNO
_chemical_formula_sum  Ag2C2N2O2
_cell_volume  121.86390819973566
_cell_formula_units_Z  2
loop_
  _symmetry_equiv_pos_site_id
 _symmetry_equiv_pos_as_xyz
 1  'x, y, z'
loop_
 _atom_site_type_symbol
 _atom_site_label
 _atom_site_symmetry_multiplicity
 _atom_site_fract_x
 _atom_site_fract_y
 _atom_site_fract_z
 _atom_site_fract_occupancy
 Ag  Ag1  1  0.00000  0.00000  0.50000  1
 Ag  Ag2  1  0.00000  0.00000  0.00000  1
 C  C1  1  0.85950  0.71900  0.25000  1
 C  C2  1  0.14050  0.28100  0.75000  1
 N  N1  1  0.24695  0.49390  0.75000  1
 N  N2  1  0.75305  0.50610  0.25000  1
 O  O1  1  0.35832  0.71665  0.75000  1
 O  O2  1  0.64168  0.28335  0.25000  1
