CIF file written using JARVIS-Tools package.
data_HoHO2
_symmetry_space_group_name_H-M  'P2_1'
_cell_length_a       3.61726
_cell_length_b       4.30149
_cell_length_c       5.94711
_cell_angle_alpha    109.172
_cell_angle_beta     90.0047
_cell_angle_gamma    89.9973

_symmetry_Int_Tables_number  4
_chemical_formula_structural  HoHO2
_chemical_formula_sum  Ho2H2O4
_cell_volume  87.40266111146904
_cell_formula_units_Z  2
loop_
  _symmetry_equiv_pos_site_id
 _symmetry_equiv_pos_as_xyz
 1  'x, y, z'
loop_
 _atom_site_type_symbol
 _atom_site_label
 _atom_site_symmetry_multiplicity
 _atom_site_fract_x
 _atom_site_fract_y
 _atom_site_fract_z
 _atom_site_fract_occupancy
 H  H1  1  0.75245  0.01380  0.42180  1
 H  H2  1  0.25251  0.98636  0.58065  1
 Ho  Ho1  1  0.75037  0.66672  0.81166  1
 Ho  Ho2  1  0.25038  0.33341  0.19077  1
 O  O1  1  0.75026  0.23352  0.94943  1
 O  O2  1  0.25028  0.76660  0.05300  1
 O  O3  1  0.75006  0.24750  0.43940  1
 O  O4  1  0.25004  0.75265  0.56303  1
