CIF file written using JARVIS-Tools package.
data_MoS2
_symmetry_space_group_name_H-M  'R3m'
_cell_length_a       6.47694
_cell_length_b       6.47693
_cell_length_c       6.47693
_cell_angle_alpha    28.5478
_cell_angle_beta     28.5478
_cell_angle_gamma    28.5478

_symmetry_Int_Tables_number  160
_chemical_formula_structural  MoS2
_chemical_formula_sum  MoS2
_cell_volume  54.85060892805118
_cell_formula_units_Z  1
loop_
  _symmetry_equiv_pos_site_id
 _symmetry_equiv_pos_as_xyz
 1  'x, y, z'
loop_
 _atom_site_type_symbol
 _atom_site_label
 _atom_site_symmetry_multiplicity
 _atom_site_fract_x
 _atom_site_fract_y
 _atom_site_fract_z
 _atom_site_fract_occupancy
 Mo  Mo1  1  0.99976  0.99976  0.99976  1
 S  S1  1  0.41716  0.41716  0.41716  1
 S  S2  1  0.24908  0.24908  0.24908  1
