CIF file written using JARVIS-Tools package.
data_V2O3F2
_symmetry_space_group_name_H-M  'P-1'
_cell_length_a       4.7279
_cell_length_b       5.32748
_cell_length_c       6.59473
_cell_angle_alpha    104.017
_cell_angle_beta     111.653
_cell_angle_gamma    88.9975

_symmetry_Int_Tables_number  2
_chemical_formula_structural  V2O3F2
_chemical_formula_sum  V4O6F4
_cell_volume  149.31226080373634
_cell_formula_units_Z  2
loop_
  _symmetry_equiv_pos_site_id
 _symmetry_equiv_pos_as_xyz
 1  'x, y, z'
loop_
 _atom_site_type_symbol
 _atom_site_label
 _atom_site_symmetry_multiplicity
 _atom_site_fract_x
 _atom_site_fract_y
 _atom_site_fract_z
 _atom_site_fract_occupancy
 F  F1  1  0.90119  0.24172  0.49773  1
 F  F2  1  0.67059  0.96740  0.70450  1
 F  F3  1  0.32941  0.03260  0.29550  1
 F  F4  1  0.09881  0.75828  0.50227  1
 O  O1  1  0.86440  0.36987  0.09729  1
 O  O2  1  0.72015  0.86670  0.08658  1
 O  O3  1  0.44981  0.51955  0.28118  1
 O  O4  1  0.55019  0.48045  0.71882  1
 O  O5  1  0.27985  0.13330  0.91342  1
 O  O6  1  0.13560  0.63013  0.90271  1
 V  V1  1  0.90133  0.29860  0.80363  1
 V  V2  1  0.59382  0.23268  0.19558  1
 V  V3  1  0.40618  0.76732  0.80442  1
 V  V4  1  0.09867  0.70140  0.19637  1
