CIF file written using JARVIS-Tools package.
data_H10C9
_symmetry_space_group_name_H-M  'P1'
_cell_length_a       5.3883
_cell_length_b       6.40744
_cell_length_c       9.87228
_cell_angle_alpha    92.4101
_cell_angle_beta     107.118
_cell_angle_gamma    102.567

_symmetry_Int_Tables_number  1
_chemical_formula_structural  H10C9
_chemical_formula_sum  H20C8
_cell_volume  315.8749288545271
_cell_formula_units_Z  2
loop_
  _symmetry_equiv_pos_site_id
 _symmetry_equiv_pos_as_xyz
 1  'x, y, z'
loop_
 _atom_site_type_symbol
 _atom_site_label
 _atom_site_symmetry_multiplicity
 _atom_site_fract_x
 _atom_site_fract_y
 _atom_site_fract_z
 _atom_site_fract_occupancy
 C  C1  1  0.58391  0.77207  0.73585  1
 C  C2  1  0.41306  0.59297  0.64572  1
 C  C3  1  0.46537  0.51542  0.52437  1
 C  C4  1  0.91305  0.59297  0.14572  1
 C  C5  1  0.30905  0.26081  0.28752  1
 C  C6  1  0.80906  0.26081  0.78752  1
 C  C7  1  0.81615  0.88300  0.70836  1
 C  C8  1  0.31614  0.88300  0.20836  1
 C  C9  1  0.96537  0.51542  0.02437  1
 C  C10  1  0.37212  0.80285  0.08983  1
 C  C11  1  0.70001  0.62164  0.49922  1
 C  C12  1  0.26082  0.32721  0.42695  1
 C  C13  1  0.76083  0.32721  0.92695  1
 C  C14  1  0.48160  0.09244  0.29737  1
 C  C15  1  0.98160  0.09244  0.79737  1
 C  C16  1  0.08390  0.77207  0.23584  1
 C  C17  1  0.20001  0.62164  0.99923  1
 C  C18  1  0.87212  0.80285  0.58983  1
 H  H1  1  0.06328  0.06453  0.90965  1
 H  H2  1  0.73018  0.51274  0.16707  1
 H  H3  1  0.56327  0.06452  0.40965  1
 H  H4  1  0.53335  0.83088  0.82726  1
 H  H5  1  0.75007  0.56606  0.40710  1
 H  H6  1  0.25007  0.56606  0.90710  1
 H  H7  1  0.05309  0.88392  0.56697  1
 H  H8  1  0.55309  0.88393  0.06697  1
 H  H9  1  0.11326  0.19142  0.20789  1
 H  H10  1  0.61327  0.19143  0.70789  1
 H  H11  1  0.24022  0.18675  0.48763  1
 H  H12  1  0.74023  0.18675  -0.01237  1
 H  H13  1  0.03333  0.83087  0.32726  1
 H  H14  1  0.15500  0.15261  0.76036  1
 H  H15  1  0.65499  0.15261  0.26037  1
 H  H16  1  0.89429  0.40507  0.74473  1
 H  H17  1  0.39428  0.40507  0.24473  1
 H  H18  1  0.23019  0.51275  0.66707  1
 H  H19  1  0.56573  0.36922  0.90150  1
 H  H20  1  0.06573  0.36922  0.40151  1
