CIF file written using JARVIS-Tools package.
data_CaH2O2
_symmetry_space_group_name_H-M  'P2_1/c'
_cell_length_a       5.41345
_cell_length_b       6.08782
_cell_length_c       5.98351
_cell_angle_alpha    90
_cell_angle_beta     104.435
_cell_angle_gamma    90

_symmetry_Int_Tables_number  14
_chemical_formula_structural  CaH2O2
_chemical_formula_sum  Ca4H8O8
_cell_volume  190.96832817627975
_cell_formula_units_Z  4
loop_
  _symmetry_equiv_pos_site_id
 _symmetry_equiv_pos_as_xyz
 1  'x, y, z'
loop_
 _atom_site_type_symbol
 _atom_site_label
 _atom_site_symmetry_multiplicity
 _atom_site_fract_x
 _atom_site_fract_y
 _atom_site_fract_z
 _atom_site_fract_occupancy
 Ca  Ca1  1  0.31358  0.57163  0.68608  1
 Ca  Ca2  1  0.68642  0.07163  0.81392  1
 Ca  Ca3  1  0.68642  0.42837  0.31392  1
 Ca  Ca4  1  0.31358  0.92837  0.18608  1
 H  H1  1  0.13444  0.49593  0.19646  1
 H  H2  1  0.13444  0.00407  0.69646  1
 H  H3  1  0.86556  -0.00407  0.30354  1
 H  H4  1  0.86556  0.50407  0.80354  1
 H  H5  1  0.22006  0.28072  0.92182  1
 H  H6  1  0.77994  0.71928  0.07818  1
 H  H7  1  0.22006  0.21928  0.42182  1
 H  H8  1  0.77994  0.78072  0.57818  1
 O  O1  1  0.59564  0.76182  0.50359  1
 O  O2  1  0.59564  0.73818  0.00359  1
 O  O3  1  0.07381  0.88049  0.77350  1
 O  O4  1  0.92619  0.38049  0.72650  1
 O  O5  1  0.92619  0.11951  0.22650  1
 O  O6  1  0.07381  0.61951  0.27350  1
 O  O7  1  0.40436  0.26182  0.99641  1
 O  O8  1  0.40436  0.23818  0.49641  1
