CIF file written using JARVIS-Tools package.
data_ZrO2
_symmetry_space_group_name_H-M  'Pnma'
_cell_length_a       3.48568
_cell_length_b       3.82384
_cell_length_c       10.4151
_cell_angle_alpha    90
_cell_angle_beta     90
_cell_angle_gamma    90

_symmetry_Int_Tables_number  62
_chemical_formula_structural  ZrO2
_chemical_formula_sum  Zr4O8
_cell_volume  138.81971956441936
_cell_formula_units_Z  4
loop_
  _symmetry_equiv_pos_site_id
 _symmetry_equiv_pos_as_xyz
 1  'x, y, z'
loop_
 _atom_site_type_symbol
 _atom_site_label
 _atom_site_symmetry_multiplicity
 _atom_site_fract_x
 _atom_site_fract_y
 _atom_site_fract_z
 _atom_site_fract_occupancy
 O  O1  1  0.75000  0.40309  0.21557  1
 O  O2  1  0.75000  0.09691  0.71557  1
 O  O3  1  0.75000  0.25979  0.47334  1
 O  O4  1  0.75000  0.24021  0.97334  1
 O  O5  1  0.25000  0.74021  0.52666  1
 O  O6  1  0.25000  0.75979  0.02666  1
 O  O7  1  0.25000  0.59691  0.78443  1
 O  O8  1  0.25000  0.90309  0.28443  1
 Zr  Zr1  1  0.75000  0.75044  0.88091  1
 Zr  Zr2  1  0.75000  0.74956  0.38091  1
 Zr  Zr3  1  0.25000  0.24956  0.11909  1
 Zr  Zr4  1  0.25000  0.25044  0.61909  1
