CIF file written using JARVIS-Tools package.
data_Li5ReN4
_symmetry_space_group_name_H-M  'Pmmn'
_cell_length_a       4.8693
_cell_length_b       6.6205
_cell_length_c       6.70728
_cell_angle_alpha    90
_cell_angle_beta     90
_cell_angle_gamma    90

_symmetry_Int_Tables_number  59
_chemical_formula_structural  Li5ReN4
_chemical_formula_sum  Li0Re2N8
_cell_volume  216.22394109910343
_cell_formula_units_Z  2
loop_
  _symmetry_equiv_pos_site_id
 _symmetry_equiv_pos_as_xyz
 1  'x, y, z'
loop_
 _atom_site_type_symbol
 _atom_site_label
 _atom_site_symmetry_multiplicity
 _atom_site_fract_x
 _atom_site_fract_y
 _atom_site_fract_z
 _atom_site_fract_occupancy
 Li  Li1  1  0.29975  0.00000  0.00000  1
 Li  Li2  1  0.70025  0.50000  0.50000  1
 Li  Li3  1  0.24515  0.76244  0.30176  1
 Li  Li4  1  0.24515  0.23756  0.69824  1
 Li  Li5  1  0.24515  0.23756  0.30176  1
 Li  Li6  1  0.75485  0.26244  0.19824  1
 Li  Li7  1  0.75485  0.73756  0.19824  1
 Li  Li8  1  0.75485  0.26244  0.80176  1
 Li  Li9  1  0.24515  0.76244  0.69824  1
 Li  Li10  1  0.75485  0.73756  0.80176  1
 N  N1  1  0.92999  0.23171  0.50000  1
 N  N2  1  0.92999  0.76829  0.50000  1
 N  N3  1  0.07001  0.73171  0.00000  1
 N  N4  1  0.51697  0.00000  0.73042  1
 N  N5  1  0.48303  0.50000  0.23042  1
 N  N6  1  0.48303  0.50000  0.76958  1
 N  N7  1  0.07001  0.26829  0.00000  1
 N  N8  1  0.51697  0.00000  0.26958  1
 Re  Re1  1  0.27703  0.50000  0.00000  1
 Re  Re2  1  0.72297  0.00000  0.50000  1
