CIF file written using JARVIS-Tools package.
data_MgBiF6
_symmetry_space_group_name_H-M  'R-3'
_cell_length_a       5.72672
_cell_length_b       5.72672
_cell_length_c       5.72672
_cell_angle_alpha    54.1582
_cell_angle_beta     54.1582
_cell_angle_gamma    54.1583

_symmetry_Int_Tables_number  148
_chemical_formula_structural  MgBiF6
_chemical_formula_sum  MgBiF6
_cell_volume  114.69154131043426
_cell_formula_units_Z  1
loop_
  _symmetry_equiv_pos_site_id
 _symmetry_equiv_pos_as_xyz
 1  'x, y, z'
loop_
 _atom_site_type_symbol
 _atom_site_label
 _atom_site_symmetry_multiplicity
 _atom_site_fract_x
 _atom_site_fract_y
 _atom_site_fract_z
 _atom_site_fract_occupancy
 Bi  Bi1  1  0.00000  0.00000  0.00000  1
 F  F1  1  0.41228  0.11262  0.73552  1
 F  F2  1  0.11262  0.73552  0.41228  1
 F  F3  1  0.26448  0.58772  0.88738  1
 F  F4  1  0.88738  0.26448  0.58772  1
 F  F5  1  0.58772  0.88738  0.26448  1
 F  F6  1  0.73552  0.41228  0.11262  1
 Mg  Mg1  1  0.50000  0.50000  0.50000  1
