CIF file written using JARVIS-Tools package.
data_Ca2SiO4
_symmetry_space_group_name_H-M  'P2_1/c'
_cell_length_a       5.54142
_cell_length_b       6.78035
_cell_length_c       10.4203
_cell_angle_alpha    90
_cell_angle_beta     116.967
_cell_angle_gamma    90

_symmetry_Int_Tables_number  14
_chemical_formula_structural  Ca2SiO4
_chemical_formula_sum  Ca8Si4O6
_cell_volume  348.9502364791125
_cell_formula_units_Z  4
loop_
  _symmetry_equiv_pos_site_id
 _symmetry_equiv_pos_as_xyz
 1  'x, y, z'
loop_
 _atom_site_type_symbol
 _atom_site_label
 _atom_site_symmetry_multiplicity
 _atom_site_fract_x
 _atom_site_fract_y
 _atom_site_fract_z
 _atom_site_fract_occupancy
 Ca  Ca1  1  0.48454  0.50210  0.20232  1
 Ca  Ca2  1  0.51546  0.00210  0.29768  1
 Ca  Ca3  1  0.51546  0.49790  0.79768  1
 Ca  Ca4  1  0.48454  0.99790  0.70232  1
 Ca  Ca5  1  0.20653  0.15620  0.93151  1
 Ca  Ca6  1  0.79347  0.65620  0.56849  1
 Ca  Ca7  1  0.79347  0.84380  0.06849  1
 Ca  Ca8  1  0.20653  0.34380  0.43151  1
 O  O1  1  0.77772  0.33060  0.42652  1
 O  O2  1  0.64934  0.33328  0.63706  1
 O  O3  1  0.35066  0.83328  0.86294  1
 O  O4  1  0.22228  0.83060  0.07348  1
 O  O5  1  0.77772  0.16940  0.92652  1
 O  O6  1  0.77458  0.98560  0.55758  1
 O  O7  1  0.35066  0.66672  0.36294  1
 O  O8  1  0.22228  0.66940  0.57348  1
 O  O9  1  0.82662  0.74875  0.80518  1
 O  O10  1  0.22542  0.01440  0.44242  1
 O  O11  1  0.17338  0.25125  0.19482  1
 O  O12  1  0.82662  0.75125  0.30518  1
 O  O13  1  0.64934  0.16672  0.13706  1
 O  O14  1  0.77458  0.51440  0.05758  1
 O  O15  1  0.17338  0.24875  0.69482  1
 O  O16  1  0.22542  0.48560  0.94242  1
 Si  Si1  1  0.14937  0.71833  0.91816  1
 Si  Si2  1  0.85063  0.21833  0.58184  1
 Si  Si3  1  0.85063  0.28167  0.08184  1
 Si  Si4  1  0.14937  0.78167  0.41816  1
