CIF file written using JARVIS-Tools package.
data_KAuO2
_symmetry_space_group_name_H-M  'Pmmm'
_cell_length_a       3.05813
_cell_length_b       3.59033
_cell_length_c       5.83721
_cell_angle_alpha    90
_cell_angle_beta     90
_cell_angle_gamma    90

_symmetry_Int_Tables_number  47
_chemical_formula_structural  KAuO2
_chemical_formula_sum  KAuO2
_cell_volume  64.09078985776739
_cell_formula_units_Z  1
loop_
  _symmetry_equiv_pos_site_id
 _symmetry_equiv_pos_as_xyz
 1  'x, y, z'
loop_
 _atom_site_type_symbol
 _atom_site_label
 _atom_site_symmetry_multiplicity
 _atom_site_fract_x
 _atom_site_fract_y
 _atom_site_fract_z
 _atom_site_fract_occupancy
 Au  Au1  1  0.00000  0.00000  0.00000  1
 K  K1  1  0.00000  0.50000  0.50000  1
 O  O1  1  0.50000  0.00000  0.77026  1
 O  O2  1  0.50000  0.00000  0.22974  1
