CIF file written using JARVIS-Tools package.
data_CaMoF6
_symmetry_space_group_name_H-M  'R-3'
_cell_length_a       5.91116
_cell_length_b       5.91115
_cell_length_c       5.91116
_cell_angle_alpha    53.1695
_cell_angle_beta     53.1695
_cell_angle_gamma    53.1694

_symmetry_Int_Tables_number  148
_chemical_formula_structural  CaMoF6
_chemical_formula_sum  CaMoF6
_cell_volume  122.6808963966379
_cell_formula_units_Z  1
loop_
  _symmetry_equiv_pos_site_id
 _symmetry_equiv_pos_as_xyz
 1  'x, y, z'
loop_
 _atom_site_type_symbol
 _atom_site_label
 _atom_site_symmetry_multiplicity
 _atom_site_fract_x
 _atom_site_fract_y
 _atom_site_fract_z
 _atom_site_fract_occupancy
 Ca  Ca1  1  0.50000  0.50000  0.50000  1
 F  F1  1  0.37227  0.08753  0.77143  1
 F  F2  1  0.08753  0.77143  0.37227  1
 F  F3  1  0.22857  0.62773  0.91247  1
 F  F4  1  0.91247  0.22857  0.62773  1
 F  F5  1  0.62773  0.91247  0.22857  1
 F  F6  1  0.77143  0.37227  0.08753  1
 Mo  Mo1  1  0.00000  0.00000  0.00000  1
