CIF file written using JARVIS-Tools package.
data_NaLuO2
_symmetry_space_group_name_H-M  'C2/c'
_cell_length_a       5.76912
_cell_length_b       5.90865
_cell_length_c       7.23768
_cell_angle_alpha    105.023
_cell_angle_beta     104.235
_cell_angle_gamma    111.954

_symmetry_Int_Tables_number  15
_chemical_formula_structural  NaLuO2
_chemical_formula_sum  Na4Lu4O8
_cell_volume  204.17989255262214
_cell_formula_units_Z  4
loop_
  _symmetry_equiv_pos_site_id
 _symmetry_equiv_pos_as_xyz
 1  'x, y, z'
loop_
 _atom_site_type_symbol
 _atom_site_label
 _atom_site_symmetry_multiplicity
 _atom_site_fract_x
 _atom_site_fract_y
 _atom_site_fract_z
 _atom_site_fract_occupancy
 Lu  Lu1  1  0.94338  0.69338  0.88677  1
 Lu  Lu2  1  0.68282  0.43281  0.36565  1
 Lu  Lu3  1  0.31718  0.56719  0.63435  1
 Lu  Lu4  1  0.05662  0.30662  0.11323  1
 Na  Na1  1  0.80551  0.05547  0.61096  1
 Na  Na2  1  0.42990  0.17989  0.85979  1
 Na  Na3  1  0.57010  0.82011  0.14021  1
 Na  Na4  1  0.19449  0.94453  0.38904  1
 O  O1  1  0.94164  0.23251  0.37302  1
 O  O2  1  0.70718  0.91831  0.87612  1
 O  O3  1  0.56860  0.35948  0.62697  1
 O  O4  1  0.16893  0.45781  0.87611  1
 O  O5  1  0.83107  0.54219  0.12389  1
 O  O6  1  0.43140  0.64052  0.37303  1
 O  O7  1  0.29282  0.08169  0.12388  1
 O  O8  1  0.05836  0.76749  0.62698  1
