CIF file written using JARVIS-Tools package.
data_Cr3HO8
_symmetry_space_group_name_H-M  'P2_1/m'
_cell_length_a       3.58698
_cell_length_b       6.60855
_cell_length_c       15.0919
_cell_angle_alpha    129.924
_cell_angle_beta     90
_cell_angle_gamma    90

_symmetry_Int_Tables_number  11
_chemical_formula_structural  Cr3HO8
_chemical_formula_sum  Cr6H2O6
_cell_volume  274.3561455928172
_cell_formula_units_Z  2
loop_
  _symmetry_equiv_pos_site_id
 _symmetry_equiv_pos_as_xyz
 1  'x, y, z'
loop_
 _atom_site_type_symbol
 _atom_site_label
 _atom_site_symmetry_multiplicity
 _atom_site_fract_x
 _atom_site_fract_y
 _atom_site_fract_z
 _atom_site_fract_occupancy
 Cr  Cr1  1  0.25000  0.68353  0.92000  1
 Cr  Cr2  1  0.75000  0.31647  0.08000  1
 Cr  Cr3  1  0.75000  -0.15287  0.81115  1
 Cr  Cr4  1  0.25000  0.15287  0.18885  1
 Cr  Cr5  1  0.25000  0.61656  0.46101  1
 Cr  Cr6  1  0.75000  0.38344  0.53899  1
 H  H1  1  0.25000  0.89700  0.25043  1
 H  H2  1  0.75000  0.10300  0.74957  1
 O  O1  1  0.25000  0.22674  0.07534  1
 O  O2  1  0.25000  0.92726  0.55238  1
 O  O3  1  0.75000  0.62903  0.16636  1
 O  O4  1  0.75000  0.20253  0.93994  1
 O  O5  1  0.75000  -0.08415  0.71461  1
 O  O6  1  0.25000  0.37097  0.83364  1
 O  O7  1  0.25000  0.52342  0.32738  1
 O  O8  1  0.75000  0.19804  0.16986  1
 O  O9  1  0.75000  0.07274  0.44762  1
 O  O10  1  0.25000  0.79747  0.06006  1
 O  O11  1  0.75000  0.77326  0.92466  1
 O  O12  1  0.75000  0.47658  0.67262  1
 O  O13  1  0.75000  0.52409  0.45873  1
 O  O14  1  0.25000  0.47591  0.54127  1
 O  O15  1  0.25000  0.80196  0.83014  1
 O  O16  1  0.25000  0.08415  0.28539  1
