CIF file written using JARVIS-Tools package.
data_BaC2
_symmetry_space_group_name_H-M  'C2/c'
_cell_length_a       4.46249
_cell_length_b       4.46249
_cell_length_c       8.1646
_cell_angle_alpha    74.7963
_cell_angle_beta     74.7963
_cell_angle_gamma    64.6868

_symmetry_Int_Tables_number  15
_chemical_formula_structural  BaC2
_chemical_formula_sum  Ba2C4
_cell_volume  139.7173347292915
_cell_formula_units_Z  2
loop_
  _symmetry_equiv_pos_site_id
 _symmetry_equiv_pos_as_xyz
 1  'x, y, z'
loop_
 _atom_site_type_symbol
 _atom_site_label
 _atom_site_symmetry_multiplicity
 _atom_site_fract_x
 _atom_site_fract_y
 _atom_site_fract_z
 _atom_site_fract_occupancy
 Ba  Ba1  1  0.81607  0.18393  0.25000  1
 Ba  Ba2  1  0.18393  0.81607  0.75000  1
 C  C1  1  0.12194  0.42239  0.44722  1
 C  C2  1  0.57761  0.87806  0.05278  1
 C  C3  1  0.42239  0.12194  0.94722  1
 C  C4  1  0.87806  0.57761  0.55278  1
