CIF file written using JARVIS-Tools package.
data_B4C
_symmetry_space_group_name_H-M  'R-3m'
_cell_length_a       5.18637
_cell_length_b       5.18637
_cell_length_c       5.18636
_cell_angle_alpha    65.9392
_cell_angle_beta     65.9392
_cell_angle_gamma    65.9392

_symmetry_Int_Tables_number  166
_chemical_formula_structural  B4C
_chemical_formula_sum  B2C3
_cell_volume  111.33052383898585
_cell_formula_units_Z  3
loop_
  _symmetry_equiv_pos_site_id
 _symmetry_equiv_pos_as_xyz
 1  'x, y, z'
loop_
 _atom_site_type_symbol
 _atom_site_label
 _atom_site_symmetry_multiplicity
 _atom_site_fract_x
 _atom_site_fract_y
 _atom_site_fract_z
 _atom_site_fract_occupancy
 B  B1  1  0.30851  0.80652  0.80652  1
 B  B2  1  0.80652  0.80652  0.30851  1
 B  B3  1  0.80652  0.30851  0.80652  1
 B  B4  1  0.69149  0.19348  0.19348  1
 B  B5  1  0.19348  0.19348  0.69149  1
 B  B6  1  0.19348  0.69149  0.19348  1
 B  B7  1  0.67004  0.99411  0.99411  1
 B  B8  1  0.99411  0.99411  0.67004  1
 B  B9  1  0.99411  0.67004  0.99411  1
 B  B10  1  0.32996  0.00589  0.00589  1
 B  B11  1  0.00589  0.00589  0.32996  1
 B  B12  1  0.00589  0.32996  0.00589  1
 C  C1  1  0.60975  0.60975  0.60975  1
 C  C2  1  0.39025  0.39025  0.39025  1
 C  C3  1  0.50000  0.50000  0.50000  1
