CIF file written using JARVIS-Tools package.
data_BaTiAlCuO5
_symmetry_space_group_name_H-M  'P4mm'
_cell_length_a       3.81187
_cell_length_b       3.81187
_cell_length_c       8.03384
_cell_angle_alpha    90
_cell_angle_beta     90
_cell_angle_gamma    90

_symmetry_Int_Tables_number  99
_chemical_formula_structural  BaTiAlCuO5
_chemical_formula_sum  BaTiAlCuO5
_cell_volume  116.7346894794709
_cell_formula_units_Z  1
loop_
  _symmetry_equiv_pos_site_id
 _symmetry_equiv_pos_as_xyz
 1  'x, y, z'
loop_
 _atom_site_type_symbol
 _atom_site_label
 _atom_site_symmetry_multiplicity
 _atom_site_fract_x
 _atom_site_fract_y
 _atom_site_fract_z
 _atom_site_fract_occupancy
 Al  Al1  1  0.00000  0.00000  0.37046  1
 Ba  Ba1  1  0.00000  0.00000  -0.05336  1
 Cu  Cu1  1  0.50000  0.50000  0.19438  1
 O  O1  1  0.00000  0.50000  0.68525  1
 O  O2  1  0.50000  0.00000  0.68525  1
 O  O3  1  0.00000  0.50000  0.32868  1
 O  O4  1  0.50000  0.00000  0.32868  1
 O  O5  1  0.50000  0.50000  0.94249  1
 Ti  Ti1  1  0.50000  0.50000  0.70609  1
