CIF file written using JARVIS-Tools package.
data_MgAl2S4
_symmetry_space_group_name_H-M  'Pnma'
_cell_length_a       5.95267
_cell_length_b       7.25528
_cell_length_c       12.555
_cell_angle_alpha    90
_cell_angle_beta     90
_cell_angle_gamma    90

_symmetry_Int_Tables_number  62
_chemical_formula_structural  MgAl2S4
_chemical_formula_sum  Mg4Al8S6
_cell_volume  542.2273711041194
_cell_formula_units_Z  4
loop_
  _symmetry_equiv_pos_site_id
 _symmetry_equiv_pos_as_xyz
 1  'x, y, z'
loop_
 _atom_site_type_symbol
 _atom_site_label
 _atom_site_symmetry_multiplicity
 _atom_site_fract_x
 _atom_site_fract_y
 _atom_site_fract_z
 _atom_site_fract_occupancy
 Al  Al1  1  0.08863  0.25000  0.41417  1
 Al  Al2  1  0.91137  0.75000  0.58583  1
 Al  Al3  1  0.58863  0.75000  0.08583  1
 Al  Al4  1  0.41137  0.25000  0.91417  1
 Al  Al5  1  0.50000  0.50000  0.50000  1
 Al  Al6  1  0.00000  0.50000  0.00000  1
 Al  Al7  1  0.00000  0.00000  0.00000  1
 Al  Al8  1  0.50000  0.00000  0.50000  1
 Mg  Mg1  1  0.00235  0.75000  0.26620  1
 Mg  Mg2  1  0.99765  0.25000  0.73380  1
 Mg  Mg3  1  0.50235  0.25000  0.23380  1
 Mg  Mg4  1  0.49765  0.75000  0.76620  1
 S  S1  1  0.22982  0.25000  0.07418  1
 S  S2  1  0.21198  0.75000  0.08478  1
 S  S3  1  0.76065  0.50428  0.15887  1
 S  S4  1  0.78802  0.25000  0.91522  1
 S  S5  1  0.28802  0.75000  0.58478  1
 S  S6  1  0.72982  0.75000  0.42582  1
 S  S7  1  0.71198  0.25000  0.41522  1
 S  S8  1  0.73935  0.99572  0.65887  1
 S  S9  1  0.26065  0.00428  0.34113  1
 S  S10  1  0.23935  0.49572  0.84113  1
 S  S11  1  0.73935  0.50428  0.65887  1
 S  S12  1  0.23935  0.00428  0.84113  1
 S  S13  1  0.27018  0.25000  0.57418  1
 S  S14  1  0.76065  0.99572  0.15887  1
 S  S15  1  0.77018  0.75000  0.92582  1
 S  S16  1  0.26065  0.49572  0.34113  1
