CIF file written using JARVIS-Tools package.
data_Cs2PdI6
_symmetry_space_group_name_H-M  'I4/mmm'
_cell_length_a       7.78873
_cell_length_b       7.78854
_cell_length_c       7.78855
_cell_angle_alpha    108.59
_cell_angle_beta     109.913
_cell_angle_gamma    109.913

_symmetry_Int_Tables_number  139
_chemical_formula_structural  Cs2PdI6
_chemical_formula_sum  Cs2PdI6
_cell_volume  363.65291275136997
_cell_formula_units_Z  1
loop_
  _symmetry_equiv_pos_site_id
 _symmetry_equiv_pos_as_xyz
 1  'x, y, z'
loop_
 _atom_site_type_symbol
 _atom_site_label
 _atom_site_symmetry_multiplicity
 _atom_site_fract_x
 _atom_site_fract_y
 _atom_site_fract_z
 _atom_site_fract_occupancy
 Cs  Cs1  1  0.50000  0.75000  0.25000  1
 Cs  Cs2  1  0.50000  0.25000  0.75000  1
 I  I1  1  0.57677  0.78838  0.78838  1
 I  I2  1  0.00000  0.78838  0.21162  1
 I  I3  1  -0.00000  0.21162  0.78838  1
 I  I4  1  0.42323  0.21162  0.21162  1
 I  I5  1  0.00000  0.66478  0.66478  1
 I  I6  1  -0.00000  0.33522  0.33522  1
 Pd  Pd1  1  0.00000  0.00000  0.00000  1
