CIF file written using JARVIS-Tools package.
data_SbAsO3
_symmetry_space_group_name_H-M  'P2_1/c'
_cell_length_a       4.53817
_cell_length_b       5.47701
_cell_length_c       13.0825
_cell_angle_alpha    90
_cell_angle_beta     90
_cell_angle_gamma    95.1805

_symmetry_Int_Tables_number  14
_chemical_formula_structural  SbAsO3
_chemical_formula_sum  Sb4As4O2
_cell_volume  323.84479731920175
_cell_formula_units_Z  4
loop_
  _symmetry_equiv_pos_site_id
 _symmetry_equiv_pos_as_xyz
 1  'x, y, z'
loop_
 _atom_site_type_symbol
 _atom_site_label
 _atom_site_symmetry_multiplicity
 _atom_site_fract_x
 _atom_site_fract_y
 _atom_site_fract_z
 _atom_site_fract_occupancy
 As  As1  1  0.46431  0.23338  0.59132  1
 As  As2  1  0.03569  0.26662  0.09132  1
 As  As3  1  0.53569  0.76662  0.40868  1
 As  As4  1  0.96431  0.73338  0.90868  1
 O  O1  1  0.06807  0.44684  0.20806  1
 O  O2  1  0.09755  0.96138  0.13854  1
 O  O3  1  0.59755  0.46138  0.36146  1
 O  O4  1  0.90245  0.03862  0.86146  1
 O  O5  1  0.36041  0.82184  0.90854  1
 O  O6  1  0.13959  0.67816  0.40854  1
 O  O7  1  0.63959  0.17816  0.09146  1
 O  O8  1  0.56807  0.94684  0.29194  1
 O  O9  1  0.40245  0.53862  0.63854  1
 O  O10  1  0.93193  0.55316  0.79194  1
 O  O11  1  0.43193  0.05316  0.70806  1
 O  O12  1  0.86041  0.32184  0.59146  1
 Sb  Sb1  1  0.00852  0.33384  0.35437  1
 Sb  Sb2  1  0.99148  0.66616  0.64563  1
 Sb  Sb3  1  0.50852  0.83384  0.14563  1
 Sb  Sb4  1  0.49148  0.16616  0.85437  1
