CIF file written using JARVIS-Tools package.
data_Te2Mo3WSe6
_symmetry_space_group_name_H-M  'P3m1'
_cell_length_a       3.38442
_cell_length_b       3.38442
_cell_length_c       35.9599
_cell_angle_alpha    90.0015
_cell_angle_beta     89.999
_cell_angle_gamma    120

_symmetry_Int_Tables_number  156
_chemical_formula_structural  Te2Mo3WSe6
_chemical_formula_sum  Te2Mo3WSe6
_cell_volume  356.7115878240523
_cell_formula_units_Z  1
loop_
  _symmetry_equiv_pos_site_id
 _symmetry_equiv_pos_as_xyz
 1  'x, y, z'
loop_
 _atom_site_type_symbol
 _atom_site_label
 _atom_site_symmetry_multiplicity
 _atom_site_fract_x
 _atom_site_fract_y
 _atom_site_fract_z
 _atom_site_fract_occupancy
 Mo  Mo1  1  0.33338  0.66664  0.08941  1
 Mo  Mo2  1  0.66666  0.33331  0.28180  1
 Mo  Mo3  1  0.66664  0.33335  0.65686  1
 Se  Se1  1  0.33331  0.66670  0.70282  1
 Se  Se2  1  0.66673  0.33330  0.04346  1
 Se  Se3  1  0.66665  0.33335  0.42860  1
 Se  Se4  1  0.66672  0.33331  0.13545  1
 Se  Se5  1  0.66665  0.33339  0.52106  1
 Se  Se6  1  0.33331  0.66668  0.61086  1
 Te  Te1  1  0.33333  0.66666  0.33418  1
 Te  Te2  1  0.33332  0.66662  0.22941  1
 W  W1  1  0.33331  0.66670  0.47484  1
