CIF file written using JARVIS-Tools package.
data_LiMnPO4
_symmetry_space_group_name_H-M  'C2'
_cell_length_a       4.93827
_cell_length_b       5.48337
_cell_length_c       6.5905
_cell_angle_alpha    103.438
_cell_angle_beta     89.9945
_cell_angle_gamma    116.77

_symmetry_Int_Tables_number  5
_chemical_formula_structural  LiMnPO4
_chemical_formula_sum  Li2Mn2P2O8
_cell_volume  153.84285755035853
_cell_formula_units_Z  2
loop_
  _symmetry_equiv_pos_site_id
 _symmetry_equiv_pos_as_xyz
 1  'x, y, z'
loop_
 _atom_site_type_symbol
 _atom_site_label
 _atom_site_symmetry_multiplicity
 _atom_site_fract_x
 _atom_site_fract_y
 _atom_site_fract_z
 _atom_site_fract_occupancy
 Li  Li1  1  0.06259  0.00121  0.49865  1
 Li  Li2  1  0.03163  0.00135  -0.00144  1
 Mn  Mn1  1  0.35559  0.71090  0.27348  1
 Mn  Mn2  1  0.64608  0.29189  0.72344  1
 O  O1  1  0.74869  0.66898  0.32709  1
 O  O2  1  0.30534  0.83527  0.62333  1
 O  O3  1  0.21149  0.73274  0.98347  1
 O  O4  1  0.64705  0.69054  0.79244  1
 O  O5  1  0.95783  0.31225  0.20443  1
 O  O6  1  0.48006  0.27002  0.01344  1
 O  O7  1  0.47136  0.16747  0.37359  1
 O  O8  1  0.08110  0.33377  0.66982  1
 P  P1  1  0.31698  0.65059  0.76988  1
 P  P2  1  0.66770  0.35215  0.22703  1
