CIF file written using JARVIS-Tools package.
data_TaPt2
_symmetry_space_group_name_H-M  'Cmcm'
_cell_length_a       4.80989
_cell_length_b       4.84195
_cell_length_c       4.88582
_cell_angle_alpha    119.703
_cell_angle_beta     90
_cell_angle_gamma    90

_symmetry_Int_Tables_number  63
_chemical_formula_structural  TaPt2
_chemical_formula_sum  Ta2Pt4
_cell_volume  98.83587577110163
_cell_formula_units_Z  2
loop_
  _symmetry_equiv_pos_site_id
 _symmetry_equiv_pos_as_xyz
 1  'x, y, z'
loop_
 _atom_site_type_symbol
 _atom_site_label
 _atom_site_symmetry_multiplicity
 _atom_site_fract_x
 _atom_site_fract_y
 _atom_site_fract_z
 _atom_site_fract_occupancy
 Pt  Pt1  1  0.25000  0.11368  0.67637  1
 Pt  Pt2  1  0.75000  0.88632  0.32363  1
 Pt  Pt3  1  0.75000  0.56269  0.67637  1
 Pt  Pt4  1  0.25000  0.43731  0.32363  1
 Ta  Ta1  1  0.75000  0.23319  -0.00000  1
 Ta  Ta2  1  0.25000  0.76681  0.00000  1
