CIF file written using JARVIS-Tools package.
data_Au2Se2O7
_symmetry_space_group_name_H-M  'Pba2'
_cell_length_a       4.00043
_cell_length_b       7.02215
_cell_length_c       11.5793
_cell_angle_alpha    90
_cell_angle_beta     90
_cell_angle_gamma    90

_symmetry_Int_Tables_number  32
_chemical_formula_structural  Au2Se2O7
_chemical_formula_sum  Au4Se4O4
_cell_volume  325.2815530762449
_cell_formula_units_Z  2
loop_
  _symmetry_equiv_pos_site_id
 _symmetry_equiv_pos_as_xyz
 1  'x, y, z'
loop_
 _atom_site_type_symbol
 _atom_site_label
 _atom_site_symmetry_multiplicity
 _atom_site_fract_x
 _atom_site_fract_y
 _atom_site_fract_z
 _atom_site_fract_occupancy
 Au  Au1  1  0.49986  0.19312  0.06470  1
 Au  Au2  1  0.49986  0.30688  0.56470  1
 Au  Au3  1  0.49986  0.69312  0.43530  1
 Au  Au4  1  0.49986  0.80688  0.93530  1
 O  O1  1  0.81048  0.00000  0.00000  1
 O  O2  1  0.13996  0.87705  0.37353  1
 O  O3  1  0.13996  0.12295  0.62647  1
 O  O4  1  0.13996  0.62295  0.87353  1
 O  O5  1  0.13996  0.37705  0.12647  1
 O  O6  1  0.48839  0.53494  0.28941  1
 O  O7  1  0.48839  0.46506  0.71059  1
 O  O8  1  0.56962  0.33939  0.91732  1
 O  O9  1  0.56962  0.83939  0.58268  1
 O  O10  1  0.56962  0.66061  0.08268  1
 O  O11  1  0.48839  0.03494  0.21059  1
 O  O12  1  0.48839  0.96506  0.78941  1
 O  O13  1  0.81048  0.50000  0.50000  1
 O  O14  1  0.56962  0.16061  0.41732  1
 Se  Se1  1  0.23213  0.60687  0.17329  1
 Se  Se2  1  0.23213  0.39313  0.82671  1
 Se  Se3  1  0.23213  0.89313  0.67329  1
 Se  Se4  1  0.23213  0.10687  0.32671  1
