CIF file written using JARVIS-Tools package.
data_Mn4OF6
_symmetry_space_group_name_H-M  'P4_2/nmc'
_cell_length_a       7.19313
_cell_length_b       7.19313
_cell_length_c       5.19081
_cell_angle_alpha    90
_cell_angle_beta     90
_cell_angle_gamma    90

_symmetry_Int_Tables_number  137
_chemical_formula_structural  Mn4OF6
_chemical_formula_sum  Mn8O2F2
_cell_volume  268.57806395365907
_cell_formula_units_Z  2
loop_
  _symmetry_equiv_pos_site_id
 _symmetry_equiv_pos_as_xyz
 1  'x, y, z'
loop_
 _atom_site_type_symbol
 _atom_site_label
 _atom_site_symmetry_multiplicity
 _atom_site_fract_x
 _atom_site_fract_y
 _atom_site_fract_z
 _atom_site_fract_occupancy
 F  F1  1  0.00000  0.50000  0.91222  1
 F  F2  1  0.29119  0.70881  0.50000  1
 F  F3  1  0.79119  0.79119  0.00000  1
 F  F4  1  0.50000  0.00000  0.08778  1
 F  F5  1  0.50000  0.00000  0.58778  1
 F  F6  1  0.20881  0.79119  0.00000  1
 F  F7  1  0.20881  0.20881  0.00000  1
 F  F8  1  0.29119  0.29119  0.50000  1
 F  F9  1  0.70881  0.29119  0.50000  1
 F  F10  1  0.00000  0.50000  0.41222  1
 F  F11  1  0.70881  0.70881  0.50000  1
 F  F12  1  0.79119  0.20881  0.00000  1
 Mn  Mn1  1  0.00000  0.74975  0.69484  1
 Mn  Mn2  1  0.24975  0.50000  0.19484  1
 Mn  Mn3  1  0.75025  0.50000  0.19484  1
 Mn  Mn4  1  0.00000  0.25025  0.69484  1
 Mn  Mn5  1  0.50000  0.24975  0.80516  1
 Mn  Mn6  1  0.74975  0.00000  0.30516  1
 Mn  Mn7  1  0.25025  0.00000  0.30516  1
 Mn  Mn8  1  0.50000  0.75025  0.80516  1
 O  O1  1  0.50000  0.50000  0.00000  1
 O  O2  1  0.00000  0.00000  0.50000  1
