CIF file written using JARVIS-Tools package.
data_MnSb2F12
_symmetry_space_group_name_H-M  'P-1'
_cell_length_a       5.06807
_cell_length_b       5.53576
_cell_length_c       8.71165
_cell_angle_alpha    74.3517
_cell_angle_beta     89.8282
_cell_angle_gamma    63.1159

_symmetry_Int_Tables_number  2
_chemical_formula_structural  MnSb2F12
_chemical_formula_sum  MnSb2F2
_cell_volume  207.8919212592773
_cell_formula_units_Z  1
loop_
  _symmetry_equiv_pos_site_id
 _symmetry_equiv_pos_as_xyz
 1  'x, y, z'
loop_
 _atom_site_type_symbol
 _atom_site_label
 _atom_site_symmetry_multiplicity
 _atom_site_fract_x
 _atom_site_fract_y
 _atom_site_fract_z
 _atom_site_fract_occupancy
 F  F1  1  0.95056  0.24402  0.21171  1
 F  F2  1  0.04944  0.75598  0.78829  1
 F  F3  1  0.03511  0.75985  0.12984  1
 F  F4  1  0.49715  0.76974  0.63246  1
 F  F5  1  0.50285  0.23026  0.36754  1
 F  F6  1  0.96547  0.23745  0.56522  1
 F  F7  1  0.03453  0.76255  0.43478  1
 F  F8  1  0.43044  0.23172  0.70129  1
 F  F9  1  0.56956  0.76828  0.29871  1
 F  F10  1  0.53357  0.75885  0.95080  1
 F  F11  1  0.46643  0.24115  0.04920  1
 F  F12  1  0.96489  0.24015  0.87016  1
 Mn  Mn1  1  0.50000  0.50000  0.50000  1
 Sb  Sb1  1  0.76023  0.01407  0.23020  1
 Sb  Sb2  1  0.23977  0.98593  0.76980  1
