CIF file written using JARVIS-Tools package.
data_W3Se2S4
_symmetry_space_group_name_H-M  'P-6m2'
_cell_length_a       3.23579
_cell_length_b       3.23576
_cell_length_c       27.9423
_cell_angle_alpha    90
_cell_angle_beta     90
_cell_angle_gamma    120

_symmetry_Int_Tables_number  187
_chemical_formula_structural  W3Se2S4
_chemical_formula_sum  W3Se2S4
_cell_volume  253.36602640866374
_cell_formula_units_Z  1
loop_
  _symmetry_equiv_pos_site_id
 _symmetry_equiv_pos_as_xyz
 1  'x, y, z'
loop_
 _atom_site_type_symbol
 _atom_site_label
 _atom_site_symmetry_multiplicity
 _atom_site_fract_x
 _atom_site_fract_y
 _atom_site_fract_z
 _atom_site_fract_occupancy
 S  S1  1  0.66667  0.33334  0.05987  1
 S  S2  1  0.66666  0.33332  0.52242  1
 S  S3  1  0.66666  0.33332  0.17155  1
 S  S4  1  0.66667  0.33334  0.63410  1
 Se  Se1  1  0.33331  0.66662  0.40843  1
 Se  Se2  1  0.33331  0.66662  0.28554  1
 W  W1  1  0.33334  0.66668  0.11568  1
 W  W2  1  0.33334  0.66668  0.57829  1
 W  W3  1  0.66664  0.33328  0.34698  1
