CIF file written using JARVIS-Tools package.
data_KV3Se2O12
_symmetry_space_group_name_H-M  'P6_3'
_cell_length_a       7.1313
_cell_length_b       7.1313
_cell_length_c       11.3485
_cell_angle_alpha    90
_cell_angle_beta     90
_cell_angle_gamma    120

_symmetry_Int_Tables_number  173
_chemical_formula_structural  KV3Se2O12
_chemical_formula_sum  K2V6Se4O24
_cell_volume  499.81088629330696
_cell_formula_units_Z  2
loop_
  _symmetry_equiv_pos_site_id
 _symmetry_equiv_pos_as_xyz
 1  'x, y, z'
loop_
 _atom_site_type_symbol
 _atom_site_label
 _atom_site_symmetry_multiplicity
 _atom_site_fract_x
 _atom_site_fract_y
 _atom_site_fract_z
 _atom_site_fract_occupancy
 K  K1  1  0.33333  0.66667  0.94745  1
 K  K2  1  0.66667  0.33333  0.44745  1
 O  O1  1  0.87446  0.12750  0.31728  1
 O  O2  1  0.87250  0.74695  0.31728  1
 O  O3  1  0.12037  0.86644  0.12346  1
 O  O4  1  0.19864  0.78406  0.45022  1
 O  O5  1  0.86644  0.74608  0.62346  1
 O  O6  1  0.13356  0.25392  0.12346  1
 O  O7  1  0.74608  0.87963  0.12346  1
 O  O8  1  0.87963  0.13356  0.62346  1
 O  O9  1  0.54139  0.46100  0.75751  1
 O  O10  1  0.41458  0.19864  0.95022  1
 O  O11  1  0.78406  0.58542  0.95022  1
 O  O12  1  0.21594  0.41458  0.45022  1
 O  O13  1  0.58542  0.80136  0.45022  1
 O  O14  1  0.80136  0.21594  0.95022  1
 O  O15  1  0.12554  0.87250  0.81728  1
 O  O16  1  0.12750  0.25305  0.81728  1
 O  O17  1  0.25305  0.12554  0.31728  1
 O  O18  1  0.53900  0.08039  0.75751  1
 O  O19  1  0.25392  0.12037  0.62346  1
 O  O20  1  0.74695  0.87446  0.81728  1
 O  O21  1  0.46100  0.91961  0.25751  1
 O  O22  1  0.08039  0.54139  0.25751  1
 O  O23  1  0.45861  0.53900  0.25751  1
 O  O24  1  0.91961  0.45861  0.75751  1
 Se  Se1  1  0.66667  0.33333  0.01665  1
 Se  Se2  1  0.33333  0.66667  0.51665  1
 Se  Se3  1  0.00000  0.00000  0.55629  1
 Se  Se4  1  0.00000  0.00000  0.05629  1
 V  V1  1  0.21055  0.87660  0.28376  1
 V  V2  1  0.33395  0.21055  0.78376  1
 V  V3  1  0.87660  0.66605  0.78376  1
 V  V4  1  0.12340  0.33395  0.28376  1
 V  V5  1  0.66605  0.78945  0.28376  1
 V  V6  1  0.78945  0.12340  0.78376  1
