CIF file written using JARVIS-Tools package.
data_Yb5Ge3
_symmetry_space_group_name_H-M  'P6_3/mcm'
_cell_length_a       8.71272
_cell_length_b       8.71272
_cell_length_c       6.38842
_cell_angle_alpha    90
_cell_angle_beta     90
_cell_angle_gamma    120

_symmetry_Int_Tables_number  193
_chemical_formula_structural  Yb5Ge3
_chemical_formula_sum  Yb0Ge6
_cell_volume  419.98300404480864
_cell_formula_units_Z  2
loop_
  _symmetry_equiv_pos_site_id
 _symmetry_equiv_pos_as_xyz
 1  'x, y, z'
loop_
 _atom_site_type_symbol
 _atom_site_label
 _atom_site_symmetry_multiplicity
 _atom_site_fract_x
 _atom_site_fract_y
 _atom_site_fract_z
 _atom_site_fract_occupancy
 Ge  Ge1  1  0.38088  -0.00000  0.75000  1
 Ge  Ge2  1  0.38088  0.38088  0.25000  1
 Ge  Ge3  1  0.00000  0.61912  0.25000  1
 Ge  Ge4  1  -0.00000  0.38088  0.75000  1
 Ge  Ge5  1  0.61912  0.61912  0.75000  1
 Ge  Ge6  1  0.61912  0.00000  0.25000  1
 Yb  Yb1  1  0.33333  0.66667  0.00000  1
 Yb  Yb2  1  0.66667  0.33333  0.50000  1
 Yb  Yb3  1  0.66667  0.33333  0.00000  1
 Yb  Yb4  1  0.33333  0.66667  0.50000  1
 Yb  Yb5  1  0.72247  0.00000  0.75000  1
 Yb  Yb6  1  0.72247  0.72247  0.25000  1
 Yb  Yb7  1  -0.00000  0.27753  0.25000  1
 Yb  Yb8  1  0.00000  0.72247  0.75000  1
 Yb  Yb9  1  0.27753  0.27753  0.75000  1
 Yb  Yb10  1  0.27753  -0.00000  0.25000  1
