CIF file written using JARVIS-Tools package.
data_LiP2WO7
_symmetry_space_group_name_H-M  'P-1'
_cell_length_a       6.46976
_cell_length_b       6.48434
_cell_length_c       6.82845
_cell_angle_alpha    66.5018
_cell_angle_beta     83.4317
_cell_angle_gamma    81.9928

_symmetry_Int_Tables_number  2
_chemical_formula_structural  LiP2WO7
_chemical_formula_sum  Li2P4W2O4
_cell_volume  259.6040040442788
_cell_formula_units_Z  2
loop_
  _symmetry_equiv_pos_site_id
 _symmetry_equiv_pos_as_xyz
 1  'x, y, z'
loop_
 _atom_site_type_symbol
 _atom_site_label
 _atom_site_symmetry_multiplicity
 _atom_site_fract_x
 _atom_site_fract_y
 _atom_site_fract_z
 _atom_site_fract_occupancy
 Li  Li1  1  0.98149  0.30144  0.17495  1
 Li  Li2  1  0.01851  0.69856  0.82505  1
 O  O1  1  0.98539  0.07248  0.73269  1
 O  O2  1  0.96009  0.62307  0.13102  1
 O  O3  1  0.03991  0.37693  0.86898  1
 O  O4  1  0.71150  0.77554  0.75642  1
 O  O5  1  0.67165  0.94228  0.12195  1
 O  O6  1  0.77132  0.62303  0.46781  1
 O  O7  1  0.59801  0.22729  0.44578  1
 O  O8  1  0.40199  0.77271  0.55422  1
 O  O9  1  0.41514  0.59599  0.19031  1
 O  O10  1  0.32835  0.05772  0.87805  1
 O  O11  1  0.28850  0.22446  0.24358  1
 O  O12  1  0.22868  0.37697  0.53219  1
 O  O13  1  0.58486  0.40401  0.80969  1
 O  O14  1  0.01461  0.92752  0.26731  1
 P  P1  1  0.13563  0.22141  0.76210  1
 P  P2  1  0.39428  0.35331  0.34239  1
 P  P3  1  0.60572  0.64669  0.65761  1
 P  P4  1  0.86437  0.77859  0.23790  1
 W  W1  1  0.34632  0.90591  0.22490  1
 W  W2  1  0.65368  0.09409  0.77510  1
