CIF file written using JARVIS-Tools package.
data_Li2Fe5O10
_symmetry_space_group_name_H-M  'P-1'
_cell_length_a       4.95
_cell_length_b       4.89572
_cell_length_c       7.38391
_cell_angle_alpha    72.1759
_cell_angle_beta     73.5003
_cell_angle_gamma    80.4797

_symmetry_Int_Tables_number  2
_chemical_formula_structural  Li2Fe5O10
_chemical_formula_sum  Li2Fe5O0
_cell_volume  162.73173761737277
_cell_formula_units_Z  1
loop_
  _symmetry_equiv_pos_site_id
 _symmetry_equiv_pos_as_xyz
 1  'x, y, z'
loop_
 _atom_site_type_symbol
 _atom_site_label
 _atom_site_symmetry_multiplicity
 _atom_site_fract_x
 _atom_site_fract_y
 _atom_site_fract_z
 _atom_site_fract_occupancy
 Fe  Fe1  1  0.00056  0.89411  0.68535  1
 Fe  Fe2  1  0.50000  -0.00000  0.00000  1
 Fe  Fe3  1  0.99302  0.31269  0.89281  1
 Fe  Fe4  1  0.00698  0.68731  0.10719  1
 Fe  Fe5  1  -0.00056  0.10589  0.31465  1
 Li  Li1  1  0.50381  0.75901  0.42784  1
 Li  Li2  1  0.49619  0.24099  0.57216  1
 O  O1  1  0.21215  0.95789  0.86091  1
 O  O2  1  0.23254  0.10642  0.46882  1
 O  O3  1  0.78212  0.66157  0.93676  1
 O  O4  1  0.76746  0.89358  0.53118  1
 O  O5  1  0.76169  0.21370  0.76440  1
 O  O6  1  0.79295  0.45354  0.32473  1
 O  O7  1  0.23831  0.78630  0.23560  1
 O  O8  1  0.21788  0.33843  0.06324  1
 O  O9  1  0.20705  0.54646  0.67527  1
 O  O10  1  0.78785  0.04211  0.13909  1
