CIF file written using JARVIS-Tools package.
data_Li2CrCo2O6
_symmetry_space_group_name_H-M  'Cmce'
_cell_length_a       4.92542
_cell_length_b       4.93819
_cell_length_c       9.78113
_cell_angle_alpha    90
_cell_angle_beta     90
_cell_angle_gamma    59.9143

_symmetry_Int_Tables_number  64
_chemical_formula_structural  Li2CrCo2O6
_chemical_formula_sum  Li4Cr2Co4O2
_cell_volume  205.8515455041677
_cell_formula_units_Z  2
loop_
  _symmetry_equiv_pos_site_id
 _symmetry_equiv_pos_as_xyz
 1  'x, y, z'
loop_
 _atom_site_type_symbol
 _atom_site_label
 _atom_site_symmetry_multiplicity
 _atom_site_fract_x
 _atom_site_fract_y
 _atom_site_fract_z
 _atom_site_fract_occupancy
 Co  Co1  1  0.32925  0.33537  0.00000  1
 Co  Co2  1  0.32925  0.83537  0.50000  1
 Co  Co3  1  0.67075  0.16463  0.50000  1
 Co  Co4  1  0.67075  0.66463  0.00000  1
 Cr  Cr1  1  0.00000  0.00000  0.00000  1
 Cr  Cr2  1  0.00000  0.50000  0.50000  1
 Li  Li1  1  0.50000  0.16158  0.75000  1
 Li  Li2  1  0.50000  0.33842  0.25000  1
 Li  Li3  1  0.50000  0.66158  0.75000  1
 Li  Li4  1  0.50000  0.83842  0.25000  1
 O  O1  1  0.65799  0.50307  0.39485  1
 O  O2  1  0.00000  0.33524  0.10008  1
 O  O3  1  -0.00000  0.66476  0.89992  1
 O  O4  1  0.34201  0.99693  0.89485  1
 O  O5  1  -0.00000  0.16476  0.60008  1
 O  O6  1  0.65799  0.33894  0.89485  1
 O  O7  1  0.34201  0.49693  0.60515  1
 O  O8  1  0.34201  0.66106  0.10515  1
 O  O9  1  0.65799  0.00307  0.10515  1
 O  O10  1  0.00000  0.83524  0.39992  1
 O  O11  1  0.34201  0.16106  0.39485  1
 O  O12  1  0.65799  0.83894  0.60515  1
