CIF file written using JARVIS-Tools package.
data_SbS2NCl6
_symmetry_space_group_name_H-M  'Immm'
_cell_length_a       7.028
_cell_length_b       7.00449
_cell_length_c       7.00448
_cell_angle_alpha    68.7989
_cell_angle_beta     59.8889
_cell_angle_gamma    59.889

_symmetry_Int_Tables_number  71
_chemical_formula_structural  SbS2NCl6
_chemical_formula_sum  SbS2NCl6
_cell_volume  255.22949056239466
_cell_formula_units_Z  1
loop_
  _symmetry_equiv_pos_site_id
 _symmetry_equiv_pos_as_xyz
 1  'x, y, z'
loop_
 _atom_site_type_symbol
 _atom_site_label
 _atom_site_symmetry_multiplicity
 _atom_site_fract_x
 _atom_site_fract_y
 _atom_site_fract_z
 _atom_site_fract_occupancy
 Cl  Cl1  1  0.93731  0.81526  0.81526  1
 Cl  Cl2  1  -0.00000  0.69601  0.30399  1
 Cl  Cl3  1  0.56783  0.18474  0.18474  1
 Cl  Cl4  1  0.00000  0.30399  0.69601  1
 Cl  Cl5  1  0.06269  0.18474  0.18474  1
 Cl  Cl6  1  0.43217  0.81526  0.81526  1
 N  N1  1  0.50000  0.50000  0.50000  1
 S  S1  1  0.50000  0.68862  0.31138  1
 S  S2  1  0.50000  0.31138  0.68862  1
 Sb  Sb1  1  0.00000  0.00000  0.00000  1
