CIF file written using JARVIS-Tools package.
data_Hg3AsS4Br
_symmetry_space_group_name_H-M  'P6_3mc'
_cell_length_a       7.57239
_cell_length_b       7.57239
_cell_length_c       9.34032
_cell_angle_alpha    90
_cell_angle_beta     90
_cell_angle_gamma    120

_symmetry_Int_Tables_number  186
_chemical_formula_structural  Hg3AsS4Br
_chemical_formula_sum  Hg6As2S8Br2
_cell_volume  463.82870989990846
_cell_formula_units_Z  2
loop_
  _symmetry_equiv_pos_site_id
 _symmetry_equiv_pos_as_xyz
 1  'x, y, z'
loop_
 _atom_site_type_symbol
 _atom_site_label
 _atom_site_symmetry_multiplicity
 _atom_site_fract_x
 _atom_site_fract_y
 _atom_site_fract_z
 _atom_site_fract_occupancy
 As  As1  1  0.00000  0.00000  0.22836  1
 As  As2  1  0.00000  0.00000  0.72836  1
 Br  Br1  1  0.33333  0.66667  0.52355  1
 Br  Br2  1  0.66667  0.33333  0.02355  1
 Hg  Hg1  1  0.49559  0.50441  0.24525  1
 Hg  Hg2  1  0.49559  0.99117  0.24525  1
 Hg  Hg3  1  0.50441  0.49559  0.74525  1
 Hg  Hg4  1  0.00883  0.50441  0.24525  1
 Hg  Hg5  1  0.99117  0.49559  0.74525  1
 Hg  Hg6  1  0.50441  0.00883  0.74525  1
 S  S1  1  0.14849  0.85151  0.86257  1
 S  S2  1  0.85151  0.70303  0.36257  1
 S  S3  1  0.29697  0.14849  0.36257  1
 S  S4  1  0.70303  0.85151  0.86257  1
 S  S5  1  0.85151  0.14849  0.36257  1
 S  S6  1  0.66667  0.33333  0.60465  1
 S  S7  1  0.14849  0.29697  0.86257  1
 S  S8  1  0.33333  0.66667  0.10465  1
