CIF file written using JARVIS-Tools package.
data_FeHO2
_symmetry_space_group_name_H-M  'Cmcm'
_cell_length_a       2.45531
_cell_length_b       3.84765
_cell_length_c       7.56751
_cell_angle_alpha    90
_cell_angle_beta     99.3362
_cell_angle_gamma    90

_symmetry_Int_Tables_number  63
_chemical_formula_structural  FeHO2
_chemical_formula_sum  Fe2H2O4
_cell_volume  70.54456101591589
_cell_formula_units_Z  2
loop_
  _symmetry_equiv_pos_site_id
 _symmetry_equiv_pos_as_xyz
 1  'x, y, z'
loop_
 _atom_site_type_symbol
 _atom_site_label
 _atom_site_symmetry_multiplicity
 _atom_site_fract_x
 _atom_site_fract_y
 _atom_site_fract_z
 _atom_site_fract_occupancy
 Fe  Fe1  1  0.68966  0.81344  0.37931  1
 Fe  Fe2  1  0.31034  0.31344  0.62069  1
 H  H1  1  0.55781  0.81358  0.11562  1
 H  H2  1  0.44219  0.31358  0.88438  1
 O  O1  1  0.71545  0.31343  0.43089  1
 O  O2  1  0.28456  0.81344  0.56911  1
 O  O3  1  0.08340  0.81355  0.16680  1
 O  O4  1  0.91660  0.31355  0.83320  1
