CIF file written using JARVIS-Tools package.
data_Re2NiO8
_symmetry_space_group_name_H-M  'P-3'
_cell_length_a       5.69932
_cell_length_b       5.69931
_cell_length_c       6.06129
_cell_angle_alpha    90
_cell_angle_beta     90
_cell_angle_gamma    120

_symmetry_Int_Tables_number  147
_chemical_formula_structural  Re2NiO8
_chemical_formula_sum  Re2NiO8
_cell_volume  170.5062196722933
_cell_formula_units_Z  1
loop_
  _symmetry_equiv_pos_site_id
 _symmetry_equiv_pos_as_xyz
 1  'x, y, z'
loop_
 _atom_site_type_symbol
 _atom_site_label
 _atom_site_symmetry_multiplicity
 _atom_site_fract_x
 _atom_site_fract_y
 _atom_site_fract_z
 _atom_site_fract_occupancy
 Ni  Ni1  1  0.00000  0.00000  0.00000  1
 O  O1  1  0.33333  0.66667  0.42808  1
 O  O2  1  0.66667  0.33333  0.57192  1
 O  O3  1  0.67029  0.83300  0.80988  1
 O  O4  1  0.83300  0.16271  0.19012  1
 O  O5  1  0.83729  0.67029  0.19012  1
 O  O6  1  0.32971  0.16700  0.19012  1
 O  O7  1  0.16700  0.83729  0.80988  1
 O  O8  1  0.16271  0.32971  0.80988  1
 Re  Re1  1  0.66667  0.33333  0.28450  1
 Re  Re2  1  0.33333  0.66667  0.71550  1
