CIF file written using JARVIS-Tools package.
data_BaErCuS3
_symmetry_space_group_name_H-M  'Cmcm'
_cell_length_a       3.99937
_cell_length_b       7.04361
_cell_length_c       10.1323
_cell_angle_alpha    90
_cell_angle_beta     90
_cell_angle_gamma    106.493

_symmetry_Int_Tables_number  63
_chemical_formula_structural  BaErCuS3
_chemical_formula_sum  Ba2Er2Cu2S6
_cell_volume  273.68213983002516
_cell_formula_units_Z  2
loop_
  _symmetry_equiv_pos_site_id
 _symmetry_equiv_pos_as_xyz
 1  'x, y, z'
loop_
 _atom_site_type_symbol
 _atom_site_label
 _atom_site_symmetry_multiplicity
 _atom_site_fract_x
 _atom_site_fract_y
 _atom_site_fract_z
 _atom_site_fract_occupancy
 Ba  Ba1  1  0.74419  0.48839  0.25000  1
 Ba  Ba2  1  0.25581  0.51161  0.75000  1
 Cu  Cu1  1  0.53297  0.06594  0.75000  1
 Cu  Cu2  1  0.46703  0.93406  0.25000  1
 Er  Er1  1  0.00000  0.00000  0.50000  1
 Er  Er2  1  0.00000  0.00000  0.00000  1
 S  S1  1  0.93433  0.86866  0.75000  1
 S  S2  1  0.06567  0.13134  0.25000  1
 S  S3  1  0.63173  0.26346  0.55949  1
 S  S4  1  0.63173  0.26346  0.94051  1
 S  S5  1  0.36827  0.73654  0.05949  1
 S  S6  1  0.36827  0.73654  0.44051  1
