CIF file written using JARVIS-Tools package.
data_NiO2
_symmetry_space_group_name_H-M  'R-3m'
_cell_length_a       2.82266
_cell_length_b       4.88895
_cell_length_c       5.01808
_cell_angle_alpha    99.3178
_cell_angle_beta     73.6652
_cell_angle_gamma    89.9999

_symmetry_Int_Tables_number  166
_chemical_formula_structural  NiO2
_chemical_formula_sum  Ni2O4
_cell_volume  65.50079558182462
_cell_formula_units_Z  2
loop_
  _symmetry_equiv_pos_site_id
 _symmetry_equiv_pos_as_xyz
 1  'x, y, z'
loop_
 _atom_site_type_symbol
 _atom_site_label
 _atom_site_symmetry_multiplicity
 _atom_site_fract_x
 _atom_site_fract_y
 _atom_site_fract_z
 _atom_site_fract_occupancy
 Ni  Ni1  1  0.00000  0.00000  0.00000  1
 Ni  Ni2  1  0.50000  0.50000  -0.00000  1
 O  O1  1  0.09941  0.30029  0.80119  1
 O  O2  1  0.59941  0.80029  0.80118  1
 O  O3  1  0.90059  0.69971  0.19881  1
 O  O4  1  0.40059  0.19971  0.19882  1
