CIF file written using JARVIS-Tools package.
data_CuH4O2F2
_symmetry_space_group_name_H-M  'C2/m'
_cell_length_a       3.3318
_cell_length_b       5.3381
_cell_length_c       5.3381
_cell_angle_alpha    87.1753
_cell_angle_beta     115.19
_cell_angle_gamma    115.19

_symmetry_Int_Tables_number  12
_chemical_formula_structural  CuH4O2F2
_chemical_formula_sum  CuH4O2F2
_cell_volume  76.72738590815268
_cell_formula_units_Z  1
loop_
  _symmetry_equiv_pos_site_id
 _symmetry_equiv_pos_as_xyz
 1  'x, y, z'
loop_
 _atom_site_type_symbol
 _atom_site_label
 _atom_site_symmetry_multiplicity
 _atom_site_fract_x
 _atom_site_fract_y
 _atom_site_fract_z
 _atom_site_fract_occupancy
 Cu  Cu1  1  0.00000  0.00000  0.00000  1
 F  F1  1  0.05224  0.76267  0.76267  1
 F  F2  1  0.94776  0.23733  0.23733  1
 H  H1  1  0.99229  0.22980  0.55428  1
 H  H2  1  0.99229  0.55428  0.22980  1
 H  H3  1  0.00771  0.77020  0.44572  1
 H  H4  1  0.00771  0.44572  0.77020  1
 O  O1  1  0.00000  0.73942  0.26058  1
 O  O2  1  -0.00000  0.26058  0.73942  1
