CIF file written using JARVIS-Tools package.
data_CaFeWO6
_symmetry_space_group_name_H-M  'F-43m'
_cell_length_a       5.31905
_cell_length_b       5.31906
_cell_length_c       5.31906
_cell_angle_alpha    59.9985
_cell_angle_beta     59.9985
_cell_angle_gamma    59.9985

_symmetry_Int_Tables_number  216
_chemical_formula_structural  CaFeWO6
_chemical_formula_sum  CaFeWO6
_cell_volume  106.40815759574211
_cell_formula_units_Z  1
loop_
  _symmetry_equiv_pos_site_id
 _symmetry_equiv_pos_as_xyz
 1  'x, y, z'
loop_
 _atom_site_type_symbol
 _atom_site_label
 _atom_site_symmetry_multiplicity
 _atom_site_fract_x
 _atom_site_fract_y
 _atom_site_fract_z
 _atom_site_fract_occupancy
 Ca  Ca1  1  0.75000  0.75000  0.75000  1
 Fe  Fe1  1  0.50000  0.50000  0.50000  1
 O  O1  1  0.25463  0.74537  0.74537  1
 O  O2  1  0.25463  0.74537  0.25463  1
 O  O3  1  0.74537  0.25463  0.74537  1
 O  O4  1  0.25463  0.25463  0.74537  1
 O  O5  1  0.74537  0.25463  0.25463  1
 O  O6  1  0.74537  0.74537  0.25463  1
 W  W1  1  1.00000  -0.00000  1.00000  1
