CIF file written using JARVIS-Tools package.
data_FePO4
_symmetry_space_group_name_H-M  'I-4'
_cell_length_a       5.03318
_cell_length_b       5.24898
_cell_length_c       5.03318
_cell_angle_alpha    61.351
_cell_angle_beta     90
_cell_angle_gamma    61.3509

_symmetry_Int_Tables_number  82
_chemical_formula_structural  FePO4
_chemical_formula_sum  FePO4
_cell_volume  97.73810650266591
_cell_formula_units_Z  1
loop_
  _symmetry_equiv_pos_site_id
 _symmetry_equiv_pos_as_xyz
 1  'x, y, z'
loop_
 _atom_site_type_symbol
 _atom_site_label
 _atom_site_symmetry_multiplicity
 _atom_site_fract_x
 _atom_site_fract_y
 _atom_site_fract_z
 _atom_site_fract_occupancy
 Fe  Fe1  1  0.00000  0.00000  0.00000  1
 O  O1  1  0.14475  0.27253  0.98999  1
 O  O2  1  0.58272  0.27253  0.73748  1
 O  O3  1  0.26252  0.72747  0.85525  1
 O  O4  1  0.01001  0.72747  0.41728  1
 P  P1  1  0.25000  0.50000  0.75000  1
