CIF file written using JARVIS-Tools package.
data_Rb2CdCl4
_symmetry_space_group_name_H-M  'I4/mmm'
_cell_length_a       5.21264
_cell_length_b       5.21264
_cell_length_c       8.89866
_cell_angle_alpha    107.031
_cell_angle_beta     107.031
_cell_angle_gamma    90

_symmetry_Int_Tables_number  139
_chemical_formula_structural  Rb2CdCl4
_chemical_formula_sum  Rb2CdCl4
_cell_volume  220.0735474243619
_cell_formula_units_Z  1
loop_
  _symmetry_equiv_pos_site_id
 _symmetry_equiv_pos_as_xyz
 1  'x, y, z'
loop_
 _atom_site_type_symbol
 _atom_site_label
 _atom_site_symmetry_multiplicity
 _atom_site_fract_x
 _atom_site_fract_y
 _atom_site_fract_z
 _atom_site_fract_occupancy
 Cd  Cd1  1  0.00000  0.00000  0.00000  1
 Cl  Cl1  1  0.50000  -0.00000  0.00000  1
 Cl  Cl2  1  -0.00000  0.50000  -0.00000  1
 Cl  Cl3  1  0.16202  0.16202  0.32403  1
 Cl  Cl4  1  0.83798  0.83798  0.67597  1
 Rb  Rb1  1  0.36065  0.36065  0.72131  1
 Rb  Rb2  1  0.63935  0.63935  0.27869  1
