CIF file written using JARVIS-Tools package.
data_SiO2
_symmetry_space_group_name_H-M  'Ibam'
_cell_length_a       5.63934
_cell_length_b       4.76504
_cell_length_c       4.65576
_cell_angle_alpha    120.779
_cell_angle_beta     127.274
_cell_angle_gamma    90

_symmetry_Int_Tables_number  72
_chemical_formula_structural  SiO2
_chemical_formula_sum  Si2O4
_cell_volume  76.2379063671398
_cell_formula_units_Z  2
loop_
  _symmetry_equiv_pos_site_id
 _symmetry_equiv_pos_as_xyz
 1  'x, y, z'
loop_
 _atom_site_type_symbol
 _atom_site_label
 _atom_site_symmetry_multiplicity
 _atom_site_fract_x
 _atom_site_fract_y
 _atom_site_fract_z
 _atom_site_fract_occupancy
 O  O1  1  -0.00134  0.64679  0.29358  1
 O  O2  1  0.70507  0.85321  0.70642  1
 O  O3  1  0.29493  0.14679  0.29358  1
 O  O4  1  0.00134  0.35321  0.70642  1
 Si  Si1  1  0.00000  0.75000  0.00000  1
 Si  Si2  1  0.00000  0.25000  0.00000  1
