CIF file written using JARVIS-Tools package.
data_CaBiF6
_symmetry_space_group_name_H-M  'R-3'
_cell_length_a       6.19449
_cell_length_b       6.19449
_cell_length_c       6.19449
_cell_angle_alpha    51.5743
_cell_angle_beta     51.5743
_cell_angle_gamma    51.5743

_symmetry_Int_Tables_number  148
_chemical_formula_structural  CaBiF6
_chemical_formula_sum  CaBiF6
_cell_volume  134.7404129588072
_cell_formula_units_Z  1
loop_
  _symmetry_equiv_pos_site_id
 _symmetry_equiv_pos_as_xyz
 1  'x, y, z'
loop_
 _atom_site_type_symbol
 _atom_site_label
 _atom_site_symmetry_multiplicity
 _atom_site_fract_x
 _atom_site_fract_y
 _atom_site_fract_z
 _atom_site_fract_occupancy
 Bi  Bi1  1  0.00000  0.00000  0.00000  1
 Ca  Ca1  1  0.50000  0.50000  0.50000  1
 F  F1  1  0.40180  0.08568  0.75458  1
 F  F2  1  0.08568  0.75458  0.40180  1
 F  F3  1  0.24542  0.59820  0.91432  1
 F  F4  1  0.91432  0.24542  0.59820  1
 F  F5  1  0.59820  0.91432  0.24542  1
 F  F6  1  0.75458  0.40180  0.08568  1
