CIF file written using JARVIS-Tools package.
data_SiCu2Se3
_symmetry_space_group_name_H-M  'Cc'
_cell_length_a       6.75938
_cell_length_b       6.74114
_cell_length_c       6.81644
_cell_angle_alpha    60.3647
_cell_angle_beta     80.9883
_cell_angle_gamma    71.5322

_symmetry_Int_Tables_number  9
_chemical_formula_structural  SiCu2Se3
_chemical_formula_sum  Si2Cu4Se6
_cell_volume  256.0658434303502
_cell_formula_units_Z  2
loop_
  _symmetry_equiv_pos_site_id
 _symmetry_equiv_pos_as_xyz
 1  'x, y, z'
loop_
 _atom_site_type_symbol
 _atom_site_label
 _atom_site_symmetry_multiplicity
 _atom_site_fract_x
 _atom_site_fract_y
 _atom_site_fract_z
 _atom_site_fract_occupancy
 Cu  Cu1  1  0.50245  0.23262  0.51001  1
 Cu  Cu2  1  0.00245  0.74263  0.48999  1
 Cu  Cu3  1  0.50039  0.58493  0.82670  1
 Cu  Cu4  1  0.00039  0.41163  0.17330  1
 Se  Se1  1  0.12292  0.69810  0.83000  1
 Se  Se2  1  0.62292  0.52810  0.17000  1
 Se  Se3  1  0.62701  0.86689  0.48404  1
 Se  Se4  1  0.12701  0.35092  0.51596  1
 Se  Se5  1  0.14462  0.03100  0.15721  1
 Se  Se6  1  0.64462  0.18822  0.84279  1
 Si  Si1  1  0.52410  0.88542  0.16992  1
 Si  Si2  1  0.02410  0.05533  0.83008  1
