CIF file written using JARVIS-Tools package.
data_MgCl2
_symmetry_space_group_name_H-M  'Cmcm'
_cell_length_a       4.32671
_cell_length_b       4.32671
_cell_length_c       9.57144
_cell_angle_alpha    90
_cell_angle_beta     90
_cell_angle_gamma    59.592

_symmetry_Int_Tables_number  63
_chemical_formula_structural  MgCl2
_chemical_formula_sum  Mg2Cl4
_cell_volume  154.53381866961433
_cell_formula_units_Z  2
loop_
  _symmetry_equiv_pos_site_id
 _symmetry_equiv_pos_as_xyz
 1  'x, y, z'
loop_
 _atom_site_type_symbol
 _atom_site_label
 _atom_site_symmetry_multiplicity
 _atom_site_fract_x
 _atom_site_fract_y
 _atom_site_fract_z
 _atom_site_fract_occupancy
 Cl  Cl1  1  0.38173  0.28029  0.25000  1
 Cl  Cl2  1  0.05051  0.94949  0.50000  1
 Cl  Cl3  1  0.05051  0.94949  0.00000  1
 Cl  Cl4  1  0.71971  0.61827  0.75000  1
 Mg  Mg1  1  0.04929  0.94776  0.25000  1
 Mg  Mg2  1  0.05224  0.95071  0.75000  1
