CIF file written using JARVIS-Tools package.
data_Na2Be2O3
_symmetry_space_group_name_H-M  'P2_1/c'
_cell_length_a       4.97426
_cell_length_b       6.84344
_cell_length_c       5.79397
_cell_angle_alpha    90
_cell_angle_beta     108.875
_cell_angle_gamma    90

_symmetry_Int_Tables_number  14
_chemical_formula_structural  Na2Be2O3
_chemical_formula_sum  Na4Be4O6
_cell_volume  186.62726141984513
_cell_formula_units_Z  2
loop_
  _symmetry_equiv_pos_site_id
 _symmetry_equiv_pos_as_xyz
 1  'x, y, z'
loop_
 _atom_site_type_symbol
 _atom_site_label
 _atom_site_symmetry_multiplicity
 _atom_site_fract_x
 _atom_site_fract_y
 _atom_site_fract_z
 _atom_site_fract_occupancy
 Be  Be1  1  0.29867  0.52158  0.49099  1
 Be  Be2  1  0.29867  0.97842  0.99099  1
 Be  Be3  1  0.70133  0.02158  0.00901  1
 Be  Be4  1  0.70133  0.47842  0.50901  1
 Na  Na1  1  0.25142  0.36718  0.88876  1
 Na  Na2  1  0.74858  0.86718  0.61124  1
 Na  Na3  1  0.25142  0.13282  0.38876  1
 Na  Na4  1  0.74858  0.63282  0.11124  1
 O  O1  1  0.00000  0.50000  0.50000  1
 O  O2  1  0.00000  0.00000  0.00000  1
 O  O3  1  0.41940  0.05486  0.78741  1
 O  O4  1  0.58060  0.55486  0.71259  1
 O  O5  1  0.41940  0.44514  0.28741  1
 O  O6  1  0.58060  0.94514  0.21259  1
