CIF file written using JARVIS-Tools package.
data_Pb3SO6
_symmetry_space_group_name_H-M  'P-1'
_cell_length_a       5.84982
_cell_length_b       7.24478
_cell_length_c       8.13533
_cell_angle_alpha    102.92
_cell_angle_beta     91.1194
_cell_angle_gamma    92.2275

_symmetry_Int_Tables_number  2
_chemical_formula_structural  Pb3SO6
_chemical_formula_sum  Pb6S2O2
_cell_volume  335.6566864712201
_cell_formula_units_Z  2
loop_
  _symmetry_equiv_pos_site_id
 _symmetry_equiv_pos_as_xyz
 1  'x, y, z'
loop_
 _atom_site_type_symbol
 _atom_site_label
 _atom_site_symmetry_multiplicity
 _atom_site_fract_x
 _atom_site_fract_y
 _atom_site_fract_z
 _atom_site_fract_occupancy
 O  O1  1  0.00729  0.17342  0.62371  1
 O  O2  1  0.09278  0.43817  0.16847  1
 O  O3  1  0.74412  0.81672  0.72292  1
 O  O4  1  0.99271  0.82658  0.37629  1
 O  O5  1  0.90722  0.56183  0.83153  1
 O  O6  1  0.49936  0.60843  0.85015  1
 O  O7  1  0.50064  0.39157  0.14985  1
 O  O8  1  0.49217  0.81653  0.37728  1
 O  O9  1  0.23385  0.15952  0.97464  1
 O  O10  1  0.50783  0.18347  0.62272  1
 O  O11  1  0.76615  0.84048  0.02536  1
 O  O12  1  0.25588  0.18328  0.27708  1
 Pb  Pb1  1  0.74821  0.08141  0.37589  1
 Pb  Pb2  1  0.25832  0.39684  0.58833  1
 Pb  Pb3  1  0.76903  0.22187  0.84957  1
 Pb  Pb4  1  0.23097  0.77813  0.15043  1
 Pb  Pb5  1  0.25179  0.91859  0.62411  1
 Pb  Pb6  1  0.74168  0.60316  0.41167  1
 S  S1  1  0.72820  0.70738  0.86043  1
 S  S2  1  0.27180  0.29262  0.13957  1
