CIF file written using JARVIS-Tools package.
data_K2CuSb
_symmetry_space_group_name_H-M  'Cmcm'
_cell_length_a       6.23623
_cell_length_b       6.54978
_cell_length_c       6.54977
_cell_angle_alpha    105.975
_cell_angle_beta     90
_cell_angle_gamma    90

_symmetry_Int_Tables_number  63
_chemical_formula_structural  K2CuSb
_chemical_formula_sum  K4Cu2Sb2
_cell_volume  257.2000807379994
_cell_formula_units_Z  2
loop_
  _symmetry_equiv_pos_site_id
 _symmetry_equiv_pos_as_xyz
 1  'x, y, z'
loop_
 _atom_site_type_symbol
 _atom_site_label
 _atom_site_symmetry_multiplicity
 _atom_site_fract_x
 _atom_site_fract_y
 _atom_site_fract_z
 _atom_site_fract_occupancy
 Cu  Cu1  1  0.50000  0.50000  0.50000  1
 Cu  Cu2  1  0.00000  0.50000  0.50000  1
 K  K1  1  0.25000  0.01292  0.67454  1
 K  K2  1  0.75000  0.98708  0.32546  1
 K  K3  1  0.75000  0.32546  0.98708  1
 K  K4  1  0.25000  0.67454  0.01292  1
 Sb  Sb1  1  0.25000  0.24671  0.24671  1
 Sb  Sb2  1  0.75000  0.75329  0.75329  1
