CIF file written using JARVIS-Tools package.
data_LiBiP2O7
_symmetry_space_group_name_H-M  'P-1'
_cell_length_a       6.32249
_cell_length_b       6.82184
_cell_length_c       6.82912
_cell_angle_alpha    94.3646
_cell_angle_beta     114.651
_cell_angle_gamma    91.4041

_symmetry_Int_Tables_number  2
_chemical_formula_structural  LiBiP2O7
_chemical_formula_sum  Li2Bi2P4O4
_cell_volume  266.41275193273304
_cell_formula_units_Z  2
loop_
  _symmetry_equiv_pos_site_id
 _symmetry_equiv_pos_as_xyz
 1  'x, y, z'
loop_
 _atom_site_type_symbol
 _atom_site_label
 _atom_site_symmetry_multiplicity
 _atom_site_fract_x
 _atom_site_fract_y
 _atom_site_fract_z
 _atom_site_fract_occupancy
 Bi  Bi1  1  0.79664  0.13757  0.25386  1
 Bi  Bi2  1  0.20336  0.86243  0.74614  1
 Li  Li1  1  0.74479  0.69673  0.91084  1
 Li  Li2  1  0.25521  0.30327  0.08916  1
 O  O1  1  0.62184  0.96538  0.82247  1
 O  O2  1  0.15444  0.93412  0.39429  1
 O  O3  1  0.84556  0.06588  0.60571  1
 O  O4  1  0.71596  0.75648  0.18544  1
 O  O5  1  0.40702  0.58183  0.74994  1
 O  O6  1  0.90944  0.25300  0.97091  1
 O  O7  1  0.09056  0.74700  0.02909  1
 O  O8  1  0.59298  0.41817  0.25006  1
 O  O9  1  0.28404  0.24352  0.81456  1
 O  O10  1  0.45527  0.72040  0.37763  1
 O  O11  1  0.87409  0.64636  0.57264  1
 O  O12  1  0.54473  0.27960  0.62237  1
 O  O13  1  0.37816  0.03462  0.17753  1
 O  O14  1  0.12591  0.35364  0.42736  1
 P  P1  1  0.32182  0.36768  0.65554  1
 P  P2  1  0.67818  0.63232  0.34446  1
 P  P3  1  0.73618  0.13707  0.76045  1
 P  P4  1  0.26382  0.86293  0.23955  1
