CIF file written using JARVIS-Tools package.
data_Li2Mn2F7
_symmetry_space_group_name_H-M  'C2/c'
_cell_length_a       5.3594
_cell_length_b       5.3594
_cell_length_c       9.55399
_cell_angle_alpha    83.9928
_cell_angle_beta     96.0072
_cell_angle_gamma    71.7109

_symmetry_Int_Tables_number  15
_chemical_formula_structural  Li2Mn2F7
_chemical_formula_sum  Li4Mn4F4
_cell_volume  256.366029240365
_cell_formula_units_Z  2
loop_
  _symmetry_equiv_pos_site_id
 _symmetry_equiv_pos_as_xyz
 1  'x, y, z'
loop_
 _atom_site_type_symbol
 _atom_site_label
 _atom_site_symmetry_multiplicity
 _atom_site_fract_x
 _atom_site_fract_y
 _atom_site_fract_z
 _atom_site_fract_occupancy
 F  F1  1  0.16299  0.16299  0.25000  1
 F  F2  1  0.32855  0.95370  0.57011  1
 F  F3  1  0.11994  0.49052  0.61593  1
 F  F4  1  0.88006  0.50948  0.38407  1
 F  F5  1  0.04630  0.67145  0.07011  1
 F  F6  1  0.83701  0.83701  0.75000  1
 F  F7  1  0.40172  0.63668  0.87178  1
 F  F8  1  0.36332  0.59828  0.37178  1
 F  F9  1  0.63668  0.40172  0.62822  1
 F  F10  1  0.49052  0.11994  0.88407  1
 F  F11  1  0.67145  0.04630  0.42989  1
 F  F12  1  0.95370  0.32855  0.92989  1
 F  F13  1  0.59828  0.36332  0.12822  1
 F  F14  1  0.50948  0.88006  0.11593  1
 Li  Li1  1  0.81149  0.24733  0.29565  1
 Li  Li2  1  0.75267  0.18851  0.79565  1
 Li  Li3  1  0.24733  0.81149  0.20435  1
 Li  Li4  1  0.18851  0.75267  0.70435  1
 Mn  Mn1  1  0.69828  0.70795  0.96149  1
 Mn  Mn2  1  0.70795  0.69828  0.53851  1
 Mn  Mn3  1  0.29205  0.30172  0.46149  1
 Mn  Mn4  1  0.30172  0.29205  0.03851  1
