CIF file written using JARVIS-Tools package.
data_MgSeO4
_symmetry_space_group_name_H-M  'Cmcm'
_cell_length_a       4.94781
_cell_length_b       4.94782
_cell_length_c       6.51899
_cell_angle_alpha    90
_cell_angle_beta     90
_cell_angle_gamma    112.558

_symmetry_Int_Tables_number  63
_chemical_formula_structural  MgSeO4
_chemical_formula_sum  Mg2Se2O8
_cell_volume  147.38115774780655
_cell_formula_units_Z  2
loop_
  _symmetry_equiv_pos_site_id
 _symmetry_equiv_pos_as_xyz
 1  'x, y, z'
loop_
 _atom_site_type_symbol
 _atom_site_label
 _atom_site_symmetry_multiplicity
 _atom_site_fract_x
 _atom_site_fract_y
 _atom_site_fract_z
 _atom_site_fract_occupancy
 Mg  Mg1  1  0.00000  0.00000  0.00000  1
 Mg  Mg2  1  0.00000  0.00000  0.50000  1
 O  O1  1  0.22595  0.27634  0.75000  1
 O  O2  1  0.77405  0.72366  0.25000  1
 O  O3  1  0.27634  0.22595  0.25000  1
 O  O4  1  0.72366  0.77405  0.75000  1
 O  O5  1  0.24588  0.75412  0.96303  1
 O  O6  1  0.75412  0.24588  0.46303  1
 O  O7  1  0.75412  0.24588  0.03697  1
 O  O8  1  0.24588  0.75412  0.53697  1
 Se  Se1  1  0.35327  0.64673  0.75000  1
 Se  Se2  1  0.64673  0.35327  0.25000  1
