CIF file written using JARVIS-Tools package.
data_LuGaO3
_symmetry_space_group_name_H-M  'Pnma'
_cell_length_a       5.18664
_cell_length_b       5.53228
_cell_length_c       7.53038
_cell_angle_alpha    90
_cell_angle_beta     90
_cell_angle_gamma    90

_symmetry_Int_Tables_number  62
_chemical_formula_structural  LuGaO3
_chemical_formula_sum  Lu4Ga4O2
_cell_volume  216.07657526084895
_cell_formula_units_Z  4
loop_
  _symmetry_equiv_pos_site_id
 _symmetry_equiv_pos_as_xyz
 1  'x, y, z'
loop_
 _atom_site_type_symbol
 _atom_site_label
 _atom_site_symmetry_multiplicity
 _atom_site_fract_x
 _atom_site_fract_y
 _atom_site_fract_z
 _atom_site_fract_occupancy
 Ga  Ga1  1  0.00000  0.49999  0.24093  1
 Ga  Ga2  1  0.50000  0.99999  0.24093  1
 Ga  Ga3  1  0.50000  0.00001  0.74093  1
 Ga  Ga4  1  -0.00000  0.50001  0.74093  1
 Lu  Lu1  1  0.02216  0.07364  0.99094  1
 Lu  Lu2  1  0.47784  0.57364  0.99094  1
 Lu  Lu3  1  0.52216  0.42636  0.49094  1
 Lu  Lu4  1  0.97784  0.92636  0.49094  1
 O  O1  1  0.12401  0.54662  0.49093  1
 O  O2  1  0.81140  0.19196  0.67855  1
 O  O3  1  0.18857  0.80810  0.80328  1
 O  O4  1  0.31143  0.30810  0.80328  1
 O  O5  1  0.18860  0.80804  0.17855  1
 O  O6  1  0.68857  0.69190  0.30328  1
 O  O7  1  0.62401  0.95338  0.99093  1
 O  O8  1  0.68860  0.69196  0.67855  1
 O  O9  1  0.31140  0.30804  0.17855  1
 O  O10  1  0.81143  0.19190  0.30328  1
 O  O11  1  0.37599  0.04662  0.49093  1
 O  O12  1  0.87599  0.45338  0.99093  1
