CIF file written using JARVIS-Tools package.
data_TiFe4O8
_symmetry_space_group_name_H-M  'C2/m'
_cell_length_a       5.83274
_cell_length_b       5.87521
_cell_length_c       5.87848
_cell_angle_alpha    60.0185
_cell_angle_beta     60.0423
_cell_angle_gamma    59.7589

_symmetry_Int_Tables_number  12
_chemical_formula_structural  TiFe4O8
_chemical_formula_sum  TiFe4O8
_cell_volume  142.2481716907865
_cell_formula_units_Z  1
loop_
  _symmetry_equiv_pos_site_id
 _symmetry_equiv_pos_as_xyz
 1  'x, y, z'
loop_
 _atom_site_type_symbol
 _atom_site_label
 _atom_site_symmetry_multiplicity
 _atom_site_fract_x
 _atom_site_fract_y
 _atom_site_fract_z
 _atom_site_fract_occupancy
 Fe  Fe1  1  0.14343  0.12218  0.11221  1
 Fe  Fe2  1  0.50000  -0.00000  0.50000  1
 Fe  Fe3  1  0.50000  0.50000  0.50000  1
 Fe  Fe4  1  0.85657  0.87782  0.88779  1
 O  O1  1  0.28055  0.24548  0.24454  1
 O  O2  1  0.28055  0.72943  0.24454  1
 O  O3  1  0.28291  0.24137  0.73436  1
 O  O4  1  0.74306  0.25653  0.24388  1
 O  O5  1  0.25694  0.74347  0.75612  1
 O  O6  1  0.71709  0.75863  0.26564  1
 O  O7  1  0.71945  0.27057  0.75546  1
 O  O8  1  0.71945  0.75452  0.75546  1
 Ti  Ti1  1  0.50000  0.50000  -0.00000  1
