CIF file written using JARVIS-Tools package.
data_Ca2CuBr2O2
_symmetry_space_group_name_H-M  'I4/mmm'
_cell_length_a       3.87357
_cell_length_b       3.87358
_cell_length_c       9.05883
_cell_angle_alpha    102.345
_cell_angle_beta     102.345
_cell_angle_gamma    90

_symmetry_Int_Tables_number  139
_chemical_formula_structural  Ca2CuBr2O2
_chemical_formula_sum  Ca2CuBr2O2
_cell_volume  129.56186865986024
_cell_formula_units_Z  1
loop_
  _symmetry_equiv_pos_site_id
 _symmetry_equiv_pos_as_xyz
 1  'x, y, z'
loop_
 _atom_site_type_symbol
 _atom_site_label
 _atom_site_symmetry_multiplicity
 _atom_site_fract_x
 _atom_site_fract_y
 _atom_site_fract_z
 _atom_site_fract_occupancy
 Br  Br1  1  0.82771  0.82771  0.65541  1
 Br  Br2  1  0.17229  0.17229  0.34459  1
 Ca  Ca1  1  0.40947  0.40947  0.81894  1
 Ca  Ca2  1  0.59053  0.59053  0.18106  1
 Cu  Cu1  1  0.00000  0.00000  0.00000  1
 O  O1  1  0.50000  -0.00000  0.00000  1
 O  O2  1  -0.00000  0.50000  0.00000  1
