CIF file written using JARVIS-Tools package.
data_SmNbO4
_symmetry_space_group_name_H-M  'C2/c'
_cell_length_a       5.18876
_cell_length_b       5.4399
_cell_length_c       6.69136
_cell_angle_alpha    112.17
_cell_angle_beta     110.927
_cell_angle_gamma    94.3087

_symmetry_Int_Tables_number  15
_chemical_formula_structural  SmNbO4
_chemical_formula_sum  Sm2Nb2O8
_cell_volume  158.48708077722608
_cell_formula_units_Z  2
loop_
  _symmetry_equiv_pos_site_id
 _symmetry_equiv_pos_as_xyz
 1  'x, y, z'
loop_
 _atom_site_type_symbol
 _atom_site_label
 _atom_site_symmetry_multiplicity
 _atom_site_fract_x
 _atom_site_fract_y
 _atom_site_fract_z
 _atom_site_fract_occupancy
 Nb  Nb1  1  0.85590  0.10590  0.71180  1
 Nb  Nb2  1  0.14410  0.89410  0.28820  1
 O  O1  1  0.98699  0.78720  0.56393  1
 O  O2  1  0.57695  0.27674  0.56393  1
 O  O3  1  0.01301  0.21280  0.43607  1
 O  O4  1  0.42305  0.72326  0.43607  1
 O  O5  1  0.20575  0.36569  0.91914  1
 O  O6  1  0.71339  0.05345  0.91914  1
 O  O7  1  0.79425  0.63431  0.08086  1
 O  O8  1  0.28661  0.94655  0.08086  1
 Sm  Sm1  1  0.37882  0.62882  0.75764  1
 Sm  Sm2  1  0.62118  0.37118  0.24236  1
