CIF file written using JARVIS-Tools package.
data_KPH2O4
_symmetry_space_group_name_H-M  'I-42d'
_cell_length_a       6.27797
_cell_length_b       6.27797
_cell_length_c       6.27797
_cell_angle_alpha    107.789
_cell_angle_beta     107.789
_cell_angle_gamma    112.891

_symmetry_Int_Tables_number  122
_chemical_formula_structural  KPH2O4
_chemical_formula_sum  K2P2H4O8
_cell_volume  189.96184281970181
_cell_formula_units_Z  2
loop_
  _symmetry_equiv_pos_site_id
 _symmetry_equiv_pos_as_xyz
 1  'x, y, z'
loop_
 _atom_site_type_symbol
 _atom_site_label
 _atom_site_symmetry_multiplicity
 _atom_site_fract_x
 _atom_site_fract_y
 _atom_site_fract_z
 _atom_site_fract_occupancy
 H  H1  1  0.72469  0.12500  0.09969  1
 H  H2  1  0.02531  0.62500  0.90031  1
 H  H3  1  0.37500  0.27531  0.40031  1
 H  H4  1  0.87500  0.97469  0.59969  1
 K  K1  1  0.25000  0.75000  0.50000  1
 K  K2  1  0.50000  0.50000  0.00000  1
 O  O1  1  0.72715  0.29071  0.26366  1
 O  O2  1  0.72295  0.95929  0.93645  1
 O  O3  1  0.02705  0.46350  0.73634  1
 O  O4  1  0.02285  0.78650  0.06355  1
 O  O5  1  0.53650  0.27285  0.56355  1
 O  O6  1  0.04071  0.97715  0.76366  1
 O  O7  1  0.70929  0.97295  0.43645  1
 O  O8  1  0.21350  0.27705  0.23634  1
 P  P1  1  0.75000  0.25000  0.50000  1
 P  P2  1  0.00000  0.00000  0.00000  1
