CIF file written using JARVIS-Tools package.
data_LiErO2
_symmetry_space_group_name_H-M  'I4_1/amd'
_cell_length_a       4.41029
_cell_length_b       4.41028
_cell_length_c       5.97336
_cell_angle_alpha    111.664
_cell_angle_beta     111.664
_cell_angle_gamma    90

_symmetry_Int_Tables_number  141
_chemical_formula_structural  LiErO2
_chemical_formula_sum  Li2Er2O4
_cell_volume  99.09443839423386
_cell_formula_units_Z  2
loop_
  _symmetry_equiv_pos_site_id
 _symmetry_equiv_pos_as_xyz
 1  'x, y, z'
loop_
 _atom_site_type_symbol
 _atom_site_label
 _atom_site_symmetry_multiplicity
 _atom_site_fract_x
 _atom_site_fract_y
 _atom_site_fract_z
 _atom_site_fract_occupancy
 Er  Er1  1  0.37500  0.62500  0.75000  1
 Er  Er2  1  0.62500  0.37500  0.25000  1
 Li  Li1  1  0.87500  0.12500  0.75000  1
 Li  Li2  1  0.12500  0.87500  0.25000  1
 O  O1  1  0.59909  0.84909  0.19818  1
 O  O2  1  0.15091  0.40091  0.30182  1
 O  O3  1  0.84909  0.59909  0.69818  1
 O  O4  1  0.40091  0.15091  0.80182  1
