CIF file written using JARVIS-Tools package.
data_TaS2
_symmetry_space_group_name_H-M  'C2'
_cell_length_a       3.35023
_cell_length_b       3.33798
_cell_length_c       6.45482
_cell_angle_alpha    82.3783
_cell_angle_beta     74.7262
_cell_angle_gamma    59.8784

_symmetry_Int_Tables_number  5
_chemical_formula_structural  TaS2
_chemical_formula_sum  TaS2
_cell_volume  60.23121201419321
_cell_formula_units_Z  1
loop_
  _symmetry_equiv_pos_site_id
 _symmetry_equiv_pos_as_xyz
 1  'x, y, z'
loop_
 _atom_site_type_symbol
 _atom_site_label
 _atom_site_symmetry_multiplicity
 _atom_site_fract_x
 _atom_site_fract_y
 _atom_site_fract_z
 _atom_site_fract_occupancy
 S  S1  1  0.86940  0.51617  0.74855  1
 S  S2  1  0.61471  0.51562  0.25145  1
 Ta  Ta1  1  0.07589  0.84822  -0.00000  1
