CIF file written using JARVIS-Tools package.
data_BaSb2F12
_symmetry_space_group_name_H-M  'P-1'
_cell_length_a       4.99994
_cell_length_b       6.61982
_cell_length_c       9.36839
_cell_angle_alpha    79.8368
_cell_angle_beta     109.449
_cell_angle_gamma    131.551

_symmetry_Int_Tables_number  2
_chemical_formula_structural  BaSb2F12
_chemical_formula_sum  BaSb2F2
_cell_volume  218.38079326242047
_cell_formula_units_Z  1
loop_
  _symmetry_equiv_pos_site_id
 _symmetry_equiv_pos_as_xyz
 1  'x, y, z'
loop_
 _atom_site_type_symbol
 _atom_site_label
 _atom_site_symmetry_multiplicity
 _atom_site_fract_x
 _atom_site_fract_y
 _atom_site_fract_z
 _atom_site_fract_occupancy
 Ba  Ba1  1  0.27662  0.08737  0.86521  1
 F  F1  1  0.36836  0.91694  0.16120  1
 F  F2  1  0.50774  0.62837  0.77269  1
 F  F3  1  0.04545  0.54645  0.95767  1
 F  F4  1  0.11668  0.40027  0.24579  1
 F  F5  1  0.53124  0.46351  0.08144  1
 F  F6  1  0.18469  0.25771  0.56924  1
 F  F7  1  0.89027  0.84751  0.31579  1
 F  F8  1  0.02186  0.71120  0.64894  1
 F  F9  1  0.66265  0.32702  0.41467  1
 F  F10  1  -0.20706  0.21521  0.71717  1
 F  F11  1  0.43619  0.77425  0.48450  1
 F  F12  1  0.76026  0.95952  0.01329  1
 Sb  Sb1  1  0.08827  0.48969  0.58441  1
 Sb  Sb2  1  0.46479  0.68498  0.14600  1
