CIF file written using JARVIS-Tools package.
data_CaC2
_symmetry_space_group_name_H-M  'C2/c'
_cell_length_a       3.88623
_cell_length_b       3.88622
_cell_length_c       7.36015
_cell_angle_alpha    75.9306
_cell_angle_beta     75.9307
_cell_angle_gamma    64.4337

_symmetry_Int_Tables_number  15
_chemical_formula_structural  CaC2
_chemical_formula_sum  Ca2C4
_cell_volume  96.04592501915766
_cell_formula_units_Z  2
loop_
  _symmetry_equiv_pos_site_id
 _symmetry_equiv_pos_as_xyz
 1  'x, y, z'
loop_
 _atom_site_type_symbol
 _atom_site_label
 _atom_site_symmetry_multiplicity
 _atom_site_fract_x
 _atom_site_fract_y
 _atom_site_fract_z
 _atom_site_fract_occupancy
 C  C1  1  0.14189  0.42307  0.43978  1
 C  C2  1  0.57693  0.85811  0.06022  1
 C  C3  1  0.42307  0.14189  0.93978  1
 C  C4  1  0.85811  0.57693  0.56022  1
 Ca  Ca1  1  0.82485  0.17515  0.25000  1
 Ca  Ca2  1  0.17515  0.82485  0.75000  1
