CIF file written using JARVIS-Tools package.
data_H8PdN2Cl6
_symmetry_space_group_name_H-M  'R3m'
_cell_length_a       6.90053
_cell_length_b       6.90053
_cell_length_c       6.90053
_cell_angle_alpha    60
_cell_angle_beta     60
_cell_angle_gamma    60

_symmetry_Int_Tables_number  160
_chemical_formula_structural  H8PdN2Cl6
_chemical_formula_sum  H8PdN2Cl6
_cell_volume  232.34455741784456
_cell_formula_units_Z  1
loop_
  _symmetry_equiv_pos_site_id
 _symmetry_equiv_pos_as_xyz
 1  'x, y, z'
loop_
 _atom_site_type_symbol
 _atom_site_label
 _atom_site_symmetry_multiplicity
 _atom_site_fract_x
 _atom_site_fract_y
 _atom_site_fract_z
 _atom_site_fract_occupancy
 Cl  Cl1  1  0.75934  0.24066  0.75934  1
 Cl  Cl2  1  0.24066  0.75934  0.24066  1
 Cl  Cl3  1  0.24066  0.24066  0.75934  1
 Cl  Cl4  1  0.24066  0.75934  0.75934  1
 Cl  Cl5  1  0.75934  0.75934  0.24066  1
 Cl  Cl6  1  0.75934  0.24066  0.24066  1
 H  H1  1  0.68872  0.68872  0.93384  1
 H  H2  1  0.93384  0.68872  0.68872  1
 H  H3  1  0.68872  0.68872  0.68872  1
 H  H4  1  0.00000  0.00000  0.00000  1
 H  H5  1  0.31128  0.31128  0.06616  1
 H  H6  1  0.31128  0.06616  0.31128  1
 H  H7  1  0.31128  0.31128  0.31128  1
 H  H8  1  0.68872  0.93384  0.68872  1
 N  N1  1  0.75000  0.75000  0.75000  1
 N  N2  1  0.25000  0.25000  0.25000  1
 Pd  Pd1  1  0.06616  0.31128  0.31128  1
