CIF file written using JARVIS-Tools package.
data_YbC2
_symmetry_space_group_name_H-M  'I4/mmm'
_cell_length_a       3.77737
_cell_length_b       3.77737
_cell_length_c       4.16635
_cell_angle_alpha    116.957
_cell_angle_beta     116.957
_cell_angle_gamma    89.9999

_symmetry_Int_Tables_number  139
_chemical_formula_structural  YbC2
_chemical_formula_sum  YbC2
_cell_volume  45.62399399459155
_cell_formula_units_Z  1
loop_
  _symmetry_equiv_pos_site_id
 _symmetry_equiv_pos_as_xyz
 1  'x, y, z'
loop_
 _atom_site_type_symbol
 _atom_site_label
 _atom_site_symmetry_multiplicity
 _atom_site_fract_x
 _atom_site_fract_y
 _atom_site_fract_z
 _atom_site_fract_occupancy
 C  C1  1  0.59807  0.59807  0.19614  1
 C  C2  1  0.40193  0.40193  0.80386  1
 Yb  Yb1  1  0.00000  0.00000  0.00000  1
