CIF file written using JARVIS-Tools package.
data_PrCuSO
_symmetry_space_group_name_H-M  'P4/nmm'
_cell_length_a       3.97507
_cell_length_b       3.97507
_cell_length_c       8.47447
_cell_angle_alpha    90
_cell_angle_beta     90
_cell_angle_gamma    90

_symmetry_Int_Tables_number  129
_chemical_formula_structural  PrCuSO
_chemical_formula_sum  Pr2Cu2S2O2
_cell_volume  133.90665906272497
_cell_formula_units_Z  2
loop_
  _symmetry_equiv_pos_site_id
 _symmetry_equiv_pos_as_xyz
 1  'x, y, z'
loop_
 _atom_site_type_symbol
 _atom_site_label
 _atom_site_symmetry_multiplicity
 _atom_site_fract_x
 _atom_site_fract_y
 _atom_site_fract_z
 _atom_site_fract_occupancy
 Cu  Cu1  1  0.00000  0.00000  0.50000  1
 Cu  Cu2  1  0.50000  0.50000  0.50000  1
 O  O1  1  0.50000  0.50000  0.00000  1
 O  O2  1  0.00000  0.00000  0.00000  1
 Pr  Pr1  1  0.50000  0.00000  0.85234  1
 Pr  Pr2  1  0.00000  0.50000  0.14766  1
 S  S1  1  0.00000  0.50000  0.66540  1
 S  S2  1  0.50000  0.00000  0.33460  1
