CIF file written using JARVIS-Tools package.
data_SbHO3
_symmetry_space_group_name_H-M  'I4_1/amd'
_cell_length_a       7.35724
_cell_length_b       7.61024
_cell_length_c       7.35724
_cell_angle_alpha    58.8558
_cell_angle_beta     62.2884
_cell_angle_gamma    58.8558

_symmetry_Int_Tables_number  141
_chemical_formula_structural  SbHO3
_chemical_formula_sum  Sb4H4O2
_cell_volume  290.5682656914395
_cell_formula_units_Z  4
loop_
  _symmetry_equiv_pos_site_id
 _symmetry_equiv_pos_as_xyz
 1  'x, y, z'
loop_
 _atom_site_type_symbol
 _atom_site_label
 _atom_site_symmetry_multiplicity
 _atom_site_fract_x
 _atom_site_fract_y
 _atom_site_fract_z
 _atom_site_fract_occupancy
 H  H1  1  0.18412  0.56588  0.18412  1
 H  H2  1  0.56588  0.18412  0.56588  1
 H  H3  1  0.81588  0.43412  0.81588  1
 H  H4  1  0.43412  0.81588  0.43412  1
 O  O1  1  0.93706  0.93706  0.31294  1
 O  O2  1  0.68706  0.06294  0.06294  1
 O  O3  1  0.91360  0.33640  0.91360  1
 O  O4  1  0.06294  0.06294  0.68706  1
 O  O5  1  0.68706  0.68706  0.06294  1
 O  O6  1  0.06294  0.68706  0.68706  1
 O  O7  1  0.66360  0.08640  0.66360  1
 O  O8  1  0.33640  0.91360  0.33640  1
 O  O9  1  0.93706  0.31294  0.31294  1
 O  O10  1  0.08640  0.66360  0.08640  1
 O  O11  1  0.31294  0.31294  0.93706  1
 O  O12  1  0.31294  0.93706  0.93706  1
 Sb  Sb1  1  0.00000  0.00000  0.00000  1
 Sb  Sb2  1  0.50000  0.00000  -0.00000  1
 Sb  Sb3  1  0.00000  -0.00000  0.50000  1
 Sb  Sb4  1  -0.00000  0.50000  0.00000  1
