CIF file written using JARVIS-Tools package.
data_Li2SnO3
_symmetry_space_group_name_H-M  'C2/c'
_cell_length_a       5.3317
_cell_length_b       5.34199
_cell_length_c       10.0315
_cell_angle_alpha    84.864
_cell_angle_beta     79.6661
_cell_angle_gamma    60.0637

_symmetry_Int_Tables_number  15
_chemical_formula_structural  Li2SnO3
_chemical_formula_sum  Li8Sn4O2
_cell_volume  243.58036077487753
_cell_formula_units_Z  4
loop_
  _symmetry_equiv_pos_site_id
 _symmetry_equiv_pos_as_xyz
 1  'x, y, z'
loop_
 _atom_site_type_symbol
 _atom_site_label
 _atom_site_symmetry_multiplicity
 _atom_site_fract_x
 _atom_site_fract_y
 _atom_site_fract_z
 _atom_site_fract_occupancy
 Li  Li1  1  0.84326  0.84558  0.99908  1
 Li  Li2  1  0.31116  0.84558  0.50092  1
 Li  Li3  1  0.15674  0.15442  0.00092  1
 Li  Li4  1  0.68884  0.15442  0.49908  1
 Li  Li5  1  -0.00000  0.50000  0.50000  1
 Li  Li6  1  0.50000  0.50000  -0.00000  1
 Li  Li7  1  0.08523  0.82954  0.25000  1
 Li  Li8  1  0.91477  0.17046  0.75000  1
 O  O1  1  0.95828  0.81691  0.62917  1
 O  O2  1  0.12355  0.48315  0.13194  1
 O  O3  1  0.77519  0.18309  0.12917  1
 O  O4  1  0.52978  0.16604  0.86806  1
 O  O5  1  0.69582  0.83396  0.36806  1
 O  O6  1  0.30418  0.16604  0.63194  1
 O  O7  1  0.60670  0.51685  0.63194  1
 O  O8  1  0.04172  0.18309  0.37083  1
 O  O9  1  0.39330  0.48315  0.36806  1
 O  O10  1  0.47022  0.83396  0.13194  1
 O  O11  1  0.22481  0.81691  0.87083  1
 O  O12  1  0.87645  0.51685  0.86806  1
 Sn  Sn1  1  0.74953  0.50094  0.25000  1
 Sn  Sn2  1  0.58294  0.83412  0.75000  1
 Sn  Sn3  1  0.25047  0.49906  0.75000  1
 Sn  Sn4  1  0.41706  0.16588  0.25000  1
