CIF file written using JARVIS-Tools package.
data_Li2Ti3VO8
_symmetry_space_group_name_H-M  'C2/m'
_cell_length_a       5.90818
_cell_length_b       5.90779
_cell_length_c       5.98682
_cell_angle_alpha    89.6061
_cell_angle_beta     59.868
_cell_angle_gamma    60.1104

_symmetry_Int_Tables_number  12
_chemical_formula_structural  Li2Ti3VO8
_chemical_formula_sum  Li2Ti3VO8
_cell_volume  148.21280349842468
_cell_formula_units_Z  1
loop_
  _symmetry_equiv_pos_site_id
 _symmetry_equiv_pos_as_xyz
 1  'x, y, z'
loop_
 _atom_site_type_symbol
 _atom_site_label
 _atom_site_symmetry_multiplicity
 _atom_site_fract_x
 _atom_site_fract_y
 _atom_site_fract_z
 _atom_site_fract_occupancy
 Li  Li1  1  0.00000  0.49999  0.50000  1
 Li  Li2  1  0.50000  -0.00000  0.50000  1
 O  O1  1  0.47374  0.26131  0.78749  1
 O  O2  1  0.49185  0.75933  0.77791  1
 O  O3  1  0.98136  0.26981  0.77793  1
 O  O4  1  0.96943  0.75817  0.78871  1
 O  O5  1  0.03059  0.24182  0.21129  1
 O  O6  1  0.01862  0.73019  0.22209  1
 O  O7  1  0.50817  0.24067  0.22207  1
 O  O8  1  0.52625  0.73871  0.21251  1
 Ti  Ti1  1  -0.00001  0.49999  0.00001  1
 Ti  Ti2  1  0.49998  0.50002  0.00000  1
 Ti  Ti3  1  0.50002  0.00000  0.99999  1
 V  V1  1  0.00001  0.99999  0.00000  1
