CIF file written using JARVIS-Tools package.
data_NbNO
_symmetry_space_group_name_H-M  'C2/m'
_cell_length_a       3.90662
_cell_length_b       6.8719
_cell_length_c       6.90024
_cell_angle_alpha    107.132
_cell_angle_beta     106.443
_cell_angle_gamma    90.0051

_symmetry_Int_Tables_number  12
_chemical_formula_structural  NbNO
_chemical_formula_sum  Nb4N4O4
_cell_volume  169.07856406658263
_cell_formula_units_Z  4
loop_
  _symmetry_equiv_pos_site_id
 _symmetry_equiv_pos_as_xyz
 1  'x, y, z'
loop_
 _atom_site_type_symbol
 _atom_site_label
 _atom_site_symmetry_multiplicity
 _atom_site_fract_x
 _atom_site_fract_y
 _atom_site_fract_z
 _atom_site_fract_occupancy
 N  N1  1  0.05330  0.36221  0.10496  1
 N  N2  1  0.25964  0.64799  0.51726  1
 N  N3  1  0.74242  0.35528  0.48303  1
 N  N4  1  0.94875  0.64106  0.89533  1
 Nb  Nb1  1  0.10597  0.71806  0.20970  1
 Nb  Nb2  1  0.18706  0.31266  0.37237  1
 Nb  Nb3  1  0.81501  0.69061  0.62791  1
 Nb  Nb4  1  0.89608  0.28521  0.79058  1
 O  O1  1  0.63450  0.70854  0.26693  1
 O  O2  1  0.14314  0.01054  0.28425  1
 O  O3  1  0.85893  0.99274  0.71603  1
 O  O4  1  0.36756  0.29473  0.73336  1
