CIF file written using JARVIS-Tools package.
data_Zn2SnO4
_symmetry_space_group_name_H-M  'Imma'
_cell_length_a       6.19645
_cell_length_b       6.19645
_cell_length_c       6.31084
_cell_angle_alpha    59.3875
_cell_angle_beta     59.3874
_cell_angle_gamma    58.6529

_symmetry_Int_Tables_number  74
_chemical_formula_structural  Zn2SnO4
_chemical_formula_sum  Zn4Sn2O8
_cell_volume  167.97296172480614
_cell_formula_units_Z  2
loop_
  _symmetry_equiv_pos_site_id
 _symmetry_equiv_pos_as_xyz
 1  'x, y, z'
loop_
 _atom_site_type_symbol
 _atom_site_label
 _atom_site_symmetry_multiplicity
 _atom_site_fract_x
 _atom_site_fract_y
 _atom_site_fract_z
 _atom_site_fract_occupancy
 O  O1  1  0.38988  0.38988  0.37705  1
 O  O2  1  0.38988  0.38988  0.84319  1
 O  O3  1  0.39018  0.85781  0.37600  1
 O  O4  1  0.85781  0.39018  0.37600  1
 O  O5  1  0.39219  0.85982  0.87400  1
 O  O6  1  0.85982  0.39219  0.87400  1
 O  O7  1  0.86012  0.86012  0.40681  1
 O  O8  1  0.86012  0.86012  0.87295  1
 Sn  Sn1  1  0.62500  0.62500  0.12500  1
 Sn  Sn2  1  0.62500  0.62500  0.62500  1
 Zn  Zn1  1  0.98420  0.98420  0.01580  1
 Zn  Zn2  1  0.26580  0.26580  0.23420  1
 Zn  Zn3  1  0.12500  0.62500  0.62500  1
 Zn  Zn4  1  0.62500  0.12500  0.62500  1
