CIF file written using JARVIS-Tools package.
data_K3NbO8
_symmetry_space_group_name_H-M  'I-42m'
_cell_length_a       6.2138
_cell_length_b       6.2138
_cell_length_c       6.2138
_cell_angle_alpha    102.437
_cell_angle_beta     113.099
_cell_angle_gamma    113.099

_symmetry_Int_Tables_number  121
_chemical_formula_structural  K3NbO8
_chemical_formula_sum  K3NbO8
_cell_volume  182.64078595023375
_cell_formula_units_Z  1
loop_
  _symmetry_equiv_pos_site_id
 _symmetry_equiv_pos_as_xyz
 1  'x, y, z'
loop_
 _atom_site_type_symbol
 _atom_site_label
 _atom_site_symmetry_multiplicity
 _atom_site_fract_x
 _atom_site_fract_y
 _atom_site_fract_z
 _atom_site_fract_occupancy
 K  K1  1  0.50000  0.25000  0.75000  1
 K  K2  1  0.50000  0.75000  0.25000  1
 K  K3  1  -0.00000  0.50000  0.50000  1
 Nb  Nb1  1  0.00000  0.00000  0.00000  1
 O  O1  1  0.56931  0.80611  0.80611  1
 O  O2  1  -0.00000  0.19389  0.76320  1
 O  O3  1  0.00000  0.76320  0.19389  1
 O  O4  1  0.43069  0.23680  0.23680  1
 O  O5  1  0.28509  0.33563  0.33563  1
 O  O6  1  0.00000  0.66437  0.94945  1
 O  O7  1  -0.00000  0.94945  0.66437  1
 O  O8  1  0.71491  0.05055  0.05055  1
