CIF file written using JARVIS-Tools package.
data_SrAl2B2O7
_symmetry_space_group_name_H-M  'R32'
_cell_length_a       8.5645
_cell_length_b       8.56451
_cell_length_c       8.5645
_cell_angle_alpha    33.4927
_cell_angle_beta     33.4927
_cell_angle_gamma    33.4927

_symmetry_Int_Tables_number  155
_chemical_formula_structural  SrAl2B2O7
_chemical_formula_sum  SrAl2B2O7
_cell_volume  170.37834788810335
_cell_formula_units_Z  1
loop_
  _symmetry_equiv_pos_site_id
 _symmetry_equiv_pos_as_xyz
 1  'x, y, z'
loop_
 _atom_site_type_symbol
 _atom_site_label
 _atom_site_symmetry_multiplicity
 _atom_site_fract_x
 _atom_site_fract_y
 _atom_site_fract_z
 _atom_site_fract_occupancy
 Al  Al1  1  0.43011  0.43011  0.43011  1
 Al  Al2  1  0.56989  0.56989  0.56989  1
 B  B1  1  0.26545  0.26545  0.26545  1
 B  B2  1  0.73455  0.73455  0.73455  1
 O  O1  1  0.03544  0.67479  0.48614  1
 O  O2  1  0.48614  0.03544  0.67479  1
 O  O3  1  0.67479  0.48614  0.03544  1
 O  O4  1  0.50000  0.50000  0.50000  1
 O  O5  1  0.32521  0.96456  0.51386  1
 O  O6  1  0.51386  0.32521  0.96456  1
 O  O7  1  0.96456  0.51386  0.32521  1
 Sr  Sr1  1  0.00000  0.00000  0.00000  1
