CIF file written using JARVIS-Tools package.
data_K3N
_symmetry_space_group_name_H-M  'P6_3/mcm'
_cell_length_a       7.44546
_cell_length_b       7.44546
_cell_length_c       7.21834
_cell_angle_alpha    90
_cell_angle_beta     90
_cell_angle_gamma    120

_symmetry_Int_Tables_number  193
_chemical_formula_structural  K3N
_chemical_formula_sum  K6N2
_cell_volume  346.5383935889704
_cell_formula_units_Z  2
loop_
  _symmetry_equiv_pos_site_id
 _symmetry_equiv_pos_as_xyz
 1  'x, y, z'
loop_
 _atom_site_type_symbol
 _atom_site_label
 _atom_site_symmetry_multiplicity
 _atom_site_fract_x
 _atom_site_fract_y
 _atom_site_fract_z
 _atom_site_fract_occupancy
 K  K1  1  0.27312  -0.00000  0.25000  1
 K  K2  1  0.72688  0.00000  0.75000  1
 K  K3  1  0.27312  0.27312  0.75000  1
 K  K4  1  -0.00000  0.27312  0.25000  1
 K  K5  1  0.72688  0.72688  0.25000  1
 K  K6  1  0.00000  0.72688  0.75000  1
 N  N1  1  0.00000  0.00000  0.50000  1
 N  N2  1  0.00000  0.00000  0.00000  1
