CIF file written using JARVIS-Tools package.
data_Sr3Sc2Cu2S2O5
_symmetry_space_group_name_H-M  'I4/mmm'
_cell_length_a       4.09263
_cell_length_b       4.09262
_cell_length_c       13.2933
_cell_angle_alpha    98.8551
_cell_angle_beta     98.855
_cell_angle_gamma    90

_symmetry_Int_Tables_number  139
_chemical_formula_structural  Sr3Sc2Cu2S2O5
_chemical_formula_sum  Sr3Sc2Cu2S2O5
_cell_volume  217.31712958812622
_cell_formula_units_Z  1
loop_
  _symmetry_equiv_pos_site_id
 _symmetry_equiv_pos_as_xyz
 1  'x, y, z'
loop_
 _atom_site_type_symbol
 _atom_site_label
 _atom_site_symmetry_multiplicity
 _atom_site_fract_x
 _atom_site_fract_y
 _atom_site_fract_z
 _atom_site_fract_occupancy
 Cu  Cu1  1  0.25000  0.75000  0.50000  1
 Cu  Cu2  1  0.75000  0.25000  0.50000  1
 O  O1  1  0.00000  0.00000  0.00000  1
 O  O2  1  0.41349  0.91349  0.82697  1
 O  O3  1  0.91349  0.41349  0.82697  1
 O  O4  1  0.08651  0.58651  0.17303  1
 O  O5  1  0.58651  0.08651  0.17303  1
 S  S1  1  0.80203  0.80203  0.60406  1
 S  S2  1  0.19797  0.19797  0.39594  1
 Sc  Sc1  1  0.92342  0.92342  0.84684  1
 Sc  Sc2  1  0.07658  0.07658  0.15316  1
 Sr  Sr1  1  0.50000  0.50000  0.00000  1
 Sr  Sr2  1  0.64471  0.64471  0.28942  1
 Sr  Sr3  1  0.35529  0.35529  0.71058  1
