CIF file written using JARVIS-Tools package.
data_CuSe3Br
_symmetry_space_group_name_H-M  'Pmna'
_cell_length_a       4.59728
_cell_length_b       7.68084
_cell_length_c       14.5252
_cell_angle_alpha    90
_cell_angle_beta     90
_cell_angle_gamma    90

_symmetry_Int_Tables_number  53
_chemical_formula_structural  CuSe3Br
_chemical_formula_sum  Cu4Se2Br4
_cell_volume  512.8982364330274
_cell_formula_units_Z  4
loop_
  _symmetry_equiv_pos_site_id
 _symmetry_equiv_pos_as_xyz
 1  'x, y, z'
loop_
 _atom_site_type_symbol
 _atom_site_label
 _atom_site_symmetry_multiplicity
 _atom_site_fract_x
 _atom_site_fract_y
 _atom_site_fract_z
 _atom_site_fract_occupancy
 Br  Br1  1  0.50000  0.50000  0.69290  1
 Br  Br2  1  0.50000  0.50000  0.32221  1
 Br  Br3  1  0.50000  0.00000  0.19290  1
 Br  Br4  1  0.50000  0.00000  0.82221  1
 Cu  Cu1  1  0.80205  0.74999  0.75753  1
 Cu  Cu2  1  0.80205  0.75001  0.25753  1
 Cu  Cu3  1  0.19795  0.24999  0.25753  1
 Cu  Cu4  1  0.19795  0.25001  0.75753  1
 Se  Se1  1  0.09876  0.64945  0.88225  1
 Se  Se2  1  0.09876  0.85055  0.38225  1
 Se  Se3  1  0.90124  0.35055  0.88225  1
 Se  Se4  1  0.16852  0.27338  0.50756  1
 Se  Se5  1  0.83148  0.77338  0.00756  1
 Se  Se6  1  0.16852  0.22662  0.00756  1
 Se  Se7  1  0.83148  0.72662  0.50756  1
 Se  Se8  1  0.09881  0.85056  0.63286  1
 Se  Se9  1  0.90119  0.14944  0.63286  1
 Se  Se10  1  0.09881  0.64944  0.13286  1
 Se  Se11  1  0.90119  0.35056  0.13286  1
 Se  Se12  1  0.90124  0.14945  0.38225  1
