CIF file written using JARVIS-Tools package.
data_LiC
_symmetry_space_group_name_H-M  'Immm'
_cell_length_a       3.59894
_cell_length_b       4.01565
_cell_length_c       4.01565
_cell_angle_alpha    73.5138
_cell_angle_beta     63.3772
_cell_angle_gamma    63.3772

_symmetry_Int_Tables_number  71
_chemical_formula_structural  LiC
_chemical_formula_sum  Li2C2
_cell_volume  46.13007129546889
_cell_formula_units_Z  2
loop_
  _symmetry_equiv_pos_site_id
 _symmetry_equiv_pos_as_xyz
 1  'x, y, z'
loop_
 _atom_site_type_symbol
 _atom_site_label
 _atom_site_symmetry_multiplicity
 _atom_site_fract_x
 _atom_site_fract_y
 _atom_site_fract_z
 _atom_site_fract_occupancy
 C  C1  1  -0.00000  0.86958  0.13042  1
 C  C2  1  0.00000  0.13042  0.86958  1
 Li  Li1  1  0.76230  0.73770  0.73770  1
 Li  Li2  1  0.23770  0.26230  0.26230  1
