CIF file written using JARVIS-Tools package.
data_AlPO4
_symmetry_space_group_name_H-M  'Cmcm'
_cell_length_a       4.59316
_cell_length_b       4.59315
_cell_length_c       6.02876
_cell_angle_alpha    90
_cell_angle_beta     90
_cell_angle_gamma    111.864

_symmetry_Int_Tables_number  63
_chemical_formula_structural  AlPO4
_chemical_formula_sum  Al2P2O8
_cell_volume  118.04027331986168
_cell_formula_units_Z  2
loop_
  _symmetry_equiv_pos_site_id
 _symmetry_equiv_pos_as_xyz
 1  'x, y, z'
loop_
 _atom_site_type_symbol
 _atom_site_label
 _atom_site_symmetry_multiplicity
 _atom_site_fract_x
 _atom_site_fract_y
 _atom_site_fract_z
 _atom_site_fract_occupancy
 Al  Al1  1  0.00000  0.00000  0.00000  1
 Al  Al2  1  0.00000  0.00000  0.50000  1
 O  O1  1  0.76254  0.23746  0.45889  1
 O  O2  1  0.23746  0.76254  0.95889  1
 O  O3  1  0.23746  0.76254  0.54111  1
 O  O4  1  0.76254  0.23746  0.04111  1
 O  O5  1  0.22011  0.28087  0.75000  1
 O  O6  1  0.77989  0.71913  0.25000  1
 O  O7  1  0.28087  0.22011  0.25000  1
 O  O8  1  0.71913  0.77989  0.75000  1
 P  P1  1  0.34799  0.65201  0.75000  1
 P  P2  1  0.65201  0.34799  0.25000  1
