CIF file written using JARVIS-Tools package.
data_MnH2SO5
_symmetry_space_group_name_H-M  'C2/c'
_cell_length_a       5.25208
_cell_length_b       5.25208
_cell_length_c       7.81031
_cell_angle_alpha    72.6979
_cell_angle_beta     107.302
_cell_angle_gamma    82.5627

_symmetry_Int_Tables_number  15
_chemical_formula_structural  MnH2SO5
_chemical_formula_sum  Mn2H4S2O0
_cell_volume  190.69304194621154
_cell_formula_units_Z  2
loop_
  _symmetry_equiv_pos_site_id
 _symmetry_equiv_pos_as_xyz
 1  'x, y, z'
loop_
 _atom_site_type_symbol
 _atom_site_label
 _atom_site_symmetry_multiplicity
 _atom_site_fract_x
 _atom_site_fract_y
 _atom_site_fract_z
 _atom_site_fract_occupancy
 H  H1  1  0.41405  0.14979  0.79072  1
 H  H2  1  0.14979  0.41405  0.70928  1
 H  H3  1  0.58595  0.85021  0.20928  1
 H  H4  1  0.85021  0.58595  0.29072  1
 Mn  Mn1  1  0.50000  0.50000  0.50000  1
 Mn  Mn2  1  0.50000  0.50000  0.00000  1
 O  O1  1  0.35444  0.35444  0.75000  1
 O  O2  1  0.78208  0.11318  0.60055  1
 O  O3  1  0.88682  0.21792  0.10055  1
 O  O4  1  0.11318  0.78208  0.89945  1
 O  O5  1  0.83740  0.62268  0.66313  1
 O  O6  1  0.37732  0.16260  0.16313  1
 O  O7  1  0.16260  0.37732  0.33687  1
 O  O8  1  0.21792  0.88682  0.39945  1
 O  O9  1  0.62268  0.83740  0.83687  1
 O  O10  1  0.64556  0.64556  0.25000  1
 S  S1  1  0.15851  0.15851  0.25000  1
 S  S2  1  0.84149  0.84149  0.75000  1
