CIF file written using JARVIS-Tools package.
data_Li4Mn3NiP4O16
_symmetry_space_group_name_H-M  'Pm'
_cell_length_a       4.7312
_cell_length_b       6.06075
_cell_length_c       10.3267
_cell_angle_alpha    90
_cell_angle_beta     90.0593
_cell_angle_gamma    90

_symmetry_Int_Tables_number  6
_chemical_formula_structural  Li4Mn3NiP4O16
_chemical_formula_sum  Li4Mn3NiP4O6
_cell_volume  296.11363696112323
_cell_formula_units_Z  1
loop_
  _symmetry_equiv_pos_site_id
 _symmetry_equiv_pos_as_xyz
 1  'x, y, z'
loop_
 _atom_site_type_symbol
 _atom_site_label
 _atom_site_symmetry_multiplicity
 _atom_site_fract_x
 _atom_site_fract_y
 _atom_site_fract_z
 _atom_site_fract_occupancy
 Li  Li1  1  0.99843  0.25080  0.00524  1
 Li  Li2  1  0.99843  0.74920  0.00524  1
 Li  Li3  1  0.50183  0.74711  0.49414  1
 Li  Li4  1  0.50183  0.25289  0.49414  1
 Mn  Mn1  1  0.03000  0.00000  0.71801  1
 Mn  Mn2  1  0.47154  0.00000  0.22167  1
 Mn  Mn3  1  0.52467  0.50000  0.77937  1
 Ni  Ni1  1  0.97393  0.50000  0.27848  1
 O  O1  1  0.22101  0.29763  0.65771  1
 O  O2  1  0.27400  0.29648  0.16617  1
 O  O3  1  0.26370  0.00000  0.90627  1
 O  O4  1  0.20785  0.50000  0.44662  1
 O  O5  1  0.22101  0.70237  0.65771  1
 O  O6  1  0.78200  0.20479  0.33718  1
 O  O7  1  0.29217  0.50000  0.95688  1
 O  O8  1  0.23982  0.00000  0.40619  1
 O  O9  1  0.71227  0.00000  0.04860  1
 O  O10  1  0.76088  0.50000  0.59140  1
 O  O11  1  0.72186  0.20374  0.83892  1
 O  O12  1  0.73707  0.50000  0.10147  1
 O  O13  1  0.27400  0.70352  0.16617  1
 O  O14  1  0.78200  0.79521  0.33718  1
 O  O15  1  0.72186  0.79626  0.83892  1
 O  O16  1  0.78803  0.00000  0.54627  1
 P  P1  1  0.08447  0.50000  0.58610  1
 P  P2  1  0.41206  0.50000  0.09718  1
 P  P3  1  0.58770  0.00000  0.90928  1
 P  P4  1  0.91557  0.00000  0.40748  1
