CIF file written using JARVIS-Tools package.
data_Lu6TeO12
_symmetry_space_group_name_H-M  'R-3'
_cell_length_a       6.3235
_cell_length_b       6.3235
_cell_length_c       6.3235
_cell_angle_alpha    98.8481
_cell_angle_beta     98.8481
_cell_angle_gamma    98.8481

_symmetry_Int_Tables_number  148
_chemical_formula_structural  Lu6TeO12
_chemical_formula_sum  Lu6TeO2
_cell_volume  242.76080141424995
_cell_formula_units_Z  1
loop_
  _symmetry_equiv_pos_site_id
 _symmetry_equiv_pos_as_xyz
 1  'x, y, z'
loop_
 _atom_site_type_symbol
 _atom_site_label
 _atom_site_symmetry_multiplicity
 _atom_site_fract_x
 _atom_site_fract_y
 _atom_site_fract_z
 _atom_site_fract_occupancy
 Lu  Lu1  1  0.14466  0.31869  0.60970  1
 Lu  Lu2  1  0.39030  0.85534  0.68131  1
 Lu  Lu3  1  0.31869  0.60970  0.14466  1
 Lu  Lu4  1  0.68131  0.39030  0.85534  1
 Lu  Lu5  1  0.60970  0.14466  0.31869  1
 Lu  Lu6  1  0.85534  0.68131  0.39030  1
 O  O1  1  0.03728  0.92490  0.69666  1
 O  O2  1  0.07510  0.30334  0.96272  1
 O  O3  1  0.92490  0.69666  0.03728  1
 O  O4  1  0.30334  0.96272  0.07510  1
 O  O5  1  0.17729  0.59020  0.42898  1
 O  O6  1  0.59020  0.42898  0.17729  1
 O  O7  1  0.57102  0.82271  0.40980  1
 O  O8  1  0.40980  0.57102  0.82271  1
 O  O9  1  0.69666  0.03728  0.92490  1
 O  O10  1  0.82271  0.40980  0.57102  1
 O  O11  1  0.42898  0.17729  0.59020  1
 O  O12  1  0.96272  0.07510  0.30334  1
 Te  Te1  1  0.00000  0.00000  0.00000  1
