CIF file written using JARVIS-Tools package.
data_Cd2H2SO6
_symmetry_space_group_name_H-M  'C2/c'
_cell_length_a       7.03056
_cell_length_b       7.03056
_cell_length_c       6.53011
_cell_angle_alpha    67.7486
_cell_angle_beta     112.251
_cell_angle_gamma    113.183

_symmetry_Int_Tables_number  15
_chemical_formula_structural  Cd2H2SO6
_chemical_formula_sum  Cd4H4S2O2
_cell_volume  264.42627576022653
_cell_formula_units_Z  2
loop_
  _symmetry_equiv_pos_site_id
 _symmetry_equiv_pos_as_xyz
 1  'x, y, z'
loop_
 _atom_site_type_symbol
 _atom_site_label
 _atom_site_symmetry_multiplicity
 _atom_site_fract_x
 _atom_site_fract_y
 _atom_site_fract_z
 _atom_site_fract_occupancy
 Cd  Cd1  1  0.85217  0.34279  0.81519  1
 Cd  Cd2  1  0.34279  0.85217  0.68481  1
 Cd  Cd3  1  0.14783  0.65721  0.18481  1
 Cd  Cd4  1  0.65721  0.14783  0.31519  1
 H  H1  1  0.76746  0.94165  0.81575  1
 H  H2  1  0.94165  0.76746  0.68425  1
 H  H3  1  0.23254  0.05835  0.18425  1
 H  H4  1  0.05835  0.23254  0.31575  1
 O  O1  1  0.31320  0.95679  0.29594  1
 O  O2  1  0.53816  0.31932  0.90413  1
 O  O3  1  0.68068  0.46184  0.40413  1
 O  O4  1  0.46184  0.68068  0.09587  1
 O  O5  1  0.31932  0.53816  0.59587  1
 O  O6  1  0.24841  0.16952  0.60598  1
 O  O7  1  0.04321  0.68680  0.79594  1
 O  O8  1  0.75159  0.83048  0.39402  1
 O  O9  1  0.68680  0.04321  0.70406  1
 O  O10  1  0.16952  0.24841  0.89402  1
 O  O11  1  0.83048  0.75159  0.10598  1
 O  O12  1  0.95679  0.31320  0.20406  1
 S  S1  1  0.68258  0.68258  0.25000  1
 S  S2  1  0.31742  0.31742  0.75000  1
