CIF file written using JARVIS-Tools package.
data_Li3In2
_symmetry_space_group_name_H-M  'R-3m'
_cell_length_a       5.57966
_cell_length_b       5.57966
_cell_length_c       5.57965
_cell_angle_alpha    50.2547
_cell_angle_beta     50.2547
_cell_angle_gamma    50.2547

_symmetry_Int_Tables_number  166
_chemical_formula_structural  Li3In2
_chemical_formula_sum  Li3In2
_cell_volume  94.56390197082328
_cell_formula_units_Z  1
loop_
  _symmetry_equiv_pos_site_id
 _symmetry_equiv_pos_as_xyz
 1  'x, y, z'
loop_
 _atom_site_type_symbol
 _atom_site_label
 _atom_site_symmetry_multiplicity
 _atom_site_fract_x
 _atom_site_fract_y
 _atom_site_fract_z
 _atom_site_fract_occupancy
 In  In1  1  0.20993  0.20993  0.20993  1
 In  In2  1  0.79007  0.79007  0.79007  1
 Li  Li1  1  0.59570  0.59570  0.59570  1
 Li  Li2  1  0.40430  0.40430  0.40430  1
 Li  Li3  1  0.00000  0.00000  0.00000  1
