CIF file written using JARVIS-Tools package.
data_NaHO
_symmetry_space_group_name_H-M  'Cmcm'
_cell_length_a       3.39398
_cell_length_b       3.40299
_cell_length_c       5.79767
_cell_angle_alpha    107.067
_cell_angle_beta     90
_cell_angle_gamma    90

_symmetry_Int_Tables_number  63
_chemical_formula_structural  NaHO
_chemical_formula_sum  Na2H2O2
_cell_volume  64.01268081260783
_cell_formula_units_Z  2
loop_
  _symmetry_equiv_pos_site_id
 _symmetry_equiv_pos_as_xyz
 1  'x, y, z'
loop_
 _atom_site_type_symbol
 _atom_site_label
 _atom_site_symmetry_multiplicity
 _atom_site_fract_x
 _atom_site_fract_y
 _atom_site_fract_z
 _atom_site_fract_occupancy
 H  H1  1  0.25000  0.95705  0.91411  1
 H  H2  1  0.75000  0.04295  0.08589  1
 Na  Na1  1  0.25000  0.66100  0.32199  1
 Na  Na2  1  0.75000  0.33900  0.67801  1
 O  O1  1  0.75000  0.13091  0.26183  1
 O  O2  1  0.25000  0.86909  0.73817  1
