CIF file written using JARVIS-Tools package.
data_AgI2
_symmetry_space_group_name_H-M  'P-4m2'
_cell_length_a       4.11556
_cell_length_b       4.11556
_cell_length_c       6.39348
_cell_angle_alpha    90
_cell_angle_beta     90
_cell_angle_gamma    90

_symmetry_Int_Tables_number  115
_chemical_formula_structural  AgI2
_chemical_formula_sum  AgI2
_cell_volume  108.29159607647564
_cell_formula_units_Z  1
loop_
  _symmetry_equiv_pos_site_id
 _symmetry_equiv_pos_as_xyz
 1  'x, y, z'
loop_
 _atom_site_type_symbol
 _atom_site_label
 _atom_site_symmetry_multiplicity
 _atom_site_fract_x
 _atom_site_fract_y
 _atom_site_fract_z
 _atom_site_fract_occupancy
 Ag  Ag1  1  0.50000  0.50000  0.50000  1
 I  I1  1  0.50000  0.00000  0.21182  1
 I  I2  1  0.00000  0.50000  0.78818  1
