CIF file written using JARVIS-Tools package.
data_Rb4Br2O
_symmetry_space_group_name_H-M  'I4/mmm'
_cell_length_a       5.40432
_cell_length_b       5.40432
_cell_length_c       9.41594
_cell_angle_alpha    106.677
_cell_angle_beta     106.677
_cell_angle_gamma    89.9999

_symmetry_Int_Tables_number  139
_chemical_formula_structural  Rb4Br2O
_chemical_formula_sum  Rb4Br2O
_cell_volume  251.3414194728792
_cell_formula_units_Z  1
loop_
  _symmetry_equiv_pos_site_id
 _symmetry_equiv_pos_as_xyz
 1  'x, y, z'
loop_
 _atom_site_type_symbol
 _atom_site_label
 _atom_site_symmetry_multiplicity
 _atom_site_fract_x
 _atom_site_fract_y
 _atom_site_fract_z
 _atom_site_fract_occupancy
 Br  Br1  1  0.64169  0.64169  0.28338  1
 Br  Br2  1  0.35831  0.35831  0.71662  1
 O  O1  1  0.00000  0.00000  0.00000  1
 Rb  Rb1  1  0.84368  0.84368  0.68737  1
 Rb  Rb2  1  0.15632  0.15632  0.31263  1
 Rb  Rb3  1  -0.00000  0.50000  -0.00000  1
 Rb  Rb4  1  0.50000  0.00000  0.00000  1
