CIF file written using JARVIS-Tools package.
data_LiFeSiO4
_symmetry_space_group_name_H-M  'P6_422'
_cell_length_a       5.49881
_cell_length_b       5.49881
_cell_length_c       11.4376
_cell_angle_alpha    90
_cell_angle_beta     90
_cell_angle_gamma    120

_symmetry_Int_Tables_number  181
_chemical_formula_structural  LiFeSiO4
_chemical_formula_sum  Li3Fe3Si3O2
_cell_volume  299.5038577354024
_cell_formula_units_Z  3
loop_
  _symmetry_equiv_pos_site_id
 _symmetry_equiv_pos_as_xyz
 1  'x, y, z'
loop_
 _atom_site_type_symbol
 _atom_site_label
 _atom_site_symmetry_multiplicity
 _atom_site_fract_x
 _atom_site_fract_y
 _atom_site_fract_z
 _atom_site_fract_occupancy
 Fe  Fe1  1  0.50000  -0.00000  0.50000  1
 Fe  Fe2  1  0.50000  0.50000  0.16667  1
 Fe  Fe3  1  0.00000  0.50000  0.83333  1
 Li  Li1  1  0.00000  0.00000  0.83333  1
 Li  Li2  1  0.00000  0.00000  0.50000  1
 Li  Li3  1  0.00000  0.00000  0.16667  1
 O  O1  1  0.17198  0.77846  0.41705  1
 O  O2  1  0.77846  0.17198  0.91629  1
 O  O3  1  0.60648  0.77846  0.58295  1
 O  O4  1  0.60648  0.82802  0.08371  1
 O  O5  1  0.22154  0.82802  0.91629  1
 O  O6  1  0.17198  0.39352  0.24962  1
 O  O7  1  0.39352  0.17198  0.08371  1
 O  O8  1  0.77846  0.60648  0.75038  1
 O  O9  1  0.22154  0.39352  0.75038  1
 O  O10  1  0.39352  0.22154  0.58295  1
 O  O11  1  0.82802  0.60648  0.24962  1
 O  O12  1  0.82802  0.22154  0.41705  1
 Si  Si1  1  0.00000  0.50000  0.33333  1
 Si  Si2  1  0.50000  0.50000  0.66667  1
 Si  Si3  1  0.50000  -0.00000  0.00000  1
