CIF file written using JARVIS-Tools package.
data_SrSi6N8
_symmetry_space_group_name_H-M  'Imm2'
_cell_length_a       4.85108
_cell_length_b       6.59122
_cell_length_c       6.59123
_cell_angle_alpha    73.947
_cell_angle_beta     68.408
_cell_angle_gamma    68.408

_symmetry_Int_Tables_number  44
_chemical_formula_structural  SrSi6N8
_chemical_formula_sum  SrSi6N8
_cell_volume  179.768419569342
_cell_formula_units_Z  1
loop_
  _symmetry_equiv_pos_site_id
 _symmetry_equiv_pos_as_xyz
 1  'x, y, z'
loop_
 _atom_site_type_symbol
 _atom_site_label
 _atom_site_symmetry_multiplicity
 _atom_site_fract_x
 _atom_site_fract_y
 _atom_site_fract_z
 _atom_site_fract_occupancy
 N  N1  1  0.78400  0.29214  0.70786  1
 N  N2  1  0.40339  0.98509  0.62073  1
 N  N3  1  0.88901  0.81658  0.81658  1
 N  N4  1  0.00921  0.01491  0.37927  1
 N  N5  1  0.78400  0.70786  0.29214  1
 N  N6  1  0.40339  0.62073  0.98509  1
 N  N7  1  0.00921  0.37927  0.01491  1
 N  N8  1  0.52217  0.18342  0.18342  1
 Si  Si1  1  0.01232  0.04336  0.63586  1
 Si  Si2  1  0.69155  0.36414  0.95664  1
 Si  Si3  1  0.01232  0.63586  0.04336  1
 Si  Si4  1  0.69155  0.95664  0.36414  1
 Si  Si5  1  0.48667  0.87327  0.87327  1
 Si  Si6  1  0.23321  0.12673  0.12673  1
 Sr  Sr1  1  0.34322  0.50000  0.50000  1
