CIF file written using JARVIS-Tools package.
data_Yb2CaS4
_symmetry_space_group_name_H-M  'I-42d'
_cell_length_a       7.26592
_cell_length_b       7.26592
_cell_length_c       7.26592
_cell_angle_alpha    111.235
_cell_angle_beta     111.235
_cell_angle_gamma    105.998

_symmetry_Int_Tables_number  122
_chemical_formula_structural  Yb2CaS4
_chemical_formula_sum  Yb4Ca2S8
_cell_volume  294.48347708798457
_cell_formula_units_Z  2
loop_
  _symmetry_equiv_pos_site_id
 _symmetry_equiv_pos_as_xyz
 1  'x, y, z'
loop_
 _atom_site_type_symbol
 _atom_site_label
 _atom_site_symmetry_multiplicity
 _atom_site_fract_x
 _atom_site_fract_y
 _atom_site_fract_z
 _atom_site_fract_occupancy
 Ca  Ca1  1  0.62500  0.37500  0.25000  1
 Ca  Ca2  1  0.87500  0.12500  0.75000  1
 S  S1  1  0.13801  0.15866  0.16449  1
 S  S2  1  0.36199  0.52647  0.02065  1
 S  S3  1  0.65866  0.63801  0.66449  1
 S  S4  1  0.47353  0.99417  0.83551  1
 S  S5  1  0.49417  0.97353  0.33551  1
 S  S6  1  0.02647  0.86199  0.52065  1
 S  S7  1  0.84134  0.50583  0.97935  1
 S  S8  1  0.00583  0.34134  0.47935  1
 Yb  Yb1  1  0.12786  0.75000  0.87786  1
 Yb  Yb2  1  0.25000  0.62786  0.37786  1
 Yb  Yb3  1  0.37214  0.25000  0.62214  1
 Yb  Yb4  1  0.75000  0.87214  0.12214  1
