CIF file written using JARVIS-Tools package.
data_LiNbTe2WO12
_symmetry_space_group_name_H-M  'P1'
_cell_length_a       5.108
_cell_length_b       5.38143
_cell_length_c       7.42923
_cell_angle_alpha    93.7761
_cell_angle_beta     90.0511
_cell_angle_gamma    90.0308

_symmetry_Int_Tables_number  1
_chemical_formula_structural  LiNbTe2WO12
_chemical_formula_sum  LiNbTe2WO2
_cell_volume  203.7736276111492
_cell_formula_units_Z  1
loop_
  _symmetry_equiv_pos_site_id
 _symmetry_equiv_pos_as_xyz
 1  'x, y, z'
loop_
 _atom_site_type_symbol
 _atom_site_label
 _atom_site_symmetry_multiplicity
 _atom_site_fract_x
 _atom_site_fract_y
 _atom_site_fract_z
 _atom_site_fract_occupancy
 Li  Li1  1  0.50178  0.92841  0.28194  1
 Nb  Nb1  1  0.50624  0.50411  0.50660  1
 O  O1  1  0.30595  0.81791  0.05943  1
 O  O2  1  0.69431  0.82705  0.54618  1
 O  O3  1  0.19702  0.71017  0.43554  1
 O  O4  1  0.87428  0.01095  0.24433  1
 O  O5  1  0.80110  0.70592  0.93894  1
 O  O6  1  0.37678  0.50660  0.75503  1
 O  O7  1  0.19274  0.30341  0.05600  1
 O  O8  1  0.82426  0.31563  0.55443  1
 O  O9  1  0.31438  0.18632  0.42910  1
 O  O10  1  0.69361  0.20054  0.94139  1
 O  O11  1  0.61195  0.52002  0.24117  1
 O  O12  1  0.11213  0.00503  0.74961  1
 Te  Te1  1  0.49347  0.50460  0.99884  1
 Te  Te2  1  0.00478  0.00824  0.49434  1
 W  W1  1  0.99385  0.00622  0.98969  1
