CIF file written using JARVIS-Tools package.
data_Rb2CuH4Cl4O2
_symmetry_space_group_name_H-M  'P4_2/mnm'
_cell_length_a       7.57253
_cell_length_b       7.57253
_cell_length_c       8.00648
_cell_angle_alpha    90
_cell_angle_beta     90
_cell_angle_gamma    90

_symmetry_Int_Tables_number  136
_chemical_formula_structural  Rb2CuH4Cl4O2
_chemical_formula_sum  Rb4Cu2H8Cl8O4
_cell_volume  459.11719239182537
_cell_formula_units_Z  2
loop_
  _symmetry_equiv_pos_site_id
 _symmetry_equiv_pos_as_xyz
 1  'x, y, z'
loop_
 _atom_site_type_symbol
 _atom_site_label
 _atom_site_symmetry_multiplicity
 _atom_site_fract_x
 _atom_site_fract_y
 _atom_site_fract_z
 _atom_site_fract_occupancy
 Cl  Cl1  1  0.21651  0.21651  0.50000  1
 Cl  Cl2  1  0.28589  0.71411  0.50000  1
 Cl  Cl3  1  0.78349  0.78349  0.50000  1
 Cl  Cl4  1  0.71411  0.28589  0.50000  1
 Cl  Cl5  1  0.78589  0.78589  0.00000  1
 Cl  Cl6  1  0.71651  0.28349  0.00000  1
 Cl  Cl7  1  0.21411  0.21411  0.00000  1
 Cl  Cl8  1  0.28349  0.71651  0.00000  1
 Cu  Cu1  1  0.50000  0.50000  0.50000  1
 Cu  Cu2  1  0.00000  0.00000  0.00000  1
 H  H1  1  0.42437  0.57563  0.18083  1
 H  H2  1  0.92437  0.92437  0.68083  1
 H  H3  1  0.92437  0.92437  0.31917  1
 H  H4  1  0.57563  0.42437  0.18083  1
 H  H5  1  0.07563  0.07563  0.31917  1
 H  H6  1  0.57563  0.42437  0.81917  1
 H  H7  1  0.07563  0.07563  0.68083  1
 H  H8  1  0.42437  0.57563  0.81917  1
 O  O1  1  0.50000  0.50000  0.25378  1
 O  O2  1  0.00000  0.00000  0.24622  1
 O  O3  1  0.00000  0.00000  0.75378  1
 O  O4  1  0.50000  0.50000  0.74622  1
 Rb  Rb1  1  0.00000  0.50000  0.25000  1
 Rb  Rb2  1  0.00000  0.50000  0.75000  1
 Rb  Rb3  1  0.50000  0.00000  0.25000  1
 Rb  Rb4  1  0.50000  0.00000  0.75000  1
