CIF file written using JARVIS-Tools package.
data_Li2Ti3CoO8
_symmetry_space_group_name_H-M  'R3m'
_cell_length_a       5.88309
_cell_length_b       5.8831
_cell_length_c       5.8831
_cell_angle_alpha    60.7804
_cell_angle_beta     60.7804
_cell_angle_gamma    60.7803

_symmetry_Int_Tables_number  160
_chemical_formula_structural  Li2Ti3CoO8
_chemical_formula_sum  Li2Ti3CoO8
_cell_volume  146.51482841692007
_cell_formula_units_Z  1
loop_
  _symmetry_equiv_pos_site_id
 _symmetry_equiv_pos_as_xyz
 1  'x, y, z'
loop_
 _atom_site_type_symbol
 _atom_site_label
 _atom_site_symmetry_multiplicity
 _atom_site_fract_x
 _atom_site_fract_y
 _atom_site_fract_z
 _atom_site_fract_occupancy
 Co  Co1  1  0.88292  0.88292  0.88292  1
 Li  Li1  1  0.11933  0.11933  0.11933  1
 Li  Li2  1  0.50012  0.50012  0.50012  1
 O  O1  1  0.25868  0.25868  0.25868  1
 O  O2  1  0.25171  0.71190  0.25171  1
 O  O3  1  0.25171  0.25171  0.71190  1
 O  O4  1  0.71190  0.25171  0.25171  1
 O  O5  1  0.28266  0.74658  0.74658  1
 O  O6  1  0.74658  0.74658  0.28266  1
 O  O7  1  0.74658  0.28266  0.74658  1
 O  O8  1  0.74317  0.74317  0.74317  1
 Ti  Ti1  1  0.00742  0.49861  0.49861  1
 Ti  Ti2  1  0.49861  0.49861  0.00742  1
 Ti  Ti3  1  0.49861  0.00742  0.49861  1
