CIF file written using JARVIS-Tools package.
data_BaBOF3
_symmetry_space_group_name_H-M  'Pnma'
_cell_length_a       5.12933
_cell_length_b       6.86317
_cell_length_c       9.24892
_cell_angle_alpha    90
_cell_angle_beta     90
_cell_angle_gamma    90

_symmetry_Int_Tables_number  62
_chemical_formula_structural  BaBOF3
_chemical_formula_sum  Ba4B4O4F2
_cell_volume  325.59410380305656
_cell_formula_units_Z  4
loop_
  _symmetry_equiv_pos_site_id
 _symmetry_equiv_pos_as_xyz
 1  'x, y, z'
loop_
 _atom_site_type_symbol
 _atom_site_label
 _atom_site_symmetry_multiplicity
 _atom_site_fract_x
 _atom_site_fract_y
 _atom_site_fract_z
 _atom_site_fract_occupancy
 B  B1  1  0.25000  0.82475  0.57824  1
 B  B2  1  0.75000  0.17525  0.42176  1
 B  B3  1  0.75000  0.32475  0.92176  1
 B  B4  1  0.25000  0.67525  0.07824  1
 Ba  Ba1  1  0.25000  0.32788  0.69119  1
 Ba  Ba2  1  0.75000  0.67212  0.30881  1
 Ba  Ba3  1  0.75000  0.82788  0.80881  1
 Ba  Ba4  1  0.25000  0.17212  0.19119  1
 F  F1  1  0.02470  0.81626  0.07002  1
 F  F2  1  0.02470  0.68374  0.57002  1
 F  F3  1  0.47530  0.81626  0.07002  1
 F  F4  1  0.97530  0.18374  0.92998  1
 F  F5  1  0.52470  0.31626  0.42998  1
 F  F6  1  0.25000  0.91437  0.43555  1
 F  F7  1  0.75000  0.08563  0.56445  1
 F  F8  1  0.47530  0.68374  0.57002  1
 F  F9  1  0.25000  0.58563  0.93555  1
 F  F10  1  0.97530  0.31626  0.42998  1
 F  F11  1  0.52470  0.18374  0.92998  1
 F  F12  1  0.75000  0.41437  0.06445  1
 O  O1  1  0.75000  0.43631  0.80220  1
 O  O2  1  0.25000  0.56369  0.19780  1
 O  O3  1  0.25000  0.93631  0.69780  1
 O  O4  1  0.75000  0.06369  0.30220  1
