CIF file written using JARVIS-Tools package.
data_SbO2
_symmetry_space_group_name_H-M  'C2/c'
_cell_length_a       4.91563
_cell_length_b       5.44334
_cell_length_c       6.56262
_cell_angle_alpha    103.988
_cell_angle_beta     111.994
_cell_angle_gamma    90

_symmetry_Int_Tables_number  15
_chemical_formula_structural  SbO2
_chemical_formula_sum  Sb4O8
_cell_volume  157.18887278403426
_cell_formula_units_Z  4
loop_
  _symmetry_equiv_pos_site_id
 _symmetry_equiv_pos_as_xyz
 1  'x, y, z'
loop_
 _atom_site_type_symbol
 _atom_site_label
 _atom_site_symmetry_multiplicity
 _atom_site_fract_x
 _atom_site_fract_y
 _atom_site_fract_z
 _atom_site_fract_occupancy
 O  O1  1  0.49514  0.53309  0.81315  1
 O  O2  1  0.68199  0.96691  0.18685  1
 O  O3  1  0.50486  0.46691  0.18685  1
 O  O4  1  0.31801  0.03309  0.81315  1
 O  O5  1  0.86820  0.33188  0.62244  1
 O  O6  1  0.24576  0.16812  0.37756  1
 O  O7  1  0.13180  0.66812  0.37756  1
 O  O8  1  0.75424  0.83188  0.62244  1
 Sb  Sb1  1  0.71912  0.25000  0.00000  1
 Sb  Sb2  1  0.28088  0.75000  -0.00000  1
 Sb  Sb3  1  0.50000  0.50000  0.50000  1
 Sb  Sb4  1  -0.00000  0.00000  0.50000  1
