CIF file written using JARVIS-Tools package.
data_GaHO2
_symmetry_space_group_name_H-M  'Pmn2_1'
_cell_length_a       2.99571
_cell_length_b       4.37141
_cell_length_c       4.96429
_cell_angle_alpha    90
_cell_angle_beta     90
_cell_angle_gamma    90

_symmetry_Int_Tables_number  31
_chemical_formula_structural  GaHO2
_chemical_formula_sum  Ga2H2O4
_cell_volume  65.00968498495145
_cell_formula_units_Z  2
loop_
  _symmetry_equiv_pos_site_id
 _symmetry_equiv_pos_as_xyz
 1  'x, y, z'
loop_
 _atom_site_type_symbol
 _atom_site_label
 _atom_site_symmetry_multiplicity
 _atom_site_fract_x
 _atom_site_fract_y
 _atom_site_fract_z
 _atom_site_fract_occupancy
 Ga  Ga1  1  0.50000  0.22442  0.50174  1
 Ga  Ga2  1  0.00000  0.77558  0.00174  1
 H  H1  1  0.50000  0.30453  0.01792  1
 H  H2  1  0.00000  0.69547  0.51792  1
 O  O1  1  0.00000  0.50479  0.64213  1
 O  O2  1  0.50000  0.49521  0.14213  1
 O  O3  1  0.00000  0.99030  0.35151  1
 O  O4  1  0.50000  0.00970  0.85151  1
