CIF file written using JARVIS-Tools package.
data_Li5CuP2O8
_symmetry_space_group_name_H-M  'Pm'
_cell_length_a       4.93704
_cell_length_b       6.17542
_cell_length_c       5.23198
_cell_angle_alpha    90
_cell_angle_beta     90.2203
_cell_angle_gamma    90

_symmetry_Int_Tables_number  6
_chemical_formula_structural  Li5CuP2O8
_chemical_formula_sum  Li5CuP2O8
_cell_volume  159.51328249373802
_cell_formula_units_Z  1
loop_
  _symmetry_equiv_pos_site_id
 _symmetry_equiv_pos_as_xyz
 1  'x, y, z'
loop_
 _atom_site_type_symbol
 _atom_site_label
 _atom_site_symmetry_multiplicity
 _atom_site_fract_x
 _atom_site_fract_y
 _atom_site_fract_z
 _atom_site_fract_occupancy
 Cu  Cu1  1  0.99522  0.50000  0.80715  1
 Li  Li1  1  0.49087  0.00000  0.16185  1
 Li  Li2  1  0.99445  0.75012  0.32601  1
 Li  Li3  1  0.49210  0.74688  0.67463  1
 Li  Li4  1  0.49210  0.25312  0.67463  1
 Li  Li5  1  0.99445  0.24988  0.32601  1
 O  O1  1  0.89548  0.00000  0.10771  1
 O  O2  1  0.31252  0.00000  0.82127  1
 O  O3  1  0.88636  0.79855  0.68112  1
 O  O4  1  0.38890  0.70822  0.31538  1
 O  O5  1  0.81300  0.50000  0.20166  1
 O  O6  1  0.41434  0.50000  0.89536  1
 O  O7  1  0.38890  0.29178  0.31538  1
 O  O8  1  0.88636  0.20145  0.68112  1
 P  P1  1  -0.00176  0.00000  0.82773  1
 P  P2  1  0.49931  0.50000  0.18299  1
