CIF file written using JARVIS-Tools package.
data_C3N4
_symmetry_space_group_name_H-M  'P-6m2'
_cell_length_a       4.78306
_cell_length_b       4.78306
_cell_length_c       6.24655
_cell_angle_alpha    90
_cell_angle_beta     90
_cell_angle_gamma    120

_symmetry_Int_Tables_number  187
_chemical_formula_structural  C3N4
_chemical_formula_sum  C6N8
_cell_volume  123.76085638818802
_cell_formula_units_Z  2
loop_
  _symmetry_equiv_pos_site_id
 _symmetry_equiv_pos_as_xyz
 1  'x, y, z'
loop_
 _atom_site_type_symbol
 _atom_site_label
 _atom_site_symmetry_multiplicity
 _atom_site_fract_x
 _atom_site_fract_y
 _atom_site_fract_z
 _atom_site_fract_occupancy
 C  C1  1  0.49017  0.98034  0.50000  1
 C  C2  1  0.49017  0.50983  0.50000  1
 C  C3  1  0.82420  0.17580  0.00000  1
 C  C4  1  0.82420  0.64839  0.00000  1
 C  C5  1  0.01966  0.50983  0.50000  1
 C  C6  1  0.35161  0.17580  0.00000  1
 N  N1  1  0.50415  0.49585  0.00000  1
 N  N2  1  0.17090  0.34179  0.50000  1
 N  N3  1  0.17090  0.82910  0.50000  1
 N  N4  1  0.00000  0.00000  0.00000  1
 N  N5  1  0.66667  0.33333  0.50000  1
 N  N6  1  0.99169  0.49585  0.00000  1
 N  N7  1  0.65821  0.82910  0.50000  1
 N  N8  1  0.50415  0.00831  0.00000  1
