CIF file written using JARVIS-Tools package.
data_YbLiF4
_symmetry_space_group_name_H-M  'I4_1/a'
_cell_length_a       5.37898
_cell_length_b       5.37899
_cell_length_c       6.16096
_cell_angle_alpha    115.883
_cell_angle_beta     115.883
_cell_angle_gamma    90

_symmetry_Int_Tables_number  88
_chemical_formula_structural  YbLiF4
_chemical_formula_sum  Yb2Li2F8
_cell_volume  140.23240277657882
_cell_formula_units_Z  2
loop_
  _symmetry_equiv_pos_site_id
 _symmetry_equiv_pos_as_xyz
 1  'x, y, z'
loop_
 _atom_site_type_symbol
 _atom_site_label
 _atom_site_symmetry_multiplicity
 _atom_site_fract_x
 _atom_site_fract_y
 _atom_site_fract_z
 _atom_site_fract_occupancy
 F  F1  1  0.69062  0.88586  0.91240  1
 F  F2  1  0.77823  0.47347  0.08760  1
 F  F3  1  0.38586  0.72177  0.41240  1
 F  F4  1  0.02653  0.19062  0.41240  1
 F  F5  1  0.22177  0.52653  0.91240  1
 F  F6  1  0.97347  0.80938  0.58760  1
 F  F7  1  0.30938  0.11414  0.08760  1
 F  F8  1  0.61414  0.27823  0.58760  1
 Li  Li1  1  0.12500  0.37500  0.25000  1
 Li  Li2  1  0.87500  0.62500  0.75000  1
 Yb  Yb1  1  0.62500  0.87500  0.25000  1
 Yb  Yb2  1  0.37500  0.12500  0.75000  1
