CIF file written using JARVIS-Tools package.
data_TaGaO4
_symmetry_space_group_name_H-M  'Pnc2'
_cell_length_a       4.67172
_cell_length_b       4.99279
_cell_length_c       5.6295
_cell_angle_alpha    90
_cell_angle_beta     90
_cell_angle_gamma    90

_symmetry_Int_Tables_number  30
_chemical_formula_structural  TaGaO4
_chemical_formula_sum  Ta2Ga2O8
_cell_volume  131.30787949820314
_cell_formula_units_Z  2
loop_
  _symmetry_equiv_pos_site_id
 _symmetry_equiv_pos_as_xyz
 1  'x, y, z'
loop_
 _atom_site_type_symbol
 _atom_site_label
 _atom_site_symmetry_multiplicity
 _atom_site_fract_x
 _atom_site_fract_y
 _atom_site_fract_z
 _atom_site_fract_occupancy
 Ga  Ga1  1  0.00000  0.50000  0.17152  1
 Ga  Ga2  1  0.50000  0.50000  0.67152  1
 O  O1  1  0.77475  0.16972  0.11410  1
 O  O2  1  0.77102  0.67776  0.89147  1
 O  O3  1  0.72898  0.67776  0.39147  1
 O  O4  1  0.72525  0.16972  0.61410  1
 O  O5  1  0.27102  0.32224  0.39147  1
 O  O6  1  0.27475  0.83028  0.61410  1
 O  O7  1  0.22525  0.83028  0.11410  1
 O  O8  1  0.22898  0.32224  0.89147  1
 Ta  Ta1  1  0.00000  0.00000  0.81735  1
 Ta  Ta2  1  0.50000  0.00000  0.31735  1
