CIF file written using JARVIS-Tools package.
data_H14C9O3
_symmetry_space_group_name_H-M  'P-1'
_cell_length_a       5.93347
_cell_length_b       5.86685
_cell_length_c       13.4652
_cell_angle_alpha    91.4227
_cell_angle_beta     92.2758
_cell_angle_gamma    117.168

_symmetry_Int_Tables_number  2
_chemical_formula_structural  H14C9O3
_chemical_formula_sum  H28C8O6
_cell_volume  416.20261108167807
_cell_formula_units_Z  2
loop_
  _symmetry_equiv_pos_site_id
 _symmetry_equiv_pos_as_xyz
 1  'x, y, z'
loop_
 _atom_site_type_symbol
 _atom_site_label
 _atom_site_symmetry_multiplicity
 _atom_site_fract_x
 _atom_site_fract_y
 _atom_site_fract_z
 _atom_site_fract_occupancy
 C  C1  1  0.46998  0.31730  0.69430  1
 C  C2  1  0.65622  0.30835  0.04785  1
 C  C3  1  0.81004  0.56122  0.41449  1
 C  C4  1  0.53002  0.68270  0.30570  1
 C  C5  1  0.18996  0.43878  0.58551  1
 C  C6  1  0.99549  0.10288  0.70936  1
 C  C7  1  0.01460  0.97037  0.18297  1
 C  C8  1  0.34378  0.69165  0.95215  1
 C  C9  1  0.77112  0.51591  0.12759  1
 C  C10  1  0.10065  0.23393  0.89360  1
 C  C11  1  0.22888  0.48409  0.87241  1
 C  C12  1  0.74208  0.43409  0.23290  1
 C  C13  1  0.25792  0.56591  0.76710  1
 C  C14  1  0.77060  0.64416  0.31062  1
 C  C15  1  0.22940  0.35584  0.68938  1
 C  C16  1  0.98540  0.02963  0.81703  1
 C  C17  1  0.89935  0.76607  0.10640  1
 C  C18  1  0.00451  0.89712  0.29064  1
 H  H1  1  0.91906  0.81903  0.02904  1
 H  H2  1  0.08094  0.18097  0.97096  1
 H  H3  1  0.55803  0.26318  0.23766  1
 H  H4  1  0.72192  0.16312  0.06001  1
 H  H5  1  0.11047  0.62785  0.75068  1
 H  H6  1  0.44197  0.73682  0.76234  1
 H  H7  1  0.98623  0.94399  0.66130  1
 H  H8  1  0.59361  0.17669  0.40487  1
 H  H9  1  0.40639  0.82331  0.59513  1
 H  H10  1  0.51578  0.22227  0.55520  1
 H  H11  1  -0.01659  0.53639  0.41676  1
 H  H12  1  0.01659  0.46361  0.58324  1
 H  H13  1  0.83445  0.70867  0.47184  1
 H  H14  1  0.16555  0.29133  0.52816  1
 H  H15  1  0.50701  0.75459  0.23324  1
 H  H16  1  0.88953  0.37215  0.24932  1
 H  H17  1  0.36169  0.49841  0.31346  1
 H  H18  1  0.49299  0.24541  0.76676  1
 H  H19  1  0.44898  0.21199  0.05308  1
 H  H20  1  0.55102  0.78801  0.94692  1
 H  H21  1  0.48422  0.77773  0.44480  1
 H  H22  1  0.27808  0.83688  0.93999  1
 H  H23  1  0.70231  0.38105  0.97318  1
 H  H24  1  0.29769  0.61895  0.02682  1
 H  H25  1  0.17932  0.88037  0.30932  1
 H  H26  1  0.82068  0.11963  0.69068  1
 H  H27  1  0.01377  0.05601  0.33870  1
 H  H28  1  0.63831  0.50159  0.68654  1
 O  O1  1  0.12546  0.20015  0.16142  1
 O  O2  1  0.45839  0.13328  0.61860  1
 O  O3  1  0.40477  0.67160  0.55970  1
 O  O4  1  0.59523  0.32840  0.44030  1
 O  O5  1  0.87454  0.79985  0.83858  1
 O  O6  1  0.54161  0.86672  0.38140  1
