CIF file written using JARVIS-Tools package.
data_NiPbF6
_symmetry_space_group_name_H-M  'R-3'
_cell_length_a       5.65713
_cell_length_b       5.65713
_cell_length_c       5.65713
_cell_angle_alpha    54.115
_cell_angle_beta     54.115
_cell_angle_gamma    54.115

_symmetry_Int_Tables_number  148
_chemical_formula_structural  NiPbF6
_chemical_formula_sum  NiPbF6
_cell_volume  110.42843629361131
_cell_formula_units_Z  1
loop_
  _symmetry_equiv_pos_site_id
 _symmetry_equiv_pos_as_xyz
 1  'x, y, z'
loop_
 _atom_site_type_symbol
 _atom_site_label
 _atom_site_symmetry_multiplicity
 _atom_site_fract_x
 _atom_site_fract_y
 _atom_site_fract_z
 _atom_site_fract_occupancy
 F  F1  1  0.38361  0.01417  0.82024  1
 F  F2  1  0.01417  0.82024  0.38361  1
 F  F3  1  0.17976  0.61639  0.98583  1
 F  F4  1  0.98583  0.17976  0.61639  1
 F  F5  1  0.61639  0.98583  0.17976  1
 F  F6  1  0.82024  0.38361  0.01417  1
 Ni  Ni1  1  0.00000  0.00000  0.00000  1
 Pb  Pb1  1  0.50000  0.50000  0.50000  1
