CIF file written using JARVIS-Tools package.
data_Ho2CdS4
_symmetry_space_group_name_H-M  'I-4m2'
_cell_length_a       7.74409
_cell_length_b       10.2415
_cell_length_c       6.70219
_cell_angle_alpha    29.2105
_cell_angle_beta     54.7088
_cell_angle_gamma    40.8742

_symmetry_Int_Tables_number  119
_chemical_formula_structural  Ho2CdS4
_chemical_formula_sum  Ho2CdS4
_cell_volume  164.03039331664476
_cell_formula_units_Z  1
loop_
  _symmetry_equiv_pos_site_id
 _symmetry_equiv_pos_as_xyz
 1  'x, y, z'
loop_
 _atom_site_type_symbol
 _atom_site_label
 _atom_site_symmetry_multiplicity
 _atom_site_fract_x
 _atom_site_fract_y
 _atom_site_fract_z
 _atom_site_fract_occupancy
 Cd  Cd1  1  0.25000  0.50002  0.99997  1
 Ho  Ho1  1  0.50001  -0.00000  0.00000  1
 Ho  Ho2  1  0.75000  0.50000  0.00000  1
 S  S1  1  0.99473  0.49997  0.51056  1
 S  S2  1  0.50526  0.50000  0.48946  1
 S  S3  1  0.25302  0.00001  0.49395  1
 S  S4  1  0.74697  -0.00000  0.50605  1
