CIF file written using JARVIS-Tools package.
data_DyAgTe2
_symmetry_space_group_name_H-M  'P-42_1m'
_cell_length_a       7.0861
_cell_length_b       7.0861
_cell_length_c       4.68797
_cell_angle_alpha    90
_cell_angle_beta     90
_cell_angle_gamma    90

_symmetry_Int_Tables_number  113
_chemical_formula_structural  DyAgTe2
_chemical_formula_sum  Dy2Ag2Te4
_cell_volume  235.39621017611992
_cell_formula_units_Z  2
loop_
  _symmetry_equiv_pos_site_id
 _symmetry_equiv_pos_as_xyz
 1  'x, y, z'
loop_
 _atom_site_type_symbol
 _atom_site_label
 _atom_site_symmetry_multiplicity
 _atom_site_fract_x
 _atom_site_fract_y
 _atom_site_fract_z
 _atom_site_fract_occupancy
 Ag  Ag1  1  0.00000  0.00000  0.00000  1
 Ag  Ag2  1  0.50000  0.50000  0.00000  1
 Dy  Dy1  1  0.50000  0.00000  0.18744  1
 Dy  Dy2  1  0.00000  0.50000  0.81256  1
 Te  Te1  1  0.20267  0.29733  0.29522  1
 Te  Te2  1  0.70267  0.20267  0.70478  1
 Te  Te3  1  0.79733  0.70267  0.29522  1
 Te  Te4  1  0.29733  0.79733  0.70478  1
