CIF file written using JARVIS-Tools package.
data_HBr
_symmetry_space_group_name_H-M  'I4/mmm'
_cell_length_a       3.97142
_cell_length_b       5.08799
_cell_length_c       3.97168
_cell_angle_alpha    50.1645
_cell_angle_beta     79.6664
_cell_angle_gamma    50.1691

_symmetry_Int_Tables_number  139
_chemical_formula_structural  HBr
_chemical_formula_sum  HBr
_cell_volume  43.545210734925334
_cell_formula_units_Z  1
loop_
  _symmetry_equiv_pos_site_id
 _symmetry_equiv_pos_as_xyz
 1  'x, y, z'
loop_
 _atom_site_type_symbol
 _atom_site_label
 _atom_site_symmetry_multiplicity
 _atom_site_fract_x
 _atom_site_fract_y
 _atom_site_fract_z
 _atom_site_fract_occupancy
 Br  Br1  1  0.50000  0.50000  0.50000  1
 H  H1  1  0.00000  0.00000  0.00000  1
