CIF file written using JARVIS-Tools package.
data_BiF5
_symmetry_space_group_name_H-M  'Immm'
_cell_length_a       3.90456
_cell_length_b       5.49357
_cell_length_c       5.49356
_cell_angle_alpha    51.0154
_cell_angle_beta     69.1836
_cell_angle_gamma    69.1836

_symmetry_Int_Tables_number  71
_chemical_formula_structural  BiF5
_chemical_formula_sum  BiF5
_cell_volume  84.19656540035001
_cell_formula_units_Z  1
loop_
  _symmetry_equiv_pos_site_id
 _symmetry_equiv_pos_as_xyz
 1  'x, y, z'
loop_
 _atom_site_type_symbol
 _atom_site_label
 _atom_site_symmetry_multiplicity
 _atom_site_fract_x
 _atom_site_fract_y
 _atom_site_fract_z
 _atom_site_fract_occupancy
 Bi  Bi1  1  0.00000  0.00000  0.00000  1
 F  F1  1  0.50000  0.76073  0.23927  1
 F  F2  1  0.50000  0.23927  0.76073  1
 F  F3  1  0.77727  0.22273  0.22273  1
 F  F4  1  0.22273  0.77727  0.77727  1
 F  F5  1  -0.00000  0.50000  0.50000  1
