CIF file written using JARVIS-Tools package.
data_Cu2WS4
_symmetry_space_group_name_H-M  'P-42m'
_cell_length_a       5.4384
_cell_length_b       5.4384
_cell_length_c       5.20499
_cell_angle_alpha    90
_cell_angle_beta     90
_cell_angle_gamma    90

_symmetry_Int_Tables_number  111
_chemical_formula_structural  Cu2WS4
_chemical_formula_sum  Cu2WS4
_cell_volume  153.94399447271226
_cell_formula_units_Z  1
loop_
  _symmetry_equiv_pos_site_id
 _symmetry_equiv_pos_as_xyz
 1  'x, y, z'
loop_
 _atom_site_type_symbol
 _atom_site_label
 _atom_site_symmetry_multiplicity
 _atom_site_fract_x
 _atom_site_fract_y
 _atom_site_fract_z
 _atom_site_fract_occupancy
 Cu  Cu1  1  0.00000  0.50000  0.00000  1
 Cu  Cu2  1  0.50000  0.00000  0.00000  1
 S  S1  1  0.23770  0.76230  0.25177  1
 S  S2  1  0.76230  0.76230  0.74823  1
 S  S3  1  0.23770  0.23770  0.74823  1
 S  S4  1  0.76230  0.23770  0.25177  1
 W  W1  1  0.00000  0.00000  0.00000  1
