CIF file written using JARVIS-Tools package.
data_BiOF
_symmetry_space_group_name_H-M  'P4/nmm'
_cell_length_a       4.00444
_cell_length_b       4.00478
_cell_length_c       5.78882
_cell_angle_alpha    89.9953
_cell_angle_beta     89.9976
_cell_angle_gamma    90

_symmetry_Int_Tables_number  129
_chemical_formula_structural  BiOF
_chemical_formula_sum  Bi2O2F2
_cell_volume  92.83473636104272
_cell_formula_units_Z  2
loop_
  _symmetry_equiv_pos_site_id
 _symmetry_equiv_pos_as_xyz
 1  'x, y, z'
loop_
 _atom_site_type_symbol
 _atom_site_label
 _atom_site_symmetry_multiplicity
 _atom_site_fract_x
 _atom_site_fract_y
 _atom_site_fract_z
 _atom_site_fract_occupancy
 Bi  Bi1  1  0.74721  0.25157  0.78092  1
 Bi  Bi2  1  0.24717  0.75155  0.21512  1
 F  F1  1  0.24716  0.25157  0.49810  1
 F  F2  1  0.74719  0.75157  0.49797  1
 O  O1  1  0.24718  0.25160  0.99807  1
 O  O2  1  0.74720  0.75158  0.99798  1
