CIF file written using JARVIS-Tools package.
data_Li2FeSiO4
_symmetry_space_group_name_H-M  'C222_1'
_cell_length_a       5.32186
_cell_length_b       5.32186
_cell_length_c       6.16656
_cell_angle_alpha    90
_cell_angle_beta     90
_cell_angle_gamma    87.2156

_symmetry_Int_Tables_number  20
_chemical_formula_structural  Li2FeSiO4
_chemical_formula_sum  Li4Fe2Si2O8
_cell_volume  174.4442783332961
_cell_formula_units_Z  2
loop_
  _symmetry_equiv_pos_site_id
 _symmetry_equiv_pos_as_xyz
 1  'x, y, z'
loop_
 _atom_site_type_symbol
 _atom_site_label
 _atom_site_symmetry_multiplicity
 _atom_site_fract_x
 _atom_site_fract_y
 _atom_site_fract_z
 _atom_site_fract_occupancy
 Fe  Fe1  1  0.17707  0.17707  0.25000  1
 Fe  Fe2  1  0.82293  0.82293  0.75000  1
 Li  Li1  1  0.32075  0.67925  0.50000  1
 Li  Li2  1  0.18774  0.18774  0.75000  1
 Li  Li3  1  0.81226  0.81226  0.25000  1
 Li  Li4  1  0.67925  0.32075  0.00000  1
 O  O1  1  0.18962  0.79890  0.22172  1
 O  O2  1  0.20110  0.81038  0.77828  1
 O  O3  1  0.29245  0.36980  -0.00161  1
 O  O4  1  0.63020  0.70755  0.00161  1
 O  O5  1  0.36980  0.29245  0.50161  1
 O  O6  1  0.70755  0.63020  0.49839  1
 O  O7  1  0.81038  0.20110  0.72172  1
 O  O8  1  0.79890  0.18962  0.27828  1
 Si  Si1  1  0.32181  0.67819  0.00000  1
 Si  Si2  1  0.67819  0.32181  0.50000  1
