CIF file written using JARVIS-Tools package.
data_ScHO2
_symmetry_space_group_name_H-M  'Pnma'
_cell_length_a       3.22312
_cell_length_b       4.78489
_cell_length_c       10.3435
_cell_angle_alpha    90
_cell_angle_beta     90
_cell_angle_gamma    90

_symmetry_Int_Tables_number  62
_chemical_formula_structural  ScHO2
_chemical_formula_sum  Sc4H4O8
_cell_volume  159.52100388445473
_cell_formula_units_Z  4
loop_
  _symmetry_equiv_pos_site_id
 _symmetry_equiv_pos_as_xyz
 1  'x, y, z'
loop_
 _atom_site_type_symbol
 _atom_site_label
 _atom_site_symmetry_multiplicity
 _atom_site_fract_x
 _atom_site_fract_y
 _atom_site_fract_z
 _atom_site_fract_occupancy
 H  H1  1  0.25000  0.10982  0.59154  1
 H  H2  1  0.25000  0.39018  0.09154  1
 H  H3  1  0.75000  0.89018  0.40846  1
 H  H4  1  0.75000  0.60982  0.90846  1
 O  O1  1  0.25000  0.81633  0.69415  1
 O  O2  1  0.25000  0.68367  0.19415  1
 O  O3  1  0.75000  0.18367  0.30585  1
 O  O4  1  0.75000  0.31633  0.80585  1
 O  O5  1  0.25000  0.30700  0.55917  1
 O  O6  1  0.25000  0.19300  0.05917  1
 O  O7  1  0.75000  0.69300  0.44083  1
 O  O8  1  0.75000  0.80700  0.94083  1
 Sc  Sc1  1  0.25000  0.42978  0.35570  1
 Sc  Sc2  1  0.25000  0.07022  0.85570  1
 Sc  Sc3  1  0.75000  0.57022  0.64430  1
 Sc  Sc4  1  0.75000  0.92978  0.14430  1
