CIF file written using JARVIS-Tools package.
data_KGa3
_symmetry_space_group_name_H-M  'I-4m2'
_cell_length_a       6.31152
_cell_length_b       6.31152
_cell_length_c       8.65593
_cell_angle_alpha    111.382
_cell_angle_beta     111.382
_cell_angle_gamma    90

_symmetry_Int_Tables_number  119
_chemical_formula_structural  KGa3
_chemical_formula_sum  K3Ga9
_cell_volume  295.4466771430399
_cell_formula_units_Z  3
loop_
  _symmetry_equiv_pos_site_id
 _symmetry_equiv_pos_as_xyz
 1  'x, y, z'
loop_
 _atom_site_type_symbol
 _atom_site_label
 _atom_site_symmetry_multiplicity
 _atom_site_fract_x
 _atom_site_fract_y
 _atom_site_fract_z
 _atom_site_fract_occupancy
 Ga  Ga1  1  0.77811  0.98360  0.55621  1
 Ga  Ga2  1  0.01640  0.22189  0.44379  1
 Ga  Ga3  1  0.70007  0.39383  0.78766  1
 Ga  Ga4  1  0.60617  0.29993  0.21234  1
 Ga  Ga5  1  0.60617  0.91242  0.21234  1
 Ga  Ga6  1  0.08758  0.39383  0.78766  1
 Ga  Ga7  1  0.77811  0.57261  0.55621  1
 Ga  Ga8  1  0.42739  0.22189  0.44379  1
 Ga  Ga9  1  0.50000  0.50000  0.00000  1
 K  K1  1  0.12724  0.62724  0.25447  1
 K  K2  1  0.37276  0.87276  0.74553  1
 K  K3  1  0.00000  0.00000  0.00000  1
