CIF file written using JARVIS-Tools package.
data_Zr7N4O8
_symmetry_space_group_name_H-M  'P-1'
_cell_length_a       6.1906
_cell_length_b       6.24921
_cell_length_c       6.44266
_cell_angle_alpha    100.388
_cell_angle_beta     99.7251
_cell_angle_gamma    99.2006

_symmetry_Int_Tables_number  2
_chemical_formula_structural  Zr7N4O8
_chemical_formula_sum  Zr7N4O8
_cell_volume  236.93155135031031
_cell_formula_units_Z  1
loop_
  _symmetry_equiv_pos_site_id
 _symmetry_equiv_pos_as_xyz
 1  'x, y, z'
loop_
 _atom_site_type_symbol
 _atom_site_label
 _atom_site_symmetry_multiplicity
 _atom_site_fract_x
 _atom_site_fract_y
 _atom_site_fract_z
 _atom_site_fract_occupancy
 N  N1  1  0.92999  0.07477  0.68263  1
 N  N2  1  0.07001  0.92523  0.31737  1
 N  N3  1  0.43344  0.59258  0.18136  1
 N  N4  1  0.56656  0.40742  0.81864  1
 O  O1  1  0.81626  0.57117  0.42952  1
 O  O2  1  0.18374  0.42883  0.57048  1
 O  O3  1  0.94437  0.32773  0.10807  1
 O  O4  1  0.57499  0.16962  0.40779  1
 O  O5  1  0.32340  0.08060  0.95025  1
 O  O6  1  0.42501  0.83038  0.59221  1
 O  O7  1  0.67660  0.91940  0.04975  1
 O  O8  1  0.05563  0.67227  0.89193  1
 Zr  Zr1  1  0.71849  0.87236  0.38258  1
 Zr  Zr2  1  0.15763  0.61411  0.32145  1
 Zr  Zr3  1  0.39596  0.67751  0.86621  1
 Zr  Zr4  1  0.60404  0.32249  0.13379  1
 Zr  Zr5  1  0.84237  0.38589  0.67855  1
 Zr  Zr6  1  0.00000  0.00000  0.00000  1
 Zr  Zr7  1  0.28151  0.12764  0.61742  1
