CIF file written using JARVIS-Tools package.
data_Ba3FeN3
_symmetry_space_group_name_H-M  'P6_3/m'
_cell_length_a       8.05544
_cell_length_b       8.05543
_cell_length_c       5.62192
_cell_angle_alpha    90
_cell_angle_beta     90
_cell_angle_gamma    120

_symmetry_Int_Tables_number  176
_chemical_formula_structural  Ba3FeN3
_chemical_formula_sum  Ba6Fe2N6
_cell_volume  315.9321311541591
_cell_formula_units_Z  2
loop_
  _symmetry_equiv_pos_site_id
 _symmetry_equiv_pos_as_xyz
 1  'x, y, z'
loop_
 _atom_site_type_symbol
 _atom_site_label
 _atom_site_symmetry_multiplicity
 _atom_site_fract_x
 _atom_site_fract_y
 _atom_site_fract_z
 _atom_site_fract_occupancy
 Ba  Ba1  1  0.72607  0.63721  0.75000  1
 Ba  Ba2  1  0.08886  0.72607  0.25000  1
 Ba  Ba3  1  0.63721  0.91114  0.25000  1
 Ba  Ba4  1  0.36279  0.08886  0.75000  1
 Ba  Ba5  1  0.91114  0.27393  0.75000  1
 Ba  Ba6  1  0.27393  0.36279  0.25000  1
 Fe  Fe1  1  0.66667  0.33333  0.25000  1
 Fe  Fe2  1  0.33333  0.66667  0.75000  1
 N  N1  1  0.55626  0.87316  0.75000  1
 N  N2  1  0.68310  0.55626  0.25000  1
 N  N3  1  0.87316  0.31690  0.25000  1
 N  N4  1  0.12684  0.68310  0.75000  1
 N  N5  1  0.31690  0.44374  0.75000  1
 N  N6  1  0.44374  0.12684  0.25000  1
