CIF file written using JARVIS-Tools package.
data_HfIN
_symmetry_space_group_name_H-M  'R-3m'
_cell_length_a       10.7532
_cell_length_b       10.7532
_cell_length_c       10.7532
_cell_angle_alpha    19.811
_cell_angle_beta     19.811
_cell_angle_gamma    19.811

_symmetry_Int_Tables_number  166
_chemical_formula_structural  HfIN
_chemical_formula_sum  Hf2I2N2
_cell_volume  124.92098146291212
_cell_formula_units_Z  2
loop_
  _symmetry_equiv_pos_site_id
 _symmetry_equiv_pos_as_xyz
 1  'x, y, z'
loop_
 _atom_site_type_symbol
 _atom_site_label
 _atom_site_symmetry_multiplicity
 _atom_site_fract_x
 _atom_site_fract_y
 _atom_site_fract_z
 _atom_site_fract_occupancy
 Hf  Hf1  1  0.79319  0.79319  0.79319  1
 Hf  Hf2  1  0.20681  0.20681  0.20681  1
 I  I1  1  0.39019  0.39019  0.39019  1
 I  I2  1  0.60981  0.60981  0.60981  1
 N  N1  1  0.13913  0.13913  0.13913  1
 N  N2  1  0.86087  0.86087  0.86087  1
