CIF file written using JARVIS-Tools package.
data_SF4
_symmetry_space_group_name_H-M  'I-42m'
_cell_length_a       4.59025
_cell_length_b       4.59025
_cell_length_c       4.85614
_cell_angle_alpha    58.0645
_cell_angle_beta     58.0646
_cell_angle_gamma    63.8708

_symmetry_Int_Tables_number  121
_chemical_formula_structural  SF4
_chemical_formula_sum  SF4
_cell_volume  71.83584811391526
_cell_formula_units_Z  1
loop_
  _symmetry_equiv_pos_site_id
 _symmetry_equiv_pos_as_xyz
 1  'x, y, z'
loop_
 _atom_site_type_symbol
 _atom_site_label
 _atom_site_symmetry_multiplicity
 _atom_site_fract_x
 _atom_site_fract_y
 _atom_site_fract_z
 _atom_site_fract_occupancy
 F  F1  1  0.34522  0.87759  0.12241  1
 F  F2  1  0.65478  0.12241  0.34522  1
 F  F3  1  0.12241  0.65478  0.87759  1
 F  F4  1  0.87759  0.34522  0.65478  1
 S  S1  1  0.00000  0.00000  0.00000  1
