CIF file written using JARVIS-Tools package.
data_Sr2CrO4
_symmetry_space_group_name_H-M  'I4/mmm'
_cell_length_a       3.79594
_cell_length_b       3.79595
_cell_length_c       6.88243
_cell_angle_alpha    106.008
_cell_angle_beta     106.008
_cell_angle_gamma    90.0001

_symmetry_Int_Tables_number  139
_chemical_formula_structural  Sr2CrO4
_chemical_formula_sum  Sr2CrO4
_cell_volume  91.3177840584627
_cell_formula_units_Z  1
loop_
  _symmetry_equiv_pos_site_id
 _symmetry_equiv_pos_as_xyz
 1  'x, y, z'
loop_
 _atom_site_type_symbol
 _atom_site_label
 _atom_site_symmetry_multiplicity
 _atom_site_fract_x
 _atom_site_fract_y
 _atom_site_fract_z
 _atom_site_fract_occupancy
 Cr  Cr1  1  0.00000  0.00000  0.00000  1
 O  O1  1  0.84288  0.84288  0.68576  1
 O  O2  1  0.15712  0.15712  0.31424  1
 O  O3  1  1.00000  0.50000  0.00000  1
 O  O4  1  0.50000  -0.00000  0.00000  1
 Sr  Sr1  1  0.64560  0.64560  0.29120  1
 Sr  Sr2  1  0.35440  0.35440  0.70880  1
