CIF file written using JARVIS-Tools package.
data_PrBiO4
_symmetry_space_group_name_H-M  'P2_1/c'
_cell_length_a       5.70894
_cell_length_b       7.95251
_cell_length_c       8.02731
_cell_angle_alpha    82.6786
_cell_angle_beta     89.9998
_cell_angle_gamma    89.9971

_symmetry_Int_Tables_number  14
_chemical_formula_structural  PrBiO4
_chemical_formula_sum  Pr4Bi4O6
_cell_volume  361.47150274548557
_cell_formula_units_Z  4
loop_
  _symmetry_equiv_pos_site_id
 _symmetry_equiv_pos_as_xyz
 1  'x, y, z'
loop_
 _atom_site_type_symbol
 _atom_site_label
 _atom_site_symmetry_multiplicity
 _atom_site_fract_x
 _atom_site_fract_y
 _atom_site_fract_z
 _atom_site_fract_occupancy
 Bi  Bi1  1  0.22695  0.83944  0.81635  1
 Bi  Bi2  1  0.27307  0.83944  0.31637  1
 Bi  Bi3  1  0.72693  0.16056  0.68364  1
 Bi  Bi4  1  0.77305  0.16056  0.18365  1
 O  O1  1  0.99319  0.34202  0.62001  1
 O  O2  1  0.90039  0.92181  0.68288  1
 O  O3  1  0.39205  0.83066  0.57162  1
 O  O4  1  0.59961  0.92183  0.18287  1
 O  O5  1  0.60795  0.16934  0.42838  1
 O  O6  1  0.10798  0.83065  0.07163  1
 O  O7  1  0.00681  0.65798  0.37999  1
 O  O8  1  0.49324  0.65799  0.87998  1
 O  O9  1  0.50623  0.38592  0.66443  1
 O  O10  1  0.09961  0.07819  0.31712  1
 O  O11  1  0.99371  0.38593  0.16443  1
 O  O12  1  0.00629  0.61407  0.83557  1
 O  O13  1  0.89202  0.16935  0.92837  1
 O  O14  1  0.50676  0.34201  0.12002  1
 O  O15  1  0.40039  0.07817  0.81713  1
 O  O16  1  0.49377  0.61408  0.33557  1
 Pr  Pr1  1  0.26765  0.36267  0.39250  1
 Pr  Pr2  1  0.23233  0.36263  0.89251  1
 Pr  Pr3  1  0.76767  0.63737  0.10749  1
 Pr  Pr4  1  0.73235  0.63733  0.60750  1
