CIF file written using JARVIS-Tools package.
data_Dy5AgS8
_symmetry_space_group_name_H-M  'I-4'
_cell_length_a       7.19816
_cell_length_b       7.19816
_cell_length_c       7.19816
_cell_angle_alpha    109.63
_cell_angle_beta     109.63
_cell_angle_gamma    109.155

_symmetry_Int_Tables_number  82
_chemical_formula_structural  Dy5AgS8
_chemical_formula_sum  Dy5AgS8
_cell_volume  287.09899886897097
_cell_formula_units_Z  1
loop_
  _symmetry_equiv_pos_site_id
 _symmetry_equiv_pos_as_xyz
 1  'x, y, z'
loop_
 _atom_site_type_symbol
 _atom_site_label
 _atom_site_symmetry_multiplicity
 _atom_site_fract_x
 _atom_site_fract_y
 _atom_site_fract_z
 _atom_site_fract_occupancy
 Ag  Ag1  1  0.87500  0.12500  0.75000  1
 Dy  Dy1  1  0.10798  0.74415  0.86764  1
 Dy  Dy2  1  0.25585  0.62349  0.36383  1
 Dy  Dy3  1  0.37651  0.24034  0.63236  1
 Dy  Dy4  1  0.62500  0.37500  0.25000  1
 Dy  Dy5  1  0.75966  0.89202  0.13617  1
 S  S1  1  0.14511  0.14255  0.13895  1
 S  S2  1  0.37958  0.51791  0.01023  1
 S  S3  1  0.63065  0.62042  0.63833  1
 S  S4  1  0.48209  0.99232  0.86167  1
 S  S5  1  0.50360  0.00616  0.36105  1
 S  S6  1  0.99384  0.85489  0.49744  1
 S  S7  1  0.85745  0.49640  0.00256  1
 S  S8  1  0.00768  0.36935  0.48977  1
