CIF file written using JARVIS-Tools package.
data_Na5LiN2
_symmetry_space_group_name_H-M  'Pm'
_cell_length_a       4.33367
_cell_length_b       4.37672
_cell_length_c       7.62098
_cell_angle_alpha    89.9998
_cell_angle_beta     89.7493
_cell_angle_gamma    89.9973

_symmetry_Int_Tables_number  6
_chemical_formula_structural  Na5LiN2
_chemical_formula_sum  Na5LiN2
_cell_volume  144.5478827386942
_cell_formula_units_Z  1
loop_
  _symmetry_equiv_pos_site_id
 _symmetry_equiv_pos_as_xyz
 1  'x, y, z'
loop_
 _atom_site_type_symbol
 _atom_site_label
 _atom_site_symmetry_multiplicity
 _atom_site_fract_x
 _atom_site_fract_y
 _atom_site_fract_z
 _atom_site_fract_occupancy
 Li  Li1  1  -0.00379  0.73010  0.22969  1
 N  N1  1  0.51871  0.23017  0.72143  1
 N  N2  1  0.47261  0.73016  0.21752  1
 Na  Na1  1  0.34169  0.23004  0.02849  1
 Na  Na2  1  0.63484  0.73005  0.89924  1
 Na  Na3  1  0.55284  0.23018  0.35650  1
 Na  Na4  1  0.46319  0.73017  0.55932  1
 Na  Na5  1  0.01692  0.23013  0.67082  1
