CIF file written using JARVIS-Tools package.
data_RbAuC2
_symmetry_space_group_name_H-M  'P4/mmm'
_cell_length_a       4.44934
_cell_length_b       4.44934
_cell_length_c       5.21093
_cell_angle_alpha    90
_cell_angle_beta     90
_cell_angle_gamma    90

_symmetry_Int_Tables_number  123
_chemical_formula_structural  RbAuC2
_chemical_formula_sum  RbAuC2
_cell_volume  103.1587800216167
_cell_formula_units_Z  1
loop_
  _symmetry_equiv_pos_site_id
 _symmetry_equiv_pos_as_xyz
 1  'x, y, z'
loop_
 _atom_site_type_symbol
 _atom_site_label
 _atom_site_symmetry_multiplicity
 _atom_site_fract_x
 _atom_site_fract_y
 _atom_site_fract_z
 _atom_site_fract_occupancy
 Au  Au1  1  0.00000  0.00000  0.00000  1
 C  C1  1  0.00000  0.00000  0.61927  1
 C  C2  1  0.00000  0.00000  0.38073  1
 Rb  Rb1  1  0.50000  0.50000  0.50000  1
