CIF file written using JARVIS-Tools package.
data_TaPt3
_symmetry_space_group_name_H-M  'Pmmn'
_cell_length_a       4.61765
_cell_length_b       4.93238
_cell_length_c       5.60871
_cell_angle_alpha    90
_cell_angle_beta     90
_cell_angle_gamma    90

_symmetry_Int_Tables_number  59
_chemical_formula_structural  TaPt3
_chemical_formula_sum  Ta2Pt6
_cell_volume  127.7440431534135
_cell_formula_units_Z  2
loop_
  _symmetry_equiv_pos_site_id
 _symmetry_equiv_pos_as_xyz
 1  'x, y, z'
loop_
 _atom_site_type_symbol
 _atom_site_label
 _atom_site_symmetry_multiplicity
 _atom_site_fract_x
 _atom_site_fract_y
 _atom_site_fract_z
 _atom_site_fract_occupancy
 Pt  Pt1  1  0.00000  0.83392  0.25017  1
 Pt  Pt2  1  0.50000  0.16608  0.24983  1
 Pt  Pt3  1  0.00000  0.83392  0.74983  1
 Pt  Pt4  1  0.50000  0.16608  0.75017  1
 Pt  Pt5  1  0.00000  0.34279  0.50000  1
 Pt  Pt6  1  0.50000  0.65721  0.00000  1
 Ta  Ta1  1  0.50000  0.66063  0.50000  1
 Ta  Ta2  1  0.00000  0.33937  0.00000  1
