CIF file written using JARVIS-Tools package.
data_Li4CoP2O8
_symmetry_space_group_name_H-M  'P-1'
_cell_length_a       4.86835
_cell_length_b       5.13347
_cell_length_c       6.16886
_cell_angle_alpha    94.7542
_cell_angle_beta     94.0753
_cell_angle_gamma    98.6215

_symmetry_Int_Tables_number  2
_chemical_formula_structural  Li4CoP2O8
_chemical_formula_sum  Li4CoP2O8
_cell_volume  151.35651019200097
_cell_formula_units_Z  1
loop_
  _symmetry_equiv_pos_site_id
 _symmetry_equiv_pos_as_xyz
 1  'x, y, z'
loop_
 _atom_site_type_symbol
 _atom_site_label
 _atom_site_symmetry_multiplicity
 _atom_site_fract_x
 _atom_site_fract_y
 _atom_site_fract_z
 _atom_site_fract_occupancy
 Co  Co1  1  0.00000  0.00000  0.00000  1
 Li  Li1  1  0.15578  0.29385  0.51708  1
 Li  Li2  1  0.33508  0.61215  0.20475  1
 Li  Li3  1  0.66492  0.38785  0.79525  1
 Li  Li4  1  0.84422  0.70615  0.48292  1
 O  O1  1  0.21955  0.69839  0.92244  1
 O  O2  1  0.24316  0.67814  0.51206  1
 O  O3  1  0.31436  0.19152  0.24139  1
 O  O4  1  0.30452  0.11670  0.74853  1
 O  O5  1  0.69548  0.88330  0.25147  1
 O  O6  1  0.68564  0.80848  0.75861  1
 O  O7  1  0.75684  0.32186  0.48794  1
 O  O8  1  0.78045  0.30161  0.07756  1
 P  P1  1  0.36825  0.82758  0.73271  1
 P  P2  1  0.63175  0.17242  0.26729  1
