CIF file written using JARVIS-Tools package.
data_Ca3AsN
_symmetry_space_group_name_H-M  'Pnma'
_cell_length_a       6.69994
_cell_length_b       6.69808
_cell_length_c       9.50885
_cell_angle_alpha    90
_cell_angle_beta     90
_cell_angle_gamma    90

_symmetry_Int_Tables_number  62
_chemical_formula_structural  Ca3AsN
_chemical_formula_sum  Ca2As4N4
_cell_volume  426.7261970531596
_cell_formula_units_Z  4
loop_
  _symmetry_equiv_pos_site_id
 _symmetry_equiv_pos_as_xyz
 1  'x, y, z'
loop_
 _atom_site_type_symbol
 _atom_site_label
 _atom_site_symmetry_multiplicity
 _atom_site_fract_x
 _atom_site_fract_y
 _atom_site_fract_z
 _atom_site_fract_occupancy
 As  As1  1  0.99806  0.01704  0.25000  1
 As  As2  1  0.50194  0.51704  0.25000  1
 As  As3  1  0.49806  0.48296  0.75000  1
 As  As4  1  0.00194  0.98296  0.75000  1
 Ca  Ca1  1  0.03992  0.49395  0.25000  1
 Ca  Ca2  1  0.78281  0.78282  0.47941  1
 Ca  Ca3  1  0.46008  0.99395  0.25000  1
 Ca  Ca4  1  0.96008  0.50605  0.75000  1
 Ca  Ca5  1  0.53992  0.00605  0.75000  1
 Ca  Ca6  1  0.21719  0.21718  0.52059  1
 Ca  Ca7  1  0.21719  0.21718  0.97941  1
 Ca  Ca8  1  0.28281  0.71718  0.52059  1
 Ca  Ca9  1  0.28281  0.71718  0.97941  1
 Ca  Ca10  1  0.78281  0.78282  0.02059  1
 Ca  Ca11  1  0.71719  0.28282  0.47941  1
 Ca  Ca12  1  0.71719  0.28282  0.02059  1
 N  N1  1  0.00000  0.50000  0.00000  1
 N  N2  1  0.00000  0.50000  0.50000  1
 N  N3  1  0.50000  0.00000  0.50000  1
 N  N4  1  0.50000  0.00000  0.00000  1
