CIF file written using JARVIS-Tools package.
data_CaGeO3
_symmetry_space_group_name_H-M  'Pnma'
_cell_length_a       5.31546
_cell_length_b       5.36169
_cell_length_c       7.53136
_cell_angle_alpha    90
_cell_angle_beta     90
_cell_angle_gamma    90

_symmetry_Int_Tables_number  62
_chemical_formula_structural  CaGeO3
_chemical_formula_sum  Ca4Ge4O2
_cell_volume  214.6423777467233
_cell_formula_units_Z  4
loop_
  _symmetry_equiv_pos_site_id
 _symmetry_equiv_pos_as_xyz
 1  'x, y, z'
loop_
 _atom_site_type_symbol
 _atom_site_label
 _atom_site_symmetry_multiplicity
 _atom_site_fract_x
 _atom_site_fract_y
 _atom_site_fract_z
 _atom_site_fract_occupancy
 Ca  Ca1  1  0.99135  0.04119  0.25000  1
 Ca  Ca2  1  0.49135  0.45881  0.75000  1
 Ca  Ca3  1  0.50865  0.54119  0.25000  1
 Ca  Ca4  1  0.00865  0.95881  0.75000  1
 Ge  Ge1  1  0.00000  0.50000  0.00000  1
 Ge  Ge2  1  0.50000  0.00000  0.00000  1
 Ge  Ge3  1  0.50000  0.00000  0.50000  1
 Ge  Ge4  1  0.00000  0.50000  0.50000  1
 O  O1  1  0.70944  0.28887  0.46101  1
 O  O2  1  0.42503  0.98414  0.25000  1
 O  O3  1  0.79056  0.78887  0.03899  1
 O  O4  1  0.29056  0.71113  0.96101  1
 O  O5  1  0.20944  0.21113  0.53899  1
 O  O6  1  0.07497  0.48414  0.25000  1
 O  O7  1  0.20944  0.21113  0.96101  1
 O  O8  1  0.70944  0.28887  0.03899  1
 O  O9  1  0.29056  0.71113  0.53899  1
 O  O10  1  0.57497  0.01586  0.75000  1
 O  O11  1  0.79056  0.78887  0.46101  1
 O  O12  1  0.92503  0.51586  0.75000  1
