CIF file written using JARVIS-Tools package.
data_K2TiS3
_symmetry_space_group_name_H-M  'C2/c'
_cell_length_a       6.52455
_cell_length_b       7.14324
_cell_length_c       7.14324
_cell_angle_alpha    71.1691
_cell_angle_beta     87.089
_cell_angle_gamma    87.0889

_symmetry_Int_Tables_number  15
_chemical_formula_structural  K2TiS3
_chemical_formula_sum  K4Ti2S6
_cell_volume  314.48695900243706
_cell_formula_units_Z  2
loop_
  _symmetry_equiv_pos_site_id
 _symmetry_equiv_pos_as_xyz
 1  'x, y, z'
loop_
 _atom_site_type_symbol
 _atom_site_label
 _atom_site_symmetry_multiplicity
 _atom_site_fract_x
 _atom_site_fract_y
 _atom_site_fract_z
 _atom_site_fract_occupancy
 K  K1  1  0.72037  0.17609  0.50796  1
 K  K2  1  0.22037  0.50796  0.17609  1
 K  K3  1  0.77963  0.49204  0.82391  1
 K  K4  1  0.27963  0.82391  0.49204  1
 S  S1  1  0.25000  0.35182  0.64818  1
 S  S2  1  0.75000  0.64818  0.35182  1
 S  S3  1  -0.00015  0.87592  0.84464  1
 S  S4  1  0.50015  0.15536  0.12408  1
 S  S5  1  0.49985  0.84464  0.87592  1
 S  S6  1  0.00015  0.12408  0.15536  1
 Ti  Ti1  1  0.75000  0.91477  0.08523  1
 Ti  Ti2  1  0.25000  0.08523  0.91477  1
