CIF file written using JARVIS-Tools package.
data_LiZnFe10O16
_symmetry_space_group_name_H-M  'R3m'
_cell_length_a       5.70753
_cell_length_b       5.70753
_cell_length_c       11.5879
_cell_angle_alpha    60.4923
_cell_angle_beta     60.4923
_cell_angle_gamma    60

_symmetry_Int_Tables_number  160
_chemical_formula_structural  LiZnFe10O16
_chemical_formula_sum  LiZnFe0O6
_cell_volume  268.89247385003785
_cell_formula_units_Z  1
loop_
  _symmetry_equiv_pos_site_id
 _symmetry_equiv_pos_as_xyz
 1  'x, y, z'
loop_
 _atom_site_type_symbol
 _atom_site_label
 _atom_site_symmetry_multiplicity
 _atom_site_fract_x
 _atom_site_fract_y
 _atom_site_fract_z
 _atom_site_fract_occupancy
 Fe  Fe1  1  0.61972  0.11762  0.32147  1
 Fe  Fe2  1  0.11762  0.61972  0.32147  1
 Fe  Fe3  1  0.63121  0.63121  0.80455  1
 Fe  Fe4  1  0.12848  0.63121  0.80455  1
 Fe  Fe5  1  0.63121  0.12848  0.80455  1
 Fe  Fe6  1  0.24890  0.24890  0.62665  1
 Fe  Fe7  1  0.62735  0.62735  0.55897  1
 Fe  Fe8  1  0.61972  0.61972  0.32147  1
 Fe  Fe9  1  0.00014  0.00014  0.99979  1
 Fe  Fe10  1  0.24896  0.24896  0.12657  1
 Li  Li1  1  0.00099  0.00099  0.49852  1
 O  O1  1  0.37128  0.37128  0.20692  1
 O  O2  1  0.87911  0.87911  0.91858  1
 O  O3  1  0.37128  0.84360  0.20692  1
 O  O4  1  0.37798  0.37798  0.43303  1
 O  O5  1  0.86016  0.41162  0.43404  1
 O  O6  1  0.86270  0.86270  0.20595  1
 O  O7  1  0.84360  0.37128  0.20692  1
 O  O8  1  0.87911  0.40463  0.91858  1
 O  O9  1  0.38736  0.38736  0.68704  1
 O  O10  1  0.38736  0.85120  0.68704  1
 O  O11  1  0.38822  0.38822  0.91767  1
 O  O12  1  0.86537  0.86537  0.70194  1
 O  O13  1  0.41162  0.86016  0.43404  1
 O  O14  1  0.85120  0.38736  0.68704  1
 O  O15  1  0.86016  0.86016  0.43404  1
 O  O16  1  0.40463  0.87911  0.91858  1
 Zn  Zn1  1  0.62460  0.62460  0.06311  1
