CIF file written using JARVIS-Tools package.
data_ScH3O3
_symmetry_space_group_name_H-M  'R-3'
_cell_length_a       6.75573
_cell_length_b       6.83238
_cell_length_c       6.83238
_cell_angle_alpha    109.697
_cell_angle_beta     109.244
_cell_angle_gamma    109.244

_symmetry_Int_Tables_number  148
_chemical_formula_structural  ScH3O3
_chemical_formula_sum  Sc4H2O2
_cell_volume  243.44667253205137
_cell_formula_units_Z  4
loop_
  _symmetry_equiv_pos_site_id
 _symmetry_equiv_pos_as_xyz
 1  'x, y, z'
loop_
 _atom_site_type_symbol
 _atom_site_label
 _atom_site_symmetry_multiplicity
 _atom_site_fract_x
 _atom_site_fract_y
 _atom_site_fract_z
 _atom_site_fract_occupancy
 H  H1  1  0.69142  0.73181  0.04029  1
 H  H2  1  0.04039  0.69152  0.73181  1
 H  H3  1  0.30858  0.26819  0.95971  1
 H  H4  1  0.45419  0.62891  0.17596  1
 H  H5  1  0.54581  0.37109  0.82404  1
 H  H6  1  0.95961  0.30848  0.26819  1
 H  H7  1  0.17472  0.45294  0.62891  1
 H  H8  1  0.72177  0.17596  0.54706  1
 H  H9  1  0.27823  0.82404  0.45294  1
 H  H10  1  0.34887  0.04029  0.30848  1
 H  H11  1  0.65113  0.95971  0.69152  1
 H  H12  1  0.82528  0.54706  0.37109  1
 O  O1  1  0.16743  0.68689  0.85616  1
 O  O2  1  0.68873  0.85616  0.16926  1
 O  O3  1  0.67548  0.50078  0.82874  1
 O  O4  1  0.31127  0.14384  0.83074  1
 O  O5  1  0.48053  0.16926  0.31311  1
 O  O6  1  0.32452  0.49922  0.17126  1
 O  O7  1  0.17470  0.32797  0.49922  1
 O  O8  1  0.51947  0.83074  0.68689  1
 O  O9  1  0.15326  0.82874  0.32797  1
 O  O10  1  0.84674  0.17126  0.67203  1
 O  O11  1  0.83257  0.31311  0.14384  1
 O  O12  1  0.82530  0.67203  0.50078  1
 Sc  Sc1  1  0.50000  0.50000  0.50000  1
 Sc  Sc2  1  -0.00000  0.50000  -0.00000  1
 Sc  Sc3  1  0.00000  0.00000  0.50000  1
 Sc  Sc4  1  0.50000  0.00000  -0.00000  1
