CIF file written using JARVIS-Tools package.
data_PrMnSi
_symmetry_space_group_name_H-M  'P4/nmm'
_cell_length_a       4.02987
_cell_length_b       4.02987
_cell_length_c       7.39952
_cell_angle_alpha    90
_cell_angle_beta     90
_cell_angle_gamma    90

_symmetry_Int_Tables_number  129
_chemical_formula_structural  PrMnSi
_chemical_formula_sum  Pr2Mn2Si2
_cell_volume  120.16744941575706
_cell_formula_units_Z  2
loop_
  _symmetry_equiv_pos_site_id
 _symmetry_equiv_pos_as_xyz
 1  'x, y, z'
loop_
 _atom_site_type_symbol
 _atom_site_label
 _atom_site_symmetry_multiplicity
 _atom_site_fract_x
 _atom_site_fract_y
 _atom_site_fract_z
 _atom_site_fract_occupancy
 Mn  Mn1  1  0.50000  0.50000  0.00000  1
 Mn  Mn2  1  0.00000  0.00000  0.00000  1
 Pr  Pr1  1  0.50000  0.00000  0.32874  1
 Pr  Pr2  1  0.00000  0.50000  0.67126  1
 Si  Si1  1  0.50000  0.00000  0.81808  1
 Si  Si2  1  0.00000  0.50000  0.18192  1
