CIF file written using JARVIS-Tools package.
data_BaAl4S7
_symmetry_space_group_name_H-M  'Pmn2_1'
_cell_length_a       5.91573
_cell_length_b       6.24649
_cell_length_c       14.8504
_cell_angle_alpha    90
_cell_angle_beta     90
_cell_angle_gamma    90

_symmetry_Int_Tables_number  31
_chemical_formula_structural  BaAl4S7
_chemical_formula_sum  Ba2Al8S4
_cell_volume  548.7590180024825
_cell_formula_units_Z  2
loop_
  _symmetry_equiv_pos_site_id
 _symmetry_equiv_pos_as_xyz
 1  'x, y, z'
loop_
 _atom_site_type_symbol
 _atom_site_label
 _atom_site_symmetry_multiplicity
 _atom_site_fract_x
 _atom_site_fract_y
 _atom_site_fract_z
 _atom_site_fract_occupancy
 Al  Al1  1  0.08819  0.82834  0.38073  1
 Al  Al2  1  0.07187  0.31372  0.74828  1
 Al  Al3  1  0.57187  0.68628  0.75172  1
 Al  Al4  1  0.58819  0.17166  0.11927  1
 Al  Al5  1  0.58819  0.17166  0.88073  1
 Al  Al6  1  0.08819  0.82834  0.61927  1
 Al  Al7  1  0.07187  0.31372  0.25172  1
 Al  Al8  1  0.57187  0.68628  0.24828  1
 Ba  Ba1  1  0.48771  0.33563  0.50000  1
 Ba  Ba2  1  0.98771  0.66437  0.00000  1
 S  S1  1  0.97266  0.63830  0.50000  1
 S  S2  1  0.46399  0.33081  0.74847  1
 S  S3  1  0.96894  0.19064  0.11747  1
 S  S4  1  0.46894  0.80936  0.38253  1
 S  S5  1  0.46894  0.80936  0.61747  1
 S  S6  1  0.47266  0.36170  0.00000  1
 S  S7  1  0.96399  0.66919  0.24847  1
 S  S8  1  0.48022  0.82748  0.11562  1
 S  S9  1  0.48022  0.82748  0.88438  1
 S  S10  1  0.98022  0.17252  0.61562  1
 S  S11  1  0.96894  0.19064  0.88253  1
 S  S12  1  0.46399  0.33081  0.25153  1
 S  S13  1  0.98022  0.17252  0.38438  1
 S  S14  1  0.96399  0.66919  0.75153  1
