CIF file written using JARVIS-Tools package.
data_ZrPbO3
_symmetry_space_group_name_H-M  'Amm2'
_cell_length_a       4.16003
_cell_length_b       4.22555
_cell_length_c       4.22554
_cell_angle_alpha    91.1225
_cell_angle_beta     90
_cell_angle_gamma    90

_symmetry_Int_Tables_number  38
_chemical_formula_structural  ZrPbO3
_chemical_formula_sum  ZrPbO3
_cell_volume  74.26389971113092
_cell_formula_units_Z  1
loop_
  _symmetry_equiv_pos_site_id
 _symmetry_equiv_pos_as_xyz
 1  'x, y, z'
loop_
 _atom_site_type_symbol
 _atom_site_label
 _atom_site_symmetry_multiplicity
 _atom_site_fract_x
 _atom_site_fract_y
 _atom_site_fract_z
 _atom_site_fract_occupancy
 O  O1  1  0.50000  0.44069  0.02933  1
 O  O2  1  0.50000  0.97067  0.55931  1
 O  O3  1  0.00000  0.44369  0.55631  1
 Pb  Pb1  1  0.00000  0.04668  0.95332  1
 Zr  Zr1  1  0.50000  0.49127  0.50873  1
