CIF file written using JARVIS-Tools package.
data_KRbS
_symmetry_space_group_name_H-M  'Pnma'
_cell_length_a       4.98326
_cell_length_b       8.1753
_cell_length_c       9.41622
_cell_angle_alpha    90
_cell_angle_beta     90
_cell_angle_gamma    90

_symmetry_Int_Tables_number  62
_chemical_formula_structural  KRbS
_chemical_formula_sum  K4Rb4S4
_cell_volume  383.61391162959325
_cell_formula_units_Z  4
loop_
  _symmetry_equiv_pos_site_id
 _symmetry_equiv_pos_as_xyz
 1  'x, y, z'
loop_
 _atom_site_type_symbol
 _atom_site_label
 _atom_site_symmetry_multiplicity
 _atom_site_fract_x
 _atom_site_fract_y
 _atom_site_fract_z
 _atom_site_fract_occupancy
 K  K1  1  0.75000  0.64892  0.42486  1
 K  K2  1  0.25000  0.35108  0.57514  1
 K  K3  1  0.75000  0.14892  0.07514  1
 K  K4  1  0.25000  0.85108  0.92486  1
 Rb  Rb1  1  0.25000  0.97816  0.31983  1
 Rb  Rb2  1  0.75000  0.02184  0.68017  1
 Rb  Rb3  1  0.25000  0.47816  0.18017  1
 Rb  Rb4  1  0.75000  0.52184  0.81983  1
 S  S1  1  0.25000  0.73680  0.60883  1
 S  S2  1  0.75000  0.26320  0.39117  1
 S  S3  1  0.25000  0.23680  0.89117  1
 S  S4  1  0.75000  0.76320  0.10883  1
