CIF file written using JARVIS-Tools package.
data_FeGe
_symmetry_space_group_name_H-M  'P2_13'
_cell_length_a       4.67416
_cell_length_b       4.67416
_cell_length_c       4.67416
_cell_angle_alpha    90
_cell_angle_beta     90
_cell_angle_gamma    90

_symmetry_Int_Tables_number  198
_chemical_formula_structural  FeGe
_chemical_formula_sum  Fe4Ge4
_cell_volume  102.11995899188524
_cell_formula_units_Z  4
loop_
  _symmetry_equiv_pos_site_id
 _symmetry_equiv_pos_as_xyz
 1  'x, y, z'
loop_
 _atom_site_type_symbol
 _atom_site_label
 _atom_site_symmetry_multiplicity
 _atom_site_fract_x
 _atom_site_fract_y
 _atom_site_fract_z
 _atom_site_fract_occupancy
 Fe  Fe1  1  0.13324  0.13324  0.13324  1
 Fe  Fe2  1  0.36676  0.86676  0.63324  1
 Fe  Fe3  1  0.63324  0.36676  0.86676  1
 Fe  Fe4  1  0.86676  0.63324  0.36676  1
 Ge  Ge1  1  0.84052  0.84052  0.84052  1
 Ge  Ge2  1  0.65948  0.15948  0.34052  1
 Ge  Ge3  1  0.34052  0.65948  0.15948  1
 Ge  Ge4  1  0.15948  0.34052  0.65948  1
