CIF file written using JARVIS-Tools package.
data_HfTe4Cl6
_symmetry_space_group_name_H-M  'P-1'
_cell_length_a       6.73248
_cell_length_b       6.71416
_cell_length_c       8.02821
_cell_angle_alpha    76.3489
_cell_angle_beta     73.5176
_cell_angle_gamma    85.4245

_symmetry_Int_Tables_number  2
_chemical_formula_structural  HfTe4Cl6
_chemical_formula_sum  HfTe4Cl6
_cell_volume  338.1237274255734
_cell_formula_units_Z  1
loop_
  _symmetry_equiv_pos_site_id
 _symmetry_equiv_pos_as_xyz
 1  'x, y, z'
loop_
 _atom_site_type_symbol
 _atom_site_label
 _atom_site_symmetry_multiplicity
 _atom_site_fract_x
 _atom_site_fract_y
 _atom_site_fract_z
 _atom_site_fract_occupancy
 Cl  Cl1  1  0.01930  0.21001  0.69781  1
 Cl  Cl2  1  -0.01930  0.78999  0.30219  1
 Cl  Cl3  1  0.12995  0.28138  0.08007  1
 Cl  Cl4  1  0.87005  0.71862  0.91993  1
 Cl  Cl5  1  0.64045  0.11989  0.11070  1
 Cl  Cl6  1  0.35955  0.88011  0.88930  1
 Hf  Hf1  1  0.00000  0.00000  0.00000  1
 Te  Te1  1  0.41330  0.50912  0.28910  1
 Te  Te2  1  0.58670  0.49088  0.71090  1
 Te  Te3  1  0.68113  0.27021  0.45212  1
 Te  Te4  1  0.31887  0.72979  0.54788  1
