CIF file written using JARVIS-Tools package.
data_H10C7O6
_symmetry_space_group_name_H-M  'P2_1'
_cell_length_a       6.55899
_cell_length_b       5.23182
_cell_length_c       10.9976
_cell_angle_alpha    90
_cell_angle_beta     95.3998
_cell_angle_gamma    90

_symmetry_Int_Tables_number  4
_chemical_formula_structural  H10C7O6
_chemical_formula_sum  H20C4O2
_cell_volume  375.712130914245
_cell_formula_units_Z  2
loop_
  _symmetry_equiv_pos_site_id
 _symmetry_equiv_pos_as_xyz
 1  'x, y, z'
loop_
 _atom_site_type_symbol
 _atom_site_label
 _atom_site_symmetry_multiplicity
 _atom_site_fract_x
 _atom_site_fract_y
 _atom_site_fract_z
 _atom_site_fract_occupancy
 C  C1  1  0.67871  0.37201  0.00866  1
 C  C2  1  0.97484  0.80940  0.22385  1
 C  C3  1  0.32129  0.87201  -0.00866  1
 C  C4  1  0.13988  0.97751  0.91477  1
 C  C5  1  0.86012  0.47751  0.08523  1
 C  C6  1  0.02516  0.30940  0.77615  1
 C  C7  1  0.54220  0.83395  0.35775  1
 C  C8  1  0.10873  0.44426  0.67064  1
 C  C9  1  0.76505  0.78350  0.41131  1
 C  C10  1  0.45780  0.33395  0.64225  1
 C  C11  1  0.44311  0.59852  0.69849  1
 C  C12  1  0.55689  0.09852  0.30151  1
 C  C13  1  0.89127  0.94426  0.32936  1
 C  C14  1  0.23495  0.28350  0.58869  1
 H  H1  1  0.49676  0.19716  0.71731  1
 H  H2  1  0.91095  0.16686  0.74217  1
 H  H3  1  0.80665  0.58079  0.41020  1
 H  H4  1  0.50324  0.69716  0.28269  1
 H  H5  1  0.01719  0.03963  0.38363  1
 H  H6  1  0.27553  0.28458  0.41004  1
 H  H7  1  0.72447  0.78458  0.58996  1
 H  H8  1  0.19335  0.08079  0.58980  1
 H  H9  1  0.32571  0.66771  0.44579  1
 H  H10  1  0.28656  0.67827  0.02051  1
 H  H11  1  0.71344  0.17827  0.97949  1
 H  H12  1  0.54193  0.37557  0.05858  1
 H  H13  1  0.67429  0.16771  0.55421  1
 H  H14  1  0.64978  0.49506  0.92784  1
 H  H15  1  0.45807  0.87557  0.94142  1
 H  H16  1  0.08905  0.66686  0.25783  1
 H  H17  1  0.95529  0.44878  0.83408  1
 H  H18  1  0.04471  0.94878  0.16592  1
 H  H19  1  0.98281  0.53963  0.61637  1
 H  H20  1  0.35022  0.99506  0.07216  1
 O  O1  1  0.03527  0.39603  0.08925  1
 O  O2  1  0.75145  0.15370  0.28237  1
 O  O3  1  0.24855  0.65370  0.71763  1
 O  O4  1  0.58368  0.74940  0.72345  1
 O  O5  1  0.41632  0.24940  0.27655  1
 O  O6  1  0.19827  0.38569  0.46677  1
 O  O7  1  0.80173  0.88569  0.53323  1
 O  O8  1  0.80700  0.68349  0.15201  1
 O  O9  1  0.19300  0.18349  0.84799  1
 O  O10  1  0.39281  0.83823  0.44238  1
 O  O11  1  0.60719  0.33823  0.55762  1
 O  O12  1  0.96473  0.89603  0.91075  1
