CIF file written using JARVIS-Tools package.
data_NaAlSiO4
_symmetry_space_group_name_H-M  'P2_13'
_cell_length_a       7.39037
_cell_length_b       7.39037
_cell_length_c       7.39037
_cell_angle_alpha    90
_cell_angle_beta     90
_cell_angle_gamma    90

_symmetry_Int_Tables_number  198
_chemical_formula_structural  NaAlSiO4
_chemical_formula_sum  Na4Al4Si4O6
_cell_volume  403.6445287683759
_cell_formula_units_Z  4
loop_
  _symmetry_equiv_pos_site_id
 _symmetry_equiv_pos_as_xyz
 1  'x, y, z'
loop_
 _atom_site_type_symbol
 _atom_site_label
 _atom_site_symmetry_multiplicity
 _atom_site_fract_x
 _atom_site_fract_y
 _atom_site_fract_z
 _atom_site_fract_occupancy
 Al  Al1  1  0.71468  0.78532  0.21468  1
 Al  Al2  1  0.78532  0.21468  0.71468  1
 Al  Al3  1  0.21468  0.71468  0.78532  1
 Al  Al4  1  0.28532  0.28532  0.28532  1
 Na  Na1  1  0.23040  0.26960  0.73040  1
 Na  Na2  1  0.26960  0.73040  0.23040  1
 Na  Na3  1  0.73040  0.23040  0.26960  1
 Na  Na4  1  0.76960  0.76960  0.76960  1
 O  O1  1  0.37171  0.16643  0.47415  1
 O  O2  1  0.47415  0.37171  0.16643  1
 O  O3  1  0.97415  0.12829  0.83357  1
 O  O4  1  0.87171  0.33357  0.52585  1
 O  O5  1  0.12829  0.83357  0.97415  1
 O  O6  1  0.64936  0.35064  0.85064  1
 O  O7  1  0.52585  0.87171  0.33357  1
 O  O8  1  0.16643  0.47415  0.37171  1
 O  O9  1  0.83357  0.97415  0.12829  1
 O  O10  1  0.14936  0.14936  0.14936  1
 O  O11  1  0.02585  0.62829  0.66643  1
 O  O12  1  0.62829  0.66643  0.02585  1
 O  O13  1  0.33357  0.52585  0.87171  1
 O  O14  1  0.35064  0.85064  0.64936  1
 O  O15  1  0.66643  0.02585  0.62829  1
 O  O16  1  0.85064  0.64936  0.35064  1
 Si  Si1  1  0.97703  0.52297  0.47703  1
 Si  Si2  1  0.52297  0.47703  0.97703  1
 Si  Si3  1  0.47703  0.97703  0.52297  1
 Si  Si4  1  0.02297  0.02297  0.02297  1
