CIF file written using JARVIS-Tools package.
data_MnSbSe2Br
_symmetry_space_group_name_H-M  'Pnma'
_cell_length_a       3.98512
_cell_length_b       9.9399
_cell_length_c       12.8913
_cell_angle_alpha    90
_cell_angle_beta     90
_cell_angle_gamma    90

_symmetry_Int_Tables_number  62
_chemical_formula_structural  MnSbSe2Br
_chemical_formula_sum  Mn4Sb4Se8Br4
_cell_volume  510.64489920493764
_cell_formula_units_Z  4
loop_
  _symmetry_equiv_pos_site_id
 _symmetry_equiv_pos_as_xyz
 1  'x, y, z'
loop_
 _atom_site_type_symbol
 _atom_site_label
 _atom_site_symmetry_multiplicity
 _atom_site_fract_x
 _atom_site_fract_y
 _atom_site_fract_z
 _atom_site_fract_occupancy
 Br  Br1  1  0.75000  0.56853  0.11065  1
 Br  Br2  1  0.25000  0.43147  0.88935  1
 Br  Br3  1  0.25000  0.93147  0.61065  1
 Br  Br4  1  0.75000  0.06853  0.38935  1
 Mn  Mn1  1  0.75000  0.49385  0.76288  1
 Mn  Mn2  1  0.25000  0.50615  0.23712  1
 Mn  Mn3  1  0.25000  0.00615  0.26288  1
 Mn  Mn4  1  0.75000  0.99385  0.73712  1
 Sb  Sb1  1  0.75000  0.68982  0.46422  1
 Sb  Sb2  1  0.25000  0.31018  0.53578  1
 Sb  Sb3  1  0.75000  0.18982  0.03578  1
 Sb  Sb4  1  0.25000  0.81018  0.96422  1
 Se  Se1  1  0.75000  0.44479  0.38132  1
 Se  Se2  1  0.25000  0.74902  0.32220  1
 Se  Se3  1  0.75000  0.94479  0.11868  1
 Se  Se4  1  0.75000  0.25098  0.67780  1
 Se  Se5  1  0.75000  0.75098  0.82220  1
 Se  Se6  1  0.25000  0.55521  0.61868  1
 Se  Se7  1  0.25000  0.24902  0.17780  1
 Se  Se8  1  0.25000  0.05521  0.88132  1
