CIF file written using JARVIS-Tools package.
data_MgV2O6
_symmetry_space_group_name_H-M  'Amm2'
_cell_length_a       5.10177
_cell_length_b       5.35744
_cell_length_c       5.54544
_cell_angle_alpha    89.9892
_cell_angle_beta     89.9999
_cell_angle_gamma    61.5713

_symmetry_Int_Tables_number  38
_chemical_formula_structural  MgV2O6
_chemical_formula_sum  MgV2O6
_cell_volume  133.2923835650498
_cell_formula_units_Z  1
loop_
  _symmetry_equiv_pos_site_id
 _symmetry_equiv_pos_as_xyz
 1  'x, y, z'
loop_
 _atom_site_type_symbol
 _atom_site_label
 _atom_site_symmetry_multiplicity
 _atom_site_fract_x
 _atom_site_fract_y
 _atom_site_fract_z
 _atom_site_fract_occupancy
 Mg  Mg1  1  0.18311  0.63375  0.49999  1
 O  O1  1  0.00483  0.50174  0.78211  1
 O  O2  1  0.49343  0.50162  0.21793  1
 O  O3  1  0.50564  0.98854  0.00002  1
 O  O4  1  0.49347  0.50161  0.78210  1
 O  O5  1  0.00484  0.50169  0.21793  1
 O  O6  1  0.98123  0.03809  0.49987  1
 V  V1  1  0.31647  0.36697  0.00001  1
 V  V2  1  0.69090  0.61814  0.00003  1
