CIF file written using JARVIS-Tools package.
data_MnO2
_symmetry_space_group_name_H-M  'R-3m'
_cell_length_a       4.76805
_cell_length_b       4.76805
_cell_length_c       4.76805
_cell_angle_alpha    35.189
_cell_angle_beta     35.189
_cell_angle_gamma    35.189

_symmetry_Int_Tables_number  166
_chemical_formula_structural  MnO2
_chemical_formula_sum  MnO2
_cell_volume  32.15273760014033
_cell_formula_units_Z  1
loop_
  _symmetry_equiv_pos_site_id
 _symmetry_equiv_pos_as_xyz
 1  'x, y, z'
loop_
 _atom_site_type_symbol
 _atom_site_label
 _atom_site_symmetry_multiplicity
 _atom_site_fract_x
 _atom_site_fract_y
 _atom_site_fract_z
 _atom_site_fract_occupancy
 Mn  Mn1  1  0.00000  0.00000  0.00000  1
 O  O1  1  0.26234  0.26234  0.26234  1
 O  O2  1  0.73766  0.73766  0.73766  1
