CIF file written using JARVIS-Tools package.
data_Tb2Fe2Si2C
_symmetry_space_group_name_H-M  'C2/m'
_cell_length_a       3.93426
_cell_length_b       5.66336
_cell_length_c       5.68027
_cell_angle_alpha    73.3903
_cell_angle_beta     69.7383
_cell_angle_gamma    69.6751

_symmetry_Int_Tables_number  12
_chemical_formula_structural  Tb2Fe2Si2C
_chemical_formula_sum  Tb2Fe2Si2C
_cell_volume  109.34902745985795
_cell_formula_units_Z  1
loop_
  _symmetry_equiv_pos_site_id
 _symmetry_equiv_pos_as_xyz
 1  'x, y, z'
loop_
 _atom_site_type_symbol
 _atom_site_label
 _atom_site_symmetry_multiplicity
 _atom_site_fract_x
 _atom_site_fract_y
 _atom_site_fract_z
 _atom_site_fract_occupancy
 C  C1  1  0.50000  0.50000  0.50000  1
 Fe  Fe1  1  0.69989  0.19404  0.40617  1
 Fe  Fe2  1  0.30011  0.80596  0.59383  1
 Si  Si1  1  0.66443  0.89044  0.78070  1
 Si  Si2  1  0.33557  0.10956  0.21930  1
 Tb  Tb1  1  0.94063  0.32468  0.79405  1
 Tb  Tb2  1  0.05937  0.67532  0.20595  1
