CIF file written using JARVIS-Tools package.
data_CrS2
_symmetry_space_group_name_H-M  'R-3m'
_cell_length_a       6.72605
_cell_length_b       6.72605
_cell_length_c       6.72605
_cell_angle_alpha    26.4725
_cell_angle_beta     26.4724
_cell_angle_gamma    26.4724

_symmetry_Int_Tables_number  166
_chemical_formula_structural  CrS2
_chemical_formula_sum  CrS2
_cell_volume  53.29391529676052
_cell_formula_units_Z  1
loop_
  _symmetry_equiv_pos_site_id
 _symmetry_equiv_pos_as_xyz
 1  'x, y, z'
loop_
 _atom_site_type_symbol
 _atom_site_label
 _atom_site_symmetry_multiplicity
 _atom_site_fract_x
 _atom_site_fract_y
 _atom_site_fract_z
 _atom_site_fract_occupancy
 Cr  Cr1  1  0.00000  0.00000  0.00000  1
 S  S1  1  0.59122  0.59122  0.59122  1
 S  S2  1  0.40878  0.40878  0.40878  1
