CIF file written using JARVIS-Tools package.
data_ZnSnSb2
_symmetry_space_group_name_H-M  'I-42d'
_cell_length_a       6.37312
_cell_length_b       6.37312
_cell_length_c       7.83128
_cell_angle_alpha    114.01
_cell_angle_beta     114.01
_cell_angle_gamma    90

_symmetry_Int_Tables_number  122
_chemical_formula_structural  ZnSnSb2
_chemical_formula_sum  Zn2Sn2Sb4
_cell_volume  260.13889564555154
_cell_formula_units_Z  2
loop_
  _symmetry_equiv_pos_site_id
 _symmetry_equiv_pos_as_xyz
 1  'x, y, z'
loop_
 _atom_site_type_symbol
 _atom_site_label
 _atom_site_symmetry_multiplicity
 _atom_site_fract_x
 _atom_site_fract_y
 _atom_site_fract_z
 _atom_site_fract_occupancy
 Sb  Sb1  1  0.90184  0.87500  0.25000  1
 Sb  Sb2  1  0.62500  0.09816  0.75000  1
 Sb  Sb3  1  0.12500  0.65184  0.75000  1
 Sb  Sb4  1  0.34816  0.37500  0.25000  1
 Sn  Sn1  1  0.75000  0.25000  0.50000  1
 Sn  Sn2  1  0.50000  0.50000  0.00000  1
 Zn  Zn1  1  0.25000  0.75000  0.50000  1
 Zn  Zn2  1  0.00000  0.00000  0.00000  1
