CIF file written using JARVIS-Tools package.
data_MoH4O5
_symmetry_space_group_name_H-M  'P-1'
_cell_length_a       4.04088
_cell_length_b       6.57155
_cell_length_c       7.50317
_cell_angle_alpha    90.8793
_cell_angle_beta     90.4956
_cell_angle_gamma    104.2

_symmetry_Int_Tables_number  2
_chemical_formula_structural  MoH4O5
_chemical_formula_sum  Mo2H8O0
_cell_volume  193.11951708156064
_cell_formula_units_Z  2
loop_
  _symmetry_equiv_pos_site_id
 _symmetry_equiv_pos_as_xyz
 1  'x, y, z'
loop_
 _atom_site_type_symbol
 _atom_site_label
 _atom_site_symmetry_multiplicity
 _atom_site_fract_x
 _atom_site_fract_y
 _atom_site_fract_z
 _atom_site_fract_occupancy
 H  H1  1  0.66857  0.58546  0.59593  1
 H  H2  1  0.66125  0.58094  0.09650  1
 H  H3  1  0.23951  0.37565  0.15328  1
 H  H4  1  0.26643  0.38106  0.64689  1
 H  H5  1  0.76049  0.62435  0.84672  1
 H  H6  1  0.73357  0.61894  0.35311  1
 H  H7  1  0.33143  0.41454  0.40407  1
 H  H8  1  0.33875  0.41906  0.90350  1
 Mo  Mo1  1  0.92117  0.00683  0.74979  1
 Mo  Mo2  1  0.07883  -0.00683  0.25021  1
 O  O1  1  0.12804  0.30196  0.75089  1
 O  O2  1  0.12386  0.29549  0.26027  1
 O  O3  1  0.00000  0.00000  0.00000  1
 O  O4  1  0.00000  0.00000  0.50000  1
 O  O5  1  0.50000  0.50000  -0.00000  1
 O  O6  1  0.50000  0.50000  0.50000  1
 O  O7  1  0.49715  0.00648  0.75225  1
 O  O8  1  0.50285  -0.00648  0.24775  1
 O  O9  1  0.87614  0.70451  0.73973  1
 O  O10  1  0.87196  0.69804  0.24911  1
