CIF file written using JARVIS-Tools package.
data_LiBi3O6
_symmetry_space_group_name_H-M  'R-3'
_cell_length_a       6.71518
_cell_length_b       6.71518
_cell_length_c       6.71518
_cell_angle_alpha    93.4449
_cell_angle_beta     93.4448
_cell_angle_gamma    93.4448

_symmetry_Int_Tables_number  148
_chemical_formula_structural  LiBi3O6
_chemical_formula_sum  Li2Bi6O2
_cell_volume  301.1013118799405
_cell_formula_units_Z  2
loop_
  _symmetry_equiv_pos_site_id
 _symmetry_equiv_pos_as_xyz
 1  'x, y, z'
loop_
 _atom_site_type_symbol
 _atom_site_label
 _atom_site_symmetry_multiplicity
 _atom_site_fract_x
 _atom_site_fract_y
 _atom_site_fract_z
 _atom_site_fract_occupancy
 Bi  Bi1  1  0.08573  0.56723  0.25895  1
 Bi  Bi2  1  0.25895  0.08573  0.56723  1
 Bi  Bi3  1  0.43277  0.74105  0.91427  1
 Bi  Bi4  1  0.56723  0.25895  0.08573  1
 Bi  Bi5  1  0.74105  0.91427  0.43277  1
 Bi  Bi6  1  0.91427  0.43277  0.74105  1
 Li  Li1  1  0.00000  0.00000  0.00000  1
 Li  Li2  1  0.50000  0.50000  0.50000  1
 O  O1  1  0.08712  0.68376  0.92063  1
 O  O2  1  0.92063  0.08712  0.68376  1
 O  O3  1  0.19107  0.40935  0.53385  1
 O  O4  1  0.31624  0.07937  0.91288  1
 O  O5  1  0.07937  0.91288  0.31624  1
 O  O6  1  0.68376  0.92063  0.08712  1
 O  O7  1  0.53385  0.19107  0.40935  1
 O  O8  1  0.59065  0.46615  0.80893  1
 O  O9  1  0.40935  0.53385  0.19107  1
 O  O10  1  0.80893  0.59065  0.46615  1
 O  O11  1  0.46615  0.80893  0.59065  1
 O  O12  1  0.91288  0.31624  0.07937  1
