CIF file written using JARVIS-Tools package.
data_Na4SnSe4
_symmetry_space_group_name_H-M  'P-42_1c'
_cell_length_a       8.16875
_cell_length_b       8.16875
_cell_length_c       7.29526
_cell_angle_alpha    90
_cell_angle_beta     90
_cell_angle_gamma    90

_symmetry_Int_Tables_number  114
_chemical_formula_structural  Na4SnSe4
_chemical_formula_sum  Na8Sn2Se8
_cell_volume  486.8016921297156
_cell_formula_units_Z  2
loop_
  _symmetry_equiv_pos_site_id
 _symmetry_equiv_pos_as_xyz
 1  'x, y, z'
loop_
 _atom_site_type_symbol
 _atom_site_label
 _atom_site_symmetry_multiplicity
 _atom_site_fract_x
 _atom_site_fract_y
 _atom_site_fract_z
 _atom_site_fract_occupancy
 Na  Na1  1  0.19629  0.40736  0.02940  1
 Na  Na2  1  0.59264  0.19629  0.97060  1
 Na  Na3  1  0.40736  0.80371  0.97060  1
 Na  Na4  1  0.80371  0.59264  0.02940  1
 Na  Na5  1  0.69629  0.09264  0.47060  1
 Na  Na6  1  0.30371  0.90736  0.47060  1
 Na  Na7  1  0.90736  0.69629  0.52940  1
 Na  Na8  1  0.09264  0.30371  0.52940  1
 Se  Se1  1  0.90255  0.24508  0.19279  1
 Se  Se2  1  0.75492  0.90255  0.80721  1
 Se  Se3  1  0.24508  0.09745  0.80721  1
 Se  Se4  1  0.09745  0.75492  0.19279  1
 Se  Se5  1  0.40255  0.25492  0.30721  1
 Se  Se6  1  0.25492  0.59745  0.69279  1
 Se  Se7  1  0.59745  0.74508  0.30721  1
 Se  Se8  1  0.74508  0.40255  0.69279  1
 Sn  Sn1  1  0.00000  0.00000  0.00000  1
 Sn  Sn2  1  0.50000  0.50000  0.50000  1
