CIF file written using JARVIS-Tools package.
data_MgGeP2
_symmetry_space_group_name_H-M  'I-42d'
_cell_length_a       8.18899
_cell_length_b       10.6214
_cell_length_c       6.76421
_cell_angle_alpha    29.5173
_cell_angle_beta     52.7464
_cell_angle_gamma    39.5556

_symmetry_Int_Tables_number  122
_chemical_formula_structural  MgGeP2
_chemical_formula_sum  Mg2Ge2P4
_cell_volume  180.51683297309418
_cell_formula_units_Z  2
loop_
  _symmetry_equiv_pos_site_id
 _symmetry_equiv_pos_as_xyz
 1  'x, y, z'
loop_
 _atom_site_type_symbol
 _atom_site_label
 _atom_site_symmetry_multiplicity
 _atom_site_fract_x
 _atom_site_fract_y
 _atom_site_fract_z
 _atom_site_fract_occupancy
 Ge  Ge1  1  0.50000  -0.00000  0.00000  1
 Ge  Ge2  1  0.25000  0.49999  0.00001  1
 Mg  Mg1  1  1.00000  0.00000  0.00001  1
 Mg  Mg2  1  0.75000  0.50000  0.00000  1
 P  P1  1  0.15143  0.97357  0.27643  1
 P  P2  1  0.59857  0.02643  0.22356  1
 P  P3  1  0.37500  0.47357  0.27642  1
 P  P4  1  0.87500  0.52643  0.22356  1
