CIF file written using JARVIS-Tools package.
data_H12C11O2
_symmetry_space_group_name_H-M  'P-1'
_cell_length_a       7.36774
_cell_length_b       7.5587
_cell_length_c       8.18388
_cell_angle_alpha    69.9361
_cell_angle_beta     82.283
_cell_angle_gamma    76.8047

_symmetry_Int_Tables_number  2
_chemical_formula_structural  H12C11O2
_chemical_formula_sum  H24C22O4
_cell_volume  416.01998721389606
_cell_formula_units_Z  2
loop_
  _symmetry_equiv_pos_site_id
 _symmetry_equiv_pos_as_xyz
 1  'x, y, z'
loop_
 _atom_site_type_symbol
 _atom_site_label
 _atom_site_symmetry_multiplicity
 _atom_site_fract_x
 _atom_site_fract_y
 _atom_site_fract_z
 _atom_site_fract_occupancy
 C  C1  1  0.44027  0.56260  0.80370  1
 C  C2  1  0.80141  0.17064  0.57879  1
 C  C3  1  0.33116  0.69565  0.34496  1
 C  C4  1  0.66884  0.30435  0.65504  1
 C  C5  1  0.27606  0.52594  0.35549  1
 C  C6  1  0.72394  0.47406  0.64451  1
 C  C7  1  0.39002  0.39653  0.28086  1
 C  C8  1  0.60998  0.60347  0.71914  1
 C  C9  1  0.55973  0.43740  0.19630  1
 C  C10  1  0.61922  0.60491  0.18532  1
 C  C11  1  0.19859  0.82936  0.42121  1
 C  C12  1  0.49475  0.26285  0.73962  1
 C  C13  1  0.19001  0.36871  0.90287  1
 C  C14  1  0.85586  0.82744  0.06869  1
 C  C15  1  0.14414  0.17256  0.93131  1
 C  C16  1  0.78689  0.88862  0.22931  1
 C  C17  1  0.21311  0.11138  0.77069  1
 C  C18  1  0.57432  0.91273  0.25702  1
 C  C19  1  0.42568  0.08727  0.74298  1
 C  C20  1  0.50525  0.73715  0.26038  1
 C  C21  1  0.38078  0.39509  0.81468  1
 C  C22  1  0.80999  0.63129  0.09713  1
 H  H1  1  0.47272  0.05547  0.62112  1
 H  H2  1  0.85778  0.50260  0.57923  1
 H  H3  1  0.00760  0.81880  0.04271  1
 H  H4  1  0.65358  0.73452  0.71104  1
 H  H5  1  0.65052  0.33724  0.13670  1
 H  H6  1  0.34948  0.66276  0.86330  1
 H  H7  1  0.82219  0.60202  0.97287  1
 H  H8  1  0.17781  0.39798  0.02713  1
 H  H9  1  0.08600  0.48174  0.82058  1
 H  H10  1  0.78925  0.93538  0.95325  1
 H  H11  1  0.21075  0.06462  0.04675  1
 H  H12  1  0.85073  0.77833  0.34476  1
 H  H13  1  0.34642  0.26548  0.28896  1
 H  H14  1  0.99240  0.18120  0.95729  1
 H  H15  1  0.17143  0.97645  0.78222  1
 H  H16  1  0.82857  0.02355  0.21778  1
 H  H17  1  0.02255  0.14951  0.42201  1
 H  H18  1  0.97745  0.85049  0.57799  1
 H  H19  1  0.49142  0.96088  0.84779  1
 H  H20  1  0.50858  0.03912  0.15221  1
 H  H21  1  0.14222  0.49740  0.42077  1
 H  H22  1  0.52728  0.94453  0.37888  1
 H  H23  1  0.14927  0.22167  0.65524  1
 H  H24  1  0.91400  0.51826  0.17942  1
 O  O1  1  0.80796  0.99339  0.63029  1
 O  O2  1  0.19204  0.00661  0.36971  1
 O  O3  1  0.92014  0.25243  0.45286  1
 O  O4  1  0.07986  0.74757  0.54714  1
