CIF file written using JARVIS-Tools package.
data_ScH3O3
_symmetry_space_group_name_H-M  'R-3'
_cell_length_a       6.79807
_cell_length_b       6.85866
_cell_length_c       6.79807
_cell_angle_alpha    109.652
_cell_angle_beta     109.29
_cell_angle_gamma    109.652

_symmetry_Int_Tables_number  148
_chemical_formula_structural  ScH3O3
_chemical_formula_sum  Sc4H2O2
_cell_volume  243.45412502908974
_cell_formula_units_Z  4
loop_
  _symmetry_equiv_pos_site_id
 _symmetry_equiv_pos_as_xyz
 1  'x, y, z'
loop_
 _atom_site_type_symbol
 _atom_site_label
 _atom_site_symmetry_multiplicity
 _atom_site_fract_x
 _atom_site_fract_y
 _atom_site_fract_z
 _atom_site_fract_occupancy
 H  H1  1  0.69072  0.73177  0.03977  1
 H  H2  1  0.17435  0.54586  0.72214  1
 H  H3  1  0.30928  0.26823  0.96023  1
 H  H4  1  0.45221  0.62850  0.17435  1
 H  H5  1  0.54779  0.37150  0.82565  1
 H  H6  1  0.82565  0.45414  0.27786  1
 H  H7  1  0.03977  0.30800  0.34905  1
 H  H8  1  0.72214  0.17629  0.54779  1
 H  H9  1  0.27786  0.82371  0.45221  1
 H  H10  1  0.34905  0.04105  0.30928  1
 H  H11  1  0.65095  0.95895  0.69072  1
 H  H12  1  0.96023  0.69200  0.65095  1
 O  O1  1  0.17258  0.67362  0.84736  1
 O  O2  1  0.68884  0.85552  0.17005  1
 O  O3  1  0.67478  0.50104  0.82742  1
 O  O4  1  0.31116  0.14448  0.82995  1
 O  O5  1  0.48121  0.16669  0.31116  1
 O  O6  1  0.32522  0.49896  0.17258  1
 O  O7  1  0.17005  0.31453  0.48121  1
 O  O8  1  0.51879  0.83331  0.68884  1
 O  O9  1  0.15264  0.82626  0.32522  1
 O  O10  1  0.84736  0.17374  0.67478  1
 O  O11  1  0.82742  0.32638  0.15264  1
 O  O12  1  0.82995  0.68547  0.51879  1
 Sc  Sc1  1  0.50000  0.50000  0.50000  1
 Sc  Sc2  1  0.00000  0.50000  -0.00000  1
 Sc  Sc3  1  0.00000  -0.00000  0.50000  1
 Sc  Sc4  1  0.50000  0.00000  0.00000  1
