CIF file written using JARVIS-Tools package.
data_BN
_symmetry_space_group_name_H-M  'P2_1/c'
_cell_length_a       3.55651
_cell_length_b       4.75099
_cell_length_c       4.9351
_cell_angle_alpha    90
_cell_angle_beta     90
_cell_angle_gamma    108.666

_symmetry_Int_Tables_number  14
_chemical_formula_structural  BN
_chemical_formula_sum  B4N4
_cell_volume  79.0019342862771
_cell_formula_units_Z  4
loop_
  _symmetry_equiv_pos_site_id
 _symmetry_equiv_pos_as_xyz
 1  'x, y, z'
loop_
 _atom_site_type_symbol
 _atom_site_label
 _atom_site_symmetry_multiplicity
 _atom_site_fract_x
 _atom_site_fract_y
 _atom_site_fract_z
 _atom_site_fract_occupancy
 B  B1  1  0.85831  0.35839  0.35729  1
 B  B2  1  0.14169  0.64161  0.64271  1
 B  B3  1  0.64169  0.14161  0.85729  1
 B  B4  1  0.35831  0.85839  0.14271  1
 N  N1  1  0.15810  0.65702  0.34377  1
 N  N2  1  0.65810  0.15702  0.15623  1
 N  N3  1  0.84190  0.34298  0.65623  1
 N  N4  1  0.34190  0.84298  0.84377  1
