CIF file written using JARVIS-Tools package.
data_KCrS2
_symmetry_space_group_name_H-M  'R-3m'
_cell_length_a       7.33592
_cell_length_b       7.33592
_cell_length_c       7.33592
_cell_angle_alpha    28.8334
_cell_angle_beta     28.8334
_cell_angle_gamma    28.8334

_symmetry_Int_Tables_number  166
_chemical_formula_structural  KCrS2
_chemical_formula_sum  KCrS2
_cell_volume  81.19403569636857
_cell_formula_units_Z  1
loop_
  _symmetry_equiv_pos_site_id
 _symmetry_equiv_pos_as_xyz
 1  'x, y, z'
loop_
 _atom_site_type_symbol
 _atom_site_label
 _atom_site_symmetry_multiplicity
 _atom_site_fract_x
 _atom_site_fract_y
 _atom_site_fract_z
 _atom_site_fract_occupancy
 Cr  Cr1  1  0.00000  0.00000  0.00000  1
 K  K1  1  0.50000  0.50000  0.50000  1
 S  S1  1  0.72610  0.72610  0.72610  1
 S  S2  1  0.27390  0.27390  0.27390  1
