CIF file written using JARVIS-Tools package.
data_NaHO
_symmetry_space_group_name_H-M  'P2_1/m'
_cell_length_a       3.40072
_cell_length_b       3.39708
_cell_length_c       5.75499
_cell_angle_alpha    90
_cell_angle_beta     105.982
_cell_angle_gamma    90

_symmetry_Int_Tables_number  11
_chemical_formula_structural  NaHO
_chemical_formula_sum  Na2H2O2
_cell_volume  63.91473086534448
_cell_formula_units_Z  2
loop_
  _symmetry_equiv_pos_site_id
 _symmetry_equiv_pos_as_xyz
 1  'x, y, z'
loop_
 _atom_site_type_symbol
 _atom_site_label
 _atom_site_symmetry_multiplicity
 _atom_site_fract_x
 _atom_site_fract_y
 _atom_site_fract_z
 _atom_site_fract_occupancy
 H  H1  1  0.03347  0.75000  0.58617  1
 H  H2  1  0.96653  0.25000  0.41383  1
 Na  Na1  1  0.33069  0.75000  0.17847  1
 Na  Na2  1  0.66931  0.25000  0.82153  1
 O  O1  1  0.85278  0.25000  0.23869  1
 O  O2  1  0.14722  0.75000  0.76131  1
