CIF file written using JARVIS-Tools package.
data_KCoO2
_symmetry_space_group_name_H-M  'I-42d'
_cell_length_a       5.33616
_cell_length_b       5.33616
_cell_length_c       5.33617
_cell_angle_alpha    100.597
_cell_angle_beta     114.083
_cell_angle_gamma    114.083

_symmetry_Int_Tables_number  122
_chemical_formula_structural  KCoO2
_chemical_formula_sum  K2Co2O4
_cell_volume  114.91009258423693
_cell_formula_units_Z  2
loop_
  _symmetry_equiv_pos_site_id
 _symmetry_equiv_pos_as_xyz
 1  'x, y, z'
loop_
 _atom_site_type_symbol
 _atom_site_label
 _atom_site_symmetry_multiplicity
 _atom_site_fract_x
 _atom_site_fract_y
 _atom_site_fract_z
 _atom_site_fract_occupancy
 Co  Co1  1  0.50000  0.75000  0.25000  1
 Co  Co2  1  0.00000  0.00000  0.00000  1
 K  K1  1  0.50000  0.25000  0.75000  1
 K  K2  1  1.00000  0.50000  0.50000  1
 O  O1  1  0.12293  0.37500  -0.00207  1
 O  O2  1  0.37707  0.00207  0.12500  1
 O  O3  1  0.62293  0.74793  0.62500  1
 O  O4  1  0.87707  0.87500  0.25207  1
