CIF file written using JARVIS-Tools package.
data_WO2
_symmetry_space_group_name_H-M  'R-3m'
_cell_length_a       5.15062
_cell_length_b       5.15062
_cell_length_c       5.15063
_cell_angle_alpha    33.0842
_cell_angle_beta     33.0842
_cell_angle_gamma    33.0842

_symmetry_Int_Tables_number  166
_chemical_formula_structural  WO2
_chemical_formula_sum  WO2
_cell_volume  36.23828014416106
_cell_formula_units_Z  1
loop_
  _symmetry_equiv_pos_site_id
 _symmetry_equiv_pos_as_xyz
 1  'x, y, z'
loop_
 _atom_site_type_symbol
 _atom_site_label
 _atom_site_symmetry_multiplicity
 _atom_site_fract_x
 _atom_site_fract_y
 _atom_site_fract_z
 _atom_site_fract_occupancy
 O  O1  1  0.75234  0.75234  0.75234  1
 O  O2  1  0.24766  0.24766  0.24766  1
 W  W1  1  0.50000  0.50000  0.50000  1
