CIF file written using JARVIS-Tools package.
data_Li2ZnCl4
_symmetry_space_group_name_H-M  'Fd-3m'
_cell_length_a       7.29076
_cell_length_b       7.29076
_cell_length_c       7.29076
_cell_angle_alpha    60
_cell_angle_beta     60
_cell_angle_gamma    60

_symmetry_Int_Tables_number  227
_chemical_formula_structural  Li2ZnCl4
_chemical_formula_sum  Li4Zn2Cl8
_cell_volume  274.032861623191
_cell_formula_units_Z  2
loop_
  _symmetry_equiv_pos_site_id
 _symmetry_equiv_pos_as_xyz
 1  'x, y, z'
loop_
 _atom_site_type_symbol
 _atom_site_label
 _atom_site_symmetry_multiplicity
 _atom_site_fract_x
 _atom_site_fract_y
 _atom_site_fract_z
 _atom_site_fract_occupancy
 Cl  Cl1  1  0.25404  0.25404  0.73789  1
 Cl  Cl2  1  0.74596  0.74596  0.74596  1
 Cl  Cl3  1  0.25404  0.25404  0.25404  1
 Cl  Cl4  1  0.74596  0.74596  0.26211  1
 Cl  Cl5  1  0.26211  0.74596  0.74596  1
 Cl  Cl6  1  0.74596  0.26211  0.74596  1
 Cl  Cl7  1  0.73789  0.25404  0.25404  1
 Cl  Cl8  1  0.25404  0.73789  0.25404  1
 Li  Li1  1  0.50000  0.00000  0.50000  1
 Li  Li2  1  -0.00000  0.50000  0.50000  1
 Li  Li3  1  0.50000  0.50000  0.50000  1
 Li  Li4  1  0.50000  0.50000  -0.00000  1
 Zn  Zn1  1  0.87500  0.87500  0.87500  1
 Zn  Zn2  1  0.12500  0.12500  0.12500  1
