CIF file written using JARVIS-Tools package.
data_RbNO3
_symmetry_space_group_name_H-M  'R32'
_cell_length_a       4.72317
_cell_length_b       4.72317
_cell_length_c       4.72317
_cell_angle_alpha    103.932
_cell_angle_beta     76.0682
_cell_angle_gamma    103.932

_symmetry_Int_Tables_number  155
_chemical_formula_structural  RbNO3
_chemical_formula_sum  RbNO3
_cell_volume  97.3715192342831
_cell_formula_units_Z  1
loop_
  _symmetry_equiv_pos_site_id
 _symmetry_equiv_pos_as_xyz
 1  'x, y, z'
loop_
 _atom_site_type_symbol
 _atom_site_label
 _atom_site_symmetry_multiplicity
 _atom_site_fract_x
 _atom_site_fract_y
 _atom_site_fract_z
 _atom_site_fract_occupancy
 N  N1  1  0.00000  0.00000  0.00000  1
 O  O1  1  -0.00000  0.21788  0.21788  1
 O  O2  1  0.21788  0.00000  0.78212  1
 O  O3  1  0.78212  0.78212  -0.00000  1
 Rb  Rb1  1  0.50000  0.50000  0.50000  1
