CIF file written using JARVIS-Tools package.
data_SrMnRe2
_symmetry_space_group_name_H-M  'F-43m'
_cell_length_a       4.55868
_cell_length_b       4.55868
_cell_length_c       4.55868
_cell_angle_alpha    60.0001
_cell_angle_beta     60.0003
_cell_angle_gamma    60.0003

_symmetry_Int_Tables_number  216
_chemical_formula_structural  SrMnRe2
_chemical_formula_sum  SrMnRe2
_cell_volume  66.98887231883253
_cell_formula_units_Z  1
loop_
  _symmetry_equiv_pos_site_id
 _symmetry_equiv_pos_as_xyz
 1  'x, y, z'
loop_
 _atom_site_type_symbol
 _atom_site_label
 _atom_site_symmetry_multiplicity
 _atom_site_fract_x
 _atom_site_fract_y
 _atom_site_fract_z
 _atom_site_fract_occupancy
 Mn  Mn1  1  0.50000  0.50000  0.50000  1
 Re  Re1  1  1.00000  1.00000  0.00000  1
 Re  Re2  1  0.75000  0.75000  0.75000  1
 Sr  Sr1  1  0.25000  0.25000  0.25000  1
