CIF file written using JARVIS-Tools package.
data_PtPb
_symmetry_space_group_name_H-M  'P6_3/mmc'
_cell_length_a       3.8547
_cell_length_b       3.8547
_cell_length_c       7.29093
_cell_angle_alpha    90
_cell_angle_beta     90
_cell_angle_gamma    120

_symmetry_Int_Tables_number  194
_chemical_formula_structural  PtPb
_chemical_formula_sum  Pt2Pb2
_cell_volume  93.8200829149329
_cell_formula_units_Z  2
loop_
  _symmetry_equiv_pos_site_id
 _symmetry_equiv_pos_as_xyz
 1  'x, y, z'
loop_
 _atom_site_type_symbol
 _atom_site_label
 _atom_site_symmetry_multiplicity
 _atom_site_fract_x
 _atom_site_fract_y
 _atom_site_fract_z
 _atom_site_fract_occupancy
 Pb  Pb1  1  0.00000  0.00000  0.50000  1
 Pb  Pb2  1  0.00000  0.00000  0.00000  1
 Pt  Pt1  1  0.66667  0.33333  0.75000  1
 Pt  Pt2  1  0.33333  0.66667  0.25000  1
