CIF file written using JARVIS-Tools package.
data_Fe2NiO4
_symmetry_space_group_name_H-M  'Imma'
_cell_length_a       5.80907
_cell_length_b       5.7157
_cell_length_c       5.80907
_cell_angle_alpha    60.5302
_cell_angle_beta     60.0187
_cell_angle_gamma    60.5302

_symmetry_Int_Tables_number  74
_chemical_formula_structural  Fe2NiO4
_chemical_formula_sum  Fe4Ni2O8
_cell_volume  137.48804410709062
_cell_formula_units_Z  2
loop_
  _symmetry_equiv_pos_site_id
 _symmetry_equiv_pos_as_xyz
 1  'x, y, z'
loop_
 _atom_site_type_symbol
 _atom_site_label
 _atom_site_symmetry_multiplicity
 _atom_site_fract_x
 _atom_site_fract_y
 _atom_site_fract_z
 _atom_site_fract_occupancy
 Fe  Fe1  1  0.99378  0.00622  0.99378  1
 Fe  Fe2  1  0.25622  0.24378  0.25622  1
 Fe  Fe3  1  0.62500  0.12500  0.62500  1
 Fe  Fe4  1  0.62500  0.62500  0.62500  1
 Ni  Ni1  1  0.12500  0.62500  0.62500  1
 Ni  Ni2  1  0.62500  0.62500  0.12500  1
 O  O1  1  0.39232  0.36885  0.39232  1
 O  O2  1  0.39382  0.37906  0.84805  1
 O  O3  1  0.39232  0.84651  0.39232  1
 O  O4  1  0.84805  0.37906  0.39382  1
 O  O5  1  0.40195  0.87094  0.85618  1
 O  O6  1  0.85768  0.40349  0.85768  1
 O  O7  1  0.85618  0.87094  0.40195  1
 O  O8  1  0.85768  0.88115  0.85768  1
