CIF file written using JARVIS-Tools package.
data_RbAg3Se2
_symmetry_space_group_name_H-M  'C2/m'
_cell_length_a       4.40623
_cell_length_b       8.60115
_cell_length_c       8.91178
_cell_angle_alpha    112.71
_cell_angle_beta     90
_cell_angle_gamma    104.841

_symmetry_Int_Tables_number  12
_chemical_formula_structural  RbAg3Se2
_chemical_formula_sum  Rb2Ag6Se4
_cell_volume  299.30833907098867
_cell_formula_units_Z  2
loop_
  _symmetry_equiv_pos_site_id
 _symmetry_equiv_pos_as_xyz
 1  'x, y, z'
loop_
 _atom_site_type_symbol
 _atom_site_label
 _atom_site_symmetry_multiplicity
 _atom_site_fract_x
 _atom_site_fract_y
 _atom_site_fract_z
 _atom_site_fract_occupancy
 Ag  Ag1  1  0.31119  0.62239  0.56605  1
 Ag  Ag2  1  0.94104  0.88207  0.59479  1
 Ag  Ag3  1  0.68881  0.37761  0.43395  1
 Ag  Ag4  1  0.40843  0.81685  0.35654  1
 Ag  Ag5  1  0.59157  0.18315  0.64346  1
 Ag  Ag6  1  0.05896  0.11793  0.40521  1
 Rb  Rb1  1  0.86363  0.72727  0.95286  1
 Rb  Rb2  1  0.13637  0.27273  0.04714  1
 Se  Se1  1  0.48057  0.96114  0.78625  1
 Se  Se2  1  0.19994  0.39989  0.70775  1
 Se  Se3  1  0.80006  0.60011  0.29225  1
 Se  Se4  1  0.51943  0.03886  0.21375  1
