CIF file written using JARVIS-Tools package.
data_Tl2O
_symmetry_space_group_name_H-M  'R-3m'
_cell_length_a       12.9565
_cell_length_b       12.9565
_cell_length_c       12.9565
_cell_angle_alpha    15.9132
_cell_angle_beta     15.9132
_cell_angle_gamma    15.9132

_symmetry_Int_Tables_number  166
_chemical_formula_structural  Tl2O
_chemical_formula_sum  Tl4O2
_cell_volume  142.51094969833633
_cell_formula_units_Z  2
loop_
  _symmetry_equiv_pos_site_id
 _symmetry_equiv_pos_as_xyz
 1  'x, y, z'
loop_
 _atom_site_type_symbol
 _atom_site_label
 _atom_site_symmetry_multiplicity
 _atom_site_fract_x
 _atom_site_fract_y
 _atom_site_fract_z
 _atom_site_fract_occupancy
 O  O1  1  0.58335  0.58335  0.58335  1
 O  O2  1  0.41665  0.41665  0.41665  1
 Tl  Tl1  1  0.28956  0.28956  0.28956  1
 Tl  Tl2  1  0.71044  0.71044  0.71044  1
 Tl  Tl3  1  0.87734  0.87734  0.87734  1
 Tl  Tl4  1  0.12266  0.12266  0.12266  1
