CIF file written using JARVIS-Tools package.
data_HfMn2
_symmetry_space_group_name_H-M  'P6_3/mmc'
_cell_length_a       4.87345
_cell_length_b       4.87345
_cell_length_c       8.11747
_cell_angle_alpha    90
_cell_angle_beta     90
_cell_angle_gamma    120

_symmetry_Int_Tables_number  194
_chemical_formula_structural  HfMn2
_chemical_formula_sum  Hf4Mn8
_cell_volume  166.96467378812528
_cell_formula_units_Z  4
loop_
  _symmetry_equiv_pos_site_id
 _symmetry_equiv_pos_as_xyz
 1  'x, y, z'
loop_
 _atom_site_type_symbol
 _atom_site_label
 _atom_site_symmetry_multiplicity
 _atom_site_fract_x
 _atom_site_fract_y
 _atom_site_fract_z
 _atom_site_fract_occupancy
 Hf  Hf1  1  0.33333  0.66667  0.56361  1
 Hf  Hf2  1  0.66667  0.33333  0.06361  1
 Hf  Hf3  1  0.66667  0.33333  0.43639  1
 Hf  Hf4  1  0.33333  0.66667  0.93639  1
 Mn  Mn1  1  0.17113  0.82887  0.25000  1
 Mn  Mn2  1  0.82887  0.65774  0.75000  1
 Mn  Mn3  1  0.34226  0.17113  0.75000  1
 Mn  Mn4  1  0.65774  0.82887  0.25000  1
 Mn  Mn5  1  0.00000  0.00000  0.00000  1
 Mn  Mn6  1  0.00000  0.00000  0.50000  1
 Mn  Mn7  1  0.82887  0.17113  0.75000  1
 Mn  Mn8  1  0.17113  0.34226  0.25000  1
