CIF file written using JARVIS-Tools package.
data_Rb2Pt3S4
_symmetry_space_group_name_H-M  'Fmmm'
_cell_length_a       6.39002
_cell_length_b       6.39002
_cell_length_c       7.09461
_cell_angle_alpha    103.161
_cell_angle_beta     103.161
_cell_angle_gamma    119.63

_symmetry_Int_Tables_number  69
_chemical_formula_structural  Rb2Pt3S4
_chemical_formula_sum  Rb2Pt3S4
_cell_volume  224.50781184748328
_cell_formula_units_Z  1
loop_
  _symmetry_equiv_pos_site_id
 _symmetry_equiv_pos_as_xyz
 1  'x, y, z'
loop_
 _atom_site_type_symbol
 _atom_site_label
 _atom_site_symmetry_multiplicity
 _atom_site_fract_x
 _atom_site_fract_y
 _atom_site_fract_z
 _atom_site_fract_occupancy
 Pt  Pt1  1  0.00000  0.50000  0.00000  1
 Pt  Pt2  1  0.50000  0.00000  -0.00000  1
 Pt  Pt3  1  0.00000  0.00000  0.00000  1
 Rb  Rb1  1  0.34837  0.34837  0.69674  1
 Rb  Rb2  1  0.65163  0.65163  0.30326  1
 S  S1  1  0.71483  0.04906  0.76388  1
 S  S2  1  0.28517  0.95094  0.23612  1
 S  S3  1  0.95094  0.28517  0.23612  1
 S  S4  1  0.04906  0.71483  0.76388  1
