CIF file written using JARVIS-Tools package.
data_BaYI5
_symmetry_space_group_name_H-M  'C2/c'
_cell_length_a       11.2835
_cell_length_b       11.2835
_cell_length_c       7.72374
_cell_angle_alpha    89.1444
_cell_angle_beta     90.8556
_cell_angle_gamma    32.8981

_symmetry_Int_Tables_number  15
_chemical_formula_structural  BaYI5
_chemical_formula_sum  Ba2Y2I0
_cell_volume  533.3745243014903
_cell_formula_units_Z  2
loop_
  _symmetry_equiv_pos_site_id
 _symmetry_equiv_pos_as_xyz
 1  'x, y, z'
loop_
 _atom_site_type_symbol
 _atom_site_label
 _atom_site_symmetry_multiplicity
 _atom_site_fract_x
 _atom_site_fract_y
 _atom_site_fract_z
 _atom_site_fract_occupancy
 Ba  Ba1  1  0.67132  0.67132  0.75000  1
 Ba  Ba2  1  0.32868  0.32868  0.25000  1
 I  I1  1  0.27764  0.78505  0.59700  1
 I  I2  1  0.21495  0.72236  0.09700  1
 I  I3  1  0.19539  0.18469  0.99497  1
 I  I4  1  0.36751  0.36751  0.75000  1
 I  I5  1  0.18469  0.19539  0.50503  1
 I  I6  1  0.81531  0.80461  0.49497  1
 I  I7  1  0.63249  0.63249  0.25000  1
 I  I8  1  0.80461  0.81531  0.00503  1
 I  I9  1  0.78505  0.27764  0.90300  1
 I  I10  1  0.72236  0.21495  0.40300  1
 Y  Y1  1  0.92201  0.92201  0.75000  1
 Y  Y2  1  0.07799  0.07799  0.25000  1
