CIF file written using JARVIS-Tools package.
data_AgCNO
_symmetry_space_group_name_H-M  'P2_1/m'
_cell_length_a       3.34169
_cell_length_b       6.23538
_cell_length_c       5.78273
_cell_angle_alpha    90
_cell_angle_beta     90.462
_cell_angle_gamma    90

_symmetry_Int_Tables_number  11
_chemical_formula_structural  AgCNO
_chemical_formula_sum  Ag2C2N2O2
_cell_volume  120.48921404921448
_cell_formula_units_Z  2
loop_
  _symmetry_equiv_pos_site_id
 _symmetry_equiv_pos_as_xyz
 1  'x, y, z'
loop_
 _atom_site_type_symbol
 _atom_site_label
 _atom_site_symmetry_multiplicity
 _atom_site_fract_x
 _atom_site_fract_y
 _atom_site_fract_z
 _atom_site_fract_occupancy
 Ag  Ag1  1  0.00000  0.50000  0.00000  1
 Ag  Ag2  1  0.00000  0.00000  0.00000  1
 C  C1  1  0.70836  0.75000  0.57986  1
 C  C2  1  0.29164  0.25000  0.42014  1
 N  N1  1  0.14779  0.25000  0.22788  1
 N  N2  1  0.85221  0.75000  0.77212  1
 O  O1  1  0.43537  0.25000  0.61020  1
 O  O2  1  0.56463  0.75000  0.38980  1
