CIF file written using JARVIS-Tools package.
data_SiO2
_symmetry_space_group_name_H-M  'P-4m2'
_cell_length_a       6.97983
_cell_length_b       6.97983
_cell_length_c       6.47673
_cell_angle_alpha    90
_cell_angle_beta     90
_cell_angle_gamma    90

_symmetry_Int_Tables_number  115
_chemical_formula_structural  SiO2
_chemical_formula_sum  Si5O0
_cell_volume  315.53344679725694
_cell_formula_units_Z  5
loop_
  _symmetry_equiv_pos_site_id
 _symmetry_equiv_pos_as_xyz
 1  'x, y, z'
loop_
 _atom_site_type_symbol
 _atom_site_label
 _atom_site_symmetry_multiplicity
 _atom_site_fract_x
 _atom_site_fract_y
 _atom_site_fract_z
 _atom_site_fract_occupancy
 O  O1  1  0.19172  0.00000  0.35644  1
 O  O2  1  0.00000  0.19172  0.64356  1
 O  O3  1  0.00000  0.80828  0.64356  1
 O  O4  1  0.80828  0.00000  0.35644  1
 O  O5  1  0.19103  0.80897  0.00000  1
 O  O6  1  0.19103  0.19103  0.00000  1
 O  O7  1  0.80897  0.80897  0.00000  1
 O  O8  1  0.80897  0.19103  0.00000  1
 O  O9  1  0.50000  0.00000  0.12025  1
 O  O10  1  0.00000  0.50000  0.87975  1
 Si  Si1  1  0.26980  0.00000  0.11933  1
 Si  Si2  1  0.00000  0.26980  0.88067  1
 Si  Si3  1  0.00000  0.73020  0.88067  1
 Si  Si4  1  0.73020  0.00000  0.11933  1
 Si  Si5  1  0.00000  0.00000  0.50000  1
