CIF file written using JARVIS-Tools package.
data_CrCl3
_symmetry_space_group_name_H-M  'R-3'
_cell_length_a       6.61806
_cell_length_b       6.61807
_cell_length_c       6.61806
_cell_angle_alpha    50.9974
_cell_angle_beta     50.9973
_cell_angle_gamma    50.9973

_symmetry_Int_Tables_number  148
_chemical_formula_structural  CrCl3
_chemical_formula_sum  Cr2Cl6
_cell_volume  161.46567054443057
_cell_formula_units_Z  2
loop_
  _symmetry_equiv_pos_site_id
 _symmetry_equiv_pos_as_xyz
 1  'x, y, z'
loop_
 _atom_site_type_symbol
 _atom_site_label
 _atom_site_symmetry_multiplicity
 _atom_site_fract_x
 _atom_site_fract_y
 _atom_site_fract_z
 _atom_site_fract_occupancy
 Cl  Cl1  1  0.58264  0.92164  0.26021  1
 Cl  Cl2  1  0.73979  0.41736  0.07836  1
 Cl  Cl3  1  0.26021  0.58264  0.92164  1
 Cl  Cl4  1  0.07836  0.73979  0.41736  1
 Cl  Cl5  1  0.41736  0.07836  0.73979  1
 Cl  Cl6  1  0.92164  0.26021  0.58264  1
 Cr  Cr1  1  0.66669  0.66669  0.66669  1
 Cr  Cr2  1  0.33331  0.33331  0.33331  1
