CIF file written using JARVIS-Tools package.
data_Sr2ZnCu2S2O2
_symmetry_space_group_name_H-M  'I4/mmm'
_cell_length_a       4.02777
_cell_length_b       4.02777
_cell_length_c       9.33017
_cell_angle_alpha    102.465
_cell_angle_beta     102.465
_cell_angle_gamma    90

_symmetry_Int_Tables_number  139
_chemical_formula_structural  Sr2ZnCu2S2O2
_chemical_formula_sum  Sr2ZnCu2S2O2
_cell_volume  144.1380497889568
_cell_formula_units_Z  1
loop_
  _symmetry_equiv_pos_site_id
 _symmetry_equiv_pos_as_xyz
 1  'x, y, z'
loop_
 _atom_site_type_symbol
 _atom_site_label
 _atom_site_symmetry_multiplicity
 _atom_site_fract_x
 _atom_site_fract_y
 _atom_site_fract_z
 _atom_site_fract_occupancy
 Cu  Cu1  1  0.75000  0.25000  0.50000  1
 Cu  Cu2  1  0.25000  0.75000  0.50000  1
 O  O1  1  0.50000  -0.00000  -0.00000  1
 O  O2  1  -0.00000  0.50000  -0.00000  1
 S  S1  1  0.82766  0.82766  0.65532  1
 S  S2  1  0.17234  0.17234  0.34468  1
 Sr  Sr1  1  0.59224  0.59224  0.18449  1
 Sr  Sr2  1  0.40776  0.40776  0.81551  1
 Zn  Zn1  1  0.00000  0.00000  0.00000  1
