CIF file written using JARVIS-Tools package.
data_AlBiSCl4
_symmetry_space_group_name_H-M  'I-4'
_cell_length_a       10.0306
_cell_length_b       10.0306
_cell_length_c       10.0306
_cell_angle_alpha    107.497
_cell_angle_beta     107.497
_cell_angle_gamma    113.496

_symmetry_Int_Tables_number  82
_chemical_formula_structural  AlBiSCl4
_chemical_formula_sum  Al4Bi4S4Cl6
_cell_volume  773.9969645817199
_cell_formula_units_Z  4
loop_
  _symmetry_equiv_pos_site_id
 _symmetry_equiv_pos_as_xyz
 1  'x, y, z'
loop_
 _atom_site_type_symbol
 _atom_site_label
 _atom_site_symmetry_multiplicity
 _atom_site_fract_x
 _atom_site_fract_y
 _atom_site_fract_z
 _atom_site_fract_occupancy
 Al  Al1  1  0.97633  0.70923  0.12480  1
 Al  Al2  1  0.29077  0.41558  0.26710  1
 Al  Al3  1  0.58442  0.85153  0.87520  1
 Al  Al4  1  0.14847  0.02367  0.73290  1
 Bi  Bi1  1  0.93258  0.21330  0.40666  1
 Bi  Bi2  1  0.47409  0.06742  0.28072  1
 Bi  Bi3  1  0.80664  0.52591  0.59334  1
 Bi  Bi4  1  0.78670  0.19336  0.71928  1
 Cl  Cl1  1  0.22460  0.80705  0.31023  1
 Cl  Cl2  1  0.22472  0.17646  0.25562  1
 Cl  Cl3  1  0.19619  0.17978  0.62176  1
 Cl  Cl4  1  0.42557  0.80381  0.98359  1
 Cl  Cl5  1  0.03090  0.77528  0.95174  1
 Cl  Cl6  1  0.82022  0.44198  0.01641  1
 Cl  Cl7  1  0.92084  0.96910  0.74438  1
 Cl  Cl8  1  0.55802  0.57443  0.37824  1
 Cl  Cl9  1  0.49682  0.91437  0.68977  1
 Cl  Cl10  1  0.08563  0.77540  0.58245  1
 Cl  Cl11  1  0.36595  0.14337  0.95557  1
 Cl  Cl12  1  0.18780  0.41038  0.04443  1
 Cl  Cl13  1  0.82354  0.07916  0.04826  1
 Cl  Cl14  1  0.58962  0.63405  0.77743  1
 Cl  Cl15  1  0.19295  0.50318  0.41755  1
 Cl  Cl16  1  0.85663  0.81220  0.22257  1
 S  S1  1  0.73638  0.32214  0.30287  1
 S  S2  1  0.01927  0.43352  0.69713  1
 S  S3  1  0.67786  0.98073  0.41424  1
 S  S4  1  0.56648  0.26362  0.58576  1
