CIF file written using JARVIS-Tools package.
data_Na2SrFe
_symmetry_space_group_name_H-M  'I4/mmm'
_cell_length_a       5.45451
_cell_length_b       5.46487
_cell_length_c       5.45526
_cell_angle_alpha    59.9395
_cell_angle_beta     60.1213
_cell_angle_gamma    59.9547

_symmetry_Int_Tables_number  139
_chemical_formula_structural  Na2SrFe
_chemical_formula_sum  Na2SrFe
_cell_volume  114.99620415634597
_cell_formula_units_Z  1
loop_
  _symmetry_equiv_pos_site_id
 _symmetry_equiv_pos_as_xyz
 1  'x, y, z'
loop_
 _atom_site_type_symbol
 _atom_site_label
 _atom_site_symmetry_multiplicity
 _atom_site_fract_x
 _atom_site_fract_y
 _atom_site_fract_z
 _atom_site_fract_occupancy
 Fe  Fe1  1  0.00000  0.00000  0.00000  1
 Na  Na1  1  0.24999  0.24996  0.25000  1
 Na  Na2  1  0.75000  0.75004  0.75000  1
 Sr  Sr1  1  0.50000  0.50000  0.50000  1
