CIF file written using JARVIS-Tools package.
data_Hg3AsSe4Br
_symmetry_space_group_name_H-M  'P6_3mc'
_cell_length_a       7.88081
_cell_length_b       7.88081
_cell_length_c       9.48067
_cell_angle_alpha    90
_cell_angle_beta     90
_cell_angle_gamma    120

_symmetry_Int_Tables_number  186
_chemical_formula_structural  Hg3AsSe4Br
_chemical_formula_sum  Hg6As2Se8Br2
_cell_volume  509.9308727409634
_cell_formula_units_Z  2
loop_
  _symmetry_equiv_pos_site_id
 _symmetry_equiv_pos_as_xyz
 1  'x, y, z'
loop_
 _atom_site_type_symbol
 _atom_site_label
 _atom_site_symmetry_multiplicity
 _atom_site_fract_x
 _atom_site_fract_y
 _atom_site_fract_z
 _atom_site_fract_occupancy
 As  As1  1  0.00000  0.00000  0.72295  1
 As  As2  1  0.00000  0.00000  0.22295  1
 Br  Br1  1  0.66667  0.33333  0.02594  1
 Br  Br2  1  0.33333  0.66667  0.52594  1
 Hg  Hg1  1  0.99435  0.49718  0.74385  1
 Hg  Hg2  1  0.49718  0.50282  0.24385  1
 Hg  Hg3  1  0.00565  0.50282  0.24385  1
 Hg  Hg4  1  0.50282  0.49718  0.74385  1
 Hg  Hg5  1  0.50282  0.00565  0.74385  1
 Hg  Hg6  1  0.49718  0.99435  0.24385  1
 Se  Se1  1  0.66667  0.33333  0.60001  1
 Se  Se2  1  0.85070  0.14930  0.36788  1
 Se  Se3  1  0.70139  0.85070  0.86789  1
 Se  Se4  1  0.85070  0.70139  0.36788  1
 Se  Se5  1  0.14930  0.85070  0.86789  1
 Se  Se6  1  0.33333  0.66667  0.10001  1
 Se  Se7  1  0.14930  0.29861  0.86789  1
 Se  Se8  1  0.29861  0.14930  0.36788  1
