CIF file written using JARVIS-Tools package.
data_KNbSe2
_symmetry_space_group_name_H-M  'P6_3/mmc'
_cell_length_a       3.62644
_cell_length_b       3.62644
_cell_length_c       16.2402
_cell_angle_alpha    90
_cell_angle_beta     90
_cell_angle_gamma    120

_symmetry_Int_Tables_number  194
_chemical_formula_structural  KNbSe2
_chemical_formula_sum  K2Nb2Se4
_cell_volume  184.96165243639192
_cell_formula_units_Z  2
loop_
  _symmetry_equiv_pos_site_id
 _symmetry_equiv_pos_as_xyz
 1  'x, y, z'
loop_
 _atom_site_type_symbol
 _atom_site_label
 _atom_site_symmetry_multiplicity
 _atom_site_fract_x
 _atom_site_fract_y
 _atom_site_fract_z
 _atom_site_fract_occupancy
 K  K1  1  0.00000  0.00000  0.00000  1
 K  K2  1  0.00000  0.00000  0.50000  1
 Nb  Nb1  1  0.00000  0.00000  0.75000  1
 Nb  Nb2  1  0.00000  0.00000  0.25000  1
 Se  Se1  1  0.33333  0.66667  0.85096  1
 Se  Se2  1  0.33333  0.66667  0.64904  1
 Se  Se3  1  0.66667  0.33333  0.35096  1
 Se  Se4  1  0.66667  0.33333  0.14904  1
