CIF file written using JARVIS-Tools package.
data_PbS
_symmetry_space_group_name_H-M  'C2/m'
_cell_length_a       4.22637
_cell_length_b       4.22637
_cell_length_c       21.4873
_cell_angle_alpha    94.0257
_cell_angle_beta     94.0257
_cell_angle_gamma    89.9955

_symmetry_Int_Tables_number  12
_chemical_formula_structural  PbS
_chemical_formula_sum  Pb2S2
_cell_volume  381.91362804574027
_cell_formula_units_Z  2
loop_
  _symmetry_equiv_pos_site_id
 _symmetry_equiv_pos_as_xyz
 1  'x, y, z'
loop_
 _atom_site_type_symbol
 _atom_site_label
 _atom_site_symmetry_multiplicity
 _atom_site_fract_x
 _atom_site_fract_y
 _atom_site_fract_z
 _atom_site_fract_occupancy
 Pb  Pb1  1  0.71615  0.73616  0.93293  1
 Pb  Pb2  1  0.26384  0.28385  0.06707  1
 S  S1  1  0.21869  0.23928  0.94116  1
 S  S2  1  0.76072  0.78131  0.05884  1
