CIF file written using JARVIS-Tools package.
data_Na2S2O3
_symmetry_space_group_name_H-M  'P2_1/c'
_cell_length_a       6.38949
_cell_length_b       8.0964
_cell_length_c       8.49344
_cell_angle_alpha    90
_cell_angle_beta     96.7893
_cell_angle_gamma    90

_symmetry_Int_Tables_number  14
_chemical_formula_structural  Na2S2O3
_chemical_formula_sum  Na8S8O2
_cell_volume  436.30079534324733
_cell_formula_units_Z  4
loop_
  _symmetry_equiv_pos_site_id
 _symmetry_equiv_pos_as_xyz
 1  'x, y, z'
loop_
 _atom_site_type_symbol
 _atom_site_label
 _atom_site_symmetry_multiplicity
 _atom_site_fract_x
 _atom_site_fract_y
 _atom_site_fract_z
 _atom_site_fract_occupancy
 Na  Na1  1  0.87680  0.19454  0.45238  1
 Na  Na2  1  0.62320  0.69454  0.54762  1
 Na  Na3  1  0.29698  0.62605  0.08374  1
 Na  Na4  1  0.37680  0.30546  0.45238  1
 Na  Na5  1  0.79698  0.87395  0.08374  1
 Na  Na6  1  0.70302  0.37395  0.91626  1
 Na  Na7  1  0.20302  0.12605  0.91626  1
 Na  Na8  1  0.12320  0.80546  0.54762  1
 O  O1  1  0.32062  0.53820  0.61792  1
 O  O2  1  0.17938  0.03820  0.38208  1
 O  O3  1  0.38902  0.79722  0.33666  1
 O  O4  1  0.83680  0.08574  0.88335  1
 O  O5  1  0.11098  0.29722  0.66334  1
 O  O6  1  0.61098  0.20278  0.66334  1
 O  O7  1  0.82062  0.96180  0.61792  1
 O  O8  1  0.67938  0.46180  0.38208  1
 O  O9  1  0.66320  0.58574  0.11665  1
 O  O10  1  0.88902  0.70278  0.33666  1
 O  O11  1  0.33680  0.41426  0.88335  1
 O  O12  1  0.16320  0.91426  0.11665  1
 S  S1  1  0.02860  0.39261  0.20963  1
 S  S2  1  0.79972  0.54673  0.26662  1
 S  S3  1  0.29972  0.95327  0.26662  1
 S  S4  1  0.97140  0.60739  0.79037  1
 S  S5  1  0.47140  0.89261  0.79037  1
 S  S6  1  0.52860  0.10739  0.20963  1
 S  S7  1  0.70028  0.04673  0.73338  1
 S  S8  1  0.20028  0.45327  0.73338  1
