CIF file written using JARVIS-Tools package.
data_LiMn4O8
_symmetry_space_group_name_H-M  'F-43m'
_cell_length_a       5.73079
_cell_length_b       5.73079
_cell_length_c       5.73079
_cell_angle_alpha    60
_cell_angle_beta     60
_cell_angle_gamma    60

_symmetry_Int_Tables_number  216
_chemical_formula_structural  LiMn4O8
_chemical_formula_sum  LiMn4O8
_cell_volume  133.08463263801715
_cell_formula_units_Z  1
loop_
  _symmetry_equiv_pos_site_id
 _symmetry_equiv_pos_as_xyz
 1  'x, y, z'
loop_
 _atom_site_type_symbol
 _atom_site_label
 _atom_site_symmetry_multiplicity
 _atom_site_fract_x
 _atom_site_fract_y
 _atom_site_fract_z
 _atom_site_fract_occupancy
 Li  Li1  1  0.25000  0.25000  0.25000  1
 Mn  Mn1  1  0.12162  0.62613  0.62613  1
 Mn  Mn2  1  0.62613  0.12162  0.62613  1
 Mn  Mn3  1  0.62613  0.62613  0.12162  1
 Mn  Mn4  1  0.62613  0.62613  0.62613  1
 O  O1  1  0.38777  0.38777  0.38777  1
 O  O2  1  0.38777  0.38777  0.83669  1
 O  O3  1  0.38777  0.83669  0.38777  1
 O  O4  1  0.83669  0.38777  0.38777  1
 O  O5  1  0.41652  0.86116  0.86116  1
 O  O6  1  0.86116  0.41652  0.86116  1
 O  O7  1  0.86116  0.86116  0.41652  1
 O  O8  1  0.86116  0.86116  0.86116  1
