CIF file written using JARVIS-Tools package.
data_Dy2S2O
_symmetry_space_group_name_H-M  'P2_1/c'
_cell_length_a       6.85918
_cell_length_b       6.89854
_cell_length_c       8.25321
_cell_angle_alpha    90
_cell_angle_beta     99.5578
_cell_angle_gamma    90

_symmetry_Int_Tables_number  14
_chemical_formula_structural  Dy2S2O
_chemical_formula_sum  Dy8S8O4
_cell_volume  385.1078180080188
_cell_formula_units_Z  4
loop_
  _symmetry_equiv_pos_site_id
 _symmetry_equiv_pos_as_xyz
 1  'x, y, z'
loop_
 _atom_site_type_symbol
 _atom_site_label
 _atom_site_symmetry_multiplicity
 _atom_site_fract_x
 _atom_site_fract_y
 _atom_site_fract_z
 _atom_site_fract_occupancy
 Dy  Dy1  1  0.24952  0.05442  0.13739  1
 Dy  Dy2  1  0.25048  0.55442  0.86261  1
 Dy  Dy3  1  0.75048  0.94558  0.86261  1
 Dy  Dy4  1  0.74952  0.44558  0.13739  1
 Dy  Dy5  1  0.32071  0.14316  0.57674  1
 Dy  Dy6  1  0.17929  0.64316  0.42326  1
 Dy  Dy7  1  0.67929  0.85684  0.42326  1
 Dy  Dy8  1  0.82071  0.35684  0.57674  1
 O  O1  1  0.64977  0.08709  0.61692  1
 O  O2  1  0.35023  0.91291  0.38308  1
 O  O3  1  0.85023  0.58709  0.38308  1
 O  O4  1  0.14977  0.41291  0.61692  1
 S  S1  1  0.46988  0.22231  0.92319  1
 S  S2  1  0.57571  0.63399  0.68096  1
 S  S3  1  0.42429  0.36601  0.31904  1
 S  S4  1  0.03012  0.72231  0.07681  1
 S  S5  1  0.07571  0.86601  0.68096  1
 S  S6  1  0.92429  0.13399  0.31904  1
 S  S7  1  0.96988  0.27769  0.92319  1
 S  S8  1  0.53012  0.77769  0.07681  1
