CIF file written using JARVIS-Tools package.
data_BaTi4O7
_symmetry_space_group_name_H-M  'P6_3mc'
_cell_length_a       6.50046
_cell_length_b       6.50046
_cell_length_c       10.4449
_cell_angle_alpha    90
_cell_angle_beta     90
_cell_angle_gamma    120

_symmetry_Int_Tables_number  186
_chemical_formula_structural  BaTi4O7
_chemical_formula_sum  Ba2Ti8O4
_cell_volume  382.226129817781
_cell_formula_units_Z  2
loop_
  _symmetry_equiv_pos_site_id
 _symmetry_equiv_pos_as_xyz
 1  'x, y, z'
loop_
 _atom_site_type_symbol
 _atom_site_label
 _atom_site_symmetry_multiplicity
 _atom_site_fract_x
 _atom_site_fract_y
 _atom_site_fract_z
 _atom_site_fract_occupancy
 Ba  Ba1  1  0.33333  0.66667  0.53406  1
 Ba  Ba2  1  0.66667  0.33333  0.03406  1
 O  O1  1  0.70305  0.85153  0.01826  1
 O  O2  1  0.02060  0.51030  0.72923  1
 O  O3  1  0.85153  0.14847  0.51826  1
 O  O4  1  0.14847  0.85153  0.01826  1
 O  O5  1  0.14847  0.29695  0.01826  1
 O  O6  1  0.85153  0.70305  0.51826  1
 O  O7  1  0.00000  0.00000  0.75534  1
 O  O8  1  0.00000  0.00000  0.25534  1
 O  O9  1  0.97940  0.48970  0.22923  1
 O  O10  1  0.48970  0.97940  0.72923  1
 O  O11  1  0.48970  0.51030  0.72923  1
 O  O12  1  0.51030  0.48970  0.22923  1
 O  O13  1  0.29695  0.14847  0.51826  1
 O  O14  1  0.51030  0.02060  0.22923  1
 Ti  Ti1  1  0.00000  0.00000  0.94157  1
 Ti  Ti2  1  0.00000  0.00000  0.44157  1
 Ti  Ti3  1  0.37356  0.18678  0.69353  1
 Ti  Ti4  1  0.18678  0.37356  0.19353  1
 Ti  Ti5  1  0.18678  0.81322  0.19353  1
 Ti  Ti6  1  0.81322  0.18678  0.69353  1
 Ti  Ti7  1  0.81322  0.62644  0.69353  1
 Ti  Ti8  1  0.62644  0.81322  0.19353  1
