CIF file written using JARVIS-Tools package.
data_V2NiSe4
_symmetry_space_group_name_H-M  'P-3m1'
_cell_length_a       3.58225
_cell_length_b       3.58191
_cell_length_c       11.6955
_cell_angle_alpha    89.974
_cell_angle_beta     90
_cell_angle_gamma    120.003

_symmetry_Int_Tables_number  164
_chemical_formula_structural  V2NiSe4
_chemical_formula_sum  V2NiSe4
_cell_volume  129.95856906998202
_cell_formula_units_Z  1
loop_
  _symmetry_equiv_pos_site_id
 _symmetry_equiv_pos_as_xyz
 1  'x, y, z'
loop_
 _atom_site_type_symbol
 _atom_site_label
 _atom_site_symmetry_multiplicity
 _atom_site_fract_x
 _atom_site_fract_y
 _atom_site_fract_z
 _atom_site_fract_occupancy
 Ni  Ni1  1  0.00000  0.00000  0.00000  1
 Se  Se1  1  0.66657  0.33313  0.11947  1
 Se  Se2  1  0.33343  0.66687  0.88053  1
 Se  Se3  1  0.33303  0.66605  0.37447  1
 Se  Se4  1  0.66697  0.33395  0.62553  1
 V  V1  1  0.99979  0.99958  0.25297  1
 V  V2  1  0.00021  0.00042  0.74703  1
