CIF file written using JARVIS-Tools package.
data_Te4MoW2Se2
_symmetry_space_group_name_H-M  'Amm2'
_cell_length_a       3.48812
_cell_length_b       3.48802
_cell_length_c       21.518
_cell_angle_alpha    90
_cell_angle_beta     90
_cell_angle_gamma    120.001

_symmetry_Int_Tables_number  38
_chemical_formula_structural  Te4MoW2Se2
_chemical_formula_sum  Te4MoW2Se2
_cell_volume  226.72518164219636
_cell_formula_units_Z  1
loop_
  _symmetry_equiv_pos_site_id
 _symmetry_equiv_pos_as_xyz
 1  'x, y, z'
loop_
 _atom_site_type_symbol
 _atom_site_label
 _atom_site_symmetry_multiplicity
 _atom_site_fract_x
 _atom_site_fract_y
 _atom_site_fract_z
 _atom_site_fract_occupancy
 Mo  Mo1  1  0.66568  0.33136  0.34698  1
 Se  Se1  1  0.33235  0.66470  0.42238  1
 Se  Se2  1  0.33235  0.66470  0.27158  1
 Te  Te1  1  0.66718  0.33435  -0.05572  1
 Te  Te2  1  0.66712  0.33425  0.57769  1
 Te  Te3  1  0.66712  0.33425  0.11627  1
 Te  Te4  1  0.66718  0.33435  0.74969  1
 W  W1  1  0.33381  0.66762  0.03026  1
 W  W2  1  0.33381  0.66762  0.66371  1
