CIF file written using JARVIS-Tools package.
data_CuBiP2Se6
_symmetry_space_group_name_H-M  'P-31c'
_cell_length_a       6.61376
_cell_length_b       6.61376
_cell_length_c       13.2948
_cell_angle_alpha    90
_cell_angle_beta     90
_cell_angle_gamma    120

_symmetry_Int_Tables_number  163
_chemical_formula_structural  CuBiP2Se6
_chemical_formula_sum  Cu2Bi2P4Se2
_cell_volume  503.6271877408477
_cell_formula_units_Z  2
loop_
  _symmetry_equiv_pos_site_id
 _symmetry_equiv_pos_as_xyz
 1  'x, y, z'
loop_
 _atom_site_type_symbol
 _atom_site_label
 _atom_site_symmetry_multiplicity
 _atom_site_fract_x
 _atom_site_fract_y
 _atom_site_fract_z
 _atom_site_fract_occupancy
 Bi  Bi1  1  0.33333  0.66667  0.75000  1
 Bi  Bi2  1  0.66667  0.33333  0.25000  1
 Cu  Cu1  1  0.00000  0.00000  0.75000  1
 Cu  Cu2  1  0.00000  0.00000  0.25000  1
 P  P1  1  0.66667  0.33333  0.83642  1
 P  P2  1  0.66667  0.33333  0.66358  1
 P  P3  1  0.33333  0.66667  0.16358  1
 P  P4  1  0.33333  0.66667  0.33642  1
 Se  Se1  1  0.67431  0.97112  0.11827  1
 Se  Se2  1  0.32569  0.29682  0.61827  1
 Se  Se3  1  0.02888  0.32569  0.38173  1
 Se  Se4  1  0.97112  0.29682  0.88173  1
 Se  Se5  1  0.70318  0.02888  0.61827  1
 Se  Se6  1  0.97112  0.67431  0.61827  1
 Se  Se7  1  0.70318  0.67431  0.88173  1
 Se  Se8  1  0.02888  0.70318  0.11827  1
 Se  Se9  1  0.29682  0.97112  0.38173  1
 Se  Se10  1  0.29682  0.32569  0.11827  1
 Se  Se11  1  0.32569  0.02888  0.88173  1
 Se  Se12  1  0.67431  0.70318  0.38173  1
