CIF file written using JARVIS-Tools package.
data_Nb2O5
_symmetry_space_group_name_H-M  'C2'
_cell_length_a       3.94868
_cell_length_b       3.94868
_cell_length_c       5.811
_cell_angle_alpha    70.0877
_cell_angle_beta     70.0877
_cell_angle_gamma    81.0917

_symmetry_Int_Tables_number  5
_chemical_formula_structural  Nb2O5
_chemical_formula_sum  Nb2O5
_cell_volume  80.01829817708064
_cell_formula_units_Z  1
loop_
  _symmetry_equiv_pos_site_id
 _symmetry_equiv_pos_as_xyz
 1  'x, y, z'
loop_
 _atom_site_type_symbol
 _atom_site_label
 _atom_site_symmetry_multiplicity
 _atom_site_fract_x
 _atom_site_fract_y
 _atom_site_fract_z
 _atom_site_fract_occupancy
 Nb  Nb1  1  0.85234  0.76502  0.29167  1
 Nb  Nb2  1  0.23498  0.14766  0.70833  1
 O  O1  1  0.27405  0.72595  0.50000  1
 O  O2  1  0.63494  0.22210  0.34679  1
 O  O3  1  0.24678  0.10898  0.04365  1
 O  O4  1  0.89102  0.75322  0.95635  1
 O  O5  1  0.77790  0.36506  0.65321  1
