CIF file written using JARVIS-Tools package.
data_Na3PS4
_symmetry_space_group_name_H-M  'P-42_1c'
_cell_length_a       6.92263
_cell_length_b       6.92263
_cell_length_c       7.07526
_cell_angle_alpha    90
_cell_angle_beta     90
_cell_angle_gamma    90

_symmetry_Int_Tables_number  114
_chemical_formula_structural  Na3PS4
_chemical_formula_sum  Na6P2S8
_cell_volume  339.06656001265026
_cell_formula_units_Z  2
loop_
  _symmetry_equiv_pos_site_id
 _symmetry_equiv_pos_as_xyz
 1  'x, y, z'
loop_
 _atom_site_type_symbol
 _atom_site_label
 _atom_site_symmetry_multiplicity
 _atom_site_fract_x
 _atom_site_fract_y
 _atom_site_fract_z
 _atom_site_fract_occupancy
 Na  Na1  1  0.50000  0.00000  0.42205  1
 Na  Na2  1  0.00000  0.50000  0.57795  1
 Na  Na3  1  0.00000  0.50000  0.07795  1
 Na  Na4  1  0.50000  0.00000  0.92205  1
 Na  Na5  1  0.00000  0.00000  0.00000  1
 Na  Na6  1  0.50000  0.50000  0.50000  1
 P  P1  1  0.00000  0.00000  0.50000  1
 P  P2  1  0.50000  0.50000  0.00000  1
 S  S1  1  0.65327  0.30787  0.16734  1
 S  S2  1  0.30787  0.34673  0.83266  1
 S  S3  1  0.69213  0.65327  0.83266  1
 S  S4  1  0.84673  0.80787  0.33266  1
 S  S5  1  0.15327  0.19213  0.33266  1
 S  S6  1  0.34673  0.69213  0.16734  1
 S  S7  1  0.80787  0.15327  0.66734  1
 S  S8  1  0.19213  0.84673  0.66734  1
