CIF file written using JARVIS-Tools package.
data_ZnSnF6
_symmetry_space_group_name_H-M  'R-3'
_cell_length_a       5.55878
_cell_length_b       5.55878
_cell_length_c       5.55878
_cell_angle_alpha    54.5266
_cell_angle_beta     54.5266
_cell_angle_gamma    54.5266

_symmetry_Int_Tables_number  148
_chemical_formula_structural  ZnSnF6
_chemical_formula_sum  ZnSnF6
_cell_volume  105.95992920886947
_cell_formula_units_Z  1
loop_
  _symmetry_equiv_pos_site_id
 _symmetry_equiv_pos_as_xyz
 1  'x, y, z'
loop_
 _atom_site_type_symbol
 _atom_site_label
 _atom_site_symmetry_multiplicity
 _atom_site_fract_x
 _atom_site_fract_y
 _atom_site_fract_z
 _atom_site_fract_occupancy
 F  F1  1  0.24760  0.89825  0.60757  1
 F  F2  1  0.89825  0.60757  0.24760  1
 F  F3  1  0.39243  0.75240  0.10175  1
 F  F4  1  0.10175  0.39243  0.75240  1
 F  F5  1  0.75240  0.10175  0.39243  1
 F  F6  1  0.60757  0.24760  0.89825  1
 Sn  Sn1  1  0.00000  0.00000  0.00000  1
 Zn  Zn1  1  0.50000  0.50000  0.50000  1
