CIF file written using JARVIS-Tools package.
data_CdSnF6
_symmetry_space_group_name_H-M  'R-3'
_cell_length_a       5.85656
_cell_length_b       5.85656
_cell_length_c       5.85656
_cell_angle_alpha    53.0561
_cell_angle_beta     53.056
_cell_angle_gamma    53.0561

_symmetry_Int_Tables_number  148
_chemical_formula_structural  CdSnF6
_chemical_formula_sum  CdSnF6
_cell_volume  118.92654489025097
_cell_formula_units_Z  1
loop_
  _symmetry_equiv_pos_site_id
 _symmetry_equiv_pos_as_xyz
 1  'x, y, z'
loop_
 _atom_site_type_symbol
 _atom_site_label
 _atom_site_symmetry_multiplicity
 _atom_site_fract_x
 _atom_site_fract_y
 _atom_site_fract_z
 _atom_site_fract_occupancy
 Cd  Cd1  1  0.50000  0.50000  0.50000  1
 F  F1  1  0.23221  0.92381  0.61065  1
 F  F2  1  0.92381  0.61065  0.23221  1
 F  F3  1  0.38935  0.76779  0.07619  1
 F  F4  1  0.07619  0.38935  0.76779  1
 F  F5  1  0.76779  0.07619  0.38935  1
 F  F6  1  0.61065  0.23221  0.92381  1
 Sn  Sn1  1  0.00000  0.00000  0.00000  1
