CIF file written using JARVIS-Tools package.
data_CaHN
_symmetry_space_group_name_H-M  'I4mm'
_cell_length_a       3.7762
_cell_length_b       3.53016
_cell_length_c       3.77619
_cell_angle_alpha    62.1328
_cell_angle_beta     55.7343
_cell_angle_gamma    62.1328

_symmetry_Int_Tables_number  107
_chemical_formula_structural  CaHN
_chemical_formula_sum  CaHN
_cell_volume  35.31101768623608
_cell_formula_units_Z  1
loop_
  _symmetry_equiv_pos_site_id
 _symmetry_equiv_pos_as_xyz
 1  'x, y, z'
loop_
 _atom_site_type_symbol
 _atom_site_label
 _atom_site_symmetry_multiplicity
 _atom_site_fract_x
 _atom_site_fract_y
 _atom_site_fract_z
 _atom_site_fract_occupancy
 Ca  Ca1  1  0.05156  0.94844  0.05156  1
 H  H1  1  0.64082  0.35918  0.64082  1
 N  N1  1  0.45762  0.54238  0.45762  1
