CIF file written using JARVIS-Tools package.
data_K2Mn2O3
_symmetry_space_group_name_H-M  'P2_1/c'
_cell_length_a       6.01359
_cell_length_b       6.41836
_cell_length_c       6.46317
_cell_angle_alpha    90
_cell_angle_beta     115.004
_cell_angle_gamma    90

_symmetry_Int_Tables_number  14
_chemical_formula_structural  K2Mn2O3
_chemical_formula_sum  K4Mn4O6
_cell_volume  226.08122307801005
_cell_formula_units_Z  2
loop_
  _symmetry_equiv_pos_site_id
 _symmetry_equiv_pos_as_xyz
 1  'x, y, z'
loop_
 _atom_site_type_symbol
 _atom_site_label
 _atom_site_symmetry_multiplicity
 _atom_site_fract_x
 _atom_site_fract_y
 _atom_site_fract_z
 _atom_site_fract_occupancy
 K  K1  1  0.81659  0.36142  0.07276  1
 K  K2  1  0.81659  0.13858  0.57276  1
 K  K3  1  0.18341  0.63858  0.92724  1
 K  K4  1  0.18341  0.86142  0.42724  1
 Mn  Mn1  1  0.33122  0.11955  0.07159  1
 Mn  Mn2  1  0.33122  0.38045  0.57159  1
 Mn  Mn3  1  0.66878  0.88045  0.92841  1
 Mn  Mn4  1  0.66878  0.61955  0.42841  1
 O  O1  1  0.00000  0.50000  0.50000  1
 O  O2  1  0.58841  0.62749  0.71399  1
 O  O3  1  0.41159  0.12749  0.78601  1
 O  O4  1  0.41159  0.37251  0.28601  1
 O  O5  1  0.00000  0.00000  0.00000  1
 O  O6  1  0.58841  0.87251  0.21399  1
