CIF file written using JARVIS-Tools package.
data_SbSCl9
_symmetry_space_group_name_H-M  'R-3m'
_cell_length_a       8.58685
_cell_length_b       8.58684
_cell_length_c       8.59471
_cell_angle_alpha    75.6869
_cell_angle_beta     75.687
_cell_angle_gamma    75.7281

_symmetry_Int_Tables_number  166
_chemical_formula_structural  SbSCl9
_chemical_formula_sum  Sb2S2Cl8
_cell_volume  583.2735182770526
_cell_formula_units_Z  2
loop_
  _symmetry_equiv_pos_site_id
 _symmetry_equiv_pos_as_xyz
 1  'x, y, z'
loop_
 _atom_site_type_symbol
 _atom_site_label
 _atom_site_symmetry_multiplicity
 _atom_site_fract_x
 _atom_site_fract_y
 _atom_site_fract_z
 _atom_site_fract_occupancy
 Cl  Cl1  1  0.34628  0.04651  0.34615  1
 Cl  Cl2  1  0.29335  0.96836  0.96840  1
 Cl  Cl3  1  0.03164  0.70665  0.03160  1
 Cl  Cl4  1  0.70665  0.03164  0.03160  1
 Cl  Cl5  1  0.96836  0.29335  0.96840  1
 Cl  Cl6  1  0.68523  0.35839  0.68540  1
 Cl  Cl7  1  0.64161  0.31477  0.31460  1
 Cl  Cl8  1  0.35839  0.68523  0.68540  1
 Cl  Cl9  1  0.31446  0.31446  0.64112  1
 Cl  Cl10  1  0.68554  0.68554  0.35888  1
 Cl  Cl11  1  0.31477  0.64161  0.31460  1
 Cl  Cl12  1  0.95349  0.65372  0.65385  1
 Cl  Cl13  1  0.65372  0.95349  0.65385  1
 Cl  Cl14  1  0.04651  0.34628  0.34615  1
 Cl  Cl15  1  0.34646  0.34646  0.04652  1
 Cl  Cl16  1  0.65354  0.65354  0.95348  1
 Cl  Cl17  1  0.96815  0.96815  0.29317  1
 Cl  Cl18  1  0.03185  0.03185  0.70683  1
 S  S1  1  0.29358  0.29358  0.29341  1
 S  S2  1  0.70642  0.70642  0.70659  1
 Sb  Sb1  1  0.50000  0.50000  0.50000  1
 Sb  Sb2  1  0.00000  0.00000  0.00000  1
