CIF file written using JARVIS-Tools package.
data_K2TeBr6
_symmetry_space_group_name_H-M  'P2_1/c'
_cell_length_a       7.39016
_cell_length_b       7.72562
_cell_length_c       12.8098
_cell_angle_alpha    90
_cell_angle_beta     124.556
_cell_angle_gamma    90

_symmetry_Int_Tables_number  14
_chemical_formula_structural  K2TeBr6
_chemical_formula_sum  K4Te2Br2
_cell_volume  602.3256436287771
_cell_formula_units_Z  2
loop_
  _symmetry_equiv_pos_site_id
 _symmetry_equiv_pos_as_xyz
 1  'x, y, z'
loop_
 _atom_site_type_symbol
 _atom_site_label
 _atom_site_symmetry_multiplicity
 _atom_site_fract_x
 _atom_site_fract_y
 _atom_site_fract_z
 _atom_site_fract_occupancy
 Br  Br1  1  0.23246  0.79748  0.53623  1
 Br  Br2  1  0.82768  0.50644  0.24613  1
 Br  Br3  1  0.17232  0.49356  0.75387  1
 Br  Br4  1  0.34515  0.30131  0.54313  1
 Br  Br5  1  0.82768  0.99356  0.74613  1
 Br  Br6  1  0.65485  0.80131  0.95687  1
 Br  Br7  1  0.65485  0.69869  0.45687  1
 Br  Br8  1  0.76754  0.29748  0.96377  1
 Br  Br9  1  0.17232  0.00644  0.25387  1
 Br  Br10  1  0.23246  0.70252  0.03623  1
 Br  Br11  1  0.76754  0.20252  0.46377  1
 Br  Br12  1  0.34515  0.19869  0.04313  1
 K  K1  1  0.27476  0.42518  0.25204  1
 K  K2  1  0.72524  0.92518  0.24796  1
 K  K3  1  0.72524  0.57482  0.74796  1
 K  K4  1  0.27476  0.07482  0.75204  1
 Te  Te1  1  0.00000  0.00000  0.00000  1
 Te  Te2  1  -0.00000  0.50000  0.50000  1
