CIF file written using JARVIS-Tools package.
data_CuI4
_symmetry_space_group_name_H-M  'Fmm2'
_cell_length_a       6.22917
_cell_length_b       10.2519
_cell_length_c       7.63273
_cell_angle_alpha    29.7157
_cell_angle_beta     65.9172
_cell_angle_gamma    52.583

_symmetry_Int_Tables_number  42
_chemical_formula_structural  CuI4
_chemical_formula_sum  CuI4
_cell_volume  182.82424352614166
_cell_formula_units_Z  1
loop_
  _symmetry_equiv_pos_site_id
 _symmetry_equiv_pos_as_xyz
 1  'x, y, z'
loop_
 _atom_site_type_symbol
 _atom_site_label
 _atom_site_symmetry_multiplicity
 _atom_site_fract_x
 _atom_site_fract_y
 _atom_site_fract_z
 _atom_site_fract_occupancy
 Cu  Cu1  1  0.35918  0.49999  0.28167  1
 I  I1  1  0.00145  -0.00123  -0.00045  1
 I  I2  1  0.50037  0.00107  -0.00288  1
 I  I3  1  0.25160  0.50009  -0.01417  1
 I  I4  1  0.76239  0.50009  -0.01417  1
