CIF file written using JARVIS-Tools package.
data_Rb2As2Pt
_symmetry_space_group_name_H-M  'Cmcm'
_cell_length_a       6.27174
_cell_length_b       6.62589
_cell_length_c       8.06701
_cell_angle_alpha    114.247
_cell_angle_beta     90
_cell_angle_gamma    90

_symmetry_Int_Tables_number  63
_chemical_formula_structural  Rb2As2Pt
_chemical_formula_sum  Rb4As4Pt2
_cell_volume  305.65772616342457
_cell_formula_units_Z  2
loop_
  _symmetry_equiv_pos_site_id
 _symmetry_equiv_pos_as_xyz
 1  'x, y, z'
loop_
 _atom_site_type_symbol
 _atom_site_label
 _atom_site_symmetry_multiplicity
 _atom_site_fract_x
 _atom_site_fract_y
 _atom_site_fract_z
 _atom_site_fract_occupancy
 As  As1  1  0.75000  0.29371  0.21399  1
 As  As2  1  0.25000  0.07972  0.78601  1
 As  As3  1  0.25000  0.70629  0.78601  1
 As  As4  1  0.75000  0.92028  0.21399  1
 Pt  Pt1  1  0.00000  0.00000  0.00000  1
 Pt  Pt2  1  0.50000  0.00000  0.00000  1
 Rb  Rb1  1  0.75000  0.79518  0.59037  1
 Rb  Rb2  1  0.75000  0.41499  0.82999  1
 Rb  Rb3  1  0.25000  0.20482  0.40963  1
 Rb  Rb4  1  0.25000  0.58501  0.17001  1
