CIF file written using JARVIS-Tools package.
data_CdI2
_symmetry_space_group_name_H-M  'P3m1'
_cell_length_a       4.28635
_cell_length_b       4.28634
_cell_length_c       55.0136
_cell_angle_alpha    90
_cell_angle_beta     90
_cell_angle_gamma    120

_symmetry_Int_Tables_number  156
_chemical_formula_structural  CdI2
_chemical_formula_sum  Cd8I6
_cell_volume  875.3372728659701
_cell_formula_units_Z  8
loop_
  _symmetry_equiv_pos_site_id
 _symmetry_equiv_pos_as_xyz
 1  'x, y, z'
loop_
 _atom_site_type_symbol
 _atom_site_label
 _atom_site_symmetry_multiplicity
 _atom_site_fract_x
 _atom_site_fract_y
 _atom_site_fract_z
 _atom_site_fract_occupancy
 Cd  Cd1  1  0.00000  0.00000  0.78125  1
 Cd  Cd2  1  0.00000  0.00000  0.40622  1
 Cd  Cd3  1  0.00000  0.00000  0.90621  1
 Cd  Cd4  1  0.66667  0.33333  0.53128  1
 Cd  Cd5  1  0.66667  0.33333  0.28126  1
 Cd  Cd6  1  0.00000  0.00000  0.15622  1
 Cd  Cd7  1  0.66667  0.33333  0.03126  1
 Cd  Cd8  1  0.66667  0.33333  0.65621  1
 I  I1  1  0.33333  0.66667  0.81277  1
 I  I2  1  0.33333  0.66667  0.56280  1
 I  I3  1  0.66667  0.33333  0.12472  1
 I  I4  1  0.33333  0.66667  0.68775  1
 I  I5  1  0.33333  0.66667  0.06279  1
 I  I6  1  0.33333  0.66667  0.43776  1
 I  I7  1  0.00000  0.00000  0.24976  1
 I  I8  1  0.33333  0.66667  0.93775  1
 I  I9  1  0.66667  0.33333  0.87471  1
 I  I10  1  0.33333  0.66667  0.31279  1
 I  I11  1  0.66667  0.33333  0.74974  1
 I  I12  1  0.00000  0.00000  0.49977  1
 I  I13  1  0.66667  0.33333  0.37472  1
 I  I14  1  0.00000  0.00000  0.62471  1
 I  I15  1  0.33333  0.66667  0.18776  1
 I  I16  1  0.00000  0.00000  0.99976  1
