CIF file written using JARVIS-Tools package.
data_Tl2SiSe3
_symmetry_space_group_name_H-M  'P-1'
_cell_length_a       6.91647
_cell_length_b       6.92844
_cell_length_c       8.80135
_cell_angle_alpha    90.6118
_cell_angle_beta     111.56
_cell_angle_gamma    113.381

_symmetry_Int_Tables_number  2
_chemical_formula_structural  Tl2SiSe3
_chemical_formula_sum  Tl4Si2Se6
_cell_volume  353.9439843851993
_cell_formula_units_Z  2
loop_
  _symmetry_equiv_pos_site_id
 _symmetry_equiv_pos_as_xyz
 1  'x, y, z'
loop_
 _atom_site_type_symbol
 _atom_site_label
 _atom_site_symmetry_multiplicity
 _atom_site_fract_x
 _atom_site_fract_y
 _atom_site_fract_z
 _atom_site_fract_occupancy
 Se  Se1  1  0.76407  0.71266  0.90902  1
 Se  Se2  1  0.23593  0.28734  0.09098  1
 Se  Se3  1  0.52134  0.88583  0.27105  1
 Se  Se4  1  0.47866  0.11417  0.72895  1
 Se  Se5  1  0.23448  0.47345  0.49486  1
 Se  Se6  1  0.76552  0.52655  0.50514  1
 Si  Si1  1  0.43173  0.54735  0.31860  1
 Si  Si2  1  0.56827  0.45265  0.68140  1
 Tl  Tl1  1  0.74280  0.31948  0.10436  1
 Tl  Tl2  1  0.25720  0.68052  0.89564  1
 Tl  Tl3  1  0.88780  0.05962  0.66886  1
 Tl  Tl4  1  0.11220  0.94038  0.33114  1
