CIF file written using JARVIS-Tools package.
data_SbHO3
_symmetry_space_group_name_H-M  'Fdd2'
_cell_length_a       7.59131
_cell_length_b       7.33694
_cell_length_c       7.34447
_cell_angle_alpha    62.2718
_cell_angle_beta     58.8155
_cell_angle_gamma    58.9127

_symmetry_Int_Tables_number  43
_chemical_formula_structural  SbHO3
_chemical_formula_sum  Sb4H4O2
_cell_volume  288.5539112535497
_cell_formula_units_Z  4
loop_
  _symmetry_equiv_pos_site_id
 _symmetry_equiv_pos_as_xyz
 1  'x, y, z'
loop_
 _atom_site_type_symbol
 _atom_site_label
 _atom_site_symmetry_multiplicity
 _atom_site_fract_x
 _atom_site_fract_y
 _atom_site_fract_z
 _atom_site_fract_occupancy
 H  H1  1  0.58822  0.05208  0.26450  1
 H  H2  1  0.05208  0.58822  0.59520  1
 H  H3  1  0.40480  0.73550  0.94792  1
 H  H4  1  0.73550  0.40480  0.41178  1
 O  O1  1  0.93091  0.93091  0.31909  1
 O  O2  1  0.65809  0.07678  0.10264  1
 O  O3  1  0.94213  0.30984  0.92975  1
 O  O4  1  0.05874  0.05874  0.69126  1
 O  O5  1  0.68091  0.68091  0.06909  1
 O  O6  1  0.07678  0.65809  0.66249  1
 O  O7  1  0.68171  0.07025  0.69016  1
 O  O8  1  0.30984  0.94213  0.31829  1
 O  O9  1  0.89736  0.33751  0.34191  1
 O  O10  1  0.07025  0.68171  0.05787  1
 O  O11  1  0.30874  0.30874  0.94126  1
 O  O12  1  0.33751  0.89736  0.92322  1
 Sb  Sb1  1  0.99756  0.99727  0.00203  1
 Sb  Sb2  1  0.49687  0.99797  0.00273  1
 Sb  Sb3  1  0.99727  0.99756  0.50313  1
 Sb  Sb4  1  0.99797  0.49687  0.00244  1
