CIF file written using JARVIS-Tools package.
data_AlCuSe2
_symmetry_space_group_name_H-M  'I-42d'
_cell_length_a       5.64063
_cell_length_b       5.64062
_cell_length_c       6.84333
_cell_angle_alpha    114.338
_cell_angle_beta     114.338
_cell_angle_gamma    90

_symmetry_Int_Tables_number  122
_chemical_formula_structural  AlCuSe2
_chemical_formula_sum  Al2Cu2Se4
_cell_volume  176.92688224869676
_cell_formula_units_Z  2
loop_
  _symmetry_equiv_pos_site_id
 _symmetry_equiv_pos_as_xyz
 1  'x, y, z'
loop_
 _atom_site_type_symbol
 _atom_site_label
 _atom_site_symmetry_multiplicity
 _atom_site_fract_x
 _atom_site_fract_y
 _atom_site_fract_z
 _atom_site_fract_occupancy
 Al  Al1  1  0.75000  0.25000  0.50000  1
 Al  Al2  1  0.50000  0.50000  0.00000  1
 Cu  Cu1  1  0.25000  0.75000  0.50000  1
 Cu  Cu2  1  0.00000  0.00000  0.00000  1
 Se  Se1  1  0.37854  0.37500  0.25000  1
 Se  Se2  1  0.12500  0.62146  0.75000  1
 Se  Se3  1  0.62500  0.12854  0.75000  1
 Se  Se4  1  0.87146  0.87500  0.25000  1
