CIF file written using JARVIS-Tools package.
data_NbSe2Br2
_symmetry_space_group_name_H-M  'P-1'
_cell_length_a       6.71625
_cell_length_b       6.79
_cell_length_c       7.43107
_cell_angle_alpha    67.6504
_cell_angle_beta     67.881
_cell_angle_gamma    60.3805

_symmetry_Int_Tables_number  2
_chemical_formula_structural  NbSe2Br2
_chemical_formula_sum  Nb2Se4Br4
_cell_volume  264.8677975413915
_cell_formula_units_Z  2
loop_
  _symmetry_equiv_pos_site_id
 _symmetry_equiv_pos_as_xyz
 1  'x, y, z'
loop_
 _atom_site_type_symbol
 _atom_site_label
 _atom_site_symmetry_multiplicity
 _atom_site_fract_x
 _atom_site_fract_y
 _atom_site_fract_z
 _atom_site_fract_occupancy
 Br  Br1  1  0.58271  0.64953  0.76924  1
 Br  Br2  1  0.41729  0.35047  0.23076  1
 Br  Br3  1  0.82840  0.52172  0.22996  1
 Br  Br4  1  0.17160  0.47828  0.77004  1
 Nb  Nb1  1  0.87527  0.25197  0.99950  1
 Nb  Nb2  1  0.12473  0.74803  0.00050  1
 Se  Se1  1  0.74115  0.03907  0.86381  1
 Se  Se2  1  0.25885  0.96093  0.13619  1
 Se  Se3  1  0.08136  0.09207  0.66982  1
 Se  Se4  1  0.91864  0.90793  0.33018  1
