CIF file written using JARVIS-Tools package.
data_Nb2O5
_symmetry_space_group_name_H-M  'C2/m'
_cell_length_a       3.87294
_cell_length_b       4.02941
_cell_length_c       6.8318
_cell_angle_alpha    90.7329
_cell_angle_beta     106.466
_cell_angle_gamma    90

_symmetry_Int_Tables_number  12
_chemical_formula_structural  Nb2O5
_chemical_formula_sum  Nb2O5
_cell_volume  102.23292996971924
_cell_formula_units_Z  1
loop_
  _symmetry_equiv_pos_site_id
 _symmetry_equiv_pos_as_xyz
 1  'x, y, z'
loop_
 _atom_site_type_symbol
 _atom_site_label
 _atom_site_symmetry_multiplicity
 _atom_site_fract_x
 _atom_site_fract_y
 _atom_site_fract_z
 _atom_site_fract_occupancy
 Nb  Nb1  1  0.14632  0.06489  0.29263  1
 Nb  Nb2  1  0.85368  0.93511  0.70737  1
 O  O1  1  0.14862  0.51536  0.29725  1
 O  O2  1  0.85138  0.48464  0.70275  1
 O  O3  1  0.00000  0.00000  0.00000  1
 O  O4  1  0.31474  0.99584  0.62947  1
 O  O5  1  0.68526  0.00416  0.37053  1
