CIF file written using JARVIS-Tools package.
data_CuH
_symmetry_space_group_name_H-M  'P6_3mc'
_cell_length_a       2.85343
_cell_length_b       2.85343
_cell_length_c       4.5934
_cell_angle_alpha    90
_cell_angle_beta     90
_cell_angle_gamma    120

_symmetry_Int_Tables_number  186
_chemical_formula_structural  CuH
_chemical_formula_sum  Cu2H2
_cell_volume  32.38909861653898
_cell_formula_units_Z  2
loop_
  _symmetry_equiv_pos_site_id
 _symmetry_equiv_pos_as_xyz
 1  'x, y, z'
loop_
 _atom_site_type_symbol
 _atom_site_label
 _atom_site_symmetry_multiplicity
 _atom_site_fract_x
 _atom_site_fract_y
 _atom_site_fract_z
 _atom_site_fract_occupancy
 Cu  Cu1  1  0.66667  0.33333  0.50219  1
 Cu  Cu2  1  0.33333  0.66667  0.00219  1
 H  H1  1  0.66667  0.33333  0.12281  1
 H  H2  1  0.33333  0.66667  0.62281  1
