CIF file written using JARVIS-Tools package.
data_PbWO4
_symmetry_space_group_name_H-M  'I4_1/a'
_cell_length_a       5.50846
_cell_length_b       5.50851
_cell_length_c       7.1914
_cell_angle_alpha    112.522
_cell_angle_beta     112.523
_cell_angle_gamma    89.999

_symmetry_Int_Tables_number  88
_chemical_formula_structural  PbWO4
_chemical_formula_sum  Pb2W2O8
_cell_volume  183.4204396266909
_cell_formula_units_Z  2
loop_
  _symmetry_equiv_pos_site_id
 _symmetry_equiv_pos_as_xyz
 1  'x, y, z'
loop_
 _atom_site_type_symbol
 _atom_site_label
 _atom_site_symmetry_multiplicity
 _atom_site_fract_x
 _atom_site_fract_y
 _atom_site_fract_z
 _atom_site_fract_occupancy
 O  O1  1  0.27444  0.43410  0.08249  1
 O  O2  1  0.06364  0.68888  0.41397  1
 O  O3  1  0.64787  0.77316  0.58244  1
 O  O4  1  0.72449  0.56237  0.91392  1
 O  O5  1  0.35110  0.22323  0.41394  1
 O  O6  1  0.19016  0.84987  0.91399  1
 O  O7  1  0.80878  0.14662  0.08245  1
 O  O8  1  0.93538  0.30754  0.58248  1
 Pb  Pb1  1  0.62448  0.87322  0.24821  1
 Pb  Pb2  1  0.37446  0.12323  0.74820  1
 W  W1  1  0.12450  0.37321  0.24821  1
 W  W2  1  0.87447  0.62323  0.74821  1
