CIF file written using JARVIS-Tools package.
data_ZnCr4S8
_symmetry_space_group_name_H-M  'R-3m'
_cell_length_a       7.18443
_cell_length_b       7.18443
_cell_length_c       7.18443
_cell_angle_alpha    55.4923
_cell_angle_beta     55.4923
_cell_angle_gamma    55.4923

_symmetry_Int_Tables_number  166
_chemical_formula_structural  ZnCr4S8
_chemical_formula_sum  ZnCr4S8
_cell_volume  234.77365251094017
_cell_formula_units_Z  1
loop_
  _symmetry_equiv_pos_site_id
 _symmetry_equiv_pos_as_xyz
 1  'x, y, z'
loop_
 _atom_site_type_symbol
 _atom_site_label
 _atom_site_symmetry_multiplicity
 _atom_site_fract_x
 _atom_site_fract_y
 _atom_site_fract_z
 _atom_site_fract_occupancy
 Cr  Cr1  1  0.50000  1.00000  0.50000  1
 Cr  Cr2  1  1.00000  0.50000  0.50000  1
 Cr  Cr3  1  0.50000  0.50000  0.00000  1
 Cr  Cr4  1  0.00000  0.00000  0.00000  1
 S  S1  1  0.75531  0.26006  0.75531  1
 S  S2  1  0.24469  0.24469  0.73994  1
 S  S3  1  0.24469  0.73994  0.24469  1
 S  S4  1  0.73994  0.24469  0.24469  1
 S  S5  1  0.25854  0.25854  0.25854  1
 S  S6  1  0.74146  0.74146  0.74146  1
 S  S7  1  0.26006  0.75531  0.75531  1
 S  S8  1  0.75531  0.75531  0.26006  1
 Zn  Zn1  1  0.50000  0.50000  0.50000  1
