CIF file written using JARVIS-Tools package.
data_Na3UF7
_symmetry_space_group_name_H-M  'Cm'
_cell_length_a       5.57031
_cell_length_b       5.57031
_cell_length_c       6.80331
_cell_angle_alpha    116.355
_cell_angle_beta     116.355
_cell_angle_gamma    86.5645

_symmetry_Int_Tables_number  8
_chemical_formula_structural  Na3UF7
_chemical_formula_sum  Na3UF7
_cell_volume  167.00150091238896
_cell_formula_units_Z  1
loop_
  _symmetry_equiv_pos_site_id
 _symmetry_equiv_pos_as_xyz
 1  'x, y, z'
loop_
 _atom_site_type_symbol
 _atom_site_label
 _atom_site_symmetry_multiplicity
 _atom_site_fract_x
 _atom_site_fract_y
 _atom_site_fract_z
 _atom_site_fract_occupancy
 F  F1  1  0.16538  0.16538  0.85394  1
 F  F2  1  0.09337  0.61904  0.73741  1
 F  F3  1  0.36728  0.93158  0.23413  1
 F  F4  1  0.61904  0.09337  0.73741  1
 F  F5  1  0.60449  0.60449  0.71668  1
 F  F6  1  0.93158  0.36728  0.23413  1
 F  F7  1  0.87288  0.87288  0.23748  1
 Na  Na1  1  0.22973  0.77363  0.52417  1
 Na  Na2  1  0.50333  0.50333  0.96956  1
 Na  Na3  1  0.77363  0.22973  0.52417  1
 U  U1  1  0.96430  0.96430  0.98092  1
