CIF file written using JARVIS-Tools package.
data_Li4MoO5
_symmetry_space_group_name_H-M  'I4'
_cell_length_a       4.21488
_cell_length_b       5.04664
_cell_length_c       5.04664
_cell_angle_alpha    79.9582
_cell_angle_beta     114.683
_cell_angle_gamma    114.683

_symmetry_Int_Tables_number  79
_chemical_formula_structural  Li4MoO5
_chemical_formula_sum  Li4MoO5
_cell_volume  88.62710756505525
_cell_formula_units_Z  1
loop_
  _symmetry_equiv_pos_site_id
 _symmetry_equiv_pos_as_xyz
 1  'x, y, z'
loop_
 _atom_site_type_symbol
 _atom_site_label
 _atom_site_symmetry_multiplicity
 _atom_site_fract_x
 _atom_site_fract_y
 _atom_site_fract_z
 _atom_site_fract_occupancy
 Li  Li1  1  0.81133  0.41255  0.21540  1
 Li  Li2  1  0.59569  0.78546  0.41123  1
 Li  Li3  1  0.39989  0.21675  0.58833  1
 Li  Li4  1  0.18422  0.58964  0.78412  1
 Mo  Mo1  1  0.95261  0.00110  0.99978  1
 O  O1  1  0.29153  0.36558  0.18650  1
 O  O2  1  0.10479  0.81438  0.36424  1
 O  O3  1  0.92704  0.18781  0.63531  1
 O  O4  1  0.74032  0.63662  0.81305  1
 O  O5  1  0.51848  0.00110  0.99978  1
