CIF file written using JARVIS-Tools package.
data_KrF2
_symmetry_space_group_name_H-M  'I4/mmm'
_cell_length_a       4.08022
_cell_length_b       4.08022
_cell_length_c       4.36786
_cell_angle_alpha    117.845
_cell_angle_beta     117.844
_cell_angle_gamma    90

_symmetry_Int_Tables_number  139
_chemical_formula_structural  KrF2
_chemical_formula_sum  KrF2
_cell_volume  54.595149370118136
_cell_formula_units_Z  1
loop_
  _symmetry_equiv_pos_site_id
 _symmetry_equiv_pos_as_xyz
 1  'x, y, z'
loop_
 _atom_site_type_symbol
 _atom_site_label
 _atom_site_symmetry_multiplicity
 _atom_site_fract_x
 _atom_site_fract_y
 _atom_site_fract_z
 _atom_site_fract_occupancy
 F  F1  1  0.70270  0.70270  0.40541  1
 F  F2  1  0.29730  0.29730  0.59459  1
 Kr  Kr1  1  0.00000  0.00000  0.00000  1
