CIF file written using JARVIS-Tools package.
data_Na2Cl
_symmetry_space_group_name_H-M  'Cmmm'
_cell_length_a       3.93342
_cell_length_b       6.66214
_cell_length_c       7.44638
_cell_angle_alpha    116.573
_cell_angle_beta     90
_cell_angle_gamma    90

_symmetry_Int_Tables_number  65
_chemical_formula_structural  Na2Cl
_chemical_formula_sum  Na4Cl2
_cell_volume  174.51914294783123
_cell_formula_units_Z  2
loop_
  _symmetry_equiv_pos_site_id
 _symmetry_equiv_pos_as_xyz
 1  'x, y, z'
loop_
 _atom_site_type_symbol
 _atom_site_label
 _atom_site_symmetry_multiplicity
 _atom_site_fract_x
 _atom_site_fract_y
 _atom_site_fract_z
 _atom_site_fract_occupancy
 Cl  Cl1  1  0.00000  0.84782  0.69564  1
 Cl  Cl2  1  0.00000  0.15218  0.30436  1
 Na  Na1  1  0.00000  0.50000  0.00000  1
 Na  Na2  1  0.50000  0.00000  0.00000  1
 Na  Na3  1  0.50000  0.29479  0.58957  1
 Na  Na4  1  0.50000  0.70521  0.41043  1
