CIF file written using JARVIS-Tools package.
data_InSe
_symmetry_space_group_name_H-M  'C2/m'
_cell_length_a       11.9038
_cell_length_b       4.16945
_cell_length_c       4.7132
_cell_angle_alpha    90
_cell_angle_beta     110.347
_cell_angle_gamma    90

_symmetry_Int_Tables_number  12
_chemical_formula_structural  InSe
_chemical_formula_sum  In4Se4
_cell_volume  219.33048154248618
_cell_formula_units_Z  4
loop_
  _symmetry_equiv_pos_site_id
 _symmetry_equiv_pos_as_xyz
 1  'x, y, z'
loop_
 _atom_site_type_symbol
 _atom_site_label
 _atom_site_symmetry_multiplicity
 _atom_site_fract_x
 _atom_site_fract_y
 _atom_site_fract_z
 _atom_site_fract_occupancy
 In  In1  1  0.88622  0.00000  0.03179  1
 In  In2  1  0.11378  0.00000  0.96821  1
 In  In3  1  0.38622  0.50000  0.03179  1
 In  In4  1  0.61378  0.50000  0.96821  1
 Se  Se1  1  0.15621  0.50000  0.64573  1
 Se  Se2  1  0.84379  0.50000  0.35427  1
 Se  Se3  1  0.65621  0.00000  0.64573  1
 Se  Se4  1  0.34379  0.00000  0.35427  1
