CIF file written using JARVIS-Tools package.
data_Rb6AlSb3
_symmetry_space_group_name_H-M  'P2_1/m'
_cell_length_a       10.6163
_cell_length_b       6.23056
_cell_length_c       12.3786
_cell_angle_alpha    90
_cell_angle_beta     100.809
_cell_angle_gamma    90

_symmetry_Int_Tables_number  11
_chemical_formula_structural  Rb6AlSb3
_chemical_formula_sum  Rb2Al2Sb6
_cell_volume  804.2643989528827
_cell_formula_units_Z  2
loop_
  _symmetry_equiv_pos_site_id
 _symmetry_equiv_pos_as_xyz
 1  'x, y, z'
loop_
 _atom_site_type_symbol
 _atom_site_label
 _atom_site_symmetry_multiplicity
 _atom_site_fract_x
 _atom_site_fract_y
 _atom_site_fract_z
 _atom_site_fract_occupancy
 Al  Al1  1  0.32342  0.25000  0.71977  1
 Al  Al2  1  0.67658  0.75000  0.28023  1
 Rb  Rb1  1  0.12017  0.75000  0.67299  1
 Rb  Rb2  1  0.55227  0.25000  0.45084  1
 Rb  Rb3  1  0.87983  0.25000  0.32701  1
 Rb  Rb4  1  0.86770  0.25000  0.98065  1
 Rb  Rb5  1  0.44773  0.75000  0.54916  1
 Rb  Rb6  1  0.13230  0.75000  0.01935  1
 Rb  Rb7  1  0.45895  0.75000  0.92236  1
 Rb  Rb8  1  0.54105  0.25000  0.07764  1
 Rb  Rb9  1  0.75505  0.75000  0.78456  1
 Rb  Rb10  1  0.09507  0.75000  0.36601  1
 Rb  Rb11  1  0.90493  0.25000  0.63399  1
 Rb  Rb12  1  0.24495  0.25000  0.21544  1
 Sb  Sb1  1  0.21120  0.25000  0.51023  1
 Sb  Sb2  1  0.82161  0.75000  0.12276  1
 Sb  Sb3  1  0.42464  0.75000  0.22813  1
 Sb  Sb4  1  0.57536  0.25000  0.77187  1
 Sb  Sb5  1  0.78880  0.75000  0.48977  1
 Sb  Sb6  1  0.17839  0.25000  0.87724  1
