CIF file written using JARVIS-Tools package.
data_PtCl2
_symmetry_space_group_name_H-M  'Pnnm'
_cell_length_a       3.46245
_cell_length_b       3.58497
_cell_length_c       11.1887
_cell_angle_alpha    90
_cell_angle_beta     90
_cell_angle_gamma    90

_symmetry_Int_Tables_number  58
_chemical_formula_structural  PtCl2
_chemical_formula_sum  Pt2Cl4
_cell_volume  138.88267709555655
_cell_formula_units_Z  2
loop_
  _symmetry_equiv_pos_site_id
 _symmetry_equiv_pos_as_xyz
 1  'x, y, z'
loop_
 _atom_site_type_symbol
 _atom_site_label
 _atom_site_symmetry_multiplicity
 _atom_site_fract_x
 _atom_site_fract_y
 _atom_site_fract_z
 _atom_site_fract_occupancy
 Cl  Cl1  1  0.00000  0.00402  0.86067  1
 Cl  Cl2  1  0.50000  0.50402  0.63933  1
 Cl  Cl3  1  0.00000  0.99598  0.13933  1
 Cl  Cl4  1  0.50000  0.49598  0.36067  1
 Pt  Pt1  1  0.50000  0.00000  0.00000  1
 Pt  Pt2  1  0.00000  0.50000  0.50000  1
