CIF file written using JARVIS-Tools package.
data_CuHgSeCl
_symmetry_space_group_name_H-M  'Pbam'
_cell_length_a       4.23012
_cell_length_b       7.21402
_cell_length_c       12.8478
_cell_angle_alpha    90
_cell_angle_beta     90
_cell_angle_gamma    90

_symmetry_Int_Tables_number  55
_chemical_formula_structural  CuHgSeCl
_chemical_formula_sum  Cu4Hg4Se4Cl4
_cell_volume  392.06464196535273
_cell_formula_units_Z  4
loop_
  _symmetry_equiv_pos_site_id
 _symmetry_equiv_pos_as_xyz
 1  'x, y, z'
loop_
 _atom_site_type_symbol
 _atom_site_label
 _atom_site_symmetry_multiplicity
 _atom_site_fract_x
 _atom_site_fract_y
 _atom_site_fract_z
 _atom_site_fract_occupancy
 Cl  Cl1  1  0.50000  0.83579  0.12880  1
 Cl  Cl2  1  0.50000  0.33579  0.37120  1
 Cl  Cl3  1  0.50000  0.16421  0.87120  1
 Cl  Cl4  1  0.50000  0.66421  0.62880  1
 Cu  Cu1  1  0.50000  0.80492  0.47329  1
 Cu  Cu2  1  0.50000  0.30492  0.02671  1
 Cu  Cu3  1  0.50000  0.19508  0.52671  1
 Cu  Cu4  1  0.50000  0.69508  0.97329  1
 Hg  Hg1  1  0.00000  0.58931  0.25065  1
 Hg  Hg2  1  0.00000  0.08931  0.24935  1
 Hg  Hg3  1  0.00000  0.41069  0.74935  1
 Hg  Hg4  1  0.00000  0.91069  0.75065  1
 Se  Se1  1  0.00000  0.84046  0.39142  1
 Se  Se2  1  0.00000  0.65954  0.89142  1
 Se  Se3  1  0.00000  0.15954  0.60858  1
 Se  Se4  1  0.00000  0.34046  0.10858  1
