CIF file written using JARVIS-Tools package.
data_NaClO2
_symmetry_space_group_name_H-M  'C2/c'
_cell_length_a       4.57618
_cell_length_b       4.57617
_cell_length_c       6.42662
_cell_angle_alpha    70.0609
_cell_angle_beta     70.061
_cell_angle_gamma    88.3171

_symmetry_Int_Tables_number  15
_chemical_formula_structural  NaClO2
_chemical_formula_sum  Na2Cl2O4
_cell_volume  118.35433967166624
_cell_formula_units_Z  2
loop_
  _symmetry_equiv_pos_site_id
 _symmetry_equiv_pos_as_xyz
 1  'x, y, z'
loop_
 _atom_site_type_symbol
 _atom_site_label
 _atom_site_symmetry_multiplicity
 _atom_site_fract_x
 _atom_site_fract_y
 _atom_site_fract_z
 _atom_site_fract_occupancy
 Cl  Cl1  1  0.14573  0.85427  0.75000  1
 Cl  Cl2  1  0.85427  0.14573  0.25000  1
 Na  Na1  1  0.37130  0.62870  0.25000  1
 Na  Na2  1  0.62870  0.37130  0.75000  1
 O  O1  1  0.15376  0.57016  0.65994  1
 O  O2  1  0.42984  0.84624  0.84006  1
 O  O3  1  0.84624  0.42984  0.34006  1
 O  O4  1  0.57016  0.15376  0.15994  1
