CIF file written using JARVIS-Tools package.
data_LiHoO2
_symmetry_space_group_name_H-M  'P2_1/c'
_cell_length_a       6.16615
_cell_length_b       6.104
_cell_length_c       6.26835
_cell_angle_alpha    90
_cell_angle_beta     119.267
_cell_angle_gamma    90

_symmetry_Int_Tables_number  14
_chemical_formula_structural  LiHoO2
_chemical_formula_sum  Li4Ho4O8
_cell_volume  205.8134527316348
_cell_formula_units_Z  4
loop_
  _symmetry_equiv_pos_site_id
 _symmetry_equiv_pos_as_xyz
 1  'x, y, z'
loop_
 _atom_site_type_symbol
 _atom_site_label
 _atom_site_symmetry_multiplicity
 _atom_site_fract_x
 _atom_site_fract_y
 _atom_site_fract_z
 _atom_site_fract_occupancy
 Ho  Ho1  1  0.23149  0.86825  0.97535  1
 Ho  Ho2  1  0.23149  0.63175  0.47535  1
 Ho  Ho3  1  0.76851  0.13175  0.02465  1
 Ho  Ho4  1  0.76851  0.36825  0.52465  1
 Li  Li1  1  0.29637  0.34178  0.07149  1
 Li  Li2  1  0.70363  0.84178  0.42851  1
 Li  Li3  1  0.70363  0.65822  0.92851  1
 Li  Li4  1  0.29637  0.15822  0.57149  1
 O  O1  1  0.45220  0.60648  0.26167  1
 O  O2  1  0.98372  0.82326  0.14788  1
 O  O3  1  0.54780  0.10648  0.23833  1
 O  O4  1  0.54780  0.39352  0.73833  1
 O  O5  1  0.01628  0.17674  0.85212  1
 O  O6  1  0.01628  0.32326  0.35212  1
 O  O7  1  0.98372  0.67674  0.64788  1
 O  O8  1  0.45220  0.89352  0.76167  1
