CIF file written using JARVIS-Tools package.
data_BiN
_symmetry_space_group_name_H-M  'Pmn2_1'
_cell_length_a       3.6124
_cell_length_b       4.07053
_cell_length_c       5.21343
_cell_angle_alpha    90.0129
_cell_angle_beta     89.9998
_cell_angle_gamma    90.0247

_symmetry_Int_Tables_number  31
_chemical_formula_structural  BiN
_chemical_formula_sum  Bi2N2
_cell_volume  76.66013236198418
_cell_formula_units_Z  2
loop_
  _symmetry_equiv_pos_site_id
 _symmetry_equiv_pos_as_xyz
 1  'x, y, z'
loop_
 _atom_site_type_symbol
 _atom_site_label
 _atom_site_symmetry_multiplicity
 _atom_site_fract_x
 _atom_site_fract_y
 _atom_site_fract_z
 _atom_site_fract_occupancy
 Bi  Bi1  1  0.62727  0.10307  0.03556  1
 Bi  Bi2  1  0.12723  0.64500  0.53549  1
 N  N1  1  0.62741  -0.02109  0.45904  1
 N  N2  1  0.12707  0.76916  0.95900  1
