CIF file written using JARVIS-Tools package.
data_Tb7O12
_symmetry_space_group_name_H-M  'R-3'
_cell_length_a       6.62455
_cell_length_b       6.62455
_cell_length_c       6.62455
_cell_angle_alpha    99.559
_cell_angle_beta     99.559
_cell_angle_gamma    99.5591

_symmetry_Int_Tables_number  148
_chemical_formula_structural  Tb7O12
_chemical_formula_sum  Tb7O2
_cell_volume  277.03759053703027
_cell_formula_units_Z  1
loop_
  _symmetry_equiv_pos_site_id
 _symmetry_equiv_pos_as_xyz
 1  'x, y, z'
loop_
 _atom_site_type_symbol
 _atom_site_label
 _atom_site_symmetry_multiplicity
 _atom_site_fract_x
 _atom_site_fract_y
 _atom_site_fract_z
 _atom_site_fract_occupancy
 O  O1  1  0.17906  0.43603  0.57847  1
 O  O2  1  0.43603  0.57847  0.17906  1
 O  O3  1  0.57847  0.17906  0.43603  1
 O  O4  1  0.82094  0.56397  0.42153  1
 O  O5  1  0.56397  0.42153  0.82094  1
 O  O6  1  0.42153  0.82094  0.56397  1
 O  O7  1  0.32604  0.06294  0.93543  1
 O  O8  1  0.06457  0.67396  0.93706  1
 O  O9  1  0.93706  0.06457  0.67396  1
 O  O10  1  0.67396  0.93706  0.06457  1
 O  O11  1  0.06294  0.93543  0.32604  1
 O  O12  1  0.93543  0.32604  0.06294  1
 Tb  Tb1  1  0.13860  0.60831  0.30138  1
 Tb  Tb2  1  0.39169  0.69862  0.86140  1
 Tb  Tb3  1  0.69862  0.86140  0.39169  1
 Tb  Tb4  1  0.86140  0.39169  0.69862  1
 Tb  Tb5  1  0.60831  0.30138  0.13860  1
 Tb  Tb6  1  0.30138  0.13860  0.60831  1
 Tb  Tb7  1  0.00000  0.00000  0.00000  1
