CIF file written using JARVIS-Tools package.
data_Ca3N2
_symmetry_space_group_name_H-M  'R-3c'
_cell_length_a       6.55616
_cell_length_b       6.55616
_cell_length_c       6.55616
_cell_angle_alpha    56.1174
_cell_angle_beta     56.1174
_cell_angle_gamma    56.1174

_symmetry_Int_Tables_number  167
_chemical_formula_structural  Ca3N2
_chemical_formula_sum  Ca6N4
_cell_volume  181.35175307821453
_cell_formula_units_Z  2
loop_
  _symmetry_equiv_pos_site_id
 _symmetry_equiv_pos_as_xyz
 1  'x, y, z'
loop_
 _atom_site_type_symbol
 _atom_site_label
 _atom_site_symmetry_multiplicity
 _atom_site_fract_x
 _atom_site_fract_y
 _atom_site_fract_z
 _atom_site_fract_occupancy
 Ca  Ca1  1  0.75000  0.45045  0.04955  1
 Ca  Ca2  1  0.04955  0.75000  0.45045  1
 Ca  Ca3  1  0.45045  0.04955  0.75000  1
 Ca  Ca4  1  0.95045  0.25000  0.54955  1
 Ca  Ca5  1  0.25000  0.54955  0.95045  1
 Ca  Ca6  1  0.54955  0.95045  0.25000  1
 N  N1  1  0.85396  0.85396  0.85396  1
 N  N2  1  0.64604  0.64604  0.64604  1
 N  N3  1  0.14604  0.14604  0.14604  1
 N  N4  1  0.35396  0.35396  0.35396  1
