CIF file written using JARVIS-Tools package.
data_Na5NiSO2
_symmetry_space_group_name_H-M  'P4/mmm'
_cell_length_a       4.5598
_cell_length_b       4.55981
_cell_length_c       8.06695
_cell_angle_alpha    90
_cell_angle_beta     90
_cell_angle_gamma    90

_symmetry_Int_Tables_number  123
_chemical_formula_structural  Na5NiSO2
_chemical_formula_sum  Na5NiSO2
_cell_volume  167.72624357743263
_cell_formula_units_Z  1
loop_
  _symmetry_equiv_pos_site_id
 _symmetry_equiv_pos_as_xyz
 1  'x, y, z'
loop_
 _atom_site_type_symbol
 _atom_site_label
 _atom_site_symmetry_multiplicity
 _atom_site_fract_x
 _atom_site_fract_y
 _atom_site_fract_z
 _atom_site_fract_occupancy
 Na  Na1  1  0.00000  0.50000  0.25500  1
 Na  Na2  1  0.50000  0.00000  0.25510  1
 Na  Na3  1  0.00000  0.50000  0.74500  1
 Na  Na4  1  0.50000  0.00000  0.74490  1
 Na  Na5  1  0.00000  0.00000  0.50000  1
 Ni  Ni1  1  0.00000  0.00000  0.00000  1
 O  O1  1  0.00000  0.00000  0.78012  1
 O  O2  1  0.00000  0.00000  0.21988  1
 S  S1  1  0.50000  0.50000  0.50000  1
