CIF file written using JARVIS-Tools package.
data_Ta2PdSe6
_symmetry_space_group_name_H-M  'C2/m'
_cell_length_a       3.40522
_cell_length_b       6.57542
_cell_length_c       9.75389
_cell_angle_alpha    78.3596
_cell_angle_beta     79.9472
_cell_angle_gamma    74.9931

_symmetry_Int_Tables_number  12
_chemical_formula_structural  Ta2PdSe6
_chemical_formula_sum  Ta2PdSe6
_cell_volume  204.87606379110267
_cell_formula_units_Z  1
loop_
  _symmetry_equiv_pos_site_id
 _symmetry_equiv_pos_as_xyz
 1  'x, y, z'
loop_
 _atom_site_type_symbol
 _atom_site_label
 _atom_site_symmetry_multiplicity
 _atom_site_fract_x
 _atom_site_fract_y
 _atom_site_fract_z
 _atom_site_fract_occupancy
 Pd  Pd1  1  0.00000  0.00000  0.00000  1
 Se  Se1  1  0.21833  0.69069  0.87264  1
 Se  Se2  1  0.78167  0.30931  0.12736  1
 Se  Se3  1  0.65932  0.22021  0.46116  1
 Se  Se4  1  0.00778  0.22297  0.76147  1
 Se  Se5  1  0.99222  0.77703  0.23853  1
 Se  Se6  1  0.34068  0.77979  0.53884  1
 Ta  Ta1  1  0.68032  0.92963  0.70973  1
 Ta  Ta2  1  0.31968  0.07037  0.29027  1
