CIF file written using JARVIS-Tools package.
data_MoWSe2S2
_symmetry_space_group_name_H-M  'P3m1'
_cell_length_a       3.25469
_cell_length_b       3.25469
_cell_length_c       34.0015
_cell_angle_alpha    90.0007
_cell_angle_beta     90.0046
_cell_angle_gamma    119.999

_symmetry_Int_Tables_number  156
_chemical_formula_structural  MoWSe2S2
_chemical_formula_sum  Mo2W2Se4S4
_cell_volume  311.9257202438737
_cell_formula_units_Z  2
loop_
  _symmetry_equiv_pos_site_id
 _symmetry_equiv_pos_as_xyz
 1  'x, y, z'
loop_
 _atom_site_type_symbol
 _atom_site_label
 _atom_site_symmetry_multiplicity
 _atom_site_fract_x
 _atom_site_fract_y
 _atom_site_fract_z
 _atom_site_fract_occupancy
 Mo  Mo1  1  0.33292  0.66664  0.08854  1
 Mo  Mo2  1  0.66658  0.33330  0.28435  1
 S  S1  1  0.33375  0.66668  0.70208  1
 S  S2  1  0.66674  0.33336  0.42790  1
 S  S3  1  0.66685  0.33344  0.51929  1
 S  S4  1  0.33366  0.66665  0.61073  1
 Se  Se1  1  0.33331  0.66668  0.33431  1
 Se  Se2  1  0.66620  0.33327  0.03862  1
 Se  Se3  1  0.66631  0.33333  0.13853  1
 Se  Se4  1  0.33319  0.66660  0.23436  1
 W  W1  1  0.33346  0.66674  0.47360  1
 W  W2  1  0.66704  0.33332  0.65642  1
