CIF file written using JARVIS-Tools package.
data_Zn2CoIrO6
_symmetry_space_group_name_H-M  'P2_1/c'
_cell_length_a       5.10541
_cell_length_b       5.12607
_cell_length_c       9.09933
_cell_angle_alpha    90
_cell_angle_beta     124.127
_cell_angle_gamma    90

_symmetry_Int_Tables_number  14
_chemical_formula_structural  Zn2CoIrO6
_chemical_formula_sum  Zn4Co2Ir2O2
_cell_volume  197.1279681079054
_cell_formula_units_Z  2
loop_
  _symmetry_equiv_pos_site_id
 _symmetry_equiv_pos_as_xyz
 1  'x, y, z'
loop_
 _atom_site_type_symbol
 _atom_site_label
 _atom_site_symmetry_multiplicity
 _atom_site_fract_x
 _atom_site_fract_y
 _atom_site_fract_z
 _atom_site_fract_occupancy
 Co  Co1  1  0.00000  0.50000  0.00000  1
 Co  Co2  1  0.00000  0.00000  0.50000  1
 Ir  Ir1  1  0.50000  0.50000  0.50000  1
 Ir  Ir2  1  0.50000  0.00000  0.00000  1
 O  O1  1  0.61780  0.67132  0.93635  1
 O  O2  1  0.86969  0.58451  0.75428  1
 O  O3  1  0.38220  0.17132  0.56365  1
 O  O4  1  0.61780  0.82868  0.43635  1
 O  O5  1  0.38220  0.32868  0.06365  1
 O  O6  1  0.23371  0.81601  0.06367  1
 O  O7  1  0.13031  0.08451  0.74572  1
 O  O8  1  0.13031  0.41549  0.24572  1
 O  O9  1  0.23371  0.68399  0.56367  1
 O  O10  1  0.76629  0.31601  0.43633  1
 O  O11  1  0.76629  0.18399  0.93633  1
 O  O12  1  0.86969  0.91549  0.25428  1
 Zn  Zn1  1  0.75820  0.96745  0.75024  1
 Zn  Zn2  1  0.24180  0.46745  0.74976  1
 Zn  Zn3  1  0.75820  0.53255  0.25024  1
 Zn  Zn4  1  0.24180  0.03255  0.24976  1
