CIF file written using JARVIS-Tools package.
data_LiHoSe2
_symmetry_space_group_name_H-M  'I4_1/amd'
_cell_length_a       7.98425
_cell_length_b       10.6092
_cell_length_c       6.98606
_cell_angle_alpha    29.1281
_cell_angle_beta     55.1492
_cell_angle_gamma    41.1861

_symmetry_Int_Tables_number  141
_chemical_formula_structural  LiHoSe2
_chemical_formula_sum  Li2Ho2Se4
_cell_volume  182.73546152549113
_cell_formula_units_Z  2
loop_
  _symmetry_equiv_pos_site_id
 _symmetry_equiv_pos_as_xyz
 1  'x, y, z'
loop_
 _atom_site_type_symbol
 _atom_site_label
 _atom_site_symmetry_multiplicity
 _atom_site_fract_x
 _atom_site_fract_y
 _atom_site_fract_z
 _atom_site_fract_occupancy
 Ho  Ho1  1  0.25000  0.50000  0.00000  1
 Ho  Ho2  1  0.50000  0.00000  0.00000  1
 Li  Li1  1  0.00001  0.00000  0.00000  1
 Li  Li2  1  0.74999  0.50000  0.00000  1
 Se  Se1  1  0.25283  -0.00000  0.49433  1
 Se  Se2  1  0.74716  0.00000  0.50567  1
 Se  Se3  1  0.49717  0.50000  0.50567  1
 Se  Se4  1  0.00284  0.50000  0.49433  1
