CIF file written using JARVIS-Tools package.
data_ZnS
_symmetry_space_group_name_H-M  'R3m'
_cell_length_a       12.7725
_cell_length_b       12.7725
_cell_length_c       12.7725
_cell_angle_alpha    17.2856
_cell_angle_beta     17.2855
_cell_angle_gamma    17.2856

_symmetry_Int_Tables_number  160
_chemical_formula_structural  ZnS
_chemical_formula_sum  Zn4S4
_cell_volume  160.52507769536282
_cell_formula_units_Z  4
loop_
  _symmetry_equiv_pos_site_id
 _symmetry_equiv_pos_as_xyz
 1  'x, y, z'
loop_
 _atom_site_type_symbol
 _atom_site_label
 _atom_site_symmetry_multiplicity
 _atom_site_fract_x
 _atom_site_fract_y
 _atom_site_fract_z
 _atom_site_fract_occupancy
 S  S1  1  0.64593  0.64593  0.64593  1
 S  S2  1  0.89577  0.89577  0.89577  1
 S  S3  1  0.47899  0.47899  0.47899  1
 S  S4  1  0.06249  0.06249  0.06249  1
 Zn  Zn1  1  0.41665  0.41665  0.41665  1
 Zn  Zn2  1  0.00016  0.00016  0.00016  1
 Zn  Zn3  1  0.58348  0.58348  0.58348  1
 Zn  Zn4  1  0.83329  0.83329  0.83329  1
