CIF file written using JARVIS-Tools package.
data_Na3Cl2
_symmetry_space_group_name_H-M  'Cmmm'
_cell_length_a       3.47379
_cell_length_b       3.48215
_cell_length_c       10.2355
_cell_angle_alpha    99.7937
_cell_angle_beta     90
_cell_angle_gamma    90

_symmetry_Int_Tables_number  65
_chemical_formula_structural  Na3Cl2
_chemical_formula_sum  Na3Cl2
_cell_volume  122.0068278850485
_cell_formula_units_Z  1
loop_
  _symmetry_equiv_pos_site_id
 _symmetry_equiv_pos_as_xyz
 1  'x, y, z'
loop_
 _atom_site_type_symbol
 _atom_site_label
 _atom_site_symmetry_multiplicity
 _atom_site_fract_x
 _atom_site_fract_y
 _atom_site_fract_z
 _atom_site_fract_occupancy
 Cl  Cl1  1  0.50000  0.91398  0.82796  1
 Cl  Cl2  1  0.50000  0.08602  0.17204  1
 Na  Na1  1  0.00000  0.50000  0.00000  1
 Na  Na2  1  0.00000  0.33110  0.66221  1
 Na  Na3  1  0.00000  0.66890  0.33779  1
