CIF file written using JARVIS-Tools package.
data_Ba2N
_symmetry_space_group_name_H-M  'R-3m'
_cell_length_a       7.87228
_cell_length_b       7.87227
_cell_length_c       7.87228
_cell_angle_alpha    29.5412
_cell_angle_beta     29.5413
_cell_angle_gamma    29.5412

_symmetry_Int_Tables_number  166
_chemical_formula_structural  Ba2N
_chemical_formula_sum  Ba2N
_cell_volume  104.98235135770791
_cell_formula_units_Z  1
loop_
  _symmetry_equiv_pos_site_id
 _symmetry_equiv_pos_as_xyz
 1  'x, y, z'
loop_
 _atom_site_type_symbol
 _atom_site_label
 _atom_site_symmetry_multiplicity
 _atom_site_fract_x
 _atom_site_fract_y
 _atom_site_fract_z
 _atom_site_fract_occupancy
 Ba  Ba1  1  0.73360  0.73360  0.73360  1
 Ba  Ba2  1  0.26640  0.26640  0.26640  1
 N  N1  1  0.00000  0.00000  0.00000  1
