CIF file written using JARVIS-Tools package.
data_CaMnGe2O6
_symmetry_space_group_name_H-M  'C2/c'
_cell_length_a       5.4949
_cell_length_b       6.89643
_cell_length_c       6.89643
_cell_angle_alpha    82.5745
_cell_angle_beta     79.8103
_cell_angle_gamma    79.8103

_symmetry_Int_Tables_number  15
_chemical_formula_structural  CaMnGe2O6
_chemical_formula_sum  Ca2Mn2Ge4O2
_cell_volume  251.86513453469468
_cell_formula_units_Z  2
loop_
  _symmetry_equiv_pos_site_id
 _symmetry_equiv_pos_as_xyz
 1  'x, y, z'
loop_
 _atom_site_type_symbol
 _atom_site_label
 _atom_site_symmetry_multiplicity
 _atom_site_fract_x
 _atom_site_fract_y
 _atom_site_fract_z
 _atom_site_fract_occupancy
 Ca  Ca1  1  0.75000  0.30764  0.69236  1
 Ca  Ca2  1  0.25000  0.69236  0.30764  1
 Ge  Ge1  1  0.76871  0.38470  0.18581  1
 Ge  Ge2  1  0.73129  0.81419  0.61530  1
 Ge  Ge3  1  0.23129  0.61530  0.81419  1
 Ge  Ge4  1  0.26871  0.18581  0.38470  1
 Mn  Mn1  1  0.75000  0.90797  0.09203  1
 Mn  Mn2  1  0.25000  0.09203  0.90797  1
 O  O1  1  0.52272  0.32264  0.39412  1
 O  O2  1  0.13792  0.79299  0.98455  1
 O  O3  1  0.47728  0.67736  0.60588  1
 O  O4  1  0.02272  0.39412  0.32264  1
 O  O5  1  0.97728  0.60588  0.67736  1
 O  O6  1  0.86208  0.20701  0.01545  1
 O  O7  1  0.85520  0.89297  0.37337  1
 O  O8  1  0.64480  0.62663  0.10703  1
 O  O9  1  0.14480  0.10703  0.62663  1
 O  O10  1  0.63792  0.98455  0.79299  1
 O  O11  1  0.35520  0.37337  0.89297  1
 O  O12  1  0.36208  0.01545  0.20701  1
