CIF file written using JARVIS-Tools package.
data_BaTaCuO5
_symmetry_space_group_name_H-M  'P4mm'
_cell_length_a       3.81182
_cell_length_b       3.81182
_cell_length_c       8.60814
_cell_angle_alpha    90
_cell_angle_beta     90
_cell_angle_gamma    90

_symmetry_Int_Tables_number  99
_chemical_formula_structural  BaTaCuO5
_chemical_formula_sum  BaTaCuO5
_cell_volume  125.07596049476545
_cell_formula_units_Z  1
loop_
  _symmetry_equiv_pos_site_id
 _symmetry_equiv_pos_as_xyz
 1  'x, y, z'
loop_
 _atom_site_type_symbol
 _atom_site_label
 _atom_site_symmetry_multiplicity
 _atom_site_fract_x
 _atom_site_fract_y
 _atom_site_fract_z
 _atom_site_fract_occupancy
 Ba  Ba1  1  0.00000  0.00000  0.97458  1
 Cu  Cu1  1  0.50000  0.50000  0.71332  1
 O  O1  1  0.50000  0.00000  0.34546  1
 O  O2  1  0.00000  0.50000  0.34546  1
 O  O3  1  0.50000  0.00000  0.75546  1
 O  O4  1  0.00000  0.50000  0.75546  1
 O  O5  1  0.50000  0.50000  0.08481  1
 Ta  Ta1  1  0.50000  0.50000  0.30160  1
