CIF file written using JARVIS-Tools package.
data_Mo3O8
_symmetry_space_group_name_H-M  'P6_3mc'
_cell_length_a       5.9325
_cell_length_b       5.9325
_cell_length_c       9.22581
_cell_angle_alpha    90
_cell_angle_beta     90
_cell_angle_gamma    120

_symmetry_Int_Tables_number  186
_chemical_formula_structural  Mo3O8
_chemical_formula_sum  Mo6O6
_cell_volume  281.19664016925566
_cell_formula_units_Z  2
loop_
  _symmetry_equiv_pos_site_id
 _symmetry_equiv_pos_as_xyz
 1  'x, y, z'
loop_
 _atom_site_type_symbol
 _atom_site_label
 _atom_site_symmetry_multiplicity
 _atom_site_fract_x
 _atom_site_fract_y
 _atom_site_fract_z
 _atom_site_fract_occupancy
 Mo  Mo1  1  0.83306  0.66613  0.25047  1
 Mo  Mo2  1  0.66613  0.83306  0.75047  1
 Mo  Mo3  1  0.83306  0.16694  0.25047  1
 Mo  Mo4  1  0.16694  0.83306  0.75047  1
 Mo  Mo5  1  0.16694  0.33387  0.75047  1
 Mo  Mo6  1  0.33387  0.16694  0.25047  1
 O  O1  1  0.69650  0.84825  0.13970  1
 O  O2  1  0.84825  0.69650  0.63970  1
 O  O3  1  0.84825  0.15175  0.63970  1
 O  O4  1  0.15175  0.84825  0.13970  1
 O  O5  1  0.97043  0.48521  0.36153  1
 O  O6  1  0.30350  0.15175  0.63970  1
 O  O7  1  0.15175  0.30350  0.13970  1
 O  O8  1  0.48521  0.51479  0.86153  1
 O  O9  1  0.51479  0.48521  0.36153  1
 O  O10  1  0.02957  0.51479  0.86153  1
 O  O11  1  0.00000  0.00000  0.37007  1
 O  O12  1  0.00000  0.00000  0.87007  1
 O  O13  1  0.66667  0.33333  0.12998  1
 O  O14  1  0.48521  0.97043  0.86153  1
 O  O15  1  0.51479  0.02957  0.36153  1
 O  O16  1  0.33333  0.66667  0.62998  1
