CIF file written using JARVIS-Tools package.
data_NaAuO2
_symmetry_space_group_name_H-M  'Cmcm'
_cell_length_a       3.53409
_cell_length_b       5.9489
_cell_length_c       5.92237
_cell_angle_alpha    90
_cell_angle_beta     107.36
_cell_angle_gamma    90

_symmetry_Int_Tables_number  63
_chemical_formula_structural  NaAuO2
_chemical_formula_sum  Na2Au2O4
_cell_volume  118.84023375015943
_cell_formula_units_Z  2
loop_
  _symmetry_equiv_pos_site_id
 _symmetry_equiv_pos_as_xyz
 1  'x, y, z'
loop_
 _atom_site_type_symbol
 _atom_site_label
 _atom_site_symmetry_multiplicity
 _atom_site_fract_x
 _atom_site_fract_y
 _atom_site_fract_z
 _atom_site_fract_occupancy
 Au  Au1  1  0.99629  0.25000  0.99258  1
 Au  Au2  1  0.00371  0.75000  0.00742  1
 Na  Na1  1  0.28336  0.75000  0.56673  1
 Na  Na2  1  0.71664  0.25000  0.43327  1
 O  O1  1  0.87832  0.50739  0.75665  1
 O  O2  1  0.12168  0.49261  0.24335  1
 O  O3  1  0.87832  0.99261  0.75665  1
 O  O4  1  0.12168  0.00739  0.24335  1
