CIF file written using JARVIS-Tools package.
data_TlFe2S2
_symmetry_space_group_name_H-M  'I4/mmm'
_cell_length_a       3.61436
_cell_length_b       3.61435
_cell_length_c       7.62064
_cell_angle_alpha    103.718
_cell_angle_beta     103.718
_cell_angle_gamma    89.9999

_symmetry_Int_Tables_number  139
_chemical_formula_structural  TlFe2S2
_chemical_formula_sum  TlFe2S2
_cell_volume  93.7873434188356
_cell_formula_units_Z  1
loop_
  _symmetry_equiv_pos_site_id
 _symmetry_equiv_pos_as_xyz
 1  'x, y, z'
loop_
 _atom_site_type_symbol
 _atom_site_label
 _atom_site_symmetry_multiplicity
 _atom_site_fract_x
 _atom_site_fract_y
 _atom_site_fract_z
 _atom_site_fract_occupancy
 Fe  Fe1  1  0.25000  0.75000  0.50000  1
 Fe  Fe2  1  0.75000  0.25000  0.50000  1
 S  S1  1  0.64639  0.64639  0.29278  1
 S  S2  1  0.35361  0.35361  0.70722  1
 Tl  Tl1  1  0.00000  0.00000  0.00000  1
