CIF file written using JARVIS-Tools package.
data_Li2NdGe
_symmetry_space_group_name_H-M  'P6_3/mmc'
_cell_length_a       4.34012
_cell_length_b       4.34012
_cell_length_c       9.47623
_cell_angle_alpha    90
_cell_angle_beta     90
_cell_angle_gamma    120

_symmetry_Int_Tables_number  194
_chemical_formula_structural  Li2NdGe
_chemical_formula_sum  Li4Nd2Ge2
_cell_volume  154.58540568279568
_cell_formula_units_Z  2
loop_
  _symmetry_equiv_pos_site_id
 _symmetry_equiv_pos_as_xyz
 1  'x, y, z'
loop_
 _atom_site_type_symbol
 _atom_site_label
 _atom_site_symmetry_multiplicity
 _atom_site_fract_x
 _atom_site_fract_y
 _atom_site_fract_z
 _atom_site_fract_occupancy
 Ge  Ge1  1  0.00000  0.00000  0.00000  1
 Ge  Ge2  1  0.00000  0.00000  0.50000  1
 Li  Li1  1  0.66667  0.33333  0.43371  1
 Li  Li2  1  0.33333  0.66667  0.56629  1
 Li  Li3  1  0.33333  0.66667  0.93371  1
 Li  Li4  1  0.66667  0.33333  0.06629  1
 Nd  Nd1  1  0.66667  0.33333  0.75000  1
 Nd  Nd2  1  0.33333  0.66667  0.25000  1
