CIF file written using JARVIS-Tools package.
data_TiZn2
_symmetry_space_group_name_H-M  'P6_3/mmc'
_cell_length_a       5.07984
_cell_length_b       5.07984
_cell_length_c       8.12612
_cell_angle_alpha    90
_cell_angle_beta     90
_cell_angle_gamma    120

_symmetry_Int_Tables_number  194
_chemical_formula_structural  TiZn2
_chemical_formula_sum  Ti4Zn8
_cell_volume  181.59914300802458
_cell_formula_units_Z  4
loop_
  _symmetry_equiv_pos_site_id
 _symmetry_equiv_pos_as_xyz
 1  'x, y, z'
loop_
 _atom_site_type_symbol
 _atom_site_label
 _atom_site_symmetry_multiplicity
 _atom_site_fract_x
 _atom_site_fract_y
 _atom_site_fract_z
 _atom_site_fract_occupancy
 Ti  Ti1  1  0.33333  0.66667  0.93179  1
 Ti  Ti2  1  0.66667  0.33333  0.43179  1
 Ti  Ti3  1  0.66667  0.33333  0.06821  1
 Ti  Ti4  1  0.33333  0.66667  0.56821  1
 Zn  Zn1  1  0.00000  0.00000  0.00000  1
 Zn  Zn2  1  0.00000  0.00000  0.50000  1
 Zn  Zn3  1  0.34451  0.17225  0.75000  1
 Zn  Zn4  1  0.17225  0.82775  0.25000  1
 Zn  Zn5  1  0.17225  0.34451  0.25000  1
 Zn  Zn6  1  0.82775  0.65549  0.75000  1
 Zn  Zn7  1  0.82775  0.17225  0.75000  1
 Zn  Zn8  1  0.65549  0.82775  0.25000  1
