CIF file written using JARVIS-Tools package.
data_Mn4As3
_symmetry_space_group_name_H-M  'C2/m'
_cell_length_a       3.53169
_cell_length_b       6.73264
_cell_length_c       9.37587
_cell_angle_alpha    103.272
_cell_angle_beta     90
_cell_angle_gamma    105.205

_symmetry_Int_Tables_number  12
_chemical_formula_structural  Mn4As3
_chemical_formula_sum  Mn8As6
_cell_volume  208.95416855520335
_cell_formula_units_Z  2
loop_
  _symmetry_equiv_pos_site_id
 _symmetry_equiv_pos_as_xyz
 1  'x, y, z'
loop_
 _atom_site_type_symbol
 _atom_site_label
 _atom_site_symmetry_multiplicity
 _atom_site_fract_x
 _atom_site_fract_y
 _atom_site_fract_z
 _atom_site_fract_occupancy
 As  As1  1  0.06287  0.12574  0.27299  1
 As  As2  1  0.93713  0.87426  0.72701  1
 As  As3  1  0.18684  0.37367  0.65295  1
 As  As4  1  0.81316  0.62633  0.34705  1
 As  As5  1  0.36288  0.72576  0.02096  1
 As  As6  1  0.63712  0.27424  0.97904  1
 Mn  Mn1  1  0.21812  0.43624  0.16518  1
 Mn  Mn2  1  0.78188  0.56376  0.83482  1
 Mn  Mn3  1  0.34405  0.68810  0.55059  1
 Mn  Mn4  1  0.65595  0.31190  0.44941  1
 Mn  Mn5  1  0.43232  0.86464  0.28856  1
 Mn  Mn6  1  0.56768  0.13536  0.71144  1
 Mn  Mn7  1  -0.00000  0.00000  0.50000  1
 Mn  Mn8  1  0.00000  0.00000  0.00000  1
