CIF file written using JARVIS-Tools package.
data_LiFeSiO4
_symmetry_space_group_name_H-M  'I-4'
_cell_length_a       4.42991
_cell_length_b       5.32722
_cell_length_c       4.42991
_cell_angle_alpha    65.4316
_cell_angle_beta     90
_cell_angle_gamma    114.568

_symmetry_Int_Tables_number  82
_chemical_formula_structural  LiFeSiO4
_chemical_formula_sum  LiFeSiO4
_cell_volume  84.55979115166973
_cell_formula_units_Z  1
loop_
  _symmetry_equiv_pos_site_id
 _symmetry_equiv_pos_as_xyz
 1  'x, y, z'
loop_
 _atom_site_type_symbol
 _atom_site_label
 _atom_site_symmetry_multiplicity
 _atom_site_fract_x
 _atom_site_fract_y
 _atom_site_fract_z
 _atom_site_fract_occupancy
 Fe  Fe1  1  0.75000  0.50000  0.75000  1
 Li  Li1  1  0.50000  0.00000  0.50000  1
 O  O1  1  0.34775  0.21763  0.08452  1
 O  O2  1  0.69785  0.78237  0.34775  1
 O  O3  1  0.86989  0.21763  0.69785  1
 O  O4  1  0.08452  0.78237  0.86989  1
 Si  Si1  1  0.00000  0.00000  0.00000  1
