CIF file written using JARVIS-Tools package.
data_Sr5Au2O8
_symmetry_space_group_name_H-M  'I4/mmm'
_cell_length_a       6.55515
_cell_length_b       6.75972
_cell_length_c       6.75993
_cell_angle_alpha    76.4031
_cell_angle_beta     60.9971
_cell_angle_gamma    60.9961

_symmetry_Int_Tables_number  139
_chemical_formula_structural  Sr5Au2O8
_chemical_formula_sum  Sr5Au2O8
_cell_volume  229.12075487152956
_cell_formula_units_Z  1
loop_
  _symmetry_equiv_pos_site_id
 _symmetry_equiv_pos_as_xyz
 1  'x, y, z'
loop_
 _atom_site_type_symbol
 _atom_site_label
 _atom_site_symmetry_multiplicity
 _atom_site_fract_x
 _atom_site_fract_y
 _atom_site_fract_z
 _atom_site_fract_occupancy
 Au  Au1  1  0.50000  0.00000  0.00000  1
 Au  Au2  1  0.00000  0.00000  0.00000  1
 O  O1  1  0.75623  0.75544  0.75545  1
 O  O2  1  0.26712  0.24456  0.24455  1
 O  O3  1  0.48833  0.75544  0.24455  1
 O  O4  1  0.48832  0.24456  0.75545  1
 O  O5  1  0.01165  0.24456  0.75545  1
 O  O6  1  0.01166  0.75544  0.24455  1
 O  O7  1  0.74379  0.24456  0.24455  1
 O  O8  1  0.23290  0.75544  0.75545  1
 Sr  Sr1  1  0.52772  0.50000  0.94456  1
 Sr  Sr2  1  0.97228  0.50000  0.05544  1
 Sr  Sr3  1  0.97225  0.05551  0.50000  1
 Sr  Sr4  1  0.52775  0.94449  0.50000  1
 Sr  Sr5  1  0.25000  0.50000  0.50000  1
