CIF file written using JARVIS-Tools package.
data_Nd5Si3
_symmetry_space_group_name_H-M  'I4/mcm'
_cell_length_a       7.84013
_cell_length_b       7.84013
_cell_length_c       8.85281
_cell_angle_alpha    116.283
_cell_angle_beta     116.283
_cell_angle_gamma    90

_symmetry_Int_Tables_number  140
_chemical_formula_structural  Nd5Si3
_chemical_formula_sum  Nd0Si6
_cell_volume  424.25341319210236
_cell_formula_units_Z  2
loop_
  _symmetry_equiv_pos_site_id
 _symmetry_equiv_pos_as_xyz
 1  'x, y, z'
loop_
 _atom_site_type_symbol
 _atom_site_label
 _atom_site_symmetry_multiplicity
 _atom_site_fract_x
 _atom_site_fract_y
 _atom_site_fract_z
 _atom_site_fract_occupancy
 Nd  Nd1  1  0.67593  0.17593  0.70622  1
 Nd  Nd2  1  0.17593  0.03029  0.70622  1
 Nd  Nd3  1  0.03029  0.53029  0.70622  1
 Nd  Nd4  1  0.46971  0.32407  0.29378  1
 Nd  Nd5  1  0.32407  0.82407  0.29378  1
 Nd  Nd6  1  0.53029  0.67593  0.70622  1
 Nd  Nd7  1  0.82407  0.96971  0.29378  1
 Nd  Nd8  1  0.00000  0.00000  0.00000  1
 Nd  Nd9  1  0.96971  0.46971  0.29378  1
 Nd  Nd10  1  0.50000  0.50000  0.00000  1
 Si  Si1  1  0.11624  0.38376  0.00000  1
 Si  Si2  1  0.61624  0.11624  0.00000  1
 Si  Si3  1  0.38376  0.88376  -0.00000  1
 Si  Si4  1  0.88376  0.61624  -0.00000  1
 Si  Si5  1  0.25000  0.25000  0.50000  1
 Si  Si6  1  0.75000  0.75000  0.50000  1
