CIF file written using JARVIS-Tools package.
data_AsH6NO4
_symmetry_space_group_name_H-M  'I-42d'
_cell_length_a       6.65365
_cell_length_b       6.65365
_cell_length_c       6.65365
_cell_angle_alpha    109.856
_cell_angle_beta     109.856
_cell_angle_gamma    108.705

_symmetry_Int_Tables_number  122
_chemical_formula_structural  AsH6NO4
_chemical_formula_sum  As2H2N2O8
_cell_volume  226.72612043156516
_cell_formula_units_Z  2
loop_
  _symmetry_equiv_pos_site_id
 _symmetry_equiv_pos_as_xyz
 1  'x, y, z'
loop_
 _atom_site_type_symbol
 _atom_site_label
 _atom_site_symmetry_multiplicity
 _atom_site_fract_x
 _atom_site_fract_y
 _atom_site_fract_z
 _atom_site_fract_occupancy
 As  As1  1  0.75000  0.25000  0.50000  1
 As  As2  1  0.00000  0.00000  0.00000  1
 H  H1  1  0.55649  0.46431  0.86993  1
 H  H2  1  0.21431  0.80649  0.36993  1
 H  H3  1  0.43657  0.84438  0.63007  1
 H  H4  1  0.53569  0.40562  0.09218  1
 H  H5  1  0.15562  0.78569  0.59218  1
 H  H6  1  0.31343  0.44351  0.90782  1
 H  H7  1  0.19351  0.56343  0.40782  1
 H  H8  1  0.59438  0.68657  0.13007  1
 H  H9  1  0.71642  0.12500  0.09142  1
 H  H10  1  0.37500  0.28358  0.40858  1
 H  H11  1  0.87500  0.96642  0.59142  1
 H  H12  1  0.03358  0.62500  0.90858  1
 N  N1  1  0.25000  0.75000  0.50000  1
 N  N2  1  0.50000  0.50000  0.00000  1
 O  O1  1  0.03267  0.96082  0.74558  1
 O  O2  1  0.71733  0.96291  0.42815  1
 O  O3  1  0.71082  0.28267  0.24558  1
 O  O4  1  0.71291  0.96733  0.92815  1
 O  O5  1  0.03709  0.46524  0.75442  1
 O  O6  1  0.03918  0.78476  0.07185  1
 O  O7  1  0.53476  0.28918  0.57185  1
 O  O8  1  0.21524  0.28709  0.25442  1
