CIF file written using JARVIS-Tools package.
data_AlCrO3
_symmetry_space_group_name_H-M  'Pnma'
_cell_length_a       4.97312
_cell_length_b       5.01769
_cell_length_c       7.47005
_cell_angle_alpha    90
_cell_angle_beta     90
_cell_angle_gamma    90

_symmetry_Int_Tables_number  62
_chemical_formula_structural  AlCrO3
_chemical_formula_sum  Al4Cr4O2
_cell_volume  186.40456788231256
_cell_formula_units_Z  4
loop_
  _symmetry_equiv_pos_site_id
 _symmetry_equiv_pos_as_xyz
 1  'x, y, z'
loop_
 _atom_site_type_symbol
 _atom_site_label
 _atom_site_symmetry_multiplicity
 _atom_site_fract_x
 _atom_site_fract_y
 _atom_site_fract_z
 _atom_site_fract_occupancy
 Al  Al1  1  0.98960  0.97240  0.75000  1
 Al  Al2  1  0.48960  0.52760  0.25000  1
 Al  Al3  1  0.51040  0.47240  0.75000  1
 Al  Al4  1  0.01040  0.02760  0.25000  1
 Cr  Cr1  1  0.00000  0.50000  0.50000  1
 Cr  Cr2  1  0.50000  0.00000  0.50000  1
 Cr  Cr3  1  0.50000  0.00000  0.00000  1
 Cr  Cr4  1  0.00000  0.50000  0.00000  1
 O  O1  1  0.66168  0.33536  0.42196  1
 O  O2  1  0.35932  0.88343  0.25000  1
 O  O3  1  0.83832  0.83536  0.07804  1
 O  O4  1  0.33832  0.66464  0.92196  1
 O  O5  1  0.16168  0.16464  0.57804  1
 O  O6  1  0.14068  0.38343  0.25000  1
 O  O7  1  0.16168  0.16464  0.92196  1
 O  O8  1  0.66168  0.33536  0.07804  1
 O  O9  1  0.33832  0.66464  0.57804  1
 O  O10  1  0.64068  0.11657  0.75000  1
 O  O11  1  0.83832  0.83536  0.42196  1
 O  O12  1  0.85932  0.61657  0.75000  1
