CIF file written using JARVIS-Tools package.
data_CaP
_symmetry_space_group_name_H-M  'P-62m'
_cell_length_a       7.62774
_cell_length_b       7.62774
_cell_length_c       5.72308
_cell_angle_alpha    90
_cell_angle_beta     90
_cell_angle_gamma    120

_symmetry_Int_Tables_number  189
_chemical_formula_structural  CaP
_chemical_formula_sum  Ca6P6
_cell_volume  288.3719150503767
_cell_formula_units_Z  6
loop_
  _symmetry_equiv_pos_site_id
 _symmetry_equiv_pos_as_xyz
 1  'x, y, z'
loop_
 _atom_site_type_symbol
 _atom_site_label
 _atom_site_symmetry_multiplicity
 _atom_site_fract_x
 _atom_site_fract_y
 _atom_site_fract_z
 _atom_site_fract_occupancy
 Ca  Ca1  1  0.35656  0.35656  0.50000  1
 Ca  Ca2  1  0.64344  0.00000  0.50000  1
 Ca  Ca3  1  0.00000  0.64344  0.50000  1
 Ca  Ca4  1  0.69089  0.69089  0.00000  1
 Ca  Ca5  1  0.30911  0.00000  0.00000  1
 Ca  Ca6  1  0.00000  0.30911  0.00000  1
 P  P1  1  0.66667  0.33333  0.20375  1
 P  P2  1  0.66667  0.33333  0.79625  1
 P  P3  1  0.33333  0.66667  0.79625  1
 P  P4  1  0.33333  0.66667  0.20375  1
 P  P5  1  0.00000  0.00000  0.69816  1
 P  P6  1  0.00000  0.00000  0.30184  1
