CIF file written using JARVIS-Tools package.
data_Ca3MnCoO6
_symmetry_space_group_name_H-M  'R-3c'
_cell_length_a       6.3367
_cell_length_b       6.33669
_cell_length_c       6.33669
_cell_angle_alpha    91.8508
_cell_angle_beta     91.8508
_cell_angle_gamma    91.8508

_symmetry_Int_Tables_number  167
_chemical_formula_structural  Ca3MnCoO6
_chemical_formula_sum  Ca6Mn2Co2O2
_cell_volume  254.03507406150592
_cell_formula_units_Z  2
loop_
  _symmetry_equiv_pos_site_id
 _symmetry_equiv_pos_as_xyz
 1  'x, y, z'
loop_
 _atom_site_type_symbol
 _atom_site_label
 _atom_site_symmetry_multiplicity
 _atom_site_fract_x
 _atom_site_fract_y
 _atom_site_fract_z
 _atom_site_fract_occupancy
 Ca  Ca1  1  0.38686  0.11314  0.75000  1
 Ca  Ca2  1  0.61314  0.88686  0.25000  1
 Ca  Ca3  1  0.11314  0.75000  0.38686  1
 Ca  Ca4  1  0.75000  0.38686  0.11314  1
 Ca  Ca5  1  0.88686  0.25000  0.61314  1
 Ca  Ca6  1  0.25000  0.61314  0.88686  1
 Co  Co1  1  0.25000  0.25000  0.25000  1
 Co  Co2  1  0.75000  0.75000  0.75000  1
 Mn  Mn1  1  0.50000  0.50000  0.50000  1
 Mn  Mn2  1  0.00000  0.00000  0.00000  1
 O  O1  1  0.41515  0.54518  0.21346  1
 O  O2  1  0.08485  0.28654  0.95482  1
 O  O3  1  0.58485  0.45482  0.78654  1
 O  O4  1  0.91515  0.71346  0.04518  1
 O  O5  1  0.45482  0.78654  0.58485  1
 O  O6  1  0.95482  0.08485  0.28654  1
 O  O7  1  0.28654  0.95482  0.08485  1
 O  O8  1  0.54518  0.21346  0.41515  1
 O  O9  1  0.21346  0.41515  0.54518  1
 O  O10  1  0.71346  0.04518  0.91515  1
 O  O11  1  0.78654  0.58485  0.45482  1
 O  O12  1  0.04518  0.91515  0.71346  1
