CIF file written using JARVIS-Tools package.
data_Ca2SiB2O7
_symmetry_space_group_name_H-M  'P-42_1m'
_cell_length_a       7.1509
_cell_length_b       7.1509
_cell_length_c       4.82496
_cell_angle_alpha    90
_cell_angle_beta     90
_cell_angle_gamma    90

_symmetry_Int_Tables_number  113
_chemical_formula_structural  Ca2SiB2O7
_chemical_formula_sum  Ca4Si2B4O4
_cell_volume  246.72593808815967
_cell_formula_units_Z  2
loop_
  _symmetry_equiv_pos_site_id
 _symmetry_equiv_pos_as_xyz
 1  'x, y, z'
loop_
 _atom_site_type_symbol
 _atom_site_label
 _atom_site_symmetry_multiplicity
 _atom_site_fract_x
 _atom_site_fract_y
 _atom_site_fract_z
 _atom_site_fract_occupancy
 B  B1  1  0.63276  0.13276  0.03869  1
 B  B2  1  0.13276  0.36724  0.96131  1
 B  B3  1  0.86724  0.63276  0.96131  1
 B  B4  1  0.36724  0.86724  0.03869  1
 Ca  Ca1  1  0.33970  0.16030  0.51024  1
 Ca  Ca2  1  0.83970  0.33970  0.48976  1
 Ca  Ca3  1  0.16030  0.66030  0.48976  1
 Ca  Ca4  1  0.66030  0.83970  0.51024  1
 O  O1  1  0.50000  0.00000  0.15852  1
 O  O2  1  0.35587  0.85587  0.75153  1
 O  O3  1  0.64413  0.14413  0.75153  1
 O  O4  1  0.07871  0.17685  0.81174  1
 O  O5  1  0.57871  0.32315  0.18826  1
 O  O6  1  0.82315  0.07871  0.18826  1
 O  O7  1  0.32315  0.42129  0.81174  1
 O  O8  1  0.42129  0.67685  0.18826  1
 O  O9  1  0.67685  0.57871  0.81174  1
 O  O10  1  0.85587  0.64413  0.24847  1
 O  O11  1  0.14413  0.35587  0.24847  1
 O  O12  1  0.92129  0.82315  0.81174  1
 O  O13  1  0.00000  0.50000  0.84148  1
 O  O14  1  0.17685  0.92129  0.18826  1
 Si  Si1  1  0.50000  0.50000  0.00000  1
 Si  Si2  1  0.00000  0.00000  0.00000  1
