CIF file written using JARVIS-Tools package.
data_P2Rh
_symmetry_space_group_name_H-M  'P2_1/c'
_cell_length_a       5.81319
_cell_length_b       5.85681
_cell_length_c       5.90522
_cell_angle_alpha    90
_cell_angle_beta     112.451
_cell_angle_gamma    90

_symmetry_Int_Tables_number  14
_chemical_formula_structural  P2Rh
_chemical_formula_sum  P8Rh4
_cell_volume  185.81570977995864
_cell_formula_units_Z  4
loop_
  _symmetry_equiv_pos_site_id
 _symmetry_equiv_pos_as_xyz
 1  'x, y, z'
loop_
 _atom_site_type_symbol
 _atom_site_label
 _atom_site_symmetry_multiplicity
 _atom_site_fract_x
 _atom_site_fract_y
 _atom_site_fract_z
 _atom_site_fract_occupancy
 P  P1  1  0.84000  0.12049  0.13356  1
 P  P2  1  0.16000  0.62049  0.36644  1
 P  P3  1  0.16000  0.87951  0.86644  1
 P  P4  1  0.84000  0.37951  0.63356  1
 P  P5  1  0.66580  0.62294  0.81325  1
 P  P6  1  0.33420  0.12294  0.68675  1
 P  P7  1  0.33420  0.37706  0.18675  1
 P  P8  1  0.66580  0.87706  0.31325  1
 Rh  Rh1  1  0.72819  0.50138  0.21077  1
 Rh  Rh2  1  0.27181  0.00138  0.28923  1
 Rh  Rh3  1  0.27181  0.49862  0.78923  1
 Rh  Rh4  1  0.72819  0.99862  0.71077  1
