CIF file written using JARVIS-Tools package.
data_CaMn2N2
_symmetry_space_group_name_H-M  'P-4m2'
_cell_length_a       3.25705
_cell_length_b       3.25702
_cell_length_c       6.74862
_cell_angle_alpha    90
_cell_angle_beta     90
_cell_angle_gamma    90

_symmetry_Int_Tables_number  115
_chemical_formula_structural  CaMn2N2
_chemical_formula_sum  CaMn2N2
_cell_volume  71.59124362422249
_cell_formula_units_Z  1
loop_
  _symmetry_equiv_pos_site_id
 _symmetry_equiv_pos_as_xyz
 1  'x, y, z'
loop_
 _atom_site_type_symbol
 _atom_site_label
 _atom_site_symmetry_multiplicity
 _atom_site_fract_x
 _atom_site_fract_y
 _atom_site_fract_z
 _atom_site_fract_occupancy
 Ca  Ca1  1  0.00000  0.00000  0.25000  1
 Mn  Mn1  1  0.50000  0.50000  0.89691  1
 Mn  Mn2  1  0.50000  0.50000  0.60309  1
 N  N1  1  0.50000  0.00000  0.49409  1
 N  N2  1  0.00000  0.50000  0.00591  1
