CIF file written using JARVIS-Tools package.
data_BaCu2Se2
_symmetry_space_group_name_H-M  'I4/mmm'
_cell_length_a       4.0729
_cell_length_b       4.0729
_cell_length_c       7.20896
_cell_angle_alpha    106.409
_cell_angle_beta     106.409
_cell_angle_gamma    90

_symmetry_Int_Tables_number  139
_chemical_formula_structural  BaCu2Se2
_chemical_formula_sum  BaCu2Se2
_cell_volume  109.6282956859712
_cell_formula_units_Z  1
loop_
  _symmetry_equiv_pos_site_id
 _symmetry_equiv_pos_as_xyz
 1  'x, y, z'
loop_
 _atom_site_type_symbol
 _atom_site_label
 _atom_site_symmetry_multiplicity
 _atom_site_fract_x
 _atom_site_fract_y
 _atom_site_fract_z
 _atom_site_fract_occupancy
 Ba  Ba1  1  0.00000  0.00000  0.00000  1
 Cu  Cu1  1  0.25000  0.75000  0.50000  1
 Cu  Cu2  1  0.75000  0.25000  0.50000  1
 Se  Se1  1  0.63595  0.63595  0.27190  1
 Se  Se2  1  0.36405  0.36405  0.72810  1
