CIF file written using JARVIS-Tools package.
data_Er2Te3
_symmetry_space_group_name_H-M  'Fddd'
_cell_length_a       7.45222
_cell_length_b       7.45222
_cell_length_c       13.6005
_cell_angle_alpha    100.545
_cell_angle_beta     100.545
_cell_angle_gamma    109.391

_symmetry_Int_Tables_number  70
_chemical_formula_structural  Er2Te3
_chemical_formula_sum  Er8Te2
_cell_volume  675.8029783920831
_cell_formula_units_Z  4
loop_
  _symmetry_equiv_pos_site_id
 _symmetry_equiv_pos_as_xyz
 1  'x, y, z'
loop_
 _atom_site_type_symbol
 _atom_site_label
 _atom_site_symmetry_multiplicity
 _atom_site_fract_x
 _atom_site_fract_y
 _atom_site_fract_z
 _atom_site_fract_occupancy
 Er  Er1  1  0.79220  0.04220  0.08440  1
 Er  Er2  1  0.20780  0.95780  0.91560  1
 Er  Er3  1  0.04220  0.79220  0.58440  1
 Er  Er4  1  0.12523  0.37523  0.75046  1
 Er  Er5  1  0.62477  0.87477  0.74954  1
 Er  Er6  1  0.87477  0.62477  0.24954  1
 Er  Er7  1  0.37523  0.12523  0.25046  1
 Er  Er8  1  0.95780  0.20780  0.41560  1
 Te  Te1  1  0.20920  0.95725  0.41662  1
 Te  Te2  1  0.70742  0.45937  0.41662  1
 Te  Te3  1  0.04275  0.79080  0.08338  1
 Te  Te4  1  0.45937  0.70742  0.91662  1
 Te  Te5  1  0.79080  0.04275  0.58338  1
 Te  Te6  1  0.37846  0.12846  0.75000  1
 Te  Te7  1  0.95725  0.20920  0.91662  1
 Te  Te8  1  0.54063  0.29258  0.08338  1
 Te  Te9  1  0.62154  0.87154  0.25000  1
 Te  Te10  1  0.87154  0.62154  0.75000  1
 Te  Te11  1  0.29258  0.54063  0.58338  1
 Te  Te12  1  0.12846  0.37846  0.25000  1
