CIF file written using JARVIS-Tools package.
data_ZnIn2S4
_symmetry_space_group_name_H-M  'Fd-3m'
_cell_length_a       7.57973
_cell_length_b       7.57974
_cell_length_c       7.57973
_cell_angle_alpha    60
_cell_angle_beta     60
_cell_angle_gamma    60

_symmetry_Int_Tables_number  227
_chemical_formula_structural  ZnIn2S4
_chemical_formula_sum  Zn2In4S8
_cell_volume  307.92616708201297
_cell_formula_units_Z  2
loop_
  _symmetry_equiv_pos_site_id
 _symmetry_equiv_pos_as_xyz
 1  'x, y, z'
loop_
 _atom_site_type_symbol
 _atom_site_label
 _atom_site_symmetry_multiplicity
 _atom_site_fract_x
 _atom_site_fract_y
 _atom_site_fract_z
 _atom_site_fract_occupancy
 In  In1  1  0.50000  0.50000  0.00000  1
 In  In2  1  0.50000  0.50000  0.50000  1
 In  In3  1  0.00000  0.50000  0.50000  1
 In  In4  1  0.50000  0.00000  0.50000  1
 S  S1  1  0.74593  0.74593  0.74593  1
 S  S2  1  0.25407  0.25407  0.73780  1
 S  S3  1  0.25407  0.73780  0.25407  1
 S  S4  1  0.73780  0.25407  0.25407  1
 S  S5  1  0.74593  0.26220  0.74593  1
 S  S6  1  0.26220  0.74593  0.74593  1
 S  S7  1  0.25407  0.25407  0.25407  1
 S  S8  1  0.74593  0.74593  0.26220  1
 Zn  Zn1  1  0.12500  0.12500  0.12500  1
 Zn  Zn2  1  0.87500  0.87500  0.87500  1
