CIF file written using JARVIS-Tools package.
data_ZnPdF6
_symmetry_space_group_name_H-M  'R-3'
_cell_length_a       5.41797
_cell_length_b       5.41796
_cell_length_c       5.41796
_cell_angle_alpha    54.3915
_cell_angle_beta     54.3916
_cell_angle_gamma    54.3916

_symmetry_Int_Tables_number  148
_chemical_formula_structural  ZnPdF6
_chemical_formula_sum  ZnPdF6
_cell_volume  97.74824832569455
_cell_formula_units_Z  1
loop_
  _symmetry_equiv_pos_site_id
 _symmetry_equiv_pos_as_xyz
 1  'x, y, z'
loop_
 _atom_site_type_symbol
 _atom_site_label
 _atom_site_symmetry_multiplicity
 _atom_site_fract_x
 _atom_site_fract_y
 _atom_site_fract_z
 _atom_site_fract_occupancy
 F  F1  1  0.39851  0.08712  0.75984  1
 F  F2  1  0.08712  0.75984  0.39851  1
 F  F3  1  0.24016  0.60149  0.91288  1
 F  F4  1  0.91288  0.24016  0.60149  1
 F  F5  1  0.60149  0.91288  0.24016  1
 F  F6  1  0.75984  0.39851  0.08712  1
 Pd  Pd1  1  0.00000  0.00000  0.00000  1
 Zn  Zn1  1  0.50000  0.50000  0.50000  1
