CIF file written using JARVIS-Tools package.
data_Ag3AuS2
_symmetry_space_group_name_H-M  'P1'
_cell_length_a       5.21373
_cell_length_b       5.2346
_cell_length_c       5.29003
_cell_angle_alpha    92.9512
_cell_angle_beta     86.9497
_cell_angle_gamma    86.4292

_symmetry_Int_Tables_number  1
_chemical_formula_structural  Ag3AuS2
_chemical_formula_sum  Ag3AuS2
_cell_volume  143.67239330955158
_cell_formula_units_Z  1
loop_
  _symmetry_equiv_pos_site_id
 _symmetry_equiv_pos_as_xyz
 1  'x, y, z'
loop_
 _atom_site_type_symbol
 _atom_site_label
 _atom_site_symmetry_multiplicity
 _atom_site_fract_x
 _atom_site_fract_y
 _atom_site_fract_z
 _atom_site_fract_occupancy
 Ag  Ag1  1  0.74949  0.66564  0.08139  1
 Ag  Ag2  1  0.35359  0.06165  0.29366  1
 Ag  Ag3  1  -0.04150  0.27115  0.68780  1
 Au  Au1  1  0.35458  0.66737  0.68730  1
 S  S1  1  0.08552  -0.06370  -0.04162  1
 S  S2  1  0.62333  0.39788  0.41646  1
