CIF file written using JARVIS-Tools package.
data_YbMnSi
_symmetry_space_group_name_H-M  'Pnma'
_cell_length_a       4.25305
_cell_length_b       6.96479
_cell_length_c       7.20175
_cell_angle_alpha    90
_cell_angle_beta     90
_cell_angle_gamma    90

_symmetry_Int_Tables_number  62
_chemical_formula_structural  YbMnSi
_chemical_formula_sum  Yb4Mn4Si4
_cell_volume  213.3272223284372
_cell_formula_units_Z  4
loop_
  _symmetry_equiv_pos_site_id
 _symmetry_equiv_pos_as_xyz
 1  'x, y, z'
loop_
 _atom_site_type_symbol
 _atom_site_label
 _atom_site_symmetry_multiplicity
 _atom_site_fract_x
 _atom_site_fract_y
 _atom_site_fract_z
 _atom_site_fract_occupancy
 Mn  Mn1  1  0.25000  0.06322  0.13333  1
 Mn  Mn2  1  0.75000  0.93678  0.86667  1
 Mn  Mn3  1  0.25000  0.43678  0.63333  1
 Mn  Mn4  1  0.75000  0.56322  0.36667  1
 Si  Si1  1  0.75000  0.88779  0.19718  1
 Si  Si2  1  0.25000  0.11221  0.80282  1
 Si  Si3  1  0.75000  0.61221  0.69718  1
 Si  Si4  1  0.25000  0.38779  0.30282  1
 Yb  Yb1  1  0.75000  0.17593  0.50374  1
 Yb  Yb2  1  0.25000  0.82407  0.49626  1
 Yb  Yb3  1  0.75000  0.32407  0.00374  1
 Yb  Yb4  1  0.25000  0.67593  -0.00374  1
