CIF file written using JARVIS-Tools package.
data_HgBr2
_symmetry_space_group_name_H-M  'P31m'
_cell_length_a       7.0982
_cell_length_b       7.0982
_cell_length_c       6.1945
_cell_angle_alpha    90
_cell_angle_beta     90
_cell_angle_gamma    120

_symmetry_Int_Tables_number  157
_chemical_formula_structural  HgBr2
_chemical_formula_sum  Hg3Br6
_cell_volume  270.29225012870893
_cell_formula_units_Z  3
loop_
  _symmetry_equiv_pos_site_id
 _symmetry_equiv_pos_as_xyz
 1  'x, y, z'
loop_
 _atom_site_type_symbol
 _atom_site_label
 _atom_site_symmetry_multiplicity
 _atom_site_fract_x
 _atom_site_fract_y
 _atom_site_fract_z
 _atom_site_fract_occupancy
 Br  Br1  1  0.00039  0.33360  0.21830  1
 Br  Br2  1  0.99962  0.66653  0.73705  1
 Br  Br3  1  0.33347  0.33309  0.73705  1
 Br  Br4  1  0.33321  0.99961  0.21830  1
 Br  Br5  1  0.66691  0.00038  0.73705  1
 Br  Br6  1  0.66640  0.66679  0.21830  1
 Hg  Hg1  1  0.33333  0.66667  0.47870  1
 Hg  Hg2  1  0.00000  0.00000  0.47747  1
 Hg  Hg3  1  0.66667  0.33333  0.47687  1
