CIF file written using JARVIS-Tools package.
data_LiNd2HO3
_symmetry_space_group_name_H-M  'Immm'
_cell_length_a       3.49552
_cell_length_b       3.69114
_cell_length_c       6.85091
_cell_angle_alpha    105.629
_cell_angle_beta     104.78
_cell_angle_gamma    89.9999

_symmetry_Int_Tables_number  71
_chemical_formula_structural  LiNd2HO3
_chemical_formula_sum  LiNd2HO3
_cell_volume  82.08370496997928
_cell_formula_units_Z  1
loop_
  _symmetry_equiv_pos_site_id
 _symmetry_equiv_pos_as_xyz
 1  'x, y, z'
loop_
 _atom_site_type_symbol
 _atom_site_label
 _atom_site_symmetry_multiplicity
 _atom_site_fract_x
 _atom_site_fract_y
 _atom_site_fract_z
 _atom_site_fract_occupancy
 H  H1  1  0.50000  -0.00000  0.00000  1
 Li  Li1  1  0.00000  0.00000  0.00000  1
 Nd  Nd1  1  0.36411  0.36410  0.72822  1
 Nd  Nd2  1  0.63589  0.63590  0.27178  1
 O  O1  1  -0.00000  0.50000  0.00000  1
 O  O2  1  0.82397  0.82397  0.64794  1
 O  O3  1  0.17603  0.17603  0.35206  1
