CIF file written using JARVIS-Tools package.
data_MnHO2
_symmetry_space_group_name_H-M  'Pnma'
_cell_length_a       2.93247
_cell_length_b       4.57642
_cell_length_c       10.523
_cell_angle_alpha    90
_cell_angle_beta     90
_cell_angle_gamma    90

_symmetry_Int_Tables_number  62
_chemical_formula_structural  MnHO2
_chemical_formula_sum  Mn4H4O8
_cell_volume  141.22143225025238
_cell_formula_units_Z  4
loop_
  _symmetry_equiv_pos_site_id
 _symmetry_equiv_pos_as_xyz
 1  'x, y, z'
loop_
 _atom_site_type_symbol
 _atom_site_label
 _atom_site_symmetry_multiplicity
 _atom_site_fract_x
 _atom_site_fract_y
 _atom_site_fract_z
 _atom_site_fract_occupancy
 H  H1  1  0.25000  0.90214  0.39770  1
 H  H2  1  0.25000  0.59786  0.89770  1
 H  H3  1  0.75000  0.09786  0.60230  1
 H  H4  1  0.75000  0.40214  0.10230  1
 Mn  Mn1  1  0.25000  0.55430  0.63995  1
 Mn  Mn2  1  0.25000  0.94570  0.13995  1
 Mn  Mn3  1  0.75000  0.44570  0.36005  1
 Mn  Mn4  1  0.75000  0.05430  0.86005  1
 O  O1  1  0.25000  0.19898  0.30885  1
 O  O2  1  0.25000  0.30102  0.80885  1
 O  O3  1  0.75000  0.80102  0.69115  1
 O  O4  1  0.75000  0.69898  0.19115  1
 O  O5  1  0.25000  0.69583  0.43363  1
 O  O6  1  0.25000  0.80417  0.93363  1
 O  O7  1  0.75000  0.30417  0.56637  1
 O  O8  1  0.75000  0.19583  0.06637  1
