CIF file written using JARVIS-Tools package.
data_BN
_symmetry_space_group_name_H-M  'Cm'
_cell_length_a       2.51217
_cell_length_b       4.37768
_cell_length_c       6.65868
_cell_angle_alpha    91.4461
_cell_angle_beta     100.873
_cell_angle_gamma    90

_symmetry_Int_Tables_number  8
_chemical_formula_structural  BN
_chemical_formula_sum  B4N4
_cell_volume  71.89008006731152
_cell_formula_units_Z  4
loop_
  _symmetry_equiv_pos_site_id
 _symmetry_equiv_pos_as_xyz
 1  'x, y, z'
loop_
 _atom_site_type_symbol
 _atom_site_label
 _atom_site_symmetry_multiplicity
 _atom_site_fract_x
 _atom_site_fract_y
 _atom_site_fract_z
 _atom_site_fract_occupancy
 B  B1  1  -0.00004  0.00152  -0.00007  1
 B  B2  1  0.79992  0.57035  0.59983  1
 B  B3  1  0.13441  0.62220  0.26883  1
 B  B4  1  0.46835  0.50081  0.93671  1
 N  N1  1  0.01944  0.65797  0.03889  1
 N  N2  1  0.49366  0.15682  0.98732  1
 N  N3  1  0.35296  0.55263  0.70593  1
 N  N4  1  0.68778  0.60919  0.37557  1
