CIF file written using JARVIS-Tools package.
data_Mg2C3
_symmetry_space_group_name_H-M  'Pnnm'
_cell_length_a       3.71736
_cell_length_b       5.28868
_cell_length_c       6.42917
_cell_angle_alpha    90
_cell_angle_beta     90
_cell_angle_gamma    90

_symmetry_Int_Tables_number  58
_chemical_formula_structural  Mg2C3
_chemical_formula_sum  Mg4C6
_cell_volume  126.39693326289658
_cell_formula_units_Z  2
loop_
  _symmetry_equiv_pos_site_id
 _symmetry_equiv_pos_as_xyz
 1  'x, y, z'
loop_
 _atom_site_type_symbol
 _atom_site_label
 _atom_site_symmetry_multiplicity
 _atom_site_fract_x
 _atom_site_fract_y
 _atom_site_fract_z
 _atom_site_fract_occupancy
 C  C1  1  0.50000  0.70640  0.88270  1
 C  C2  1  0.50000  0.29360  0.11730  1
 C  C3  1  0.00000  0.20640  0.61730  1
 C  C4  1  0.00000  0.79360  0.38270  1
 C  C5  1  0.00000  0.00000  0.50000  1
 C  C6  1  0.50000  0.50000  0.00000  1
 Mg  Mg1  1  0.50000  0.89285  0.20829  1
 Mg  Mg2  1  0.50000  0.10715  0.79171  1
 Mg  Mg3  1  0.00000  0.39285  0.29171  1
 Mg  Mg4  1  0.00000  0.60715  0.70829  1
