CIF file written using JARVIS-Tools package.
data_NdSeO
_symmetry_space_group_name_H-M  'Cmce'
_cell_length_a       7.30056
_cell_length_b       7.30056
_cell_length_c       6.00809
_cell_angle_alpha    90
_cell_angle_beta     90
_cell_angle_gamma    131.338

_symmetry_Int_Tables_number  64
_chemical_formula_structural  NdSeO
_chemical_formula_sum  Nd4Se4O4
_cell_volume  240.42865175566777
_cell_formula_units_Z  4
loop_
  _symmetry_equiv_pos_site_id
 _symmetry_equiv_pos_as_xyz
 1  'x, y, z'
loop_
 _atom_site_type_symbol
 _atom_site_label
 _atom_site_symmetry_multiplicity
 _atom_site_fract_x
 _atom_site_fract_y
 _atom_site_fract_z
 _atom_site_fract_occupancy
 Nd  Nd1  1  0.16726  0.83274  0.50000  1
 Nd  Nd2  1  0.33274  0.66726  0.00000  1
 Nd  Nd3  1  0.66726  0.33274  0.00000  1
 Nd  Nd4  1  0.83274  0.16726  0.50000  1
 O  O1  1  0.49360  0.99360  0.25000  1
 O  O2  1  0.00640  0.50640  0.75000  1
 O  O3  1  0.50640  0.00640  0.75000  1
 O  O4  1  0.99360  0.49360  0.25000  1
 Se  Se1  1  0.35790  0.35790  0.35725  1
 Se  Se2  1  0.85790  0.85790  0.14275  1
 Se  Se3  1  0.64210  0.64210  0.64275  1
 Se  Se4  1  0.14210  0.14210  0.85725  1
