CIF file written using JARVIS-Tools package.
data_InAsF6
_symmetry_space_group_name_H-M  'R-3'
_cell_length_a       4.99309
_cell_length_b       4.99308
_cell_length_c       4.99309
_cell_angle_alpha    96.6926
_cell_angle_beta     96.6926
_cell_angle_gamma    96.6927

_symmetry_Int_Tables_number  148
_chemical_formula_structural  InAsF6
_chemical_formula_sum  InAsF6
_cell_volume  121.71826774146743
_cell_formula_units_Z  1
loop_
  _symmetry_equiv_pos_site_id
 _symmetry_equiv_pos_as_xyz
 1  'x, y, z'
loop_
 _atom_site_type_symbol
 _atom_site_label
 _atom_site_symmetry_multiplicity
 _atom_site_fract_x
 _atom_site_fract_y
 _atom_site_fract_z
 _atom_site_fract_occupancy
 As  As1  1  0.50000  0.50000  0.50000  1
 F  F1  1  0.69549  0.42105  0.79476  1
 F  F2  1  0.42105  0.79476  0.69549  1
 F  F3  1  0.20524  0.30451  0.57895  1
 F  F4  1  0.57895  0.20524  0.30451  1
 F  F5  1  0.30451  0.57895  0.20524  1
 F  F6  1  0.79476  0.69549  0.42105  1
 In  In1  1  0.00000  0.00000  0.00000  1
