CIF file written using JARVIS-Tools package.
data_TcSO6F
_symmetry_space_group_name_H-M  'P2_1/c'
_cell_length_a       6.90426
_cell_length_b       7.98645
_cell_length_c       8.93394
_cell_angle_alpha    90
_cell_angle_beta     97.9854
_cell_angle_gamma    90

_symmetry_Int_Tables_number  14
_chemical_formula_structural  TcSO6F
_chemical_formula_sum  Tc4S4O24F4
_cell_volume  487.84581118616063
_cell_formula_units_Z  4
loop_
  _symmetry_equiv_pos_site_id
 _symmetry_equiv_pos_as_xyz
 1  'x, y, z'
loop_
 _atom_site_type_symbol
 _atom_site_label
 _atom_site_symmetry_multiplicity
 _atom_site_fract_x
 _atom_site_fract_y
 _atom_site_fract_z
 _atom_site_fract_occupancy
 F  F1  1  0.71624  0.83427  -0.00012  1
 F  F2  1  0.28376  0.33427  0.50012  1
 F  F3  1  0.71624  0.66573  0.49988  1
 F  F4  1  0.28376  0.16573  1.00012  1
 O  O1  1  0.24757  0.63457  0.32774  1
 O  O2  1  0.56309  0.10053  0.76402  1
 O  O3  1  0.03572  0.86004  0.13595  1
 O  O4  1  0.63753  0.12004  0.47726  1
 O  O5  1  0.03607  0.15900  0.57117  1
 O  O6  1  0.83791  0.61413  0.16842  1
 O  O7  1  0.96393  0.84100  0.42883  1
 O  O8  1  0.43691  0.89947  0.23598  1
 O  O9  1  0.36247  0.62004  0.02274  1
 O  O10  1  0.36247  0.87996  0.52274  1
 O  O11  1  0.96393  0.65900  0.92883  1
 O  O12  1  0.63753  0.37996  0.97726  1
 O  O13  1  0.75243  0.36543  0.67226  1
 O  O14  1  0.96428  0.13996  0.86405  1
 O  O15  1  0.16209  0.38587  0.83158  1
 O  O16  1  0.24757  0.86543  0.82774  1
 O  O17  1  0.43691  0.60053  0.73598  1
 O  O18  1  0.03572  0.63996  0.63595  1
 O  O19  1  0.96428  0.36004  0.36405  1
 O  O20  1  0.03607  0.34100  0.07117  1
 O  O21  1  0.56309  0.39947  0.26402  1
 O  O22  1  0.16209  0.11413  0.33158  1
 O  O23  1  0.75243  0.13457  0.17226  1
 O  O24  1  0.83791  0.88587  0.66842  1
 S  S1  1  0.90386  0.76712  0.56324  1
 S  S2  1  0.09614  0.26712  0.93676  1
 S  S3  1  0.90386  0.73288  0.06324  1
 S  S4  1  0.09614  0.23288  0.43676  1
 Tc  Tc1  1  0.26371  0.84451  0.34193  1
 Tc  Tc2  1  0.26371  0.65549  0.84193  1
 Tc  Tc3  1  0.73629  0.15549  0.65807  1
 Tc  Tc4  1  0.73629  0.34451  0.15807  1
