CIF file written using JARVIS-Tools package.
data_Zn3As2H16O16
_symmetry_space_group_name_H-M  'C2/m'
_cell_length_a       4.91913
_cell_length_b       9.58945
_cell_length_c       9.58946
_cell_angle_alpha    85.4307
_cell_angle_beta     116.584
_cell_angle_gamma    116.584

_symmetry_Int_Tables_number  12
_chemical_formula_structural  Zn3As2H16O16
_chemical_formula_sum  Zn3As2H6O6
_cell_volume  357.62546789237143
_cell_formula_units_Z  1
loop_
  _symmetry_equiv_pos_site_id
 _symmetry_equiv_pos_as_xyz
 1  'x, y, z'
loop_
 _atom_site_type_symbol
 _atom_site_label
 _atom_site_symmetry_multiplicity
 _atom_site_fract_x
 _atom_site_fract_y
 _atom_site_fract_z
 _atom_site_fract_occupancy
 As  As1  1  0.74952  0.68870  0.68870  1
 As  As2  1  0.25048  0.31130  0.31130  1
 H  H1  1  0.60039  0.20504  0.00664  1
 H  H2  1  0.32196  0.27923  0.92048  1
 H  H3  1  0.67804  0.07952  0.72077  1
 H  H4  1  0.53393  0.49472  0.10895  1
 H  H5  1  0.32196  0.92048  0.27923  1
 H  H6  1  0.67804  0.72077  0.07952  1
 H  H7  1  0.53393  0.10895  0.49472  1
 H  H8  1  0.46607  0.50528  0.89105  1
 H  H9  1  0.46607  0.89105  0.50528  1
 H  H10  1  0.39961  -0.00664  0.79496  1
 H  H11  1  0.01166  0.50954  0.81679  1
 H  H12  1  0.01166  0.81679  0.50954  1
 H  H13  1  0.98834  0.49046  0.18321  1
 H  H14  1  0.60039  0.00664  0.20504  1
 H  H15  1  0.39961  0.79496  -0.00664  1
 H  H16  1  0.98834  0.18321  0.49046  1
 O  O1  1  0.21505  0.48331  0.25693  1
 O  O2  1  0.63976  0.04101  0.81495  1
 O  O3  1  0.36025  0.18505  0.95899  1
 O  O4  1  0.22844  0.42429  0.85579  1
 O  O5  1  0.63976  0.81495  0.04101  1
 O  O6  1  0.36025  0.95899  0.18505  1
 O  O7  1  0.78495  0.74307  0.51669  1
 O  O8  1  0.21505  0.25693  0.48331  1
 O  O9  1  0.77156  0.14421  0.57571  1
 O  O10  1  0.69019  0.38955  0.38955  1
 O  O11  1  0.30981  0.61045  0.61045  1
 O  O12  1  0.97918  0.16052  0.16052  1
 O  O13  1  0.02082  0.83948  0.83948  1
 O  O14  1  0.22844  0.85579  0.42429  1
 O  O15  1  0.77156  0.57571  0.14421  1
 O  O16  1  0.78495  0.51669  0.74307  1
 Zn  Zn1  1  0.00000  0.37733  0.62267  1
 Zn  Zn2  1  -0.00000  0.62267  0.37733  1
 Zn  Zn3  1  0.00000  0.00000  0.00000  1
