CIF file written using JARVIS-Tools package.
data_Bi2B2O7
_symmetry_space_group_name_H-M  'P-1'
_cell_length_a       5.84246
_cell_length_b       6.42455
_cell_length_c       8.17431
_cell_angle_alpha    70.1201
_cell_angle_beta     74.2001
_cell_angle_gamma    70.6787

_symmetry_Int_Tables_number  2
_chemical_formula_structural  Bi2B2O7
_chemical_formula_sum  Bi4B4O4
_cell_volume  267.83971388930064
_cell_formula_units_Z  2
loop_
  _symmetry_equiv_pos_site_id
 _symmetry_equiv_pos_as_xyz
 1  'x, y, z'
loop_
 _atom_site_type_symbol
 _atom_site_label
 _atom_site_symmetry_multiplicity
 _atom_site_fract_x
 _atom_site_fract_y
 _atom_site_fract_z
 _atom_site_fract_occupancy
 B  B1  1  0.25751  0.75595  0.89100  1
 B  B2  1  0.87667  0.99890  0.71062  1
 B  B3  1  0.12333  0.00110  0.28938  1
 B  B4  1  0.74249  0.24405  0.10900  1
 Bi  Bi1  1  0.30291  0.25195  0.87697  1
 Bi  Bi2  1  0.77482  0.54529  0.67477  1
 Bi  Bi3  1  0.22518  0.45471  0.32523  1
 Bi  Bi4  1  0.69709  0.74805  0.12303  1
 O  O1  1  0.41949  0.85960  0.92284  1
 O  O2  1  0.84129  0.41787  0.94650  1
 O  O3  1  0.15871  0.58213  0.05350  1
 O  O4  1  0.84799  0.86743  0.61986  1
 O  O5  1  0.70595  0.21664  0.69050  1
 O  O6  1  0.38312  0.62728  0.75438  1
 O  O7  1  0.29405  0.78336  0.30950  1
 O  O8  1  0.82864  0.62280  0.39111  1
 O  O9  1  0.96882  0.06805  0.16889  1
 O  O10  1  0.03118  0.93195  0.83111  1
 O  O11  1  0.15201  0.13257  0.38014  1
 O  O12  1  0.61688  0.37272  0.24562  1
 O  O13  1  0.17136  0.37720  0.60889  1
 O  O14  1  0.58051  0.14040  0.07716  1
