CIF file written using JARVIS-Tools package.
data_LiTa2CuO6
_symmetry_space_group_name_H-M  'R3'
_cell_length_a       5.20699
_cell_length_b       5.20683
_cell_length_c       5.56696
_cell_angle_alpha    62.114
_cell_angle_beta     62.1154
_cell_angle_gamma    59.9979

_symmetry_Int_Tables_number  146
_chemical_formula_structural  LiTa2CuO6
_chemical_formula_sum  LiTa2CuO6
_cell_volume  110.00744199090049
_cell_formula_units_Z  1
loop_
  _symmetry_equiv_pos_site_id
 _symmetry_equiv_pos_as_xyz
 1  'x, y, z'
loop_
 _atom_site_type_symbol
 _atom_site_label
 _atom_site_symmetry_multiplicity
 _atom_site_fract_x
 _atom_site_fract_y
 _atom_site_fract_z
 _atom_site_fract_occupancy
 Cu  Cu1  1  0.75140  0.75153  0.74546  1
 Li  Li1  1  0.21324  0.21329  0.36018  1
 O  O1  1  0.36705  0.76764  0.72570  1
 O  O2  1  0.76750  0.13954  0.72578  1
 O  O3  1  0.13947  0.36720  0.72575  1
 O  O4  1  0.88277  0.62567  0.23429  1
 O  O5  1  0.25723  0.88284  0.23427  1
 O  O6  1  0.62560  0.25729  0.23428  1
 Ta  Ta1  1  0.99511  0.99517  0.01458  1
 Ta  Ta2  1  0.50061  0.50064  0.49811  1
