CIF file written using JARVIS-Tools package.
data_Na2LiGaAs2
_symmetry_space_group_name_H-M  'Cmce'
_cell_length_a       5.88664
_cell_length_b       9.27393
_cell_length_c       9.27393
_cell_angle_alpha    98.525
_cell_angle_beta     90
_cell_angle_gamma    90

_symmetry_Int_Tables_number  64
_chemical_formula_structural  Na2LiGaAs2
_chemical_formula_sum  Na8Li4Ga4As8
_cell_volume  500.6910831254091
_cell_formula_units_Z  4
loop_
  _symmetry_equiv_pos_site_id
 _symmetry_equiv_pos_as_xyz
 1  'x, y, z'
loop_
 _atom_site_type_symbol
 _atom_site_label
 _atom_site_symmetry_multiplicity
 _atom_site_fract_x
 _atom_site_fract_y
 _atom_site_fract_z
 _atom_site_fract_occupancy
 As  As1  1  0.75000  0.85849  0.64151  1
 As  As2  1  0.75000  0.35849  0.14151  1
 As  As3  1  0.22177  0.60733  0.39267  1
 As  As4  1  0.27823  0.10733  0.89267  1
 As  As5  1  0.77823  0.39267  0.60733  1
 As  As6  1  0.72177  0.89267  0.10733  1
 As  As7  1  0.25000  0.64151  0.85849  1
 As  As8  1  0.25000  0.14151  0.35849  1
 Ga  Ga1  1  0.00000  0.36830  0.36830  1
 Ga  Ga2  1  0.00000  0.63170  0.63170  1
 Ga  Ga3  1  0.50000  0.13170  0.13170  1
 Ga  Ga4  1  0.50000  0.86830  0.86830  1
 Li  Li1  1  0.00000  0.88067  0.88067  1
 Li  Li2  1  0.50000  0.61933  0.61933  1
 Li  Li3  1  0.50000  0.38067  0.38067  1
 Li  Li4  1  0.00000  0.11933  0.11933  1
 Na  Na1  1  0.72319  0.67639  0.32361  1
 Na  Na2  1  0.25000  0.92777  0.57223  1
 Na  Na3  1  0.25000  0.42777  0.07223  1
 Na  Na4  1  0.75000  0.07223  0.42777  1
 Na  Na5  1  0.77681  0.17639  0.82361  1
 Na  Na6  1  0.27681  0.32361  0.67639  1
 Na  Na7  1  0.22319  0.82361  0.17639  1
 Na  Na8  1  0.75000  0.57223  0.92777  1
