CIF file written using JARVIS-Tools package.
data_RbO2
_symmetry_space_group_name_H-M  'Cmmm'
_cell_length_a       6.25945
_cell_length_b       7.82073
_cell_length_c       5.28532
_cell_angle_alpha    42.1999
_cell_angle_beta     53.69
_cell_angle_gamma    36.8348

_symmetry_Int_Tables_number  65
_chemical_formula_structural  RbO2
_chemical_formula_sum  Rb2O4
_cell_volume  104.19293580198448
_cell_formula_units_Z  2
loop_
  _symmetry_equiv_pos_site_id
 _symmetry_equiv_pos_as_xyz
 1  'x, y, z'
loop_
 _atom_site_type_symbol
 _atom_site_label
 _atom_site_symmetry_multiplicity
 _atom_site_fract_x
 _atom_site_fract_y
 _atom_site_fract_z
 _atom_site_fract_occupancy
 O  O1  1  1.23334  -0.24986  0.00011  1
 O  O2  1  0.23374  1.24986  0.99989  1
 O  O3  1  0.01666  0.74986  0.99989  1
 O  O4  1  1.01626  0.25014  0.00011  1
 Rb  Rb1  1  0.62498  -0.00000  0.50000  1
 Rb  Rb2  1  0.62502  0.50000  0.50000  1
