CIF file written using JARVIS-Tools package.
data_Ca3SiBr2
_symmetry_space_group_name_H-M  'Immm'
_cell_length_a       4.33247
_cell_length_b       5.89585
_cell_length_c       7.60771
_cell_angle_alpha    112.799
_cell_angle_beta     106.543
_cell_angle_gamma    90.001

_symmetry_Int_Tables_number  71
_chemical_formula_structural  Ca3SiBr2
_chemical_formula_sum  Ca3SiBr2
_cell_volume  170.3872763524284
_cell_formula_units_Z  1
loop_
  _symmetry_equiv_pos_site_id
 _symmetry_equiv_pos_as_xyz
 1  'x, y, z'
loop_
 _atom_site_type_symbol
 _atom_site_label
 _atom_site_symmetry_multiplicity
 _atom_site_fract_x
 _atom_site_fract_y
 _atom_site_fract_z
 _atom_site_fract_occupancy
 Br  Br1  1  0.32017  0.82014  0.64028  1
 Br  Br2  1  0.67983  0.17986  0.35972  1
 Ca  Ca1  1  0.35831  0.35831  0.71661  1
 Ca  Ca2  1  0.00000  0.00000  0.00000  1
 Ca  Ca3  1  0.64169  0.64169  0.28339  1
 Si  Si1  1  -0.00000  0.50000  0.00000  1
