CIF file written using JARVIS-Tools package.
data_Tb2MgGe2
_symmetry_space_group_name_H-M  'P4/mbm'
_cell_length_a       4.25224
_cell_length_b       7.26604
_cell_length_c       7.26604
_cell_angle_alpha    90
_cell_angle_beta     90
_cell_angle_gamma    90

_symmetry_Int_Tables_number  127
_chemical_formula_structural  Tb2MgGe2
_chemical_formula_sum  Tb4Mg2Ge4
_cell_volume  224.49851062560353
_cell_formula_units_Z  2
loop_
  _symmetry_equiv_pos_site_id
 _symmetry_equiv_pos_as_xyz
 1  'x, y, z'
loop_
 _atom_site_type_symbol
 _atom_site_label
 _atom_site_symmetry_multiplicity
 _atom_site_fract_x
 _atom_site_fract_y
 _atom_site_fract_z
 _atom_site_fract_occupancy
 Ge  Ge1  1  0.00000  0.37594  0.87594  1
 Ge  Ge2  1  0.00000  0.62406  0.12406  1
 Ge  Ge3  1  0.00000  0.12406  0.37594  1
 Ge  Ge4  1  0.00000  0.87594  0.62406  1
 Mg  Mg1  1  0.00000  0.50000  0.50000  1
 Mg  Mg2  1  0.00000  0.00000  0.00000  1
 Tb  Tb1  1  0.50000  0.17741  0.67741  1
 Tb  Tb2  1  0.50000  0.82259  0.32259  1
 Tb  Tb3  1  0.50000  0.32259  0.17741  1
 Tb  Tb4  1  0.50000  0.67741  0.82259  1
