CIF file written using JARVIS-Tools package.
data_MgSbF5
_symmetry_space_group_name_H-M  'P2_1/c'
_cell_length_a       5.60738
_cell_length_b       10.0701
_cell_length_c       7.98605
_cell_angle_alpha    90
_cell_angle_beta     120.518
_cell_angle_gamma    90

_symmetry_Int_Tables_number  14
_chemical_formula_structural  MgSbF5
_chemical_formula_sum  Mg4Sb4F20
_cell_volume  388.47964386742103
_cell_formula_units_Z  4
loop_
  _symmetry_equiv_pos_site_id
 _symmetry_equiv_pos_as_xyz
 1  'x, y, z'
loop_
 _atom_site_type_symbol
 _atom_site_label
 _atom_site_symmetry_multiplicity
 _atom_site_fract_x
 _atom_site_fract_y
 _atom_site_fract_z
 _atom_site_fract_occupancy
 F  F1  1  0.30842  0.67657  0.11499  1
 F  F2  1  0.28244  0.93941  0.31199  1
 F  F3  1  0.71756  0.43941  0.18801  1
 F  F4  1  0.71756  0.06059  0.68801  1
 F  F5  1  0.28244  0.56059  0.81199  1
 F  F6  1  0.35525  0.60050  0.46275  1
 F  F7  1  0.69158  0.32343  0.88501  1
 F  F8  1  0.64475  0.39950  0.53725  1
 F  F9  1  0.35525  0.89950  0.96275  1
 F  F10  1  0.64475  0.10050  0.03725  1
 F  F11  1  0.80442  0.91754  0.34824  1
 F  F12  1  0.83820  0.84499  0.94543  1
 F  F13  1  0.80442  0.58246  0.84824  1
 F  F14  1  0.30842  0.82343  0.61499  1
 F  F15  1  0.16180  0.34499  0.55457  1
 F  F16  1  0.69158  0.17657  0.38501  1
 F  F17  1  0.83820  0.65501  0.44543  1
 F  F18  1  0.16180  0.15501  0.05457  1
 F  F19  1  0.19558  0.08246  0.65176  1
 F  F20  1  0.19558  0.41754  0.15176  1
 Mg  Mg1  1  0.47008  0.47364  0.68915  1
 Mg  Mg2  1  0.52992  0.97364  0.81085  1
 Mg  Mg3  1  0.52992  0.52636  0.31085  1
 Mg  Mg4  1  0.47008  0.02636  0.18915  1
 Sb  Sb1  1  0.05212  0.72207  0.82778  1
 Sb  Sb2  1  0.94788  0.22207  0.67222  1
 Sb  Sb3  1  0.94788  0.27793  0.17222  1
 Sb  Sb4  1  0.05212  0.77793  0.32778  1
