CIF file written using JARVIS-Tools package.
data_HgPb2Cl2O2
_symmetry_space_group_name_H-M  'C2/m'
_cell_length_a       3.94961
_cell_length_b       6.25172
_cell_length_c       7.10442
_cell_angle_alpha    71.861
_cell_angle_beta     73.8606
_cell_angle_gamma    71.5867

_symmetry_Int_Tables_number  12
_chemical_formula_structural  HgPb2Cl2O2
_chemical_formula_sum  HgPb2Cl2O2
_cell_volume  154.99821083621043
_cell_formula_units_Z  1
loop_
  _symmetry_equiv_pos_site_id
 _symmetry_equiv_pos_as_xyz
 1  'x, y, z'
loop_
 _atom_site_type_symbol
 _atom_site_label
 _atom_site_symmetry_multiplicity
 _atom_site_fract_x
 _atom_site_fract_y
 _atom_site_fract_z
 _atom_site_fract_occupancy
 Cl  Cl1  1  0.43021  0.79553  0.34407  1
 Cl  Cl2  1  0.56979  0.20447  0.65593  1
 Hg  Hg1  1  -0.00000  0.00000  0.00000  1
 O  O1  1  0.19328  0.68028  0.93317  1
 O  O2  1  0.80672  0.31972  0.06683  1
 Pb  Pb1  1  0.81931  0.61109  0.75029  1
 Pb  Pb2  1  0.18069  0.38891  0.24971  1
