CIF file written using JARVIS-Tools package.
data_SrP3
_symmetry_space_group_name_H-M  'C2/m'
_cell_length_a       5.71884
_cell_length_b       5.89773
_cell_length_c       5.89773
_cell_angle_alpha    76.9526
_cell_angle_beta     71.974
_cell_angle_gamma    71.974

_symmetry_Int_Tables_number  12
_chemical_formula_structural  SrP3
_chemical_formula_sum  Sr2P6
_cell_volume  178.00319929294196
_cell_formula_units_Z  2
loop_
  _symmetry_equiv_pos_site_id
 _symmetry_equiv_pos_as_xyz
 1  'x, y, z'
loop_
 _atom_site_type_symbol
 _atom_site_label
 _atom_site_symmetry_multiplicity
 _atom_site_fract_x
 _atom_site_fract_y
 _atom_site_fract_z
 _atom_site_fract_occupancy
 P  P1  1  0.30555  0.99104  0.99104  1
 P  P2  1  0.69445  0.00896  0.00896  1
 P  P3  1  0.68133  0.39691  0.88317  1
 P  P4  1  0.31867  0.11683  0.60309  1
 P  P5  1  0.31867  0.60309  0.11683  1
 P  P6  1  0.68133  0.88317  0.39691  1
 Sr  Sr1  1  0.14798  0.66272  0.66272  1
 Sr  Sr2  1  0.85202  0.33728  0.33728  1
