CIF file written using JARVIS-Tools package.
data_ZnI2O6
_symmetry_space_group_name_H-M  'P2_1'
_cell_length_a       5.52794
_cell_length_b       5.02298
_cell_length_c       9.49146
_cell_angle_alpha    90
_cell_angle_beta     90.5592
_cell_angle_gamma    90

_symmetry_Int_Tables_number  4
_chemical_formula_structural  ZnI2O6
_chemical_formula_sum  Zn2I4O2
_cell_volume  263.53432998682183
_cell_formula_units_Z  2
loop_
  _symmetry_equiv_pos_site_id
 _symmetry_equiv_pos_as_xyz
 1  'x, y, z'
loop_
 _atom_site_type_symbol
 _atom_site_label
 _atom_site_symmetry_multiplicity
 _atom_site_fract_x
 _atom_site_fract_y
 _atom_site_fract_z
 _atom_site_fract_occupancy
 I  I1  1  0.26193  0.48346  0.06802  1
 I  I2  1  0.73807  0.98346  0.93198  1
 I  I3  1  0.26635  -0.00524  0.40048  1
 I  I4  1  0.73365  0.49476  0.59952  1
 O  O1  1  0.34682  0.70115  0.91971  1
 O  O2  1  0.44642  0.68290  0.60169  1
 O  O3  1  0.55358  0.18290  0.39831  1
 O  O4  1  0.01637  0.16192  0.87977  1
 O  O5  1  0.14499  0.13724  0.56497  1
 O  O6  1  0.85501  0.63724  0.43503  1
 O  O7  1  0.98363  0.66192  0.12023  1
 O  O8  1  0.65318  0.20115  0.08029  1
 O  O9  1  0.90599  0.70142  0.72676  1
 O  O10  1  0.53659  0.14912  0.80133  1
 O  O11  1  0.46341  0.64912  0.19867  1
 O  O12  1  0.09401  0.20142  0.27324  1
 Zn  Zn1  1  0.76713  0.42503  0.25528  1
 Zn  Zn2  1  0.23287  0.92503  0.74472  1
