CIF file written using JARVIS-Tools package.
data_TiO2
_symmetry_space_group_name_H-M  'R-3m'
_cell_length_a       4.79864
_cell_length_b       4.79864
_cell_length_c       4.79864
_cell_angle_alpha    36.4305
_cell_angle_beta     36.4305
_cell_angle_gamma    36.4305

_symmetry_Int_Tables_number  166
_chemical_formula_structural  TiO2
_chemical_formula_sum  TiO2
_cell_volume  34.880272372721706
_cell_formula_units_Z  1
loop_
  _symmetry_equiv_pos_site_id
 _symmetry_equiv_pos_as_xyz
 1  'x, y, z'
loop_
 _atom_site_type_symbol
 _atom_site_label
 _atom_site_symmetry_multiplicity
 _atom_site_fract_x
 _atom_site_fract_y
 _atom_site_fract_z
 _atom_site_fract_occupancy
 O  O1  1  0.26174  0.26174  0.26174  1
 O  O2  1  0.73826  0.73826  0.73826  1
 Ti  Ti1  1  0.00000  0.00000  0.00000  1
