CIF file written using JARVIS-Tools package.
data_Ga2HgO4
_symmetry_space_group_name_H-M  'Fd-3m'
_cell_length_a       6.22169
_cell_length_b       6.22169
_cell_length_c       6.22169
_cell_angle_alpha    60
_cell_angle_beta     60
_cell_angle_gamma    60

_symmetry_Int_Tables_number  227
_chemical_formula_structural  Ga2HgO4
_chemical_formula_sum  Ga4Hg2O8
_cell_volume  170.29774457907016
_cell_formula_units_Z  2
loop_
  _symmetry_equiv_pos_site_id
 _symmetry_equiv_pos_as_xyz
 1  'x, y, z'
loop_
 _atom_site_type_symbol
 _atom_site_label
 _atom_site_symmetry_multiplicity
 _atom_site_fract_x
 _atom_site_fract_y
 _atom_site_fract_z
 _atom_site_fract_occupancy
 Ga  Ga1  1  0.50000  0.50000  -0.00000  1
 Ga  Ga2  1  0.50000  0.00000  0.50000  1
 Ga  Ga3  1  0.00000  0.50000  0.50000  1
 Ga  Ga4  1  0.50000  0.50000  0.50000  1
 Hg  Hg1  1  0.12500  0.12500  0.12500  1
 Hg  Hg2  1  0.87500  0.87500  0.87500  1
 O  O1  1  0.27016  0.27016  0.27016  1
 O  O2  1  0.68952  0.27016  0.27016  1
 O  O3  1  0.72984  0.72984  0.31048  1
 O  O4  1  0.72984  0.31048  0.72984  1
 O  O5  1  0.27016  0.68952  0.27016  1
 O  O6  1  0.27016  0.27016  0.68952  1
 O  O7  1  0.31048  0.72984  0.72984  1
 O  O8  1  0.72984  0.72984  0.72984  1
