CIF file written using JARVIS-Tools package.
data_AgH4WS4N
_symmetry_space_group_name_H-M  'I-4'
_cell_length_a       6.33934
_cell_length_b       6.33934
_cell_length_c       6.33934
_cell_angle_alpha    102.316
_cell_angle_beta     102.316
_cell_angle_gamma    124.987

_symmetry_Int_Tables_number  82
_chemical_formula_structural  AgH4WS4N
_chemical_formula_sum  AgH4WS4N
_cell_volume  185.1262921645794
_cell_formula_units_Z  1
loop_
  _symmetry_equiv_pos_site_id
 _symmetry_equiv_pos_as_xyz
 1  'x, y, z'
loop_
 _atom_site_type_symbol
 _atom_site_label
 _atom_site_symmetry_multiplicity
 _atom_site_fract_x
 _atom_site_fract_y
 _atom_site_fract_z
 _atom_site_fract_occupancy
 Ag  Ag1  1  0.75000  0.25000  0.50000  1
 H  H1  1  0.35613  0.49864  0.05490  1
 H  H2  1  0.44374  0.30123  0.94510  1
 H  H3  1  0.69877  0.64387  0.14251  1
 H  H4  1  0.50136  0.55626  0.85749  1
 N  N1  1  0.50000  0.50000  0.00000  1
 S  S1  1  0.25432  0.83391  0.17590  1
 S  S2  1  0.65801  0.07842  0.82410  1
 S  S3  1  0.92158  0.74568  0.57959  1
 S  S4  1  0.16609  0.34199  0.42041  1
 W  W1  1  0.25000  0.75000  0.50000  1
