CIF file written using JARVIS-Tools package.
data_Mn4Ge6Ir7
_symmetry_space_group_name_H-M  'Im-3m'
_cell_length_a       6.99754
_cell_length_b       6.99753
_cell_length_c       6.99753
_cell_angle_alpha    109.471
_cell_angle_beta     109.471
_cell_angle_gamma    109.471

_symmetry_Int_Tables_number  229
_chemical_formula_structural  Mn4Ge6Ir7
_chemical_formula_sum  Mn4Ge6Ir7
_cell_volume  263.76218763995564
_cell_formula_units_Z  1
loop_
  _symmetry_equiv_pos_site_id
 _symmetry_equiv_pos_as_xyz
 1  'x, y, z'
loop_
 _atom_site_type_symbol
 _atom_site_label
 _atom_site_symmetry_multiplicity
 _atom_site_fract_x
 _atom_site_fract_y
 _atom_site_fract_z
 _atom_site_fract_occupancy
 Ge  Ge1  1  0.30618  0.30618  0.00000  1
 Ge  Ge2  1  0.00000  0.30618  0.30618  1
 Ge  Ge3  1  0.30618  0.00000  0.30618  1
 Ge  Ge4  1  -0.00000  0.69382  0.69382  1
 Ge  Ge5  1  0.69382  0.69382  -0.00000  1
 Ge  Ge6  1  0.69382  -0.00000  0.69382  1
 Ir  Ir1  1  0.75000  0.50000  0.25000  1
 Ir  Ir2  1  0.25000  0.50000  0.75000  1
 Ir  Ir3  1  0.25000  0.75000  0.50000  1
 Ir  Ir4  1  0.50000  0.25000  0.75000  1
 Ir  Ir5  1  0.75000  0.25000  0.50000  1
 Ir  Ir6  1  0.50000  0.75000  0.25000  1
 Ir  Ir7  1  0.00000  0.00000  0.00000  1
 Mn  Mn1  1  0.00000  0.00000  0.50000  1
 Mn  Mn2  1  0.00000  0.50000  -0.00000  1
 Mn  Mn3  1  0.50000  0.00000  0.00000  1
 Mn  Mn4  1  0.50000  0.50000  0.50000  1
