CIF file written using JARVIS-Tools package.
data_HoZnBi2O6
_symmetry_space_group_name_H-M  'Pmn2_1'
_cell_length_a       5.58147
_cell_length_b       6.40482
_cell_length_c       8.53955
_cell_angle_alpha    90
_cell_angle_beta     90
_cell_angle_gamma    90

_symmetry_Int_Tables_number  31
_chemical_formula_structural  HoZnBi2O6
_chemical_formula_sum  Ho2Zn2Bi4O2
_cell_volume  305.27425004268986
_cell_formula_units_Z  2
loop_
  _symmetry_equiv_pos_site_id
 _symmetry_equiv_pos_as_xyz
 1  'x, y, z'
loop_
 _atom_site_type_symbol
 _atom_site_label
 _atom_site_symmetry_multiplicity
 _atom_site_fract_x
 _atom_site_fract_y
 _atom_site_fract_z
 _atom_site_fract_occupancy
 Bi  Bi1  1  0.01007  0.71662  0.75709  1
 Bi  Bi2  1  0.01007  0.71662  0.24291  1
 Bi  Bi3  1  0.51007  0.28338  0.25709  1
 Bi  Bi4  1  0.51007  0.28338  0.74291  1
 Ho  Ho1  1  0.04127  0.16214  0.00000  1
 Ho  Ho2  1  0.54127  0.83786  0.50000  1
 O  O1  1  0.15193  0.75534  0.50000  1
 O  O2  1  0.80181  0.02880  0.33106  1
 O  O3  1  0.14687  0.39647  0.17996  1
 O  O4  1  0.30181  0.97120  0.83106  1
 O  O5  1  0.14687  0.39647  0.82004  1
 O  O6  1  0.35944  0.17794  0.50000  1
 O  O7  1  0.64687  0.60353  0.67996  1
 O  O8  1  0.64687  0.60353  0.32004  1
 O  O9  1  0.30181  0.97120  0.16894  1
 O  O10  1  0.80181  0.02880  0.66894  1
 O  O11  1  0.65193  0.24466  0.00000  1
 O  O12  1  0.85944  0.82206  0.00000  1
 Zn  Zn1  1  0.02982  0.09603  0.50000  1
 Zn  Zn2  1  0.52982  0.90397  0.00000  1
