CIF file written using JARVIS-Tools package.
data_Cu8O
_symmetry_space_group_name_H-M  'Cmmm'
_cell_length_a       4.43392
_cell_length_b       4.43393
_cell_length_c       5.49451
_cell_angle_alpha    90
_cell_angle_beta     90
_cell_angle_gamma    90.7904

_symmetry_Int_Tables_number  65
_chemical_formula_structural  Cu8O
_chemical_formula_sum  Cu8O
_cell_volume  108.01022303702102
_cell_formula_units_Z  1
loop_
  _symmetry_equiv_pos_site_id
 _symmetry_equiv_pos_as_xyz
 1  'x, y, z'
loop_
 _atom_site_type_symbol
 _atom_site_label
 _atom_site_symmetry_multiplicity
 _atom_site_fract_x
 _atom_site_fract_y
 _atom_site_fract_z
 _atom_site_fract_occupancy
 Cu  Cu1  1  0.42401  0.20183  0.00000  1
 Cu  Cu2  1  0.79817  0.57599  0.00000  1
 Cu  Cu3  1  0.40091  0.17868  0.50000  1
 Cu  Cu4  1  0.82132  0.59909  0.50000  1
 Cu  Cu5  1  0.33431  0.66569  0.72585  1
 Cu  Cu6  1  0.33431  0.66569  0.27415  1
 Cu  Cu7  1  0.88792  0.11208  0.27415  1
 Cu  Cu8  1  0.88792  0.11208  0.72585  1
 O  O1  1  0.11113  0.88887  0.00000  1
