CIF file written using JARVIS-Tools package.
data_CeAl5Ni2
_symmetry_space_group_name_H-M  'Immm'
_cell_length_a       3.99467
_cell_length_b       6.25433
_cell_length_c       6.25433
_cell_angle_alpha    68.4296
_cell_angle_beta     71.3763
_cell_angle_gamma    71.3763

_symmetry_Int_Tables_number  71
_chemical_formula_structural  CeAl5Ni2
_chemical_formula_sum  CeAl5Ni2
_cell_volume  134.04114493400098
_cell_formula_units_Z  1
loop_
  _symmetry_equiv_pos_site_id
 _symmetry_equiv_pos_as_xyz
 1  'x, y, z'
loop_
 _atom_site_type_symbol
 _atom_site_label
 _atom_site_symmetry_multiplicity
 _atom_site_fract_x
 _atom_site_fract_y
 _atom_site_fract_z
 _atom_site_fract_occupancy
 Al  Al1  1  0.00000  0.50000  0.50000  1
 Al  Al2  1  0.65625  0.15274  0.53476  1
 Al  Al3  1  0.34375  0.84726  0.46524  1
 Al  Al4  1  0.34375  0.46524  0.84726  1
 Al  Al5  1  0.65625  0.53476  0.15274  1
 Ce  Ce1  1  0.00000  0.00000  0.00000  1
 Ni  Ni1  1  0.75898  0.74102  0.74102  1
 Ni  Ni2  1  0.24102  0.25898  0.25898  1
