CIF file written using JARVIS-Tools package.
data_V2MoO8
_symmetry_space_group_name_H-M  'Cm'
_cell_length_a       3.71043
_cell_length_b       4.05926
_cell_length_c       9.80865
_cell_angle_alpha    89.9073
_cell_angle_beta     100.901
_cell_angle_gamma    90.4905

_symmetry_Int_Tables_number  8
_chemical_formula_structural  V2MoO8
_chemical_formula_sum  V2MoO8
_cell_volume  145.0625292759344
_cell_formula_units_Z  1
loop_
  _symmetry_equiv_pos_site_id
 _symmetry_equiv_pos_as_xyz
 1  'x, y, z'
loop_
 _atom_site_type_symbol
 _atom_site_label
 _atom_site_symmetry_multiplicity
 _atom_site_fract_x
 _atom_site_fract_y
 _atom_site_fract_z
 _atom_site_fract_occupancy
 Mo  Mo1  1  0.94397  0.01748  -0.00000  1
 O  O1  1  0.95991  0.43989  0.00000  1
 O  O2  1  0.30676  0.95981  0.58230  1
 O  O3  1  0.10502  0.94391  0.19424  1
 O  O4  1  0.83260  0.43809  0.62629  1
 O  O5  1  0.72447  0.95981  0.41770  1
 O  O6  1  0.20635  0.43809  0.37372  1
 O  O7  1  0.91079  0.94392  0.80576  1
 O  O8  1  0.47585  0.92863  0.00000  1
 V  V1  1  0.20500  0.03868  0.37568  1
 V  V2  1  0.82929  0.03868  0.62432  1
