CIF file written using JARVIS-Tools package.
data_SrP2Ir2
_symmetry_space_group_name_H-M  'P3_221'
_cell_length_a       6.78574
_cell_length_b       6.78574
_cell_length_c       7.17563
_cell_angle_alpha    90
_cell_angle_beta     90
_cell_angle_gamma    120

_symmetry_Int_Tables_number  154
_chemical_formula_structural  SrP2Ir2
_chemical_formula_sum  Sr3P6Ir6
_cell_volume  286.1444459200391
_cell_formula_units_Z  3
loop_
  _symmetry_equiv_pos_site_id
 _symmetry_equiv_pos_as_xyz
 1  'x, y, z'
loop_
 _atom_site_type_symbol
 _atom_site_label
 _atom_site_symmetry_multiplicity
 _atom_site_fract_x
 _atom_site_fract_y
 _atom_site_fract_z
 _atom_site_fract_occupancy
 Ir  Ir1  1  0.86984  -0.00000  0.66667  1
 Ir  Ir2  1  0.13016  0.13016  0.00000  1
 Ir  Ir3  1  0.49203  0.00000  0.16667  1
 Ir  Ir4  1  0.00000  0.49203  0.83333  1
 Ir  Ir5  1  0.50797  0.50797  0.50000  1
 Ir  Ir6  1  -0.00000  0.86984  0.33333  1
 P  P1  1  0.87628  0.66008  0.62353  1
 P  P2  1  0.21620  0.33992  0.70980  1
 P  P3  1  0.12372  0.78380  0.04313  1
 P  P4  1  0.78380  0.12372  0.95687  1
 P  P5  1  0.33992  0.21620  0.29020  1
 P  P6  1  0.66008  0.87628  0.37647  1
 Sr  Sr1  1  0.00000  0.39838  0.33333  1
 Sr  Sr2  1  0.39838  0.00000  0.66667  1
 Sr  Sr3  1  0.60162  0.60162  0.00000  1
