CIF file written using JARVIS-Tools package.
data_MgSiO3
_symmetry_space_group_name_H-M  'C2/c'
_cell_length_a       4.89674
_cell_length_b       6.3248
_cell_length_c       6.32479
_cell_angle_alpha    80.6215
_cell_angle_beta     84.2643
_cell_angle_gamma    84.2643

_symmetry_Int_Tables_number  15
_chemical_formula_structural  MgSiO3
_chemical_formula_sum  Mg4Si4O2
_cell_volume  191.5996326186101
_cell_formula_units_Z  4
loop_
  _symmetry_equiv_pos_site_id
 _symmetry_equiv_pos_as_xyz
 1  'x, y, z'
loop_
 _atom_site_type_symbol
 _atom_site_label
 _atom_site_symmetry_multiplicity
 _atom_site_fract_x
 _atom_site_fract_y
 _atom_site_fract_z
 _atom_site_fract_occupancy
 Mg  Mg1  1  0.75000  0.88758  0.11242  1
 Mg  Mg2  1  0.75000  0.29929  0.70071  1
 Mg  Mg3  1  0.25000  0.11242  0.88758  1
 Mg  Mg4  1  0.25000  0.70071  0.29929  1
 O  O1  1  0.36855  0.06217  0.20059  1
 O  O2  1  0.30318  0.71131  0.60042  1
 O  O3  1  0.07783  0.10456  0.61566  1
 O  O4  1  0.86855  0.20059  0.06217  1
 O  O5  1  0.69682  0.28869  0.39958  1
 O  O6  1  0.19682  0.39958  0.28869  1
 O  O7  1  0.92217  0.89544  0.38434  1
 O  O8  1  0.42217  0.38434  0.89544  1
 O  O9  1  0.13145  0.79941  0.93783  1
 O  O10  1  0.80318  0.60042  0.71131  1
 O  O11  1  0.57783  0.61566  0.10456  1
 O  O12  1  0.63145  0.93783  0.79941  1
 Si  Si1  1  0.97232  0.83032  0.67147  1
 Si  Si2  1  0.02768  0.16968  0.32853  1
 Si  Si3  1  0.52768  0.32853  0.16968  1
 Si  Si4  1  0.47232  0.67147  0.83032  1
