CIF file written using JARVIS-Tools package.
data_MnHO2
_symmetry_space_group_name_H-M  'Pnma'
_cell_length_a       3.00802
_cell_length_b       4.55414
_cell_length_c       10.1748
_cell_angle_alpha    90
_cell_angle_beta     90
_cell_angle_gamma    90

_symmetry_Int_Tables_number  62
_chemical_formula_structural  MnHO2
_chemical_formula_sum  Mn4H4O8
_cell_volume  139.38377513893857
_cell_formula_units_Z  4
loop_
  _symmetry_equiv_pos_site_id
 _symmetry_equiv_pos_as_xyz
 1  'x, y, z'
loop_
 _atom_site_type_symbol
 _atom_site_label
 _atom_site_symmetry_multiplicity
 _atom_site_fract_x
 _atom_site_fract_y
 _atom_site_fract_z
 _atom_site_fract_occupancy
 H  H1  1  0.25000  0.90520  0.40493  1
 H  H2  1  0.25000  0.59480  0.90493  1
 H  H3  1  0.75000  0.09480  0.59507  1
 H  H4  1  0.75000  0.40520  0.09507  1
 Mn  Mn1  1  0.25000  0.55499  0.64083  1
 Mn  Mn2  1  0.25000  0.94501  0.14083  1
 Mn  Mn3  1  0.75000  0.44501  0.35917  1
 Mn  Mn4  1  0.75000  0.05499  0.85917  1
 O  O1  1  0.25000  0.19944  0.30295  1
 O  O2  1  0.25000  0.30056  0.80295  1
 O  O3  1  0.75000  0.80056  0.69705  1
 O  O4  1  0.75000  0.69944  0.19705  1
 O  O5  1  0.25000  0.69848  0.44119  1
 O  O6  1  0.25000  0.80152  0.94119  1
 O  O7  1  0.75000  0.30152  0.55881  1
 O  O8  1  0.75000  0.19848  0.05881  1
