CIF file written using JARVIS-Tools package.
data_Sm2TeO6
_symmetry_space_group_name_H-M  'P4_2/mnm'
_cell_length_a       5.0688
_cell_length_b       5.06901
_cell_length_c       10.329
_cell_angle_alpha    90
_cell_angle_beta     90
_cell_angle_gamma    90

_symmetry_Int_Tables_number  136
_chemical_formula_structural  Sm2TeO6
_chemical_formula_sum  Sm4Te2O2
_cell_volume  265.39076590363857
_cell_formula_units_Z  2
loop_
  _symmetry_equiv_pos_site_id
 _symmetry_equiv_pos_as_xyz
 1  'x, y, z'
loop_
 _atom_site_type_symbol
 _atom_site_label
 _atom_site_symmetry_multiplicity
 _atom_site_fract_x
 _atom_site_fract_y
 _atom_site_fract_z
 _atom_site_fract_occupancy
 O  O1  1  0.68112  0.31894  0.64247  1
 O  O2  1  0.18113  0.18112  0.14248  1
 O  O3  1  0.18113  0.18112  0.85752  1
 O  O4  1  0.81895  0.81896  0.14246  1
 O  O5  1  0.27323  0.72689  0.00000  1
 O  O6  1  0.22687  0.22678  0.50000  1
 O  O7  1  0.31887  0.68104  0.64247  1
 O  O8  1  0.68112  0.31894  0.35753  1
 O  O9  1  0.81895  0.81896  0.85754  1
 O  O10  1  0.72688  0.27323  0.00000  1
 O  O11  1  0.77313  0.77321  0.50000  1
 O  O12  1  0.31887  0.68104  0.35753  1
 Sm  Sm1  1  0.50004  0.50004  0.83451  1
 Sm  Sm2  1  0.50004  0.50004  0.16549  1
 Sm  Sm3  1  0.00001  0.00001  0.66549  1
 Sm  Sm4  1  0.00001  0.00001  0.33451  1
 Te  Te1  1  0.50000  0.50000  0.50000  1
 Te  Te2  1  0.00005  0.00005  0.00000  1
