CIF file written using JARVIS-Tools package.
data_TlSbO3
_symmetry_space_group_name_H-M  'P6_322'
_cell_length_a       5.41117
_cell_length_b       5.41117
_cell_length_c       14.1438
_cell_angle_alpha    90
_cell_angle_beta     90
_cell_angle_gamma    120

_symmetry_Int_Tables_number  182
_chemical_formula_structural  TlSbO3
_chemical_formula_sum  Tl4Sb4O2
_cell_volume  358.656307807315
_cell_formula_units_Z  4
loop_
  _symmetry_equiv_pos_site_id
 _symmetry_equiv_pos_as_xyz
 1  'x, y, z'
loop_
 _atom_site_type_symbol
 _atom_site_label
 _atom_site_symmetry_multiplicity
 _atom_site_fract_x
 _atom_site_fract_y
 _atom_site_fract_z
 _atom_site_fract_occupancy
 O  O1  1  0.71653  0.66668  0.82974  1
 O  O2  1  0.33332  0.04985  0.82974  1
 O  O3  1  0.28347  0.33332  0.32974  1
 O  O4  1  0.95015  0.66668  0.67026  1
 O  O5  1  0.66668  0.71653  0.17026  1
 O  O6  1  0.95015  0.28347  0.82974  1
 O  O7  1  0.04985  0.71653  0.32974  1
 O  O8  1  0.33332  0.28347  0.67026  1
 O  O9  1  0.71653  0.04985  0.67026  1
 O  O10  1  0.66668  0.95015  0.32974  1
 O  O11  1  0.28347  0.95015  0.17026  1
 O  O12  1  0.04985  0.33332  0.17026  1
 Sb  Sb1  1  0.00000  0.00000  0.75000  1
 Sb  Sb2  1  0.66667  0.33333  0.75000  1
 Sb  Sb3  1  0.00000  0.00000  0.25000  1
 Sb  Sb4  1  0.33333  0.66667  0.25000  1
 Tl  Tl1  1  0.33333  0.66667  0.93710  1
 Tl  Tl2  1  0.33333  0.66667  0.56290  1
 Tl  Tl3  1  0.66667  0.33333  0.43710  1
 Tl  Tl4  1  0.66667  0.33333  0.06290  1
