CIF file written using JARVIS-Tools package.
data_C3N4
_symmetry_space_group_name_H-M  'P6_3/m'
_cell_length_a       6.44534
_cell_length_b       6.44534
_cell_length_c       2.42329
_cell_angle_alpha    90
_cell_angle_beta     90
_cell_angle_gamma    120

_symmetry_Int_Tables_number  176
_chemical_formula_structural  C3N4
_chemical_formula_sum  C6N8
_cell_volume  87.18216955935307
_cell_formula_units_Z  2
loop_
  _symmetry_equiv_pos_site_id
 _symmetry_equiv_pos_as_xyz
 1  'x, y, z'
loop_
 _atom_site_type_symbol
 _atom_site_label
 _atom_site_symmetry_multiplicity
 _atom_site_fract_x
 _atom_site_fract_y
 _atom_site_fract_z
 _atom_site_fract_occupancy
 C  C1  1  0.17843  0.77337  0.25000  1
 C  C2  1  0.22663  0.40507  0.25000  1
 C  C3  1  0.59493  0.82157  0.25000  1
 C  C4  1  0.82157  0.22663  0.75000  1
 C  C5  1  0.77337  0.59493  0.75000  1
 C  C6  1  0.40507  0.17843  0.75000  1
 N  N1  1  0.32989  0.03339  0.25000  1
 N  N2  1  0.96661  0.29650  0.25000  1
 N  N3  1  0.70350  0.67011  0.25000  1
 N  N4  1  0.67011  0.96661  0.75000  1
 N  N5  1  0.03339  0.70350  0.75000  1
 N  N6  1  0.29650  0.32989  0.75000  1
 N  N7  1  0.33333  0.66667  0.25000  1
 N  N8  1  0.66667  0.33333  0.75000  1
