CIF file written using JARVIS-Tools package.
data_TbNbO4
_symmetry_space_group_name_H-M  'C2/c'
_cell_length_a       5.14666
_cell_length_b       5.35482
_cell_length_c       6.59313
_cell_angle_alpha    112.117
_cell_angle_beta     111.071
_cell_angle_gamma    94.3474

_symmetry_Int_Tables_number  15
_chemical_formula_structural  TbNbO4
_chemical_formula_sum  Tb2Nb2O8
_cell_volume  152.31865780180888
_cell_formula_units_Z  2
loop_
  _symmetry_equiv_pos_site_id
 _symmetry_equiv_pos_as_xyz
 1  'x, y, z'
loop_
 _atom_site_type_symbol
 _atom_site_label
 _atom_site_symmetry_multiplicity
 _atom_site_fract_x
 _atom_site_fract_y
 _atom_site_fract_z
 _atom_site_fract_occupancy
 Nb  Nb1  1  0.35681  0.60681  0.71362  1
 Nb  Nb2  1  0.64319  0.39319  0.28638  1
 O  O1  1  0.28922  0.12872  0.07737  1
 O  O2  1  0.78814  0.44865  0.07737  1
 O  O3  1  0.71078  0.87128  0.92264  1
 O  O4  1  0.21186  0.55135  0.92264  1
 O  O5  1  0.50997  0.71613  0.43672  1
 O  O6  1  0.92675  0.22059  0.43672  1
 O  O7  1  0.49003  0.28387  0.56328  1
 O  O8  1  0.07325  0.77941  0.56328  1
 Tb  Tb1  1  0.87865  0.12865  0.75730  1
 Tb  Tb2  1  0.12135  0.87135  0.24270  1
