CIF file written using JARVIS-Tools package.
data_NaBiSe2
_symmetry_space_group_name_H-M  'I4_1/amd'
_cell_length_a       8.38521
_cell_length_b       11.1684
_cell_length_c       7.37779
_cell_angle_alpha    29.0894
_cell_angle_beta     55.37
_cell_angle_gamma    41.3403

_symmetry_Int_Tables_number  141
_chemical_formula_structural  NaBiSe2
_chemical_formula_sum  Na2Bi2Se4
_cell_volume  213.41940520147412
_cell_formula_units_Z  2
loop_
  _symmetry_equiv_pos_site_id
 _symmetry_equiv_pos_as_xyz
 1  'x, y, z'
loop_
 _atom_site_type_symbol
 _atom_site_label
 _atom_site_symmetry_multiplicity
 _atom_site_fract_x
 _atom_site_fract_y
 _atom_site_fract_z
 _atom_site_fract_occupancy
 Bi  Bi1  1  0.50000  0.00000  0.00000  1
 Bi  Bi2  1  0.25000  0.50000  -0.00000  1
 Na  Na1  1  0.99998  -0.00000  0.00000  1
 Na  Na2  1  0.75002  0.50000  -0.00000  1
 Se  Se1  1  0.25621  0.00004  0.48748  1
 Se  Se2  1  0.00623  0.50004  0.48748  1
 Se  Se3  1  0.74377  -0.00004  0.51252  1
 Se  Se4  1  0.49379  0.49996  0.51252  1
