CIF file written using JARVIS-Tools package.
data_CaPbI4
_symmetry_space_group_name_H-M  'C2/m'
_cell_length_a       4.52663
_cell_length_b       7.92074
_cell_length_c       8.34212
_cell_angle_alpha    118.706
_cell_angle_beta     105.759
_cell_angle_gamma    89.9976

_symmetry_Int_Tables_number  12
_chemical_formula_structural  CaPbI4
_chemical_formula_sum  CaPbI4
_cell_volume  249.4485016750564
_cell_formula_units_Z  1
loop_
  _symmetry_equiv_pos_site_id
 _symmetry_equiv_pos_as_xyz
 1  'x, y, z'
loop_
 _atom_site_type_symbol
 _atom_site_label
 _atom_site_symmetry_multiplicity
 _atom_site_fract_x
 _atom_site_fract_y
 _atom_site_fract_z
 _atom_site_fract_occupancy
 Ca  Ca1  1  0.50080  0.49721  -0.00120  1
 I  I1  1  0.63315  0.95190  0.26317  1
 I  I2  1  0.12983  0.46946  0.25660  1
 I  I3  1  0.36849  0.04252  0.73436  1
 I  I4  1  0.87174  0.52486  0.74091  1
 Pb  Pb1  1  0.00080  0.99715  0.99872  1
