CIF file written using JARVIS-Tools package.
data_InGaS3
_symmetry_space_group_name_H-M  'Cmc2_1'
_cell_length_a       3.80463
_cell_length_b       6.22033
_cell_length_c       9.83543
_cell_angle_alpha    90
_cell_angle_beta     101.152
_cell_angle_gamma    90

_symmetry_Int_Tables_number  36
_chemical_formula_structural  InGaS3
_chemical_formula_sum  In2Ga2S6
_cell_volume  228.37003858191545
_cell_formula_units_Z  2
loop_
  _symmetry_equiv_pos_site_id
 _symmetry_equiv_pos_as_xyz
 1  'x, y, z'
loop_
 _atom_site_type_symbol
 _atom_site_label
 _atom_site_symmetry_multiplicity
 _atom_site_fract_x
 _atom_site_fract_y
 _atom_site_fract_z
 _atom_site_fract_occupancy
 Ga  Ga1  1  0.88627  0.05641  0.77254  1
 Ga  Ga2  1  0.11373  0.55641  0.22746  1
 In  In1  1  0.33392  0.50334  0.66784  1
 In  In2  1  0.66608  0.00334  0.33216  1
 S  S1  1  0.89876  0.69570  0.79752  1
 S  S2  1  0.10124  0.19570  0.20248  1
 S  S3  1  0.56352  0.70818  0.12705  1
 S  S4  1  0.43648  0.20818  0.87295  1
 S  S5  1  0.78000  0.24227  0.56000  1
 S  S6  1  0.22000  0.74227  0.44000  1
