CIF file written using JARVIS-Tools package.
data_KH2N
_symmetry_space_group_name_H-M  'P2_1/m'
_cell_length_a       4.55104
_cell_length_b       3.73235
_cell_length_c       6.18256
_cell_angle_alpha    90
_cell_angle_beta     95.1494
_cell_angle_gamma    90

_symmetry_Int_Tables_number  11
_chemical_formula_structural  KH2N
_chemical_formula_sum  K2H4N2
_cell_volume  104.59349018387704
_cell_formula_units_Z  2
loop_
  _symmetry_equiv_pos_site_id
 _symmetry_equiv_pos_as_xyz
 1  'x, y, z'
loop_
 _atom_site_type_symbol
 _atom_site_label
 _atom_site_symmetry_multiplicity
 _atom_site_fract_x
 _atom_site_fract_y
 _atom_site_fract_z
 _atom_site_fract_occupancy
 H  H1  1  0.29854  0.53628  0.87111  1
 H  H2  1  0.70146  0.03628  0.12889  1
 H  H3  1  0.29854  0.96372  0.87111  1
 H  H4  1  0.70146  0.46372  0.12889  1
 K  K1  1  0.77488  0.25000  0.68816  1
 K  K2  1  0.22512  0.75000  0.31184  1
 N  N1  1  0.27389  0.75000  0.76467  1
 N  N2  1  0.72611  0.25000  0.23533  1
