CIF file written using JARVIS-Tools package.
data_Ca2CoO3
_symmetry_space_group_name_H-M  'Fmm2'
_cell_length_a       3.34283
_cell_length_b       3.34283
_cell_length_c       7.21274
_cell_angle_alpha    76.3099
_cell_angle_beta     76.3099
_cell_angle_gamma    88.7685

_symmetry_Int_Tables_number  42
_chemical_formula_structural  Ca2CoO3
_chemical_formula_sum  Ca2CoO3
_cell_volume  76.03348461788644
_cell_formula_units_Z  1
loop_
  _symmetry_equiv_pos_site_id
 _symmetry_equiv_pos_as_xyz
 1  'x, y, z'
loop_
 _atom_site_type_symbol
 _atom_site_label
 _atom_site_symmetry_multiplicity
 _atom_site_fract_x
 _atom_site_fract_y
 _atom_site_fract_z
 _atom_site_fract_occupancy
 Ca  Ca1  1  0.39343  0.39343  0.17423  1
 Ca  Ca2  1  0.07179  0.07179  0.81742  1
 Co  Co1  1  0.70367  0.70367  0.49583  1
 O  O1  1  0.89561  0.89561  0.17973  1
 O  O2  1  0.57944  0.57944  0.81195  1
 O  O3  1  0.29005  0.29005  0.49584  1
