CIF file written using JARVIS-Tools package.
data_LiGaO2
_symmetry_space_group_name_H-M  'R-3m'
_cell_length_a       5.11672
_cell_length_b       5.11673
_cell_length_c       5.11673
_cell_angle_alpha    33.4012
_cell_angle_beta     33.4011
_cell_angle_gamma    33.4011

_symmetry_Int_Tables_number  166
_chemical_formula_structural  LiGaO2
_chemical_formula_sum  LiGaO2
_cell_volume  36.15086074866312
_cell_formula_units_Z  1
loop_
  _symmetry_equiv_pos_site_id
 _symmetry_equiv_pos_as_xyz
 1  'x, y, z'
loop_
 _atom_site_type_symbol
 _atom_site_label
 _atom_site_symmetry_multiplicity
 _atom_site_fract_x
 _atom_site_fract_y
 _atom_site_fract_z
 _atom_site_fract_occupancy
 Ga  Ga1  1  0.50000  0.50000  0.50000  1
 Li  Li1  1  0.00000  0.00000  0.00000  1
 O  O1  1  0.24232  0.24232  0.24232  1
 O  O2  1  0.75768  0.75768  0.75768  1
