CIF file written using JARVIS-Tools package.
data_SnPS3
_symmetry_space_group_name_H-M  'P2_1/c'
_cell_length_a       6.62236
_cell_length_b       7.46229
_cell_length_c       11.3243
_cell_angle_alpha    90
_cell_angle_beta     124.207
_cell_angle_gamma    90

_symmetry_Int_Tables_number  14
_chemical_formula_structural  SnPS3
_chemical_formula_sum  Sn4P4S2
_cell_volume  462.8149531104879
_cell_formula_units_Z  4
loop_
  _symmetry_equiv_pos_site_id
 _symmetry_equiv_pos_as_xyz
 1  'x, y, z'
loop_
 _atom_site_type_symbol
 _atom_site_label
 _atom_site_symmetry_multiplicity
 _atom_site_fract_x
 _atom_site_fract_y
 _atom_site_fract_z
 _atom_site_fract_occupancy
 P  P1  1  0.62897  0.61009  0.06837  1
 P  P2  1  0.37103  0.11009  0.43163  1
 P  P3  1  0.37103  0.38991  0.93163  1
 P  P4  1  0.62897  0.88991  0.56837  1
 S  S1  1  0.40732  0.80568  0.06064  1
 S  S2  1  0.87208  0.50186  0.26413  1
 S  S3  1  0.59268  0.19432  0.93936  1
 S  S4  1  0.12792  0.49814  0.73587  1
 S  S5  1  0.87208  -0.00186  0.76413  1
 S  S6  1  0.12792  0.00186  0.23587  1
 S  S7  1  0.21070  0.19328  0.53358  1
 S  S8  1  0.40732  0.69432  0.56064  1
 S  S9  1  0.78930  0.80672  0.46642  1
 S  S10  1  0.78930  0.69328  0.96642  1
 S  S11  1  0.59268  0.30568  0.43936  1
 S  S12  1  0.21070  0.30672  0.03358  1
 Sn  Sn1  1  0.26643  0.87387  0.72943  1
 Sn  Sn2  1  0.73357  0.37387  0.77057  1
 Sn  Sn3  1  0.73357  0.12613  0.27057  1
 Sn  Sn4  1  0.26643  0.62613  0.22943  1
