CIF file written using JARVIS-Tools package.
data_CdI2
_symmetry_space_group_name_H-M  'P3m1'
_cell_length_a       4.28696
_cell_length_b       4.28695
_cell_length_c       55.0194
_cell_angle_alpha    90
_cell_angle_beta     90
_cell_angle_gamma    120

_symmetry_Int_Tables_number  156
_chemical_formula_structural  CdI2
_chemical_formula_sum  Cd8I6
_cell_volume  875.6782217089348
_cell_formula_units_Z  8
loop_
  _symmetry_equiv_pos_site_id
 _symmetry_equiv_pos_as_xyz
 1  'x, y, z'
loop_
 _atom_site_type_symbol
 _atom_site_label
 _atom_site_symmetry_multiplicity
 _atom_site_fract_x
 _atom_site_fract_y
 _atom_site_fract_z
 _atom_site_fract_occupancy
 Cd  Cd1  1  0.00000  0.00000  0.15635  1
 Cd  Cd2  1  0.33333  0.66667  0.28131  1
 Cd  Cd3  1  0.33333  0.66667  0.03136  1
 Cd  Cd4  1  0.00000  0.00000  0.78128  1
 Cd  Cd5  1  0.00000  0.00000  0.65634  1
 Cd  Cd6  1  0.00000  0.00000  0.40630  1
 Cd  Cd7  1  0.33333  0.66667  0.90640  1
 Cd  Cd8  1  0.66667  0.33333  0.53130  1
 I  I1  1  0.33333  0.66667  0.62482  1
 I  I2  1  0.66667  0.33333  0.18787  1
 I  I3  1  0.33333  0.66667  0.74978  1
 I  I4  1  0.00000  0.00000  0.24981  1
 I  I5  1  0.66667  0.33333  0.81281  1
 I  I6  1  0.00000  0.00000  0.56281  1
 I  I7  1  0.66667  0.33333  0.43781  1
 I  I8  1  0.33333  0.66667  0.37480  1
 I  I9  1  0.66667  0.33333  0.93791  1
 I  I10  1  0.00000  0.00000  -0.00014  1
 I  I11  1  0.66667  0.33333  0.68785  1
 I  I12  1  0.33333  0.66667  0.12485  1
 I  I13  1  0.00000  0.00000  0.87489  1
 I  I14  1  0.33333  0.66667  0.49978  1
 I  I15  1  0.66667  0.33333  0.31283  1
 I  I16  1  0.66667  0.33333  0.06288  1
