CIF file written using JARVIS-Tools package.
data_TiZn2IrO6
_symmetry_space_group_name_H-M  'P2_1/c'
_cell_length_a       5.21621
_cell_length_b       5.22688
_cell_length_c       9.22132
_cell_angle_alpha    90
_cell_angle_beta     124.184
_cell_angle_gamma    90

_symmetry_Int_Tables_number  14
_chemical_formula_structural  TiZn2IrO6
_chemical_formula_sum  Ti2Zn4Ir2O2
_cell_volume  207.97980082162954
_cell_formula_units_Z  2
loop_
  _symmetry_equiv_pos_site_id
 _symmetry_equiv_pos_as_xyz
 1  'x, y, z'
loop_
 _atom_site_type_symbol
 _atom_site_label
 _atom_site_symmetry_multiplicity
 _atom_site_fract_x
 _atom_site_fract_y
 _atom_site_fract_z
 _atom_site_fract_occupancy
 Ir  Ir1  1  0.50000  0.50000  0.50000  1
 Ir  Ir2  1  0.50000  0.00000  -0.00000  1
 O  O1  1  0.26291  0.32731  0.93976  1
 O  O2  1  0.63405  0.41850  0.75049  1
 O  O3  1  0.73709  0.82731  0.56024  1
 O  O4  1  0.26291  0.17269  0.43976  1
 O  O5  1  0.73709  0.67269  0.06024  1
 O  O6  1  0.89419  0.18052  0.06564  1
 O  O7  1  0.36595  0.91850  0.74951  1
 O  O8  1  0.63405  0.08150  0.25049  1
 O  O9  1  0.36595  0.58150  0.24951  1
 O  O10  1  0.10581  0.68052  0.43436  1
 O  O11  1  0.10581  0.81948  0.93436  1
 O  O12  1  0.89419  0.31948  0.56564  1
 Ti  Ti1  1  -0.00000  0.00000  0.50000  1
 Ti  Ti2  1  0.00000  0.50000  0.00000  1
 Zn  Zn1  1  0.74017  0.02969  0.74897  1
 Zn  Zn2  1  0.25983  0.52969  0.75103  1
 Zn  Zn3  1  0.74017  0.47031  0.24897  1
 Zn  Zn4  1  0.25983  0.97031  0.25103  1
