CIF file written using JARVIS-Tools package.
data_K2Se5
_symmetry_space_group_name_H-M  'P2_12_12_1'
_cell_length_a       6.61566
_cell_length_b       6.99481
_cell_length_c       17.7051
_cell_angle_alpha    90
_cell_angle_beta     90
_cell_angle_gamma    90

_symmetry_Int_Tables_number  19
_chemical_formula_structural  K2Se5
_chemical_formula_sum  K8Se20
_cell_volume  819.3080100054801
_cell_formula_units_Z  4
loop_
  _symmetry_equiv_pos_site_id
 _symmetry_equiv_pos_as_xyz
 1  'x, y, z'
loop_
 _atom_site_type_symbol
 _atom_site_label
 _atom_site_symmetry_multiplicity
 _atom_site_fract_x
 _atom_site_fract_y
 _atom_site_fract_z
 _atom_site_fract_occupancy
 K  K1  1  0.88221  0.58564  0.00699  1
 K  K2  1  0.38221  0.91436  0.99301  1
 K  K3  1  0.11779  0.08564  0.49301  1
 K  K4  1  0.61779  0.41436  0.50699  1
 K  K5  1  0.09108  0.25920  0.83933  1
 K  K6  1  0.59108  0.24080  0.16067  1
 K  K7  1  0.90892  0.75920  0.66067  1
 K  K8  1  0.40892  0.74080  0.33933  1
 Se  Se1  1  0.74317  0.86851  0.84874  1
 Se  Se2  1  0.10335  0.57597  0.48727  1
 Se  Se3  1  0.25683  0.36851  0.65126  1
 Se  Se4  1  0.47217  0.12599  0.70774  1
 Se  Se5  1  0.52783  0.62599  0.79226  1
 Se  Se6  1  0.97217  0.37401  0.29226  1
 Se  Se7  1  0.24317  0.63149  0.15126  1
 Se  Se8  1  0.02783  0.87401  0.20774  1
 Se  Se9  1  0.75683  0.13149  0.34874  1
 Se  Se10  1  0.89665  0.07597  0.01273  1
 Se  Se11  1  0.92025  0.64599  0.37506  1
 Se  Se12  1  0.08768  0.75716  0.83445  1
 Se  Se13  1  0.91232  0.25716  0.66555  1
 Se  Se14  1  0.42025  0.85401  0.62494  1
 Se  Se15  1  0.39665  0.42403  0.98727  1
 Se  Se16  1  0.57975  0.35401  0.87506  1
 Se  Se17  1  0.07975  0.14599  0.12494  1
 Se  Se18  1  0.58768  0.74284  0.16555  1
 Se  Se19  1  0.41232  0.24284  0.33445  1
 Se  Se20  1  0.60335  0.92403  0.51273  1
