CIF file written using JARVIS-Tools package.
data_LiFeSiO4
_symmetry_space_group_name_H-M  'Cmcm'
_cell_length_a       4.93842
_cell_length_b       4.93842
_cell_length_c       6.15022
_cell_angle_alpha    90
_cell_angle_beta     90
_cell_angle_gamma    67.8187

_symmetry_Int_Tables_number  63
_chemical_formula_structural  LiFeSiO4
_chemical_formula_sum  Li2Fe2Si2O8
_cell_volume  138.8912689666486
_cell_formula_units_Z  2
loop_
  _symmetry_equiv_pos_site_id
 _symmetry_equiv_pos_as_xyz
 1  'x, y, z'
loop_
 _atom_site_type_symbol
 _atom_site_label
 _atom_site_symmetry_multiplicity
 _atom_site_fract_x
 _atom_site_fract_y
 _atom_site_fract_z
 _atom_site_fract_occupancy
 Fe  Fe1  1  0.50000  0.50000  0.00000  1
 Fe  Fe2  1  0.50000  0.50000  0.50000  1
 Li  Li1  1  0.16975  0.16975  0.25000  1
 Li  Li2  1  0.83025  0.83025  0.75000  1
 O  O1  1  0.26237  0.78699  0.75000  1
 O  O2  1  0.21301  0.73763  0.25000  1
 O  O3  1  0.26603  0.26603  0.53275  1
 O  O4  1  0.73397  0.73397  0.03275  1
 O  O5  1  0.26603  0.26603  0.96725  1
 O  O6  1  0.73397  0.73397  0.46725  1
 O  O7  1  0.78699  0.26237  0.75000  1
 O  O8  1  0.73763  0.21301  0.25000  1
 Si  Si1  1  0.15195  0.15195  0.75000  1
 Si  Si2  1  0.84805  0.84805  0.25000  1
