CIF file written using JARVIS-Tools package.
data_CsCeS2
_symmetry_space_group_name_H-M  'R-3m'
_cell_length_a       8.38476
_cell_length_b       8.38476
_cell_length_c       8.38476
_cell_angle_alpha    28.9886
_cell_angle_beta     28.9885
_cell_angle_gamma    28.9885

_symmetry_Int_Tables_number  166
_chemical_formula_structural  CsCeS2
_chemical_formula_sum  CsCeS2
_cell_volume  122.45759901346855
_cell_formula_units_Z  1
loop_
  _symmetry_equiv_pos_site_id
 _symmetry_equiv_pos_as_xyz
 1  'x, y, z'
loop_
 _atom_site_type_symbol
 _atom_site_label
 _atom_site_symmetry_multiplicity
 _atom_site_fract_x
 _atom_site_fract_y
 _atom_site_fract_z
 _atom_site_fract_occupancy
 Ce  Ce1  1  0.50000  0.50000  0.50000  1
 Cs  Cs1  1  0.00000  0.00000  0.00000  1
 S  S1  1  0.77106  0.77106  0.77106  1
 S  S2  1  0.22894  0.22894  0.22894  1
