CIF file written using JARVIS-Tools package.
data_TlV2AgO6
_symmetry_space_group_name_H-M  'C2/c'
_cell_length_a       5.90559
_cell_length_b       7.40338
_cell_length_c       7.40339
_cell_angle_alpha    86.5874
_cell_angle_beta     80.0476
_cell_angle_gamma    80.0476

_symmetry_Int_Tables_number  15
_chemical_formula_structural  TlV2AgO6
_chemical_formula_sum  Tl2V4Ag2O2
_cell_volume  313.87063047013135
_cell_formula_units_Z  2
loop_
  _symmetry_equiv_pos_site_id
 _symmetry_equiv_pos_as_xyz
 1  'x, y, z'
loop_
 _atom_site_type_symbol
 _atom_site_label
 _atom_site_symmetry_multiplicity
 _atom_site_fract_x
 _atom_site_fract_y
 _atom_site_fract_z
 _atom_site_fract_occupancy
 Ag  Ag1  1  0.25000  0.89441  0.10559  1
 Ag  Ag2  1  0.75000  0.10559  0.89441  1
 O  O1  1  0.14823  0.94957  0.79858  1
 O  O2  1  0.01982  0.33323  0.35922  1
 O  O3  1  0.51982  0.35922  0.33323  1
 O  O4  1  0.98018  0.66677  0.64078  1
 O  O5  1  0.22755  0.57521  0.09900  1
 O  O6  1  0.27245  0.90100  0.42479  1
 O  O7  1  0.77245  0.42479  0.90100  1
 O  O8  1  0.72755  0.09900  0.57521  1
 O  O9  1  0.64823  0.79858  0.94957  1
 O  O10  1  0.85177  0.05043  0.20142  1
 O  O11  1  0.35177  0.20142  0.05043  1
 O  O12  1  0.48018  0.64078  0.66677  1
 Tl  Tl1  1  0.75000  0.71211  0.28789  1
 Tl  Tl2  1  0.25000  0.28789  0.71211  1
 V  V1  1  0.21714  0.79564  0.63013  1
 V  V2  1  0.28286  0.36987  0.20436  1
 V  V3  1  0.78286  0.20436  0.36987  1
 V  V4  1  0.71714  0.63013  0.79564  1
