CIF file written using JARVIS-Tools package.
data_MgV2O5
_symmetry_space_group_name_H-M  'Cmcm'
_cell_length_a       3.68264
_cell_length_b       5.37102
_cell_length_c       11.0669
_cell_angle_alpha    90
_cell_angle_beta     90
_cell_angle_gamma    110.049

_symmetry_Int_Tables_number  63
_chemical_formula_structural  MgV2O5
_chemical_formula_sum  Mg2V4O0
_cell_volume  205.6319493017014
_cell_formula_units_Z  2
loop_
  _symmetry_equiv_pos_site_id
 _symmetry_equiv_pos_as_xyz
 1  'x, y, z'
loop_
 _atom_site_type_symbol
 _atom_site_label
 _atom_site_symmetry_multiplicity
 _atom_site_fract_x
 _atom_site_fract_y
 _atom_site_fract_z
 _atom_site_fract_occupancy
 Mg  Mg1  1  0.88942  0.77883  0.75000  1
 Mg  Mg2  1  0.11059  0.22117  0.25000  1
 O  O1  1  0.69775  0.39550  0.25000  1
 O  O2  1  0.30225  0.60450  0.75000  1
 O  O3  1  0.23759  0.47518  0.07707  1
 O  O4  1  0.76241  0.52483  0.92293  1
 O  O5  1  0.76241  0.52483  0.57707  1
 O  O6  1  0.23759  0.47518  0.42293  1
 O  O7  1  0.03879  0.07758  0.62659  1
 O  O8  1  0.96121  0.92242  0.37341  1
 O  O9  1  0.03879  0.07758  0.87341  1
 O  O10  1  0.96121  0.92242  0.12659  1
 V  V1  1  0.19919  0.39837  0.59752  1
 V  V2  1  0.80081  0.60163  0.40248  1
 V  V3  1  0.80081  0.60163  0.09752  1
 V  V4  1  0.19919  0.39837  0.90248  1
