CIF file written using JARVIS-Tools package.
data_CuCl2
_symmetry_space_group_name_H-M  'C2/m'
_cell_length_a       3.31156
_cell_length_b       3.82545
_cell_length_c       5.83806
_cell_angle_alpha    83.3653
_cell_angle_beta     73.5237
_cell_angle_gamma    64.3525

_symmetry_Int_Tables_number  12
_chemical_formula_structural  CuCl2
_chemical_formula_sum  CuCl2
_cell_volume  63.93122697590085
_cell_formula_units_Z  1
loop_
  _symmetry_equiv_pos_site_id
 _symmetry_equiv_pos_as_xyz
 1  'x, y, z'
loop_
 _atom_site_type_symbol
 _atom_site_label
 _atom_site_symmetry_multiplicity
 _atom_site_fract_x
 _atom_site_fract_y
 _atom_site_fract_z
 _atom_site_fract_occupancy
 Cl  Cl1  1  0.26216  0.22996  0.24571  1
 Cl  Cl2  1  0.73784  0.77004  0.75429  1
 Cu  Cu1  1  0.00000  0.00000  0.00000  1
