CIF file written using JARVIS-Tools package.
data_UV2O6
_symmetry_space_group_name_H-M  'P-31m'
_cell_length_a       4.99832
_cell_length_b       4.99832
_cell_length_c       4.82381
_cell_angle_alpha    90
_cell_angle_beta     90
_cell_angle_gamma    120

_symmetry_Int_Tables_number  162
_chemical_formula_structural  UV2O6
_chemical_formula_sum  UV2O6
_cell_volume  104.36836922094591
_cell_formula_units_Z  1
loop_
  _symmetry_equiv_pos_site_id
 _symmetry_equiv_pos_as_xyz
 1  'x, y, z'
loop_
 _atom_site_type_symbol
 _atom_site_label
 _atom_site_symmetry_multiplicity
 _atom_site_fract_x
 _atom_site_fract_y
 _atom_site_fract_z
 _atom_site_fract_occupancy
 O  O1  1  0.65354  0.65354  0.27181  1
 O  O2  1  0.00000  0.34646  0.27181  1
 O  O3  1  0.34646  0.00000  0.27181  1
 O  O4  1  -0.00000  0.65354  0.72819  1
 O  O5  1  0.34646  0.34646  0.72819  1
 O  O6  1  0.65354  -0.00000  0.72819  1
 U  U1  1  0.00000  0.00000  0.00000  1
 V  V1  1  0.66667  0.33333  0.50000  1
 V  V2  1  0.33333  0.66667  0.50000  1
