CIF file written using JARVIS-Tools package.
data_LiMn2NiO6
_symmetry_space_group_name_H-M  'C2/m'
_cell_length_a       2.89544
_cell_length_b       5.77396
_cell_length_c       6.37359
_cell_angle_alpha    103.551
_cell_angle_beta     103.135
_cell_angle_gamma    89.9005

_symmetry_Int_Tables_number  12
_chemical_formula_structural  LiMn2NiO6
_chemical_formula_sum  LiMn2NiO6
_cell_volume  100.72886815773737
_cell_formula_units_Z  1
loop_
  _symmetry_equiv_pos_site_id
 _symmetry_equiv_pos_as_xyz
 1  'x, y, z'
loop_
 _atom_site_type_symbol
 _atom_site_label
 _atom_site_symmetry_multiplicity
 _atom_site_fract_x
 _atom_site_fract_y
 _atom_site_fract_z
 _atom_site_fract_occupancy
 Li  Li1  1  0.50000  -0.00000  0.50000  1
 Mn  Mn1  1  0.16993  0.82003  0.83849  1
 Mn  Mn2  1  0.83007  0.17997  0.16151  1
 Ni  Ni1  1  0.50000  0.50000  0.50000  1
 O  O1  1  0.98367  0.25958  0.46999  1
 O  O2  1  0.32776  0.95256  0.15524  1
 O  O3  1  0.01633  0.74042  0.53001  1
 O  O4  1  0.34214  0.40028  0.18637  1
 O  O5  1  0.67224  0.04744  0.84476  1
 O  O6  1  0.65786  0.59972  0.81363  1
