CIF file written using JARVIS-Tools package.
data_LiV2O5
_symmetry_space_group_name_H-M  'Cmcm'
_cell_length_a       3.61691
_cell_length_b       5.2598
_cell_length_c       11.3219
_cell_angle_alpha    90
_cell_angle_beta     90
_cell_angle_gamma    110.11

_symmetry_Int_Tables_number  63
_chemical_formula_structural  LiV2O5
_chemical_formula_sum  Li2V4O0
_cell_volume  202.25923784447457
_cell_formula_units_Z  2
loop_
  _symmetry_equiv_pos_site_id
 _symmetry_equiv_pos_as_xyz
 1  'x, y, z'
loop_
 _atom_site_type_symbol
 _atom_site_label
 _atom_site_symmetry_multiplicity
 _atom_site_fract_x
 _atom_site_fract_y
 _atom_site_fract_z
 _atom_site_fract_occupancy
 Li  Li1  1  0.89912  0.79825  0.75000  1
 Li  Li2  1  0.10088  0.20175  0.25000  1
 O  O1  1  0.95814  0.91627  0.12622  1
 O  O2  1  0.71520  0.43040  0.25000  1
 O  O3  1  0.28480  0.56960  0.75000  1
 O  O4  1  0.24169  0.48338  0.07128  1
 O  O5  1  0.04186  0.08373  0.62622  1
 O  O6  1  0.95814  0.91627  0.37378  1
 O  O7  1  0.75831  0.51662  0.92872  1
 O  O8  1  0.75831  0.51662  0.57128  1
 O  O9  1  0.24169  0.48338  0.42872  1
 O  O10  1  0.04186  0.08373  0.87378  1
 V  V1  1  0.20416  0.40832  0.60158  1
 V  V2  1  0.20416  0.40832  0.89842  1
 V  V3  1  0.79584  0.59168  0.10158  1
 V  V4  1  0.79584  0.59168  0.39842  1
