CIF file written using JARVIS-Tools package.
data_Ca3FeRhO6
_symmetry_space_group_name_H-M  'R-3c'
_cell_length_a       6.41241
_cell_length_b       6.41241
_cell_length_c       6.41241
_cell_angle_alpha    91.611
_cell_angle_beta     91.611
_cell_angle_gamma    91.6109

_symmetry_Int_Tables_number  167
_chemical_formula_structural  Ca3FeRhO6
_chemical_formula_sum  Ca6Fe2Rh2O2
_cell_volume  263.35326789296454
_cell_formula_units_Z  2
loop_
  _symmetry_equiv_pos_site_id
 _symmetry_equiv_pos_as_xyz
 1  'x, y, z'
loop_
 _atom_site_type_symbol
 _atom_site_label
 _atom_site_symmetry_multiplicity
 _atom_site_fract_x
 _atom_site_fract_y
 _atom_site_fract_z
 _atom_site_fract_occupancy
 Ca  Ca1  1  0.75000  0.38116  0.11884  1
 Ca  Ca2  1  0.11884  0.75000  0.38116  1
 Ca  Ca3  1  0.38116  0.11884  0.75000  1
 Ca  Ca4  1  0.88116  0.25000  0.61884  1
 Ca  Ca5  1  0.25000  0.61884  0.88116  1
 Ca  Ca6  1  0.61884  0.88116  0.25000  1
 Fe  Fe1  1  0.75000  0.75000  0.75000  1
 Fe  Fe2  1  0.25000  0.25000  0.25000  1
 O  O1  1  0.59749  0.46048  0.79941  1
 O  O2  1  0.46048  0.79941  0.59749  1
 O  O3  1  0.03952  0.90251  0.70059  1
 O  O4  1  0.90251  0.70059  0.03952  1
 O  O5  1  0.70059  0.03952  0.90251  1
 O  O6  1  0.20059  0.40251  0.53952  1
 O  O7  1  0.09749  0.29941  0.96048  1
 O  O8  1  0.53952  0.20059  0.40251  1
 O  O9  1  0.79941  0.59749  0.46048  1
 O  O10  1  0.96048  0.09749  0.29941  1
 O  O11  1  0.40251  0.53952  0.20059  1
 O  O12  1  0.29941  0.96048  0.09749  1
 Rh  Rh1  1  0.00000  0.00000  0.00000  1
 Rh  Rh2  1  0.50000  0.50000  0.50000  1
