CIF file written using JARVIS-Tools package.
data_SrC2
_symmetry_space_group_name_H-M  'C2/c'
_cell_length_a       4.15212
_cell_length_b       4.15213
_cell_length_c       7.71856
_cell_angle_alpha    75.5279
_cell_angle_beta     75.5279
_cell_angle_gamma    64.6496

_symmetry_Int_Tables_number  15
_chemical_formula_structural  SrC2
_chemical_formula_sum  Sr2C4
_cell_volume  114.87632447702379
_cell_formula_units_Z  2
loop_
  _symmetry_equiv_pos_site_id
 _symmetry_equiv_pos_as_xyz
 1  'x, y, z'
loop_
 _atom_site_type_symbol
 _atom_site_label
 _atom_site_symmetry_multiplicity
 _atom_site_fract_x
 _atom_site_fract_y
 _atom_site_fract_z
 _atom_site_fract_occupancy
 C  C1  1  0.13329  0.42425  0.44352  1
 C  C2  1  0.57575  0.86671  0.05648  1
 C  C3  1  0.42425  0.13329  0.94352  1
 C  C4  1  0.86671  0.57575  0.55648  1
 Sr  Sr1  1  0.82195  0.17805  0.25000  1
 Sr  Sr2  1  0.17805  0.82195  0.75000  1
