CIF file written using JARVIS-Tools package.
data_Er2Zr2O7
_symmetry_space_group_name_H-M  'Fd-3m'
_cell_length_a       7.40488
_cell_length_b       7.40488
_cell_length_c       7.40487
_cell_angle_alpha    120
_cell_angle_beta     60
_cell_angle_gamma    120

_symmetry_Int_Tables_number  227
_chemical_formula_structural  Er2Zr2O7
_chemical_formula_sum  Er4Zr4O4
_cell_volume  287.1032119401204
_cell_formula_units_Z  2
loop_
  _symmetry_equiv_pos_site_id
 _symmetry_equiv_pos_as_xyz
 1  'x, y, z'
loop_
 _atom_site_type_symbol
 _atom_site_label
 _atom_site_symmetry_multiplicity
 _atom_site_fract_x
 _atom_site_fract_y
 _atom_site_fract_z
 _atom_site_fract_occupancy
 Er  Er1  1  0.00000  -0.00000  0.50000  1
 Er  Er2  1  0.50000  -0.00000  0.50000  1
 Er  Er3  1  0.50000  -0.00000  0.00000  1
 Er  Er4  1  0.50000  0.50000  0.50000  1
 O  O1  1  0.34246  0.15754  0.90754  1
 O  O2  1  0.37500  0.12500  0.37500  1
 O  O3  1  0.65754  0.84246  0.09246  1
 O  O4  1  0.34246  0.59246  0.90754  1
 O  O5  1  0.34246  0.59246  0.34246  1
 O  O6  1  0.09246  0.40754  0.65754  1
 O  O7  1  0.09246  0.84246  0.09246  1
 O  O8  1  0.90754  0.15754  0.34246  1
 O  O9  1  0.65754  0.40754  0.65754  1
 O  O10  1  0.09246  0.84246  0.65754  1
 O  O11  1  0.65754  0.40754  0.09246  1
 O  O12  1  0.90754  0.59246  0.34246  1
 O  O13  1  0.90754  0.15754  0.90754  1
 O  O14  1  0.62500  0.87500  0.62500  1
 Zr  Zr1  1  0.50000  0.50000  0.00000  1
 Zr  Zr2  1  -0.00000  0.50000  0.00000  1
 Zr  Zr3  1  0.00000  0.50000  0.50000  1
 Zr  Zr4  1  0.00000  0.00000  0.00000  1
