CIF file written using JARVIS-Tools package.
data_BaCdSb2
_symmetry_space_group_name_H-M  'I4/mmm'
_cell_length_a       4.61106
_cell_length_b       4.61106
_cell_length_c       12.6381
_cell_angle_alpha    100.511
_cell_angle_beta     100.511
_cell_angle_gamma    90

_symmetry_Int_Tables_number  139
_chemical_formula_structural  BaCdSb2
_chemical_formula_sum  Ba2Cd2Sb4
_cell_volume  259.6142979382893
_cell_formula_units_Z  2
loop_
  _symmetry_equiv_pos_site_id
 _symmetry_equiv_pos_as_xyz
 1  'x, y, z'
loop_
 _atom_site_type_symbol
 _atom_site_label
 _atom_site_symmetry_multiplicity
 _atom_site_fract_x
 _atom_site_fract_y
 _atom_site_fract_z
 _atom_site_fract_occupancy
 Ba  Ba1  1  0.88708  0.88708  0.77415  1
 Ba  Ba2  1  0.11292  0.11292  0.22585  1
 Cd  Cd1  1  0.75000  0.25000  0.50000  1
 Cd  Cd2  1  0.25000  0.75000  0.50000  1
 Sb  Sb1  1  0.67325  0.67325  0.34650  1
 Sb  Sb2  1  0.32675  0.32675  0.65350  1
 Sb  Sb3  1  0.50000  -0.00000  -0.00000  1
 Sb  Sb4  1  -0.00000  0.50000  -0.00000  1
