CIF file written using JARVIS-Tools package.
data_LaMnO3
_symmetry_space_group_name_H-M  'C2/c'
_cell_length_a       5.49782
_cell_length_b       5.58778
_cell_length_c       5.58778
_cell_angle_alpha    59.9652
_cell_angle_beta     59.4905
_cell_angle_gamma    59.4905

_symmetry_Int_Tables_number  15
_chemical_formula_structural  LaMnO3
_chemical_formula_sum  La2Mn2O6
_cell_volume  120.40762835471071
_cell_formula_units_Z  2
loop_
  _symmetry_equiv_pos_site_id
 _symmetry_equiv_pos_as_xyz
 1  'x, y, z'
loop_
 _atom_site_type_symbol
 _atom_site_label
 _atom_site_symmetry_multiplicity
 _atom_site_fract_x
 _atom_site_fract_y
 _atom_site_fract_z
 _atom_site_fract_occupancy
 La  La1  1  0.75000  0.75082  0.74918  1
 La  La2  1  0.25000  0.24918  0.25082  1
 Mn  Mn1  1  0.50000  0.50000  0.50000  1
 Mn  Mn2  1  0.00000  0.00000  0.00000  1
 O  O1  1  0.24654  0.68533  0.25354  1
 O  O2  1  0.25346  0.24646  0.81467  1
 O  O3  1  0.75346  0.31467  0.74646  1
 O  O4  1  0.74654  0.75354  0.18533  1
 O  O5  1  0.25000  0.81204  0.68796  1
 O  O6  1  0.75000  0.18796  0.31204  1
