CIF file written using JARVIS-Tools package.
data_Li3MnV3O8
_symmetry_space_group_name_H-M  'R-3m'
_cell_length_a       5.78829
_cell_length_b       5.78829
_cell_length_c       5.75902
_cell_angle_alpha    59.829
_cell_angle_beta     59.8291
_cell_angle_gamma    59.999

_symmetry_Int_Tables_number  166
_chemical_formula_structural  Li3MnV3O8
_chemical_formula_sum  Li3MnV3O8
_cell_volume  136.08284896523617
_cell_formula_units_Z  1
loop_
  _symmetry_equiv_pos_site_id
 _symmetry_equiv_pos_as_xyz
 1  'x, y, z'
loop_
 _atom_site_type_symbol
 _atom_site_label
 _atom_site_symmetry_multiplicity
 _atom_site_fract_x
 _atom_site_fract_y
 _atom_site_fract_z
 _atom_site_fract_occupancy
 Li  Li1  1  0.50000  1.00000  0.50000  1
 Li  Li2  1  1.00000  0.50000  0.50000  1
 Li  Li3  1  -0.00000  -0.00000  0.50001  1
 Mn  Mn1  1  0.50001  0.50001  0.49998  1
 O  O1  1  0.73965  0.73965  0.24759  1
 O  O2  1  0.73965  0.27310  0.24759  1
 O  O3  1  0.27310  0.73965  0.24759  1
 O  O4  1  0.25369  0.25369  0.23893  1
 O  O5  1  0.74631  0.74631  0.76108  1
 O  O6  1  0.72689  0.26036  0.75240  1
 O  O7  1  0.26036  0.72689  0.75240  1
 O  O8  1  0.26036  0.26036  0.75240  1
 V  V1  1  0.50000  0.50000  0.00000  1
 V  V2  1  0.49999  0.00000  0.00000  1
 V  V3  1  0.00000  0.49999  0.00000  1
