CIF file written using JARVIS-Tools package.
data_Tl2NiC4N4
_symmetry_space_group_name_H-M  'P2_1/c'
_cell_length_a       6.19219
_cell_length_b       7.13488
_cell_length_c       9.36427
_cell_angle_alpha    90
_cell_angle_beta     104.871
_cell_angle_gamma    90

_symmetry_Int_Tables_number  14
_chemical_formula_structural  Tl2NiC4N4
_chemical_formula_sum  Tl4Ni2C8N8
_cell_volume  399.8599645053496
_cell_formula_units_Z  2
loop_
  _symmetry_equiv_pos_site_id
 _symmetry_equiv_pos_as_xyz
 1  'x, y, z'
loop_
 _atom_site_type_symbol
 _atom_site_label
 _atom_site_symmetry_multiplicity
 _atom_site_fract_x
 _atom_site_fract_y
 _atom_site_fract_z
 _atom_site_fract_occupancy
 C  C1  1  0.81428  0.49975  0.81001  1
 C  C2  1  0.80421  0.34229  0.06106  1
 C  C3  1  0.68572  0.99975  0.68999  1
 C  C4  1  0.19579  0.65771  0.93894  1
 C  C5  1  0.31428  0.00025  0.31001  1
 C  C6  1  0.18572  0.50025  0.18999  1
 C  C7  1  0.30421  0.15771  0.56106  1
 C  C8  1  0.69579  0.84229  0.43894  1
 N  N1  1  0.31652  0.75982  0.89838  1
 N  N2  1  0.80223  0.99907  0.81035  1
 N  N3  1  0.30223  0.50093  0.31035  1
 N  N4  1  0.81652  0.74018  0.39838  1
 N  N5  1  0.69777  0.49907  0.68965  1
 N  N6  1  0.68348  0.24018  0.10162  1
 N  N7  1  0.18348  0.25982  0.60162  1
 N  N8  1  0.19777  0.00093  0.18965  1
 Ni  Ni1  1  0.50000  0.00000  0.50000  1
 Ni  Ni2  1  0.00000  0.50000  0.00000  1
 Tl  Tl1  1  0.27139  0.65787  0.58153  1
 Tl  Tl2  1  0.77139  0.84213  0.08153  1
 Tl  Tl3  1  0.22861  0.15787  0.91847  1
 Tl  Tl4  1  0.72861  0.34213  0.41847  1
