CIF file written using JARVIS-Tools package.
data_K2RbPt
_symmetry_space_group_name_H-M  'P4/mbm'
_cell_length_a       5.35421
_cell_length_b       7.48253
_cell_length_c       7.48253
_cell_angle_alpha    90
_cell_angle_beta     90
_cell_angle_gamma    90

_symmetry_Int_Tables_number  127
_chemical_formula_structural  K2RbPt
_chemical_formula_sum  K4Rb2Pt2
_cell_volume  299.7730218864943
_cell_formula_units_Z  2
loop_
  _symmetry_equiv_pos_site_id
 _symmetry_equiv_pos_as_xyz
 1  'x, y, z'
loop_
 _atom_site_type_symbol
 _atom_site_label
 _atom_site_symmetry_multiplicity
 _atom_site_fract_x
 _atom_site_fract_y
 _atom_site_fract_z
 _atom_site_fract_occupancy
 K  K1  1  0.50000  0.67767  0.17767  1
 K  K2  1  0.50000  0.32233  0.82233  1
 K  K3  1  0.50000  0.82233  0.67767  1
 K  K4  1  0.50000  0.17767  0.32233  1
 Pt  Pt1  1  0.00000  0.00000  0.50000  1
 Pt  Pt2  1  0.00000  0.50000  0.00000  1
 Rb  Rb1  1  0.00000  0.50000  0.50000  1
 Rb  Rb2  1  0.00000  0.00000  0.00000  1
