CIF file written using JARVIS-Tools package.
data_UCdO4
_symmetry_space_group_name_H-M  'R-3m'
_cell_length_a       6.42093
_cell_length_b       6.42093
_cell_length_c       6.42093
_cell_angle_alpha    34.8558
_cell_angle_beta     34.8558
_cell_angle_gamma    34.8558

_symmetry_Int_Tables_number  166
_chemical_formula_structural  UCdO4
_chemical_formula_sum  UCdO4
_cell_volume  77.18488464078384
_cell_formula_units_Z  1
loop_
  _symmetry_equiv_pos_site_id
 _symmetry_equiv_pos_as_xyz
 1  'x, y, z'
loop_
 _atom_site_type_symbol
 _atom_site_label
 _atom_site_symmetry_multiplicity
 _atom_site_fract_x
 _atom_site_fract_y
 _atom_site_fract_z
 _atom_site_fract_occupancy
 Cd  Cd1  1  0.50000  0.50000  0.50000  1
 O  O1  1  0.63898  0.63898  0.63898  1
 O  O2  1  0.36102  0.36102  0.36102  1
 O  O3  1  0.11229  0.11229  0.11229  1
 O  O4  1  0.88771  0.88771  0.88771  1
 U  U1  1  0.00000  0.00000  0.00000  1
