CIF file written using JARVIS-Tools package.
data_FeS
_symmetry_space_group_name_H-M  'Pnma'
_cell_length_a       3.32809
_cell_length_b       5.20438
_cell_length_c       5.59658
_cell_angle_alpha    90
_cell_angle_beta     90
_cell_angle_gamma    90

_symmetry_Int_Tables_number  62
_chemical_formula_structural  FeS
_chemical_formula_sum  Fe4S4
_cell_volume  96.93634085749107
_cell_formula_units_Z  4
loop_
  _symmetry_equiv_pos_site_id
 _symmetry_equiv_pos_as_xyz
 1  'x, y, z'
loop_
 _atom_site_type_symbol
 _atom_site_label
 _atom_site_symmetry_multiplicity
 _atom_site_fract_x
 _atom_site_fract_y
 _atom_site_fract_z
 _atom_site_fract_occupancy
 Fe  Fe1  1  0.75000  0.98459  0.20673  1
 Fe  Fe2  1  0.25000  0.01541  0.79327  1
 Fe  Fe3  1  0.75000  0.48459  0.29327  1
 Fe  Fe4  1  0.25000  0.51541  0.70673  1
 S  S1  1  0.75000  0.78156  0.58227  1
 S  S2  1  0.25000  0.21844  0.41773  1
 S  S3  1  0.75000  0.28156  0.91773  1
 S  S4  1  0.25000  0.71844  0.08227  1
