data_image0
_chemical_formula_structural       Li96Si56
_chemical_formula_sum              "Li96 Si56"
_cell_length_a       8.30546
_cell_length_b       19.1341
_cell_length_c       13.9556
_cell_angle_alpha    90
_cell_angle_beta     90
_cell_angle_gamma    90

_space_group_name_H-M_alt    "P 1"
_space_group_IT_number       1

loop_
  _space_group_symop_operation_xyz
  'x, y, z'

loop_
  _atom_site_type_symbol
  _atom_site_label
  _atom_site_symmetry_multiplicity
  _atom_site_fract_x
  _atom_site_fract_y
  _atom_site_fract_z
  _atom_site_occupancy
  Li  Li1       1.0  0.15600  0.11400  0.50500  1.0000
  Li  Li2       1.0  0.34400  0.88600  0.00534  1.0000
  Li  Li3       1.0  0.65600  0.38600  0.99500  1.0000
  Li  Li4       1.0  0.84400  0.61400  0.49500  1.0000
  Li  Li5       1.0  0.84400  0.88600  0.49500  1.0000
  Li  Li6       1.0  0.65600  0.11400  0.99500  1.0000
  Li  Li7       1.0  0.34400  0.61400  0.00534  1.0000
  Li  Li8       1.0  0.15600  0.38600  0.50500  1.0000
  Li  Li9       1.0  0.49900  0.12600  0.52900  1.0000
  Li  Li10      1.0  0.00056  0.87400  0.02930  1.0000
  Li  Li11      1.0  0.99900  0.37400  0.97100  1.0000
  Li  Li12      1.0  0.50100  0.62600  0.47100  1.0000
  Li  Li13      1.0  0.50100  0.87400  0.47100  1.0000
  Li  Li14      1.0  0.99900  0.12600  0.97100  1.0000
  Li  Li15      1.0  0.00056  0.62600  0.02930  1.0000
  Li  Li16      1.0  0.49900  0.37400  0.52900  1.0000
  Li  Li17      1.0  0.12900  0.31100  0.83500  1.0000
  Li  Li18      1.0  0.37100  0.68900  0.33500  1.0000
  Li  Li19      1.0  0.62900  0.18900  0.66500  1.0000
  Li  Li20      1.0  0.87100  0.81100  0.16500  1.0000
  Li  Li21      1.0  0.87100  0.68900  0.16500  1.0000
  Li  Li22      1.0  0.62900  0.31100  0.66500  1.0000
  Li  Li23      1.0  0.37100  0.81100  0.33500  1.0000
  Li  Li24      1.0  0.12900  0.18900  0.83500  1.0000
  Li  Li25      1.0  0.38700  0.81300  0.15700  1.0000
  Li  Li26      1.0  0.11300  0.18700  0.65700  1.0000
  Li  Li27      1.0  0.88700  0.68700  0.34300  1.0000
  Li  Li28      1.0  0.61300  0.31300  0.84300  1.0000
  Li  Li29      1.0  0.61300  0.18700  0.84300  1.0000
  Li  Li30      1.0  0.88700  0.81300  0.34300  1.0000
  Li  Li31      1.0  0.11300  0.31300  0.65700  1.0000
  Li  Li32      1.0  0.38700  0.68700  0.15700  1.0000
  Li  Li33      1.0  0.62700  0.97700  0.06470  1.0000
  Li  Li34      1.0  0.87300  0.02320  0.56500  1.0000
  Li  Li35      1.0  0.12700  0.52300  0.43500  1.0000
  Li  Li36      1.0  0.37300  0.47700  0.93500  1.0000
  Li  Li37      1.0  0.37300  0.02320  0.93500  1.0000
  Li  Li38      1.0  0.12700  0.97700  0.43500  1.0000
  Li  Li39      1.0  0.87300  0.47700  0.56500  1.0000
  Li  Li40      1.0  0.62700  0.52300  0.06470  1.0000
  Li  Li41      1.0  0.37100  0.11200  0.73900  1.0000
  Li  Li42      1.0  0.12900  0.88800  0.23900  1.0000
  Li  Li43      1.0  0.87100  0.38800  0.76100  1.0000
  Li  Li44      1.0  0.62900  0.61200  0.26100  1.0000
  Li  Li45      1.0  0.62900  0.88800  0.26100  1.0000
  Li  Li46      1.0  0.87100  0.11200  0.76100  1.0000
  Li  Li47      1.0  0.12900  0.61200  0.23900  1.0000
  Li  Li48      1.0  0.37100  0.38800  0.73900  1.0000
  Li  Li49      1.0  0.63200  0.99600  0.43600  1.0000
  Li  Li50      1.0  0.86800  0.00365  0.93600  1.0000
  Li  Li51      1.0  0.13200  0.50400  0.06410  1.0000
  Li  Li52      1.0  0.36800  0.49600  0.56400  1.0000
  Li  Li53      1.0  0.36800  0.00365  0.56400  1.0000
  Li  Li54      1.0  0.13200  0.99600  0.06410  1.0000
  Li  Li55      1.0  0.86800  0.49600  0.93600  1.0000
  Li  Li56      1.0  0.63200  0.50400  0.43600  1.0000
  Li  Li57      1.0  0.62800  0.14800  0.36300  1.0000
  Li  Li58      1.0  0.87200  0.85200  0.86300  1.0000
  Li  Li59      1.0  0.12800  0.35200  0.13700  1.0000
  Li  Li60      1.0  0.37200  0.64800  0.63700  1.0000
  Li  Li61      1.0  0.37200  0.85200  0.63700  1.0000
  Li  Li62      1.0  0.12800  0.14800  0.13700  1.0000
  Li  Li63      1.0  0.87200  0.64800  0.86300  1.0000
  Li  Li64      1.0  0.62800  0.35200  0.36300  1.0000
  Li  Li65      1.0  0.35100  0.25000  0.15000  1.0000
  Li  Li66      1.0  0.14900  0.75000  0.65000  1.0000
  Li  Li67      1.0  0.85100  0.25000  0.35000  1.0000
  Li  Li68      1.0  0.64900  0.75000  0.85000  1.0000
  Li  Li69      1.0  0.38500  0.25000  0.36700  1.0000
  Li  Li70      1.0  0.11500  0.75000  0.86700  1.0000
  Li  Li71      1.0  0.88500  0.25000  0.13300  1.0000
  Li  Li72      1.0  0.61500  0.75000  0.63300  1.0000
  Li  Li73      1.0  0.12400  0.16600  0.34200  1.0000
  Li  Li74      1.0  0.37600  0.83400  0.84200  1.0000
  Li  Li75      1.0  0.62400  0.33400  0.15800  1.0000
  Li  Li76      1.0  0.87600  0.66600  0.65800  1.0000
  Li  Li77      1.0  0.87600  0.83400  0.65800  1.0000
  Li  Li78      1.0  0.62400  0.16600  0.15800  1.0000
  Li  Li79      1.0  0.37600  0.66600  0.84200  1.0000
  Li  Li80      1.0  0.12400  0.33400  0.34200  1.0000
  Li  Li81      1.0  0.12600  0.03330  0.25400  1.0000
  Li  Li82      1.0  0.37400  0.96700  0.75400  1.0000
  Li  Li83      1.0  0.62600  0.46700  0.24600  1.0000
  Li  Li84      1.0  0.87400  0.53300  0.74600  1.0000
  Li  Li85      1.0  0.87400  0.96700  0.74600  1.0000
  Li  Li86      1.0  0.62600  0.03330  0.24600  1.0000
  Li  Li87      1.0  0.37400  0.53300  0.75400  1.0000
  Li  Li88      1.0  0.12600  0.46700  0.25400  1.0000
  Li  Li89      1.0  0.85700  0.33400  0.53800  1.0000
  Li  Li90      1.0  0.64300  0.66600  0.03840  1.0000
  Li  Li91      1.0  0.35700  0.16600  0.96200  1.0000
  Li  Li92      1.0  0.14300  0.83400  0.46200  1.0000
  Li  Li93      1.0  0.14300  0.66600  0.46200  1.0000
  Li  Li94      1.0  0.35700  0.33400  0.96200  1.0000
  Li  Li95      1.0  0.64300  0.83400  0.03840  1.0000
  Li  Li96      1.0  0.85700  0.16600  0.53800  1.0000
  Si  Si1       1.0  0.11200  0.25000  0.49000  1.0000
  Si  Si2       1.0  0.38800  0.75000  0.99000  1.0000
  Si  Si3       1.0  0.61200  0.25000  0.00983  1.0000
  Si  Si4       1.0  0.88800  0.75000  0.51000  1.0000
  Si  Si5       1.0  0.37000  0.25000  0.74300  1.0000
  Si  Si6       1.0  0.13000  0.75000  0.24300  1.0000
  Si  Si7       1.0  0.87000  0.25000  0.75700  1.0000
  Si  Si8       1.0  0.63000  0.75000  0.25700  1.0000
  Si  Si9       1.0  0.36500  0.25000  0.57100  1.0000
  Si  Si10      1.0  0.13500  0.75000  0.07130  1.0000
  Si  Si11      1.0  0.86500  0.25000  0.92900  1.0000
  Si  Si12      1.0  0.63500  0.75000  0.42900  1.0000
  Si  Si13      1.0  0.87900  0.55000  0.33500  1.0000
  Si  Si14      1.0  0.62100  0.45000  0.83500  1.0000
  Si  Si15      1.0  0.37900  0.95000  0.16500  1.0000
  Si  Si16      1.0  0.12100  0.05030  0.66500  1.0000
  Si  Si17      1.0  0.12100  0.45000  0.66500  1.0000
  Si  Si18      1.0  0.37900  0.55000  0.16500  1.0000
  Si  Si19      1.0  0.62100  0.05030  0.83500  1.0000
  Si  Si20      1.0  0.87900  0.95000  0.33500  1.0000
  Si  Si21      1.0  0.89200  0.43300  0.38900  1.0000
  Si  Si22      1.0  0.60800  0.56700  0.88900  1.0000
  Si  Si23      1.0  0.39200  0.06740  0.11100  1.0000
  Si  Si24      1.0  0.10800  0.93300  0.61100  1.0000
  Si  Si25      1.0  0.10800  0.56700  0.61100  1.0000
  Si  Si26      1.0  0.39200  0.43300  0.11100  1.0000
  Si  Si27      1.0  0.60800  0.93300  0.88900  1.0000
  Si  Si28      1.0  0.89200  0.06740  0.38900  1.0000
  Si  Si29      1.0  0.87600  0.36400  0.24900  1.0000
  Si  Si30      1.0  0.62400  0.63600  0.74900  1.0000
  Si  Si31      1.0  0.37600  0.13600  0.25100  1.0000
  Si  Si32      1.0  0.12400  0.86400  0.75100  1.0000
  Si  Si33      1.0  0.12400  0.63600  0.75100  1.0000
  Si  Si34      1.0  0.37600  0.36400  0.25100  1.0000
  Si  Si35      1.0  0.62400  0.86400  0.74900  1.0000
  Si  Si36      1.0  0.87600  0.13600  0.24900  1.0000
  Si  Si37      1.0  0.61900  0.25000  0.49400  1.0000
  Si  Si38      1.0  0.88100  0.75000  0.99400  1.0000
  Si  Si39      1.0  0.11900  0.25000  0.00567  1.0000
  Si  Si40      1.0  0.38100  0.75000  0.50600  1.0000
  Si  Si41      1.0  0.86900  0.43700  0.11400  1.0000
  Si  Si42      1.0  0.63100  0.56300  0.61400  1.0000
  Si  Si43      1.0  0.36900  0.06340  0.38600  1.0000
  Si  Si44      1.0  0.13100  0.93700  0.88600  1.0000
  Si  Si45      1.0  0.13100  0.56300  0.88600  1.0000
  Si  Si46      1.0  0.36900  0.43700  0.38600  1.0000
  Si  Si47      1.0  0.63100  0.93700  0.61400  1.0000
  Si  Si48      1.0  0.86900  0.06340  0.11400  1.0000
  Si  Si49      1.0  0.87600  0.55300  0.16700  1.0000
  Si  Si50      1.0  0.62400  0.44700  0.66700  1.0000
  Si  Si51      1.0  0.37600  0.94700  0.33300  1.0000
  Si  Si52      1.0  0.12400  0.05320  0.83300  1.0000
  Si  Si53      1.0  0.12400  0.44700  0.83300  1.0000
  Si  Si54      1.0  0.37600  0.55300  0.33300  1.0000
  Si  Si55      1.0  0.62400  0.05320  0.66700  1.0000
  Si  Si56      1.0  0.87600  0.94700  0.16700  1.0000
