CIF file written using JARVIS-Tools package.
data_ZnNi2O4
_symmetry_space_group_name_H-M  'Imma'
_cell_length_a       5.85192
_cell_length_b       5.85193
_cell_length_c       5.81386
_cell_angle_alpha    60.2149
_cell_angle_beta     60.215
_cell_angle_gamma    60.3369

_symmetry_Int_Tables_number  74
_chemical_formula_structural  ZnNi2O4
_chemical_formula_sum  Zn2Ni4O8
_cell_volume  141.59584305129684
_cell_formula_units_Z  2
loop_
  _symmetry_equiv_pos_site_id
 _symmetry_equiv_pos_as_xyz
 1  'x, y, z'
loop_
 _atom_site_type_symbol
 _atom_site_label
 _atom_site_symmetry_multiplicity
 _atom_site_fract_x
 _atom_site_fract_y
 _atom_site_fract_z
 _atom_site_fract_occupancy
 Ni  Ni1  1  0.99673  0.99673  0.00327  1
 Ni  Ni2  1  0.25327  0.25327  0.24673  1
 Ni  Ni3  1  0.62500  0.62500  0.12500  1
 Ni  Ni4  1  0.62500  0.62500  0.62500  1
 O  O1  1  0.39371  0.39371  0.36507  1
 O  O2  1  0.40600  0.85727  0.36837  1
 O  O3  1  0.39371  0.39371  0.84750  1
 O  O4  1  0.85727  0.40600  0.36837  1
 O  O5  1  0.39273  0.84400  0.88163  1
 O  O6  1  0.84400  0.39273  0.88163  1
 O  O7  1  0.85629  0.85629  0.40250  1
 O  O8  1  0.85629  0.85629  0.88493  1
 Zn  Zn1  1  0.12500  0.62500  0.62500  1
 Zn  Zn2  1  0.62500  0.12500  0.62500  1
