CIF file written using JARVIS-Tools package.
data_Li2CuSiO4
_symmetry_space_group_name_H-M  'Pmn2_1'
_cell_length_a       4.90359
_cell_length_b       6.28769
_cell_length_c       5.27507
_cell_angle_alpha    90
_cell_angle_beta     90.0002
_cell_angle_gamma    90

_symmetry_Int_Tables_number  31
_chemical_formula_structural  Li2CuSiO4
_chemical_formula_sum  Li4Cu2Si2O8
_cell_volume  162.64247466209042
_cell_formula_units_Z  2
loop_
  _symmetry_equiv_pos_site_id
 _symmetry_equiv_pos_as_xyz
 1  'x, y, z'
loop_
 _atom_site_type_symbol
 _atom_site_label
 _atom_site_symmetry_multiplicity
 _atom_site_fract_x
 _atom_site_fract_y
 _atom_site_fract_z
 _atom_site_fract_occupancy
 Cu  Cu1  1  0.01679  0.00000  0.81024  1
 Cu  Cu2  1  0.51679  0.50000  0.18976  1
 Li  Li1  1  0.00595  0.24937  0.33010  1
 Li  Li2  1  0.50595  0.25063  0.66990  1
 Li  Li3  1  0.00595  0.75063  0.33010  1
 Li  Li4  1  0.50595  0.74937  0.66990  1
 O  O1  1  0.16056  0.00000  0.16926  1
 O  O2  1  0.60050  0.00000  0.86360  1
 O  O3  1  0.10654  0.28556  0.68691  1
 O  O4  1  0.60654  0.21444  0.31309  1
 O  O5  1  0.10050  0.50000  0.13640  1
 O  O6  1  0.66056  0.50000  0.83074  1
 O  O7  1  0.60654  0.78556  0.31309  1
 O  O8  1  0.10654  0.71444  0.68691  1
 Si  Si1  1  0.49719  0.00000  0.16230  1
 Si  Si2  1  0.99719  0.50000  0.83770  1
