CIF file written using JARVIS-Tools package.
data_B6O
_symmetry_space_group_name_H-M  'R-3m'
_cell_length_a       5.14441
_cell_length_b       5.14442
_cell_length_c       5.14442
_cell_angle_alpha    63.1925
_cell_angle_beta     63.1924
_cell_angle_gamma    63.1925

_symmetry_Int_Tables_number  166
_chemical_formula_structural  B6O
_chemical_formula_sum  B2O2
_cell_volume  103.08336399647426
_cell_formula_units_Z  2
loop_
  _symmetry_equiv_pos_site_id
 _symmetry_equiv_pos_as_xyz
 1  'x, y, z'
loop_
 _atom_site_type_symbol
 _atom_site_label
 _atom_site_symmetry_multiplicity
 _atom_site_fract_x
 _atom_site_fract_y
 _atom_site_fract_z
 _atom_site_fract_occupancy
 B  B1  1  0.79867  0.32357  0.79867  1
 B  B2  1  0.79867  0.79867  0.32357  1
 B  B3  1  0.32357  0.79867  0.79867  1
 B  B4  1  0.67643  0.20133  0.20133  1
 B  B5  1  0.20133  0.67643  0.20133  1
 B  B6  1  0.20133  0.20133  0.67643  1
 B  B7  1  0.99754  0.66670  0.99754  1
 B  B8  1  0.99754  0.99754  0.66670  1
 B  B9  1  0.66670  0.99754  0.99754  1
 B  B10  1  0.33330  0.00246  0.00246  1
 B  B11  1  0.00246  0.33330  0.00246  1
 B  B12  1  0.00246  0.00246  0.33330  1
 O  O1  1  0.37776  0.37776  0.37776  1
 O  O2  1  0.62224  0.62224  0.62224  1
