CIF file written using JARVIS-Tools package.
data_VO2F
_symmetry_space_group_name_H-M  'Cc'
_cell_length_a       5.07909
_cell_length_b       5.20466
_cell_length_c       5.07909
_cell_angle_alpha    118.076
_cell_angle_beta     58.5455
_cell_angle_gamma    118.076

_symmetry_Int_Tables_number  9
_chemical_formula_structural  VO2F
_chemical_formula_sum  V2O4F2
_cell_volume  96.43489076897646
_cell_formula_units_Z  2
loop_
  _symmetry_equiv_pos_site_id
 _symmetry_equiv_pos_as_xyz
 1  'x, y, z'
loop_
 _atom_site_type_symbol
 _atom_site_label
 _atom_site_symmetry_multiplicity
 _atom_site_fract_x
 _atom_site_fract_y
 _atom_site_fract_z
 _atom_site_fract_occupancy
 F  F1  1  0.86156  0.38580  0.45093  1
 F  F2  1  0.95093  0.88580  0.36156  1
 O  O1  1  0.05654  0.39047  0.85319  1
 O  O2  1  0.46590  0.39855  0.05471  1
 O  O3  1  0.35319  0.89047  0.55654  1
 O  O4  1  0.55471  0.89855  0.96590  1
 V  V1  1  0.73523  0.18883  0.76439  1
 V  V2  1  0.26439  0.68883  0.23523  1
