CIF file written using JARVIS-Tools package.
data_Zr2N2O
_symmetry_space_group_name_H-M  'C2/m'
_cell_length_a       3.30854
_cell_length_b       7.06292
_cell_length_c       8.27066
_cell_angle_alpha    79.9474
_cell_angle_beta     90
_cell_angle_gamma    76.4544

_symmetry_Int_Tables_number  12
_chemical_formula_structural  Zr2N2O
_chemical_formula_sum  Zr6N6O3
_cell_volume  184.83885606683026
_cell_formula_units_Z  3
loop_
  _symmetry_equiv_pos_site_id
 _symmetry_equiv_pos_as_xyz
 1  'x, y, z'
loop_
 _atom_site_type_symbol
 _atom_site_label
 _atom_site_symmetry_multiplicity
 _atom_site_fract_x
 _atom_site_fract_y
 _atom_site_fract_z
 _atom_site_fract_occupancy
 N  N1  1  0.53512  0.92976  0.65645  1
 N  N2  1  0.17236  0.65527  0.96586  1
 N  N3  1  0.12607  0.74785  0.28705  1
 N  N4  1  0.87393  0.25215  0.71295  1
 N  N5  1  0.82764  0.34473  0.03414  1
 N  N6  1  0.46488  0.07024  0.34355  1
 O  O1  1  0.21017  0.57967  0.61938  1
 O  O2  1  0.78983  0.42033  0.38062  1
 O  O3  1  0.50000  0.00000  0.00000  1
 Zr  Zr1  1  0.03151  0.93699  0.80774  1
 Zr  Zr2  1  0.62980  0.74040  0.47465  1
 Zr  Zr3  1  0.69462  0.61076  0.13161  1
 Zr  Zr4  1  0.30538  0.38924  0.86839  1
 Zr  Zr5  1  0.37020  0.25960  0.52535  1
 Zr  Zr6  1  0.96849  0.06301  0.19226  1
