CIF file written using JARVIS-Tools package.
data_Ba2CdS3
_symmetry_space_group_name_H-M  'Pnma'
_cell_length_a       4.37341
_cell_length_b       8.99409
_cell_length_c       17.378
_cell_angle_alpha    90
_cell_angle_beta     90
_cell_angle_gamma    90

_symmetry_Int_Tables_number  62
_chemical_formula_structural  Ba2CdS3
_chemical_formula_sum  Ba8Cd4S2
_cell_volume  683.5614110271089
_cell_formula_units_Z  4
loop_
  _symmetry_equiv_pos_site_id
 _symmetry_equiv_pos_as_xyz
 1  'x, y, z'
loop_
 _atom_site_type_symbol
 _atom_site_label
 _atom_site_symmetry_multiplicity
 _atom_site_fract_x
 _atom_site_fract_y
 _atom_site_fract_z
 _atom_site_fract_occupancy
 Ba  Ba1  1  0.25000  0.26354  0.54182  1
 Ba  Ba2  1  0.75000  0.23646  0.04182  1
 Ba  Ba3  1  0.25000  0.76354  0.95818  1
 Ba  Ba4  1  0.75000  0.73646  0.45818  1
 Ba  Ba5  1  0.25000  0.92229  0.21481  1
 Ba  Ba6  1  0.75000  0.07771  0.78519  1
 Ba  Ba7  1  0.25000  0.42229  0.28519  1
 Ba  Ba8  1  0.75000  0.57771  0.71481  1
 Cd  Cd1  1  0.75000  0.62227  0.13148  1
 Cd  Cd2  1  0.75000  0.12227  0.36852  1
 Cd  Cd3  1  0.25000  0.37773  0.86852  1
 Cd  Cd4  1  0.25000  0.87773  0.63148  1
 S  S1  1  0.75000  0.18547  0.22432  1
 S  S2  1  0.25000  0.31453  0.72432  1
 S  S3  1  0.25000  0.48430  0.09595  1
 S  S4  1  0.75000  0.51570  0.90405  1
 S  S5  1  0.25000  0.98430  0.40405  1
 S  S6  1  0.75000  0.01570  0.59595  1
 S  S7  1  0.25000  0.61875  0.57220  1
 S  S8  1  0.75000  0.38125  0.42780  1
 S  S9  1  0.25000  0.11875  0.92780  1
 S  S10  1  0.75000  0.68547  0.27568  1
 S  S11  1  0.25000  0.81453  0.77568  1
 S  S12  1  0.75000  0.88125  0.07220  1
