CIF file written using JARVIS-Tools package.
data_Sr4Zn3F14
_symmetry_space_group_name_H-M  'P-62m'
_cell_length_a       6.83433
_cell_length_b       6.83373
_cell_length_c       7.14728
_cell_angle_alpha    90.0022
_cell_angle_beta     90.0044
_cell_angle_gamma    59.9971

_symmetry_Int_Tables_number  189
_chemical_formula_structural  Sr4Zn3F14
_chemical_formula_sum  Sr4Zn3F4
_cell_volume  289.0765152837647
_cell_formula_units_Z  1
loop_
  _symmetry_equiv_pos_site_id
 _symmetry_equiv_pos_as_xyz
 1  'x, y, z'
loop_
 _atom_site_type_symbol
 _atom_site_label
 _atom_site_symmetry_multiplicity
 _atom_site_fract_x
 _atom_site_fract_y
 _atom_site_fract_z
 _atom_site_fract_occupancy
 F  F1  1  0.24585  0.00000  0.73176  1
 F  F2  1  0.39579  0.60978  0.46211  1
 F  F3  1  0.00557  0.39022  0.46211  1
 F  F4  1  0.33887  0.33336  0.73176  1
 F  F5  1  0.67222  0.66664  0.73176  1
 F  F6  1  0.61529  -0.00000  0.46210  1
 F  F7  1  0.00551  0.75975  0.73175  1
 F  F8  1  0.00554  0.73326  0.23176  1
 F  F9  1  0.73880  0.26674  0.23176  1
 F  F10  1  0.27232  0.00000  0.23172  1
 F  F11  1  0.61531  0.00000  0.00140  1
 F  F12  1  0.00551  0.39027  0.00140  1
 F  F13  1  0.76526  0.24025  0.73175  1
 F  F14  1  0.39578  0.60973  0.00140  1
 Sr  Sr1  1  0.00556  -0.00000  0.99402  1
 Sr  Sr2  1  0.67223  0.66667  0.23175  1
 Sr  Sr3  1  0.33890  0.33333  0.23175  1
 Sr  Sr4  1  0.00558  0.00000  0.46949  1
 Zn  Zn1  1  0.54693  0.00000  0.73175  1
 Zn  Zn2  1  0.00556  0.45865  0.73175  1
 Zn  Zn3  1  0.46421  0.54135  0.73175  1
