CIF file written using JARVIS-Tools package.
data_ErTe3
_symmetry_space_group_name_H-M  'Cmcm'
_cell_length_a       4.0232
_cell_length_b       4.58459
_cell_length_c       14.0365
_cell_angle_alpha    90
_cell_angle_beta     98.2395
_cell_angle_gamma    90

_symmetry_Int_Tables_number  63
_chemical_formula_structural  ErTe3
_chemical_formula_sum  Er2Te6
_cell_volume  256.2258747559307
_cell_formula_units_Z  2
loop_
  _symmetry_equiv_pos_site_id
 _symmetry_equiv_pos_as_xyz
 1  'x, y, z'
loop_
 _atom_site_type_symbol
 _atom_site_label
 _atom_site_symmetry_multiplicity
 _atom_site_fract_x
 _atom_site_fract_y
 _atom_site_fract_z
 _atom_site_fract_occupancy
 Er  Er1  1  0.94911  0.25000  0.89822  1
 Er  Er2  1  0.05089  0.75000  0.10178  1
 Te  Te1  1  0.68732  0.25000  0.37463  1
 Te  Te2  1  0.55268  0.25000  0.10536  1
 Te  Te3  1  0.83624  0.25000  0.67249  1
 Te  Te4  1  0.44732  0.75000  0.89464  1
 Te  Te5  1  0.16376  0.75000  0.32751  1
 Te  Te6  1  0.31268  0.75000  0.62537  1
