CIF file written using JARVIS-Tools package.
data_KC2IN2
_symmetry_space_group_name_H-M  'C2/m'
_cell_length_a       4.22523
_cell_length_b       4.22523
_cell_length_c       9.08013
_cell_angle_alpha    85.49
_cell_angle_beta     85.49
_cell_angle_gamma    63.002

_symmetry_Int_Tables_number  12
_chemical_formula_structural  KC2IN2
_chemical_formula_sum  KC2IN2
_cell_volume  143.8226816017633
_cell_formula_units_Z  1
loop_
  _symmetry_equiv_pos_site_id
 _symmetry_equiv_pos_as_xyz
 1  'x, y, z'
loop_
 _atom_site_type_symbol
 _atom_site_label
 _atom_site_symmetry_multiplicity
 _atom_site_fract_x
 _atom_site_fract_y
 _atom_site_fract_z
 _atom_site_fract_occupancy
 C  C1  1  0.87929  0.87929  0.77544  1
 C  C2  1  0.12071  0.12071  0.22456  1
 I  I1  1  0.00000  0.00000  0.00000  1
 K  K1  1  0.50000  0.50000  0.50000  1
 N  N1  1  0.17954  0.17954  0.34071  1
 N  N2  1  0.82046  0.82046  0.65929  1
