CIF file written using JARVIS-Tools package.
data_CeInNi
_symmetry_space_group_name_H-M  'P-62m'
_cell_length_a       7.3677
_cell_length_b       7.3677
_cell_length_c       4.00205
_cell_angle_alpha    90
_cell_angle_beta     90
_cell_angle_gamma    120

_symmetry_Int_Tables_number  189
_chemical_formula_structural  CeInNi
_chemical_formula_sum  Ce3In3Ni3
_cell_volume  188.1380849123518
_cell_formula_units_Z  3
loop_
  _symmetry_equiv_pos_site_id
 _symmetry_equiv_pos_as_xyz
 1  'x, y, z'
loop_
 _atom_site_type_symbol
 _atom_site_label
 _atom_site_symmetry_multiplicity
 _atom_site_fract_x
 _atom_site_fract_y
 _atom_site_fract_z
 _atom_site_fract_occupancy
 Ce  Ce1  1  0.41466  0.41466  0.00000  1
 Ce  Ce2  1  1.00000  0.58534  0.00000  1
 Ce  Ce3  1  0.58534  1.00000  0.00000  1
 In  In1  1  1.00000  0.24851  0.50000  1
 In  In2  1  0.75149  0.75149  0.50000  1
 In  In3  1  0.24851  1.00000  0.50000  1
 Ni  Ni1  1  0.66667  0.33333  0.50000  1
 Ni  Ni2  1  0.00000  0.00000  0.00000  1
 Ni  Ni3  1  0.33333  0.66667  0.50000  1
