CIF file written using JARVIS-Tools package.
data_NaSbSe2
_symmetry_space_group_name_H-M  'C2/c'
_cell_length_a       8.57836
_cell_length_b       11.3488
_cell_length_c       7.38056
_cell_angle_alpha    28.4379
_cell_angle_beta     54.4665
_cell_angle_gamma    40.8936

_symmetry_Int_Tables_number  15
_chemical_formula_structural  NaSbSe2
_chemical_formula_sum  Na2Sb2Se4
_cell_volume  215.81156054613444
_cell_formula_units_Z  2
loop_
  _symmetry_equiv_pos_site_id
 _symmetry_equiv_pos_as_xyz
 1  'x, y, z'
loop_
 _atom_site_type_symbol
 _atom_site_label
 _atom_site_symmetry_multiplicity
 _atom_site_fract_x
 _atom_site_fract_y
 _atom_site_fract_z
 _atom_site_fract_occupancy
 Na  Na1  1  0.24092  0.50002  -0.00000  1
 Na  Na2  1  0.50908  -0.00002  0.00000  1
 Sb  Sb1  1  0.97410  -0.00002  0.00002  1
 Sb  Sb2  1  0.77590  0.50002  -0.00002  1
 Se  Se1  1  0.53907  0.47881  0.50936  1
 Se  Se2  1  0.21093  0.02119  0.49064  1
 Se  Se3  1  0.00604  0.52123  0.49064  1
 Se  Se4  1  0.74396  0.97877  0.50936  1
