CIF file written using JARVIS-Tools package.
data_BC2N
_symmetry_space_group_name_H-M  'P222_1'
_cell_length_a       3.60208
_cell_length_b       3.60675
_cell_length_c       3.64888
_cell_angle_alpha    90
_cell_angle_beta     90
_cell_angle_gamma    90

_symmetry_Int_Tables_number  17
_chemical_formula_structural  BC2N
_chemical_formula_sum  B2C4N2
_cell_volume  47.40563402429435
_cell_formula_units_Z  2
loop_
  _symmetry_equiv_pos_site_id
 _symmetry_equiv_pos_as_xyz
 1  'x, y, z'
loop_
 _atom_site_type_symbol
 _atom_site_label
 _atom_site_symmetry_multiplicity
 _atom_site_fract_x
 _atom_site_fract_y
 _atom_site_fract_z
 _atom_site_fract_occupancy
 B  B1  1  0.74722  0.50000  0.00000  1
 B  B2  1  0.25278  0.00000  0.00000  1
 C  C1  1  0.74495  0.00000  0.50000  1
 C  C2  1  0.25505  0.50000  0.50000  1
 C  C3  1  0.50000  0.75000  0.74267  1
 C  C4  1  0.50000  0.25000  0.25733  1
 N  N1  1  0.00000  0.25000  0.74197  1
 N  N2  1  0.00000  0.75000  0.25803  1
