CIF file written using JARVIS-Tools package.
data_Ni2B
_symmetry_space_group_name_H-M  'I4/mcm'
_cell_length_a       4.1207
_cell_length_b       4.1207
_cell_length_c       4.1207
_cell_angle_alpha    105.641
_cell_angle_beta     105.641
_cell_angle_gamma    117.438

_symmetry_Int_Tables_number  140
_chemical_formula_structural  Ni2B
_chemical_formula_sum  Ni4B2
_cell_volume  53.071732075221625
_cell_formula_units_Z  2
loop_
  _symmetry_equiv_pos_site_id
 _symmetry_equiv_pos_as_xyz
 1  'x, y, z'
loop_
 _atom_site_type_symbol
 _atom_site_label
 _atom_site_symmetry_multiplicity
 _atom_site_fract_x
 _atom_site_fract_y
 _atom_site_fract_z
 _atom_site_fract_occupancy
 B  B1  1  0.50000  -0.00000  0.50000  1
 B  B2  1  0.00000  0.50000  0.50000  1
 Ni  Ni1  1  0.91966  0.58034  -0.00000  1
 Ni  Ni2  1  0.08034  0.08034  0.66067  1
 Ni  Ni3  1  0.58034  0.91966  0.00000  1
 Ni  Ni4  1  0.41966  0.41966  0.33933  1
