CIF file written using JARVIS-Tools package.
data_UGe2Pt2
_symmetry_space_group_name_H-M  'I4/mmm'
_cell_length_a       4.3962
_cell_length_b       4.3962
_cell_length_c       5.81755
_cell_angle_alpha    112.2
_cell_angle_beta     112.2
_cell_angle_gamma    90

_symmetry_Int_Tables_number  139
_chemical_formula_structural  UGe2Pt2
_chemical_formula_sum  UGe2Pt2
_cell_volume  95.03604572640087
_cell_formula_units_Z  1
loop_
  _symmetry_equiv_pos_site_id
 _symmetry_equiv_pos_as_xyz
 1  'x, y, z'
loop_
 _atom_site_type_symbol
 _atom_site_label
 _atom_site_symmetry_multiplicity
 _atom_site_fract_x
 _atom_site_fract_y
 _atom_site_fract_z
 _atom_site_fract_occupancy
 Ge  Ge1  1  0.62318  0.62318  0.24635  1
 Ge  Ge2  1  0.37682  0.37682  0.75365  1
 Pt  Pt1  1  0.25000  0.75000  0.50000  1
 Pt  Pt2  1  0.75000  0.25000  0.50000  1
 U  U1  1  0.00000  0.00000  0.00000  1
