CIF file written using JARVIS-Tools package.
data_BeAlH5
_symmetry_space_group_name_H-M  'P2_1'
_cell_length_a       4.66935
_cell_length_b       4.31705
_cell_length_c       6.25185
_cell_angle_alpha    90
_cell_angle_beta     92.9309
_cell_angle_gamma    90

_symmetry_Int_Tables_number  4
_chemical_formula_structural  BeAlH5
_chemical_formula_sum  Be2Al2H0
_cell_volume  125.85899904402505
_cell_formula_units_Z  2
loop_
  _symmetry_equiv_pos_site_id
 _symmetry_equiv_pos_as_xyz
 1  'x, y, z'
loop_
 _atom_site_type_symbol
 _atom_site_label
 _atom_site_symmetry_multiplicity
 _atom_site_fract_x
 _atom_site_fract_y
 _atom_site_fract_z
 _atom_site_fract_occupancy
 Al  Al1  1  0.24422  0.99012  0.00103  1
 Al  Al2  1  0.75578  0.49012  -0.00103  1
 Be  Be1  1  -0.00269  0.23033  0.38119  1
 Be  Be2  1  0.00269  0.73033  0.61881  1
 H  H1  1  0.12494  0.46622  0.51654  1
 H  H2  1  0.87506  -0.03378  0.48346  1
 H  H3  1  0.74818  0.33897  0.25594  1
 H  H4  1  0.25182  0.83897  0.74406  1
 H  H5  1  0.23790  0.14429  0.25693  1
 H  H6  1  0.76210  0.64429  0.74307  1
 H  H7  1  0.05669  0.68156  0.08878  1
 H  H8  1  0.94331  0.18156  0.91122  1
 H  H9  1  0.55284  0.79650  0.08050  1
 H  H10  1  0.44716  0.29650  0.91950  1
