CIF file written using JARVIS-Tools package.
data_Sr2H5Rh
_symmetry_space_group_name_H-M  'I4mm'
_cell_length_a       5.39531
_cell_length_b       5.39531
_cell_length_c       5.32062
_cell_angle_alpha    60.4569
_cell_angle_beta     60.4569
_cell_angle_gamma    59.0862

_symmetry_Int_Tables_number  107
_chemical_formula_structural  Sr2H5Rh
_chemical_formula_sum  Sr2H5Rh
_cell_volume  109.47529285224182
_cell_formula_units_Z  1
loop_
  _symmetry_equiv_pos_site_id
 _symmetry_equiv_pos_as_xyz
 1  'x, y, z'
loop_
 _atom_site_type_symbol
 _atom_site_label
 _atom_site_symmetry_multiplicity
 _atom_site_fract_x
 _atom_site_fract_y
 _atom_site_fract_z
 _atom_site_fract_occupancy
 H  H1  1  0.23110  0.78096  0.21904  1
 H  H2  1  0.78096  0.23110  0.21904  1
 H  H3  1  0.23110  0.78096  0.76890  1
 H  H4  1  0.78096  0.23110  0.76890  1
 H  H5  1  0.75593  0.75593  0.24407  1
 Rh  Rh1  1  0.99442  0.99442  0.00558  1
 Sr  Sr1  1  0.25127  0.25127  0.24873  1
 Sr  Sr2  1  0.75127  0.75127  0.74873  1
