CIF file written using JARVIS-Tools package.
data_AlTlO2
_symmetry_space_group_name_H-M  'Fd-3m'
_cell_length_a       5.70232
_cell_length_b       5.70232
_cell_length_c       5.70231
_cell_angle_alpha    59.9992
_cell_angle_beta     59.9992
_cell_angle_gamma    59.9992

_symmetry_Int_Tables_number  227
_chemical_formula_structural  AlTlO2
_chemical_formula_sum  Al2Tl2O4
_cell_volume  131.10856053500783
_cell_formula_units_Z  2
loop_
  _symmetry_equiv_pos_site_id
 _symmetry_equiv_pos_as_xyz
 1  'x, y, z'
loop_
 _atom_site_type_symbol
 _atom_site_label
 _atom_site_symmetry_multiplicity
 _atom_site_fract_x
 _atom_site_fract_y
 _atom_site_fract_z
 _atom_site_fract_occupancy
 Al  Al1  1  0.37500  0.37500  0.37500  1
 Al  Al2  1  0.62500  0.62500  0.62500  1
 O  O1  1  0.50000  -0.00000  0.50000  1
 O  O2  1  -0.00000  0.50000  0.50000  1
 O  O3  1  0.50000  0.50000  0.50000  1
 O  O4  1  0.50000  0.50000  0.00000  1
 Tl  Tl1  1  0.87500  0.87500  0.87500  1
 Tl  Tl2  1  0.12500  0.12500  0.12500  1
