CIF file written using JARVIS-Tools package.
data_SrBr2
_symmetry_space_group_name_H-M  'Pnma'
_cell_length_a       4.68856
_cell_length_b       7.7703
_cell_length_c       11.3062
_cell_angle_alpha    90
_cell_angle_beta     90
_cell_angle_gamma    90

_symmetry_Int_Tables_number  62
_chemical_formula_structural  SrBr2
_chemical_formula_sum  Sr4Br8
_cell_volume  411.90357274104434
_cell_formula_units_Z  4
loop_
  _symmetry_equiv_pos_site_id
 _symmetry_equiv_pos_as_xyz
 1  'x, y, z'
loop_
 _atom_site_type_symbol
 _atom_site_label
 _atom_site_symmetry_multiplicity
 _atom_site_fract_x
 _atom_site_fract_y
 _atom_site_fract_z
 _atom_site_fract_occupancy
 Br  Br1  1  0.75000  0.61760  0.39014  1
 Br  Br2  1  0.25000  0.38240  0.60986  1
 Br  Br3  1  0.25000  0.61537  0.12169  1
 Br  Br4  1  0.25000  0.11760  0.10986  1
 Br  Br5  1  0.25000  0.88463  0.62169  1
 Br  Br6  1  0.75000  0.38463  0.87831  1
 Br  Br7  1  0.75000  0.88240  0.89014  1
 Br  Br8  1  0.75000  0.11537  0.37831  1
 Sr  Sr1  1  0.25000  0.13879  0.83198  1
 Sr  Sr2  1  0.75000  0.86121  0.16802  1
 Sr  Sr3  1  0.25000  0.36121  0.33198  1
 Sr  Sr4  1  0.75000  0.63879  0.66802  1
