CIF file written using JARVIS-Tools package.
data_ThSO
_symmetry_space_group_name_H-M  'P4/nmm'
_cell_length_a       3.98334
_cell_length_b       3.98334
_cell_length_c       6.78598
_cell_angle_alpha    90
_cell_angle_beta     90
_cell_angle_gamma    90

_symmetry_Int_Tables_number  129
_chemical_formula_structural  ThSO
_chemical_formula_sum  Th2S2O2
_cell_volume  107.67289110753781
_cell_formula_units_Z  2
loop_
  _symmetry_equiv_pos_site_id
 _symmetry_equiv_pos_as_xyz
 1  'x, y, z'
loop_
 _atom_site_type_symbol
 _atom_site_label
 _atom_site_symmetry_multiplicity
 _atom_site_fract_x
 _atom_site_fract_y
 _atom_site_fract_z
 _atom_site_fract_occupancy
 O  O1  1  0.50000  0.50000  0.00000  1
 O  O2  1  0.00000  0.00000  0.00000  1
 S  S1  1  0.50000  0.00000  0.63838  1
 S  S2  1  0.00000  0.50000  0.36162  1
 Th  Th1  1  0.00000  0.50000  0.79950  1
 Th  Th2  1  0.50000  0.00000  0.20050  1
