CIF file written using JARVIS-Tools package.
data_NaC
_symmetry_space_group_name_H-M  'I4_1/acd'
_cell_length_a       6.72874
_cell_length_b       6.72856
_cell_length_c       7.87072
_cell_angle_alpha    115.304
_cell_angle_beta     115.306
_cell_angle_gamma    90

_symmetry_Int_Tables_number  142
_chemical_formula_structural  NaC
_chemical_formula_sum  Na8C8
_cell_volume  283.8684646206328
_cell_formula_units_Z  8
loop_
  _symmetry_equiv_pos_site_id
 _symmetry_equiv_pos_as_xyz
 1  'x, y, z'
loop_
 _atom_site_type_symbol
 _atom_site_label
 _atom_site_symmetry_multiplicity
 _atom_site_fract_x
 _atom_site_fract_y
 _atom_site_fract_z
 _atom_site_fract_occupancy
 C  C1  1  0.94109  0.69109  0.75001  1
 C  C2  1  0.55893  0.94108  0.25001  1
 C  C3  1  0.69107  0.80891  0.24999  1
 C  C4  1  0.80892  0.55892  0.74999  1
 C  C5  1  0.05891  0.30891  0.24999  1
 C  C6  1  0.44107  0.05892  0.74999  1
 C  C7  1  0.30893  0.19109  0.75001  1
 C  C8  1  0.19108  0.44108  0.25001  1
 Na  Na1  1  0.93751  0.25000  0.50000  1
 Na  Na2  1  0.75001  0.93751  1.00000  1
 Na  Na3  1  0.25001  0.56249  0.00000  1
 Na  Na4  1  0.56248  0.75000  0.50000  1
 Na  Na5  1  0.06249  0.75000  0.50000  1
 Na  Na6  1  0.24999  0.06249  0.00000  1
 Na  Na7  1  0.74999  0.43751  1.00000  1
 Na  Na8  1  0.43752  0.25000  0.50000  1
