CIF file written using JARVIS-Tools package.
data_Li3P2WO8
_symmetry_space_group_name_H-M  'C2/m'
_cell_length_a       5.02659
_cell_length_b       5.02801
_cell_length_c       6.11187
_cell_angle_alpha    90.0353
_cell_angle_beta     90.0001
_cell_angle_gamma    112.856

_symmetry_Int_Tables_number  12
_chemical_formula_structural  Li3P2WO8
_chemical_formula_sum  Li3P2WO8
_cell_volume  142.34186936623198
_cell_formula_units_Z  1
loop_
  _symmetry_equiv_pos_site_id
 _symmetry_equiv_pos_as_xyz
 1  'x, y, z'
loop_
 _atom_site_type_symbol
 _atom_site_label
 _atom_site_symmetry_multiplicity
 _atom_site_fract_x
 _atom_site_fract_y
 _atom_site_fract_z
 _atom_site_fract_occupancy
 Li  Li1  1  0.16903  0.33893  0.27701  1
 Li  Li2  1  0.50252  0.00457  0.49979  1
 Li  Li3  1  0.83606  0.67026  0.72257  1
 O  O1  1  0.74551  0.76157  0.43699  1
 O  O2  1  0.75507  0.75212  0.02237  1
 O  O3  1  0.25797  0.69454  0.76037  1
 O  O4  1  0.81233  0.24871  0.76021  1
 O  O5  1  0.19283  0.76053  0.23937  1
 O  O6  1  0.74719  0.31470  0.23919  1
 O  O7  1  0.25010  0.25713  0.97720  1
 O  O8  1  0.25964  0.24766  0.56258  1
 P  P1  1  0.15185  0.35515  0.76127  1
 P  P2  1  0.85330  0.65408  0.23830  1
 W  W1  1  0.50257  0.00462  0.99979  1
