CIF file written using JARVIS-Tools package.
data_ZnCu2O4
_symmetry_space_group_name_H-M  'I4_1/a'
_cell_length_a       6.14528
_cell_length_b       6.145
_cell_length_c       6.14528
_cell_angle_alpha    127.87
_cell_angle_beta     76.8421
_cell_angle_gamma    127.867

_symmetry_Int_Tables_number  88
_chemical_formula_structural  ZnCu2O4
_chemical_formula_sum  Zn2Cu4O8
_cell_volume  140.41573816664632
_cell_formula_units_Z  2
loop_
  _symmetry_equiv_pos_site_id
 _symmetry_equiv_pos_as_xyz
 1  'x, y, z'
loop_
 _atom_site_type_symbol
 _atom_site_label
 _atom_site_symmetry_multiplicity
 _atom_site_fract_x
 _atom_site_fract_y
 _atom_site_fract_z
 _atom_site_fract_occupancy
 Cu  Cu1  1  0.50000  0.00000  0.00000  1
 Cu  Cu2  1  0.50000  0.50000  -0.00000  1
 Cu  Cu3  1  0.50000  0.00000  0.50000  1
 Cu  Cu4  1  0.00000  0.50000  -0.00000  1
 O  O1  1  0.83500  0.71551  0.21417  1
 O  O2  1  0.50134  0.21551  0.38050  1
 O  O3  1  0.71418  0.87918  -0.00133  1
 O  O4  1  0.88051  0.37918  0.66500  1
 O  O5  1  0.11949  0.62082  0.33500  1
 O  O6  1  0.28582  0.12082  0.00133  1
 O  O7  1  0.49866  0.78449  0.61950  1
 O  O8  1  0.16500  0.28449  0.78583  1
 Zn  Zn1  1  0.87498  0.75000  0.62498  1
 Zn  Zn2  1  0.12502  0.25000  0.37502  1
