CIF file written using JARVIS-Tools package.
data_CoTeMoO6
_symmetry_space_group_name_H-M  'P2_12_12'
_cell_length_a       5.05677
_cell_length_b       5.27977
_cell_length_c       8.84413
_cell_angle_alpha    90.0001
_cell_angle_beta     90.0001
_cell_angle_gamma    89.9996

_symmetry_Int_Tables_number  18
_chemical_formula_structural  CoTeMoO6
_chemical_formula_sum  Co2Te2Mo2O2
_cell_volume  236.12601399117074
_cell_formula_units_Z  2
loop_
  _symmetry_equiv_pos_site_id
 _symmetry_equiv_pos_as_xyz
 1  'x, y, z'
loop_
 _atom_site_type_symbol
 _atom_site_label
 _atom_site_symmetry_multiplicity
 _atom_site_fract_x
 _atom_site_fract_y
 _atom_site_fract_z
 _atom_site_fract_occupancy
 Co  Co1  1  0.75000  0.00001  0.52805  1
 Co  Co2  1  0.25000  0.50001  0.47195  1
 Mo  Mo1  1  0.75000  0.50001  0.19193  1
 Mo  Mo2  1  0.25000  0.00001  0.80807  1
 O  O1  1  0.51413  0.17661  0.70432  1
 O  O2  1  0.47522  0.17787  0.39238  1
 O  O3  1  0.40124  0.78483  0.92646  1
 O  O4  1  0.02476  0.82214  0.39238  1
 O  O5  1  0.98589  0.82340  0.70431  1
 O  O6  1  0.97523  0.32214  0.60763  1
 O  O7  1  0.90123  0.71518  0.07354  1
 O  O8  1  0.09877  0.21518  0.92646  1
 O  O9  1  0.52478  0.67787  0.60762  1
 O  O10  1  0.01410  0.32340  0.29569  1
 O  O11  1  0.59876  0.28483  0.07354  1
 O  O12  1  0.48587  0.67661  0.29568  1
 Te  Te1  1  0.24999  0.00001  0.25002  1
 Te  Te2  1  0.75001  0.50001  0.74998  1
