CIF file written using JARVIS-Tools package.
data_CrSi2
_symmetry_space_group_name_H-M  'P6_422'
_cell_length_a       4.43446
_cell_length_b       4.43446
_cell_length_c       6.38955
_cell_angle_alpha    90
_cell_angle_beta     90
_cell_angle_gamma    120

_symmetry_Int_Tables_number  181
_chemical_formula_structural  CrSi2
_chemical_formula_sum  Cr3Si6
_cell_volume  108.8131297448941
_cell_formula_units_Z  3
loop_
  _symmetry_equiv_pos_site_id
 _symmetry_equiv_pos_as_xyz
 1  'x, y, z'
loop_
 _atom_site_type_symbol
 _atom_site_label
 _atom_site_symmetry_multiplicity
 _atom_site_fract_x
 _atom_site_fract_y
 _atom_site_fract_z
 _atom_site_fract_occupancy
 Cr  Cr1  1  0.00000  0.50000  0.83333  1
 Cr  Cr2  1  0.50000  0.00000  0.50000  1
 Cr  Cr3  1  0.50000  0.50000  0.16667  1
 Si  Si1  1  0.83359  0.16641  0.16667  1
 Si  Si2  1  0.16641  0.33282  0.50000  1
 Si  Si3  1  0.66718  0.83359  0.83333  1
 Si  Si4  1  0.16641  0.83359  0.16667  1
 Si  Si5  1  0.83359  0.66718  0.50000  1
 Si  Si6  1  0.33282  0.16641  0.83333  1
