CIF file written using JARVIS-Tools package.
data_ZnSb2Xe6F24
_symmetry_space_group_name_H-M  'R-3'
_cell_length_a       9.3675
_cell_length_b       9.3675
_cell_length_c       9.36751
_cell_angle_alpha    64.5197
_cell_angle_beta     64.5197
_cell_angle_gamma    64.5197

_symmetry_Int_Tables_number  148
_chemical_formula_structural  ZnSb2Xe6F24
_chemical_formula_sum  ZnSb2Xe6F24
_cell_volume  638.8470799866471
_cell_formula_units_Z  1
loop_
  _symmetry_equiv_pos_site_id
 _symmetry_equiv_pos_as_xyz
 1  'x, y, z'
loop_
 _atom_site_type_symbol
 _atom_site_label
 _atom_site_symmetry_multiplicity
 _atom_site_fract_x
 _atom_site_fract_y
 _atom_site_fract_z
 _atom_site_fract_occupancy
 F  F1  1  0.41527  0.12718  0.37294  1
 F  F2  1  0.05252  0.21902  0.88296  1
 F  F3  1  0.87282  0.62706  0.58473  1
 F  F4  1  0.88296  0.05252  0.21902  1
 F  F5  1  0.37294  0.41527  0.12718  1
 F  F6  1  0.12821  0.09799  0.38460  1
 F  F7  1  0.58473  0.87282  0.62706  1
 F  F8  1  0.12718  0.37294  0.41527  1
 F  F9  1  0.41293  0.45994  0.78018  1
 F  F10  1  0.78098  0.11704  0.94748  1
 F  F11  1  0.54006  0.21982  0.58707  1
 F  F12  1  0.45994  0.78018  0.41293  1
 F  F13  1  0.21902  0.88296  0.05252  1
 F  F14  1  0.90201  0.61540  0.87179  1
 F  F15  1  0.21982  0.58707  0.54006  1
 F  F16  1  0.94748  0.78098  0.11704  1
 F  F17  1  0.58707  0.54006  0.21982  1
 F  F18  1  0.38460  0.12821  0.09799  1
 F  F19  1  0.11704  0.94748  0.78098  1
 F  F20  1  0.62706  0.58473  0.87282  1
 F  F21  1  0.09799  0.38460  0.12821  1
 F  F22  1  0.61540  0.87179  0.90201  1
 F  F23  1  0.87179  0.90201  0.61540  1
 F  F24  1  0.78018  0.41293  0.45994  1
 Sb  Sb1  1  0.74648  0.74648  0.74648  1
 Sb  Sb2  1  0.25352  0.25352  0.25352  1
 Xe  Xe1  1  0.73235  0.30613  0.21374  1
 Xe  Xe2  1  0.26765  0.69387  0.78626  1
 Xe  Xe3  1  0.30613  0.21374  0.73235  1
 Xe  Xe4  1  0.21374  0.73235  0.30613  1
 Xe  Xe5  1  0.69387  0.78626  0.26765  1
 Xe  Xe6  1  0.78626  0.26765  0.69387  1
 Zn  Zn1  1  0.00000  0.00000  0.00000  1
