CIF file written using JARVIS-Tools package.
data_Y2Fe2O7
_symmetry_space_group_name_H-M  'Fd-3m'
_cell_length_a       6.99401
_cell_length_b       6.99404
_cell_length_c       6.99396
_cell_angle_alpha    59.9976
_cell_angle_beta     59.9976
_cell_angle_gamma    59.9968

_symmetry_Int_Tables_number  227
_chemical_formula_structural  Y2Fe2O7
_chemical_formula_sum  Y4Fe4O4
_cell_volume  241.90006475933785
_cell_formula_units_Z  2
loop_
  _symmetry_equiv_pos_site_id
 _symmetry_equiv_pos_as_xyz
 1  'x, y, z'
loop_
 _atom_site_type_symbol
 _atom_site_label
 _atom_site_symmetry_multiplicity
 _atom_site_fract_x
 _atom_site_fract_y
 _atom_site_fract_z
 _atom_site_fract_occupancy
 Fe  Fe1  1  -0.00000  0.50000  0.00000  1
 Fe  Fe2  1  0.50000  0.00000  0.00000  1
 Fe  Fe3  1  0.00000  -0.00000  0.50000  1
 Fe  Fe4  1  -0.00000  0.00000  -0.00000  1
 O  O1  1  0.67286  0.67286  0.07713  1
 O  O2  1  0.62499  0.62499  0.62500  1
 O  O3  1  0.37501  0.37501  0.37500  1
 O  O4  1  0.67287  0.07712  0.67287  1
 O  O5  1  0.07713  0.67286  0.67286  1
 O  O6  1  0.92287  0.32713  0.92287  1
 O  O7  1  0.32713  0.92288  0.92287  1
 O  O8  1  0.32714  0.32714  0.92287  1
 O  O9  1  0.07713  0.67287  0.07713  1
 O  O10  1  0.92287  0.32713  0.32714  1
 O  O11  1  0.92287  0.92288  0.32713  1
 O  O12  1  0.07713  0.07712  0.67287  1
 O  O13  1  0.67287  0.07713  0.07713  1
 O  O14  1  0.32713  0.92288  0.32713  1
 Y  Y1  1  0.50000  0.50000  0.50000  1
 Y  Y2  1  0.50000  0.50000  -0.00000  1
 Y  Y3  1  -0.00000  0.50000  0.50000  1
 Y  Y4  1  0.50000  0.00000  0.50000  1
