CIF file written using JARVIS-Tools package.
data_AlFeF5
_symmetry_space_group_name_H-M  'Immm'
_cell_length_a       3.59402
_cell_length_b       5.20068
_cell_length_c       5.20069
_cell_angle_alpha    73.7789
_cell_angle_beta     69.7857
_cell_angle_gamma    69.7856

_symmetry_Int_Tables_number  71
_chemical_formula_structural  AlFeF5
_chemical_formula_sum  AlFeF5
_cell_volume  84.17788325244688
_cell_formula_units_Z  1
loop_
  _symmetry_equiv_pos_site_id
 _symmetry_equiv_pos_as_xyz
 1  'x, y, z'
loop_
 _atom_site_type_symbol
 _atom_site_label
 _atom_site_symmetry_multiplicity
 _atom_site_fract_x
 _atom_site_fract_y
 _atom_site_fract_z
 _atom_site_fract_occupancy
 Al  Al1  1  0.50000  0.50000  0.50000  1
 F  F1  1  0.50000  0.79383  0.20617  1
 F  F2  1  0.50000  0.20617  0.79383  1
 F  F3  1  0.74178  0.25822  0.25822  1
 F  F4  1  0.25822  0.74178  0.74178  1
 F  F5  1  0.00000  0.50000  0.50000  1
 Fe  Fe1  1  0.00000  0.00000  0.00000  1
