CIF file written using JARVIS-Tools package.
data_RuO4
_symmetry_space_group_name_H-M  'C2/c'
_cell_length_a       4.38472
_cell_length_b       5.11866
_cell_length_c       7.87402
_cell_angle_alpha    77.4089
_cell_angle_beta     73.8438
_cell_angle_gamma    64.6434

_symmetry_Int_Tables_number  15
_chemical_formula_structural  RuO4
_chemical_formula_sum  Ru2O8
_cell_volume  152.3938238136307
_cell_formula_units_Z  2
loop_
  _symmetry_equiv_pos_site_id
 _symmetry_equiv_pos_as_xyz
 1  'x, y, z'
loop_
 _atom_site_type_symbol
 _atom_site_label
 _atom_site_symmetry_multiplicity
 _atom_site_fract_x
 _atom_site_fract_y
 _atom_site_fract_z
 _atom_site_fract_occupancy
 O  O1  1  0.90055  0.81070  0.42576  1
 O  O2  1  0.41243  0.54623  0.69229  1
 O  O3  1  0.13696  0.68924  0.07421  1
 O  O4  1  0.58757  0.45377  0.30771  1
 O  O5  1  0.65082  0.95390  0.80771  1
 O  O6  1  0.86304  0.31076  0.92579  1
 O  O7  1  0.34918  0.04609  0.19229  1
 O  O8  1  0.09945  0.18929  0.57424  1
 Ru  Ru1  1  0.24366  0.74995  0.24999  1
 Ru  Ru2  1  0.75634  0.25005  0.75001  1
