CIF file written using JARVIS-Tools package.
data_NiH2SO5
_symmetry_space_group_name_H-M  'C2/c'
_cell_length_a       5.11659
_cell_length_b       5.11659
_cell_length_c       7.38191
_cell_angle_alpha    72.4423
_cell_angle_beta     107.558
_cell_angle_gamma    82.8778

_symmetry_Int_Tables_number  15
_chemical_formula_structural  NiH2SO5
_chemical_formula_sum  Ni2H4S2O0
_cell_volume  170.68383837518755
_cell_formula_units_Z  2
loop_
  _symmetry_equiv_pos_site_id
 _symmetry_equiv_pos_as_xyz
 1  'x, y, z'
loop_
 _atom_site_type_symbol
 _atom_site_label
 _atom_site_symmetry_multiplicity
 _atom_site_fract_x
 _atom_site_fract_y
 _atom_site_fract_z
 _atom_site_fract_occupancy
 H  H1  1  0.42971  0.15673  0.79725  1
 H  H2  1  0.15673  0.42971  0.70275  1
 H  H3  1  0.57029  0.84327  0.20275  1
 H  H4  1  0.84327  0.57029  0.29725  1
 Ni  Ni1  1  0.50000  0.50000  0.50000  1
 Ni  Ni2  1  0.50000  0.50000  0.00000  1
 O  O1  1  0.36877  0.36877  0.75000  1
 O  O2  1  0.77908  0.12074  0.59146  1
 O  O3  1  0.87926  0.22092  0.09146  1
 O  O4  1  0.12074  0.77908  0.90854  1
 O  O5  1  0.83866  0.61593  0.65887  1
 O  O6  1  0.38407  0.16134  0.15887  1
 O  O7  1  0.16134  0.38407  0.34113  1
 O  O8  1  0.22092  0.87926  0.40854  1
 O  O9  1  0.61593  0.83866  0.84113  1
 O  O10  1  0.63123  0.63123  0.25000  1
 S  S1  1  0.15886  0.15886  0.25000  1
 S  S2  1  0.84114  0.84114  0.75000  1
