CIF file written using JARVIS-Tools package.
data_Na2CS3
_symmetry_space_group_name_H-M  'C2/c'
_cell_length_a       5.90259
_cell_length_b       5.90259
_cell_length_c       8.44751
_cell_angle_alpha    75.276
_cell_angle_beta     75.276
_cell_angle_gamma    64.5242

_symmetry_Int_Tables_number  15
_chemical_formula_structural  Na2CS3
_chemical_formula_sum  Na4C2S6
_cell_volume  253.41337343618588
_cell_formula_units_Z  2
loop_
  _symmetry_equiv_pos_site_id
 _symmetry_equiv_pos_as_xyz
 1  'x, y, z'
loop_
 _atom_site_type_symbol
 _atom_site_label
 _atom_site_symmetry_multiplicity
 _atom_site_fract_x
 _atom_site_fract_y
 _atom_site_fract_z
 _atom_site_fract_occupancy
 C  C1  1  0.91574  0.08426  0.25000  1
 C  C2  1  0.08426  0.91574  0.75000  1
 Na  Na1  1  0.43471  0.82924  0.39005  1
 Na  Na2  1  0.17076  0.56529  0.10995  1
 Na  Na3  1  0.82924  0.43471  0.89005  1
 Na  Na4  1  0.56529  0.17076  0.60995  1
 S  S1  1  0.64187  0.35813  0.25000  1
 S  S2  1  0.35813  0.64187  0.75000  1
 S  S3  1  0.92133  0.81396  0.39039  1
 S  S4  1  0.18604  0.07867  0.10961  1
 S  S5  1  0.07867  0.18604  0.60961  1
 S  S6  1  0.81396  0.92133  0.89039  1
