CIF file written using JARVIS-Tools package.
data_TmAsO4
_symmetry_space_group_name_H-M  'P2_1/c'
_cell_length_a       6.65179
_cell_length_b       6.91772
_cell_length_c       8.02758
_cell_angle_alpha    90
_cell_angle_beta     127.474
_cell_angle_gamma    90

_symmetry_Int_Tables_number  14
_chemical_formula_structural  TmAsO4
_chemical_formula_sum  Tm4As4O6
_cell_volume  293.1608492036544
_cell_formula_units_Z  4
loop_
  _symmetry_equiv_pos_site_id
 _symmetry_equiv_pos_as_xyz
 1  'x, y, z'
loop_
 _atom_site_type_symbol
 _atom_site_label
 _atom_site_symmetry_multiplicity
 _atom_site_fract_x
 _atom_site_fract_y
 _atom_site_fract_z
 _atom_site_fract_occupancy
 As  As1  1  0.31331  0.84174  0.20158  1
 As  As2  1  0.68669  0.34174  0.29842  1
 As  As3  1  0.31331  0.65826  0.70158  1
 As  As4  1  0.68669  0.15826  0.79842  1
 O  O1  1  0.84626  0.99128  0.75995  1
 O  O2  1  0.36193  0.89807  0.01952  1
 O  O3  1  0.37470  0.28745  0.10164  1
 O  O4  1  0.11678  0.64510  0.09809  1
 O  O5  1  0.62530  0.71255  0.89836  1
 O  O6  1  0.62530  0.78745  0.39836  1
 O  O7  1  0.15374  0.00872  0.24005  1
 O  O8  1  0.84626  0.50872  0.25995  1
 O  O9  1  0.63807  0.39807  0.48048  1
 O  O10  1  0.63807  0.10193  0.98048  1
 O  O11  1  0.11678  0.85490  0.59809  1
 O  O12  1  0.88322  0.14510  0.40191  1
 O  O13  1  0.37470  0.21255  0.60164  1
 O  O14  1  0.15374  0.49128  0.74005  1
 O  O15  1  0.88322  0.35490  0.90191  1
 O  O16  1  0.36193  0.60193  0.51952  1
 Tm  Tm1  1  0.19443  0.14149  0.77550  1
 Tm  Tm2  1  0.80557  0.64149  0.72450  1
 Tm  Tm3  1  0.19443  0.35851  0.27550  1
 Tm  Tm4  1  0.80557  0.85851  0.22450  1
