CIF file written using JARVIS-Tools package.
data_ZnB2H8
_symmetry_space_group_name_H-M  'Pmc2_1'
_cell_length_a       4.26552
_cell_length_b       5.18454
_cell_length_c       8.17282
_cell_angle_alpha    90
_cell_angle_beta     90
_cell_angle_gamma    90

_symmetry_Int_Tables_number  26
_chemical_formula_structural  ZnB2H8
_chemical_formula_sum  Zn2B4H6
_cell_volume  180.7396215979573
_cell_formula_units_Z  2
loop_
  _symmetry_equiv_pos_site_id
 _symmetry_equiv_pos_as_xyz
 1  'x, y, z'
loop_
 _atom_site_type_symbol
 _atom_site_label
 _atom_site_symmetry_multiplicity
 _atom_site_fract_x
 _atom_site_fract_y
 _atom_site_fract_z
 _atom_site_fract_occupancy
 B  B1  1  0.50000  0.93036  0.47272  1
 B  B2  1  0.00000  0.54212  0.24610  1
 B  B3  1  0.00000  0.45788  0.74610  1
 B  B4  1  0.50000  0.06964  0.97272  1
 H  H1  1  0.24708  0.51324  0.67794  1
 H  H2  1  0.50000  0.29060  0.92042  1
 H  H3  1  0.72095  0.02818  0.07051  1
 H  H4  1  0.75292  0.48676  0.17794  1
 H  H5  1  0.00000  0.22294  0.75632  1
 H  H6  1  0.27905  0.97182  0.57051  1
 H  H7  1  0.24708  0.48676  0.17794  1
 H  H8  1  0.00000  0.41507  0.37574  1
 H  H9  1  0.75292  0.51324  0.67794  1
 H  H10  1  0.50000  0.08539  0.36325  1
 H  H11  1  0.27905  0.02818  0.07051  1
 H  H12  1  0.50000  0.91461  0.86325  1
 H  H13  1  0.50000  0.70940  0.42042  1
 H  H14  1  0.00000  0.58493  0.87574  1
 H  H15  1  0.72095  0.97182  0.57051  1
 H  H16  1  0.00000  0.77706  0.25632  1
 Zn  Zn1  1  0.00000  0.71252  0.50959  1
 Zn  Zn2  1  0.00000  0.28748  0.00959  1
