CIF file written using JARVIS-Tools package.
data_Dy3CuSiSe7
_symmetry_space_group_name_H-M  'P6_3'
_cell_length_a       10.2978
_cell_length_b       10.2977
_cell_length_c       6.00467
_cell_angle_alpha    90
_cell_angle_beta     90
_cell_angle_gamma    120

_symmetry_Int_Tables_number  173
_chemical_formula_structural  Dy3CuSiSe7
_chemical_formula_sum  Dy6Cu2Si2Se4
_cell_volume  551.4479307545206
_cell_formula_units_Z  2
loop_
  _symmetry_equiv_pos_site_id
 _symmetry_equiv_pos_as_xyz
 1  'x, y, z'
loop_
 _atom_site_type_symbol
 _atom_site_label
 _atom_site_symmetry_multiplicity
 _atom_site_fract_x
 _atom_site_fract_y
 _atom_site_fract_z
 _atom_site_fract_occupancy
 Cu  Cu1  1  0.00000  0.00000  0.69177  1
 Cu  Cu2  1  0.00000  0.00000  0.19177  1
 Dy  Dy1  1  0.35649  0.22258  0.24081  1
 Dy  Dy2  1  0.13391  0.35649  0.74081  1
 Dy  Dy3  1  0.22258  0.86609  0.74081  1
 Dy  Dy4  1  0.86609  0.64351  0.24081  1
 Dy  Dy5  1  0.64351  0.77742  0.74081  1
 Dy  Dy6  1  0.77742  0.13391  0.24081  1
 Se  Se1  1  0.66667  0.33333  0.45086  1
 Se  Se2  1  0.52127  0.09872  0.98462  1
 Se  Se3  1  0.33333  0.66667  0.95086  1
 Se  Se4  1  0.89903  0.73684  0.70975  1
 Se  Se5  1  0.26316  0.16219  0.70975  1
 Se  Se6  1  0.90128  0.42255  0.98462  1
 Se  Se7  1  0.10097  0.26316  0.20975  1
 Se  Se8  1  0.83781  0.10097  0.70975  1
 Se  Se9  1  0.57745  0.47873  0.98462  1
 Se  Se10  1  0.42255  0.52127  0.48462  1
 Se  Se11  1  0.16219  0.89903  0.20975  1
 Se  Se12  1  0.73684  0.83781  0.20975  1
 Se  Se13  1  0.09872  0.57745  0.48462  1
 Se  Se14  1  0.47873  0.90128  0.48462  1
 Si  Si1  1  0.66667  0.33333  0.82909  1
 Si  Si2  1  0.33333  0.66667  0.32909  1
