CIF file written using JARVIS-Tools package.
data_CuHO2
_symmetry_space_group_name_H-M  'Pmn2_1'
_cell_length_a       2.79659
_cell_length_b       4.38946
_cell_length_c       5.66511
_cell_angle_alpha    90
_cell_angle_beta     90
_cell_angle_gamma    90

_symmetry_Int_Tables_number  31
_chemical_formula_structural  CuHO2
_chemical_formula_sum  Cu2H2O4
_cell_volume  69.54206123527746
_cell_formula_units_Z  2
loop_
  _symmetry_equiv_pos_site_id
 _symmetry_equiv_pos_as_xyz
 1  'x, y, z'
loop_
 _atom_site_type_symbol
 _atom_site_label
 _atom_site_symmetry_multiplicity
 _atom_site_fract_x
 _atom_site_fract_y
 _atom_site_fract_z
 _atom_site_fract_occupancy
 Cu  Cu1  1  0.50000  0.78575  0.23727  1
 Cu  Cu2  1  0.00000  0.28575  0.76273  1
 H  H1  1  0.00000  0.33008  0.26264  1
 H  H2  1  0.50000  0.83008  0.73736  1
 O  O1  1  0.50000  0.03895  0.64626  1
 O  O2  1  0.00000  0.53895  0.35374  1
 O  O3  1  0.50000  0.53160  0.86521  1
 O  O4  1  0.00000  0.03160  0.13479  1
