CIF file written using JARVIS-Tools package.
data_NiH2O2
_symmetry_space_group_name_H-M  'P-3m1'
_cell_length_a       3.19735
_cell_length_b       3.1938
_cell_length_c       4.39022
_cell_angle_alpha    90
_cell_angle_beta     90.1034
_cell_angle_gamma    119.963

_symmetry_Int_Tables_number  164
_chemical_formula_structural  NiH2O2
_chemical_formula_sum  NiH2O2
_cell_volume  38.83956256701503
_cell_formula_units_Z  1
loop_
  _symmetry_equiv_pos_site_id
 _symmetry_equiv_pos_as_xyz
 1  'x, y, z'
loop_
 _atom_site_type_symbol
 _atom_site_label
 _atom_site_symmetry_multiplicity
 _atom_site_fract_x
 _atom_site_fract_y
 _atom_site_fract_z
 _atom_site_fract_occupancy
 H  H1  1  0.66671  0.26994  0.56010  1
 H  H2  1  0.33329  0.60322  0.43990  1
 Ni  Ni1  1  -0.00000  0.93664  0.00000  1
 O  O1  1  0.66657  0.26991  0.78456  1
 O  O2  1  0.33343  0.60334  0.21544  1
