CIF file written using JARVIS-Tools package.
data_BaNiO2
_symmetry_space_group_name_H-M  'Cmcm'
_cell_length_a       4.77369
_cell_length_b       5.48793
_cell_length_c       5.48793
_cell_angle_alpha    116.957
_cell_angle_beta     90
_cell_angle_gamma    90

_symmetry_Int_Tables_number  63
_chemical_formula_structural  BaNiO2
_chemical_formula_sum  Ba2Ni2O4
_cell_volume  128.15007748608306
_cell_formula_units_Z  2
loop_
  _symmetry_equiv_pos_site_id
 _symmetry_equiv_pos_as_xyz
 1  'x, y, z'
loop_
 _atom_site_type_symbol
 _atom_site_label
 _atom_site_symmetry_multiplicity
 _atom_site_fract_x
 _atom_site_fract_y
 _atom_site_fract_z
 _atom_site_fract_occupancy
 Ba  Ba1  1  0.75000  0.34472  0.65528  1
 Ba  Ba2  1  0.25000  0.65528  0.34472  1
 Ni  Ni1  1  0.50000  0.00000  0.00000  1
 Ni  Ni2  1  0.00000  0.00000  0.00000  1
 O  O1  1  0.75000  0.86080  0.69752  1
 O  O2  1  0.25000  0.13920  0.30248  1
 O  O3  1  0.75000  0.30248  0.13920  1
 O  O4  1  0.25000  0.69752  0.86080  1
