CIF file written using JARVIS-Tools package.
data_Li5CrCl8
_symmetry_space_group_name_H-M  'Cmmm'
_cell_length_a       6.18671
_cell_length_b       6.18671
_cell_length_c       7.195
_cell_angle_alpha    90
_cell_angle_beta     90
_cell_angle_gamma    109.169

_symmetry_Int_Tables_number  65
_chemical_formula_structural  Li5CrCl8
_chemical_formula_sum  Li5CrCl8
_cell_volume  260.12178397838613
_cell_formula_units_Z  1
loop_
  _symmetry_equiv_pos_site_id
 _symmetry_equiv_pos_as_xyz
 1  'x, y, z'
loop_
 _atom_site_type_symbol
 _atom_site_label
 _atom_site_symmetry_multiplicity
 _atom_site_fract_x
 _atom_site_fract_y
 _atom_site_fract_z
 _atom_site_fract_occupancy
 Cl  Cl1  1  0.26677  0.26677  0.26788  1
 Cl  Cl2  1  0.73323  0.73323  0.26788  1
 Cl  Cl3  1  0.26543  0.73457  0.50000  1
 Cl  Cl4  1  0.26677  0.26677  0.73212  1
 Cl  Cl5  1  0.73323  0.73323  0.73212  1
 Cl  Cl6  1  0.25047  0.74953  0.00000  1
 Cl  Cl7  1  0.73457  0.26543  0.50000  1
 Cl  Cl8  1  0.74953  0.25047  0.00000  1
 Cr  Cr1  1  0.50000  0.50000  0.50000  1
 Li  Li1  1  0.50000  -0.00000  0.23324  1
 Li  Li2  1  -0.00000  0.50000  0.76676  1
 Li  Li3  1  0.50000  -0.00000  0.76676  1
 Li  Li4  1  -0.00000  0.50000  0.23324  1
 Li  Li5  1  0.50000  0.50000  0.00000  1
