CIF file written using JARVIS-Tools package.
data_YTiF5
_symmetry_space_group_name_H-M  'Immm'
_cell_length_a       4.16107
_cell_length_b       5.79996
_cell_length_c       5.79996
_cell_angle_alpha    72.4065
_cell_angle_beta     68.9787
_cell_angle_gamma    68.9787

_symmetry_Int_Tables_number  71
_chemical_formula_structural  YTiF5
_chemical_formula_sum  YTiF5
_cell_volume  119.51957531835404
_cell_formula_units_Z  1
loop_
  _symmetry_equiv_pos_site_id
 _symmetry_equiv_pos_as_xyz
 1  'x, y, z'
loop_
 _atom_site_type_symbol
 _atom_site_label
 _atom_site_symmetry_multiplicity
 _atom_site_fract_x
 _atom_site_fract_y
 _atom_site_fract_z
 _atom_site_fract_occupancy
 F  F1  1  0.50000  0.82191  0.17809  1
 F  F2  1  0.50000  0.17809  0.82191  1
 F  F3  1  0.76047  0.23953  0.23953  1
 F  F4  1  0.23953  0.76047  0.76047  1
 F  F5  1  -0.00000  0.50000  0.50000  1
 Ti  Ti1  1  0.00000  0.00000  0.00000  1
 Y  Y1  1  0.50000  0.50000  0.50000  1
