CIF file written using JARVIS-Tools package.
data_Na4Mn2O5
_symmetry_space_group_name_H-M  'Fddd'
_cell_length_a       5.51036
_cell_length_b       5.51036
_cell_length_c       10.234
_cell_angle_alpha    98.4795
_cell_angle_beta     98.4795
_cell_angle_gamma    116.89

_symmetry_Int_Tables_number  70
_chemical_formula_structural  Na4Mn2O5
_chemical_formula_sum  Na8Mn4O0
_cell_volume  265.9180664778472
_cell_formula_units_Z  2
loop_
  _symmetry_equiv_pos_site_id
 _symmetry_equiv_pos_as_xyz
 1  'x, y, z'
loop_
 _atom_site_type_symbol
 _atom_site_label
 _atom_site_symmetry_multiplicity
 _atom_site_fract_x
 _atom_site_fract_y
 _atom_site_fract_z
 _atom_site_fract_occupancy
 Mn  Mn1  1  0.34761  0.65239  0.75000  1
 Mn  Mn2  1  0.09761  0.90239  0.25000  1
 Mn  Mn3  1  0.90239  0.09761  0.75000  1
 Mn  Mn4  1  0.65239  0.34761  0.25000  1
 Na  Na1  1  0.96636  0.71626  0.92881  1
 Na  Na2  1  0.21255  0.46245  0.42881  1
 Na  Na3  1  0.53755  0.78745  0.07119  1
 Na  Na4  1  0.46245  0.21255  0.92881  1
 Na  Na5  1  0.28374  0.03364  0.57119  1
 Na  Na6  1  0.78745  0.53755  0.57119  1
 Na  Na7  1  0.71626  0.96636  0.42881  1
 Na  Na8  1  0.03364  0.28374  0.07119  1
 O  O1  1  0.69057  0.94057  0.88114  1
 O  O2  1  0.94057  0.69057  0.38114  1
 O  O3  1  0.87500  0.12500  0.25000  1
 O  O4  1  0.30943  0.05943  0.11886  1
 O  O5  1  0.05943  0.30943  0.61886  1
 O  O6  1  0.19156  0.44156  0.88313  1
 O  O7  1  0.55844  0.80844  0.61687  1
 O  O8  1  0.80844  0.55844  0.11687  1
 O  O9  1  0.44156  0.19156  0.38313  1
 O  O10  1  0.12500  0.87500  0.75000  1
