CIF file written using JARVIS-Tools package.
data_Li3Fe2C4O12
_symmetry_space_group_name_H-M  'P1'
_cell_length_a       5.37464
_cell_length_b       6.01403
_cell_length_c       8.30245
_cell_angle_alpha    87.8829
_cell_angle_beta     104.198
_cell_angle_gamma    113.797

_symmetry_Int_Tables_number  1
_chemical_formula_structural  Li3Fe2C4O12
_chemical_formula_sum  Li3Fe2C4O2
_cell_volume  237.4638822099808
_cell_formula_units_Z  1
loop_
  _symmetry_equiv_pos_site_id
 _symmetry_equiv_pos_as_xyz
 1  'x, y, z'
loop_
 _atom_site_type_symbol
 _atom_site_label
 _atom_site_symmetry_multiplicity
 _atom_site_fract_x
 _atom_site_fract_y
 _atom_site_fract_z
 _atom_site_fract_occupancy
 C  C1  1  0.35650  0.42996  0.20805  1
 C  C2  1  0.93049  0.90360  0.30216  1
 C  C3  1  0.72129  0.10929  0.69926  1
 C  C4  1  0.73551  0.61155  0.79060  1
 Fe  Fe1  1  0.67253  0.48757  0.48642  1
 Fe  Fe2  1  0.88172  0.03723  0.01128  1
 Li  Li1  1  0.44508  0.89330  0.34229  1
 Li  Li2  1  0.17150  -0.03671  0.67701  1
 Li  Li3  1  0.25057  0.48894  0.84421  1
 O  O1  1  0.17598  0.37773  0.06334  1
 O  O2  1  0.49938  0.53014  0.67617  1
 O  O3  1  0.13020  0.94624  0.23205  1
 O  O4  1  0.71671  0.94398  0.21899  1
 O  O5  1  0.58155  0.39241  0.23599  1
 O  O6  1  0.56457  0.06417  0.80289  1
 O  O7  1  0.62741  0.14194  0.54447  1
 O  O8  1  0.95592  0.61709  0.74758  1
 O  O9  1  0.94178  0.82499  0.45150  1
 O  O10  1  0.97398  0.12237  0.75736  1
 O  O11  1  0.31343  0.51892  0.33465  1
 O  O12  1  0.73961  0.68498  0.93398  1
