CIF file written using JARVIS-Tools package.
data_Li2Ti3O7
_symmetry_space_group_name_H-M  'C2/c'
_cell_length_a       5.69734
_cell_length_b       5.69734
_cell_length_c       10.4891
_cell_angle_alpha    89.5499
_cell_angle_beta     90.4501
_cell_angle_gamma    128.831

_symmetry_Int_Tables_number  15
_chemical_formula_structural  Li2Ti3O7
_chemical_formula_sum  Li4Ti6O4
_cell_volume  265.21662444745425
_cell_formula_units_Z  2
loop_
  _symmetry_equiv_pos_site_id
 _symmetry_equiv_pos_as_xyz
 1  'x, y, z'
loop_
 _atom_site_type_symbol
 _atom_site_label
 _atom_site_symmetry_multiplicity
 _atom_site_fract_x
 _atom_site_fract_y
 _atom_site_fract_z
 _atom_site_fract_occupancy
 Li  Li1  1  0.53239  0.82826  0.81407  1
 Li  Li2  1  0.17174  0.46761  0.31407  1
 Li  Li3  1  0.82826  0.53239  0.68593  1
 Li  Li4  1  0.46761  0.17174  0.18593  1
 O  O1  1  0.12641  0.75431  0.83690  1
 O  O2  1  0.75431  0.12641  0.66310  1
 O  O3  1  0.91741  0.12615  0.92675  1
 O  O4  1  0.33629  0.59816  0.51965  1
 O  O5  1  0.87385  0.08259  0.42675  1
 O  O6  1  0.24569  0.87359  0.33690  1
 O  O7  1  0.40184  0.66371  0.01965  1
 O  O8  1  0.59816  0.33629  0.98035  1
 O  O9  1  0.61967  0.61967  0.25000  1
 O  O10  1  0.66371  0.40184  0.48035  1
 O  O11  1  0.38033  0.38033  0.75000  1
 O  O12  1  0.08259  0.87385  0.07325  1
 O  O13  1  0.12615  0.91741  0.57325  1
 O  O14  1  0.87359  0.24569  0.16310  1
 Ti  Ti1  1  0.50000  0.00000  0.50000  1
 Ti  Ti2  1  0.87977  0.75878  0.39521  1
 Ti  Ti3  1  0.75878  0.87977  0.10479  1
 Ti  Ti4  1  0.24122  0.12023  0.89521  1
 Ti  Ti5  1  0.12023  0.24122  0.60479  1
 Ti  Ti6  1  0.00000  0.50000  -0.00000  1
