CIF file written using JARVIS-Tools package.
data_CaFeO2
_symmetry_space_group_name_H-M  'P4/mmm'
_cell_length_a       3.18361
_cell_length_b       3.83018
_cell_length_c       3.83018
_cell_angle_alpha    89.9981
_cell_angle_beta     89.9995
_cell_angle_gamma    90.0001

_symmetry_Int_Tables_number  123
_chemical_formula_structural  CaFeO2
_chemical_formula_sum  CaFeO2
_cell_volume  46.70450652674628
_cell_formula_units_Z  1
loop_
  _symmetry_equiv_pos_site_id
 _symmetry_equiv_pos_as_xyz
 1  'x, y, z'
loop_
 _atom_site_type_symbol
 _atom_site_label
 _atom_site_symmetry_multiplicity
 _atom_site_fract_x
 _atom_site_fract_y
 _atom_site_fract_z
 _atom_site_fract_occupancy
 Ca  Ca1  1  0.49870  0.49926  0.50074  1
 Fe  Fe1  1  0.99867  0.99923  0.00078  1
 O  O1  1  0.99867  0.49923  0.00077  1
 O  O2  1  -0.00132  0.99923  0.50077  1
