CIF file written using JARVIS-Tools package.
data_MoW2Se6
_symmetry_space_group_name_H-M  'R3m'
_cell_length_a       3.32946
_cell_length_b       3.32947
_cell_length_c       19.9112
_cell_angle_alpha    94.8342
_cell_angle_beta     90
_cell_angle_gamma    120

_symmetry_Int_Tables_number  160
_chemical_formula_structural  MoW2Se6
_chemical_formula_sum  MoW2Se6
_cell_volume  190.2447574268331
_cell_formula_units_Z  1
loop_
  _symmetry_equiv_pos_site_id
 _symmetry_equiv_pos_as_xyz
 1  'x, y, z'
loop_
 _atom_site_type_symbol
 _atom_site_label
 _atom_site_symmetry_multiplicity
 _atom_site_fract_x
 _atom_site_fract_y
 _atom_site_fract_z
 _atom_site_fract_occupancy
 Mo  Mo1  1  0.22190  0.44381  0.01344  1
 Se  Se1  1  0.36184  0.72367  0.43158  1
 Se  Se2  1  0.52687  0.05374  -0.07091  1
 Se  Se3  1  0.74955  0.49910  0.59591  1
 Se  Se4  1  0.58363  0.16726  0.09788  1
 Se  Se5  1  0.80662  0.61325  0.76563  1
 Se  Se6  1  0.30478  0.60956  0.26184  1
 W  W1  1  0.44476  0.88951  0.68077  1
 W  W2  1  0.66665  0.33330  0.34671  1
