CIF file written using JARVIS-Tools package.
data_P4S3
_symmetry_space_group_name_H-M  'Pnma'
_cell_length_a       6.45498
_cell_length_b       9.71741
_cell_length_c       10.9062
_cell_angle_alpha    90
_cell_angle_beta     90
_cell_angle_gamma    90

_symmetry_Int_Tables_number  62
_chemical_formula_structural  P4S3
_chemical_formula_sum  P6S2
_cell_volume  684.0981606191281
_cell_formula_units_Z  4
loop_
  _symmetry_equiv_pos_site_id
 _symmetry_equiv_pos_as_xyz
 1  'x, y, z'
loop_
 _atom_site_type_symbol
 _atom_site_label
 _atom_site_symmetry_multiplicity
 _atom_site_fract_x
 _atom_site_fract_y
 _atom_site_fract_z
 _atom_site_fract_occupancy
 P  P1  1  0.27402  0.36773  0.93065  1
 P  P2  1  0.17632  0.75000  0.17612  1
 P  P3  1  0.77402  0.63227  0.56935  1
 P  P4  1  0.22598  0.13227  0.43065  1
 P  P5  1  0.32368  0.75000  0.67612  1
 P  P6  1  0.82368  0.25000  0.82388  1
 P  P7  1  0.67632  0.25000  0.32388  1
 P  P8  1  0.22598  0.36773  0.43065  1
 P  P9  1  0.72598  0.86773  0.06935  1
 P  P10  1  0.10621  0.25000  0.08023  1
 P  P11  1  0.39379  0.25000  0.58023  1
 P  P12  1  0.89379  0.75000  0.91977  1
 P  P13  1  0.72598  0.63227  0.06935  1
 P  P14  1  0.77402  0.86773  0.56935  1
 P  P15  1  0.27402  0.13227  0.93065  1
 P  P16  1  0.60621  0.75000  0.41977  1
 S  S1  1  0.79483  0.25000  0.01850  1
 S  S2  1  0.46431  0.41701  0.30418  1
 S  S3  1  0.96431  0.91701  0.19582  1
 S  S4  1  0.03569  0.41701  0.80418  1
 S  S5  1  0.53569  0.58299  0.69582  1
 S  S6  1  0.53569  0.91701  0.69582  1
 S  S7  1  0.03569  0.08299  0.80418  1
 S  S8  1  0.20517  0.75000  0.98150  1
 S  S9  1  0.70517  0.25000  0.51850  1
 S  S10  1  0.96431  0.58299  0.19582  1
 S  S11  1  0.46431  0.08299  0.30418  1
 S  S12  1  0.29483  0.75000  0.48150  1
