CIF file written using JARVIS-Tools package.
data_TiAs2
_symmetry_space_group_name_H-M  'Pnnm'
_cell_length_a       3.51565
_cell_length_b       8.98546
_cell_length_c       13.336
_cell_angle_alpha    90
_cell_angle_beta     90
_cell_angle_gamma    90

_symmetry_Int_Tables_number  58
_chemical_formula_structural  TiAs2
_chemical_formula_sum  Ti8As6
_cell_volume  421.27938692555506
_cell_formula_units_Z  8
loop_
  _symmetry_equiv_pos_site_id
 _symmetry_equiv_pos_as_xyz
 1  'x, y, z'
loop_
 _atom_site_type_symbol
 _atom_site_label
 _atom_site_symmetry_multiplicity
 _atom_site_fract_x
 _atom_site_fract_y
 _atom_site_fract_z
 _atom_site_fract_occupancy
 As  As1  1  0.00000  0.22567  0.19829  1
 As  As2  1  0.50000  0.48843  0.89940  1
 As  As3  1  0.50000  0.72567  0.30171  1
 As  As4  1  0.00000  0.01157  0.39940  1
 As  As5  1  0.00000  0.83531  0.16101  1
 As  As6  1  0.50000  0.11522  0.05745  1
 As  As7  1  0.50000  0.33531  0.33899  1
 As  As8  1  0.00000  0.77433  0.80171  1
 As  As9  1  0.00000  0.16469  0.83899  1
 As  As10  1  0.00000  0.61522  0.44255  1
 As  As11  1  0.00000  0.38478  0.55745  1
 As  As12  1  0.50000  0.88478  0.94255  1
 As  As13  1  0.00000  0.98843  0.60060  1
 As  As14  1  0.50000  0.27433  0.69829  1
 As  As15  1  0.50000  0.51157  0.10060  1
 As  As16  1  0.50000  0.66469  0.66101  1
 Ti  Ti1  1  0.00000  0.32807  0.00696  1
 Ti  Ti2  1  0.50000  0.01840  0.25213  1
 Ti  Ti3  1  0.50000  0.17193  0.50696  1
 Ti  Ti4  1  0.50000  0.98160  0.74787  1
 Ti  Ti5  1  0.50000  0.82807  0.49304  1
 Ti  Ti6  1  0.00000  0.48160  0.75213  1
 Ti  Ti7  1  0.00000  0.51840  0.24787  1
 Ti  Ti8  1  0.00000  0.67193  0.99304  1
