CIF file written using JARVIS-Tools package.
data_As2Rh
_symmetry_space_group_name_H-M  'P2_1/c'
_cell_length_a       6.15545
_cell_length_b       6.16659
_cell_length_c       6.24288
_cell_angle_alpha    90
_cell_angle_beta     114.292
_cell_angle_gamma    90

_symmetry_Int_Tables_number  14
_chemical_formula_structural  As2Rh
_chemical_formula_sum  As8Rh4
_cell_volume  215.98697433434077
_cell_formula_units_Z  4
loop_
  _symmetry_equiv_pos_site_id
 _symmetry_equiv_pos_as_xyz
 1  'x, y, z'
loop_
 _atom_site_type_symbol
 _atom_site_label
 _atom_site_symmetry_multiplicity
 _atom_site_fract_x
 _atom_site_fract_y
 _atom_site_fract_z
 _atom_site_fract_occupancy
 As  As1  1  0.84396  0.12879  0.13055  1
 As  As2  1  0.15604  0.62879  0.36945  1
 As  As3  1  0.15604  0.87121  0.86945  1
 As  As4  1  0.84396  0.37121  0.63055  1
 As  As5  1  0.66142  0.62977  0.81853  1
 As  As6  1  0.33858  0.12977  0.68147  1
 As  As7  1  0.33858  0.37023  0.18147  1
 As  As8  1  0.66142  0.87023  0.31853  1
 Rh  Rh1  1  0.72792  0.50060  0.21135  1
 Rh  Rh2  1  0.27208  0.00060  0.28865  1
 Rh  Rh3  1  0.27208  0.49940  0.78865  1
 Rh  Rh4  1  0.72792  0.99940  0.71135  1
