CIF file written using JARVIS-Tools package.
data_Mg2MnIrO6
_symmetry_space_group_name_H-M  'P2_1/c'
_cell_length_a       5.04495
_cell_length_b       5.25377
_cell_length_c       8.95364
_cell_angle_alpha    90
_cell_angle_beta     124.044
_cell_angle_gamma    90

_symmetry_Int_Tables_number  14
_chemical_formula_structural  Mg2MnIrO6
_chemical_formula_sum  Mg4Mn2Ir2O2
_cell_volume  196.64258661892913
_cell_formula_units_Z  2
loop_
  _symmetry_equiv_pos_site_id
 _symmetry_equiv_pos_as_xyz
 1  'x, y, z'
loop_
 _atom_site_type_symbol
 _atom_site_label
 _atom_site_symmetry_multiplicity
 _atom_site_fract_x
 _atom_site_fract_y
 _atom_site_fract_z
 _atom_site_fract_occupancy
 Ir  Ir1  1  0.50000  0.50000  0.50000  1
 Ir  Ir2  1  0.50000  0.00000  0.00000  1
 Mg  Mg1  1  0.23999  0.93925  0.25105  1
 Mg  Mg2  1  0.76001  0.43925  0.24895  1
 Mg  Mg3  1  0.23999  0.56075  0.75105  1
 Mg  Mg4  1  0.76001  0.06075  0.74895  1
 Mn  Mn1  1  0.00000  0.50000  0.00000  1
 Mn  Mn2  1  -0.00000  0.00000  0.50000  1
 O  O1  1  0.62303  0.43049  0.75626  1
 O  O2  1  0.75157  0.82217  0.56614  1
 O  O3  1  0.24843  0.17783  0.43386  1
 O  O4  1  0.75157  0.67783  0.06614  1
 O  O5  1  0.89891  0.19351  0.07229  1
 O  O6  1  0.24843  0.32217  0.93386  1
 O  O7  1  0.62303  0.06951  0.25626  1
 O  O8  1  0.89891  0.30649  0.57229  1
 O  O9  1  0.10109  0.69351  0.42771  1
 O  O10  1  0.10109  0.80649  0.92771  1
 O  O11  1  0.37697  0.93049  0.74374  1
 O  O12  1  0.37697  0.56951  0.24374  1
