CIF file written using JARVIS-Tools package.
data_Mn2RuC6N6
_symmetry_space_group_name_H-M  'P-31m'
_cell_length_a       5.99936
_cell_length_b       5.99936
_cell_length_c       6.79512
_cell_angle_alpha    90
_cell_angle_beta     90
_cell_angle_gamma    120

_symmetry_Int_Tables_number  162
_chemical_formula_structural  Mn2RuC6N6
_chemical_formula_sum  Mn2RuC6N6
_cell_volume  211.8062445102871
_cell_formula_units_Z  1
loop_
  _symmetry_equiv_pos_site_id
 _symmetry_equiv_pos_as_xyz
 1  'x, y, z'
loop_
 _atom_site_type_symbol
 _atom_site_label
 _atom_site_symmetry_multiplicity
 _atom_site_fract_x
 _atom_site_fract_y
 _atom_site_fract_z
 _atom_site_fract_occupancy
 C  C1  1  0.25955  0.00000  0.81386  1
 C  C2  1  0.74045  -0.00000  0.18614  1
 C  C3  1  -0.00000  0.25955  0.81386  1
 C  C4  1  0.74045  0.74045  0.81386  1
 C  C5  1  0.25955  0.25955  0.18614  1
 C  C6  1  0.00000  0.74045  0.18614  1
 Mn  Mn1  1  0.33333  0.66667  0.50000  1
 Mn  Mn2  1  0.66667  0.33333  0.50000  1
 N  N1  1  0.39022  0.39023  0.31659  1
 N  N2  1  0.00001  0.60978  0.31659  1
 N  N3  1  -0.00001  0.39022  0.68341  1
 N  N4  1  0.60977  -0.00001  0.31659  1
 N  N5  1  0.39023  0.00001  0.68341  1
 N  N6  1  0.60978  0.60977  0.68341  1
 Ru  Ru1  1  0.00000  0.00000  0.00000  1
