CIF file written using JARVIS-Tools package.
data_Li2MnF4
_symmetry_space_group_name_H-M  'Pbam'
_cell_length_a       3.22485
_cell_length_b       9.64795
_cell_length_c       5.02487
_cell_angle_alpha    90
_cell_angle_beta     90.0026
_cell_angle_gamma    90

_symmetry_Int_Tables_number  55
_chemical_formula_structural  Li2MnF4
_chemical_formula_sum  Li4Mn2F8
_cell_volume  156.33975664671243
_cell_formula_units_Z  2
loop_
  _symmetry_equiv_pos_site_id
 _symmetry_equiv_pos_as_xyz
 1  'x, y, z'
loop_
 _atom_site_type_symbol
 _atom_site_label
 _atom_site_symmetry_multiplicity
 _atom_site_fract_x
 _atom_site_fract_y
 _atom_site_fract_z
 _atom_site_fract_occupancy
 F  F1  1  0.00001  0.37348  0.17054  1
 F  F2  1  0.00001  0.12652  0.67054  1
 F  F3  1  0.50000  0.62832  0.34640  1
 F  F4  1  0.50000  0.87168  0.84640  1
 F  F5  1  0.50000  0.12832  0.15360  1
 F  F6  1  0.50000  0.37168  0.65360  1
 F  F7  1  -0.00001  0.87348  0.32946  1
 F  F8  1  -0.00001  0.62652  0.82946  1
 Li  Li1  1  0.50000  0.81828  0.48283  1
 Li  Li2  1  0.50000  0.31828  0.01717  1
 Li  Li3  1  0.50000  0.68172  0.98283  1
 Li  Li4  1  0.50000  0.18172  0.51717  1
 Mn  Mn1  1  0.00000  0.50000  0.50000  1
 Mn  Mn2  1  0.00000  0.00000  0.00000  1
