CIF file written using JARVIS-Tools package.
data_Hg2ClO
_symmetry_space_group_name_H-M  'C2/c'
_cell_length_a       6.0279
_cell_length_b       6.76869
_cell_length_c       9.65252
_cell_angle_alpha    103.527
_cell_angle_beta     90
_cell_angle_gamma    116.441

_symmetry_Int_Tables_number  15
_chemical_formula_structural  Hg2ClO
_chemical_formula_sum  Hg8Cl4O4
_cell_volume  340.3893365088274
_cell_formula_units_Z  4
loop_
  _symmetry_equiv_pos_site_id
 _symmetry_equiv_pos_as_xyz
 1  'x, y, z'
loop_
 _atom_site_type_symbol
 _atom_site_label
 _atom_site_symmetry_multiplicity
 _atom_site_fract_x
 _atom_site_fract_y
 _atom_site_fract_z
 _atom_site_fract_occupancy
 Cl  Cl1  1  0.48724  0.38967  0.14567  1
 Cl  Cl2  1  0.09757  0.61033  0.35433  1
 Cl  Cl3  1  0.51276  0.61033  0.85433  1
 Cl  Cl4  1  0.90243  0.38967  0.64567  1
 Hg  Hg1  1  0.14308  0.89550  0.60376  1
 Hg  Hg2  1  0.24757  0.10450  0.89624  1
 Hg  Hg3  1  0.85692  0.10450  0.39624  1
 Hg  Hg4  1  0.75243  0.89550  0.10376  1
 Hg  Hg5  1  0.59299  0.00000  0.75000  1
 Hg  Hg6  1  0.40701  0.00000  0.25000  1
 Hg  Hg7  1  0.50000  0.50000  0.50000  1
 Hg  Hg8  1  0.00000  0.50000  -0.00000  1
 O  O1  1  0.25409  0.15691  0.43973  1
 O  O2  1  0.09718  0.84309  0.06027  1
 O  O3  1  0.74591  0.84309  0.56027  1
 O  O4  1  0.90282  0.15691  0.93973  1
