CIF file written using JARVIS-Tools package.
data_NaPdO2
_symmetry_space_group_name_H-M  'C2/m'
_cell_length_a       3.33492
_cell_length_b       3.33492
_cell_length_c       5.64259
_cell_angle_alpha    69.3055
_cell_angle_beta     110.695
_cell_angle_gamma    125.326

_symmetry_Int_Tables_number  12
_chemical_formula_structural  NaPdO2
_chemical_formula_sum  NaPdO2
_cell_volume  46.97463596362458
_cell_formula_units_Z  1
loop_
  _symmetry_equiv_pos_site_id
 _symmetry_equiv_pos_as_xyz
 1  'x, y, z'
loop_
 _atom_site_type_symbol
 _atom_site_label
 _atom_site_symmetry_multiplicity
 _atom_site_fract_x
 _atom_site_fract_y
 _atom_site_fract_z
 _atom_site_fract_occupancy
 Na  Na1  1  0.50000  0.50000  0.50000  1
 O  O1  1  0.28386  0.71614  0.78709  1
 O  O2  1  0.71614  0.28386  0.21291  1
 Pd  Pd1  1  0.00000  0.00000  0.00000  1
