CIF file written using JARVIS-Tools package.
data_UMnSe3
_symmetry_space_group_name_H-M  'Cmcm'
_cell_length_a       3.90767
_cell_length_b       5.87544
_cell_length_c       9.15865
_cell_angle_alpha    90
_cell_angle_beta     90
_cell_angle_gamma    109.423

_symmetry_Int_Tables_number  63
_chemical_formula_structural  UMnSe3
_chemical_formula_sum  U2Mn2Se6
_cell_volume  198.30890502129378
_cell_formula_units_Z  2
loop_
  _symmetry_equiv_pos_site_id
 _symmetry_equiv_pos_as_xyz
 1  'x, y, z'
loop_
 _atom_site_type_symbol
 _atom_site_label
 _atom_site_symmetry_multiplicity
 _atom_site_fract_x
 _atom_site_fract_y
 _atom_site_fract_z
 _atom_site_fract_occupancy
 Mn  Mn1  1  0.00000  0.00000  0.50000  1
 Mn  Mn2  1  0.00000  0.00000  0.00000  1
 Se  Se1  1  0.07800  0.15600  0.75000  1
 Se  Se2  1  0.92200  0.84400  0.25000  1
 Se  Se3  1  0.36430  0.72861  0.96039  1
 Se  Se4  1  0.63570  0.27139  0.03961  1
 Se  Se5  1  0.63570  0.27139  0.46039  1
 Se  Se6  1  0.36430  0.72861  0.53961  1
 U  U1  1  0.22210  0.44420  0.25000  1
 U  U2  1  0.77790  0.55580  0.75000  1
