CIF file written using JARVIS-Tools package.
data_CrSnP2O8
_symmetry_space_group_name_H-M  'P2_1/m'
_cell_length_a       4.88349
_cell_length_b       6.00263
_cell_length_c       9.90029
_cell_angle_alpha    90
_cell_angle_beta     91.4107
_cell_angle_gamma    90

_symmetry_Int_Tables_number  11
_chemical_formula_structural  CrSnP2O8
_chemical_formula_sum  Cr2Sn2P4O6
_cell_volume  290.1268005541507
_cell_formula_units_Z  2
loop_
  _symmetry_equiv_pos_site_id
 _symmetry_equiv_pos_as_xyz
 1  'x, y, z'
loop_
 _atom_site_type_symbol
 _atom_site_label
 _atom_site_symmetry_multiplicity
 _atom_site_fract_x
 _atom_site_fract_y
 _atom_site_fract_z
 _atom_site_fract_occupancy
 Cr  Cr1  1  0.58891  0.25000  0.22209  1
 Cr  Cr2  1  0.41109  0.75000  0.77791  1
 O  O1  1  0.32346  0.25000  0.07020  1
 O  O2  1  0.31288  0.75000  0.10179  1
 O  O3  1  0.76789  0.95271  0.15702  1
 O  O4  1  0.68712  0.25000  0.89821  1
 O  O5  1  0.30724  0.04956  0.33764  1
 O  O6  1  0.30724  0.45044  0.33764  1
 O  O7  1  0.76789  0.54729  0.15702  1
 O  O8  1  0.78873  0.75000  0.43876  1
 O  O9  1  0.21127  0.25000  0.56124  1
 O  O10  1  0.15060  0.75000  0.62299  1
 O  O11  1  0.69276  0.95044  0.66236  1
 O  O12  1  0.69276  0.54956  0.66236  1
 O  O13  1  0.23211  0.45271  0.84298  1
 O  O14  1  0.23211  0.04729  0.84298  1
 O  O15  1  0.84940  0.25000  0.37701  1
 O  O16  1  0.67654  0.75000  0.92980  1
 P  P1  1  0.37719  0.25000  0.91928  1
 P  P2  1  0.84402  0.75000  0.59141  1
 P  P3  1  0.15598  0.25000  0.40859  1
 P  P4  1  0.62281  0.75000  0.08072  1
 Sn  Sn1  1  0.91855  0.25000  0.72269  1
 Sn  Sn2  1  0.08145  0.75000  0.27731  1
