CIF file written using JARVIS-Tools package.
data_Te2MoW3Se6
_symmetry_space_group_name_H-M  'P3m1'
_cell_length_a       3.38318
_cell_length_b       3.38319
_cell_length_c       33.7771
_cell_angle_alpha    89.997
_cell_angle_beta     90
_cell_angle_gamma    120

_symmetry_Int_Tables_number  156
_chemical_formula_structural  Te2MoW3Se6
_chemical_formula_sum  Te2MoW3Se6
_cell_volume  334.8160714004571
_cell_formula_units_Z  1
loop_
  _symmetry_equiv_pos_site_id
 _symmetry_equiv_pos_as_xyz
 1  'x, y, z'
loop_
 _atom_site_type_symbol
 _atom_site_label
 _atom_site_symmetry_multiplicity
 _atom_site_fract_x
 _atom_site_fract_y
 _atom_site_fract_z
 _atom_site_fract_occupancy
 Mo  Mo1  1  0.33359  0.66717  0.07562  1
 Se  Se1  1  0.33267  0.66533  0.33059  1
 Se  Se2  1  0.33274  0.66547  0.71943  1
 Se  Se3  1  0.66769  0.33539  0.42645  1
 Se  Se4  1  0.66769  0.33538  0.52488  1
 Se  Se5  1  0.33269  0.66538  0.23215  1
 Se  Se6  1  0.33270  0.66540  0.62103  1
 Te  Te1  1  0.66697  0.33394  0.01992  1
 Te  Te2  1  0.66683  0.33365  0.13139  1
 W  W1  1  0.33437  0.66874  0.47566  1
 W  W2  1  0.66602  0.33203  0.28138  1
 W  W3  1  0.66606  0.33212  0.67026  1
