CIF file written using JARVIS-Tools package.
data_SrTeO4
_symmetry_space_group_name_H-M  'Pbcn'
_cell_length_a       5.08724
_cell_length_b       5.60262
_cell_length_c       13.2449
_cell_angle_alpha    90
_cell_angle_beta     90
_cell_angle_gamma    90

_symmetry_Int_Tables_number  60
_chemical_formula_structural  SrTeO4
_chemical_formula_sum  Sr4Te4O6
_cell_volume  377.5040328191891
_cell_formula_units_Z  4
loop_
  _symmetry_equiv_pos_site_id
 _symmetry_equiv_pos_as_xyz
 1  'x, y, z'
loop_
 _atom_site_type_symbol
 _atom_site_label
 _atom_site_symmetry_multiplicity
 _atom_site_fract_x
 _atom_site_fract_y
 _atom_site_fract_z
 _atom_site_fract_occupancy
 O  O1  1  0.42788  0.80904  0.95783  1
 O  O2  1  0.13178  0.28302  0.66841  1
 O  O3  1  0.63178  0.21698  0.83159  1
 O  O4  1  0.86822  0.78302  0.83159  1
 O  O5  1  0.57212  0.19096  0.04217  1
 O  O6  1  0.86822  0.71698  0.33159  1
 O  O7  1  0.36822  0.78302  0.16841  1
 O  O8  1  0.36822  0.71698  0.66841  1
 O  O9  1  0.63178  0.28302  0.33159  1
 O  O10  1  0.57212  0.30904  0.54217  1
 O  O11  1  0.07212  0.19096  0.95783  1
 O  O12  1  0.07212  0.30904  0.45783  1
 O  O13  1  0.92788  0.69096  0.54217  1
 O  O14  1  0.42788  0.69096  0.45783  1
 O  O15  1  0.92788  0.80904  0.04217  1
 O  O16  1  0.13178  0.21698  0.16841  1
 Sr  Sr1  1  0.75000  0.50000  0.16568  1
 Sr  Sr2  1  0.25000  0.00000  0.33432  1
 Sr  Sr3  1  0.25000  0.50000  0.83432  1
 Sr  Sr4  1  0.75000  0.00000  0.66568  1
 Te  Te1  1  0.75000  0.00000  0.92915  1
 Te  Te2  1  0.25000  0.50000  0.57085  1
 Te  Te3  1  0.25000  0.00000  0.07085  1
 Te  Te4  1  0.75000  0.50000  0.42915  1
