CIF file written using JARVIS-Tools package.
data_CaCrF6
_symmetry_space_group_name_H-M  'R-3'
_cell_length_a       5.65867
_cell_length_b       5.65867
_cell_length_c       5.65867
_cell_angle_alpha    54.2503
_cell_angle_beta     54.2503
_cell_angle_gamma    54.2503

_symmetry_Int_Tables_number  148
_chemical_formula_structural  CaCrF6
_chemical_formula_sum  CaCrF6
_cell_volume  110.93246279579074
_cell_formula_units_Z  1
loop_
  _symmetry_equiv_pos_site_id
 _symmetry_equiv_pos_as_xyz
 1  'x, y, z'
loop_
 _atom_site_type_symbol
 _atom_site_label
 _atom_site_symmetry_multiplicity
 _atom_site_fract_x
 _atom_site_fract_y
 _atom_site_fract_z
 _atom_site_fract_occupancy
 Ca  Ca1  1  0.00000  0.00000  0.00000  1
 Cr  Cr1  1  0.50000  0.50000  0.50000  1
 F  F1  1  0.13406  0.42766  0.71516  1
 F  F2  1  0.42766  0.71516  0.13406  1
 F  F3  1  0.71516  0.13406  0.42766  1
 F  F4  1  0.28484  0.86594  0.57234  1
 F  F5  1  0.57234  0.28484  0.86594  1
 F  F6  1  0.86594  0.57234  0.28484  1
