CIF file written using JARVIS-Tools package.
data_TeN2
_symmetry_space_group_name_H-M  'I4_1/amd'
_cell_length_a       4.03303
_cell_length_b       5.8411
_cell_length_c       5.84078
_cell_angle_alpha    40.3924
_cell_angle_beta     69.8031
_cell_angle_gamma    69.8043

_symmetry_Int_Tables_number  141
_chemical_formula_structural  TeN2
_chemical_formula_sum  Te2N4
_cell_volume  82.9111942550991
_cell_formula_units_Z  2
loop_
  _symmetry_equiv_pos_site_id
 _symmetry_equiv_pos_as_xyz
 1  'x, y, z'
loop_
 _atom_site_type_symbol
 _atom_site_label
 _atom_site_symmetry_multiplicity
 _atom_site_fract_x
 _atom_site_fract_y
 _atom_site_fract_z
 _atom_site_fract_occupancy
 N  N1  1  0.17397  0.07625  0.57581  1
 N  N2  1  0.82603  0.92375  0.42419  1
 N  N3  1  0.42397  0.32601  0.82605  1
 N  N4  1  0.57603  0.67399  0.17395  1
 Te  Te1  1  0.37500  0.87498  0.37502  1
 Te  Te2  1  0.62500  0.12502  0.62498  1
