CIF file written using JARVIS-Tools package.
data_Lu2AlSi2
_symmetry_space_group_name_H-M  'Immm'
_cell_length_a       4.01732
_cell_length_b       5.4749
_cell_length_c       5.4749
_cell_angle_alpha    62.9749
_cell_angle_beta     68.4765
_cell_angle_gamma    68.4764

_symmetry_Int_Tables_number  71
_chemical_formula_structural  Lu2AlSi2
_chemical_formula_sum  Lu2AlSi2
_cell_volume  96.83312130077121
_cell_formula_units_Z  1
loop_
  _symmetry_equiv_pos_site_id
 _symmetry_equiv_pos_as_xyz
 1  'x, y, z'
loop_
 _atom_site_type_symbol
 _atom_site_label
 _atom_site_symmetry_multiplicity
 _atom_site_fract_x
 _atom_site_fract_y
 _atom_site_fract_z
 _atom_site_fract_occupancy
 Al  Al1  1  0.00000  0.00000  0.00000  1
 Lu  Lu1  1  0.78821  0.71179  0.71179  1
 Lu  Lu2  1  0.21179  0.28821  0.28821  1
 Si  Si1  1  0.50000  0.28970  0.71030  1
 Si  Si2  1  0.50000  0.71030  0.28970  1
