CIF file written using JARVIS-Tools package.
data_TbH2Br
_symmetry_space_group_name_H-M  'R-3m'
_cell_length_a       10.5299
_cell_length_b       10.5299
_cell_length_c       10.5299
_cell_angle_alpha    20.6503
_cell_angle_beta     20.6503
_cell_angle_gamma    20.6503

_symmetry_Int_Tables_number  166
_chemical_formula_structural  TbH2Br
_chemical_formula_sum  Tb2H4Br2
_cell_volume  127.1139519752997
_cell_formula_units_Z  2
loop_
  _symmetry_equiv_pos_site_id
 _symmetry_equiv_pos_as_xyz
 1  'x, y, z'
loop_
 _atom_site_type_symbol
 _atom_site_label
 _atom_site_symmetry_multiplicity
 _atom_site_fract_x
 _atom_site_fract_y
 _atom_site_fract_z
 _atom_site_fract_occupancy
 Br  Br1  1  0.71817  0.71817  0.71817  1
 Br  Br2  1  0.28183  0.28183  0.28183  1
 H  H1  1  0.81332  0.81332  0.81332  1
 H  H2  1  0.18668  0.18668  0.18668  1
 H  H3  1  0.54583  0.54583  0.54583  1
 H  H4  1  0.45417  0.45417  0.45417  1
 Tb  Tb1  1  0.88555  0.88555  0.88555  1
 Tb  Tb2  1  0.11445  0.11445  0.11445  1
