CIF file written using JARVIS-Tools package.
data_CoSnC4Cl3O4
_symmetry_space_group_name_H-M  'R3'
_cell_length_a       6.47384
_cell_length_b       6.4738
_cell_length_c       6.47367
_cell_angle_alpha    99.9848
_cell_angle_beta     99.9758
_cell_angle_gamma    99.9872

_symmetry_Int_Tables_number  146
_chemical_formula_structural  CoSnC4Cl3O4
_chemical_formula_sum  CoSnC4Cl3O4
_cell_volume  257.3098860048538
_cell_formula_units_Z  1
loop_
  _symmetry_equiv_pos_site_id
 _symmetry_equiv_pos_as_xyz
 1  'x, y, z'
loop_
 _atom_site_type_symbol
 _atom_site_label
 _atom_site_symmetry_multiplicity
 _atom_site_fract_x
 _atom_site_fract_y
 _atom_site_fract_z
 _atom_site_fract_occupancy
 C  C1  1  0.29939  0.05364  0.40694  1
 C  C2  1  0.40698  0.29940  0.05362  1
 C  C3  1  0.05362  0.40695  0.29939  1
 C  C4  1  0.46838  0.46843  0.46840  1
 Cl  Cl1  1  0.67217  0.87836  0.10596  1
 Cl  Cl2  1  0.10592  0.67215  0.87836  1
 Cl  Cl3  1  0.87838  0.10591  0.67219  1
 Co  Co1  1  0.27084  0.27085  0.27084  1
 O  O1  1  0.49681  0.32101  0.91725  1
 O  O2  1  0.59492  0.59498  0.59496  1
 O  O3  1  0.91725  0.49676  0.32102  1
 O  O4  1  0.32102  0.91727  0.49675  1
 Sn  Sn1  1  -0.00748  -0.00749  -0.00748  1
