CIF file written using JARVIS-Tools package.
data_PrVO4
_symmetry_space_group_name_H-M  'I4_1/amd'
_cell_length_a       6.18929
_cell_length_b       6.1893
_cell_length_c       6.1893
_cell_angle_alpha    106.125
_cell_angle_beta     106.125
_cell_angle_gamma    116.394

_symmetry_Int_Tables_number  141
_chemical_formula_structural  PrVO4
_chemical_formula_sum  Pr2V2O8
_cell_volume  180.49473203989933
_cell_formula_units_Z  2
loop_
  _symmetry_equiv_pos_site_id
 _symmetry_equiv_pos_as_xyz
 1  'x, y, z'
loop_
 _atom_site_type_symbol
 _atom_site_label
 _atom_site_symmetry_multiplicity
 _atom_site_fract_x
 _atom_site_fract_y
 _atom_site_fract_z
 _atom_site_fract_occupancy
 O  O1  1  0.79370  0.36406  0.07036  1
 O  O2  1  0.79370  0.72335  0.42964  1
 O  O3  1  0.63594  0.20630  0.42964  1
 O  O4  1  0.20630  0.27665  0.57036  1
 O  O5  1  0.20630  0.63594  0.92964  1
 O  O6  1  0.27665  0.20630  0.07036  1
 O  O7  1  0.72335  0.79370  0.92964  1
 O  O8  1  0.36406  0.79370  0.57036  1
 Pr  Pr1  1  0.87500  0.12500  0.75000  1
 Pr  Pr2  1  0.12500  0.87500  0.25000  1
 V  V1  1  0.62500  0.37500  0.25000  1
 V  V2  1  0.37500  0.62500  0.75000  1
