CIF file written using JARVIS-Tools package.
data_RbPH2O4
_symmetry_space_group_name_H-M  'P2_1/m'
_cell_length_a       4.87704
_cell_length_b       6.00507
_cell_length_c       7.46108
_cell_angle_alpha    90
_cell_angle_beta     107.898
_cell_angle_gamma    90

_symmetry_Int_Tables_number  11
_chemical_formula_structural  RbPH2O4
_chemical_formula_sum  Rb2P2H4O8
_cell_volume  207.93745771629213
_cell_formula_units_Z  2
loop_
  _symmetry_equiv_pos_site_id
 _symmetry_equiv_pos_as_xyz
 1  'x, y, z'
loop_
 _atom_site_type_symbol
 _atom_site_label
 _atom_site_symmetry_multiplicity
 _atom_site_fract_x
 _atom_site_fract_y
 _atom_site_fract_z
 _atom_site_fract_occupancy
 H  H1  1  0.19303  0.25000  0.38064  1
 H  H2  1  0.80697  0.75000  0.61936  1
 H  H3  1  0.50000  0.00000  0.00000  1
 H  H4  1  0.50000  0.50000  0.00000  1
 O  O1  1  0.00736  0.25000  0.41749  1
 O  O2  1  -0.00736  0.75000  0.58251  1
 O  O3  1  0.47395  0.25000  0.33832  1
 O  O4  1  0.52605  0.75000  0.66168  1
 O  O5  1  0.71482  0.03846  0.12943  1
 O  O6  1  0.28518  0.53846  0.87057  1
 O  O7  1  0.28518  0.96154  0.87057  1
 O  O8  1  0.71482  0.46154  0.12943  1
 P  P1  1  0.71508  0.25000  0.25037  1
 P  P2  1  0.28492  0.75000  0.74963  1
 Rb  Rb1  1  0.22509  0.75000  0.25149  1
 Rb  Rb2  1  0.77491  0.25000  0.74851  1
