CIF file written using JARVIS-Tools package.
data_Ca2CuIrO6
_symmetry_space_group_name_H-M  'C2'
_cell_length_a       6.44192
_cell_length_b       6.41653
_cell_length_c       6.41653
_cell_angle_alpha    91.2463
_cell_angle_beta     91.5688
_cell_angle_gamma    91.5687

_symmetry_Int_Tables_number  5
_chemical_formula_structural  Ca2CuIrO6
_chemical_formula_sum  Ca4Cu2Ir2O2
_cell_volume  264.95998795297845
_cell_formula_units_Z  2
loop_
  _symmetry_equiv_pos_site_id
 _symmetry_equiv_pos_as_xyz
 1  'x, y, z'
loop_
 _atom_site_type_symbol
 _atom_site_label
 _atom_site_symmetry_multiplicity
 _atom_site_fract_x
 _atom_site_fract_y
 _atom_site_fract_z
 _atom_site_fract_occupancy
 Ca  Ca1  1  0.75000  0.60204  0.39796  1
 Ca  Ca2  1  0.25000  0.39760  0.60240  1
 Ca  Ca3  1  0.62768  0.73725  0.89010  1
 Ca  Ca4  1  0.87232  0.10990  0.26275  1
 Cu  Cu1  1  0.25000  0.85231  0.14769  1
 Cu  Cu2  1  0.75000  0.18478  0.81522  1
 Ir  Ir1  1  0.01451  0.49784  0.00166  1
 Ir  Ir2  1  0.48549  -0.00166  0.50216  1
 O  O1  1  0.54819  0.88990  0.20941  1
 O  O2  1  0.57352  0.27957  0.43890  1
 O  O3  1  0.45987  0.10054  0.78942  1
 O  O4  1  0.04013  0.21058  0.89946  1
 O  O5  1  0.95181  0.79059  0.11010  1
 O  O6  1  0.44529  0.70656  0.57150  1
 O  O7  1  0.78000  0.96539  0.60857  1
 O  O8  1  0.72000  0.39143  0.03461  1
 O  O9  1  0.20712  0.03341  0.38731  1
 O  O10  1  0.05471  0.42850  0.29344  1
 O  O11  1  0.29288  0.61269  0.96659  1
 O  O12  1  0.92648  0.56110  0.72043  1
