CIF file written using JARVIS-Tools package.
data_CaZnSO
_symmetry_space_group_name_H-M  'P6_3mc'
_cell_length_a       3.76224
_cell_length_b       3.76224
_cell_length_c       11.4242
_cell_angle_alpha    90
_cell_angle_beta     90
_cell_angle_gamma    120

_symmetry_Int_Tables_number  186
_chemical_formula_structural  CaZnSO
_chemical_formula_sum  Ca2Zn2S2O2
_cell_volume  140.0400614503364
_cell_formula_units_Z  2
loop_
  _symmetry_equiv_pos_site_id
 _symmetry_equiv_pos_as_xyz
 1  'x, y, z'
loop_
 _atom_site_type_symbol
 _atom_site_label
 _atom_site_symmetry_multiplicity
 _atom_site_fract_x
 _atom_site_fract_y
 _atom_site_fract_z
 _atom_site_fract_occupancy
 Ca  Ca1  1  0.33333  0.66667  0.72961  1
 Ca  Ca2  1  0.66667  0.33333  0.22961  1
 O  O1  1  0.00000  0.00000  0.16762  1
 O  O2  1  0.00000  0.00000  0.66762  1
 S  S1  1  0.66667  0.33333  0.91563  1
 S  S2  1  0.33333  0.66667  0.41563  1
 Zn  Zn1  1  0.00000  0.00000  0.49944  1
 Zn  Zn2  1  0.00000  0.00000  0.99944  1
