CIF file written using JARVIS-Tools package.
data_BaNa2O2
_symmetry_space_group_name_H-M  'Cmc2_1'
_cell_length_a       3.79012
_cell_length_b       7.48276
_cell_length_c       6.24116
_cell_angle_alpha    90
_cell_angle_beta     90
_cell_angle_gamma    104.67

_symmetry_Int_Tables_number  36
_chemical_formula_structural  BaNa2O2
_chemical_formula_sum  Ba2Na4O4
_cell_volume  171.2325864627596
_cell_formula_units_Z  2
loop_
  _symmetry_equiv_pos_site_id
 _symmetry_equiv_pos_as_xyz
 1  'x, y, z'
loop_
 _atom_site_type_symbol
 _atom_site_label
 _atom_site_symmetry_multiplicity
 _atom_site_fract_x
 _atom_site_fract_y
 _atom_site_fract_z
 _atom_site_fract_occupancy
 Ba  Ba1  1  0.19732  0.39465  0.03058  1
 Ba  Ba2  1  0.80268  0.60535  0.53058  1
 Na  Na1  1  0.03843  0.07687  0.68145  1
 Na  Na2  1  0.41787  0.83573  0.86886  1
 Na  Na3  1  0.96157  0.92313  0.18145  1
 Na  Na4  1  0.58213  0.16427  0.36886  1
 O  O1  1  0.17014  0.34028  0.44794  1
 O  O2  1  0.43393  0.86786  0.48606  1
 O  O3  1  0.56607  0.13214  0.98606  1
 O  O4  1  0.82986  0.65972  0.94794  1
