CIF file written using JARVIS-Tools package.
data_SbN
_symmetry_space_group_name_H-M  'P2_1'
_cell_length_a       3.31255
_cell_length_b       4.00416
_cell_length_c       5.87389
_cell_angle_alpha    89.9998
_cell_angle_beta     106.083
_cell_angle_gamma    90.003

_symmetry_Int_Tables_number  4
_chemical_formula_structural  SbN
_chemical_formula_sum  Sb2N2
_cell_volume  74.86172286726605
_cell_formula_units_Z  2
loop_
  _symmetry_equiv_pos_site_id
 _symmetry_equiv_pos_as_xyz
 1  'x, y, z'
loop_
 _atom_site_type_symbol
 _atom_site_label
 _atom_site_symmetry_multiplicity
 _atom_site_fract_x
 _atom_site_fract_y
 _atom_site_fract_z
 _atom_site_fract_occupancy
 N  N1  1  0.56234  0.97812  0.61567  1
 N  N2  1  0.19299  0.47811  0.88169  1
 Sb  Sb1  1  0.73469  0.78509  0.96660  1
 Sb  Sb2  1  0.02068  0.28510  0.53074  1
