CIF file written using JARVIS-Tools package.
data_RbScO2
_symmetry_space_group_name_H-M  'R-3m'
_cell_length_a       6.68434
_cell_length_b       6.68434
_cell_length_c       6.68434
_cell_angle_alpha    28.2735
_cell_angle_beta     28.2734
_cell_angle_gamma    28.2735

_symmetry_Int_Tables_number  166
_chemical_formula_structural  RbScO2
_chemical_formula_sum  RbScO2
_cell_volume  59.20952656564721
_cell_formula_units_Z  1
loop_
  _symmetry_equiv_pos_site_id
 _symmetry_equiv_pos_as_xyz
 1  'x, y, z'
loop_
 _atom_site_type_symbol
 _atom_site_label
 _atom_site_symmetry_multiplicity
 _atom_site_fract_x
 _atom_site_fract_y
 _atom_site_fract_z
 _atom_site_fract_occupancy
 O  O1  1  0.77711  0.77711  0.77711  1
 O  O2  1  0.22289  0.22289  0.22289  1
 Rb  Rb1  1  0.00000  0.00000  0.00000  1
 Sc  Sc1  1  0.50000  0.50000  0.50000  1
