CIF file written using JARVIS-Tools package.
data_NiP2
_symmetry_space_group_name_H-M  'C2/c'
_cell_length_a       4.29804
_cell_length_b       4.29804
_cell_length_c       5.65457
_cell_angle_alpha    68.2973
_cell_angle_beta     68.2973
_cell_angle_gamma    81.9418

_symmetry_Int_Tables_number  15
_chemical_formula_structural  NiP2
_chemical_formula_sum  Ni2P4
_cell_volume  90.1728395044835
_cell_formula_units_Z  2
loop_
  _symmetry_equiv_pos_site_id
 _symmetry_equiv_pos_as_xyz
 1  'x, y, z'
loop_
 _atom_site_type_symbol
 _atom_site_label
 _atom_site_symmetry_multiplicity
 _atom_site_fract_x
 _atom_site_fract_y
 _atom_site_fract_z
 _atom_site_fract_occupancy
 Ni  Ni1  1  0.50000  0.50000  0.50000  1
 Ni  Ni2  1  0.00000  0.00000  0.00000  1
 P  P1  1  0.91790  0.18846  0.33399  1
 P  P2  1  0.31154  0.58210  0.16601  1
 P  P3  1  0.68846  0.41790  0.83399  1
 P  P4  1  0.08210  0.81154  0.66601  1
