CIF file written using JARVIS-Tools package.
data_Li2Co2Si2O7
_symmetry_space_group_name_H-M  'Ama2'
_cell_length_a       5.02487
_cell_length_b       4.81596
_cell_length_c       13.1395
_cell_angle_alpha    90
_cell_angle_beta     90
_cell_angle_gamma    121.446

_symmetry_Int_Tables_number  40
_chemical_formula_structural  Li2Co2Si2O7
_chemical_formula_sum  Li4Co4Si4O4
_cell_volume  271.2712650828176
_cell_formula_units_Z  2
loop_
  _symmetry_equiv_pos_site_id
 _symmetry_equiv_pos_as_xyz
 1  'x, y, z'
loop_
 _atom_site_type_symbol
 _atom_site_label
 _atom_site_symmetry_multiplicity
 _atom_site_fract_x
 _atom_site_fract_y
 _atom_site_fract_z
 _atom_site_fract_occupancy
 Co  Co1  1  0.02534  0.00000  0.00000  1
 Co  Co2  1  0.02534  0.00000  0.50000  1
 Co  Co3  1  0.00333  -0.00473  0.25000  1
 Co  Co4  1  0.00807  0.00473  0.75000  1
 Li  Li1  1  0.34383  0.59709  0.58310  1
 Li  Li2  1  0.34383  0.59709  0.91690  1
 Li  Li3  1  0.74674  0.40291  0.08310  1
 Li  Li4  1  0.74674  0.40291  0.41690  1
 O  O1  1  0.93056  0.55865  0.55132  1
 O  O2  1  0.12664  0.78909  0.36295  1
 O  O3  1  0.37371  0.51279  0.25000  1
 O  O4  1  0.72429  0.97582  0.87107  1
 O  O5  1  0.72429  0.97582  0.62893  1
 O  O6  1  0.12664  0.78909  0.13705  1
 O  O7  1  0.37191  0.44135  0.44868  1
 O  O8  1  0.33755  0.21091  0.63705  1
 O  O9  1  0.33755  0.21091  0.86295  1
 O  O10  1  0.74847  0.02418  0.37107  1
 O  O11  1  0.74847  0.02418  0.12893  1
 O  O12  1  0.37191  0.44135  0.05132  1
 O  O13  1  0.86092  0.48721  0.75000  1
 O  O14  1  0.93056  0.55865  0.94868  1
 Si  Si1  1  0.39562  0.69549  0.36315  1
 Si  Si2  1  0.39562  0.69549  0.13685  1
 Si  Si3  1  0.70012  0.30451  0.63685  1
 Si  Si4  1  0.70012  0.30451  0.86315  1
