CIF file written using JARVIS-Tools package.
data_SbRhO4
_symmetry_space_group_name_H-M  'I4_1md'
_cell_length_a       5.64008
_cell_length_b       5.64008
_cell_length_c       5.64008
_cell_angle_alpha    71.6681
_cell_angle_beta     108.332
_cell_angle_gamma    68.2253

_symmetry_Int_Tables_number  109
_chemical_formula_structural  SbRhO4
_chemical_formula_sum  Sb2Rh2O8
_cell_volume  137.9449638406706
_cell_formula_units_Z  2
loop_
  _symmetry_equiv_pos_site_id
 _symmetry_equiv_pos_as_xyz
 1  'x, y, z'
loop_
 _atom_site_type_symbol
 _atom_site_label
 _atom_site_symmetry_multiplicity
 _atom_site_fract_x
 _atom_site_fract_y
 _atom_site_fract_z
 _atom_site_fract_occupancy
 O  O1  1  0.56115  0.24780  0.80895  1
 O  O2  1  0.05472  0.75214  0.80686  1
 O  O3  1  0.49786  0.80901  0.69314  1
 O  O4  1  0.00220  0.30675  0.69105  1
 O  O5  1  0.49786  0.19528  0.30686  1
 O  O6  1  0.00220  0.68885  0.30895  1
 O  O7  1  0.44099  0.75214  0.19314  1
 O  O8  1  0.94325  0.24780  0.19105  1
 Rh  Rh1  1  0.74658  0.75342  0.50000  1
 Rh  Rh2  1  0.49658  0.50342  0.00000  1
 Sb  Sb1  1  0.25330  0.24670  0.50000  1
 Sb  Sb2  1  0.00330  0.99670  0.00000  1
