CIF file written using JARVIS-Tools package.
data_RbVCu2S4
_symmetry_space_group_name_H-M  'Ama2'
_cell_length_a       5.42033
_cell_length_b       7.37146
_cell_length_c       9.48311
_cell_angle_alpha    90
_cell_angle_beta     106.606
_cell_angle_gamma    90

_symmetry_Int_Tables_number  40
_chemical_formula_structural  RbVCu2S4
_chemical_formula_sum  Rb2V2Cu4S8
_cell_volume  363.1018294240555
_cell_formula_units_Z  2
loop_
  _symmetry_equiv_pos_site_id
 _symmetry_equiv_pos_as_xyz
 1  'x, y, z'
loop_
 _atom_site_type_symbol
 _atom_site_label
 _atom_site_symmetry_multiplicity
 _atom_site_fract_x
 _atom_site_fract_y
 _atom_site_fract_z
 _atom_site_fract_occupancy
 Cu  Cu1  1  0.62346  0.50000  0.00000  1
 Cu  Cu2  1  0.20946  0.25000  0.21401  1
 Cu  Cu3  1  0.99545  0.75000  0.78599  1
 Cu  Cu4  1  0.62346  0.00000  0.00000  1
 Rb  Rb1  1  0.53793  0.75000  0.36408  1
 Rb  Rb2  1  0.17385  0.25000  0.63592  1
 S  S1  1  0.94657  0.00581  0.21829  1
 S  S2  1  0.36026  0.75000  0.98454  1
 S  S3  1  0.37573  0.25000  0.01546  1
 S  S4  1  0.72828  0.50581  0.78171  1
 S  S5  1  0.16266  0.75000  0.58900  1
 S  S6  1  0.72828  0.99419  0.78171  1
 S  S7  1  0.57366  0.25000  0.41100  1
 S  S8  1  0.94657  0.49419  0.21829  1
 V  V1  1  0.49403  0.75000  0.78189  1
 V  V2  1  0.71214  0.25000  0.21811  1
