CIF file written using JARVIS-Tools package.
data_BaTe2
_symmetry_space_group_name_H-M  'I4/mcm'
_cell_length_a       6.80772
_cell_length_b       6.80772
_cell_length_c       6.80772
_cell_angle_alpha    97.3745
_cell_angle_beta     115.838
_cell_angle_gamma    115.838

_symmetry_Int_Tables_number  140
_chemical_formula_structural  BaTe2
_chemical_formula_sum  Ba2Te4
_cell_volume  235.01997202390262
_cell_formula_units_Z  2
loop_
  _symmetry_equiv_pos_site_id
 _symmetry_equiv_pos_as_xyz
 1  'x, y, z'
loop_
 _atom_site_type_symbol
 _atom_site_label
 _atom_site_symmetry_multiplicity
 _atom_site_fract_x
 _atom_site_fract_y
 _atom_site_fract_z
 _atom_site_fract_occupancy
 Ba  Ba1  1  -0.00000  0.75000  0.75000  1
 Ba  Ba2  1  0.00000  0.25000  0.25000  1
 Te  Te1  1  0.22302  0.36151  0.86151  1
 Te  Te2  1  0.50000  0.86151  0.63849  1
 Te  Te3  1  0.77698  0.63849  0.13849  1
 Te  Te4  1  0.50000  0.13849  0.36151  1
