CIF file written using JARVIS-Tools package.
data_ZnS
_symmetry_space_group_name_H-M  'R3m'
_cell_length_a       9.69862
_cell_length_b       9.69862
_cell_length_c       9.69862
_cell_angle_alpha    22.8215
_cell_angle_beta     22.8215
_cell_angle_gamma    22.8216

_symmetry_Int_Tables_number  160
_chemical_formula_structural  ZnS
_chemical_formula_sum  Zn3S3
_cell_volume  120.42530189348804
_cell_formula_units_Z  3
loop_
  _symmetry_equiv_pos_site_id
 _symmetry_equiv_pos_as_xyz
 1  'x, y, z'
loop_
 _atom_site_type_symbol
 _atom_site_label
 _atom_site_symmetry_multiplicity
 _atom_site_fract_x
 _atom_site_fract_y
 _atom_site_fract_z
 _atom_site_fract_occupancy
 S  S1  1  0.08321  0.08321  0.08321  1
 S  S2  1  0.52781  0.52781  0.52781  1
 S  S3  1  0.30536  0.30536  0.30536  1
 Zn  Zn1  1  0.99999  0.99999  0.99999  1
 Zn  Zn2  1  0.22234  0.22234  0.22234  1
 Zn  Zn3  1  0.44461  0.44461  0.44461  1
