CIF file written using JARVIS-Tools package.
data_TlGaO2
_symmetry_space_group_name_H-M  'Fd-3m'
_cell_length_a       5.92703
_cell_length_b       5.92703
_cell_length_c       5.92703
_cell_angle_alpha    59.9949
_cell_angle_beta     59.9949
_cell_angle_gamma    59.9949

_symmetry_Int_Tables_number  227
_chemical_formula_structural  TlGaO2
_chemical_formula_sum  Tl2Ga2O4
_cell_volume  147.21285365770626
_cell_formula_units_Z  2
loop_
  _symmetry_equiv_pos_site_id
 _symmetry_equiv_pos_as_xyz
 1  'x, y, z'
loop_
 _atom_site_type_symbol
 _atom_site_label
 _atom_site_symmetry_multiplicity
 _atom_site_fract_x
 _atom_site_fract_y
 _atom_site_fract_z
 _atom_site_fract_occupancy
 Ga  Ga1  1  0.37501  0.37501  0.37501  1
 Ga  Ga2  1  0.62499  0.62499  0.62499  1
 O  O1  1  0.50000  0.00000  0.50000  1
 O  O2  1  -0.00000  0.50000  0.50000  1
 O  O3  1  0.50000  0.50000  0.50000  1
 O  O4  1  0.50000  0.50000  -0.00000  1
 Tl  Tl1  1  0.87504  0.87504  0.87504  1
 Tl  Tl2  1  0.12496  0.12496  0.12496  1
