CIF file written using JARVIS-Tools package.
data_NbO2F
_symmetry_space_group_name_H-M  'C2/c'
_cell_length_a       5.59566
_cell_length_b       5.50103
_cell_length_c       5.59566
_cell_angle_alpha    58.3146
_cell_angle_beta     55.651
_cell_angle_gamma    58.3147

_symmetry_Int_Tables_number  15
_chemical_formula_structural  NbO2F
_chemical_formula_sum  Nb2O4F2
_cell_volume  114.4090450323945
_cell_formula_units_Z  2
loop_
  _symmetry_equiv_pos_site_id
 _symmetry_equiv_pos_as_xyz
 1  'x, y, z'
loop_
 _atom_site_type_symbol
 _atom_site_label
 _atom_site_symmetry_multiplicity
 _atom_site_fract_x
 _atom_site_fract_y
 _atom_site_fract_z
 _atom_site_fract_occupancy
 F  F1  1  0.13377  0.75000  0.36623  1
 F  F2  1  0.86623  0.25000  0.63377  1
 Nb  Nb1  1  0.00000  0.00000  0.00000  1
 Nb  Nb2  1  0.50000  0.50000  0.50000  1
 O  O1  1  0.33879  0.16089  0.76186  1
 O  O2  1  0.73814  0.33911  0.16121  1
 O  O3  1  0.26186  0.66089  0.83879  1
 O  O4  1  0.66121  0.83911  0.23814  1
