CIF file written using JARVIS-Tools package.
data_Te4W3S2
_symmetry_space_group_name_H-M  'Amm2'
_cell_length_a       3.43179
_cell_length_b       3.43174
_cell_length_c       21.2617
_cell_angle_alpha    90
_cell_angle_beta     90
_cell_angle_gamma    120.001

_symmetry_Int_Tables_number  38
_chemical_formula_structural  Te4W3S2
_chemical_formula_sum  Te4W3S2
_cell_volume  216.8514261835701
_cell_formula_units_Z  1
loop_
  _symmetry_equiv_pos_site_id
 _symmetry_equiv_pos_as_xyz
 1  'x, y, z'
loop_
 _atom_site_type_symbol
 _atom_site_label
 _atom_site_symmetry_multiplicity
 _atom_site_fract_x
 _atom_site_fract_y
 _atom_site_fract_z
 _atom_site_fract_occupancy
 S  S1  1  0.33264  0.66528  0.41752  1
 S  S2  1  0.33264  0.66528  0.27644  1
 Te  Te1  1  0.66701  0.33402  0.94524  1
 Te  Te2  1  0.66699  0.33399  0.57237  1
 Te  Te3  1  0.66699  0.33399  0.12159  1
 Te  Te4  1  0.66701  0.33402  0.74872  1
 W  W1  1  0.33367  0.66733  0.03338  1
 W  W2  1  0.33367  0.66733  0.66059  1
 W  W3  1  0.66597  0.33195  0.34698  1
