CIF file written using JARVIS-Tools package.
data_Bi2CO5
_symmetry_space_group_name_H-M  'Imm2'
_cell_length_a       4.54288
_cell_length_b       3.58713
_cell_length_c       7.43628
_cell_angle_alpha    103.949
_cell_angle_beta     107.785
_cell_angle_gamma    90

_symmetry_Int_Tables_number  44
_chemical_formula_structural  Bi2CO5
_chemical_formula_sum  Bi2CO5
_cell_volume  111.63031334209485
_cell_formula_units_Z  1
loop_
  _symmetry_equiv_pos_site_id
 _symmetry_equiv_pos_as_xyz
 1  'x, y, z'
loop_
 _atom_site_type_symbol
 _atom_site_label
 _atom_site_symmetry_multiplicity
 _atom_site_fract_x
 _atom_site_fract_y
 _atom_site_fract_z
 _atom_site_fract_occupancy
 Bi  Bi1  1  0.69473  0.69467  0.38945  1
 Bi  Bi2  1  0.01641  0.01640  0.03281  1
 C  C1  1  0.34240  0.34242  0.68480  1
 O  O1  1  0.43662  0.43685  0.87324  1
 O  O2  1  0.53774  0.29445  0.58909  1
 O  O3  1  0.58809  0.08811  0.17619  1
 O  O4  1  0.11400  0.61397  0.22800  1
 O  O5  1  0.05134  0.29445  0.58909  1
