CIF file written using JARVIS-Tools package.
data_Sc
_symmetry_space_group_name_H-M  'Im-3m'
_cell_length_a       3.54351
_cell_length_b       5.21281
_cell_length_c       5.21281
_cell_angle_alpha    90
_cell_angle_beta     90
_cell_angle_gamma    90

_symmetry_Int_Tables_number  229
_chemical_formula_structural  Sc
_chemical_formula_sum  Sc4
_cell_volume  96.28912203576058
_cell_formula_units_Z  4
loop_
  _symmetry_equiv_pos_site_id
 _symmetry_equiv_pos_as_xyz
 1  'x, y, z'
loop_
 _atom_site_type_symbol
 _atom_site_label
 _atom_site_symmetry_multiplicity
 _atom_site_fract_x
 _atom_site_fract_y
 _atom_site_fract_z
 _atom_site_fract_occupancy
 Sc  Sc1  1  0.00000  0.25000  0.75000  1
 Sc  Sc2  1  0.00000  0.75000  0.25000  1
 Sc  Sc3  1  0.49998  0.25000  0.25000  1
 Sc  Sc4  1  0.50002  0.75000  0.75000  1
