CIF file written using JARVIS-Tools package.
data_BiOF
_symmetry_space_group_name_H-M  'P2_1/m'
_cell_length_a       8.24163
_cell_length_b       3.94805
_cell_length_c       12.3127
_cell_angle_alpha    90
_cell_angle_beta     109.414
_cell_angle_gamma    90

_symmetry_Int_Tables_number  11
_chemical_formula_structural  BiOF
_chemical_formula_sum  Bi8O8F8
_cell_volume  377.8537498766444
_cell_formula_units_Z  8
loop_
  _symmetry_equiv_pos_site_id
 _symmetry_equiv_pos_as_xyz
 1  'x, y, z'
loop_
 _atom_site_type_symbol
 _atom_site_label
 _atom_site_symmetry_multiplicity
 _atom_site_fract_x
 _atom_site_fract_y
 _atom_site_fract_z
 _atom_site_fract_occupancy
 Bi  Bi1  1  0.92157  0.75000  0.12443  1
 Bi  Bi2  1  0.82583  0.25000  0.40337  1
 Bi  Bi3  1  0.67529  0.75000  0.65717  1
 Bi  Bi4  1  0.44947  0.75000  0.12422  1
 Bi  Bi5  1  0.55053  0.25000  0.87578  1
 Bi  Bi6  1  0.32471  0.25000  0.34283  1
 Bi  Bi7  1  0.17417  0.75000  0.59663  1
 Bi  Bi8  1  0.07843  0.25000  0.87557  1
 F  F1  1  0.23604  0.25000  0.74879  1
 F  F2  1  0.38541  0.75000  0.50336  1
 F  F3  1  0.61459  0.25000  0.49664  1
 F  F4  1  0.76396  0.75000  0.25121  1
 F  F5  1  0.98241  0.25000  0.24351  1
 F  F6  1  0.90047  0.25000  0.01030  1
 F  F7  1  0.09953  0.75000  0.98970  1
 F  F8  1  0.01759  0.75000  0.75649  1
 O  O1  1  0.88024  0.75000  0.50604  1
 O  O2  1  0.75314  0.25000  0.75972  1
 O  O3  1  0.50753  0.25000  0.24608  1
 O  O4  1  0.24686  0.75000  0.24028  1
 O  O5  1  0.35330  0.25000  0.98749  1
 O  O6  1  0.11976  0.25000  0.49396  1
 O  O7  1  0.64670  0.75000  0.01251  1
 O  O8  1  0.49247  0.75000  0.75392  1
