CIF file written using JARVIS-Tools package.
data_Li2Cu3F8
_symmetry_space_group_name_H-M  'P-1'
_cell_length_a       5.06933
_cell_length_b       6.08941
_cell_length_c       6.23434
_cell_angle_alpha    61.8594
_cell_angle_beta     71.1045
_cell_angle_gamma    68.4276

_symmetry_Int_Tables_number  2
_chemical_formula_structural  Li2Cu3F8
_chemical_formula_sum  Li2Cu3F8
_cell_volume  155.13529331968883
_cell_formula_units_Z  1
loop_
  _symmetry_equiv_pos_site_id
 _symmetry_equiv_pos_as_xyz
 1  'x, y, z'
loop_
 _atom_site_type_symbol
 _atom_site_label
 _atom_site_symmetry_multiplicity
 _atom_site_fract_x
 _atom_site_fract_y
 _atom_site_fract_z
 _atom_site_fract_occupancy
 Cu  Cu1  1  0.00000  -0.00000  0.50000  1
 Cu  Cu2  1  0.00000  0.50000  0.00000  1
 Cu  Cu3  1  0.00000  0.50000  0.50000  1
 F  F1  1  0.26156  0.16243  0.07002  1
 F  F2  1  0.78742  0.41442  0.84625  1
 F  F3  1  0.77990  0.35723  0.41787  1
 F  F4  1  0.78435  0.93395  0.34785  1
 F  F5  1  0.21565  0.06605  0.65215  1
 F  F6  1  0.22010  0.64277  0.58213  1
 F  F7  1  0.21258  0.58558  0.15375  1
 F  F8  1  0.73844  0.83757  0.92998  1
 Li  Li1  1  0.65588  0.10564  0.05284  1
 Li  Li2  1  0.34412  0.89436  0.94716  1
