CIF file written using JARVIS-Tools package.
data_Na3Cd2IrO6
_symmetry_space_group_name_H-M  'C2/m'
_cell_length_a       5.74394
_cell_length_b       5.74393
_cell_length_c       5.66287
_cell_angle_alpha    100.141
_cell_angle_beta     100.141
_cell_angle_gamma    119.766

_symmetry_Int_Tables_number  12
_chemical_formula_structural  Na3Cd2IrO6
_chemical_formula_sum  Na3Cd2IrO6
_cell_volume  151.86934485072837
_cell_formula_units_Z  1
loop_
  _symmetry_equiv_pos_site_id
 _symmetry_equiv_pos_as_xyz
 1  'x, y, z'
loop_
 _atom_site_type_symbol
 _atom_site_label
 _atom_site_symmetry_multiplicity
 _atom_site_fract_x
 _atom_site_fract_y
 _atom_site_fract_z
 _atom_site_fract_occupancy
 Cd  Cd1  1  0.33278  0.66722  0.00000  1
 Cd  Cd2  1  0.66722  0.33278  -0.00000  1
 Ir  Ir1  1  0.00000  0.00000  0.00000  1
 Na  Na1  1  0.50000  0.50000  0.50000  1
 Na  Na2  1  0.16755  0.83245  0.50000  1
 Na  Na3  1  0.83245  0.16755  0.50000  1
 O  O1  1  0.78177  0.78177  0.20837  1
 O  O2  1  0.21823  0.21823  0.79163  1
 O  O3  1  0.07146  0.36261  0.21787  1
 O  O4  1  0.63739  0.92854  0.78213  1
 O  O5  1  0.36261  0.07146  0.21787  1
 O  O6  1  0.92854  0.63739  0.78213  1
