CIF file written using JARVIS-Tools package.
data_LiMgH3
_symmetry_space_group_name_H-M  'R3c'
_cell_length_a       5.28997
_cell_length_b       5.28996
_cell_length_c       5.28997
_cell_angle_alpha    55.7322
_cell_angle_beta     55.7322
_cell_angle_gamma    55.7322

_symmetry_Int_Tables_number  161
_chemical_formula_structural  LiMgH3
_chemical_formula_sum  Li2Mg2H6
_cell_volume  94.31316994829969
_cell_formula_units_Z  2
loop_
  _symmetry_equiv_pos_site_id
 _symmetry_equiv_pos_as_xyz
 1  'x, y, z'
loop_
 _atom_site_type_symbol
 _atom_site_label
 _atom_site_symmetry_multiplicity
 _atom_site_fract_x
 _atom_site_fract_y
 _atom_site_fract_z
 _atom_site_fract_occupancy
 H  H1  1  0.09969  0.70377  0.39003  1
 H  H2  1  0.70377  0.39003  0.09969  1
 H  H3  1  0.39003  0.09969  0.70377  1
 H  H4  1  0.89003  0.20377  0.59969  1
 H  H5  1  0.59969  0.89003  0.20377  1
 H  H6  1  0.20377  0.59969  0.89003  1
 Li  Li1  1  0.28846  0.28846  0.28846  1
 Li  Li2  1  0.78846  0.78846  0.78846  1
 Mg  Mg1  1  0.99784  0.99784  0.99784  1
 Mg  Mg2  1  0.49784  0.49784  0.49784  1
