CIF file written using JARVIS-Tools package.
data_BaYBr5
_symmetry_space_group_name_H-M  'C2/c'
_cell_length_a       10.4705
_cell_length_b       10.4705
_cell_length_c       7.15418
_cell_angle_alpha    89.1964
_cell_angle_beta     90.8036
_cell_angle_gamma    32.6221

_symmetry_Int_Tables_number  15
_chemical_formula_structural  BaYBr5
_chemical_formula_sum  Ba2Y2Br0
_cell_volume  422.2992057590713
_cell_formula_units_Z  2
loop_
  _symmetry_equiv_pos_site_id
 _symmetry_equiv_pos_as_xyz
 1  'x, y, z'
loop_
 _atom_site_type_symbol
 _atom_site_label
 _atom_site_symmetry_multiplicity
 _atom_site_fract_x
 _atom_site_fract_y
 _atom_site_fract_z
 _atom_site_fract_occupancy
 Ba  Ba1  1  0.67123  0.67123  0.75000  1
 Ba  Ba2  1  0.32877  0.32877  0.25000  1
 Br  Br1  1  0.27704  0.78470  0.59603  1
 Br  Br2  1  0.21530  0.72296  0.09603  1
 Br  Br3  1  0.19598  0.18167  0.99544  1
 Br  Br4  1  0.36912  0.36912  0.75000  1
 Br  Br5  1  0.18167  0.19598  0.50456  1
 Br  Br6  1  0.81833  0.80402  0.49544  1
 Br  Br7  1  0.63088  0.63088  0.25000  1
 Br  Br8  1  0.80402  0.81833  0.00456  1
 Br  Br9  1  0.78470  0.27704  0.90397  1
 Br  Br10  1  0.72296  0.21530  0.40397  1
 Y  Y1  1  0.92245  0.92245  0.75000  1
 Y  Y2  1  0.07755  0.07755  0.25000  1
