CIF file written using JARVIS-Tools package.
data_LiCo2O4
_symmetry_space_group_name_H-M  'P2/m'
_cell_length_a       4.85914
_cell_length_b       2.83082
_cell_length_c       5.00789
_cell_angle_alpha    90
_cell_angle_beta     109.467
_cell_angle_gamma    90

_symmetry_Int_Tables_number  10
_chemical_formula_structural  LiCo2O4
_chemical_formula_sum  LiCo2O4
_cell_volume  64.94772275587403
_cell_formula_units_Z  1
loop_
  _symmetry_equiv_pos_site_id
 _symmetry_equiv_pos_as_xyz
 1  'x, y, z'
loop_
 _atom_site_type_symbol
 _atom_site_label
 _atom_site_symmetry_multiplicity
 _atom_site_fract_x
 _atom_site_fract_y
 _atom_site_fract_z
 _atom_site_fract_occupancy
 Co  Co1  1  0.00000  0.00000  0.00000  1
 Co  Co2  1  0.50000  0.50000  0.00000  1
 Li  Li1  1  0.00000  0.50000  0.50000  1
 O  O1  1  0.74123  0.00000  0.21046  1
 O  O2  1  0.23337  0.50000  0.20346  1
 O  O3  1  0.25877  0.00000  0.78954  1
 O  O4  1  0.76663  0.50000  0.79654  1
