CIF file written using JARVIS-Tools package.
data_Te2MoWSeS
_symmetry_space_group_name_H-M  'P3m1'
_cell_length_a       3.39961
_cell_length_b       3.3996
_cell_length_c       38.6816
_cell_angle_alpha    90
_cell_angle_beta     90
_cell_angle_gamma    120

_symmetry_Int_Tables_number  156
_chemical_formula_structural  Te2MoWSeS
_chemical_formula_sum  Te4Mo2W2Se2S2
_cell_volume  387.16111362123996
_cell_formula_units_Z  2
loop_
  _symmetry_equiv_pos_site_id
 _symmetry_equiv_pos_as_xyz
 1  'x, y, z'
loop_
 _atom_site_type_symbol
 _atom_site_label
 _atom_site_symmetry_multiplicity
 _atom_site_fract_x
 _atom_site_fract_y
 _atom_site_fract_z
 _atom_site_fract_occupancy
 Mo  Mo1  1  0.33331  0.66662  0.09391  1
 Mo  Mo2  1  0.33331  0.66662  0.46967  1
 S  S1  1  0.33336  0.66672  0.69641  1
 S  S2  1  0.33335  0.66671  0.61854  1
 Se  Se1  1  0.33335  0.66670  0.32461  1
 Se  Se2  1  0.33335  0.66670  0.23898  1
 Te  Te1  1  0.66665  0.33329  0.04555  1
 Te  Te2  1  0.66665  0.33329  0.42119  1
 Te  Te3  1  0.66665  0.33329  0.14239  1
 Te  Te4  1  0.66665  0.33329  0.51819  1
 W  W1  1  0.66669  0.33337  0.28179  1
 W  W2  1  0.66669  0.33338  0.65752  1
