CIF file written using JARVIS-Tools package.
data_BaYCl5
_symmetry_space_group_name_H-M  'C2/c'
_cell_length_a       9.94582
_cell_length_b       9.94582
_cell_length_c       6.79422
_cell_angle_alpha    89.2344
_cell_angle_beta     90.7656
_cell_angle_gamma    32.299

_symmetry_Int_Tables_number  15
_chemical_formula_structural  BaYCl5
_chemical_formula_sum  Ba2Y2Cl0
_cell_volume  358.7013835056817
_cell_formula_units_Z  2
loop_
  _symmetry_equiv_pos_site_id
 _symmetry_equiv_pos_as_xyz
 1  'x, y, z'
loop_
 _atom_site_type_symbol
 _atom_site_label
 _atom_site_symmetry_multiplicity
 _atom_site_fract_x
 _atom_site_fract_y
 _atom_site_fract_z
 _atom_site_fract_occupancy
 Ba  Ba1  1  0.67123  0.67123  0.75000  1
 Ba  Ba2  1  0.32877  0.32877  0.25000  1
 Cl  Cl1  1  0.27520  0.78652  0.59530  1
 Cl  Cl2  1  0.21348  0.72480  0.09530  1
 Cl  Cl3  1  0.19598  0.17962  0.99699  1
 Cl  Cl4  1  0.37110  0.37110  0.75000  1
 Cl  Cl5  1  0.17962  0.19598  0.50301  1
 Cl  Cl6  1  0.82038  0.80402  0.49699  1
 Cl  Cl7  1  0.62890  0.62890  0.25000  1
 Cl  Cl8  1  0.80402  0.82038  0.00301  1
 Cl  Cl9  1  0.78652  0.27520  0.90470  1
 Cl  Cl10  1  0.72480  0.21348  0.40470  1
 Y  Y1  1  0.92288  0.92288  0.75000  1
 Y  Y2  1  0.07712  0.07712  0.25000  1
