CIF file written using JARVIS-Tools package.
data_InSe
_symmetry_space_group_name_H-M  'P6_3/mmc'
_cell_length_a       4.07336
_cell_length_b       4.07336
_cell_length_c       16.9525
_cell_angle_alpha    90
_cell_angle_beta     90
_cell_angle_gamma    120

_symmetry_Int_Tables_number  194
_chemical_formula_structural  InSe
_chemical_formula_sum  In4Se4
_cell_volume  243.59591667595288
_cell_formula_units_Z  4
loop_
  _symmetry_equiv_pos_site_id
 _symmetry_equiv_pos_as_xyz
 1  'x, y, z'
loop_
 _atom_site_type_symbol
 _atom_site_label
 _atom_site_symmetry_multiplicity
 _atom_site_fract_x
 _atom_site_fract_y
 _atom_site_fract_z
 _atom_site_fract_occupancy
 In  In1  1  0.33333  0.66667  0.33299  1
 In  In2  1  0.66667  0.33333  0.83299  1
 In  In3  1  0.66667  0.33333  0.66701  1
 In  In4  1  0.33333  0.66667  0.16701  1
 Se  Se1  1  0.33333  0.66667  0.59147  1
 Se  Se2  1  0.66667  0.33333  0.09147  1
 Se  Se3  1  0.66667  0.33333  0.40853  1
 Se  Se4  1  0.33333  0.66667  0.90853  1
