CIF file written using JARVIS-Tools package.
data_Li5CuSO2
_symmetry_space_group_name_H-M  'P4/mmm'
_cell_length_a       3.80633
_cell_length_b       3.80633
_cell_length_c       7.72561
_cell_angle_alpha    90
_cell_angle_beta     90
_cell_angle_gamma    90

_symmetry_Int_Tables_number  123
_chemical_formula_structural  Li5CuSO2
_chemical_formula_sum  Li5CuSO2
_cell_volume  111.93002320285724
_cell_formula_units_Z  1
loop_
  _symmetry_equiv_pos_site_id
 _symmetry_equiv_pos_as_xyz
 1  'x, y, z'
loop_
 _atom_site_type_symbol
 _atom_site_label
 _atom_site_symmetry_multiplicity
 _atom_site_fract_x
 _atom_site_fract_y
 _atom_site_fract_z
 _atom_site_fract_occupancy
 Cu  Cu1  1  0.00000  0.00000  0.00000  1
 Li  Li1  1  0.00000  0.00000  0.50000  1
 Li  Li2  1  0.00000  0.50000  0.27942  1
 Li  Li3  1  0.00000  0.50000  0.72058  1
 Li  Li4  1  0.50000  0.00000  0.27942  1
 Li  Li5  1  0.50000  0.00000  0.72058  1
 O  O1  1  0.00000  0.00000  0.23626  1
 O  O2  1  0.00000  0.00000  0.76374  1
 S  S1  1  0.50000  0.50000  0.50000  1
