CIF file written using JARVIS-Tools package.
data_BeAlH5
_symmetry_space_group_name_H-M  'C2/c'
_cell_length_a       4.65637
_cell_length_b       4.65637
_cell_length_c       6.33369
_cell_angle_alpha    106.822
_cell_angle_beta     106.822
_cell_angle_gamma    98.3749

_symmetry_Int_Tables_number  15
_chemical_formula_structural  BeAlH5
_chemical_formula_sum  Be2Al2H0
_cell_volume  121.81650385908473
_cell_formula_units_Z  2
loop_
  _symmetry_equiv_pos_site_id
 _symmetry_equiv_pos_as_xyz
 1  'x, y, z'
loop_
 _atom_site_type_symbol
 _atom_site_label
 _atom_site_symmetry_multiplicity
 _atom_site_fract_x
 _atom_site_fract_y
 _atom_site_fract_z
 _atom_site_fract_occupancy
 Al  Al1  1  0.00000  0.00000  0.00000  1
 Al  Al2  1  -0.00000  -0.00000  0.50000  1
 Be  Be1  1  0.66207  0.33793  0.75000  1
 Be  Be2  1  0.33793  0.66207  0.25000  1
 H  H1  1  0.34896  0.26840  0.59488  1
 H  H2  1  0.73160  0.65104  0.90512  1
 H  H3  1  0.65104  0.73160  0.40512  1
 H  H4  1  0.26840  0.34896  0.09488  1
 H  H5  1  0.09087  0.90913  0.75000  1
 H  H6  1  0.90913  0.09087  0.25000  1
 H  H7  1  0.31042  0.85928  0.11275  1
 H  H8  1  0.14072  0.68958  0.38725  1
 H  H9  1  0.68958  0.14072  0.88725  1
 H  H10  1  0.85928  0.31042  0.61275  1
