CIF file written using JARVIS-Tools package.
data_Sr2MnO4
_symmetry_space_group_name_H-M  'I4/mmm'
_cell_length_a       3.81834
_cell_length_b       3.81834
_cell_length_c       6.8126
_cell_angle_alpha    106.275
_cell_angle_beta     106.275
_cell_angle_gamma    90.0001

_symmetry_Int_Tables_number  139
_chemical_formula_structural  Sr2MnO4
_chemical_formula_sum  Sr2MnO4
_cell_volume  91.19240449509448
_cell_formula_units_Z  1
loop_
  _symmetry_equiv_pos_site_id
 _symmetry_equiv_pos_as_xyz
 1  'x, y, z'
loop_
 _atom_site_type_symbol
 _atom_site_label
 _atom_site_symmetry_multiplicity
 _atom_site_fract_x
 _atom_site_fract_y
 _atom_site_fract_z
 _atom_site_fract_occupancy
 Mn  Mn1  1  0.00000  0.00000  0.00000  1
 O  O1  1  0.84418  0.84418  0.68835  1
 O  O2  1  0.15582  0.15582  0.31165  1
 O  O3  1  0.00000  0.50000  0.00000  1
 O  O4  1  0.50000  0.00000  0.00000  1
 Sr  Sr1  1  0.64380  0.64380  0.28759  1
 Sr  Sr2  1  0.35620  0.35620  0.71241  1
