CIF file written using JARVIS-Tools package.
data_CaCdGe
_symmetry_space_group_name_H-M  'P-62m'
_cell_length_a       7.36151
_cell_length_b       7.36151
_cell_length_c       4.45506
_cell_angle_alpha    90
_cell_angle_beta     90
_cell_angle_gamma    120

_symmetry_Int_Tables_number  189
_chemical_formula_structural  CaCdGe
_chemical_formula_sum  Ca3Cd3Ge3
_cell_volume  209.08261738092358
_cell_formula_units_Z  3
loop_
  _symmetry_equiv_pos_site_id
 _symmetry_equiv_pos_as_xyz
 1  'x, y, z'
loop_
 _atom_site_type_symbol
 _atom_site_label
 _atom_site_symmetry_multiplicity
 _atom_site_fract_x
 _atom_site_fract_y
 _atom_site_fract_z
 _atom_site_fract_occupancy
 Ca  Ca1  1  0.58244  -0.00000  0.50000  1
 Ca  Ca2  1  -0.00000  0.58244  0.50000  1
 Ca  Ca3  1  0.41756  0.41756  0.50000  1
 Cd  Cd1  1  0.74453  0.74453  0.00000  1
 Cd  Cd2  1  0.25547  -0.00000  0.00000  1
 Cd  Cd3  1  -0.00000  0.25547  0.00000  1
 Ge  Ge1  1  0.66667  0.33333  0.00000  1
 Ge  Ge2  1  0.33333  0.66667  0.00000  1
 Ge  Ge3  1  0.00000  0.00000  0.50000  1
