CIF file written using JARVIS-Tools package.
data_PNO
_symmetry_space_group_name_H-M  'I2_12_12_1'
_cell_length_a       4.44897
_cell_length_b       4.78047
_cell_length_c       4.81378
_cell_angle_alpha    119.775
_cell_angle_beta     117.522
_cell_angle_gamma    89.9994

_symmetry_Int_Tables_number  24
_chemical_formula_structural  PNO
_chemical_formula_sum  P2N2O2
_cell_volume  75.22564454447088
_cell_formula_units_Z  2
loop_
  _symmetry_equiv_pos_site_id
 _symmetry_equiv_pos_as_xyz
 1  'x, y, z'
loop_
 _atom_site_type_symbol
 _atom_site_label
 _atom_site_symmetry_multiplicity
 _atom_site_fract_x
 _atom_site_fract_y
 _atom_site_fract_z
 _atom_site_fract_occupancy
 N  N1  1  0.72769  0.62478  0.75026  1
 N  N2  1  0.02146  0.12475  0.75021  1
 O  O1  1  0.37460  -0.00292  0.25017  1
 O  O2  1  0.87466  0.25250  0.25030  1
 P  P1  1  0.98511  0.98529  0.97126  1
 P  P2  1  0.76408  0.26426  0.52920  1
