CIF file written using JARVIS-Tools package.
data_YbPr2S4
_symmetry_space_group_name_H-M  'I-42d'
_cell_length_a       7.42355
_cell_length_b       7.42355
_cell_length_c       7.42355
_cell_angle_alpha    109.633
_cell_angle_beta     109.147
_cell_angle_gamma    109.633

_symmetry_Int_Tables_number  122
_chemical_formula_structural  YbPr2S4
_chemical_formula_sum  Yb2Pr4S8
_cell_volume  314.9212590662354
_cell_formula_units_Z  2
loop_
  _symmetry_equiv_pos_site_id
 _symmetry_equiv_pos_as_xyz
 1  'x, y, z'
loop_
 _atom_site_type_symbol
 _atom_site_label
 _atom_site_symmetry_multiplicity
 _atom_site_fract_x
 _atom_site_fract_y
 _atom_site_fract_z
 _atom_site_fract_occupancy
 Pr  Pr1  1  0.25000  0.62802  0.37802  1
 Pr  Pr2  1  0.62198  0.37198  0.25000  1
 Pr  Pr3  1  0.75000  0.87198  0.12198  1
 Pr  Pr4  1  0.87802  0.12802  0.75000  1
 S  S1  1  0.00347  0.85565  0.50056  1
 S  S2  1  0.14782  0.14435  0.14491  1
 S  S3  1  0.35218  0.49710  0.99653  1
 S  S4  1  0.64491  0.64435  0.64782  1
 S  S5  1  0.49653  0.99710  0.85218  1
 S  S6  1  0.49944  0.00290  0.35509  1
 S  S7  1  0.85509  0.50290  0.99944  1
 S  S8  1  0.00056  0.35565  0.50347  1
 Yb  Yb1  1  0.12500  0.75000  0.87500  1
 Yb  Yb2  1  0.37500  0.25000  0.62500  1
