CIF file written using JARVIS-Tools package.
data_Li3Ti2Fe3O10
_symmetry_space_group_name_H-M  'P-1'
_cell_length_a       5.03888
_cell_length_b       4.98048
_cell_length_c       7.67685
_cell_angle_alpha    71.9457
_cell_angle_beta     72.7933
_cell_angle_gamma    80.2294

_symmetry_Int_Tables_number  2
_chemical_formula_structural  Li3Ti2Fe3O10
_chemical_formula_sum  Li3Ti2Fe3O0
_cell_volume  174.3273000224407
_cell_formula_units_Z  1
loop_
  _symmetry_equiv_pos_site_id
 _symmetry_equiv_pos_as_xyz
 1  'x, y, z'
loop_
 _atom_site_type_symbol
 _atom_site_label
 _atom_site_symmetry_multiplicity
 _atom_site_fract_x
 _atom_site_fract_y
 _atom_site_fract_z
 _atom_site_fract_occupancy
 Fe  Fe1  1  0.50000  -0.00000  -0.00000  1
 Fe  Fe2  1  0.98645  0.30272  0.90316  1
 Fe  Fe3  1  0.01355  0.69728  0.09684  1
 Li  Li1  1  0.50993  0.77613  0.40710  1
 Li  Li2  1  0.00000  0.50000  0.50000  1
 Li  Li3  1  0.49007  0.22387  0.59290  1
 O  O1  1  0.22738  0.11484  0.46713  1
 O  O2  1  0.77262  0.88516  0.53287  1
 O  O3  1  0.77989  0.65098  0.94946  1
 O  O4  1  0.21407  0.95938  0.86411  1
 O  O5  1  0.21166  0.53334  0.66809  1
 O  O6  1  0.22011  0.34902  0.05054  1
 O  O7  1  0.76293  0.21873  0.76683  1
 O  O8  1  0.23707  0.78127  0.23317  1
 O  O9  1  0.78834  0.46666  0.33191  1
 O  O10  1  0.78593  0.04062  0.13589  1
 Ti  Ti1  1  0.99575  0.12598  0.30576  1
 Ti  Ti2  1  0.00425  0.87402  0.69424  1
