CIF file written using JARVIS-Tools package.
data_HgI2O6
_symmetry_space_group_name_H-M  'P2_1'
_cell_length_a       5.85645
_cell_length_b       5.57637
_cell_length_c       9.02194
_cell_angle_alpha    90
_cell_angle_beta     102.64
_cell_angle_gamma    90

_symmetry_Int_Tables_number  4
_chemical_formula_structural  HgI2O6
_chemical_formula_sum  Hg2I4O2
_cell_volume  287.49502097740276
_cell_formula_units_Z  2
loop_
  _symmetry_equiv_pos_site_id
 _symmetry_equiv_pos_as_xyz
 1  'x, y, z'
loop_
 _atom_site_type_symbol
 _atom_site_label
 _atom_site_symmetry_multiplicity
 _atom_site_fract_x
 _atom_site_fract_y
 _atom_site_fract_z
 _atom_site_fract_occupancy
 Hg  Hg1  1  0.93186  0.74727  0.82681  1
 Hg  Hg2  1  0.06814  0.24727  0.17319  1
 I  I1  1  0.56737  0.26754  0.84866  1
 I  I2  1  0.43263  0.76754  0.15134  1
 I  I3  1  0.72938  0.23388  0.43362  1
 I  I4  1  0.27062  0.73388  0.56638  1
 O  O1  1  0.52015  0.93080  0.64891  1
 O  O2  1  0.47985  0.43080  0.35109  1
 O  O3  1  0.23853  0.56404  0.73972  1
 O  O4  1  0.33887  0.00041  0.00647  1
 O  O5  1  0.66113  0.50041  0.99353  1
 O  O6  1  0.96645  0.43971  0.41505  1
 O  O7  1  0.03355  0.93971  0.58495  1
 O  O8  1  0.70362  0.41965  0.70419  1
 O  O9  1  0.17268  0.57578  0.06528  1
 O  O10  1  0.82732  0.07578  0.93472  1
 O  O11  1  0.29638  0.91965  0.29581  1
 O  O12  1  0.76147  0.06404  0.26028  1
