CIF file written using JARVIS-Tools package.
data_Na4NpO5
_symmetry_space_group_name_H-M  'I4/m'
_cell_length_a       5.78916
_cell_length_b       5.78916
_cell_length_c       5.78916
_cell_angle_alpha    99.1997
_cell_angle_beta     99.1997
_cell_angle_gamma    132.863

_symmetry_Int_Tables_number  87
_chemical_formula_structural  Na4NpO5
_chemical_formula_sum  Na4NpO5
_cell_volume  130.34982647185058
_cell_formula_units_Z  1
loop_
  _symmetry_equiv_pos_site_id
 _symmetry_equiv_pos_as_xyz
 1  'x, y, z'
loop_
 _atom_site_type_symbol
 _atom_site_label
 _atom_site_symmetry_multiplicity
 _atom_site_fract_x
 _atom_site_fract_y
 _atom_site_fract_z
 _atom_site_fract_occupancy
 Na  Na1  1  0.80409  0.40418  0.20828  1
 Na  Na2  1  0.40418  0.19591  0.60009  1
 Na  Na3  1  0.59582  0.80409  0.39991  1
 Na  Na4  1  0.19591  0.59582  0.79172  1
 Np  Np1  1  0.00000  0.00000  0.00000  1
 O  O1  1  0.50000  0.50000  0.00000  1
 O  O2  1  0.74228  0.07925  0.82154  1
 O  O3  1  0.07925  0.25772  0.33697  1
 O  O4  1  0.92075  0.74228  0.66303  1
 O  O5  1  0.25772  0.92075  0.17846  1
