CIF file written using JARVIS-Tools package.
data_LiBiS2
_symmetry_space_group_name_H-M  'I4_1/amd'
_cell_length_a       7.90259
_cell_length_b       10.4416
_cell_length_c       6.82513
_cell_angle_alpha    29.2248
_cell_angle_beta     54.6244
_cell_angle_gamma    40.8161

_symmetry_Int_Tables_number  141
_chemical_formula_structural  LiBiS2
_chemical_formula_sum  Li2Bi2S4
_cell_volume  173.76134484432671
_cell_formula_units_Z  2
loop_
  _symmetry_equiv_pos_site_id
 _symmetry_equiv_pos_as_xyz
 1  'x, y, z'
loop_
 _atom_site_type_symbol
 _atom_site_label
 _atom_site_symmetry_multiplicity
 _atom_site_fract_x
 _atom_site_fract_y
 _atom_site_fract_z
 _atom_site_fract_occupancy
 Bi  Bi1  1  0.24999  0.50000  0.00002  1
 Bi  Bi2  1  0.50001  0.00000  -0.00002  1
 Li  Li1  1  -0.00004  -0.00000  0.00009  1
 Li  Li2  1  0.75004  0.50000  -0.00009  1
 S  S1  1  0.50485  0.50000  0.49030  1
 S  S2  1  0.24515  -0.00000  0.50970  1
 S  S3  1  0.99516  0.50000  0.50968  1
 S  S4  1  0.75484  0.00000  0.49032  1
