CIF file written using JARVIS-Tools package.
data_Al2NiCl8
_symmetry_space_group_name_H-M  'C2/c'
_cell_length_a       7.43961
_cell_length_b       9.18552
_cell_length_c       9.40077
_cell_angle_alpha    76.4231
_cell_angle_beta     66.6927
_cell_angle_gamma    66.1044

_symmetry_Int_Tables_number  15
_chemical_formula_structural  Al2NiCl8
_chemical_formula_sum  Al4Ni2Cl6
_cell_volume  537.2961001923812
_cell_formula_units_Z  2
loop_
  _symmetry_equiv_pos_site_id
 _symmetry_equiv_pos_as_xyz
 1  'x, y, z'
loop_
 _atom_site_type_symbol
 _atom_site_label
 _atom_site_symmetry_multiplicity
 _atom_site_fract_x
 _atom_site_fract_y
 _atom_site_fract_z
 _atom_site_fract_occupancy
 Al  Al1  1  0.34006  0.85969  0.96413  1
 Al  Al2  1  0.83657  0.35973  0.46409  1
 Al  Al3  1  0.16337  0.64278  0.53440  1
 Al  Al4  1  0.65983  0.14283  0.03434  1
 Cl  Cl1  1  0.32722  0.77351  0.55483  1
 Cl  Cl2  1  0.66881  0.95114  0.22220  1
 Cl  Cl3  1  0.15225  0.95246  0.19263  1
 Cl  Cl4  1  0.14750  0.21135  0.47600  1
 Cl  Cl5  1  0.67274  0.22899  0.44365  1
 Cl  Cl6  1  0.83437  0.29113  0.02243  1
 Cl  Cl7  1  0.84764  0.05007  0.80585  1
 Cl  Cl8  1  0.70315  0.45245  0.69260  1
 Cl  Cl9  1  0.65508  0.72889  0.94374  1
 Cl  Cl10  1  0.85244  0.79118  0.52247  1
 Cl  Cl11  1  0.15830  0.45103  0.72219  1
 Cl  Cl12  1  0.84161  0.55150  0.27630  1
 Cl  Cl13  1  0.34481  0.27364  0.05474  1
 Cl  Cl14  1  0.29678  0.55007  0.30588  1
 Cl  Cl15  1  0.16551  0.71140  0.97606  1
 Cl  Cl16  1  0.33108  0.05139  0.77628  1
 Ni  Ni1  1  0.00530  0.25124  0.74922  1
 Ni  Ni2  1  0.99459  0.75132  0.24926  1
