CIF file written using JARVIS-Tools package.
data_Ni2Ag3O4
_symmetry_space_group_name_H-M  'P6_3/mmc'
_cell_length_a       2.92633
_cell_length_b       2.92633
_cell_length_c       28.8596
_cell_angle_alpha    90
_cell_angle_beta     90
_cell_angle_gamma    120

_symmetry_Int_Tables_number  194
_chemical_formula_structural  Ni2Ag3O4
_chemical_formula_sum  Ni4Ag6O8
_cell_volume  214.02678805655543
_cell_formula_units_Z  2
loop_
  _symmetry_equiv_pos_site_id
 _symmetry_equiv_pos_as_xyz
 1  'x, y, z'
loop_
 _atom_site_type_symbol
 _atom_site_label
 _atom_site_symmetry_multiplicity
 _atom_site_fract_x
 _atom_site_fract_y
 _atom_site_fract_z
 _atom_site_fract_occupancy
 Ag  Ag1  1  0.66667  0.33333  0.96031  1
 Ag  Ag2  1  0.33333  0.66667  0.46031  1
 Ag  Ag3  1  0.33333  0.66667  0.03969  1
 Ag  Ag4  1  0.66667  0.33333  0.53969  1
 Ag  Ag5  1  0.33333  0.66667  0.25000  1
 Ag  Ag6  1  0.66667  0.33333  0.75000  1
 Ni  Ni1  1  0.66667  0.33333  0.14320  1
 Ni  Ni2  1  0.33333  0.66667  0.85680  1
 Ni  Ni3  1  0.66667  0.33333  0.35680  1
 Ni  Ni4  1  0.33333  0.66667  0.64320  1
 O  O1  1  0.33333  0.66667  0.32301  1
 O  O2  1  0.66667  0.33333  0.67699  1
 O  O3  1  0.66667  0.33333  0.82301  1
 O  O4  1  0.00000  0.00000  0.10835  1
 O  O5  1  0.00000  0.00000  0.60835  1
 O  O6  1  0.00000  0.00000  0.89165  1
 O  O7  1  0.00000  0.00000  0.39165  1
 O  O8  1  0.33333  0.66667  0.17699  1
