CIF file written using JARVIS-Tools package.
data_Ca2NF
_symmetry_space_group_name_H-M  'I4_1/amd'
_cell_length_a       4.89772
_cell_length_b       4.89772
_cell_length_c       6.18181
_cell_angle_alpha    113.334
_cell_angle_beta     113.334
_cell_angle_gamma    90.0011

_symmetry_Int_Tables_number  141
_chemical_formula_structural  Ca2NF
_chemical_formula_sum  Ca4N2F2
_cell_volume  122.8387880949742
_cell_formula_units_Z  2
loop_
  _symmetry_equiv_pos_site_id
 _symmetry_equiv_pos_as_xyz
 1  'x, y, z'
loop_
 _atom_site_type_symbol
 _atom_site_label
 _atom_site_symmetry_multiplicity
 _atom_site_fract_x
 _atom_site_fract_y
 _atom_site_fract_z
 _atom_site_fract_occupancy
 Ca  Ca1  1  0.14474  0.39475  0.28950  1
 Ca  Ca2  1  0.39475  0.14474  0.78950  1
 Ca  Ca3  1  0.60525  0.85526  0.21050  1
 Ca  Ca4  1  0.85526  0.60525  0.71050  1
 F  F1  1  0.12499  0.87501  0.25000  1
 F  F2  1  0.87501  0.12499  0.75000  1
 N  N1  1  0.37499  0.62501  0.75000  1
 N  N2  1  0.62501  0.37499  0.25000  1
