CIF file written using JARVIS-Tools package.
data_TaFeO4
_symmetry_space_group_name_H-M  'Pbcn'
_cell_length_a       4.54904
_cell_length_b       4.7928
_cell_length_c       11.3427
_cell_angle_alpha    90
_cell_angle_beta     90
_cell_angle_gamma    90

_symmetry_Int_Tables_number  60
_chemical_formula_structural  TaFeO4
_chemical_formula_sum  Ta4Fe4O6
_cell_volume  247.30065493391552
_cell_formula_units_Z  4
loop_
  _symmetry_equiv_pos_site_id
 _symmetry_equiv_pos_as_xyz
 1  'x, y, z'
loop_
 _atom_site_type_symbol
 _atom_site_label
 _atom_site_symmetry_multiplicity
 _atom_site_fract_x
 _atom_site_fract_y
 _atom_site_fract_z
 _atom_site_fract_occupancy
 Fe  Fe1  1  0.00000  0.75000  0.44035  1
 Fe  Fe2  1  0.00000  0.25000  0.55965  1
 Fe  Fe3  1  0.50000  0.25000  0.05965  1
 Fe  Fe4  1  0.50000  0.75000  0.94035  1
 O  O1  1  0.26279  0.57594  0.05966  1
 O  O2  1  0.77249  0.91884  0.31358  1
 O  O3  1  0.77249  0.41884  0.68642  1
 O  O4  1  0.76279  0.42406  0.44034  1
 O  O5  1  0.22751  0.58116  0.31358  1
 O  O6  1  0.73721  0.92406  0.05966  1
 O  O7  1  0.73721  0.42406  0.94034  1
 O  O8  1  0.76279  0.92406  0.55966  1
 O  O9  1  0.72751  0.91884  0.81358  1
 O  O10  1  0.22751  0.08116  0.68642  1
 O  O11  1  0.27249  0.58116  0.81358  1
 O  O12  1  0.72751  0.41884  0.18642  1
 O  O13  1  0.26279  0.07594  0.94034  1
 O  O14  1  0.23721  0.57594  0.55966  1
 O  O15  1  0.23721  0.07594  0.44034  1
 O  O16  1  0.27249  0.08116  0.18642  1
 Ta  Ta1  1  0.50000  0.25000  0.32689  1
 Ta  Ta2  1  0.50000  0.75000  0.67311  1
 Ta  Ta3  1  0.00000  0.25000  0.82689  1
 Ta  Ta4  1  0.00000  0.75000  0.17311  1
