CIF file written using JARVIS-Tools package.
data_Te2MoW3Se2S4
_symmetry_space_group_name_H-M  'P3m1'
_cell_length_a       3.31073
_cell_length_b       3.31074
_cell_length_c       38.3242
_cell_angle_alpha    90.0048
_cell_angle_beta     90
_cell_angle_gamma    120

_symmetry_Int_Tables_number  156
_chemical_formula_structural  Te2MoW3Se2S4
_chemical_formula_sum  Te2MoW3Se2S4
_cell_volume  363.7914457631958
_cell_formula_units_Z  1
loop_
  _symmetry_equiv_pos_site_id
 _symmetry_equiv_pos_as_xyz
 1  'x, y, z'
loop_
 _atom_site_type_symbol
 _atom_site_label
 _atom_site_symmetry_multiplicity
 _atom_site_fract_x
 _atom_site_fract_y
 _atom_site_fract_z
 _atom_site_fract_occupancy
 Mo  Mo1  1  0.33330  0.66661  0.09271  1
 S  S1  1  0.33338  0.66677  0.69761  1
 S  S2  1  0.66659  0.33317  0.42971  1
 S  S3  1  0.66664  0.33329  0.50987  1
 S  S4  1  0.33333  0.66667  0.61756  1
 Se  Se1  1  0.33343  0.66685  0.32682  1
 Se  Se2  1  0.33335  0.66671  0.23870  1
 Te  Te1  1  0.66660  0.33320  0.04291  1
 Te  Te2  1  0.66667  0.33334  0.14269  1
 W  W1  1  0.33328  0.66656  0.46980  1
 W  W2  1  0.66672  0.33345  0.28275  1
 W  W3  1  0.66669  0.33338  0.65763  1
