CIF file written using JARVIS-Tools package.
data_Cr3O8
_symmetry_space_group_name_H-M  'C2/m'
_cell_length_a       5.6195
_cell_length_b       5.61946
_cell_length_c       5.35992
_cell_angle_alpha    103.966
_cell_angle_beta     106.231
_cell_angle_gamma    120.209

_symmetry_Int_Tables_number  12
_chemical_formula_structural  Cr3O8
_chemical_formula_sum  Cr3O8
_cell_volume  124.6765933192968
_cell_formula_units_Z  1
loop_
  _symmetry_equiv_pos_site_id
 _symmetry_equiv_pos_as_xyz
 1  'x, y, z'
loop_
 _atom_site_type_symbol
 _atom_site_label
 _atom_site_symmetry_multiplicity
 _atom_site_fract_x
 _atom_site_fract_y
 _atom_site_fract_z
 _atom_site_fract_occupancy
 Cr  Cr1  1  0.40905  0.24001  0.64908  1
 Cr  Cr2  1  -0.00000  0.50000  0.50000  1
 Cr  Cr3  1  0.59095  0.75999  0.35092  1
 O  O1  1  0.28154  0.93877  0.73453  1
 O  O2  1  0.22945  0.07418  0.30361  1
 O  O3  1  0.79572  0.45294  0.73452  1
 O  O4  1  0.77055  0.92582  0.69639  1
 O  O5  1  0.71299  0.54125  0.25422  1
 O  O6  1  0.71846  0.06123  0.26547  1
 O  O7  1  0.20428  0.54706  0.26548  1
 O  O8  1  0.28701  0.45875  0.74578  1
