CIF file written using JARVIS-Tools package.
data_ErH3O3
_symmetry_space_group_name_H-M  'P6_3/m'
_cell_length_a       6.23228
_cell_length_b       6.23228
_cell_length_c       3.49341
_cell_angle_alpha    90
_cell_angle_beta     90
_cell_angle_gamma    120

_symmetry_Int_Tables_number  176
_chemical_formula_structural  ErH3O3
_chemical_formula_sum  Er2H6O6
_cell_volume  117.50956323534108
_cell_formula_units_Z  2
loop_
  _symmetry_equiv_pos_site_id
 _symmetry_equiv_pos_as_xyz
 1  'x, y, z'
loop_
 _atom_site_type_symbol
 _atom_site_label
 _atom_site_symmetry_multiplicity
 _atom_site_fract_x
 _atom_site_fract_y
 _atom_site_fract_z
 _atom_site_fract_occupancy
 Er  Er1  1  0.66667  0.33333  0.75000  1
 Er  Er2  1  0.33333  0.66667  0.25000  1
 H  H1  1  0.72549  0.86667  0.75000  1
 H  H2  1  0.85882  0.72549  0.25000  1
 H  H3  1  0.14118  0.27451  0.75000  1
 H  H4  1  0.27451  0.13333  0.25000  1
 H  H5  1  0.86667  0.14118  0.25000  1
 H  H6  1  0.13333  0.85882  0.75000  1
 O  O1  1  0.91553  0.60510  0.25000  1
 O  O2  1  0.60510  0.68958  0.75000  1
 O  O3  1  0.08447  0.39490  0.75000  1
 O  O4  1  0.39490  0.31042  0.25000  1
 O  O5  1  0.68958  0.08447  0.25000  1
 O  O6  1  0.31042  0.91553  0.75000  1
