CIF file written using JARVIS-Tools package.
data_Sm4Cl6O
_symmetry_space_group_name_H-M  'P6_3mc'
_cell_length_a       9.1891
_cell_length_b       9.1891
_cell_length_c       6.99074
_cell_angle_alpha    90
_cell_angle_beta     90
_cell_angle_gamma    120

_symmetry_Int_Tables_number  186
_chemical_formula_structural  Sm4Cl6O
_chemical_formula_sum  Sm8Cl2O2
_cell_volume  511.2109319104877
_cell_formula_units_Z  2
loop_
  _symmetry_equiv_pos_site_id
 _symmetry_equiv_pos_as_xyz
 1  'x, y, z'
loop_
 _atom_site_type_symbol
 _atom_site_label
 _atom_site_symmetry_multiplicity
 _atom_site_fract_x
 _atom_site_fract_y
 _atom_site_fract_z
 _atom_site_fract_occupancy
 Cl  Cl1  1  0.27145  0.13573  0.91498  1
 Cl  Cl2  1  0.72855  0.86427  0.41498  1
 Cl  Cl3  1  0.48878  0.97757  0.72582  1
 Cl  Cl4  1  0.51122  0.02243  0.22582  1
 Cl  Cl5  1  0.48878  0.51122  0.72582  1
 Cl  Cl6  1  0.86427  0.13573  0.91498  1
 Cl  Cl7  1  0.97757  0.48878  0.22582  1
 Cl  Cl8  1  0.51122  0.48878  0.22582  1
 Cl  Cl9  1  0.13573  0.27145  0.41498  1
 Cl  Cl10  1  0.86427  0.72855  0.91498  1
 Cl  Cl11  1  0.02243  0.51122  0.72582  1
 Cl  Cl12  1  0.13573  0.86427  0.41498  1
 O  O1  1  0.66667  0.33333  0.52188  1
 O  O2  1  0.33333  0.66667  0.02188  1
 Sm  Sm1  1  0.33333  0.66667  0.36601  1
 Sm  Sm2  1  0.66667  0.33333  0.86601  1
 Sm  Sm3  1  0.19287  0.80713  0.01533  1
 Sm  Sm4  1  0.38573  0.19287  0.51533  1
 Sm  Sm5  1  0.80713  0.61427  0.51533  1
 Sm  Sm6  1  0.19287  0.38573  0.01533  1
 Sm  Sm7  1  0.61427  0.80713  0.01533  1
 Sm  Sm8  1  0.80713  0.19287  0.51533  1
