CIF file written using JARVIS-Tools package.
data_Sr2ScIrO6
_symmetry_space_group_name_H-M  'P2_1/c'
_cell_length_a       5.69516
_cell_length_b       5.66997
_cell_length_c       9.83583
_cell_angle_alpha    90
_cell_angle_beta     125.297
_cell_angle_gamma    90

_symmetry_Int_Tables_number  14
_chemical_formula_structural  Sr2ScIrO6
_chemical_formula_sum  Sr4Sc2Ir2O2
_cell_volume  259.2254783392685
_cell_formula_units_Z  2
loop_
  _symmetry_equiv_pos_site_id
 _symmetry_equiv_pos_as_xyz
 1  'x, y, z'
loop_
 _atom_site_type_symbol
 _atom_site_label
 _atom_site_symmetry_multiplicity
 _atom_site_fract_x
 _atom_site_fract_y
 _atom_site_fract_z
 _atom_site_fract_occupancy
 Ir  Ir1  1  0.50000  0.00000  -0.00000  1
 Ir  Ir2  1  0.50000  0.50000  0.50000  1
 O  O1  1  0.25926  0.21948  0.02740  1
 O  O2  1  0.20344  0.50550  0.25617  1
 O  O3  1  0.74074  0.78052  0.97260  1
 O  O4  1  0.79656  0.49450  0.74383  1
 O  O5  1  0.20344  0.99450  0.75617  1
 O  O6  1  0.79656  0.00550  0.24383  1
 O  O7  1  0.69122  0.26912  0.97258  1
 O  O8  1  0.69122  0.23088  0.47258  1
 O  O9  1  0.25926  0.28052  0.52740  1
 O  O10  1  0.30878  0.76912  0.52742  1
 O  O11  1  0.74074  0.71948  0.47260  1
 O  O12  1  0.30878  0.73088  0.02742  1
 Sc  Sc1  1  -0.00000  0.00000  0.50000  1
 Sc  Sc2  1  0.00000  0.50000  0.00000  1
 Sr  Sr1  1  0.74659  0.01847  0.74958  1
 Sr  Sr2  1  0.25341  0.98153  0.25042  1
 Sr  Sr3  1  0.25341  0.51847  0.75042  1
 Sr  Sr4  1  0.74659  0.48153  0.24958  1
