CIF file written using JARVIS-Tools package.
data_ZnCr2S4
_symmetry_space_group_name_H-M  'Imma'
_cell_length_a       6.99745
_cell_length_b       6.99736
_cell_length_c       6.99743
_cell_angle_alpha    91.9651
_cell_angle_beta     118.487
_cell_angle_gamma    119.259

_symmetry_Int_Tables_number  74
_chemical_formula_structural  ZnCr2S4
_chemical_formula_sum  Zn2Cr4S8
_cell_volume  246.22697116970207
_cell_formula_units_Z  2
loop_
  _symmetry_equiv_pos_site_id
 _symmetry_equiv_pos_as_xyz
 1  'x, y, z'
loop_
 _atom_site_type_symbol
 _atom_site_label
 _atom_site_symmetry_multiplicity
 _atom_site_fract_x
 _atom_site_fract_y
 _atom_site_fract_z
 _atom_site_fract_occupancy
 Cr  Cr1  1  -0.00002  0.50000  0.99997  1
 Cr  Cr2  1  0.50000  0.49998  -0.00002  1
 Cr  Cr3  1  0.49998  -0.00000  -0.00002  1
 Cr  Cr4  1  0.00000  0.50001  0.50001  1
 S  S1  1  0.02138  0.74992  0.77130  1
 S  S2  1  0.01557  0.26988  0.75435  1
 S  S3  1  0.47859  0.74990  0.22848  1
 S  S4  1  0.51558  0.26123  0.24569  1
 S  S5  1  0.52137  0.25007  0.77145  1
 S  S6  1  0.98440  0.73011  0.24562  1
 S  S7  1  0.48439  0.73877  0.75429  1
 S  S8  1  0.97859  0.25011  0.22868  1
 Zn  Zn1  1  0.00013  0.00005  0.00015  1
 Zn  Zn2  1  0.50008  0.99993  0.50007  1
