CIF file written using JARVIS-Tools package.
data_MgPS3
_symmetry_space_group_name_H-M  'C2/m'
_cell_length_a       6.09296
_cell_length_b       6.09371
_cell_length_c       6.80448
_cell_angle_alpha    81.4965
_cell_angle_beta     72.7954
_cell_angle_gamma    60.0038

_symmetry_Int_Tables_number  12
_chemical_formula_structural  MgPS3
_chemical_formula_sum  Mg2P2S6
_cell_volume  209.0117781146701
_cell_formula_units_Z  2
loop_
  _symmetry_equiv_pos_site_id
 _symmetry_equiv_pos_as_xyz
 1  'x, y, z'
loop_
 _atom_site_type_symbol
 _atom_site_label
 _atom_site_symmetry_multiplicity
 _atom_site_fract_x
 _atom_site_fract_y
 _atom_site_fract_z
 _atom_site_fract_occupancy
 Mg  Mg1  1  0.33276  0.33448  0.00000  1
 Mg  Mg2  1  0.66724  0.66552  -0.00000  1
 P  P1  1  0.05665  -0.00000  0.82981  1
 P  P2  1  0.94335  0.00000  0.17019  1
 S  S1  1  0.24246  0.00000  0.24963  1
 S  S2  1  0.08300  0.32464  0.74840  1
 S  S3  1  0.59236  0.32464  0.25160  1
 S  S4  1  0.40764  0.67536  0.74840  1
 S  S5  1  0.75754  -0.00000  0.75037  1
 S  S6  1  0.91700  0.67536  0.25160  1
