CIF file written using JARVIS-Tools package.
data_TaF5
_symmetry_space_group_name_H-M  'Immm'
_cell_length_a       3.71362
_cell_length_b       5.37911
_cell_length_c       5.37911
_cell_angle_alpha    48.2016
_cell_angle_beta     69.8067
_cell_angle_gamma    69.8067

_symmetry_Int_Tables_number  71
_chemical_formula_structural  TaF5
_chemical_formula_sum  TaF5
_cell_volume  74.15732857108989
_cell_formula_units_Z  1
loop_
  _symmetry_equiv_pos_site_id
 _symmetry_equiv_pos_as_xyz
 1  'x, y, z'
loop_
 _atom_site_type_symbol
 _atom_site_label
 _atom_site_symmetry_multiplicity
 _atom_site_fract_x
 _atom_site_fract_y
 _atom_site_fract_z
 _atom_site_fract_occupancy
 F  F1  1  0.50000  0.76669  0.23331  1
 F  F2  1  0.50000  0.23331  0.76669  1
 F  F3  1  0.79344  0.20656  0.20656  1
 F  F4  1  0.20656  0.79344  0.79344  1
 F  F5  1  -0.00000  0.50000  0.50000  1
 Ta  Ta1  1  0.00000  0.00000  0.00000  1
