CIF file written using JARVIS-Tools package.
data_AgSnO3
_symmetry_space_group_name_H-M  'Cmmm'
_cell_length_a       3.25313
_cell_length_b       6.57455
_cell_length_c       6.57448
_cell_angle_alpha    70.2661
_cell_angle_beta     89.9182
_cell_angle_gamma    89.92

_symmetry_Int_Tables_number  65
_chemical_formula_structural  AgSnO3
_chemical_formula_sum  Ag2Sn2O6
_cell_volume  132.3556243332469
_cell_formula_units_Z  2
loop_
  _symmetry_equiv_pos_site_id
 _symmetry_equiv_pos_as_xyz
 1  'x, y, z'
loop_
 _atom_site_type_symbol
 _atom_site_label
 _atom_site_symmetry_multiplicity
 _atom_site_fract_x
 _atom_site_fract_y
 _atom_site_fract_z
 _atom_site_fract_occupancy
 Ag  Ag1  1  0.49951  0.50109  0.50041  1
 Ag  Ag2  1  0.49956  0.00111  0.00039  1
 O  O1  1  0.49892  0.17663  0.56177  1
 O  O2  1  0.50012  0.43973  0.82488  1
 O  O3  1  0.99897  0.83336  0.83269  1
 O  O4  1  0.00008  0.16880  0.16813  1
 O  O5  1  0.49892  0.56246  0.17595  1
 O  O6  1  0.50013  0.82555  0.43905  1
 Sn  Sn1  1  0.99952  0.50108  0.00042  1
 Sn  Sn2  1  0.99952  0.00109  0.50041  1
