CIF file written using JARVIS-Tools package.
data_GaHO2
_symmetry_space_group_name_H-M  'Pnma'
_cell_length_a       3.00553
_cell_length_b       4.53452
_cell_length_c       9.89728
_cell_angle_alpha    90
_cell_angle_beta     90
_cell_angle_gamma    90

_symmetry_Int_Tables_number  62
_chemical_formula_structural  GaHO2
_chemical_formula_sum  Ga4H4O8
_cell_volume  134.88620492227676
_cell_formula_units_Z  4
loop_
  _symmetry_equiv_pos_site_id
 _symmetry_equiv_pos_as_xyz
 1  'x, y, z'
loop_
 _atom_site_type_symbol
 _atom_site_label
 _atom_site_symmetry_multiplicity
 _atom_site_fract_x
 _atom_site_fract_y
 _atom_site_fract_z
 _atom_site_fract_occupancy
 Ga  Ga1  1  0.25000  0.44455  0.35687  1
 Ga  Ga2  1  0.25000  0.05545  0.85687  1
 Ga  Ga3  1  0.75000  0.55545  0.64313  1
 Ga  Ga4  1  0.75000  0.94455  0.14313  1
 H  H1  1  0.25000  0.09311  0.59281  1
 H  H2  1  0.25000  0.40689  0.09281  1
 H  H3  1  0.75000  0.90689  0.40719  1
 H  H4  1  0.75000  0.59311  0.90719  1
 O  O1  1  0.25000  0.80953  0.69274  1
 O  O2  1  0.25000  0.69047  0.19274  1
 O  O3  1  0.75000  0.19047  0.30726  1
 O  O4  1  0.75000  0.30953  0.80726  1
 O  O5  1  0.25000  0.30399  0.55710  1
 O  O6  1  0.25000  0.19601  0.05710  1
 O  O7  1  0.75000  0.69601  0.44290  1
 O  O8  1  0.75000  0.80399  0.94290  1
