CIF file written using JARVIS-Tools package.
data_InPF3
_symmetry_space_group_name_H-M  'R3m'
_cell_length_a       4.63316
_cell_length_b       7.31137
_cell_length_c       7.31137
_cell_angle_alpha    60
_cell_angle_beta     37.9053
_cell_angle_gamma    37.9052

_symmetry_Int_Tables_number  160
_chemical_formula_structural  InPF3
_chemical_formula_sum  InPF3
_cell_volume  88.41375026047292
_cell_formula_units_Z  1
loop_
  _symmetry_equiv_pos_site_id
 _symmetry_equiv_pos_as_xyz
 1  'x, y, z'
loop_
 _atom_site_type_symbol
 _atom_site_label
 _atom_site_symmetry_multiplicity
 _atom_site_fract_x
 _atom_site_fract_y
 _atom_site_fract_z
 _atom_site_fract_occupancy
 F  F1  1  0.96185  0.30361  0.86728  1
 F  F2  1  0.96185  0.86726  0.30361  1
 F  F3  1  0.96185  0.86728  0.86726  1
 In  In1  1  0.43908  0.52031  0.52031  1
 P  P1  1  -0.01723  0.00574  0.00574  1
