CIF file written using JARVIS-Tools package.
data_Li2Mn3SnO8
_symmetry_space_group_name_H-M  'R3m'
_cell_length_a       5.97748
_cell_length_b       5.97748
_cell_length_c       5.97748
_cell_angle_alpha    58.4639
_cell_angle_beta     58.4639
_cell_angle_gamma    58.4639

_symmetry_Int_Tables_number  160
_chemical_formula_structural  Li2Mn3SnO8
_chemical_formula_sum  Li2Mn3SnO8
_cell_volume  145.71380235272966
_cell_formula_units_Z  1
loop_
  _symmetry_equiv_pos_site_id
 _symmetry_equiv_pos_as_xyz
 1  'x, y, z'
loop_
 _atom_site_type_symbol
 _atom_site_label
 _atom_site_symmetry_multiplicity
 _atom_site_fract_x
 _atom_site_fract_y
 _atom_site_fract_z
 _atom_site_fract_occupancy
 Li  Li1  1  0.11809  0.11809  0.11809  1
 Li  Li2  1  0.49876  0.49876  0.49876  1
 Mn  Mn1  1  0.01613  0.49567  0.49567  1
 Mn  Mn2  1  0.49567  0.01613  0.49567  1
 Mn  Mn3  1  0.49567  0.49567  0.01613  1
 O  O1  1  0.26161  0.26161  0.26161  1
 O  O2  1  0.25142  0.25142  0.71148  1
 O  O3  1  0.25142  0.71148  0.25142  1
 O  O4  1  0.71148  0.25142  0.25142  1
 O  O5  1  0.29773  0.74347  0.74347  1
 O  O6  1  0.74347  0.29773  0.74347  1
 O  O7  1  0.74347  0.74347  0.29773  1
 O  O8  1  0.73672  0.73672  0.73672  1
 Sn  Sn1  1  0.87837  0.87837  0.87837  1
