CIF file written using JARVIS-Tools package.
data_MoWSe3S
_symmetry_space_group_name_H-M  'P3m1'
_cell_length_a       3.29097
_cell_length_b       3.29096
_cell_length_c       35.2123
_cell_angle_alpha    89.9905
_cell_angle_beta     90.0004
_cell_angle_gamma    120

_symmetry_Int_Tables_number  156
_chemical_formula_structural  MoWSe3S
_chemical_formula_sum  Mo2W2Se6S2
_cell_volume  330.27119542350033
_cell_formula_units_Z  2
loop_
  _symmetry_equiv_pos_site_id
 _symmetry_equiv_pos_as_xyz
 1  'x, y, z'
loop_
 _atom_site_type_symbol
 _atom_site_label
 _atom_site_symmetry_multiplicity
 _atom_site_fract_x
 _atom_site_fract_y
 _atom_site_fract_z
 _atom_site_fract_occupancy
 Mo  Mo1  1  0.33332  0.66664  0.09428  1
 Mo  Mo2  1  0.66669  0.33337  0.28205  1
 S  S1  1  0.33332  0.66664  0.69942  1
 S  S2  1  0.33338  0.66676  0.61181  1
 Se  Se1  1  0.33321  0.66643  0.32990  1
 Se  Se2  1  0.66667  0.33335  0.04649  1
 Se  Se3  1  0.66664  0.33328  0.42277  1
 Se  Se4  1  0.66663  0.33325  0.14216  1
 Se  Se5  1  0.66667  0.33333  0.51911  1
 Se  Se6  1  0.33348  0.66696  0.23416  1
 W  W1  1  0.33332  0.66663  0.47094  1
 W  W2  1  0.66668  0.33336  0.65564  1
