CIF file written using JARVIS-Tools package.
data_LiYS2
_symmetry_space_group_name_H-M  'I4_1/amd'
_cell_length_a       7.67729
_cell_length_b       10.2153
_cell_length_c       6.73857
_cell_angle_alpha    29.1067
_cell_angle_beta     55.2758
_cell_angle_gamma    41.2766

_symmetry_Int_Tables_number  141
_chemical_formula_structural  LiYS2
_chemical_formula_sum  Li2Y2S4
_cell_volume  163.23767898126133
_cell_formula_units_Z  2
loop_
  _symmetry_equiv_pos_site_id
 _symmetry_equiv_pos_as_xyz
 1  'x, y, z'
loop_
 _atom_site_type_symbol
 _atom_site_label
 _atom_site_symmetry_multiplicity
 _atom_site_fract_x
 _atom_site_fract_y
 _atom_site_fract_z
 _atom_site_fract_occupancy
 Li  Li1  1  0.50001  0.00000  0.99998  1
 Li  Li2  1  0.24999  0.50000  0.00002  1
 S  S1  1  0.24602  0.00000  0.50795  1
 S  S2  1  0.99602  0.50000  0.50797  1
 S  S3  1  0.75398  0.00000  0.49203  1
 S  S4  1  0.50398  0.50000  0.49205  1
 Y  Y1  1  0.00001  -0.00000  1.00000  1
 Y  Y2  1  0.74999  0.50000  0.00000  1
