CIF file written using JARVIS-Tools package.
data_LiCuPO4
_symmetry_space_group_name_H-M  'Cmcm'
_cell_length_a       4.89769
_cell_length_b       4.8977
_cell_length_c       6.19035
_cell_angle_alpha    90
_cell_angle_beta     90
_cell_angle_gamma    69.2348

_symmetry_Int_Tables_number  63
_chemical_formula_structural  LiCuPO4
_chemical_formula_sum  Li2Cu2P2O8
_cell_volume  138.84456179398188
_cell_formula_units_Z  2
loop_
  _symmetry_equiv_pos_site_id
 _symmetry_equiv_pos_as_xyz
 1  'x, y, z'
loop_
 _atom_site_type_symbol
 _atom_site_label
 _atom_site_symmetry_multiplicity
 _atom_site_fract_x
 _atom_site_fract_y
 _atom_site_fract_z
 _atom_site_fract_occupancy
 Cu  Cu1  1  0.00000  0.00000  0.00000  1
 Cu  Cu2  1  0.00000  0.00000  0.50000  1
 Li  Li1  1  0.32711  0.32711  0.75000  1
 Li  Li2  1  0.67289  0.67289  0.25000  1
 O  O1  1  0.24224  0.24224  0.04401  1
 O  O2  1  0.24224  0.24224  0.45599  1
 O  O3  1  0.24518  0.69166  0.25000  1
 O  O4  1  0.30834  0.75482  0.75000  1
 O  O5  1  0.69166  0.24518  0.25000  1
 O  O6  1  0.75482  0.30834  0.75000  1
 O  O7  1  0.75776  0.75776  0.95599  1
 O  O8  1  0.75776  0.75776  0.54401  1
 P  P1  1  0.34926  0.34926  0.25000  1
 P  P2  1  0.65074  0.65074  0.75000  1
