CIF file written using JARVIS-Tools package.
data_CeFeAsO
_symmetry_space_group_name_H-M  'P4/nmm'
_cell_length_a       3.95644
_cell_length_b       3.95652
_cell_length_c       8.0608
_cell_angle_alpha    89.9979
_cell_angle_beta     90.0018
_cell_angle_gamma    89.9944

_symmetry_Int_Tables_number  129
_chemical_formula_structural  CeFeAsO
_chemical_formula_sum  Ce2Fe2As2O2
_cell_volume  126.18180488109697
_cell_formula_units_Z  2
loop_
  _symmetry_equiv_pos_site_id
 _symmetry_equiv_pos_as_xyz
 1  'x, y, z'
loop_
 _atom_site_type_symbol
 _atom_site_label
 _atom_site_symmetry_multiplicity
 _atom_site_fract_x
 _atom_site_fract_y
 _atom_site_fract_z
 _atom_site_fract_occupancy
 As  As1  1  0.24635  0.74881  0.34751  1
 As  As2  1  0.74635  0.24880  0.65023  1
 Ce  Ce1  1  0.24632  0.74884  0.84477  1
 Ce  Ce2  1  0.74632  0.24882  0.15299  1
 Fe  Fe1  1  0.24636  0.24880  0.49887  1
 Fe  Fe2  1  0.74636  0.74881  0.49888  1
 O  O1  1  0.24632  0.24883  0.99888  1
 O  O2  1  0.74632  0.74883  0.99888  1
