CIF file written using JARVIS-Tools package.
data_Te4W3Se2
_symmetry_space_group_name_H-M  'P-6m2'
_cell_length_a       3.48434
_cell_length_b       3.48445
_cell_length_c       21.592
_cell_angle_alpha    90
_cell_angle_beta     90
_cell_angle_gamma    119.999

_symmetry_Int_Tables_number  187
_chemical_formula_structural  Te4W3Se2
_chemical_formula_sum  Te4W3Se2
_cell_volume  227.03005026925237
_cell_formula_units_Z  1
loop_
  _symmetry_equiv_pos_site_id
 _symmetry_equiv_pos_as_xyz
 1  'x, y, z'
loop_
 _atom_site_type_symbol
 _atom_site_label
 _atom_site_symmetry_multiplicity
 _atom_site_fract_x
 _atom_site_fract_y
 _atom_site_fract_z
 _atom_site_fract_occupancy
 Se  Se1  1  0.33318  0.66637  0.42245  1
 Se  Se2  1  0.33318  0.66637  0.27152  1
 Te  Te1  1  0.66674  0.33348  -0.05612  1
 Te  Te2  1  0.66671  0.33343  0.57856  1
 Te  Te3  1  0.66671  0.33343  0.11541  1
 Te  Te4  1  0.66674  0.33348  0.75008  1
 W  W1  1  0.33340  0.66680  0.02964  1
 W  W2  1  0.33340  0.66680  0.66433  1
 W  W3  1  0.66652  0.33304  0.34698  1
