CIF file written using JARVIS-Tools package.
data_Mg3Au
_symmetry_space_group_name_H-M  'P6_3/mmc'
_cell_length_a       4.60744
_cell_length_b       4.60744
_cell_length_c       9.51011
_cell_angle_alpha    90
_cell_angle_beta     90
_cell_angle_gamma    120

_symmetry_Int_Tables_number  194
_chemical_formula_structural  Mg3Au
_chemical_formula_sum  Mg6Au2
_cell_volume  174.83830545083757
_cell_formula_units_Z  2
loop_
  _symmetry_equiv_pos_site_id
 _symmetry_equiv_pos_as_xyz
 1  'x, y, z'
loop_
 _atom_site_type_symbol
 _atom_site_label
 _atom_site_symmetry_multiplicity
 _atom_site_fract_x
 _atom_site_fract_y
 _atom_site_fract_z
 _atom_site_fract_occupancy
 Au  Au1  1  0.00000  0.00000  0.25000  1
 Au  Au2  1  0.00000  0.00000  0.75000  1
 Mg  Mg1  1  0.33333  0.66667  0.08996  1
 Mg  Mg2  1  0.66667  0.33333  0.58996  1
 Mg  Mg3  1  0.33333  0.66667  0.75000  1
 Mg  Mg4  1  0.66667  0.33333  0.25000  1
 Mg  Mg5  1  0.33333  0.66667  0.41004  1
 Mg  Mg6  1  0.66667  0.33333  0.91004  1
