CIF file written using JARVIS-Tools package.
data_Al11NO15
_symmetry_space_group_name_H-M  'P1'
_cell_length_a       5.62766
_cell_length_b       5.69494
_cell_length_c       7.94078
_cell_angle_alpha    89.8392
_cell_angle_beta     88.7501
_cell_angle_gamma    89.7702

_symmetry_Int_Tables_number  1
_chemical_formula_structural  Al11NO15
_chemical_formula_sum  AlNO5
_cell_volume  254.43202948172174
_cell_formula_units_Z  1
loop_
  _symmetry_equiv_pos_site_id
 _symmetry_equiv_pos_as_xyz
 1  'x, y, z'
loop_
 _atom_site_type_symbol
 _atom_site_label
 _atom_site_symmetry_multiplicity
 _atom_site_fract_x
 _atom_site_fract_y
 _atom_site_fract_z
 _atom_site_fract_occupancy
 Al  Al1  1  0.01509  0.99640  0.99312  1
 Al  Al2  1  0.51853  0.25896  0.12163  1
 Al  Al3  1  0.99841  0.50249  0.25444  1
 Al  Al4  1  0.48376  0.00187  0.75629  1
 Al  Al5  1  0.74312  0.00680  0.37539  1
 Al  Al6  1  0.50259  0.49257  0.49375  1
 Al  Al7  1  0.25038  0.49892  0.87564  1
 Al  Al8  1  0.51696  0.74522  0.11147  1
 Al  Al9  1  0.25565  0.00670  0.37454  1
 Al  Al10  1  0.98277  0.25704  0.63761  1
 Al  Al11  1  0.98370  0.74437  0.63780  1
 N  N1  1  0.49842  0.23018  0.36406  1
 O  O1  1  0.48092  0.25270  0.88812  1
 O  O2  1  0.00059  0.77292  0.38362  1
 O  O3  1  0.26694  0.99085  0.13424  1
 O  O4  1  -0.00015  0.23143  0.38280  1
 O  O5  1  0.02017  0.25210  0.86585  1
 O  O6  1  0.26531  0.50347  0.11934  1
 O  O7  1  0.74565  0.99510  0.12714  1
 O  O8  1  0.77072  0.50273  0.60912  1
 O  O9  1  0.48044  0.74555  0.88224  1
 O  O10  1  0.49952  0.76486  0.36705  1
 O  O11  1  0.22497  0.99747  0.61540  1
 O  O12  1  0.73698  0.50575  0.13637  1
 O  O13  1  0.01862  0.74365  0.86537  1
 O  O14  1  0.75863  0.99948  0.62258  1
 O  O15  1  0.23129  0.50044  0.63000  1
