CIF file written using JARVIS-Tools package.
data_Li3BiS3
_symmetry_space_group_name_H-M  'R3c'
_cell_length_a       6.8276
_cell_length_b       6.8276
_cell_length_c       6.82757
_cell_angle_alpha    105.464
_cell_angle_beta     105.465
_cell_angle_gamma    105.463

_symmetry_Int_Tables_number  161
_chemical_formula_structural  Li3BiS3
_chemical_formula_sum  Li6Bi2S6
_cell_volume  275.4148480112286
_cell_formula_units_Z  2
loop_
  _symmetry_equiv_pos_site_id
 _symmetry_equiv_pos_as_xyz
 1  'x, y, z'
loop_
 _atom_site_type_symbol
 _atom_site_label
 _atom_site_symmetry_multiplicity
 _atom_site_fract_x
 _atom_site_fract_y
 _atom_site_fract_z
 _atom_site_fract_occupancy
 Bi  Bi1  1  0.49253  0.49253  0.49253  1
 Bi  Bi2  1  0.99253  0.99253  0.99253  1
 Li  Li1  1  0.29982  0.89967  0.52799  1
 Li  Li2  1  0.39968  0.79982  0.02799  1
 Li  Li3  1  0.79982  0.02799  0.39967  1
 Li  Li4  1  0.52799  0.29982  0.89967  1
 Li  Li5  1  0.89967  0.52799  0.29982  1
 Li  Li6  1  0.02799  0.39967  0.79982  1
 S  S1  1  0.07308  0.71724  0.70560  1
 S  S2  1  0.21724  0.57309  0.20560  1
 S  S3  1  0.20560  0.21724  0.57309  1
 S  S4  1  0.71724  0.70561  0.07309  1
 S  S5  1  0.57308  0.20560  0.21724  1
 S  S6  1  0.70560  0.07308  0.71724  1
