CIF file written using JARVIS-Tools package.
data_V2Zn2O7
_symmetry_space_group_name_H-M  'C2/m'
_cell_length_a       5.04002
_cell_length_b       5.41145
_cell_length_c       5.41144
_cell_angle_alpha    103.719
_cell_angle_beta     99.706
_cell_angle_gamma    99.7061

_symmetry_Int_Tables_number  12
_chemical_formula_structural  V2Zn2O7
_chemical_formula_sum  V2Zn2O7
_cell_volume  137.93375830184294
_cell_formula_units_Z  1
loop_
  _symmetry_equiv_pos_site_id
 _symmetry_equiv_pos_as_xyz
 1  'x, y, z'
loop_
 _atom_site_type_symbol
 _atom_site_label
 _atom_site_symmetry_multiplicity
 _atom_site_fract_x
 _atom_site_fract_y
 _atom_site_fract_z
 _atom_site_fract_occupancy
 O  O1  1  0.22448  0.42318  0.42318  1
 O  O2  1  0.77552  0.57682  0.57682  1
 O  O3  1  0.28952  0.94637  0.61047  1
 O  O4  1  0.71048  0.38953  0.05363  1
 O  O5  1  0.00000  0.00000  0.00000  1
 O  O6  1  0.28952  0.61047  0.94637  1
 O  O7  1  0.71048  0.05363  0.38953  1
 V  V1  1  0.90195  0.23412  0.23412  1
 V  V2  1  0.09805  0.76588  0.76588  1
 Zn  Zn1  1  0.50000  0.31426  0.68574  1
 Zn  Zn2  1  0.50000  0.68574  0.31426  1
