CIF file written using JARVIS-Tools package.
data_YMn2S4
_symmetry_space_group_name_H-M  'I4_1/amd'
_cell_length_a       7.18787
_cell_length_b       7.18787
_cell_length_c       7.78241
_cell_angle_alpha    117.504
_cell_angle_beta     117.504
_cell_angle_gamma    90

_symmetry_Int_Tables_number  141
_chemical_formula_structural  YMn2S4
_chemical_formula_sum  Y2Mn4S8
_cell_volume  304.48903954752615
_cell_formula_units_Z  2
loop_
  _symmetry_equiv_pos_site_id
 _symmetry_equiv_pos_as_xyz
 1  'x, y, z'
loop_
 _atom_site_type_symbol
 _atom_site_label
 _atom_site_symmetry_multiplicity
 _atom_site_fract_x
 _atom_site_fract_y
 _atom_site_fract_z
 _atom_site_fract_occupancy
 Mn  Mn1  1  -0.00000  0.50000  0.00000  1
 Mn  Mn2  1  0.00000  0.00000  0.50000  1
 Mn  Mn3  1  0.50000  0.00000  0.50000  1
 Mn  Mn4  1  0.00000  0.00000  0.00000  1
 S  S1  1  0.77212  0.79104  0.54424  1
 S  S2  1  0.74680  0.22788  0.95576  1
 S  S3  1  0.20896  0.22788  0.95576  1
 S  S4  1  0.22788  0.20896  0.45576  1
 S  S5  1  0.22788  0.74680  0.45576  1
 S  S6  1  0.25320  0.77212  0.04424  1
 S  S7  1  0.77212  0.25320  0.54424  1
 S  S8  1  0.79104  0.77212  0.04424  1
 Y  Y1  1  0.37500  0.62500  0.75000  1
 Y  Y2  1  0.62500  0.37500  0.25000  1
