CIF file written using JARVIS-Tools package.
data_Li3FeSiO5
_symmetry_space_group_name_H-M  'P-1'
_cell_length_a       4.98041
_cell_length_b       5.61413
_cell_length_c       6.11545
_cell_angle_alpha    76.1301
_cell_angle_beta     75.7172
_cell_angle_gamma    73.6697

_symmetry_Int_Tables_number  2
_chemical_formula_structural  Li3FeSiO5
_chemical_formula_sum  Li6Fe2Si2O0
_cell_volume  156.33097614810123
_cell_formula_units_Z  2
loop_
  _symmetry_equiv_pos_site_id
 _symmetry_equiv_pos_as_xyz
 1  'x, y, z'
loop_
 _atom_site_type_symbol
 _atom_site_label
 _atom_site_symmetry_multiplicity
 _atom_site_fract_x
 _atom_site_fract_y
 _atom_site_fract_z
 _atom_site_fract_occupancy
 Fe  Fe1  1  0.90574  0.35013  0.20425  1
 Fe  Fe2  1  0.09426  0.64987  0.79575  1
 Li  Li1  1  0.49416  0.24976  0.00314  1
 Li  Li2  1  0.31735  0.44864  0.39730  1
 Li  Li3  1  0.30743  0.94840  0.39623  1
 Li  Li4  1  0.69257  0.05160  0.60377  1
 Li  Li5  1  0.68265  0.55136  0.60270  1
 Li  Li6  1  0.50584  0.75024  -0.00314  1
 O  O1  1  -0.00276  0.24708  0.51493  1
 O  O2  1  0.83604  0.42287  0.89534  1
 O  O3  1  0.16396  0.57713  0.10466  1
 O  O4  1  0.00276  0.75292  0.48507  1
 O  O5  1  0.15906  0.04840  0.09649  1
 O  O6  1  0.35433  0.87270  0.71501  1
 O  O7  1  0.64567  0.12730  0.28499  1
 O  O8  1  0.35304  0.33663  0.71850  1
 O  O9  1  0.84094  0.95160  0.90351  1
 O  O10  1  0.64696  0.66337  0.28150  1
 Si  Si1  1  0.10185  0.15050  0.78048  1
 Si  Si2  1  0.89815  0.84950  0.21952  1
