CIF file written using JARVIS-Tools package.
data_USnRu
_symmetry_space_group_name_H-M  'P-62m'
_cell_length_a       7.34138
_cell_length_b       7.34138
_cell_length_c       4.00753
_cell_angle_alpha    90
_cell_angle_beta     90
_cell_angle_gamma    120

_symmetry_Int_Tables_number  189
_chemical_formula_structural  USnRu
_chemical_formula_sum  U3Sn3Ru3
_cell_volume  187.0521486179283
_cell_formula_units_Z  3
loop_
  _symmetry_equiv_pos_site_id
 _symmetry_equiv_pos_as_xyz
 1  'x, y, z'
loop_
 _atom_site_type_symbol
 _atom_site_label
 _atom_site_symmetry_multiplicity
 _atom_site_fract_x
 _atom_site_fract_y
 _atom_site_fract_z
 _atom_site_fract_occupancy
 Ru  Ru1  1  0.33333  0.66667  0.00000  1
 Ru  Ru2  1  0.00000  0.00000  0.50000  1
 Ru  Ru3  1  0.66667  0.33333  0.00000  1
 Sn  Sn1  1  0.25366  0.25366  0.00000  1
 Sn  Sn2  1  0.74634  0.00000  0.00000  1
 Sn  Sn3  1  0.00000  0.74634  0.00000  1
 U  U1  1  0.41424  0.00000  0.50000  1
 U  U2  1  0.58576  0.58576  0.50000  1
 U  U3  1  0.00000  0.41424  0.50000  1
