CIF file written using JARVIS-Tools package.
data_TiAlF5
_symmetry_space_group_name_H-M  'Immm'
_cell_length_a       3.60955
_cell_length_b       5.27853
_cell_length_c       5.27853
_cell_angle_alpha    72.9064
_cell_angle_beta     70.0068
_cell_angle_gamma    70.0067

_symmetry_Int_Tables_number  71
_chemical_formula_structural  TiAlF5
_chemical_formula_sum  TiAlF5
_cell_volume  87.01225991345736
_cell_formula_units_Z  1
loop_
  _symmetry_equiv_pos_site_id
 _symmetry_equiv_pos_as_xyz
 1  'x, y, z'
loop_
 _atom_site_type_symbol
 _atom_site_label
 _atom_site_symmetry_multiplicity
 _atom_site_fract_x
 _atom_site_fract_y
 _atom_site_fract_z
 _atom_site_fract_occupancy
 Al  Al1  1  0.50000  0.50000  0.50000  1
 F  F1  1  0.50000  0.79540  0.20460  1
 F  F2  1  0.50000  0.20460  0.79540  1
 F  F3  1  0.73351  0.26649  0.26649  1
 F  F4  1  0.26649  0.73351  0.73351  1
 F  F5  1  -0.00000  0.50000  0.50000  1
 Ti  Ti1  1  0.00000  0.00000  0.00000  1
