CIF file written using JARVIS-Tools package.
data_ThSnI6
_symmetry_space_group_name_H-M  'P-31c'
_cell_length_a       7.60579
_cell_length_b       7.60579
_cell_length_c       14.0398
_cell_angle_alpha    90
_cell_angle_beta     90
_cell_angle_gamma    120

_symmetry_Int_Tables_number  163
_chemical_formula_structural  ThSnI6
_chemical_formula_sum  Th2Sn2I2
_cell_volume  703.3646999876497
_cell_formula_units_Z  2
loop_
  _symmetry_equiv_pos_site_id
 _symmetry_equiv_pos_as_xyz
 1  'x, y, z'
loop_
 _atom_site_type_symbol
 _atom_site_label
 _atom_site_symmetry_multiplicity
 _atom_site_fract_x
 _atom_site_fract_y
 _atom_site_fract_z
 _atom_site_fract_occupancy
 I  I1  1  0.64671  -0.01012  0.62600  1
 I  I2  1  0.01012  0.65683  0.62600  1
 I  I3  1  0.35329  0.34317  0.12600  1
 I  I4  1  0.65683  0.01012  0.12600  1
 I  I5  1  -0.01012  0.64671  0.12600  1
 I  I6  1  0.65683  0.64671  0.37400  1
 I  I7  1  -0.01012  0.34317  0.37400  1
 I  I8  1  0.35329  0.01012  0.37400  1
 I  I9  1  0.64671  0.65683  0.87400  1
 I  I10  1  0.34317  -0.01012  0.87400  1
 I  I11  1  0.01012  0.35329  0.87400  1
 I  I12  1  0.34317  0.35329  0.62600  1
 Sn  Sn1  1  0.00000  0.00000  0.00000  1
 Sn  Sn2  1  0.00000  0.00000  0.50000  1
 Th  Th1  1  0.66667  0.33333  0.75000  1
 Th  Th2  1  0.33333  0.66667  0.25000  1
