CIF file written using JARVIS-Tools package.
data_Pb2SO5
_symmetry_space_group_name_H-M  'C2/m'
_cell_length_a       5.71369
_cell_length_b       7.08976
_cell_length_c       7.47167
_cell_angle_alpha    113.294
_cell_angle_beta     112.48
_cell_angle_gamma    90

_symmetry_Int_Tables_number  12
_chemical_formula_structural  Pb2SO5
_chemical_formula_sum  Pb4S2O0
_cell_volume  252.76217617128952
_cell_formula_units_Z  2
loop_
  _symmetry_equiv_pos_site_id
 _symmetry_equiv_pos_as_xyz
 1  'x, y, z'
loop_
 _atom_site_type_symbol
 _atom_site_label
 _atom_site_symmetry_multiplicity
 _atom_site_fract_x
 _atom_site_fract_y
 _atom_site_fract_z
 _atom_site_fract_occupancy
 O  O1  1  0.10123  0.42722  0.20246  1
 O  O2  1  0.35804  0.75278  0.29145  1
 O  O3  1  0.89877  0.57278  0.79754  1
 O  O4  1  0.25305  0.00000  -0.00000  1
 O  O5  1  0.71556  0.29956  0.43112  1
 O  O6  1  0.06659  0.24722  0.70855  1
 O  O7  1  0.28444  0.70044  0.56888  1
 O  O8  1  0.64196  0.24722  0.70855  1
 O  O9  1  0.93341  0.75278  0.29145  1
 O  O10  1  0.74695  -0.00000  0.00000  1
 Pb  Pb1  1  0.47616  0.72692  0.95232  1
 Pb  Pb2  1  0.52384  0.27308  0.04768  1
 Pb  Pb3  1  0.14788  0.10936  0.29576  1
 Pb  Pb4  1  0.85212  0.89064  0.70424  1
 S  S1  1  0.83131  0.34365  0.66263  1
 S  S2  1  0.16869  0.65635  0.33737  1
