CIF file written using JARVIS-Tools package.
data_KCeS2
_symmetry_space_group_name_H-M  'R-3m'
_cell_length_a       7.67453
_cell_length_b       7.67453
_cell_length_c       7.67453
_cell_angle_alpha    31.5479
_cell_angle_beta     31.5479
_cell_angle_gamma    31.5479

_symmetry_Int_Tables_number  166
_chemical_formula_structural  KCeS2
_chemical_formula_sum  KCeS2
_cell_volume  109.86395062830961
_cell_formula_units_Z  1
loop_
  _symmetry_equiv_pos_site_id
 _symmetry_equiv_pos_as_xyz
 1  'x, y, z'
loop_
 _atom_site_type_symbol
 _atom_site_label
 _atom_site_symmetry_multiplicity
 _atom_site_fract_x
 _atom_site_fract_y
 _atom_site_fract_z
 _atom_site_fract_occupancy
 Ce  Ce1  1  0.00000  0.00000  0.00000  1
 K  K1  1  0.50000  0.50000  0.50000  1
 S  S1  1  0.73662  0.73662  0.73662  1
 S  S2  1  0.26338  0.26338  0.26338  1
