CIF file written using JARVIS-Tools package.
data_BaGa4S7
_symmetry_space_group_name_H-M  'Pmn2_1'
_cell_length_a       5.96742
_cell_length_b       6.26199
_cell_length_c       14.8126
_cell_angle_alpha    90
_cell_angle_beta     90
_cell_angle_gamma    90

_symmetry_Int_Tables_number  31
_chemical_formula_structural  BaGa4S7
_chemical_formula_sum  Ba2Ga8S4
_cell_volume  553.5164325339546
_cell_formula_units_Z  2
loop_
  _symmetry_equiv_pos_site_id
 _symmetry_equiv_pos_as_xyz
 1  'x, y, z'
loop_
 _atom_site_type_symbol
 _atom_site_label
 _atom_site_symmetry_multiplicity
 _atom_site_fract_x
 _atom_site_fract_y
 _atom_site_fract_z
 _atom_site_fract_occupancy
 Ba  Ba1  1  0.45086  0.66598  0.50000  1
 Ba  Ba2  1  0.95086  0.33402  0.00000  1
 Ga  Ga1  1  0.34041  0.82813  0.88025  1
 Ga  Ga2  1  0.84041  0.17187  0.61975  1
 Ga  Ga3  1  0.84041  0.17187  0.38025  1
 Ga  Ga4  1  0.34041  0.82813  0.11975  1
 Ga  Ga5  1  0.35680  0.31221  0.75146  1
 Ga  Ga6  1  0.85680  0.68779  0.74854  1
 Ga  Ga7  1  0.85680  0.68779  0.25146  1
 Ga  Ga8  1  0.35680  0.31221  0.24854  1
 S  S1  1  0.96185  0.32674  0.75544  1
 S  S2  1  0.44963  0.17584  0.11279  1
 S  S3  1  0.46185  0.67326  0.25544  1
 S  S4  1  0.96185  0.32674  0.24456  1
 S  S5  1  0.95694  0.80903  0.88576  1
 S  S6  1  0.46185  0.67326  0.74456  1
 S  S7  1  0.45829  0.63075  0.00000  1
 S  S8  1  0.95694  0.80903  0.11424  1
 S  S9  1  0.44963  0.17584  0.88721  1
 S  S10  1  0.94963  0.82416  0.61279  1
 S  S11  1  0.45694  0.19097  0.61424  1
 S  S12  1  0.95829  0.36925  0.50000  1
 S  S13  1  0.45694  0.19097  0.38576  1
 S  S14  1  0.94963  0.82416  0.38721  1
