CIF file written using JARVIS-Tools package.
data_Rb4SnO3
_symmetry_space_group_name_H-M  'Cc'
_cell_length_a       10.2093
_cell_length_b       10.2093
_cell_length_c       6.97751
_cell_angle_alpha    82.256
_cell_angle_beta     97.744
_cell_angle_gamma    38.0785

_symmetry_Int_Tables_number  9
_chemical_formula_structural  Rb4SnO3
_chemical_formula_sum  Rb8Sn2O6
_cell_volume  408.4823103487852
_cell_formula_units_Z  2
loop_
  _symmetry_equiv_pos_site_id
 _symmetry_equiv_pos_as_xyz
 1  'x, y, z'
loop_
 _atom_site_type_symbol
 _atom_site_label
 _atom_site_symmetry_multiplicity
 _atom_site_fract_x
 _atom_site_fract_y
 _atom_site_fract_z
 _atom_site_fract_occupancy
 O  O1  1  0.16546  0.68490  0.94704  1
 O  O2  1  0.03368  0.64763  0.54242  1
 O  O3  1  0.31510  0.83454  0.44704  1
 O  O4  1  0.35237  0.96632  0.04242  1
 O  O5  1  0.70878  0.15080  0.52843  1
 O  O6  1  0.84920  0.29122  0.02843  1
 Rb  Rb1  1  0.59770  0.72187  0.80894  1
 Rb  Rb2  1  0.45761  0.48686  0.72154  1
 Rb  Rb3  1  0.03702  0.06290  0.74199  1
 Rb  Rb4  1  0.34786  0.23312  0.88027  1
 Rb  Rb5  1  0.27813  0.40230  0.30894  1
 Rb  Rb6  1  0.51314  0.54239  0.22154  1
 Rb  Rb7  1  0.93710  0.96298  0.24199  1
 Rb  Rb8  1  0.76688  0.65214  0.38027  1
 Sn  Sn1  1  0.87524  0.84689  0.72205  1
 Sn  Sn2  1  0.15311  0.12476  0.22205  1
