CIF file written using JARVIS-Tools package.
data_AlSnF5
_symmetry_space_group_name_H-M  'Immm'
_cell_length_a       3.76538
_cell_length_b       5.6775
_cell_length_c       5.6775
_cell_angle_alpha    74.2026
_cell_angle_beta     70.6337
_cell_angle_gamma    70.6337

_symmetry_Int_Tables_number  71
_chemical_formula_structural  AlSnF5
_chemical_formula_sum  AlSnF5
_cell_volume  106.21623335815816
_cell_formula_units_Z  1
loop_
  _symmetry_equiv_pos_site_id
 _symmetry_equiv_pos_as_xyz
 1  'x, y, z'
loop_
 _atom_site_type_symbol
 _atom_site_label
 _atom_site_symmetry_multiplicity
 _atom_site_fract_x
 _atom_site_fract_y
 _atom_site_fract_z
 _atom_site_fract_occupancy
 Al  Al1  1  0.50000  0.50000  0.50000  1
 F  F1  1  0.50000  0.76918  0.23082  1
 F  F2  1  0.50000  0.23082  0.76918  1
 F  F3  1  0.71732  0.28268  0.28268  1
 F  F4  1  0.28268  0.71732  0.71732  1
 F  F5  1  0.00000  0.50000  0.50000  1
 Sn  Sn1  1  0.00000  0.00000  0.00000  1
