CIF file written using JARVIS-Tools package.
data_TiCl3
_symmetry_space_group_name_H-M  'P3_112'
_cell_length_a       6.00001
_cell_length_b       6.00001
_cell_length_c       17.6371
_cell_angle_alpha    90
_cell_angle_beta     90
_cell_angle_gamma    120

_symmetry_Int_Tables_number  151
_chemical_formula_structural  TiCl3
_chemical_formula_sum  Ti6Cl8
_cell_volume  549.8732107208671
_cell_formula_units_Z  6
loop_
  _symmetry_equiv_pos_site_id
 _symmetry_equiv_pos_as_xyz
 1  'x, y, z'
loop_
 _atom_site_type_symbol
 _atom_site_label
 _atom_site_symmetry_multiplicity
 _atom_site_fract_x
 _atom_site_fract_y
 _atom_site_fract_z
 _atom_site_fract_occupancy
 Cl  Cl1  1  0.76865  0.21260  0.07872  1
 Cl  Cl2  1  0.78485  0.89607  0.25241  1
 Cl  Cl3  1  0.11122  0.21515  0.91907  1
 Cl  Cl4  1  0.44504  0.54595  0.58755  1
 Cl  Cl5  1  0.10091  0.54595  0.74578  1
 Cl  Cl6  1  0.78485  0.88878  0.74759  1
 Cl  Cl7  1  0.76865  0.55605  0.92128  1
 Cl  Cl8  1  0.44504  0.89909  0.41245  1
 Cl  Cl9  1  0.10393  0.21515  0.41426  1
 Cl  Cl10  1  0.11122  0.89607  0.08093  1
 Cl  Cl11  1  0.44395  0.23135  0.74539  1
 Cl  Cl12  1  0.44395  0.21260  0.25461  1
 Cl  Cl13  1  0.78740  0.55605  0.41206  1
 Cl  Cl14  1  0.10393  0.88878  0.58574  1
 Cl  Cl15  1  0.45405  0.89909  0.92088  1
 Cl  Cl16  1  0.78740  0.23135  0.58794  1
 Cl  Cl17  1  0.10091  0.55496  0.25422  1
 Cl  Cl18  1  0.45405  0.55496  0.07912  1
 Ti  Ti1  1  0.43587  0.21794  0.00000  1
 Ti  Ti2  1  0.78601  0.89301  0.00000  1
 Ti  Ti3  1  0.10699  0.21399  0.66667  1
 Ti  Ti4  1  0.78206  0.56413  0.66667  1
 Ti  Ti5  1  0.78206  0.21794  0.33333  1
 Ti  Ti6  1  0.10699  0.89301  0.33333  1
