CIF file written using JARVIS-Tools package.
data_Te2MoWS2
_symmetry_space_group_name_H-M  'P3m1'
_cell_length_a       3.36813
_cell_length_b       3.36819
_cell_length_c       35.3071
_cell_angle_alpha    89.9918
_cell_angle_beta     90
_cell_angle_gamma    119.999

_symmetry_Int_Tables_number  156
_chemical_formula_structural  Te2MoWS2
_chemical_formula_sum  Te4Mo2W2S4
_cell_volume  346.88142681255755
_cell_formula_units_Z  2
loop_
  _symmetry_equiv_pos_site_id
 _symmetry_equiv_pos_as_xyz
 1  'x, y, z'
loop_
 _atom_site_type_symbol
 _atom_site_label
 _atom_site_symmetry_multiplicity
 _atom_site_fract_x
 _atom_site_fract_y
 _atom_site_fract_z
 _atom_site_fract_occupancy
 Mo  Mo1  1  0.33356  0.66711  0.08151  1
 Mo  Mo2  1  0.33326  0.66651  0.47935  1
 S  S1  1  0.33298  0.66597  0.69492  1
 S  S2  1  0.66665  0.33330  0.43651  1
 S  S3  1  0.66655  0.33309  0.52217  1
 S  S4  1  0.33307  0.66615  0.60892  1
 Te  Te1  1  0.33347  0.66694  0.34402  1
 Te  Te2  1  0.66702  0.33405  0.02801  1
 Te  Te3  1  0.66680  0.33359  0.13512  1
 Te  Te4  1  0.33348  0.66696  0.23621  1
 W  W1  1  0.66683  0.33366  0.29009  1
 W  W2  1  0.66633  0.33267  0.65193  1
