CIF file written using JARVIS-Tools package.
data_NaO
_symmetry_space_group_name_H-M  'P-62m'
_cell_length_a       6.20484
_cell_length_b       6.20484
_cell_length_c       4.47342
_cell_angle_alpha    90
_cell_angle_beta     90
_cell_angle_gamma    120

_symmetry_Int_Tables_number  189
_chemical_formula_structural  NaO
_chemical_formula_sum  Na6O6
_cell_volume  149.15268145114257
_cell_formula_units_Z  6
loop_
  _symmetry_equiv_pos_site_id
 _symmetry_equiv_pos_as_xyz
 1  'x, y, z'
loop_
 _atom_site_type_symbol
 _atom_site_label
 _atom_site_symmetry_multiplicity
 _atom_site_fract_x
 _atom_site_fract_y
 _atom_site_fract_z
 _atom_site_fract_occupancy
 Na  Na1  1  0.29892  0.29892  0.50000  1
 Na  Na2  1  0.00000  0.70108  0.50000  1
 Na  Na3  1  0.70108  0.00000  0.50000  1
 Na  Na4  1  0.63286  0.63286  0.00000  1
 Na  Na5  1  0.00000  0.36714  0.00000  1
 Na  Na6  1  0.36714  0.00000  0.00000  1
 O  O1  1  0.33333  0.66667  0.67442  1
 O  O2  1  0.33333  0.66667  0.32558  1
 O  O3  1  0.66667  0.33333  0.32558  1
 O  O4  1  0.66667  0.33333  0.67442  1
 O  O5  1  0.00000  0.00000  0.17210  1
 O  O6  1  0.00000  0.00000  0.82790  1
