CIF file written using JARVIS-Tools package.
data_YbSm2S4
_symmetry_space_group_name_H-M  'I-42d'
_cell_length_a       7.30552
_cell_length_b       7.30551
_cell_length_c       7.30551
_cell_angle_alpha    109.533
_cell_angle_beta     109.348
_cell_angle_gamma    109.533

_symmetry_Int_Tables_number  122
_chemical_formula_structural  YbSm2S4
_chemical_formula_sum  Yb2Sm4S8
_cell_volume  300.1437395154658
_cell_formula_units_Z  2
loop_
  _symmetry_equiv_pos_site_id
 _symmetry_equiv_pos_as_xyz
 1  'x, y, z'
loop_
 _atom_site_type_symbol
 _atom_site_label
 _atom_site_symmetry_multiplicity
 _atom_site_fract_x
 _atom_site_fract_y
 _atom_site_fract_z
 _atom_site_fract_occupancy
 S  S1  1  -0.00025  0.85505  0.49798  1
 S  S2  1  0.99798  0.35505  0.49975  1
 S  S3  1  0.50025  0.99824  0.85530  1
 S  S4  1  0.14470  0.14495  0.14293  1
 S  S5  1  0.35530  0.49824  0.00025  1
 S  S6  1  0.64293  0.64495  0.64470  1
 S  S7  1  0.50202  0.00176  0.35707  1
 S  S8  1  0.85707  0.50176  0.00202  1
 Sm  Sm1  1  0.25000  0.62828  0.37828  1
 Sm  Sm2  1  0.62172  0.37172  0.25000  1
 Sm  Sm3  1  0.75000  0.87172  0.12172  1
 Sm  Sm4  1  0.87828  0.12828  0.75000  1
 Yb  Yb1  1  0.12500  0.75000  0.87500  1
 Yb  Yb2  1  0.37500  0.25000  0.62500  1
