CIF file written using JARVIS-Tools package.
data_SrLu2O4
_symmetry_space_group_name_H-M  'Cmcm'
_cell_length_a       3.29393
_cell_length_b       10.9566
_cell_length_c       5.6884
_cell_angle_alpha    90
_cell_angle_beta     106.832
_cell_angle_gamma    90

_symmetry_Int_Tables_number  63
_chemical_formula_structural  SrLu2O4
_chemical_formula_sum  Sr2Lu4O8
_cell_volume  196.5010244531935
_cell_formula_units_Z  2
loop_
  _symmetry_equiv_pos_site_id
 _symmetry_equiv_pos_as_xyz
 1  'x, y, z'
loop_
 _atom_site_type_symbol
 _atom_site_label
 _atom_site_symmetry_multiplicity
 _atom_site_fract_x
 _atom_site_fract_y
 _atom_site_fract_z
 _atom_site_fract_occupancy
 Lu  Lu1  1  0.36658  0.92822  0.73313  1
 Lu  Lu2  1  0.36658  0.57178  0.73313  1
 Lu  Lu3  1  0.63342  0.07178  0.26687  1
 Lu  Lu4  1  0.63342  0.42822  0.26687  1
 O  O1  1  0.00000  0.00000  0.00000  1
 O  O2  1  0.00000  0.50000  0.00000  1
 O  O3  1  0.44735  0.75000  0.89467  1
 O  O4  1  0.26355  0.10707  0.52708  1
 O  O5  1  0.26355  0.39293  0.52708  1
 O  O6  1  0.73645  0.60707  0.47292  1
 O  O7  1  0.73645  0.89293  0.47292  1
 O  O8  1  0.55265  0.25000  0.10533  1
 Sr  Sr1  1  0.88676  0.25000  0.77360  1
 Sr  Sr2  1  0.11324  0.75000  0.22640  1
