CIF file written using JARVIS-Tools package.
data_K2B2S7
_symmetry_space_group_name_H-M  'C2/c'
_cell_length_a       6.77814
_cell_length_b       8.08584
_cell_length_c       10.5025
_cell_angle_alpha    76.0289
_cell_angle_beta     71.1742
_cell_angle_gamma    65.2199

_symmetry_Int_Tables_number  15
_chemical_formula_structural  K2B2S7
_chemical_formula_sum  K4B4S4
_cell_volume  490.8590820813543
_cell_formula_units_Z  2
loop_
  _symmetry_equiv_pos_site_id
 _symmetry_equiv_pos_as_xyz
 1  'x, y, z'
loop_
 _atom_site_type_symbol
 _atom_site_label
 _atom_site_symmetry_multiplicity
 _atom_site_fract_x
 _atom_site_fract_y
 _atom_site_fract_z
 _atom_site_fract_occupancy
 B  B1  1  0.84126  0.61743  0.14909  1
 B  B2  1  0.60777  0.88257  0.35091  1
 B  B3  1  0.15874  0.38257  0.85091  1
 B  B4  1  0.39223  0.11743  0.64909  1
 K  K1  1  0.86932  0.31556  0.47769  1
 K  K2  1  0.13068  0.68444  0.52231  1
 K  K3  1  0.66258  0.18444  0.02231  1
 K  K4  1  0.33742  0.81556  0.97769  1
 S  S1  1  0.93816  0.38788  0.76950  1
 S  S2  1  0.90446  0.88788  0.26950  1
 S  S3  1  0.42753  0.25765  0.47379  1
 S  S4  1  0.45760  0.25000  0.75000  1
 S  S5  1  0.57247  0.74235  0.52621  1
 S  S6  1  0.84103  0.75765  0.97379  1
 S  S7  1  0.14879  0.62486  0.83913  1
 S  S8  1  0.85121  0.37514  0.16087  1
 S  S9  1  0.38722  0.12486  0.33913  1
 S  S10  1  0.54240  0.75000  0.25000  1
 S  S11  1  0.06184  0.61212  0.23050  1
 S  S12  1  0.09554  0.11212  0.73050  1
 S  S13  1  0.61278  0.87514  0.66087  1
 S  S14  1  0.15897  0.24235  0.02621  1
