data_image0
_chemical_formula_structural       Ge16Sm20
_chemical_formula_sum              "Ge16 Sm20"
_cell_length_a       7.7885
_cell_length_b       14.9955
_cell_length_c       7.90781
_cell_angle_alpha    90
_cell_angle_beta     90
_cell_angle_gamma    90

_space_group_name_H-M_alt    "P 1"
_space_group_IT_number       1

loop_
  _space_group_symop_operation_xyz
  'x, y, z'

loop_
  _atom_site_type_symbol
  _atom_site_label
  _atom_site_symmetry_multiplicity
  _atom_site_fract_x
  _atom_site_fract_y
  _atom_site_fract_z
  _atom_site_occupancy
  Ge  Ge1       1.0  0.18100  0.25000  0.63500  1.0000
  Ge  Ge2       1.0  0.31900  0.75000  0.13500  1.0000
  Ge  Ge3       1.0  0.68100  0.25000  0.86500  1.0000
  Ge  Ge4       1.0  0.81900  0.75000  0.36500  1.0000
  Ge  Ge5       1.0  0.92500  0.25000  0.11000  1.0000
  Ge  Ge6       1.0  0.57500  0.75000  0.61000  1.0000
  Ge  Ge7       1.0  0.42500  0.25000  0.39000  1.0000
  Ge  Ge8       1.0  0.07550  0.75000  0.89000  1.0000
  Ge  Ge9       1.0  0.21300  0.95600  0.53600  1.0000
  Ge  Ge10      1.0  0.28700  0.04370  0.03620  1.0000
  Ge  Ge11      1.0  0.71300  0.54400  0.96400  1.0000
  Ge  Ge12      1.0  0.78700  0.45600  0.46400  1.0000
  Ge  Ge13      1.0  0.78700  0.04370  0.46400  1.0000
  Ge  Ge14      1.0  0.71300  0.95600  0.96400  1.0000
  Ge  Ge15      1.0  0.28700  0.45600  0.03620  1.0000
  Ge  Ge16      1.0  0.21300  0.54400  0.53600  1.0000
  Sm  Sm1       1.0  0.29600  0.25000  0.00060  1.0000
  Sm  Sm2       1.0  0.20400  0.75000  0.50100  1.0000
  Sm  Sm3       1.0  0.79600  0.25000  0.49900  1.0000
  Sm  Sm4       1.0  0.70400  0.75000  0.99900  1.0000
  Sm  Sm5       1.0  0.98500  0.09980  0.82000  1.0000
  Sm  Sm6       1.0  0.51500  0.90000  0.32000  1.0000
  Sm  Sm7       1.0  0.48500  0.40000  0.68000  1.0000
  Sm  Sm8       1.0  0.01520  0.60000  0.18000  1.0000
  Sm  Sm9       1.0  0.01520  0.90000  0.18000  1.0000
  Sm  Sm10      1.0  0.48500  0.09980  0.68000  1.0000
  Sm  Sm11      1.0  0.51500  0.60000  0.32000  1.0000
  Sm  Sm12      1.0  0.98500  0.40000  0.82000  1.0000
  Sm  Sm13      1.0  0.13000  0.11700  0.33900  1.0000
  Sm  Sm14      1.0  0.37000  0.88300  0.83900  1.0000
  Sm  Sm15      1.0  0.63000  0.38300  0.16100  1.0000
  Sm  Sm16      1.0  0.87000  0.61700  0.66100  1.0000
  Sm  Sm17      1.0  0.87000  0.88300  0.66100  1.0000
  Sm  Sm18      1.0  0.63000  0.11700  0.16100  1.0000
  Sm  Sm19      1.0  0.37000  0.61700  0.83900  1.0000
  Sm  Sm20      1.0  0.13000  0.38300  0.33900  1.0000
