CIF file written using JARVIS-Tools package.
data_H5CNO2
_symmetry_space_group_name_H-M  'Pc'
_cell_length_a       3.67638
_cell_length_b       4.68296
_cell_length_c       9.08122
_cell_angle_alpha    90
_cell_angle_beta     89.5333
_cell_angle_gamma    90

_symmetry_Int_Tables_number  7
_chemical_formula_structural  H5CNO2
_chemical_formula_sum  H0C2N2O4
_cell_volume  156.3404645607429
_cell_formula_units_Z  2
loop_
  _symmetry_equiv_pos_site_id
 _symmetry_equiv_pos_as_xyz
 1  'x, y, z'
loop_
 _atom_site_type_symbol
 _atom_site_label
 _atom_site_symmetry_multiplicity
 _atom_site_fract_x
 _atom_site_fract_y
 _atom_site_fract_z
 _atom_site_fract_occupancy
 C  C1  1  0.49642  0.37998  0.69150  1
 C  C2  1  0.49642  0.62002  0.19150  1
 H  H1  1  0.82614  0.96379  0.58673  1
 H  H2  1  0.82614  0.03621  0.08673  1
 H  H3  1  0.85095  0.89280  0.40146  1
 H  H4  1  0.17303  0.09851  0.48988  1
 H  H5  1  0.15811  0.73816  0.52040  1
 H  H6  1  0.48894  0.56119  0.77124  1
 H  H7  1  0.85095  0.10720  0.90146  1
 H  H8  1  0.15811  0.26184  0.02040  1
 H  H9  1  0.48894  0.43881  0.27124  1
 H  H10  1  0.17303  0.90149  0.98988  1
 N  N1  1  0.00208  0.07853  0.99810  1
 N  N2  1  0.00208  0.92147  0.49810  1
 O  O1  1  0.59738  0.13819  0.73951  1
 O  O2  1  0.40425  0.56980  0.05969  1
 O  O3  1  0.59738  0.86181  0.23951  1
 O  O4  1  0.40425  0.43020  0.55969  1
