CIF file written using JARVIS-Tools package.
data_CdI2
_symmetry_space_group_name_H-M  'P3m1'
_cell_length_a       4.28545
_cell_length_b       4.28545
_cell_length_c       34.3721
_cell_angle_alpha    90
_cell_angle_beta     90
_cell_angle_gamma    120

_symmetry_Int_Tables_number  156
_chemical_formula_structural  CdI2
_chemical_formula_sum  Cd5I0
_cell_volume  546.6751042377008
_cell_formula_units_Z  5
loop_
  _symmetry_equiv_pos_site_id
 _symmetry_equiv_pos_as_xyz
 1  'x, y, z'
loop_
 _atom_site_type_symbol
 _atom_site_label
 _atom_site_symmetry_multiplicity
 _atom_site_fract_x
 _atom_site_fract_y
 _atom_site_fract_z
 _atom_site_fract_occupancy
 Cd  Cd1  1  0.66667  0.33333  0.05004  1
 Cd  Cd2  1  0.33333  0.66667  0.85001  1
 Cd  Cd3  1  0.33333  0.66667  0.44998  1
 Cd  Cd4  1  0.33333  0.66667  0.65004  1
 Cd  Cd5  1  0.33333  0.66667  0.24998  1
 I  I1  1  0.00000  0.00000  0.19950  1
 I  I2  1  0.66667  0.33333  0.90045  1
 I  I3  1  0.33333  0.66667  0.10046  1
 I  I4  1  0.66667  0.33333  0.30041  1
 I  I5  1  0.00000  0.00000  -0.00043  1
 I  I6  1  0.66667  0.33333  0.50042  1
 I  I7  1  0.66667  0.33333  0.70048  1
 I  I8  1  0.00000  0.00000  0.39951  1
 I  I9  1  0.00000  0.00000  0.59958  1
 I  I10  1  0.00000  0.00000  0.79956  1
