CIF file written using JARVIS-Tools package.
data_LiTlO2
_symmetry_space_group_name_H-M  'I4_1/amd'
_cell_length_a       4.62825
_cell_length_b       4.62826
_cell_length_c       5.60514
_cell_angle_alpha    114.385
_cell_angle_beta     114.385
_cell_angle_gamma    90

_symmetry_Int_Tables_number  141
_chemical_formula_structural  LiTlO2
_chemical_formula_sum  Li2Tl2O4
_cell_volume  97.47563323066638
_cell_formula_units_Z  2
loop_
  _symmetry_equiv_pos_site_id
 _symmetry_equiv_pos_as_xyz
 1  'x, y, z'
loop_
 _atom_site_type_symbol
 _atom_site_label
 _atom_site_symmetry_multiplicity
 _atom_site_fract_x
 _atom_site_fract_y
 _atom_site_fract_z
 _atom_site_fract_occupancy
 Li  Li1  1  0.87500  0.12500  0.75000  1
 Li  Li2  1  0.12500  0.87500  0.25000  1
 O  O1  1  0.62390  0.87390  0.24781  1
 O  O2  1  0.12610  0.37610  0.25219  1
 O  O3  1  0.87390  0.62390  0.74781  1
 O  O4  1  0.37610  0.12610  0.75219  1
 Tl  Tl1  1  0.37500  0.62500  0.75000  1
 Tl  Tl2  1  0.62500  0.37500  0.25000  1
