CIF file written using JARVIS-Tools package.
data_Mn4ZnO8
_symmetry_space_group_name_H-M  'P1'
_cell_length_a       2.9308
_cell_length_b       7.07756
_cell_length_c       7.22432
_cell_angle_alpha    82.6558
_cell_angle_beta     78.3797
_cell_angle_gamma    78.1066

_symmetry_Int_Tables_number  1
_chemical_formula_structural  Mn4ZnO8
_chemical_formula_sum  Mn4ZnO8
_cell_volume  143.04767738510094
_cell_formula_units_Z  1
loop_
  _symmetry_equiv_pos_site_id
 _symmetry_equiv_pos_as_xyz
 1  'x, y, z'
loop_
 _atom_site_type_symbol
 _atom_site_label
 _atom_site_symmetry_multiplicity
 _atom_site_fract_x
 _atom_site_fract_y
 _atom_site_fract_z
 _atom_site_fract_occupancy
 Mn  Mn1  1  0.63421  0.17408  0.55785  1
 Mn  Mn2  1  0.14340  0.50133  0.20902  1
 Mn  Mn3  1  0.83750  0.48691  0.83983  1
 Mn  Mn4  1  0.34701  0.80364  0.50052  1
 O  O1  1  0.84902  0.67520  0.62580  1
 O  O2  1  0.45497  0.34173  0.74928  1
 O  O3  1  0.53104  0.64109  0.29355  1
 O  O4  1  0.13735  0.30505  0.42019  1
 O  O5  1  0.15955  0.01935  0.66205  1
 O  O6  1  0.80140  0.31569  0.08655  1
 O  O7  1  0.83227  0.98013  0.35340  1
 O  O8  1  0.21350  0.61800  0.95748  1
 Zn  Zn1  1  0.35626  0.11391  0.17512  1
