CIF file written using JARVIS-Tools package.
data_SnH8N2Cl6
_symmetry_space_group_name_H-M  'Fm-3m'
_cell_length_a       7.0626
_cell_length_b       7.0626
_cell_length_c       7.0626
_cell_angle_alpha    60
_cell_angle_beta     60
_cell_angle_gamma    60

_symmetry_Int_Tables_number  225
_chemical_formula_structural  SnH8N2Cl6
_chemical_formula_sum  SnH8N2Cl6
_cell_volume  249.1027626101644
_cell_formula_units_Z  1
loop_
  _symmetry_equiv_pos_site_id
 _symmetry_equiv_pos_as_xyz
 1  'x, y, z'
loop_
 _atom_site_type_symbol
 _atom_site_label
 _atom_site_symmetry_multiplicity
 _atom_site_fract_x
 _atom_site_fract_y
 _atom_site_fract_z
 _atom_site_fract_occupancy
 Cl  Cl1  1  0.24723  0.24723  0.75277  1
 Cl  Cl2  1  0.75277  0.24723  0.24723  1
 Cl  Cl3  1  0.24723  0.75277  0.75277  1
 Cl  Cl4  1  0.75277  0.24723  0.75277  1
 Cl  Cl5  1  0.24723  0.75277  0.24723  1
 Cl  Cl6  1  0.75277  0.75277  0.24723  1
 H  H1  1  0.30995  0.30995  0.07016  1
 H  H2  1  0.69005  0.92984  0.69005  1
 H  H3  1  0.07016  0.30995  0.30995  1
 H  H4  1  0.69005  0.69005  0.69005  1
 H  H5  1  0.92984  0.69005  0.69005  1
 H  H6  1  0.69005  0.69005  0.92984  1
 H  H7  1  0.30995  0.30995  0.30995  1
 H  H8  1  0.30995  0.07016  0.30995  1
 N  N1  1  0.25000  0.25000  0.25000  1
 N  N2  1  0.75000  0.75000  0.75000  1
 Sn  Sn1  1  0.00000  0.00000  0.00000  1
