CIF file written using JARVIS-Tools package.
data_MnPd3
_symmetry_space_group_name_H-M  'I4/mmm'
_cell_length_a       3.93037
_cell_length_b       3.93038
_cell_length_c       8.27999
_cell_angle_alpha    103.73
_cell_angle_beta     103.73
_cell_angle_gamma    90.0001

_symmetry_Int_Tables_number  139
_chemical_formula_structural  MnPd3
_chemical_formula_sum  Mn2Pd6
_cell_volume  120.48787102239375
_cell_formula_units_Z  2
loop_
  _symmetry_equiv_pos_site_id
 _symmetry_equiv_pos_as_xyz
 1  'x, y, z'
loop_
 _atom_site_type_symbol
 _atom_site_label
 _atom_site_symmetry_multiplicity
 _atom_site_fract_x
 _atom_site_fract_y
 _atom_site_fract_z
 _atom_site_fract_occupancy
 Mn  Mn1  1  0.12432  0.12432  0.24865  1
 Mn  Mn2  1  0.87568  0.87568  0.75135  1
 Pd  Pd1  1  0.37477  0.37477  0.74955  1
 Pd  Pd2  1  0.62523  0.62523  0.25045  1
 Pd  Pd3  1  0.50000  -0.00000  0.00000  1
 Pd  Pd4  1  0.00000  0.50000  -0.00000  1
 Pd  Pd5  1  0.75000  0.25000  0.50000  1
 Pd  Pd6  1  0.25000  0.75000  0.50000  1
