CIF file written using JARVIS-Tools package.
data_LiMnO2
_symmetry_space_group_name_H-M  'Cm'
_cell_length_a       3.15376
_cell_length_b       3.15378
_cell_length_c       5.06946
_cell_angle_alpha    93.1973
_cell_angle_beta     86.803
_cell_angle_gamma    126.545

_symmetry_Int_Tables_number  8
_chemical_formula_structural  LiMnO2
_chemical_formula_sum  LiMnO2
_cell_volume  40.42928820491556
_cell_formula_units_Z  1
loop_
  _symmetry_equiv_pos_site_id
 _symmetry_equiv_pos_as_xyz
 1  'x, y, z'
loop_
 _atom_site_type_symbol
 _atom_site_label
 _atom_site_symmetry_multiplicity
 _atom_site_fract_x
 _atom_site_fract_y
 _atom_site_fract_z
 _atom_site_fract_occupancy
 Li  Li1  1  0.67642  0.32357  0.41422  1
 Mn  Mn1  1  0.98097  0.01899  0.97482  1
 O  O1  1  0.36911  0.63087  0.21955  1
 O  O2  1  0.64010  0.35986  0.78281  1
