CIF file written using JARVIS-Tools package.
data_Sc2TiO5
_symmetry_space_group_name_H-M  'Cmc2_1'
_cell_length_a       3.86434
_cell_length_b       5.45419
_cell_length_c       10.2979
_cell_angle_alpha    90
_cell_angle_beta     90
_cell_angle_gamma    110.748

_symmetry_Int_Tables_number  36
_chemical_formula_structural  Sc2TiO5
_chemical_formula_sum  Sc4Ti2O0
_cell_volume  202.9709837499086
_cell_formula_units_Z  2
loop_
  _symmetry_equiv_pos_site_id
 _symmetry_equiv_pos_as_xyz
 1  'x, y, z'
loop_
 _atom_site_type_symbol
 _atom_site_label
 _atom_site_symmetry_multiplicity
 _atom_site_fract_x
 _atom_site_fract_y
 _atom_site_fract_z
 _atom_site_fract_occupancy
 O  O1  1  0.44628  0.89255  0.89106  1
 O  O2  1  0.18498  0.36996  0.56984  1
 O  O3  1  0.27091  0.54183  0.24185  1
 O  O4  1  0.19884  0.39768  0.93235  1
 O  O5  1  0.46247  0.92493  0.61932  1
 O  O6  1  0.72909  0.45817  0.74185  1
 O  O7  1  0.81502  0.63004  0.06984  1
 O  O8  1  0.55372  0.10745  0.39106  1
 O  O9  1  0.53753  0.07507  0.11932  1
 O  O10  1  0.80116  0.60232  0.43235  1
 Sc  Sc1  1  0.36282  0.72564  0.43651  1
 Sc  Sc2  1  0.30543  0.61087  0.74958  1
 Sc  Sc3  1  0.69457  0.38913  0.24958  1
 Sc  Sc4  1  0.63718  0.27436  0.93651  1
 Ti  Ti1  1  0.36690  0.73379  0.05949  1
 Ti  Ti2  1  0.63310  0.26621  0.55949  1
