CIF file written using JARVIS-Tools package.
data_MnAl2S4
_symmetry_space_group_name_H-M  'R3m'
_cell_length_a       3.56559
_cell_length_b       3.56559
_cell_length_c       12.1121
_cell_angle_alpha    81.5358
_cell_angle_beta     81.5358
_cell_angle_gamma    60.0002

_symmetry_Int_Tables_number  160
_chemical_formula_structural  MnAl2S4
_chemical_formula_sum  MnAl2S4
_cell_volume  131.41637640346346
_cell_formula_units_Z  1
loop_
  _symmetry_equiv_pos_site_id
 _symmetry_equiv_pos_as_xyz
 1  'x, y, z'
loop_
 _atom_site_type_symbol
 _atom_site_label
 _atom_site_symmetry_multiplicity
 _atom_site_fract_x
 _atom_site_fract_y
 _atom_site_fract_z
 _atom_site_fract_occupancy
 Al  Al1  1  0.70005  0.70005  0.89984  1
 Al  Al2  1  0.46871  0.46871  0.59388  1
 Mn  Mn1  1  0.93672  0.93672  0.18984  1
 S  S1  1  0.00015  0.00015  0.99955  1
 S  S2  1  0.82945  0.82945  0.51164  1
 S  S3  1  0.58575  0.58575  0.24276  1
 S  S4  1  0.40637  0.40637  0.78088  1
