CIF file written using JARVIS-Tools package.
data_NbBr3O
_symmetry_space_group_name_H-M  'P-42_1m'
_cell_length_a       3.93057
_cell_length_b       11.6117
_cell_length_c       11.6117
_cell_angle_alpha    90
_cell_angle_beta     90
_cell_angle_gamma    90

_symmetry_Int_Tables_number  113
_chemical_formula_structural  NbBr3O
_chemical_formula_sum  Nb4Br2O4
_cell_volume  529.9614059693395
_cell_formula_units_Z  4
loop_
  _symmetry_equiv_pos_site_id
 _symmetry_equiv_pos_as_xyz
 1  'x, y, z'
loop_
 _atom_site_type_symbol
 _atom_site_label
 _atom_site_symmetry_multiplicity
 _atom_site_fract_x
 _atom_site_fract_y
 _atom_site_fract_z
 _atom_site_fract_occupancy
 Br  Br1  1  0.74768  0.16342  0.10662  1
 Br  Br2  1  0.73976  0.60713  0.10713  1
 Br  Br3  1  0.26024  0.89287  0.60713  1
 Br  Br4  1  0.73976  0.39287  0.89287  1
 Br  Br5  1  0.74768  0.60662  0.66342  1
 Br  Br6  1  0.25232  0.33658  0.60662  1
 Br  Br7  1  0.25232  0.10662  0.83658  1
 Br  Br8  1  0.25232  0.66342  0.39338  1
 Br  Br9  1  0.74768  0.39338  0.33658  1
 Br  Br10  1  0.74768  0.83658  0.89338  1
 Br  Br11  1  0.25232  0.89338  0.16342  1
 Br  Br12  1  0.26024  0.10713  0.39287  1
 Nb  Nb1  1  0.20960  0.12636  0.62636  1
 Nb  Nb2  1  0.79040  0.62636  0.87364  1
 Nb  Nb3  1  0.79040  0.37364  0.12636  1
 Nb  Nb4  1  0.20960  0.87364  0.37364  1
 O  O1  1  0.74384  0.88384  0.38384  1
 O  O2  1  0.25616  0.61616  0.88384  1
 O  O3  1  0.74384  0.11616  0.61616  1
 O  O4  1  0.25616  0.38384  0.11616  1
