CIF file written using JARVIS-Tools package.
data_Pd3Pb2S2
_symmetry_space_group_name_H-M  'R-3m'
_cell_length_a       5.82052
_cell_length_b       5.82052
_cell_length_c       5.82052
_cell_angle_alpha    62.9895
_cell_angle_beta     62.9894
_cell_angle_gamma    62.9894

_symmetry_Int_Tables_number  166
_chemical_formula_structural  Pd3Pb2S2
_chemical_formula_sum  Pd3Pb2S2
_cell_volume  148.68946919567895
_cell_formula_units_Z  1
loop_
  _symmetry_equiv_pos_site_id
 _symmetry_equiv_pos_as_xyz
 1  'x, y, z'
loop_
 _atom_site_type_symbol
 _atom_site_label
 _atom_site_symmetry_multiplicity
 _atom_site_fract_x
 _atom_site_fract_y
 _atom_site_fract_z
 _atom_site_fract_occupancy
 Pb  Pb1  1  0.50000  0.50000  0.50000  1
 Pb  Pb2  1  0.00000  0.00000  0.00000  1
 Pd  Pd1  1  -0.00000  -0.00000  0.50000  1
 Pd  Pd2  1  0.50000  0.00000  0.00000  1
 Pd  Pd3  1  0.00000  0.50000  0.00000  1
 S  S1  1  0.71964  0.71964  0.71964  1
 S  S2  1  0.28036  0.28036  0.28036  1
