CIF file written using JARVIS-Tools package.
data_CdAg2O4
_symmetry_space_group_name_H-M  'I4_1/amd'
_cell_length_a       5.95993
_cell_length_b       7.14903
_cell_length_c       5.95993
_cell_angle_alpha    65.365
_cell_angle_beta     90
_cell_angle_gamma    114.635

_symmetry_Int_Tables_number  141
_chemical_formula_structural  CdAg2O4
_chemical_formula_sum  Cd2Ag4O8
_cell_volume  205.12489986904018
_cell_formula_units_Z  2
loop_
  _symmetry_equiv_pos_site_id
 _symmetry_equiv_pos_as_xyz
 1  'x, y, z'
loop_
 _atom_site_type_symbol
 _atom_site_label
 _atom_site_symmetry_multiplicity
 _atom_site_fract_x
 _atom_site_fract_y
 _atom_site_fract_z
 _atom_site_fract_occupancy
 Ag  Ag1  1  0.37500  0.25000  0.37500  1
 Ag  Ag2  1  0.87500  0.25000  0.37500  1
 Ag  Ag3  1  0.37500  0.75000  0.37500  1
 Ag  Ag4  1  0.37500  0.75000  0.87500  1
 Cd  Cd1  1  0.00000  0.00000  0.00000  1
 Cd  Cd2  1  0.75000  0.50000  0.75000  1
 O  O1  1  0.13207  0.26414  0.13777  1
 O  O2  1  0.61793  0.23586  0.15191  1
 O  O3  1  0.59809  0.73586  0.13207  1
 O  O4  1  0.13777  0.73586  0.13207  1
 O  O5  1  0.61793  0.23586  0.61223  1
 O  O6  1  0.13207  0.26414  0.59809  1
 O  O7  1  0.15191  0.76414  0.61793  1
 O  O8  1  0.61223  0.76414  0.61793  1
