CIF file written using JARVIS-Tools package.
data_Ga4GeO8
_symmetry_space_group_name_H-M  'C2/m'
_cell_length_a       3.04914
_cell_length_b       6.34556
_cell_length_c       7.94901
_cell_angle_alpha    82.7175
_cell_angle_beta     78.9426
_cell_angle_gamma    76.0983

_symmetry_Int_Tables_number  12
_chemical_formula_structural  Ga4GeO8
_chemical_formula_sum  Ga4GeO8
_cell_volume  145.998517018368
_cell_formula_units_Z  1
loop_
  _symmetry_equiv_pos_site_id
 _symmetry_equiv_pos_as_xyz
 1  'x, y, z'
loop_
 _atom_site_type_symbol
 _atom_site_label
 _atom_site_symmetry_multiplicity
 _atom_site_fract_x
 _atom_site_fract_y
 _atom_site_fract_z
 _atom_site_fract_occupancy
 Ga  Ga1  1  0.46092  0.35915  0.71900  1
 Ga  Ga2  1  0.53908  0.64085  0.28100  1
 Ga  Ga3  1  0.75859  0.84452  0.63831  1
 Ga  Ga4  1  0.24141  0.15548  0.36169  1
 Ge  Ge1  1  0.00000  0.00000  0.00000  1
 O  O1  1  0.88858  0.52687  0.69598  1
 O  O2  1  0.11142  0.47313  0.30402  1
 O  O3  1  0.43850  0.19280  0.93020  1
 O  O4  1  0.56150  0.80720  0.06980  1
 O  O5  1  0.64524  0.17137  0.53814  1
 O  O6  1  0.84029  0.10211  0.21731  1
 O  O7  1  0.15971  0.89789  0.78269  1
 O  O8  1  0.35476  0.82863  0.46186  1
