CIF file written using JARVIS-Tools package.
data_CSNF5
_symmetry_space_group_name_H-M  'Pnma'
_cell_length_a       5.87446
_cell_length_b       7.75132
_cell_length_c       9.68753
_cell_angle_alpha    90
_cell_angle_beta     90
_cell_angle_gamma    90

_symmetry_Int_Tables_number  62
_chemical_formula_structural  CSNF5
_chemical_formula_sum  C4S4N4F20
_cell_volume  441.11990730427584
_cell_formula_units_Z  4
loop_
  _symmetry_equiv_pos_site_id
 _symmetry_equiv_pos_as_xyz
 1  'x, y, z'
loop_
 _atom_site_type_symbol
 _atom_site_label
 _atom_site_symmetry_multiplicity
 _atom_site_fract_x
 _atom_site_fract_y
 _atom_site_fract_z
 _atom_site_fract_occupancy
 C  C1  1  0.75000  0.55208  0.04573  1
 C  C2  1  0.25000  0.44792  0.95427  1
 C  C3  1  0.25000  0.05208  0.45427  1
 C  C4  1  0.75000  0.94792  0.54573  1
 F  F1  1  0.02184  0.08414  0.82184  1
 F  F2  1  0.25000  0.39133  0.61776  1
 F  F3  1  0.75000  0.89133  0.88224  1
 F  F4  1  0.75000  0.22479  0.26145  1
 F  F5  1  0.25000  0.65817  0.52549  1
 F  F6  1  0.75000  0.27521  0.76145  1
 F  F7  1  0.47816  0.08414  0.82184  1
 F  F8  1  0.75000  0.60867  0.38224  1
 F  F9  1  0.25000  0.10867  0.11776  1
 F  F10  1  0.52184  0.91586  0.17816  1
 F  F11  1  0.75000  0.15817  0.97451  1
 F  F12  1  0.25000  0.84183  0.02549  1
 F  F13  1  0.25000  0.72479  0.23855  1
 F  F14  1  0.02184  0.41586  0.32184  1
 F  F15  1  0.75000  0.34183  0.47451  1
 F  F16  1  0.97816  0.91586  0.17816  1
 F  F17  1  0.25000  0.77521  0.73855  1
 F  F18  1  0.52184  0.58414  0.67816  1
 F  F19  1  0.97816  0.58414  0.67816  1
 F  F20  1  0.47816  0.41586  0.32184  1
 N  N1  1  0.75000  0.00258  0.65974  1
 N  N2  1  0.25000  -0.00258  0.34026  1
 N  N3  1  0.75000  0.49742  0.15974  1
 N  N4  1  0.25000  0.50258  0.84026  1
 S  S1  1  0.75000  0.08271  0.82101  1
 S  S2  1  0.25000  0.91729  0.17899  1
 S  S3  1  0.75000  0.41729  0.32101  1
 S  S4  1  0.25000  0.58271  0.67899  1
