CIF file written using JARVIS-Tools package.
data_InI4
_symmetry_space_group_name_H-M  'Fm-3c'
_cell_length_a       13.4297
_cell_length_b       13.4297
_cell_length_c       13.4297
_cell_angle_alpha    60
_cell_angle_beta     60
_cell_angle_gamma    60

_symmetry_Int_Tables_number  226
_chemical_formula_structural  InI4
_chemical_formula_sum  In6I24
_cell_volume  1712.7191898455894
_cell_formula_units_Z  6
loop_
  _symmetry_equiv_pos_site_id
 _symmetry_equiv_pos_as_xyz
 1  'x, y, z'
loop_
 _atom_site_type_symbol
 _atom_site_label
 _atom_site_symmetry_multiplicity
 _atom_site_fract_x
 _atom_site_fract_y
 _atom_site_fract_z
 _atom_site_fract_occupancy
 I  I1  1  0.70175  0.29825  0.95031  1
 I  I2  1  0.54969  0.20175  0.79825  1
 I  I3  1  0.54969  0.79825  0.45031  1
 I  I4  1  0.79825  0.54969  0.20175  1
 I  I5  1  0.79825  0.45031  0.54969  1
 I  I6  1  0.20175  0.79825  0.54969  1
 I  I7  1  0.54969  0.45031  0.20175  1
 I  I8  1  0.45031  0.54969  0.79825  1
 I  I9  1  0.79825  0.20175  0.45031  1
 I  I10  1  0.95031  0.04969  0.70175  1
 I  I11  1  0.20175  0.45031  0.79825  1
 I  I12  1  0.20175  0.54969  0.45031  1
 I  I13  1  0.45031  0.79825  0.20175  1
 I  I14  1  0.04969  0.70175  0.95031  1
 I  I15  1  0.95031  0.70175  0.29825  1
 I  I16  1  0.70175  0.95031  0.04969  1
 I  I17  1  0.04969  0.29825  0.70175  1
 I  I18  1  0.95031  0.29825  0.04969  1
 I  I19  1  0.29825  0.95031  0.70175  1
 I  I20  1  0.70175  0.04969  0.29825  1
 I  I21  1  0.29825  0.04969  0.95031  1
 I  I22  1  0.04969  0.95031  0.29825  1
 I  I23  1  0.29825  0.70175  0.04969  1
 I  I24  1  0.45031  0.20175  0.54969  1
 In  In1  1  0.75000  0.25000  0.75000  1
 In  In2  1  0.75000  0.75000  0.25000  1
 In  In3  1  0.25000  0.75000  0.75000  1
 In  In4  1  0.75000  0.25000  0.25000  1
 In  In5  1  0.25000  0.75000  0.25000  1
 In  In6  1  0.25000  0.25000  0.75000  1
