CIF file written using JARVIS-Tools package.
data_ZnH8C2S2N6
_symmetry_space_group_name_H-M  'P2_1/c'
_cell_length_a       6.92162
_cell_length_b       14.9208
_cell_length_c       4.18866
_cell_angle_alpha    90
_cell_angle_beta     107.321
_cell_angle_gamma    90

_symmetry_Int_Tables_number  14
_chemical_formula_structural  ZnH8C2S2N6
_chemical_formula_sum  Zn2H6C4S4N2
_cell_volume  412.97041435058946
_cell_formula_units_Z  2
loop_
  _symmetry_equiv_pos_site_id
 _symmetry_equiv_pos_as_xyz
 1  'x, y, z'
loop_
 _atom_site_type_symbol
 _atom_site_label
 _atom_site_symmetry_multiplicity
 _atom_site_fract_x
 _atom_site_fract_y
 _atom_site_fract_z
 _atom_site_fract_occupancy
 C  C1  1  0.12502  0.37368  0.04857  1
 C  C2  1  0.87498  0.62632  0.95143  1
 C  C3  1  0.62502  0.12632  0.04857  1
 C  C4  1  0.37498  0.87368  0.95143  1
 H  H1  1  0.07761  0.87174  0.47631  1
 H  H2  1  0.42239  0.37174  0.52369  1
 H  H3  1  0.92239  0.12826  0.52369  1
 H  H4  1  0.57761  0.62826  0.47631  1
 H  H5  1  0.63305  0.34102  0.81325  1
 H  H6  1  0.13305  0.15898  0.81325  1
 H  H7  1  0.86695  0.84102  0.18675  1
 H  H8  1  0.74666  0.87366  0.60745  1
 H  H9  1  0.22066  0.52920  0.40544  1
 H  H10  1  0.36695  0.65898  0.18675  1
 H  H11  1  0.77934  0.47080  0.59456  1
 H  H12  1  0.72066  0.97080  0.40544  1
 H  H13  1  0.27934  0.02920  0.59456  1
 H  H14  1  0.25334  0.12634  0.39255  1
 H  H15  1  0.75334  0.37366  0.39255  1
 H  H16  1  0.24666  0.62634  0.60745  1
 N  N1  1  0.55963  0.39461  0.67232  1
 N  N2  1  0.32592  0.57404  0.54326  1
 N  N3  1  0.94037  0.89461  0.32768  1
 N  N4  1  0.05963  0.10539  0.67232  1
 N  N5  1  0.82592  0.92596  0.54326  1
 N  N6  1  0.44037  0.60539  0.32768  1
 N  N7  1  0.17408  0.07404  0.45674  1
 N  N8  1  0.72340  0.06621  0.99392  1
 N  N9  1  0.22340  0.43379  0.99392  1
 N  N10  1  0.27660  0.93379  0.00608  1
 N  N11  1  0.67408  0.42596  0.45674  1
 N  N12  1  0.77660  0.56621  0.00608  1
 S  S1  1  0.99226  0.29237  0.13052  1
 S  S2  1  0.50774  0.79237  0.86948  1
 S  S3  1  0.00774  0.70763  0.86948  1
 S  S4  1  0.49226  0.20763  0.13052  1
 Zn  Zn1  1  0.50000  0.50000  0.00000  1
 Zn  Zn2  1  0.00000  0.00000  0.00000  1
