CIF file written using JARVIS-Tools package.
data_TaZn2CuO6
_symmetry_space_group_name_H-M  'P2_1/m'
_cell_length_a       5.35021
_cell_length_b       7.43631
_cell_length_c       5.57923
_cell_angle_alpha    90
_cell_angle_beta     101.11
_cell_angle_gamma    90

_symmetry_Int_Tables_number  11
_chemical_formula_structural  TaZn2CuO6
_chemical_formula_sum  Ta2Zn4Cu2O2
_cell_volume  217.8143297554835
_cell_formula_units_Z  2
loop_
  _symmetry_equiv_pos_site_id
 _symmetry_equiv_pos_as_xyz
 1  'x, y, z'
loop_
 _atom_site_type_symbol
 _atom_site_label
 _atom_site_symmetry_multiplicity
 _atom_site_fract_x
 _atom_site_fract_y
 _atom_site_fract_z
 _atom_site_fract_occupancy
 Cu  Cu1  1  0.50000  0.00000  0.00000  1
 Cu  Cu2  1  0.50000  0.50000  0.00000  1
 O  O1  1  0.36946  0.75000  0.07092  1
 O  O2  1  0.17746  0.44014  0.83989  1
 O  O3  1  0.63054  0.25000  0.92908  1
 O  O4  1  0.82254  0.55986  0.16011  1
 O  O5  1  0.28674  0.07513  0.34991  1
 O  O6  1  0.71326  0.57513  0.65009  1
 O  O7  1  0.28674  0.42487  0.34991  1
 O  O8  1  0.71326  0.92487  0.65009  1
 O  O9  1  0.14384  0.75000  0.54013  1
 O  O10  1  0.85616  0.25000  0.45987  1
 O  O11  1  0.82254  0.94014  0.16011  1
 O  O12  1  0.17746  0.05986  0.83989  1
 Ta  Ta1  1  -0.00000  0.50000  0.50000  1
 Ta  Ta2  1  -0.00000  0.00000  0.50000  1
 Zn  Zn1  1  0.03865  0.25000  0.04949  1
 Zn  Zn2  1  0.51320  0.25000  0.56041  1
 Zn  Zn3  1  0.48680  0.75000  0.43959  1
 Zn  Zn4  1  0.96135  0.75000  0.95051  1
