CIF file written using JARVIS-Tools package.
data_Li2Cu2F5
_symmetry_space_group_name_H-M  'C2/c'
_cell_length_a       5.52138
_cell_length_b       5.52138
_cell_length_c       7.20371
_cell_angle_alpha    101.754
_cell_angle_beta     78.2461
_cell_angle_gamma    87.0883

_symmetry_Int_Tables_number  15
_chemical_formula_structural  Li2Cu2F5
_chemical_formula_sum  Li4Cu4F0
_cell_volume  209.51790540285114
_cell_formula_units_Z  2
loop_
  _symmetry_equiv_pos_site_id
 _symmetry_equiv_pos_as_xyz
 1  'x, y, z'
loop_
 _atom_site_type_symbol
 _atom_site_label
 _atom_site_symmetry_multiplicity
 _atom_site_fract_x
 _atom_site_fract_y
 _atom_site_fract_z
 _atom_site_fract_occupancy
 Cu  Cu1  1  0.19183  0.79596  0.11962  1
 Cu  Cu2  1  0.20404  0.80817  0.61962  1
 Cu  Cu3  1  0.79596  0.19183  0.38038  1
 Cu  Cu4  1  0.80817  0.20404  0.88038  1
 F  F1  1  0.72161  0.06164  0.12025  1
 F  F2  1  0.83010  0.83010  0.75000  1
 F  F3  1  0.06164  0.72161  0.37975  1
 F  F4  1  0.16990  0.16990  0.25000  1
 F  F5  1  -0.00000  0.50000  0.00000  1
 F  F6  1  0.27839  0.93836  0.87975  1
 F  F7  1  0.93836  0.27839  0.62025  1
 F  F8  1  0.50000  0.50000  0.50000  1
 F  F9  1  0.50000  0.50000  0.00000  1
 F  F10  1  0.50000  0.00000  0.50000  1
 Li  Li1  1  0.73725  0.72029  0.97877  1
 Li  Li2  1  0.72029  0.73725  0.52123  1
 Li  Li3  1  0.27971  0.26275  0.47877  1
 Li  Li4  1  0.26275  0.27971  0.02123  1
