CIF file written using JARVIS-Tools package.
data_Li3Co2Si2O8
_symmetry_space_group_name_H-M  'P1'
_cell_length_a       4.97751
_cell_length_b       5.28005
_cell_length_c       6.35099
_cell_angle_alpha    89.472
_cell_angle_beta     89.9267
_cell_angle_gamma    89.6919

_symmetry_Int_Tables_number  1
_chemical_formula_structural  Li3Co2Si2O8
_chemical_formula_sum  Li3Co2Si2O8
_cell_volume  166.90416364259485
_cell_formula_units_Z  1
loop_
  _symmetry_equiv_pos_site_id
 _symmetry_equiv_pos_as_xyz
 1  'x, y, z'
loop_
 _atom_site_type_symbol
 _atom_site_label
 _atom_site_symmetry_multiplicity
 _atom_site_fract_x
 _atom_site_fract_y
 _atom_site_fract_z
 _atom_site_fract_occupancy
 Co  Co1  1  0.99073  0.82844  0.98287  1
 Co  Co2  1  0.49976  0.16739  0.49755  1
 Li  Li1  1  0.49752  0.17421  0.99613  1
 Li  Li2  1  0.99657  0.82386  0.49961  1
 Li  Li3  1  0.00183  0.34035  0.24606  1
 O  O1  1  0.10490  0.18251  0.96590  1
 O  O2  1  0.66494  0.27929  0.74466  1
 O  O3  1  0.06784  0.62557  0.74836  1
 O  O4  1  0.11100  0.19012  0.52951  1
 O  O5  1  0.60530  0.82824  0.45418  1
 O  O6  1  0.59864  0.37815  0.25401  1
 O  O7  1  0.16143  0.68666  0.23748  1
 O  O8  1  0.61492  0.82644  0.03787  1
 Si  Si1  1  0.99118  0.32459  0.74727  1
 Si  Si2  1  0.49537  0.67805  0.24569  1
