CIF file written using JARVIS-Tools package.
data_ErSiRh
_symmetry_space_group_name_H-M  'Pnma'
_cell_length_a       4.22982
_cell_length_b       6.83962
_cell_length_c       7.36676
_cell_angle_alpha    90
_cell_angle_beta     90
_cell_angle_gamma    90

_symmetry_Int_Tables_number  62
_chemical_formula_structural  ErSiRh
_chemical_formula_sum  Er4Si4Rh4
_cell_volume  213.12301829659768
_cell_formula_units_Z  4
loop_
  _symmetry_equiv_pos_site_id
 _symmetry_equiv_pos_as_xyz
 1  'x, y, z'
loop_
 _atom_site_type_symbol
 _atom_site_label
 _atom_site_symmetry_multiplicity
 _atom_site_fract_x
 _atom_site_fract_y
 _atom_site_fract_z
 _atom_site_fract_occupancy
 Er  Er1  1  0.25000  0.49945  0.69033  1
 Er  Er2  1  0.75000  0.50055  0.30967  1
 Er  Er3  1  0.25000  -0.00055  0.80967  1
 Er  Er4  1  0.75000  0.00055  0.19033  1
 Rh  Rh1  1  0.75000  0.84349  0.57022  1
 Rh  Rh2  1  0.25000  0.15651  0.42978  1
 Rh  Rh3  1  0.75000  0.34349  0.92978  1
 Rh  Rh4  1  0.25000  0.65651  0.07022  1
 Si  Si1  1  0.25000  0.29441  0.10435  1
 Si  Si2  1  0.75000  0.70559  0.89565  1
 Si  Si3  1  0.25000  0.79441  0.39565  1
 Si  Si4  1  0.75000  0.20559  0.60435  1
