CIF file written using JARVIS-Tools package.
data_CoSb2Br2O3
_symmetry_space_group_name_H-M  'P-1'
_cell_length_a       5.25531
_cell_length_b       8.07691
_cell_length_c       7.95916
_cell_angle_alpha    86.7822
_cell_angle_beta     81.554
_cell_angle_gamma    83.1895

_symmetry_Int_Tables_number  2
_chemical_formula_structural  CoSb2Br2O3
_chemical_formula_sum  Co2Sb4Br4O6
_cell_volume  331.55981499891607
_cell_formula_units_Z  2
loop_
  _symmetry_equiv_pos_site_id
 _symmetry_equiv_pos_as_xyz
 1  'x, y, z'
loop_
 _atom_site_type_symbol
 _atom_site_label
 _atom_site_symmetry_multiplicity
 _atom_site_fract_x
 _atom_site_fract_y
 _atom_site_fract_z
 _atom_site_fract_occupancy
 Br  Br1  1  0.64915  0.78838  0.21306  1
 Br  Br2  1  0.35085  0.21162  0.78694  1
 Br  Br3  1  0.75247  0.30542  0.12400  1
 Br  Br4  1  0.24753  0.69458  0.87600  1
 Co  Co1  1  0.52861  0.28652  0.48317  1
 Co  Co2  1  0.47139  0.71348  0.51683  1
 O  O1  1  0.21665  0.91401  0.51769  1
 O  O2  1  0.77006  0.75270  0.63759  1
 O  O3  1  0.76530  0.46580  0.48486  1
 O  O4  1  0.23470  0.53420  0.51514  1
 O  O5  1  0.78335  0.08599  0.48231  1
 O  O6  1  0.22994  0.24730  0.36241  1
 Sb  Sb1  1  0.10058  0.03372  0.29942  1
 Sb  Sb2  1  0.07393  0.48189  0.29174  1
 Sb  Sb3  1  0.89942  0.96628  0.70058  1
 Sb  Sb4  1  0.92607  0.51811  0.70826  1
