CIF file written using JARVIS-Tools package.
data_LiNdTi2O6
_symmetry_space_group_name_H-M  'P4/nbm'
_cell_length_a       5.37505
_cell_length_b       5.37505
_cell_length_c       7.91312
_cell_angle_alpha    90
_cell_angle_beta     90
_cell_angle_gamma    90

_symmetry_Int_Tables_number  125
_chemical_formula_structural  LiNdTi2O6
_chemical_formula_sum  Li2Nd2Ti4O2
_cell_volume  228.61886578275568
_cell_formula_units_Z  2
loop_
  _symmetry_equiv_pos_site_id
 _symmetry_equiv_pos_as_xyz
 1  'x, y, z'
loop_
 _atom_site_type_symbol
 _atom_site_label
 _atom_site_symmetry_multiplicity
 _atom_site_fract_x
 _atom_site_fract_y
 _atom_site_fract_z
 _atom_site_fract_occupancy
 Li  Li1  1  0.00000  0.50000  0.00000  1
 Li  Li2  1  0.50000  0.00000  0.00000  1
 Nd  Nd1  1  0.00000  0.50000  0.50000  1
 Nd  Nd2  1  0.50000  0.00000  0.50000  1
 O  O1  1  0.00000  0.00000  0.00000  1
 O  O2  1  0.80596  0.69404  0.25830  1
 O  O3  1  0.19404  0.69404  0.74170  1
 O  O4  1  0.19404  0.30596  0.25830  1
 O  O5  1  0.00000  0.00000  0.50000  1
 O  O6  1  0.30596  0.19404  0.74170  1
 O  O7  1  0.50000  0.50000  0.00000  1
 O  O8  1  0.69404  0.80596  0.74170  1
 O  O9  1  0.30596  0.80596  0.25830  1
 O  O10  1  0.69404  0.19404  0.25830  1
 O  O11  1  0.50000  0.50000  0.50000  1
 O  O12  1  0.80596  0.30596  0.74170  1
 Ti  Ti1  1  0.50000  0.50000  0.76408  1
 Ti  Ti2  1  0.50000  0.50000  0.23592  1
 Ti  Ti3  1  0.00000  0.00000  0.76408  1
 Ti  Ti4  1  0.00000  0.00000  0.23592  1
