CIF file written using JARVIS-Tools package.
data_MgSiO3
_symmetry_space_group_name_H-M  'C2/c'
_cell_length_a       5.0308
_cell_length_b       6.47671
_cell_length_c       6.47671
_cell_angle_alpha    86.3829
_cell_angle_beta     81.2018
_cell_angle_gamma    81.2017

_symmetry_Int_Tables_number  15
_chemical_formula_structural  MgSiO3
_chemical_formula_sum  Mg4Si4O2
_cell_volume  205.92342638902318
_cell_formula_units_Z  4
loop_
  _symmetry_equiv_pos_site_id
 _symmetry_equiv_pos_as_xyz
 1  'x, y, z'
loop_
 _atom_site_type_symbol
 _atom_site_label
 _atom_site_symmetry_multiplicity
 _atom_site_fract_x
 _atom_site_fract_y
 _atom_site_fract_z
 _atom_site_fract_occupancy
 Mg  Mg1  1  0.25000  0.72809  0.27191  1
 Mg  Mg2  1  0.75000  0.27191  0.72809  1
 Mg  Mg3  1  0.25000  0.09523  0.90477  1
 Mg  Mg4  1  0.75000  0.90477  0.09523  1
 O  O1  1  0.91805  0.58660  0.70527  1
 O  O2  1  0.41805  0.70527  0.58660  1
 O  O3  1  0.08195  0.41340  0.29473  1
 O  O4  1  0.13136  0.14435  0.61425  1
 O  O5  1  0.36864  0.38575  0.85565  1
 O  O6  1  0.86864  0.85565  0.38575  1
 O  O7  1  0.63136  0.61425  0.14435  1
 O  O8  1  0.13966  0.78689  0.96980  1
 O  O9  1  0.86034  0.21311  0.03020  1
 O  O10  1  0.36034  0.03020  0.21311  1
 O  O11  1  0.58195  0.29473  0.41340  1
 O  O12  1  0.63966  0.96980  0.78689  1
 Si  Si1  1  0.21312  0.61026  0.79223  1
 Si  Si2  1  0.78688  0.38974  0.20777  1
 Si  Si3  1  0.71312  0.79223  0.61026  1
 Si  Si4  1  0.28688  0.20777  0.38974  1
