CIF file written using JARVIS-Tools package.
data_NaSrNb2
_symmetry_space_group_name_H-M  'Fm-3m'
_cell_length_a       5.14535
_cell_length_b       5.1454
_cell_length_c       5.14535
_cell_angle_alpha    60.0004
_cell_angle_beta     60.0009
_cell_angle_gamma    59.9998

_symmetry_Int_Tables_number  225
_chemical_formula_structural  NaSrNb2
_chemical_formula_sum  NaSrNb2
_cell_volume  96.32494711853919
_cell_formula_units_Z  1
loop_
  _symmetry_equiv_pos_site_id
 _symmetry_equiv_pos_as_xyz
 1  'x, y, z'
loop_
 _atom_site_type_symbol
 _atom_site_label
 _atom_site_symmetry_multiplicity
 _atom_site_fract_x
 _atom_site_fract_y
 _atom_site_fract_z
 _atom_site_fract_occupancy
 Na  Na1  1  0.00000  -0.00000  1.00000  1
 Nb  Nb1  1  0.75000  0.75001  0.74999  1
 Nb  Nb2  1  0.25000  0.24999  0.25001  1
 Sr  Sr1  1  0.50000  0.50000  0.50000  1
