CIF file written using JARVIS-Tools package.
data_Li2CoSi2O6
_symmetry_space_group_name_H-M  'C2/c'
_cell_length_a       5.59408
_cell_length_b       5.59408
_cell_length_c       9.21286
_cell_angle_alpha    90.472
_cell_angle_beta     89.528
_cell_angle_gamma    61.8568

_symmetry_Int_Tables_number  15
_chemical_formula_structural  Li2CoSi2O6
_chemical_formula_sum  Li4Co2Si4O2
_cell_volume  254.18609195117222
_cell_formula_units_Z  2
loop_
  _symmetry_equiv_pos_site_id
 _symmetry_equiv_pos_as_xyz
 1  'x, y, z'
loop_
 _atom_site_type_symbol
 _atom_site_label
 _atom_site_symmetry_multiplicity
 _atom_site_fract_x
 _atom_site_fract_y
 _atom_site_fract_z
 _atom_site_fract_occupancy
 Co  Co1  1  0.24887  0.24887  0.75000  1
 Co  Co2  1  0.75113  0.75113  0.25000  1
 Li  Li1  1  0.60997  0.72537  0.88138  1
 Li  Li2  1  0.27463  0.39003  0.38138  1
 Li  Li3  1  0.72537  0.60997  0.61862  1
 Li  Li4  1  0.39003  0.27463  0.11862  1
 O  O1  1  0.85530  0.37110  0.79323  1
 O  O2  1  0.14470  0.62890  0.20677  1
 O  O3  1  0.24236  0.47975  0.58704  1
 O  O4  1  0.52025  0.75764  0.08704  1
 O  O5  1  0.37110  0.85530  0.70677  1
 O  O6  1  0.00000  -0.00000  0.50000  1
 O  O7  1  0.12194  0.12194  0.25000  1
 O  O8  1  0.75764  0.52025  0.41296  1
 O  O9  1  0.47975  0.24236  0.91296  1
 O  O10  1  0.87806  0.87806  0.75000  1
 O  O11  1  0.00000  0.00000  0.00000  1
 O  O12  1  0.62890  0.14470  0.29323  1
 Si  Si1  1  0.86089  0.20522  0.36575  1
 Si  Si2  1  0.79478  0.13911  0.86575  1
 Si  Si3  1  0.20522  0.86089  0.13425  1
 Si  Si4  1  0.13911  0.79478  0.63425  1
