CIF file written using JARVIS-Tools package.
data_LiBiB2O5
_symmetry_space_group_name_H-M  'P2_1'
_cell_length_a       5.28866
_cell_length_b       4.39415
_cell_length_c       7.45435
_cell_angle_alpha    90
_cell_angle_beta     94.7465
_cell_angle_gamma    90

_symmetry_Int_Tables_number  4
_chemical_formula_structural  LiBiB2O5
_chemical_formula_sum  Li2Bi2B4O0
_cell_volume  172.63831809005023
_cell_formula_units_Z  2
loop_
  _symmetry_equiv_pos_site_id
 _symmetry_equiv_pos_as_xyz
 1  'x, y, z'
loop_
 _atom_site_type_symbol
 _atom_site_label
 _atom_site_symmetry_multiplicity
 _atom_site_fract_x
 _atom_site_fract_y
 _atom_site_fract_z
 _atom_site_fract_occupancy
 B  B1  1  0.38520  0.79297  0.93661  1
 B  B2  1  0.43724  0.34256  0.40756  1
 B  B3  1  0.56276  0.84256  0.59244  1
 B  B4  1  0.61480  0.29297  0.06339  1
 Bi  Bi1  1  0.11462  0.34388  0.70906  1
 Bi  Bi2  1  0.88538  0.84388  0.29094  1
 Li  Li1  1  0.16081  0.31940  0.10993  1
 Li  Li2  1  0.83919  0.81940  0.89007  1
 O  O1  1  0.84410  0.80415  0.63187  1
 O  O2  1  0.15590  0.30415  0.36813  1
 O  O3  1  0.40563  0.72980  0.73544  1
 O  O4  1  0.14752  0.66783  0.97277  1
 O  O5  1  0.59437  0.22980  0.26456  1
 O  O6  1  0.51301  0.17777  0.57554  1
 O  O7  1  0.60077  0.62800  0.03673  1
 O  O8  1  0.39923  0.12800  0.96327  1
 O  O9  1  0.48699  0.67777  0.42446  1
 O  O10  1  0.85248  0.16783  0.02723  1
