CIF file written using JARVIS-Tools package.
data_NiMoO4
_symmetry_space_group_name_H-M  'P2/c'
_cell_length_a       4.54859
_cell_length_b       5.67726
_cell_length_c       4.90914
_cell_angle_alpha    90
_cell_angle_beta     90.5979
_cell_angle_gamma    90

_symmetry_Int_Tables_number  13
_chemical_formula_structural  NiMoO4
_chemical_formula_sum  Ni2Mo2O8
_cell_volume  126.76433023737805
_cell_formula_units_Z  2
loop_
  _symmetry_equiv_pos_site_id
 _symmetry_equiv_pos_as_xyz
 1  'x, y, z'
loop_
 _atom_site_type_symbol
 _atom_site_label
 _atom_site_symmetry_multiplicity
 _atom_site_fract_x
 _atom_site_fract_y
 _atom_site_fract_z
 _atom_site_fract_occupancy
 Mo  Mo1  1  -0.00000  0.18241  0.75000  1
 Mo  Mo2  1  -0.00000  0.81759  0.25000  1
 Ni  Ni1  1  0.50000  0.65580  0.75000  1
 Ni  Ni2  1  0.50000  0.34420  0.25000  1
 O  O1  1  0.26075  0.62028  0.09136  1
 O  O2  1  0.73925  0.62028  0.40864  1
 O  O3  1  0.73925  0.37972  0.90864  1
 O  O4  1  0.26075  0.37972  0.59136  1
 O  O5  1  0.22473  0.11050  0.07011  1
 O  O6  1  0.77527  0.11050  0.42989  1
 O  O7  1  0.77527  0.88950  0.92989  1
 O  O8  1  0.22473  0.88950  0.57011  1
