CIF file written using JARVIS-Tools package.
data_Pr4C2Cl5
_symmetry_space_group_name_H-M  'Immm'
_cell_length_a       3.88644
_cell_length_b       7.86847
_cell_length_c       9.69411
_cell_angle_alpha    113.944
_cell_angle_beta     101.563
_cell_angle_gamma    90.0001

_symmetry_Int_Tables_number  71
_chemical_formula_structural  Pr4C2Cl5
_chemical_formula_sum  Pr4C2Cl5
_cell_volume  264.34151250414783
_cell_formula_units_Z  1
loop_
  _symmetry_equiv_pos_site_id
 _symmetry_equiv_pos_as_xyz
 1  'x, y, z'
loop_
 _atom_site_type_symbol
 _atom_site_label
 _atom_site_symmetry_multiplicity
 _atom_site_fract_x
 _atom_site_fract_y
 _atom_site_fract_z
 _atom_site_fract_occupancy
 C  C1  1  0.45948  0.45948  0.91895  1
 C  C2  1  0.54052  0.54052  0.08105  1
 Cl  Cl1  1  0.16784  0.39080  0.33573  1
 Cl  Cl2  1  0.83215  0.05509  0.66426  1
 Cl  Cl3  1  0.83216  0.60920  0.66427  1
 Cl  Cl4  1  0.16785  0.94491  0.33574  1
 Cl  Cl5  1  0.50000  -0.00000  0.00000  1
 Pr  Pr1  1  0.32596  0.32594  0.65186  1
 Pr  Pr2  1  0.67404  0.67406  0.34814  1
 Pr  Pr3  1  0.00000  0.71470  0.00001  1
 Pr  Pr4  1  -0.00000  0.28530  0.99999  1
