CIF file written using JARVIS-Tools package.
data_Li7MnO3F3
_symmetry_space_group_name_H-M  'P1'
_cell_length_a       5.27952
_cell_length_b       5.60675
_cell_length_c       5.74972
_cell_angle_alpha    64.6635
_cell_angle_beta     68.8519
_cell_angle_gamma    62.6628

_symmetry_Int_Tables_number  1
_chemical_formula_structural  Li7MnO3F3
_chemical_formula_sum  Li7MnO3F3
_cell_volume  133.7565316822093
_cell_formula_units_Z  1
loop_
  _symmetry_equiv_pos_site_id
 _symmetry_equiv_pos_as_xyz
 1  'x, y, z'
loop_
 _atom_site_type_symbol
 _atom_site_label
 _atom_site_symmetry_multiplicity
 _atom_site_fract_x
 _atom_site_fract_y
 _atom_site_fract_z
 _atom_site_fract_occupancy
 F  F1  1  0.44211  0.76260  0.72726  1
 F  F2  1  0.89241  0.57852  0.24921  1
 F  F3  1  0.15455  0.41008  0.72676  1
 Li  Li1  1  0.55280  0.85358  0.36587  1
 Li  Li2  1  0.11509  0.77881  0.65135  1
 Li  Li3  1  0.62059  0.69704  0.00475  1
 Li  Li4  1  0.39708  0.25069  0.99769  1
 Li  Li5  1  0.87698  0.22391  0.39763  1
 Li  Li6  1  0.21739  0.54786  0.33322  1
 Li  Li7  1  0.47997  0.11413  0.62086  1
 Mn  Mn1  1  0.94572  0.07611  0.00241  1
 O  O1  1  0.22966  0.92100  0.23983  1
 O  O2  1  0.76878  0.04062  0.77564  1
 O  O3  1  0.57160  0.25258  0.24629  1
