CIF file written using JARVIS-Tools package.
data_V4GeS8
_symmetry_space_group_name_H-M  'F-43m'
_cell_length_a       6.85781
_cell_length_b       6.85781
_cell_length_c       6.85781
_cell_angle_alpha    60
_cell_angle_beta     60
_cell_angle_gamma    60

_symmetry_Int_Tables_number  216
_chemical_formula_structural  V4GeS8
_chemical_formula_sum  V4GeS8
_cell_volume  228.0558146297686
_cell_formula_units_Z  1
loop_
  _symmetry_equiv_pos_site_id
 _symmetry_equiv_pos_as_xyz
 1  'x, y, z'
loop_
 _atom_site_type_symbol
 _atom_site_label
 _atom_site_symmetry_multiplicity
 _atom_site_fract_x
 _atom_site_fract_y
 _atom_site_fract_z
 _atom_site_fract_occupancy
 Ge  Ge1  1  0.00000  0.00000  0.00000  1
 S  S1  1  0.86347  0.40959  0.86347  1
 S  S2  1  0.40959  0.86347  0.86347  1
 S  S3  1  0.86347  0.86347  0.40959  1
 S  S4  1  0.86347  0.86347  0.86347  1
 S  S5  1  0.37037  0.88890  0.37037  1
 S  S6  1  0.37037  0.37037  0.37037  1
 S  S7  1  0.37037  0.37037  0.88890  1
 S  S8  1  0.88890  0.37037  0.37037  1
 V  V1  1  0.60367  0.18900  0.60367  1
 V  V2  1  0.18900  0.60367  0.60367  1
 V  V3  1  0.60367  0.60367  0.18900  1
 V  V4  1  0.60367  0.60367  0.60367  1
