CIF file written using JARVIS-Tools package.
data_CaC2
_symmetry_space_group_name_H-M  'I4/mmm'
_cell_length_a       3.85724
_cell_length_b       3.85724
_cell_length_c       4.19923
_cell_angle_alpha    117.341
_cell_angle_beta     117.341
_cell_angle_gamma    90.0001

_symmetry_Int_Tables_number  139
_chemical_formula_structural  CaC2
_chemical_formula_sum  CaC2
_cell_volume  47.50443251790773
_cell_formula_units_Z  1
loop_
  _symmetry_equiv_pos_site_id
 _symmetry_equiv_pos_as_xyz
 1  'x, y, z'
loop_
 _atom_site_type_symbol
 _atom_site_label
 _atom_site_symmetry_multiplicity
 _atom_site_fract_x
 _atom_site_fract_y
 _atom_site_fract_z
 _atom_site_fract_occupancy
 C  C1  1  0.59834  0.59834  0.19668  1
 C  C2  1  0.40166  0.40166  0.80332  1
 Ca  Ca1  1  0.00000  0.00000  0.00000  1
