CIF file written using JARVIS-Tools package.
data_Mg2SnO4
_symmetry_space_group_name_H-M  'Pbam'
_cell_length_a       5.18571
_cell_length_b       9.91601
_cell_length_c       3.09997
_cell_angle_alpha    90
_cell_angle_beta     90
_cell_angle_gamma    90

_symmetry_Int_Tables_number  55
_chemical_formula_structural  Mg2SnO4
_chemical_formula_sum  Mg4Sn2O8
_cell_volume  159.40542233931575
_cell_formula_units_Z  2
loop_
  _symmetry_equiv_pos_site_id
 _symmetry_equiv_pos_as_xyz
 1  'x, y, z'
loop_
 _atom_site_type_symbol
 _atom_site_label
 _atom_site_symmetry_multiplicity
 _atom_site_fract_x
 _atom_site_fract_y
 _atom_site_fract_z
 _atom_site_fract_occupancy
 Mg  Mg1  1  0.02051  0.28849  0.50000  1
 Mg  Mg2  1  0.47949  0.78849  0.50000  1
 Mg  Mg3  1  0.52051  0.21151  0.50000  1
 Mg  Mg4  1  0.97949  0.71151  0.50000  1
 O  O1  1  0.22019  0.82375  0.00000  1
 O  O2  1  0.21100  0.08934  0.50000  1
 O  O3  1  0.28900  0.58934  0.50000  1
 O  O4  1  0.27981  0.32375  0.00000  1
 O  O5  1  0.72019  0.67625  0.00000  1
 O  O6  1  0.71100  0.41066  0.50000  1
 O  O7  1  0.78900  0.91066  0.50000  1
 O  O8  1  0.77981  0.17625  0.00000  1
 Sn  Sn1  1  0.00000  0.00000  0.00000  1
 Sn  Sn2  1  0.50000  0.50000  0.00000  1
