CIF file written using JARVIS-Tools package.
data_CaTiSi2O6
_symmetry_space_group_name_H-M  'C2/c'
_cell_length_a       5.12058
_cell_length_b       6.77528
_cell_length_c       6.77529
_cell_angle_alpha    82.0506
_cell_angle_beta     80.6068
_cell_angle_gamma    80.6068

_symmetry_Int_Tables_number  15
_chemical_formula_structural  CaTiSi2O6
_chemical_formula_sum  Ca2Ti2Si4O2
_cell_volume  227.2857635953413
_cell_formula_units_Z  2
loop_
  _symmetry_equiv_pos_site_id
 _symmetry_equiv_pos_as_xyz
 1  'x, y, z'
loop_
 _atom_site_type_symbol
 _atom_site_label
 _atom_site_symmetry_multiplicity
 _atom_site_fract_x
 _atom_site_fract_y
 _atom_site_fract_z
 _atom_site_fract_occupancy
 Ca  Ca1  1  0.75000  0.30137  0.69863  1
 Ca  Ca2  1  0.25000  0.69863  0.30137  1
 O  O1  1  0.52773  0.32605  0.38122  1
 O  O2  1  0.34682  0.03393  0.22885  1
 O  O3  1  0.47228  0.67395  0.61878  1
 O  O4  1  0.02772  0.38122  0.32605  1
 O  O5  1  0.97227  0.61878  0.67395  1
 O  O6  1  0.32775  0.37693  0.88249  1
 O  O7  1  0.82775  0.88249  0.37693  1
 O  O8  1  0.67225  0.62307  0.11751  1
 O  O9  1  0.84682  0.22885  0.03393  1
 O  O10  1  0.65318  0.96607  0.77115  1
 O  O11  1  0.17225  0.11751  0.62307  1
 O  O12  1  0.15318  0.77115  0.96607  1
 Si  Si1  1  0.72736  0.80477  0.60729  1
 Si  Si2  1  0.77264  0.39271  0.19523  1
 Si  Si3  1  0.22736  0.60729  0.80477  1
 Si  Si4  1  0.27264  0.19523  0.39271  1
 Ti  Ti1  1  0.75000  0.92929  0.07071  1
 Ti  Ti2  1  0.25000  0.07072  0.92929  1
