CIF file written using JARVIS-Tools package.
data_ZrI2
_symmetry_space_group_name_H-M  'Pmn2_1'
_cell_length_a       3.77359
_cell_length_b       6.88268
_cell_length_c       14.9893
_cell_angle_alpha    90
_cell_angle_beta     90
_cell_angle_gamma    90

_symmetry_Int_Tables_number  31
_chemical_formula_structural  ZrI2
_chemical_formula_sum  Zr4I8
_cell_volume  389.3088996231609
_cell_formula_units_Z  4
loop_
  _symmetry_equiv_pos_site_id
 _symmetry_equiv_pos_as_xyz
 1  'x, y, z'
loop_
 _atom_site_type_symbol
 _atom_site_label
 _atom_site_symmetry_multiplicity
 _atom_site_fract_x
 _atom_site_fract_y
 _atom_site_fract_z
 _atom_site_fract_occupancy
 I  I1  1  0.00000  0.88310  0.11353  1
 I  I2  1  0.50000  0.77860  0.35661  1
 I  I3  1  0.00000  0.22140  0.85661  1
 I  I4  1  0.50000  0.72492  0.89410  1
 I  I5  1  0.50000  0.11690  0.61353  1
 I  I6  1  0.50000  0.38415  0.15067  1
 I  I7  1  0.00000  0.27508  0.39410  1
 I  I8  1  0.00000  0.61585  0.65067  1
 Zr  Zr1  1  0.00000  0.49148  0.00715  1
 Zr  Zr2  1  0.00000  0.88445  0.50024  1
 Zr  Zr3  1  0.50000  0.11555  0.00024  1
 Zr  Zr4  1  0.50000  0.50852  0.50715  1
