CIF file written using JARVIS-Tools package.
data_H2S
_symmetry_space_group_name_H-M  'Pbcm'
_cell_length_a       4.06234
_cell_length_b       6.51093
_cell_length_c       12.9549
_cell_angle_alpha    90
_cell_angle_beta     90
_cell_angle_gamma    90

_symmetry_Int_Tables_number  57
_chemical_formula_structural  H2S
_chemical_formula_sum  H6S8
_cell_volume  342.6519389317983
_cell_formula_units_Z  8
loop_
  _symmetry_equiv_pos_site_id
 _symmetry_equiv_pos_as_xyz
 1  'x, y, z'
loop_
 _atom_site_type_symbol
 _atom_site_label
 _atom_site_symmetry_multiplicity
 _atom_site_fract_x
 _atom_site_fract_y
 _atom_site_fract_z
 _atom_site_fract_occupancy
 H  H1  1  0.81231  0.25000  0.28074  1
 H  H2  1  0.20163  0.25000  0.93463  1
 H  H3  1  0.18769  0.75000  0.71926  1
 H  H4  1  0.81231  0.75000  0.21926  1
 H  H5  1  0.18769  0.25000  0.78074  1
 H  H6  1  0.20163  0.75000  0.56537  1
 H  H7  1  0.79837  0.75000  0.06537  1
 H  H8  1  0.68408  0.09734  0.62469  1
 H  H9  1  0.79837  0.25000  0.43463  1
 H  H10  1  0.68408  0.90266  0.87531  1
 H  H11  1  0.31592  0.59734  0.37531  1
 H  H12  1  0.68408  0.59734  0.87531  1
 H  H13  1  0.31592  0.09734  0.12469  1
 H  H14  1  0.68408  0.40266  0.62469  1
 H  H15  1  0.31592  0.90266  0.37531  1
 H  H16  1  0.31592  0.40266  0.12469  1
 S  S1  1  0.46328  0.75000  0.89406  1
 S  S2  1  0.53672  0.75000  0.39406  1
 S  S3  1  0.03312  0.25000  0.35985  1
 S  S4  1  0.96688  0.75000  0.64015  1
 S  S5  1  0.03312  0.75000  0.14015  1
 S  S6  1  0.96688  0.25000  0.85985  1
 S  S7  1  0.53672  0.25000  0.10594  1
 S  S8  1  0.46328  0.25000  0.60594  1
