CIF file written using JARVIS-Tools package.
data_CoAs
_symmetry_space_group_name_H-M  'P6_3/mmc'
_cell_length_a       3.56776
_cell_length_b       6.17954
_cell_length_c       5.05387
_cell_angle_alpha    90
_cell_angle_beta     90
_cell_angle_gamma    90

_symmetry_Int_Tables_number  194
_chemical_formula_structural  CoAs
_chemical_formula_sum  Co4As4
_cell_volume  111.42347428452308
_cell_formula_units_Z  4
loop_
  _symmetry_equiv_pos_site_id
 _symmetry_equiv_pos_as_xyz
 1  'x, y, z'
loop_
 _atom_site_type_symbol
 _atom_site_label
 _atom_site_symmetry_multiplicity
 _atom_site_fract_x
 _atom_site_fract_y
 _atom_site_fract_z
 _atom_site_fract_occupancy
 As  As1  1  0.50000  0.83334  0.25000  1
 As  As2  1  0.50000  0.16666  0.75000  1
 As  As3  1  0.00000  0.33334  0.25000  1
 As  As4  1  0.00000  0.66666  0.75000  1
 Co  Co1  1  0.00000  0.00000  0.50000  1
 Co  Co2  1  0.00000  0.00000  0.00000  1
 Co  Co3  1  0.50000  0.50000  0.50000  1
 Co  Co4  1  0.50000  0.50000  0.00000  1
