CIF file written using JARVIS-Tools package.
data_AgNO3
_symmetry_space_group_name_H-M  'R3m'
_cell_length_a       4.01473
_cell_length_b       4.01473
_cell_length_c       4.01472
_cell_angle_alpha    79.3635
_cell_angle_beta     79.3636
_cell_angle_gamma    79.3634

_symmetry_Int_Tables_number  160
_chemical_formula_structural  AgNO3
_chemical_formula_sum  AgNO3
_cell_volume  61.74151984012893
_cell_formula_units_Z  1
loop_
  _symmetry_equiv_pos_site_id
 _symmetry_equiv_pos_as_xyz
 1  'x, y, z'
loop_
 _atom_site_type_symbol
 _atom_site_label
 _atom_site_symmetry_multiplicity
 _atom_site_fract_x
 _atom_site_fract_y
 _atom_site_fract_z
 _atom_site_fract_occupancy
 Ag  Ag1  1  0.00471  0.00471  0.00471  1
 N  N1  1  0.42543  0.42543  0.42543  1
 O  O1  1  0.56586  0.13674  0.56586  1
 O  O2  1  0.56586  0.56586  0.13674  1
 O  O3  1  0.13674  0.56586  0.56586  1
