CIF file written using JARVIS-Tools package.
data_LiMn2O4
_symmetry_space_group_name_H-M  'P2/m'
_cell_length_a       4.88855
_cell_length_b       2.84796
_cell_length_c       5.12442
_cell_angle_alpha    90
_cell_angle_beta     108.729
_cell_angle_gamma    90

_symmetry_Int_Tables_number  10
_chemical_formula_structural  LiMn2O4
_chemical_formula_sum  LiMn2O4
_cell_volume  67.56647474246348
_cell_formula_units_Z  1
loop_
  _symmetry_equiv_pos_site_id
 _symmetry_equiv_pos_as_xyz
 1  'x, y, z'
loop_
 _atom_site_type_symbol
 _atom_site_label
 _atom_site_symmetry_multiplicity
 _atom_site_fract_x
 _atom_site_fract_y
 _atom_site_fract_z
 _atom_site_fract_occupancy
 Li  Li1  1  0.50000  0.00000  0.50000  1
 Mn  Mn1  1  0.00000  0.00000  0.00000  1
 Mn  Mn2  1  0.50000  0.50000  -0.00000  1
 O  O1  1  0.26770  0.00000  0.79067  1
 O  O2  1  0.75638  0.50000  0.78302  1
 O  O3  1  0.73230  0.00000  0.20933  1
 O  O4  1  0.24362  0.50000  0.21698  1
