CIF file written using JARVIS-Tools package.
data_BiTe3
_symmetry_space_group_name_H-M  'R3m'
_cell_length_a       8.73576
_cell_length_b       8.73576
_cell_length_c       8.73576
_cell_angle_alpha    28.528
_cell_angle_beta     28.528
_cell_angle_gamma    28.528

_symmetry_Int_Tables_number  160
_chemical_formula_structural  BiTe3
_chemical_formula_sum  BiTe3
_cell_volume  134.40304804316392
_cell_formula_units_Z  1
loop_
  _symmetry_equiv_pos_site_id
 _symmetry_equiv_pos_as_xyz
 1  'x, y, z'
loop_
 _atom_site_type_symbol
 _atom_site_label
 _atom_site_symmetry_multiplicity
 _atom_site_fract_x
 _atom_site_fract_y
 _atom_site_fract_z
 _atom_site_fract_occupancy
 Bi  Bi1  1  0.39272  0.39272  0.39272  1
 Te  Te1  1  0.22337  0.22337  0.22337  1
 Te  Te2  1  0.97791  0.97791  0.97791  1
 Te  Te3  1  0.80451  0.80451  0.80451  1
