CIF file written using JARVIS-Tools package.
data_Li2CuSnO4
_symmetry_space_group_name_H-M  'P2/m'
_cell_length_a       5.44588
_cell_length_b       3.00008
_cell_length_c       5.64213
_cell_angle_alpha    90
_cell_angle_beta     116.256
_cell_angle_gamma    90

_symmetry_Int_Tables_number  10
_chemical_formula_structural  Li2CuSnO4
_chemical_formula_sum  Li2CuSnO4
_cell_volume  82.67089051662455
_cell_formula_units_Z  1
loop_
  _symmetry_equiv_pos_site_id
 _symmetry_equiv_pos_as_xyz
 1  'x, y, z'
loop_
 _atom_site_type_symbol
 _atom_site_label
 _atom_site_symmetry_multiplicity
 _atom_site_fract_x
 _atom_site_fract_y
 _atom_site_fract_z
 _atom_site_fract_occupancy
 Cu  Cu1  1  0.50000  0.00000  0.50000  1
 Li  Li1  1  0.00000  0.00000  0.00000  1
 Li  Li2  1  -0.00000  0.50000  0.50000  1
 O  O1  1  0.77320  0.00000  0.22401  1
 O  O2  1  0.69684  0.50000  0.75179  1
 O  O3  1  0.22680  0.00000  0.77599  1
 O  O4  1  0.30316  0.50000  0.24821  1
 Sn  Sn1  1  0.50000  0.50000  0.00000  1
