CIF file written using JARVIS-Tools package.
data_Li2MoF6
_symmetry_space_group_name_H-M  'P4_2/mnm'
_cell_length_a       4.68363
_cell_length_b       4.68363
_cell_length_c       9.20272
_cell_angle_alpha    90
_cell_angle_beta     90
_cell_angle_gamma    90

_symmetry_Int_Tables_number  136
_chemical_formula_structural  Li2MoF6
_chemical_formula_sum  Li4Mo2F2
_cell_volume  201.87414955632826
_cell_formula_units_Z  2
loop_
  _symmetry_equiv_pos_site_id
 _symmetry_equiv_pos_as_xyz
 1  'x, y, z'
loop_
 _atom_site_type_symbol
 _atom_site_label
 _atom_site_symmetry_multiplicity
 _atom_site_fract_x
 _atom_site_fract_y
 _atom_site_fract_z
 _atom_site_fract_occupancy
 F  F1  1  0.69745  0.69745  0.33773  1
 F  F2  1  0.70365  0.70365  0.00000  1
 F  F3  1  0.79635  0.20365  0.50000  1
 F  F4  1  0.29635  0.29635  0.00000  1
 F  F5  1  0.19745  0.80255  0.83773  1
 F  F6  1  0.30255  0.30255  0.33773  1
 F  F7  1  0.80255  0.19745  0.16227  1
 F  F8  1  0.19745  0.80255  0.16227  1
 F  F9  1  0.20365  0.79635  0.50000  1
 F  F10  1  0.30255  0.30255  0.66227  1
 F  F11  1  0.69745  0.69745  0.66227  1
 F  F12  1  0.80255  0.19745  0.83773  1
 Li  Li1  1  0.50000  0.50000  0.83589  1
 Li  Li2  1  0.50000  0.50000  0.16411  1
 Li  Li3  1  0.00000  0.00000  0.66411  1
 Li  Li4  1  0.00000  0.00000  0.33589  1
 Mo  Mo1  1  0.00000  0.00000  0.00000  1
 Mo  Mo2  1  0.50000  0.50000  0.50000  1
