CIF file written using JARVIS-Tools package.
data_Li2NiC2O6
_symmetry_space_group_name_H-M  'Fdd2'
_cell_length_a       8.41087
_cell_length_b       5.84482
_cell_length_c       5.56517
_cell_angle_alpha    61.5706
_cell_angle_beta     70.6807
_cell_angle_gamma    80.9381

_symmetry_Int_Tables_number  43
_chemical_formula_structural  Li2NiC2O6
_chemical_formula_sum  Li4Ni2C4O2
_cell_volume  227.04290033675312
_cell_formula_units_Z  2
loop_
  _symmetry_equiv_pos_site_id
 _symmetry_equiv_pos_as_xyz
 1  'x, y, z'
loop_
 _atom_site_type_symbol
 _atom_site_label
 _atom_site_symmetry_multiplicity
 _atom_site_fract_x
 _atom_site_fract_y
 _atom_site_fract_z
 _atom_site_fract_occupancy
 C  C1  1  0.70103  0.94391  0.96729  1
 C  C2  1  0.20103  0.55609  0.16120  1
 C  C3  1  0.79897  0.44391  0.91832  1
 C  C4  1  0.29897  0.05609  0.61223  1
 Li  Li1  1  0.65634  0.91110  0.53765  1
 Li  Li2  1  0.15634  0.58890  0.69875  1
 Li  Li3  1  0.84366  0.41110  0.44399  1
 Li  Li4  1  0.34366  0.08890  0.10509  1
 Ni  Ni1  1  0.50000  0.50000  0.26822  1
 Ni  Ni2  1  -0.00000  -0.00000  0.01822  1
 O  O1  1  0.23226  0.07191  0.85207  1
 O  O2  1  0.76774  0.92809  0.15624  1
 O  O3  1  0.54416  0.86240  0.06202  1
 O  O4  1  0.04416  0.63760  0.17442  1
 O  O5  1  0.77981  0.03545  0.70393  1
 O  O6  1  0.45584  0.13760  0.46858  1
 O  O7  1  0.72019  0.53545  0.73374  1
 O  O8  1  0.73226  0.42809  0.17398  1
 O  O9  1  0.95584  0.36240  0.85618  1
 O  O10  1  0.26774  0.57191  0.33433  1
 O  O11  1  0.27981  0.46455  0.98938  1
 O  O12  1  0.22019  -0.03545  0.51920  1
