CIF file written using JARVIS-Tools package.
data_BiSeBr
_symmetry_space_group_name_H-M  'Pnma'
_cell_length_a       4.14969
_cell_length_b       8.29588
_cell_length_c       10.5891
_cell_angle_alpha    90
_cell_angle_beta     90
_cell_angle_gamma    90

_symmetry_Int_Tables_number  62
_chemical_formula_structural  BiSeBr
_chemical_formula_sum  Bi4Se4Br4
_cell_volume  364.53192080087194
_cell_formula_units_Z  4
loop_
  _symmetry_equiv_pos_site_id
 _symmetry_equiv_pos_as_xyz
 1  'x, y, z'
loop_
 _atom_site_type_symbol
 _atom_site_label
 _atom_site_symmetry_multiplicity
 _atom_site_fract_x
 _atom_site_fract_y
 _atom_site_fract_z
 _atom_site_fract_occupancy
 Bi  Bi1  1  0.25000  0.86664  0.13338  1
 Bi  Bi2  1  0.25000  0.36664  0.36662  1
 Bi  Bi3  1  0.75000  0.63336  0.63338  1
 Bi  Bi4  1  0.75000  0.13336  0.86662  1
 Br  Br1  1  0.75000  0.02028  0.31328  1
 Br  Br2  1  0.75000  0.52028  0.18672  1
 Br  Br3  1  0.25000  0.97972  0.68672  1
 Br  Br4  1  0.25000  0.47972  0.81328  1
 Se  Se1  1  0.75000  0.31656  0.54925  1
 Se  Se2  1  0.25000  0.18344  0.04925  1
 Se  Se3  1  0.25000  0.68344  0.45075  1
 Se  Se4  1  0.75000  0.81656  0.95075  1
