CIF file written using JARVIS-Tools package.
data_MgTiSi2O6
_symmetry_space_group_name_H-M  'C2/c'
_cell_length_a       4.89648
_cell_length_b       6.5923
_cell_length_c       6.5923
_cell_angle_alpha    84.3089
_cell_angle_beta     82.6551
_cell_angle_gamma    82.6551

_symmetry_Int_Tables_number  15
_chemical_formula_structural  MgTiSi2O6
_chemical_formula_sum  Mg2Ti2Si4O2
_cell_volume  208.57227966657965
_cell_formula_units_Z  2
loop_
  _symmetry_equiv_pos_site_id
 _symmetry_equiv_pos_as_xyz
 1  'x, y, z'
loop_
 _atom_site_type_symbol
 _atom_site_label
 _atom_site_symmetry_multiplicity
 _atom_site_fract_x
 _atom_site_fract_y
 _atom_site_fract_z
 _atom_site_fract_occupancy
 Mg  Mg1  1  0.75000  0.27561  0.72439  1
 Mg  Mg2  1  0.25000  0.72439  0.27561  1
 O  O1  1  0.59272  0.29934  0.41717  1
 O  O2  1  0.35193  0.03341  0.23934  1
 O  O3  1  0.40728  0.70066  0.58283  1
 O  O4  1  0.09272  0.41717  0.29934  1
 O  O5  1  -0.09272  0.58283  0.70066  1
 O  O6  1  0.36865  0.37633  0.85315  1
 O  O7  1  0.86865  0.85315  0.37633  1
 O  O8  1  0.63135  0.62367  0.14685  1
 O  O9  1  0.85193  0.23934  0.03341  1
 O  O10  1  0.64807  0.96659  0.76066  1
 O  O11  1  0.13135  0.14685  0.62367  1
 O  O12  1  0.14807  0.76066  0.96659  1
 Si  Si1  1  0.71211  0.79002  0.59796  1
 Si  Si2  1  0.78789  0.40204  0.20998  1
 Si  Si3  1  0.21210  0.59796  0.79002  1
 Si  Si4  1  0.28789  0.20998  0.40204  1
 Ti  Ti1  1  0.75000  0.93007  0.06993  1
 Ti  Ti2  1  0.25000  0.06993  0.93007  1
