CIF file written using JARVIS-Tools package.
data_Sr2SnO4
_symmetry_space_group_name_H-M  'P4_2/ncm'
_cell_length_a       5.83402
_cell_length_b       5.83402
_cell_length_c       12.53
_cell_angle_alpha    90
_cell_angle_beta     90
_cell_angle_gamma    90

_symmetry_Int_Tables_number  138
_chemical_formula_structural  Sr2SnO4
_chemical_formula_sum  Sr8Sn4O6
_cell_volume  426.46893893976136
_cell_formula_units_Z  4
loop_
  _symmetry_equiv_pos_site_id
 _symmetry_equiv_pos_as_xyz
 1  'x, y, z'
loop_
 _atom_site_type_symbol
 _atom_site_label
 _atom_site_symmetry_multiplicity
 _atom_site_fract_x
 _atom_site_fract_y
 _atom_site_fract_z
 _atom_site_fract_occupancy
 O  O1  1  0.50000  0.50000  0.75000  1
 O  O2  1  0.00000  0.50000  0.77869  1
 O  O3  1  0.00000  0.00000  0.75000  1
 O  O4  1  0.50000  0.00000  0.22131  1
 O  O5  1  0.50000  0.00000  0.72131  1
 O  O6  1  0.70911  0.20911  0.91369  1
 O  O7  1  0.29089  0.20911  0.41369  1
 O  O8  1  0.00000  0.50000  0.27869  1
 O  O9  1  0.20911  0.29089  0.08631  1
 O  O10  1  0.79089  0.70911  0.08631  1
 O  O11  1  0.29089  0.79089  0.91369  1
 O  O12  1  0.20911  0.70911  0.58631  1
 O  O13  1  0.79089  0.29089  0.58631  1
 O  O14  1  0.50000  0.50000  0.25000  1
 O  O15  1  0.00000  0.00000  0.25000  1
 O  O16  1  0.70911  0.79089  0.41369  1
 Sn  Sn1  1  0.75000  0.25000  0.75000  1
 Sn  Sn2  1  0.25000  0.25000  0.25000  1
 Sn  Sn3  1  0.75000  0.75000  0.25000  1
 Sn  Sn4  1  0.25000  0.75000  0.75000  1
 Sr  Sr1  1  0.73726  0.23726  0.39675  1
 Sr  Sr2  1  0.26274  0.76274  0.39675  1
 Sr  Sr3  1  0.23726  0.73726  0.10325  1
 Sr  Sr4  1  0.73726  0.76274  0.89675  1
 Sr  Sr5  1  0.26274  0.23726  0.89675  1
 Sr  Sr6  1  0.76274  0.73726  0.60325  1
 Sr  Sr7  1  0.23726  0.26274  0.60325  1
 Sr  Sr8  1  0.76274  0.26274  0.10325  1
