CIF file written using JARVIS-Tools package.
data_ZnWO4
_symmetry_space_group_name_H-M  'C2/c'
_cell_length_a       4.81566
_cell_length_b       4.86578
_cell_length_c       7.1657
_cell_angle_alpha    107.954
_cell_angle_beta     107.727
_cell_angle_gamma    95.3361

_symmetry_Int_Tables_number  15
_chemical_formula_structural  ZnWO4
_chemical_formula_sum  Zn2W2O8
_cell_volume  148.8749070710593
_cell_formula_units_Z  2
loop_
  _symmetry_equiv_pos_site_id
 _symmetry_equiv_pos_as_xyz
 1  'x, y, z'
loop_
 _atom_site_type_symbol
 _atom_site_label
 _atom_site_symmetry_multiplicity
 _atom_site_fract_x
 _atom_site_fract_y
 _atom_site_fract_z
 _atom_site_fract_occupancy
 O  O1  1  0.87109  0.59378  0.65136  1
 O  O2  1  0.50740  0.26679  0.08917  1
 O  O3  1  0.71975  0.94240  0.34863  1
 O  O4  1  0.91822  0.17763  0.91083  1
 O  O5  1  0.12891  0.40622  0.34864  1
 O  O6  1  0.28025  0.05760  0.65137  1
 O  O7  1  0.49260  0.73321  0.91083  1
 O  O8  1  0.08178  0.82237  0.08917  1
 W  W1  1  0.83890  0.08889  0.17778  1
 W  W2  1  0.16110  0.91111  0.82222  1
 Zn  Zn1  1  0.36983  0.61982  0.23964  1
 Zn  Zn2  1  0.63017  0.38018  0.76036  1
