CIF file written using JARVIS-Tools package.
data_CoPH6O6F
_symmetry_space_group_name_H-M  'P-1'
_cell_length_a       4.72734
_cell_length_b       5.61576
_cell_length_c       10.2404
_cell_angle_alpha    96.4732
_cell_angle_beta     98.8808
_cell_angle_gamma    90.9786

_symmetry_Int_Tables_number  2
_chemical_formula_structural  CoPH6O6F
_chemical_formula_sum  Co2P2H2O2F2
_cell_volume  266.7231113180317
_cell_formula_units_Z  2
loop_
  _symmetry_equiv_pos_site_id
 _symmetry_equiv_pos_as_xyz
 1  'x, y, z'
loop_
 _atom_site_type_symbol
 _atom_site_label
 _atom_site_symmetry_multiplicity
 _atom_site_fract_x
 _atom_site_fract_y
 _atom_site_fract_z
 _atom_site_fract_occupancy
 Co  Co1  1  0.00000  0.00000  0.00000  1
 Co  Co2  1  0.50000  0.00000  0.50000  1
 F  F1  1  0.87121  0.58739  0.68413  1
 F  F2  1  0.12879  0.41261  0.31587  1
 H  H1  1  0.12767  0.25332  0.61291  1
 H  H2  1  0.74462  0.18594  0.78838  1
 H  H3  1  0.49115  0.23277  0.10435  1
 H  H4  1  0.74048  0.56037  0.92367  1
 H  H5  1  0.25952  0.43963  0.07633  1
 H  H6  1  0.25538  0.81406  0.21162  1
 H  H7  1  0.50885  0.76723  0.89565  1
 H  H8  1  0.46900  0.77940  0.10317  1
 H  H9  1  0.53100  0.22060  0.89683  1
 H  H10  1  0.64861  0.54093  0.40459  1
 H  H11  1  0.35139  0.45907  0.59541  1
 H  H12  1  0.87233  0.74668  0.38709  1
 O  O1  1  0.14534  0.97816  0.34774  1
 O  O2  1  0.20193  0.87689  0.83870  1
 O  O3  1  0.79807  0.12311  0.16130  1
 O  O4  1  0.27567  0.76411  0.59776  1
 O  O5  1  0.85466  0.02184  0.65226  1
 O  O6  1  0.72433  0.23589  0.40224  1
 O  O7  1  0.30808  0.27178  0.04717  1
 O  O8  1  0.26771  0.75784  0.11626  1
 O  O9  1  0.73229  0.24216  0.88374  1
 O  O10  1  0.66874  0.71416  0.39285  1
 O  O11  1  0.69192  0.72822  0.95283  1
 O  O12  1  0.33126  0.28584  0.60715  1
 P  P1  1  0.93661  0.17239  0.30759  1
 P  P2  1  0.06339  0.82761  0.69241  1
