CIF file written using JARVIS-Tools package.
data_LiDy2Br5
_symmetry_space_group_name_H-M  'C2/c'
_cell_length_a       6.68355
_cell_length_b       7.71928
_cell_length_c       8.65004
_cell_angle_alpha    92.8136
_cell_angle_beta     112.726
_cell_angle_gamma    90

_symmetry_Int_Tables_number  15
_chemical_formula_structural  LiDy2Br5
_chemical_formula_sum  Li2Dy4Br0
_cell_volume  411.042695898762
_cell_formula_units_Z  2
loop_
  _symmetry_equiv_pos_site_id
 _symmetry_equiv_pos_as_xyz
 1  'x, y, z'
loop_
 _atom_site_type_symbol
 _atom_site_label
 _atom_site_symmetry_multiplicity
 _atom_site_fract_x
 _atom_site_fract_y
 _atom_site_fract_z
 _atom_site_fract_occupancy
 Br  Br1  1  0.72866  0.17012  0.58469  1
 Br  Br2  1  0.14397  0.32988  0.41531  1
 Br  Br3  1  0.12568  0.75000  0.00000  1
 Br  Br4  1  0.87432  0.25000  -0.00000  1
 Br  Br5  1  0.68920  0.90523  0.18192  1
 Br  Br6  1  0.50728  0.59477  0.81808  1
 Br  Br7  1  0.31080  0.09477  0.81808  1
 Br  Br8  1  0.49272  0.40523  0.18192  1
 Br  Br9  1  0.85603  0.67012  0.58469  1
 Br  Br10  1  0.27134  0.82988  0.41531  1
 Dy  Dy1  1  0.26355  0.07130  0.15248  1
 Dy  Dy2  1  0.11106  0.42870  0.84752  1
 Dy  Dy3  1  0.73645  0.92870  0.84752  1
 Dy  Dy4  1  0.88894  0.57130  0.15248  1
 Li  Li1  1  0.50000  0.50000  0.50000  1
 Li  Li2  1  0.00000  -0.00000  0.50000  1
