CIF file written using JARVIS-Tools package.
data_V2Pb3O8
_symmetry_space_group_name_H-M  'R-3m'
_cell_length_a       7.51305
_cell_length_b       7.51305
_cell_length_c       7.51305
_cell_angle_alpha    44.9234
_cell_angle_beta     44.9234
_cell_angle_gamma    44.9233

_symmetry_Int_Tables_number  166
_chemical_formula_structural  V2Pb3O8
_chemical_formula_sum  V2Pb3O8
_cell_volume  192.44784631090974
_cell_formula_units_Z  1
loop_
  _symmetry_equiv_pos_site_id
 _symmetry_equiv_pos_as_xyz
 1  'x, y, z'
loop_
 _atom_site_type_symbol
 _atom_site_label
 _atom_site_symmetry_multiplicity
 _atom_site_fract_x
 _atom_site_fract_y
 _atom_site_fract_z
 _atom_site_fract_occupancy
 O  O1  1  0.67952  0.67952  0.67952  1
 O  O2  1  0.32048  0.32048  0.32048  1
 O  O3  1  0.73178  0.73178  0.23595  1
 O  O4  1  0.73178  0.23595  0.73178  1
 O  O5  1  0.23595  0.73178  0.73178  1
 O  O6  1  0.26822  0.76405  0.26822  1
 O  O7  1  0.26822  0.26822  0.76405  1
 O  O8  1  0.76405  0.26822  0.26822  1
 Pb  Pb1  1  0.79941  0.79941  0.79941  1
 Pb  Pb2  1  0.20059  0.20059  0.20059  1
 Pb  Pb3  1  0.00000  0.00000  0.00000  1
 V  V1  1  0.59508  0.59508  0.59508  1
 V  V2  1  0.40492  0.40492  0.40492  1
