CIF file written using JARVIS-Tools package.
data_Pr2CdSe4
_symmetry_space_group_name_H-M  'I-42d'
_cell_length_a       7.78687
_cell_length_b       7.78688
_cell_length_c       7.78688
_cell_angle_alpha    110.931
_cell_angle_beta     110.931
_cell_angle_gamma    106.59

_symmetry_Int_Tables_number  122
_chemical_formula_structural  Pr2CdSe4
_chemical_formula_sum  Pr4Cd2Se8
_cell_volume  362.7844411589591
_cell_formula_units_Z  2
loop_
  _symmetry_equiv_pos_site_id
 _symmetry_equiv_pos_as_xyz
 1  'x, y, z'
loop_
 _atom_site_type_symbol
 _atom_site_label
 _atom_site_symmetry_multiplicity
 _atom_site_fract_x
 _atom_site_fract_y
 _atom_site_fract_z
 _atom_site_fract_occupancy
 Cd  Cd1  1  0.62500  0.37500  0.25000  1
 Cd  Cd2  1  0.87500  0.12500  0.75000  1
 Pr  Pr1  1  0.11820  0.75000  0.86820  1
 Pr  Pr2  1  0.25000  0.61820  0.36820  1
 Pr  Pr3  1  0.38180  0.25000  0.63180  1
 Pr  Pr4  1  0.75000  0.88180  0.13180  1
 Se  Se1  1  0.00472  0.87871  0.51359  1
 Se  Se2  1  0.49528  0.00887  0.87399  1
 Se  Se3  1  0.12129  0.13488  0.12601  1
 Se  Se4  1  0.37871  0.50472  0.01359  1
 Se  Se5  1  0.63488  0.62129  0.62601  1
 Se  Se6  1  0.50887  0.99528  0.37399  1
 Se  Se7  1  0.86512  0.49113  0.98641  1
 Se  Se8  1  0.99113  0.36512  0.48641  1
