CIF file written using JARVIS-Tools package.
data_Li5Tl2
_symmetry_space_group_name_H-M  'R-3m'
_cell_length_a       7.30974
_cell_length_b       7.30974
_cell_length_c       7.30973
_cell_angle_alpha    37.2633
_cell_angle_beta     37.2634
_cell_angle_gamma    37.2633

_symmetry_Int_Tables_number  166
_chemical_formula_structural  Li5Tl2
_chemical_formula_sum  Li5Tl2
_cell_volume  128.35909917920478
_cell_formula_units_Z  1
loop_
  _symmetry_equiv_pos_site_id
 _symmetry_equiv_pos_as_xyz
 1  'x, y, z'
loop_
 _atom_site_type_symbol
 _atom_site_label
 _atom_site_symmetry_multiplicity
 _atom_site_fract_x
 _atom_site_fract_y
 _atom_site_fract_z
 _atom_site_fract_occupancy
 Li  Li1  1  0.50000  0.50000  0.50000  1
 Li  Li2  1  0.64520  0.64520  0.64520  1
 Li  Li3  1  0.21343  0.21343  0.21343  1
 Li  Li4  1  0.78657  0.78657  0.78657  1
 Li  Li5  1  0.35480  0.35480  0.35480  1
 Tl  Tl1  1  0.92415  0.92415  0.92415  1
 Tl  Tl2  1  0.07585  0.07585  0.07585  1
