data_image0
_chemical_formula_structural       Ce2Fe2O3S2
_chemical_formula_sum              "Ce2 Fe2 O3 S2"
_cell_length_a       9.32466
_cell_length_b       4.0625
_cell_length_c       4.0625
_cell_angle_alpha    90
_cell_angle_beta     102.582
_cell_angle_gamma    102.582

_space_group_name_H-M_alt    "P 1"
_space_group_IT_number       1

loop_
  _space_group_symop_operation_xyz
  'x, y, z'

loop_
  _atom_site_type_symbol
  _atom_site_label
  _atom_site_symmetry_multiplicity
  _atom_site_fract_x
  _atom_site_fract_y
  _atom_site_fract_z
  _atom_site_occupancy
  Ce  Ce1       1.0  0.63800  0.31900  0.31900  1.0000
  Ce  Ce2       1.0  0.36200  0.68100  0.68100  1.0000
  Fe  Fe1       1.0  0.00000  0.50000  0.00000  1.0000
  Fe  Fe2       1.0  0.00000  0.00000  0.50000  1.0000
  O   O1        1.0  0.50000  0.75000  0.25000  1.0000
  O   O2        1.0  0.00000  0.50000  0.50000  1.0000
  O   O3        1.0  0.50000  0.25000  0.75000  1.0000
  S   S1        1.0  0.18900  0.09450  0.09450  1.0000
  S   S2        1.0  0.81100  0.90600  0.90600  1.0000
