CIF file written using JARVIS-Tools package.
data_NaCuTe
_symmetry_space_group_name_H-M  'P4/nmm'
_cell_length_a       4.39571
_cell_length_b       4.39571
_cell_length_c       7.10162
_cell_angle_alpha    90
_cell_angle_beta     90
_cell_angle_gamma    90

_symmetry_Int_Tables_number  129
_chemical_formula_structural  NaCuTe
_chemical_formula_sum  Na2Cu2Te2
_cell_volume  137.21932369550413
_cell_formula_units_Z  2
loop_
  _symmetry_equiv_pos_site_id
 _symmetry_equiv_pos_as_xyz
 1  'x, y, z'
loop_
 _atom_site_type_symbol
 _atom_site_label
 _atom_site_symmetry_multiplicity
 _atom_site_fract_x
 _atom_site_fract_y
 _atom_site_fract_z
 _atom_site_fract_occupancy
 Cu  Cu1  1  0.50000  0.50000  0.50000  1
 Cu  Cu2  1  0.00000  0.00000  0.50000  1
 Na  Na1  1  0.00000  0.50000  0.17473  1
 Na  Na2  1  0.50000  0.00000  0.82527  1
 Te  Te1  1  0.00000  0.50000  0.72671  1
 Te  Te2  1  0.50000  0.00000  0.27329  1
