CIF file written using JARVIS-Tools package.
data_Ba5Nb4O15
_symmetry_space_group_name_H-M  'P-3m1'
_cell_length_a       5.87276
_cell_length_b       5.87276
_cell_length_c       11.9233
_cell_angle_alpha    90
_cell_angle_beta     90
_cell_angle_gamma    120

_symmetry_Int_Tables_number  164
_chemical_formula_structural  Ba5Nb4O15
_chemical_formula_sum  Ba5Nb4O5
_cell_volume  356.1327732091786
_cell_formula_units_Z  1
loop_
  _symmetry_equiv_pos_site_id
 _symmetry_equiv_pos_as_xyz
 1  'x, y, z'
loop_
 _atom_site_type_symbol
 _atom_site_label
 _atom_site_symmetry_multiplicity
 _atom_site_fract_x
 _atom_site_fract_y
 _atom_site_fract_z
 _atom_site_fract_occupancy
 Ba  Ba1  1  0.66667  0.33333  0.42825  1
 Ba  Ba2  1  0.33333  0.66667  0.57175  1
 Ba  Ba3  1  0.66667  0.33333  0.79082  1
 Ba  Ba4  1  0.33333  0.66667  0.20918  1
 Ba  Ba5  1  0.00000  0.00000  0.00000  1
 Nb  Nb1  1  0.66667  0.33333  0.10529  1
 Nb  Nb2  1  0.33333  0.66667  0.89471  1
 Nb  Nb3  1  0.00000  0.00000  0.68220  1
 Nb  Nb4  1  0.00000  0.00000  0.31780  1
 O  O1  1  0.83524  0.67047  0.61129  1
 O  O2  1  0.83524  0.16476  0.61129  1
 O  O3  1  0.16867  0.83133  0.80720  1
 O  O4  1  0.67047  0.83524  0.38871  1
 O  O5  1  0.16476  0.83524  0.38871  1
 O  O6  1  0.16476  0.32953  0.38871  1
 O  O7  1  0.00000  0.50000  0.00000  1
 O  O8  1  0.83133  0.16867  0.19280  1
 O  O9  1  0.33734  0.16867  0.19280  1
 O  O10  1  0.50000  0.50000  0.00000  1
 O  O11  1  0.83133  0.66266  0.19280  1
 O  O12  1  0.50000  0.00000  0.00000  1
 O  O13  1  0.16867  0.33734  0.80720  1
 O  O14  1  0.32953  0.16476  0.61129  1
 O  O15  1  0.66266  0.83133  0.80720  1
