CIF file written using JARVIS-Tools package.
data_Sn2OF2
_symmetry_space_group_name_H-M  'P4_2/nmc'
_cell_length_a       7.93198
_cell_length_b       7.93198
_cell_length_c       5.60433
_cell_angle_alpha    90
_cell_angle_beta     90
_cell_angle_gamma    90

_symmetry_Int_Tables_number  137
_chemical_formula_structural  Sn2OF2
_chemical_formula_sum  Sn8O4F8
_cell_volume  352.603763017518
_cell_formula_units_Z  4
loop_
  _symmetry_equiv_pos_site_id
 _symmetry_equiv_pos_as_xyz
 1  'x, y, z'
loop_
 _atom_site_type_symbol
 _atom_site_label
 _atom_site_symmetry_multiplicity
 _atom_site_fract_x
 _atom_site_fract_y
 _atom_site_fract_z
 _atom_site_fract_occupancy
 F  F1  1  0.30005  0.30005  0.50000  1
 F  F2  1  0.69995  0.30005  0.50000  1
 F  F3  1  0.69995  0.69995  0.50000  1
 F  F4  1  0.80005  0.80005  0.00000  1
 F  F5  1  0.80005  0.19995  0.00000  1
 F  F6  1  0.19995  0.80005  0.00000  1
 F  F7  1  0.19995  0.19995  0.00000  1
 F  F8  1  0.30005  0.69995  0.50000  1
 O  O1  1  0.00000  0.50000  0.39268  1
 O  O2  1  0.00000  0.50000  0.89268  1
 O  O3  1  0.50000  0.00000  0.60732  1
 O  O4  1  0.50000  0.00000  0.10732  1
 Sn  Sn1  1  0.27220  0.00000  0.31413  1
 Sn  Sn2  1  0.50000  0.77220  0.81413  1
 Sn  Sn3  1  0.50000  0.22780  0.81413  1
 Sn  Sn4  1  0.72780  0.00000  0.31413  1
 Sn  Sn5  1  0.77220  0.50000  0.18587  1
 Sn  Sn6  1  0.00000  0.27220  0.68587  1
 Sn  Sn7  1  0.00000  0.72780  0.68587  1
 Sn  Sn8  1  0.22780  0.50000  0.18587  1
