CIF file written using JARVIS-Tools package.
data_Li5B4
_symmetry_space_group_name_H-M  'R3m'
_cell_length_a       4.77726
_cell_length_b       4.77726
_cell_length_c       4.77726
_cell_angle_alpha    84.3747
_cell_angle_beta     84.3747
_cell_angle_gamma    84.3747

_symmetry_Int_Tables_number  160
_chemical_formula_structural  Li5B4
_chemical_formula_sum  Li5B4
_cell_volume  107.54893085739825
_cell_formula_units_Z  1
loop_
  _symmetry_equiv_pos_site_id
 _symmetry_equiv_pos_as_xyz
 1  'x, y, z'
loop_
 _atom_site_type_symbol
 _atom_site_label
 _atom_site_symmetry_multiplicity
 _atom_site_fract_x
 _atom_site_fract_y
 _atom_site_fract_z
 _atom_site_fract_occupancy
 B  B1  1  0.77958  0.19111  0.77958  1
 B  B2  1  0.77958  0.77958  0.19111  1
 B  B3  1  0.19111  0.77958  0.77958  1
 B  B4  1  0.97463  0.97463  0.97463  1
 Li  Li1  1  0.28957  0.72141  0.28957  1
 Li  Li2  1  0.28957  0.28957  0.72141  1
 Li  Li3  1  0.72141  0.28957  0.28957  1
 Li  Li4  1  0.21072  0.21072  0.21072  1
 Li  Li5  1  0.68883  0.68883  0.68883  1
