CIF file written using JARVIS-Tools package.
data_CaCuSi2O6
_symmetry_space_group_name_H-M  'C2/c'
_cell_length_a       5.25104
_cell_length_b       6.72377
_cell_length_c       6.72377
_cell_angle_alpha    84.8668
_cell_angle_beta     77.8708
_cell_angle_gamma    77.8708

_symmetry_Int_Tables_number  15
_chemical_formula_structural  CaCuSi2O6
_chemical_formula_sum  Ca2Cu2Si4O2
_cell_volume  226.65857903562025
_cell_formula_units_Z  2
loop_
  _symmetry_equiv_pos_site_id
 _symmetry_equiv_pos_as_xyz
 1  'x, y, z'
loop_
 _atom_site_type_symbol
 _atom_site_label
 _atom_site_symmetry_multiplicity
 _atom_site_fract_x
 _atom_site_fract_y
 _atom_site_fract_z
 _atom_site_fract_occupancy
 Ca  Ca1  1  0.75000  0.29735  0.70265  1
 Ca  Ca2  1  0.25000  0.70265  0.29735  1
 Cu  Cu1  1  0.25000  0.09638  0.90362  1
 Cu  Cu2  1  0.75000  0.90363  0.09638  1
 O  O1  1  0.51817  0.32712  0.37146  1
 O  O2  1  0.36814  0.02369  0.20444  1
 O  O3  1  0.48184  0.67288  0.62854  1
 O  O4  1  0.01816  0.37147  0.32712  1
 O  O5  1  0.98183  0.62853  0.67288  1
 O  O6  1  0.32264  0.39381  0.89121  1
 O  O7  1  0.82264  0.89121  0.39381  1
 O  O8  1  0.86814  0.20444  0.02369  1
 O  O9  1  0.17736  0.10879  0.60619  1
 O  O10  1  0.63186  0.97631  0.79556  1
 O  O11  1  0.67736  0.60619  0.10879  1
 O  O12  1  0.13186  0.79556  0.97631  1
 Si  Si1  1  0.71923  0.80769  0.62162  1
 Si  Si2  1  0.78077  0.37838  0.19231  1
 Si  Si3  1  0.21923  0.62162  0.80769  1
 Si  Si4  1  0.28077  0.19231  0.37838  1
