CIF file written using JARVIS-Tools package.
data_Ca5MnPb3
_symmetry_space_group_name_H-M  'P6_3/mcm'
_cell_length_a       9.40288
_cell_length_b       9.40288
_cell_length_c       6.83147
_cell_angle_alpha    90
_cell_angle_beta     90
_cell_angle_gamma    120

_symmetry_Int_Tables_number  193
_chemical_formula_structural  Ca5MnPb3
_chemical_formula_sum  Ca0Mn2Pb6
_cell_volume  523.0771665764183
_cell_formula_units_Z  2
loop_
  _symmetry_equiv_pos_site_id
 _symmetry_equiv_pos_as_xyz
 1  'x, y, z'
loop_
 _atom_site_type_symbol
 _atom_site_label
 _atom_site_symmetry_multiplicity
 _atom_site_fract_x
 _atom_site_fract_y
 _atom_site_fract_z
 _atom_site_fract_occupancy
 Ca  Ca1  1  0.00000  0.70883  0.75000  1
 Ca  Ca2  1  0.33333  0.66667  0.50000  1
 Ca  Ca3  1  0.70883  0.00000  0.75000  1
 Ca  Ca4  1  0.29117  0.29117  0.75000  1
 Ca  Ca5  1  0.33333  0.66667  0.00000  1
 Ca  Ca6  1  -0.00000  0.29117  0.25000  1
 Ca  Ca7  1  0.29117  -0.00000  0.25000  1
 Ca  Ca8  1  0.70883  0.70883  0.25000  1
 Ca  Ca9  1  0.66667  0.33333  0.00000  1
 Ca  Ca10  1  0.66667  0.33333  0.50000  1
 Mn  Mn1  1  0.00000  0.00000  0.00000  1
 Mn  Mn2  1  0.00000  0.00000  0.50000  1
 Pb  Pb1  1  0.63597  0.00000  0.25000  1
 Pb  Pb2  1  0.00000  0.63597  0.25000  1
 Pb  Pb3  1  0.36403  0.36403  0.25000  1
 Pb  Pb4  1  0.63597  0.63597  0.75000  1
 Pb  Pb5  1  -0.00000  0.36403  0.75000  1
 Pb  Pb6  1  0.36403  -0.00000  0.75000  1
