CIF file written using JARVIS-Tools package.
data_MgCuSi2O6
_symmetry_space_group_name_H-M  'C2/c'
_cell_length_a       4.98267
_cell_length_b       6.58601
_cell_length_c       6.58659
_cell_angle_alpha    87.4002
_cell_angle_beta     80.3811
_cell_angle_gamma    80.3835

_symmetry_Int_Tables_number  15
_chemical_formula_structural  MgCuSi2O6
_chemical_formula_sum  Mg2Cu2Si4O2
_cell_volume  210.07795633237365
_cell_formula_units_Z  2
loop_
  _symmetry_equiv_pos_site_id
 _symmetry_equiv_pos_as_xyz
 1  'x, y, z'
loop_
 _atom_site_type_symbol
 _atom_site_label
 _atom_site_symmetry_multiplicity
 _atom_site_fract_x
 _atom_site_fract_y
 _atom_site_fract_z
 _atom_site_fract_occupancy
 Cu  Cu1  1  0.25000  0.09912  0.90088  1
 Cu  Cu2  1  0.75000  0.90089  0.09912  1
 Mg  Mg1  1  0.75000  0.26766  0.73235  1
 Mg  Mg2  1  0.25000  0.73234  0.26765  1
 O  O1  1  0.59272  0.29184  0.40942  1
 O  O2  1  0.36948  0.02344  0.21814  1
 O  O3  1  0.40728  0.70816  0.59058  1
 O  O4  1  0.09272  0.40943  0.29183  1
 O  O5  1  -0.09272  0.59057  0.70817  1
 O  O6  1  0.36846  0.39319  0.85042  1
 O  O7  1  0.86849  0.85041  0.39320  1
 O  O8  1  0.86947  0.21812  0.02346  1
 O  O9  1  0.13151  0.14959  0.60680  1
 O  O10  1  0.63052  0.97656  0.78186  1
 O  O11  1  0.63153  0.60681  0.14958  1
 O  O12  1  0.13053  0.78188  0.97654  1
 Si  Si1  1  0.70313  0.79121  0.61203  1
 Si  Si2  1  0.79688  0.38796  0.20879  1
 Si  Si3  1  0.20312  0.61204  0.79121  1
 Si  Si4  1  0.29687  0.20879  0.38797  1
