CIF file written using JARVIS-Tools package.
data_Mg3Si2H4O9
_symmetry_space_group_name_H-M  'P31m'
_cell_length_a       5.35478
_cell_length_b       5.35478
_cell_length_c       7.27853
_cell_angle_alpha    90
_cell_angle_beta     90
_cell_angle_gamma    120

_symmetry_Int_Tables_number  157
_chemical_formula_structural  Mg3Si2H4O9
_chemical_formula_sum  Mg3Si2H4O9
_cell_volume  180.7416534314437
_cell_formula_units_Z  1
loop_
  _symmetry_equiv_pos_site_id
 _symmetry_equiv_pos_as_xyz
 1  'x, y, z'
loop_
 _atom_site_type_symbol
 _atom_site_label
 _atom_site_symmetry_multiplicity
 _atom_site_fract_x
 _atom_site_fract_y
 _atom_site_fract_z
 _atom_site_fract_occupancy
 H  H1  1  0.34843  0.34843  0.72732  1
 H  H2  1  0.00000  0.00000  0.17031  1
 H  H3  1  0.65157  0.00000  0.72732  1
 H  H4  1  0.00000  0.65157  0.72732  1
 Mg  Mg1  1  0.33126  -0.00000  0.45997  1
 Mg  Mg2  1  0.66874  0.66874  0.45997  1
 Mg  Mg3  1  -0.00000  0.33126  0.45997  1
 O  O1  1  0.66518  0.00000  0.59381  1
 O  O2  1  0.00000  0.66518  0.59381  1
 O  O3  1  0.00000  0.00000  0.30378  1
 O  O4  1  0.33333  0.66667  0.29610  1
 O  O5  1  0.66667  0.33333  0.29610  1
 O  O6  1  0.51331  -0.00000  0.99078  1
 O  O7  1  -0.00000  0.51331  0.99078  1
 O  O8  1  0.48669  0.48669  0.99078  1
 O  O9  1  0.33482  0.33482  0.59381  1
 Si  Si1  1  0.33333  0.66667  0.07497  1
 Si  Si2  1  0.66667  0.33333  0.07497  1
