CIF file written using JARVIS-Tools package.
data_CuCN
_symmetry_space_group_name_H-M  'R3m'
_cell_length_a       3.79403
_cell_length_b       3.79403
_cell_length_c       3.79403
_cell_angle_alpha    103.29
_cell_angle_beta     103.289
_cell_angle_gamma    103.289

_symmetry_Int_Tables_number  160
_chemical_formula_structural  CuCN
_chemical_formula_sum  CuCN
_cell_volume  49.36993921969942
_cell_formula_units_Z  1
loop_
  _symmetry_equiv_pos_site_id
 _symmetry_equiv_pos_as_xyz
 1  'x, y, z'
loop_
 _atom_site_type_symbol
 _atom_site_label
 _atom_site_symmetry_multiplicity
 _atom_site_fract_x
 _atom_site_fract_y
 _atom_site_fract_z
 _atom_site_fract_occupancy
 C  C1  1  0.62130  0.62130  0.62130  1
 Cu  Cu1  1  -0.00003  -0.00003  -0.00003  1
 N  N1  1  0.37874  0.37874  0.37874  1
