CIF file written using JARVIS-Tools package.
data_LiCuF3
_symmetry_space_group_name_H-M  'P2_1/c'
_cell_length_a       3.25669
_cell_length_b       9.6999
_cell_length_c       7.60219
_cell_angle_alpha    90
_cell_angle_beta     105.732
_cell_angle_gamma    90

_symmetry_Int_Tables_number  14
_chemical_formula_structural  LiCuF3
_chemical_formula_sum  Li4Cu4F2
_cell_volume  231.15411462716048
_cell_formula_units_Z  4
loop_
  _symmetry_equiv_pos_site_id
 _symmetry_equiv_pos_as_xyz
 1  'x, y, z'
loop_
 _atom_site_type_symbol
 _atom_site_label
 _atom_site_symmetry_multiplicity
 _atom_site_fract_x
 _atom_site_fract_y
 _atom_site_fract_z
 _atom_site_fract_occupancy
 Cu  Cu1  1  0.31745  0.99735  0.18866  1
 Cu  Cu2  1  0.68255  0.49735  0.31134  1
 Cu  Cu3  1  0.31745  0.50265  0.68866  1
 Cu  Cu4  1  0.68255  0.00265  0.81134  1
 F  F1  1  0.85358  0.88127  0.02938  1
 F  F2  1  0.17322  0.59779  0.20599  1
 F  F3  1  0.44278  0.86120  0.37388  1
 F  F4  1  0.85358  0.61873  0.52938  1
 F  F5  1  0.14642  0.11873  0.97062  1
 F  F6  1  0.55722  0.13880  0.62612  1
 F  F7  1  0.55722  0.36120  0.12612  1
 F  F8  1  0.82678  0.40221  0.79401  1
 F  F9  1  0.17322  0.90221  0.70599  1
 F  F10  1  0.82678  0.09779  0.29401  1
 F  F11  1  0.14642  0.38127  0.47062  1
 F  F12  1  0.44278  0.63880  0.87388  1
 Li  Li1  1  0.00861  0.69073  0.98310  1
 Li  Li2  1  -0.00861  0.19073  0.51690  1
 Li  Li3  1  0.00861  0.80927  0.48310  1
 Li  Li4  1  -0.00861  0.30927  0.01690  1
