CIF file written using JARVIS-Tools package.
data_VInO4
_symmetry_space_group_name_H-M  'Cmcm'
_cell_length_a       5.17434
_cell_length_b       5.17434
_cell_length_c       6.68934
_cell_angle_alpha    90
_cell_angle_beta     90
_cell_angle_gamma    111.656

_symmetry_Int_Tables_number  63
_chemical_formula_structural  VInO4
_chemical_formula_sum  V2In2O8
_cell_volume  166.45783508488324
_cell_formula_units_Z  2
loop_
  _symmetry_equiv_pos_site_id
 _symmetry_equiv_pos_as_xyz
 1  'x, y, z'
loop_
 _atom_site_type_symbol
 _atom_site_label
 _atom_site_symmetry_multiplicity
 _atom_site_fract_x
 _atom_site_fract_y
 _atom_site_fract_z
 _atom_site_fract_occupancy
 In  In1  1  0.00000  0.00000  0.50000  1
 In  In2  1  0.00000  0.00000  0.00000  1
 O  O1  1  0.24987  0.75013  0.54355  1
 O  O2  1  0.75013  0.24987  0.04355  1
 O  O3  1  0.75013  0.24987  0.45645  1
 O  O4  1  0.24987  0.75013  0.95645  1
 O  O5  1  0.73507  0.77913  0.75000  1
 O  O6  1  0.26493  0.22087  0.25000  1
 O  O7  1  0.77913  0.73507  0.25000  1
 O  O8  1  0.22087  0.26493  0.75000  1
 V  V1  1  0.63766  0.36234  0.25000  1
 V  V2  1  0.36234  0.63766  0.75000  1
