CIF file written using JARVIS-Tools package.
data_Ba2HgS3
_symmetry_space_group_name_H-M  'Pnma'
_cell_length_a       4.38671
_cell_length_b       8.99697
_cell_length_c       17.4057
_cell_angle_alpha    90
_cell_angle_beta     90
_cell_angle_gamma    90

_symmetry_Int_Tables_number  62
_chemical_formula_structural  Ba2HgS3
_chemical_formula_sum  Ba8Hg4S2
_cell_volume  686.9519739070541
_cell_formula_units_Z  4
loop_
  _symmetry_equiv_pos_site_id
 _symmetry_equiv_pos_as_xyz
 1  'x, y, z'
loop_
 _atom_site_type_symbol
 _atom_site_label
 _atom_site_symmetry_multiplicity
 _atom_site_fract_x
 _atom_site_fract_y
 _atom_site_fract_z
 _atom_site_fract_occupancy
 Ba  Ba1  1  0.25000  0.25856  0.96097  1
 Ba  Ba2  1  0.25000  0.42481  0.21524  1
 Ba  Ba3  1  0.75000  0.07519  0.71524  1
 Ba  Ba4  1  0.25000  0.92481  0.28476  1
 Ba  Ba5  1  0.25000  0.75856  0.53903  1
 Ba  Ba6  1  0.75000  0.24144  0.46097  1
 Ba  Ba7  1  0.75000  0.74144  0.03903  1
 Ba  Ba8  1  0.75000  0.57519  0.78476  1
 Hg  Hg1  1  0.75000  0.62468  0.36660  1
 Hg  Hg2  1  0.25000  0.37532  0.63340  1
 Hg  Hg3  1  0.75000  0.12468  0.13340  1
 Hg  Hg4  1  0.25000  0.87532  0.86660  1
 S  S1  1  0.75000  0.88589  0.42816  1
 S  S2  1  0.25000  0.11411  0.57184  1
 S  S3  1  0.25000  0.81009  0.72125  1
 S  S4  1  0.75000  0.18991  0.27875  1
 S  S5  1  0.25000  0.31009  0.77875  1
 S  S6  1  0.75000  0.68991  0.22125  1
 S  S7  1  0.25000  0.98325  0.09560  1
 S  S8  1  0.75000  0.01675  0.90440  1
 S  S9  1  0.25000  0.48325  0.40440  1
 S  S10  1  0.75000  0.51675  0.59560  1
 S  S11  1  0.25000  0.61411  0.92816  1
 S  S12  1  0.75000  0.38589  0.07184  1
