CIF file written using JARVIS-Tools package.
data_Sc2O3
_symmetry_space_group_name_H-M  'R-3'
_cell_length_a       5.41117
_cell_length_b       5.81885
_cell_length_c       5.41117
_cell_angle_alpha    117.708
_cell_angle_beta     60
_cell_angle_gamma    117.708

_symmetry_Int_Tables_number  148
_chemical_formula_structural  Sc2O3
_chemical_formula_sum  Sc4O6
_cell_volume  124.48305751497796
_cell_formula_units_Z  2
loop_
  _symmetry_equiv_pos_site_id
 _symmetry_equiv_pos_as_xyz
 1  'x, y, z'
loop_
 _atom_site_type_symbol
 _atom_site_label
 _atom_site_symmetry_multiplicity
 _atom_site_fract_x
 _atom_site_fract_y
 _atom_site_fract_z
 _atom_site_fract_occupancy
 O  O1  1  0.28634  0.78160  0.61092  1
 O  O2  1  0.38908  0.21840  0.11566  1
 O  O3  1  0.11566  0.21840  0.71366  1
 O  O4  1  0.88434  0.78160  0.28634  1
 O  O5  1  0.61092  0.78160  0.88434  1
 O  O6  1  0.71366  0.21840  0.38908  1
 Sc  Sc1  1  0.00000  0.00000  0.00000  1
 Sc  Sc2  1  0.29920  0.89760  0.29920  1
 Sc  Sc3  1  0.50000  0.50000  0.50000  1
 Sc  Sc4  1  0.70080  0.10240  0.70080  1
