CIF file written using JARVIS-Tools package.
data_CuPtF6
_symmetry_space_group_name_H-M  'R-3'
_cell_length_a       4.9421
_cell_length_b       4.94253
_cell_length_c       9.70984
_cell_angle_alpha    75.2595
_cell_angle_beta     75.2665
_cell_angle_gamma    60.0035

_symmetry_Int_Tables_number  148
_chemical_formula_structural  CuPtF6
_chemical_formula_sum  Cu2Pt2F2
_cell_volume  196.347141584326
_cell_formula_units_Z  2
loop_
  _symmetry_equiv_pos_site_id
 _symmetry_equiv_pos_as_xyz
 1  'x, y, z'
loop_
 _atom_site_type_symbol
 _atom_site_label
 _atom_site_symmetry_multiplicity
 _atom_site_fract_x
 _atom_site_fract_y
 _atom_site_fract_z
 _atom_site_fract_occupancy
 Cu  Cu1  1  0.00000  0.00000  0.00000  1
 Cu  Cu2  1  0.50000  0.50000  0.50000  1
 F  F1  1  0.88217  0.21328  0.37351  1
 F  F2  1  0.11783  0.78672  0.62649  1
 F  F3  1  0.53103  0.88232  0.37350  1
 F  F4  1  0.46897  0.11768  0.62650  1
 F  F5  1  0.38232  0.71317  0.87351  1
 F  F6  1  0.61768  0.28683  0.12649  1
 F  F7  1  0.71329  0.03106  0.87347  1
 F  F8  1  0.28671  0.96894  0.12653  1
 F  F9  1  0.03119  0.38219  0.87349  1
 F  F10  1  -0.03119  0.61781  0.12651  1
 F  F11  1  0.78686  0.46883  0.62652  1
 F  F12  1  0.21314  0.53117  0.37348  1
 Pt  Pt1  1  0.75007  0.74994  0.75000  1
 Pt  Pt2  1  0.24993  0.25006  0.25000  1
