CIF file written using JARVIS-Tools package.
data_YZr5O11
_symmetry_space_group_name_H-M  'Pm'
_cell_length_a       6.55862
_cell_length_b       3.53961
_cell_length_c       9.00806
_cell_angle_alpha    90
_cell_angle_beta     90.7977
_cell_angle_gamma    90

_symmetry_Int_Tables_number  6
_chemical_formula_structural  YZr5O11
_chemical_formula_sum  YZr5O
_cell_volume  209.10169531114173
_cell_formula_units_Z  1
loop_
  _symmetry_equiv_pos_site_id
 _symmetry_equiv_pos_as_xyz
 1  'x, y, z'
loop_
 _atom_site_type_symbol
 _atom_site_label
 _atom_site_symmetry_multiplicity
 _atom_site_fract_x
 _atom_site_fract_y
 _atom_site_fract_z
 _atom_site_fract_occupancy
 O  O1  1  0.36968  0.00000  0.92274  1
 O  O2  1  0.77174  0.50000  0.41624  1
 O  O3  1  0.46609  0.50000  0.22604  1
 O  O4  1  0.02770  0.00000  0.76947  1
 O  O5  1  0.79779  0.50000  0.91243  1
 O  O6  1  0.48114  0.50000  0.71881  1
 O  O7  1  0.14409  0.50000  0.56003  1
 O  O8  1  0.13284  0.50000  0.07093  1
 O  O9  1  0.38527  0.00000  0.43700  1
 O  O10  1  0.03038  0.00000  0.27759  1
 O  O11  1  0.70048  0.00000  0.10025  1
 Y  Y1  1  0.83244  0.50000  0.66574  1
 Zr  Zr1  1  0.98978  0.00000  0.00279  1
 Zr  Zr2  1  0.31425  0.00000  0.66757  1
 Zr  Zr3  1  0.66383  0.00000  0.32866  1
 Zr  Zr4  1  0.50885  0.50000  0.99391  1
 Zr  Zr5  1  0.18640  0.50000  0.33117  1
