CIF file written using JARVIS-Tools package.
data_MoO2
_symmetry_space_group_name_H-M  'R-3m'
_cell_length_a       5.09217
_cell_length_b       5.09217
_cell_length_c       5.09218
_cell_angle_alpha    33.4149
_cell_angle_beta     33.4147
_cell_angle_gamma    33.4148

_symmetry_Int_Tables_number  166
_chemical_formula_structural  MoO2
_chemical_formula_sum  MoO2
_cell_volume  35.6594210084143
_cell_formula_units_Z  1
loop_
  _symmetry_equiv_pos_site_id
 _symmetry_equiv_pos_as_xyz
 1  'x, y, z'
loop_
 _atom_site_type_symbol
 _atom_site_label
 _atom_site_symmetry_multiplicity
 _atom_site_fract_x
 _atom_site_fract_y
 _atom_site_fract_z
 _atom_site_fract_occupancy
 Mo  Mo1  1  0.00000  0.00000  0.00000  1
 O  O1  1  0.25308  0.25308  0.25308  1
 O  O2  1  0.74692  0.74692  0.74692  1
