CIF file written using JARVIS-Tools package.
data_Zn2Hg2OF6
_symmetry_space_group_name_H-M  'Fd-3m'
_cell_length_a       7.46559
_cell_length_b       7.46559
_cell_length_c       7.46559
_cell_angle_alpha    60
_cell_angle_beta     60
_cell_angle_gamma    60

_symmetry_Int_Tables_number  227
_chemical_formula_structural  Zn2Hg2OF6
_chemical_formula_sum  Zn4Hg4O2F2
_cell_volume  294.22337453700965
_cell_formula_units_Z  2
loop_
  _symmetry_equiv_pos_site_id
 _symmetry_equiv_pos_as_xyz
 1  'x, y, z'
loop_
 _atom_site_type_symbol
 _atom_site_label
 _atom_site_symmetry_multiplicity
 _atom_site_fract_x
 _atom_site_fract_y
 _atom_site_fract_z
 _atom_site_fract_occupancy
 F  F1  1  0.67452  0.67452  0.07548  1
 F  F2  1  0.32548  0.92452  0.92452  1
 F  F3  1  0.07548  0.67452  0.67452  1
 F  F4  1  0.92452  0.32548  0.92452  1
 F  F5  1  0.92452  0.92452  0.32548  1
 F  F6  1  0.32548  0.32548  0.92452  1
 F  F7  1  0.07548  0.67452  0.07548  1
 F  F8  1  0.67452  0.07548  0.67452  1
 F  F9  1  0.67452  0.07548  0.07548  1
 F  F10  1  0.32548  0.92452  0.32548  1
 F  F11  1  0.07548  0.07548  0.67452  1
 F  F12  1  0.92452  0.32548  0.32548  1
 Hg  Hg1  1  0.50000  0.50000  0.00000  1
 Hg  Hg2  1  0.50000  0.00000  0.50000  1
 Hg  Hg3  1  -0.00000  0.50000  0.50000  1
 Hg  Hg4  1  0.50000  0.50000  0.50000  1
 O  O1  1  0.37500  0.37500  0.37500  1
 O  O2  1  0.62500  0.62500  0.62500  1
 Zn  Zn1  1  -0.00000  0.50000  -0.00000  1
 Zn  Zn2  1  0.50000  0.00000  0.00000  1
 Zn  Zn3  1  0.00000  0.00000  0.50000  1
 Zn  Zn4  1  0.00000  0.00000  0.00000  1
