CIF file written using JARVIS-Tools package.
data_MnCoSb
_symmetry_space_group_name_H-M  'Fm-3m'
_cell_length_a       8.18868
_cell_length_b       8.18869
_cell_length_c       8.18869
_cell_angle_alpha    60
_cell_angle_beta     60
_cell_angle_gamma    60

_symmetry_Int_Tables_number  225
_chemical_formula_structural  MnCoSb
_chemical_formula_sum  Mn8Co8Sb8
_cell_volume  388.2648566713835
_cell_formula_units_Z  8
loop_
  _symmetry_equiv_pos_site_id
 _symmetry_equiv_pos_as_xyz
 1  'x, y, z'
loop_
 _atom_site_type_symbol
 _atom_site_label
 _atom_site_symmetry_multiplicity
 _atom_site_fract_x
 _atom_site_fract_y
 _atom_site_fract_z
 _atom_site_fract_occupancy
 Co  Co1  1  0.87903  0.87903  0.87903  1
 Co  Co2  1  0.87903  0.36291  0.87903  1
 Co  Co3  1  0.36291  0.87903  0.87903  1
 Co  Co4  1  0.87903  0.87903  0.36291  1
 Co  Co5  1  0.12097  0.12097  0.12097  1
 Co  Co6  1  0.63709  0.12097  0.12097  1
 Co  Co7  1  0.12097  0.12097  0.63709  1
 Co  Co8  1  0.12097  0.63709  0.12097  1
 Mn  Mn1  1  0.50000  0.00000  0.00000  1
 Mn  Mn2  1  0.00000  0.00000  0.50000  1
 Mn  Mn3  1  0.00000  0.50000  0.50000  1
 Mn  Mn4  1  0.00000  0.50000  0.00000  1
 Mn  Mn5  1  0.50000  0.50000  0.50000  1
 Mn  Mn6  1  0.50000  0.00000  0.50000  1
 Mn  Mn7  1  0.00000  0.00000  0.00000  1
 Mn  Mn8  1  0.50000  0.50000  0.00000  1
 Sb  Sb1  1  0.26780  0.73220  0.26780  1
 Sb  Sb2  1  0.75000  0.75000  0.75000  1
 Sb  Sb3  1  0.73220  0.26780  0.73220  1
 Sb  Sb4  1  0.73220  0.26780  0.26780  1
 Sb  Sb5  1  0.26780  0.26780  0.73220  1
 Sb  Sb6  1  0.73220  0.73220  0.26780  1
 Sb  Sb7  1  0.26780  0.73220  0.73220  1
 Sb  Sb8  1  0.25000  0.25000  0.25000  1
