CIF file written using JARVIS-Tools package.
data_AlPNCl5
_symmetry_space_group_name_H-M  'P-1'
_cell_length_a       6.79487
_cell_length_b       8.38529
_cell_length_c       8.65851
_cell_angle_alpha    63.6811
_cell_angle_beta     77.0087
_cell_angle_gamma    69.5312

_symmetry_Int_Tables_number  2
_chemical_formula_structural  AlPNCl5
_chemical_formula_sum  Al2P2N2Cl0
_cell_volume  412.8467910156078
_cell_formula_units_Z  2
loop_
  _symmetry_equiv_pos_site_id
 _symmetry_equiv_pos_as_xyz
 1  'x, y, z'
loop_
 _atom_site_type_symbol
 _atom_site_label
 _atom_site_symmetry_multiplicity
 _atom_site_fract_x
 _atom_site_fract_y
 _atom_site_fract_z
 _atom_site_fract_occupancy
 Al  Al1  1  0.90602  0.57050  0.62441  1
 Al  Al2  1  0.09398  0.42950  0.37559  1
 Cl  Cl1  1  0.58571  0.17073  0.64569  1
 Cl  Cl2  1  0.74182  0.75617  0.04340  1
 Cl  Cl3  1  0.98723  0.23758  0.34136  1
 Cl  Cl4  1  0.75381  0.04879  0.17733  1
 Cl  Cl5  1  0.01277  0.76242  0.65864  1
 Cl  Cl6  1  0.24619  0.95121  0.82267  1
 Cl  Cl7  1  0.25818  0.24383  0.95660  1
 Cl  Cl8  1  0.41429  0.82927  0.35431  1
 Cl  Cl9  1  0.35543  0.49463  0.19892  1
 Cl  Cl10  1  0.64457  0.50537  0.80108  1
 N  N1  1  0.12776  0.36288  0.60985  1
 N  N2  1  0.87224  0.63712  0.39015  1
 P  P1  1  0.28437  0.20401  0.74109  1
 P  P2  1  0.71563  0.79599  0.25891  1
