CIF file written using JARVIS-Tools package.
data_MnH8N4Cl2
_symmetry_space_group_name_H-M  'C2/m'
_cell_length_a       6.0242
_cell_length_b       6.0242
_cell_length_c       4.26936
_cell_angle_alpha    77.6682
_cell_angle_beta     102.332
_cell_angle_gamma    96.7429

_symmetry_Int_Tables_number  12
_chemical_formula_structural  MnH8N4Cl2
_chemical_formula_sum  MnH8N4Cl2
_cell_volume  147.45300708718318
_cell_formula_units_Z  1
loop_
  _symmetry_equiv_pos_site_id
 _symmetry_equiv_pos_as_xyz
 1  'x, y, z'
loop_
 _atom_site_type_symbol
 _atom_site_label
 _atom_site_symmetry_multiplicity
 _atom_site_fract_x
 _atom_site_fract_y
 _atom_site_fract_z
 _atom_site_fract_occupancy
 Cl  Cl1  1  0.71213  0.28787  -0.01857  1
 Cl  Cl2  1  0.28787  0.71213  0.01857  1
 H  H1  1  0.01191  0.33280  0.44721  1
 H  H2  1  0.66720  0.98809  0.44721  1
 H  H3  1  0.98809  0.66720  0.55279  1
 H  H4  1  0.33280  0.01191  0.55279  1
 H  H5  1  0.26047  0.36943  0.70261  1
 H  H6  1  0.63057  0.73953  0.70261  1
 H  H7  1  0.73953  0.63057  0.29739  1
 H  H8  1  0.36943  0.26047  0.29739  1
 Mn  Mn1  1  0.00000  0.00000  0.00000  1
 N  N1  1  0.14608  0.25018  0.60155  1
 N  N2  1  0.74982  0.85392  0.60155  1
 N  N3  1  0.85392  0.74982  0.39845  1
 N  N4  1  0.25018  0.14608  0.39845  1
