CIF file written using JARVIS-Tools package.
data_PHN2
_symmetry_space_group_name_H-M  'C2'
_cell_length_a       4.72125
_cell_length_b       4.72692
_cell_length_c       4.85552
_cell_angle_alpha    119.124
_cell_angle_beta     119.067
_cell_angle_gamma    90.0003

_symmetry_Int_Tables_number  5
_chemical_formula_structural  PHN2
_chemical_formula_sum  P2H2N4
_cell_volume  78.67061074602765
_cell_formula_units_Z  2
loop_
  _symmetry_equiv_pos_site_id
 _symmetry_equiv_pos_as_xyz
 1  'x, y, z'
loop_
 _atom_site_type_symbol
 _atom_site_label
 _atom_site_symmetry_multiplicity
 _atom_site_fract_x
 _atom_site_fract_y
 _atom_site_fract_z
 _atom_site_fract_occupancy
 H  H1  1  0.49169  0.37479  0.24866  1
 H  H2  1  0.75828  0.87615  0.25136  1
 N  N1  1  0.12506  0.72475  0.75007  1
 N  N2  1  0.27473  0.37481  0.24975  1
 N  N3  1  0.62500  0.02480  0.74993  1
 N  N4  1  0.97524  0.87506  0.25024  1
 P  P1  1  0.98980  0.98966  0.97967  1
 P  P2  1  0.26020  0.75998  0.52032  1
