CIF file written using JARVIS-Tools package.
data_ZnCr2N2
_symmetry_space_group_name_H-M  'P-4m2'
_cell_length_a       3.67376
_cell_length_b       3.6738
_cell_length_c       5.34378
_cell_angle_alpha    90
_cell_angle_beta     90
_cell_angle_gamma    90

_symmetry_Int_Tables_number  115
_chemical_formula_structural  ZnCr2N2
_chemical_formula_sum  ZnCr2N2
_cell_volume  72.12318266203354
_cell_formula_units_Z  1
loop_
  _symmetry_equiv_pos_site_id
 _symmetry_equiv_pos_as_xyz
 1  'x, y, z'
loop_
 _atom_site_type_symbol
 _atom_site_label
 _atom_site_symmetry_multiplicity
 _atom_site_fract_x
 _atom_site_fract_y
 _atom_site_fract_z
 _atom_site_fract_occupancy
 Cr  Cr1  1  0.50000  0.50000  0.00058  1
 Cr  Cr2  1  0.50000  0.50000  0.49941  1
 N  N1  1  0.50000  0.00000  0.48362  1
 N  N2  1  0.00000  0.50000  0.01640  1
 Zn  Zn1  1  0.00000  0.00000  0.24999  1
