CIF file written using JARVIS-Tools package.
data_CoO2
_symmetry_space_group_name_H-M  'C2'
_cell_length_a       2.82416
_cell_length_b       2.8242
_cell_length_c       9.11734
_cell_angle_alpha    72.0183
_cell_angle_beta     107.974
_cell_angle_gamma    120.001

_symmetry_Int_Tables_number  5
_chemical_formula_structural  CoO2
_chemical_formula_sum  Co2O4
_cell_volume  58.84121953977977
_cell_formula_units_Z  2
loop_
  _symmetry_equiv_pos_site_id
 _symmetry_equiv_pos_as_xyz
 1  'x, y, z'
loop_
 _atom_site_type_symbol
 _atom_site_label
 _atom_site_symmetry_multiplicity
 _atom_site_fract_x
 _atom_site_fract_y
 _atom_site_fract_z
 _atom_site_fract_occupancy
 Co  Co1  1  -0.00126  0.99753  0.49789  1
 Co  Co2  1  0.00074  0.99803  -0.00204  1
 O  O1  1  0.40416  0.59203  0.60647  1
 O  O2  1  0.26200  0.73687  0.88939  1
 O  O3  1  0.59333  0.40303  0.38931  1
 O  O4  1  0.73947  0.25919  0.10653  1
