CIF file written using JARVIS-Tools package.
data_Li2FeSiO4
_symmetry_space_group_name_H-M  'P1'
_cell_length_a       4.9223
_cell_length_b       5.3824
_cell_length_c       6.27864
_cell_angle_alpha    90.5694
_cell_angle_beta     91.0792
_cell_angle_gamma    85.8819

_symmetry_Int_Tables_number  1
_chemical_formula_structural  Li2FeSiO4
_chemical_formula_sum  Li4Fe2Si2O8
_cell_volume  165.8801273602948
_cell_formula_units_Z  2
loop_
  _symmetry_equiv_pos_site_id
 _symmetry_equiv_pos_as_xyz
 1  'x, y, z'
loop_
 _atom_site_type_symbol
 _atom_site_label
 _atom_site_symmetry_multiplicity
 _atom_site_fract_x
 _atom_site_fract_y
 _atom_site_fract_z
 _atom_site_fract_occupancy
 Fe  Fe1  1  0.01293  0.14492  0.00407  1
 Fe  Fe2  1  0.43415  0.84485  -0.00326  1
 Li  Li1  1  0.49333  0.83815  0.50155  1
 Li  Li2  1  0.98322  0.65429  0.73649  1
 Li  Li3  1  0.50980  0.33995  0.26759  1
 Li  Li4  1  0.00791  0.15596  0.50039  1
 O  O1  1  0.87167  0.81062  0.03694  1
 O  O2  1  0.88320  0.81258  0.47149  1
 O  O3  1  0.33118  0.67321  0.25125  1
 O  O4  1  0.39088  0.63121  0.74618  1
 O  O5  1  0.91235  0.37099  0.24957  1
 O  O6  1  0.85065  0.31857  0.75057  1
 O  O7  1  0.39987  0.18879  0.53498  1
 O  O8  1  0.41951  0.21313  0.97247  1
 Si  Si1  1  -0.00572  0.66397  0.26122  1
 Si  Si2  1  0.51236  0.33622  0.74125  1
