CIF file written using JARVIS-Tools package.
data_CaSi2SnO6
_symmetry_space_group_name_H-M  'C2/c'
_cell_length_a       5.46805
_cell_length_b       7.25331
_cell_length_c       7.2533
_cell_angle_alpha    83.4214
_cell_angle_beta     78.5517
_cell_angle_gamma    78.5517

_symmetry_Int_Tables_number  15
_chemical_formula_structural  CaSi2SnO6
_chemical_formula_sum  Ca2Si4Sn2O2
_cell_volume  275.49613802236235
_cell_formula_units_Z  2
loop_
  _symmetry_equiv_pos_site_id
 _symmetry_equiv_pos_as_xyz
 1  'x, y, z'
loop_
 _atom_site_type_symbol
 _atom_site_label
 _atom_site_symmetry_multiplicity
 _atom_site_fract_x
 _atom_site_fract_y
 _atom_site_fract_z
 _atom_site_fract_occupancy
 Ca  Ca1  1  0.75000  0.33151  0.66849  1
 Ca  Ca2  1  0.25000  0.66849  0.33151  1
 O  O1  1  0.47671  0.30792  0.30516  1
 O  O2  1  0.33399  0.96901  0.30216  1
 O  O3  1  0.52330  0.69208  0.69484  1
 O  O4  1  -0.02330  0.30516  0.30792  1
 O  O5  1  0.02329  0.69484  0.69208  1
 O  O6  1  0.34184  0.39789  0.81561  1
 O  O7  1  0.84184  0.81561  0.39790  1
 O  O8  1  0.65816  0.60210  0.18439  1
 O  O9  1  0.83399  0.30216  0.96901  1
 O  O10  1  0.66601  0.03099  0.69784  1
 O  O11  1  0.15816  0.18439  0.60210  1
 O  O12  1  0.16601  0.69784  0.03099  1
 Si  Si1  1  0.75351  0.82331  0.62427  1
 Si  Si2  1  0.74649  0.37573  0.17669  1
 Si  Si3  1  0.25351  0.62427  0.82331  1
 Si  Si4  1  0.24649  0.17669  0.37573  1
 Sn  Sn1  1  0.75000  0.87824  0.12176  1
 Sn  Sn2  1  0.25000  0.12176  0.87824  1
