CIF file written using JARVIS-Tools package.
data_LiZnGe
_symmetry_space_group_name_H-M  'P-6m2'
_cell_length_a       4.27754
_cell_length_b       4.27754
_cell_length_c       9.46636
_cell_angle_alpha    90
_cell_angle_beta     90
_cell_angle_gamma    120

_symmetry_Int_Tables_number  187
_chemical_formula_structural  LiZnGe
_chemical_formula_sum  Li3Zn3Ge3
_cell_volume  150.0041522069144
_cell_formula_units_Z  3
loop_
  _symmetry_equiv_pos_site_id
 _symmetry_equiv_pos_as_xyz
 1  'x, y, z'
loop_
 _atom_site_type_symbol
 _atom_site_label
 _atom_site_symmetry_multiplicity
 _atom_site_fract_x
 _atom_site_fract_y
 _atom_site_fract_z
 _atom_site_fract_occupancy
 Ge  Ge1  1  0.66667  0.33333  0.36364  1
 Ge  Ge2  1  0.66667  0.33333  0.63636  1
 Ge  Ge3  1  0.00000  0.00000  0.00000  1
 Li  Li1  1  0.33333  0.66667  0.16673  1
 Li  Li2  1  0.33333  0.66667  0.50000  1
 Li  Li3  1  0.33333  0.66667  0.83327  1
 Zn  Zn1  1  0.00000  0.00000  0.70614  1
 Zn  Zn2  1  0.00000  0.00000  0.29386  1
 Zn  Zn3  1  0.66667  0.33333  0.00000  1
