CIF file written using JARVIS-Tools package.
data_RbAg3Te2
_symmetry_space_group_name_H-M  'C2/m'
_cell_length_a       4.60442
_cell_length_b       9.08087
_cell_length_c       9.21466
_cell_angle_alpha    112.006
_cell_angle_beta     90
_cell_angle_gamma    104.686

_symmetry_Int_Tables_number  12
_chemical_formula_structural  RbAg3Te2
_chemical_formula_sum  Rb2Ag6Te4
_cell_volume  343.6012290377047
_cell_formula_units_Z  2
loop_
  _symmetry_equiv_pos_site_id
 _symmetry_equiv_pos_as_xyz
 1  'x, y, z'
loop_
 _atom_site_type_symbol
 _atom_site_label
 _atom_site_symmetry_multiplicity
 _atom_site_fract_x
 _atom_site_fract_y
 _atom_site_fract_z
 _atom_site_fract_occupancy
 Ag  Ag1  1  0.93842  0.87683  0.58780  1
 Ag  Ag2  1  0.58724  0.17448  0.62725  1
 Ag  Ag3  1  0.06158  0.12317  0.41220  1
 Ag  Ag4  1  0.30850  0.61700  0.54606  1
 Ag  Ag5  1  0.41276  0.82552  0.37275  1
 Ag  Ag6  1  0.69150  0.38300  0.45394  1
 Rb  Rb1  1  0.13562  0.27125  0.04891  1
 Rb  Rb2  1  0.86438  0.72875  0.95109  1
 Te  Te1  1  0.20222  0.40444  0.70677  1
 Te  Te2  1  0.47945  0.95890  0.78064  1
 Te  Te3  1  0.52055  0.04110  0.21936  1
 Te  Te4  1  0.79778  0.59556  0.29323  1
