CIF file written using JARVIS-Tools package.
data_B5H9
_symmetry_space_group_name_H-M  'I4mm'
_cell_length_a       5.59867
_cell_length_b       5.59867
_cell_length_c       5.59867
_cell_angle_alpha    102.366
_cell_angle_beta     102.366
_cell_angle_gamma    124.868

_symmetry_Int_Tables_number  107
_chemical_formula_structural  B5H9
_chemical_formula_sum  B5H9
_cell_volume  127.64061946651559
_cell_formula_units_Z  1
loop_
  _symmetry_equiv_pos_site_id
 _symmetry_equiv_pos_as_xyz
 1  'x, y, z'
loop_
 _atom_site_type_symbol
 _atom_site_label
 _atom_site_symmetry_multiplicity
 _atom_site_fract_x
 _atom_site_fract_y
 _atom_site_fract_z
 _atom_site_fract_occupancy
 B  B1  1  0.23412  0.23412  0.00000  1
 B  B2  1  0.19849  0.01780  0.18069  1
 B  B3  1  0.83712  0.01780  0.81931  1
 B  B4  1  0.01780  0.19849  0.18069  1
 B  B5  1  0.01780  0.83712  0.81931  1
 H  H1  1  0.46363  0.46363  0.00000  1
 H  H2  1  0.39628  0.04768  0.34859  1
 H  H3  1  0.69909  0.04768  0.65141  1
 H  H4  1  0.04768  0.39628  0.34859  1
 H  H5  1  0.04768  0.69909  0.65141  1
 H  H6  1  0.98189  0.70677  -0.00000  1
 H  H7  1  0.70677  0.98189  -0.00000  1
 H  H8  1  0.70677  0.70677  0.72488  1
 H  H9  1  0.98189  0.98189  0.27512  1
