CIF file written using JARVIS-Tools package.
data_Li4Mn2Ni3O10
_symmetry_space_group_name_H-M  'P-1'
_cell_length_a       5.02741
_cell_length_b       5.03904
_cell_length_c       7.48
_cell_angle_alpha    102.463
_cell_angle_beta     108.05
_cell_angle_gamma    100.967

_symmetry_Int_Tables_number  2
_chemical_formula_structural  Li4Mn2Ni3O10
_chemical_formula_sum  Li4Mn2Ni3O0
_cell_volume  169.04143387894598
_cell_formula_units_Z  1
loop_
  _symmetry_equiv_pos_site_id
 _symmetry_equiv_pos_as_xyz
 1  'x, y, z'
loop_
 _atom_site_type_symbol
 _atom_site_label
 _atom_site_symmetry_multiplicity
 _atom_site_fract_x
 _atom_site_fract_y
 _atom_site_fract_z
 _atom_site_fract_occupancy
 Li  Li1  1  0.08375  0.76943  0.59120  1
 Li  Li2  1  0.69753  0.59862  0.22332  1
 Li  Li3  1  0.30247  0.40138  0.77668  1
 Li  Li4  1  0.91625  0.23057  0.40880  1
 Mn  Mn1  1  0.29732  0.89799  0.30880  1
 Mn  Mn2  1  0.70268  0.10201  0.69120  1
 Ni  Ni1  1  0.50000  0.00000  -0.00000  1
 Ni  Ni2  1  0.89616  0.69761  0.89753  1
 Ni  Ni3  1  0.10384  0.30239  0.10247  1
 O  O1  1  0.31651  0.11020  0.55084  1
 O  O2  1  0.68349  0.88980  0.44916  1
 O  O3  1  0.28773  0.67957  0.05151  1
 O  O4  1  0.92731  0.93962  0.15100  1
 O  O5  1  0.71227  0.32043  0.94849  1
 O  O6  1  0.89973  0.43841  0.66854  1
 O  O7  1  0.46653  0.22216  0.22596  1
 O  O8  1  0.53347  0.77784  0.77404  1
 O  O9  1  0.10027  0.56159  0.33146  1
 O  O10  1  0.07269  0.06038  0.84900  1
