CIF file written using JARVIS-Tools package.
data_CaAgP
_symmetry_space_group_name_H-M  'P-62m'
_cell_length_a       7.05546
_cell_length_b       7.05546
_cell_length_c       4.1786
_cell_angle_alpha    90
_cell_angle_beta     90
_cell_angle_gamma    120

_symmetry_Int_Tables_number  189
_chemical_formula_structural  CaAgP
_chemical_formula_sum  Ca3Ag3P3
_cell_volume  180.14103410608186
_cell_formula_units_Z  3
loop_
  _symmetry_equiv_pos_site_id
 _symmetry_equiv_pos_as_xyz
 1  'x, y, z'
loop_
 _atom_site_type_symbol
 _atom_site_label
 _atom_site_symmetry_multiplicity
 _atom_site_fract_x
 _atom_site_fract_y
 _atom_site_fract_z
 _atom_site_fract_occupancy
 Ag  Ag1  1  -0.00000  0.74658  0.00000  1
 Ag  Ag2  1  0.25342  0.25342  0.00000  1
 Ag  Ag3  1  0.74658  -0.00000  0.00000  1
 Ca  Ca1  1  -0.00000  0.41068  0.50000  1
 Ca  Ca2  1  0.58932  0.58932  0.50000  1
 Ca  Ca3  1  0.41068  -0.00000  0.50000  1
 P  P1  1  0.00000  0.00000  0.50000  1
 P  P2  1  0.33333  0.66667  0.00000  1
 P  P3  1  0.66667  0.33333  0.00000  1
