CIF file written using JARVIS-Tools package.
data_Y4GaCo4
_symmetry_space_group_name_H-M  'C2/m'
_cell_length_a       4.04994
_cell_length_b       5.43785
_cell_length_c       8.87189
_cell_angle_alpha    108.953
_cell_angle_beta     90
_cell_angle_gamma    111.863

_symmetry_Int_Tables_number  12
_chemical_formula_structural  Y4GaCo4
_chemical_formula_sum  Y4GaCo4
_cell_volume  169.86582176102146
_cell_formula_units_Z  1
loop_
  _symmetry_equiv_pos_site_id
 _symmetry_equiv_pos_as_xyz
 1  'x, y, z'
loop_
 _atom_site_type_symbol
 _atom_site_label
 _atom_site_symmetry_multiplicity
 _atom_site_fract_x
 _atom_site_fract_y
 _atom_site_fract_z
 _atom_site_fract_occupancy
 Co  Co1  1  0.96115  0.92231  0.64602  1
 Co  Co2  1  0.03885  0.07769  0.35398  1
 Co  Co3  1  0.90686  0.81373  0.87999  1
 Co  Co4  1  0.09314  0.18627  0.12001  1
 Ga  Ga1  1  0.50000  0.00000  0.50000  1
 Y  Y1  1  0.25327  0.50654  0.66065  1
 Y  Y2  1  0.74673  0.49346  0.33935  1
 Y  Y3  1  0.60908  0.21815  0.88480  1
 Y  Y4  1  0.39092  0.78185  0.11520  1
