CIF file written using JARVIS-Tools package.
data_AgBiSe2
_symmetry_space_group_name_H-M  'I4_1/amd'
_cell_length_a       8.28429
_cell_length_b       10.9807
_cell_length_c       7.20705
_cell_angle_alpha    29.1692
_cell_angle_beta     54.916
_cell_angle_gamma    41.021

_symmetry_Int_Tables_number  141
_chemical_formula_structural  AgBiSe2
_chemical_formula_sum  Ag2Bi2Se4
_cell_volume  202.36109496604783
_cell_formula_units_Z  2
loop_
  _symmetry_equiv_pos_site_id
 _symmetry_equiv_pos_as_xyz
 1  'x, y, z'
loop_
 _atom_site_type_symbol
 _atom_site_label
 _atom_site_symmetry_multiplicity
 _atom_site_fract_x
 _atom_site_fract_y
 _atom_site_fract_z
 _atom_site_fract_occupancy
 Ag  Ag1  1  0.49995  -0.00004  0.00013  1
 Ag  Ag2  1  0.25005  0.50004  0.99987  1
 Bi  Bi1  1  -0.00001  0.00001  0.00001  1
 Bi  Bi2  1  0.75001  0.49999  -0.00001  1
 Se  Se1  1  0.25234  0.00003  0.49528  1
 Se  Se2  1  0.74766  -0.00008  0.50481  1
 Se  Se3  1  0.49766  0.49997  0.50472  1
 Se  Se4  1  0.00234  0.50008  0.49519  1
