CIF file written using JARVIS-Tools package.
data_Li2CoSi2O6
_symmetry_space_group_name_H-M  'Fdd2'
_cell_length_a       5.11343
_cell_length_b       5.11348
_cell_length_c       10.2247
_cell_angle_alpha    104.625
_cell_angle_beta     104.626
_cell_angle_gamma    89.4382

_symmetry_Int_Tables_number  43
_chemical_formula_structural  Li2CoSi2O6
_chemical_formula_sum  Li4Co2Si4O2
_cell_volume  249.88899403745856
_cell_formula_units_Z  2
loop_
  _symmetry_equiv_pos_site_id
 _symmetry_equiv_pos_as_xyz
 1  'x, y, z'
loop_
 _atom_site_type_symbol
 _atom_site_label
 _atom_site_symmetry_multiplicity
 _atom_site_fract_x
 _atom_site_fract_y
 _atom_site_fract_z
 _atom_site_fract_occupancy
 Co  Co1  1  0.21091  0.78824  0.49979  1
 Co  Co2  1  0.96088  0.03825  -0.00021  1
 Li  Li1  1  0.36187  0.93075  0.83165  1
 Li  Li2  1  0.78004  0.84890  0.66793  1
 Li  Li3  1  0.15025  0.21910  0.33166  1
 Li  Li4  1  0.06839  0.63725  0.16793  1
 O  O1  1  0.23519  0.97912  0.16723  1
 O  O2  1  0.02000  0.76396  0.83235  1
 O  O3  1  0.74858  0.26882  0.72227  1
 O  O4  1  0.27610  0.29636  0.77732  1
 O  O5  1  0.04284  0.40092  0.99011  1
 O  O6  1  0.30252  0.16060  0.50948  1
 O  O7  1  0.83855  0.69657  0.49011  1
 O  O8  1  0.73032  0.25056  0.27729  1
 O  O9  1  0.70281  0.72306  0.22228  1
 O  O10  1  0.43746  0.68139  0.66723  1
 O  O11  1  0.31777  0.56168  0.33235  1
 O  O12  1  0.59821  0.95625  0.00946  1
 Si  Si1  1  0.55227  0.97692  0.16268  1
 Si  Si2  1  0.63939  0.56402  0.33689  1
 Si  Si3  1  0.43511  0.35977  0.66269  1
 Si  Si4  1  0.02221  0.44688  0.83690  1
