CIF file written using JARVIS-Tools package.
data_CaHo2Se4
_symmetry_space_group_name_H-M  'P2/m'
_cell_length_a       6.99009
_cell_length_b       4.10221
_cell_length_c       7.14307
_cell_angle_alpha    90
_cell_angle_beta     108.08
_cell_angle_gamma    90

_symmetry_Int_Tables_number  10
_chemical_formula_structural  CaHo2Se4
_chemical_formula_sum  CaHo2Se4
_cell_volume  194.71215196619653
_cell_formula_units_Z  1
loop_
  _symmetry_equiv_pos_site_id
 _symmetry_equiv_pos_as_xyz
 1  'x, y, z'
loop_
 _atom_site_type_symbol
 _atom_site_label
 _atom_site_symmetry_multiplicity
 _atom_site_fract_x
 _atom_site_fract_y
 _atom_site_fract_z
 _atom_site_fract_occupancy
 Ca  Ca1  1  0.00000  0.50000  0.50000  1
 Ho  Ho1  1  0.00000  0.00000  0.00000  1
 Ho  Ho2  1  0.50000  0.50000  0.00000  1
 Se  Se1  1  0.24262  0.50000  0.23417  1
 Se  Se2  1  0.25884  0.00000  0.75722  1
 Se  Se3  1  0.74116  0.00000  0.24278  1
 Se  Se4  1  0.75738  0.50000  0.76583  1
