CIF file written using JARVIS-Tools package.
data_YCu3Sn4O12
_symmetry_space_group_name_H-M  'Im-3'
_cell_length_a       6.73313
_cell_length_b       6.73311
_cell_length_c       6.73313
_cell_angle_alpha    109.471
_cell_angle_beta     109.471
_cell_angle_gamma    109.471

_symmetry_Int_Tables_number  204
_chemical_formula_structural  YCu3Sn4O12
_chemical_formula_sum  YCu3Sn4O2
_cell_volume  234.9789777165938
_cell_formula_units_Z  1
loop_
  _symmetry_equiv_pos_site_id
 _symmetry_equiv_pos_as_xyz
 1  'x, y, z'
loop_
 _atom_site_type_symbol
 _atom_site_label
 _atom_site_symmetry_multiplicity
 _atom_site_fract_x
 _atom_site_fract_y
 _atom_site_fract_z
 _atom_site_fract_occupancy
 Cu  Cu1  1  0.50000  0.50000  -0.00000  1
 Cu  Cu2  1  -0.00000  0.50000  0.50000  1
 Cu  Cu3  1  0.50000  0.00000  0.50000  1
 O  O1  1  0.53564  0.83238  0.70327  1
 O  O2  1  0.87088  0.16762  0.70326  1
 O  O3  1  0.29676  0.46437  0.16761  1
 O  O4  1  0.46436  0.16762  0.29673  1
 O  O5  1  0.83240  0.29672  0.12912  1
 O  O6  1  0.12912  0.83238  0.29674  1
 O  O7  1  0.70324  0.53563  0.83239  1
 O  O8  1  0.83240  0.70328  0.53568  1
 O  O9  1  0.16760  0.29672  0.46432  1
 O  O10  1  0.70324  0.87085  0.16761  1
 O  O11  1  0.16760  0.70328  0.87088  1
 O  O12  1  0.29676  0.12915  0.83239  1
 Sn  Sn1  1  0.50000  0.00000  -0.00000  1
 Sn  Sn2  1  -0.00000  0.50000  0.00000  1
 Sn  Sn3  1  0.50000  0.50000  0.50000  1
 Sn  Sn4  1  -0.00000  -0.00000  0.50000  1
 Y  Y1  1  0.00000  0.00000  0.00000  1
