CIF file written using JARVIS-Tools package.
data_CoTePb2O6
_symmetry_space_group_name_H-M  'Fm-3m'
_cell_length_a       5.6933
_cell_length_b       5.6933
_cell_length_c       5.6933
_cell_angle_alpha    89.996
_cell_angle_beta     120.002
_cell_angle_gamma    120.002

_symmetry_Int_Tables_number  225
_chemical_formula_structural  CoTePb2O6
_chemical_formula_sum  CoTePb2O6
_cell_volume  130.48532381128402
_cell_formula_units_Z  1
loop_
  _symmetry_equiv_pos_site_id
 _symmetry_equiv_pos_as_xyz
 1  'x, y, z'
loop_
 _atom_site_type_symbol
 _atom_site_label
 _atom_site_symmetry_multiplicity
 _atom_site_fract_x
 _atom_site_fract_y
 _atom_site_fract_z
 _atom_site_fract_occupancy
 Co  Co1  1  0.00000  0.00000  0.00000  1
 O  O1  1  -0.00000  0.74494  0.74494  1
 O  O2  1  0.00000  0.25506  0.25506  1
 O  O3  1  0.48993  0.74497  0.74497  1
 O  O4  1  -0.00000  0.74497  0.25503  1
 O  O5  1  0.51007  0.25503  0.25503  1
 O  O6  1  0.00000  0.25503  0.74497  1
 Pb  Pb1  1  0.50000  0.75000  0.25000  1
 Pb  Pb2  1  0.50000  0.25000  0.75000  1
 Te  Te1  1  0.00000  0.50000  0.50000  1
