CIF file written using JARVIS-Tools package.
data_AlHO2
_symmetry_space_group_name_H-M  'P1'
_cell_length_a       6.7648
_cell_length_b       6.8211
_cell_length_c       3.71027
_cell_angle_alpha    98.7355
_cell_angle_beta     98.6845
_cell_angle_gamma    25.2344

_symmetry_Int_Tables_number  1
_chemical_formula_structural  AlHO2
_chemical_formula_sum  Al2H2O4
_cell_volume  72.10392384129688
_cell_formula_units_Z  2
loop_
  _symmetry_equiv_pos_site_id
 _symmetry_equiv_pos_as_xyz
 1  'x, y, z'
loop_
 _atom_site_type_symbol
 _atom_site_label
 _atom_site_symmetry_multiplicity
 _atom_site_fract_x
 _atom_site_fract_y
 _atom_site_fract_z
 _atom_site_fract_occupancy
 Al  Al1  1  0.69121  0.63265  0.21256  1
 Al  Al2  1  0.33796  0.29914  0.79470  1
 H  H1  1  0.08028  0.65761  0.33481  1
 H  H2  1  -0.00107  0.97155  0.94910  1
 O  O1  1  0.24364  0.38059  0.28946  1
 O  O2  1  0.71215  0.72714  0.73767  1
 O  O3  1  0.11517  0.07236  0.16646  1
 O  O4  1  0.92299  0.89580  0.83359  1
