CIF file written using JARVIS-Tools package.
data_Ca2Pb
_symmetry_space_group_name_H-M  'Pnma'
_cell_length_a       5.14476
_cell_length_b       7.75504
_cell_length_c       9.56428
_cell_angle_alpha    90
_cell_angle_beta     90
_cell_angle_gamma    90

_symmetry_Int_Tables_number  62
_chemical_formula_structural  Ca2Pb
_chemical_formula_sum  Ca8Pb4
_cell_volume  381.59404649816076
_cell_formula_units_Z  4
loop_
  _symmetry_equiv_pos_site_id
 _symmetry_equiv_pos_as_xyz
 1  'x, y, z'
loop_
 _atom_site_type_symbol
 _atom_site_label
 _atom_site_symmetry_multiplicity
 _atom_site_fract_x
 _atom_site_fract_y
 _atom_site_fract_z
 _atom_site_fract_occupancy
 Ca  Ca1  1  0.75000  0.33416  0.07252  1
 Ca  Ca2  1  0.25000  0.66584  0.92748  1
 Ca  Ca3  1  0.75000  0.83416  0.42748  1
 Ca  Ca4  1  0.25000  0.16584  0.57252  1
 Ca  Ca5  1  0.75000  0.47984  0.69183  1
 Ca  Ca6  1  0.25000  0.52016  0.30817  1
 Ca  Ca7  1  0.75000  0.97984  0.80817  1
 Ca  Ca8  1  0.25000  0.02016  0.19183  1
 Pb  Pb1  1  0.75000  0.75391  0.10439  1
 Pb  Pb2  1  0.25000  0.24609  0.89561  1
 Pb  Pb3  1  0.75000  0.25391  0.39561  1
 Pb  Pb4  1  0.25000  0.74609  0.60439  1
