CIF file written using JARVIS-Tools package.
data_TiO2
_symmetry_space_group_name_H-M  'P6_3mc'
_cell_length_a       5.9363
_cell_length_b       5.9363
_cell_length_c       8.99392
_cell_angle_alpha    90
_cell_angle_beta     90
_cell_angle_gamma    120

_symmetry_Int_Tables_number  186
_chemical_formula_structural  TiO2
_chemical_formula_sum  Ti8O6
_cell_volume  274.4807460724528
_cell_formula_units_Z  8
loop_
  _symmetry_equiv_pos_site_id
 _symmetry_equiv_pos_as_xyz
 1  'x, y, z'
loop_
 _atom_site_type_symbol
 _atom_site_label
 _atom_site_symmetry_multiplicity
 _atom_site_fract_x
 _atom_site_fract_y
 _atom_site_fract_z
 _atom_site_fract_occupancy
 O  O1  1  0.04733  0.52366  0.83840  1
 O  O2  1  0.34174  0.17087  0.60247  1
 O  O3  1  0.52366  0.04733  0.33840  1
 O  O4  1  0.66667  0.33333  0.09774  1
 O  O5  1  0.47634  0.95267  0.83840  1
 O  O6  1  0.00000  0.00000  0.81394  1
 O  O7  1  0.82913  0.17087  0.60247  1
 O  O8  1  0.00000  0.00000  0.31394  1
 O  O9  1  0.95267  0.47634  0.33840  1
 O  O10  1  0.17087  0.34174  0.10247  1
 O  O11  1  0.82913  0.65826  0.60247  1
 O  O12  1  0.65826  0.82913  0.10247  1
 O  O13  1  0.47634  0.52366  0.83840  1
 O  O14  1  0.33333  0.66667  0.59774  1
 O  O15  1  0.17087  0.82913  0.10247  1
 O  O16  1  0.52366  0.47634  0.33840  1
 Ti  Ti1  1  0.16792  0.83208  0.71098  1
 Ti  Ti2  1  0.33333  0.66667  0.99063  1
 Ti  Ti3  1  0.83208  0.16792  0.21098  1
 Ti  Ti4  1  0.66667  0.33333  0.49063  1
 Ti  Ti5  1  0.66417  0.83208  0.71098  1
 Ti  Ti6  1  0.16792  0.33583  0.71098  1
 Ti  Ti7  1  0.83208  0.66417  0.21098  1
 Ti  Ti8  1  0.33583  0.16792  0.21098  1
