CIF file written using JARVIS-Tools package.
data_K2CoPbN6O12
_symmetry_space_group_name_H-M  'Fm-3'
_cell_length_a       7.34502
_cell_length_b       7.34503
_cell_length_c       7.34503
_cell_angle_alpha    60
_cell_angle_beta     60
_cell_angle_gamma    60

_symmetry_Int_Tables_number  202
_chemical_formula_structural  K2CoPbN6O12
_chemical_formula_sum  K2CoPbN6O2
_cell_volume  280.19791073094564
_cell_formula_units_Z  1
loop_
  _symmetry_equiv_pos_site_id
 _symmetry_equiv_pos_as_xyz
 1  'x, y, z'
loop_
 _atom_site_type_symbol
 _atom_site_label
 _atom_site_symmetry_multiplicity
 _atom_site_fract_x
 _atom_site_fract_y
 _atom_site_fract_z
 _atom_site_fract_occupancy
 Co  Co1  1  0.00000  0.00000  0.00000  1
 K  K1  1  0.75000  0.75000  0.75000  1
 K  K2  1  0.25000  0.25000  0.25000  1
 N  N1  1  0.80917  0.19083  0.19083  1
 N  N2  1  0.19083  0.80917  0.80917  1
 N  N3  1  0.19083  0.80917  0.19083  1
 N  N4  1  0.80917  0.19083  0.80917  1
 N  N5  1  0.80917  0.80917  0.19083  1
 N  N6  1  0.19083  0.19083  0.80917  1
 O  O1  1  0.85077  0.35761  0.64239  1
 O  O2  1  0.64239  0.35761  0.14923  1
 O  O3  1  0.35761  0.64239  0.85077  1
 O  O4  1  0.64239  0.14923  0.85077  1
 O  O5  1  0.35761  0.85077  0.14923  1
 O  O6  1  0.35761  0.14923  0.64239  1
 O  O7  1  0.64239  0.85077  0.35761  1
 O  O8  1  0.14923  0.64239  0.35761  1
 O  O9  1  0.85077  0.64239  0.14923  1
 O  O10  1  0.85077  0.14923  0.35761  1
 O  O11  1  0.14923  0.85077  0.64239  1
 O  O12  1  0.14923  0.35761  0.85077  1
 Pb  Pb1  1  0.50000  0.50000  0.50000  1
