CIF file written using JARVIS-Tools package.
data_MgFe2O4
_symmetry_space_group_name_H-M  'R3m'
_cell_length_a       5.78077
_cell_length_b       5.78077
_cell_length_c       5.84333
_cell_angle_alpha    60.3535
_cell_angle_beta     90
_cell_angle_gamma    120

_symmetry_Int_Tables_number  160
_chemical_formula_structural  MgFe2O4
_chemical_formula_sum  Mg2Fe4O8
_cell_volume  138.8083162598518
_cell_formula_units_Z  2
loop_
  _symmetry_equiv_pos_site_id
 _symmetry_equiv_pos_as_xyz
 1  'x, y, z'
loop_
 _atom_site_type_symbol
 _atom_site_label
 _atom_site_symmetry_multiplicity
 _atom_site_fract_x
 _atom_site_fract_y
 _atom_site_fract_z
 _atom_site_fract_occupancy
 Fe  Fe1  1  0.62390  0.24780  0.62698  1
 Fe  Fe2  1  0.24567  0.49134  0.26299  1
 Fe  Fe3  1  0.62390  0.74912  0.62698  1
 Fe  Fe4  1  0.12522  0.74912  0.62698  1
 Mg  Mg1  1  0.62674  0.25348  0.11978  1
 Mg  Mg2  1  0.00244  0.00489  0.99267  1
 O  O1  1  0.84364  0.22203  0.39959  1
 O  O2  1  0.37839  0.22203  0.39959  1
 O  O3  1  0.87168  0.28407  0.84425  1
 O  O4  1  0.86201  0.72401  0.41398  1
 O  O5  1  0.41240  0.28407  0.84425  1
 O  O6  1  0.87168  0.74335  0.84425  1
 O  O7  1  0.37839  0.75677  0.39959  1
 O  O8  1  0.38396  0.76791  0.84813  1
