CIF file written using JARVIS-Tools package.
data_PrH3O3
_symmetry_space_group_name_H-M  'P6_3/m'
_cell_length_a       6.48961
_cell_length_b       3.77767
_cell_length_c       6.48989
_cell_angle_alpha    90
_cell_angle_beta     119.991
_cell_angle_gamma    90

_symmetry_Int_Tables_number  176
_chemical_formula_structural  PrH3O3
_chemical_formula_sum  Pr2H6O6
_cell_volume  137.79980786865409
_cell_formula_units_Z  2
loop_
  _symmetry_equiv_pos_site_id
 _symmetry_equiv_pos_as_xyz
 1  'x, y, z'
loop_
 _atom_site_type_symbol
 _atom_site_label
 _atom_site_symmetry_multiplicity
 _atom_site_fract_x
 _atom_site_fract_y
 _atom_site_fract_z
 _atom_site_fract_occupancy
 H  H1  1  0.72785  0.25000  0.86147  1
 H  H2  1  0.13369  0.25000  0.27214  1
 H  H3  1  0.13849  0.25000  0.86651  1
 H  H4  1  0.27215  0.75000  0.13853  1
 H  H5  1  0.86631  0.75000  0.72786  1
 H  H6  1  0.86151  0.75000  0.13349  1
 O  O1  1  0.61018  0.25000  0.69198  1
 O  O2  1  0.08182  0.25000  0.38979  1
 O  O3  1  0.30798  0.25000  0.91824  1
 O  O4  1  0.38982  0.75000  0.30802  1
 O  O5  1  0.91818  0.75000  0.61021  1
 O  O6  1  0.69202  0.75000  0.08176  1
 Pr  Pr1  1  0.66669  0.25000  0.33333  1
 Pr  Pr2  1  0.33331  0.75000  0.66667  1
