CIF file written using JARVIS-Tools package.
data_V2PbO6
_symmetry_space_group_name_H-M  'Pnma'
_cell_length_a       3.65353
_cell_length_b       9.85901
_cell_length_c       12.8879
_cell_angle_alpha    90
_cell_angle_beta     90
_cell_angle_gamma    90

_symmetry_Int_Tables_number  62
_chemical_formula_structural  V2PbO6
_chemical_formula_sum  V8Pb4O24
_cell_volume  464.2234423310637
_cell_formula_units_Z  4
loop_
  _symmetry_equiv_pos_site_id
 _symmetry_equiv_pos_as_xyz
 1  'x, y, z'
loop_
 _atom_site_type_symbol
 _atom_site_label
 _atom_site_symmetry_multiplicity
 _atom_site_fract_x
 _atom_site_fract_y
 _atom_site_fract_z
 _atom_site_fract_occupancy
 O  O1  1  0.75000  0.51687  0.25937  1
 O  O2  1  0.25000  0.89201  0.02830  1
 O  O3  1  0.25000  0.81205  0.57205  1
 O  O4  1  0.75000  0.22304  0.78228  1
 O  O5  1  0.75000  0.82490  0.39695  1
 O  O6  1  0.75000  0.10799  0.97170  1
 O  O7  1  0.75000  0.72304  0.71772  1
 O  O8  1  0.25000  0.77696  0.21772  1
 O  O9  1  0.25000  0.98313  0.75937  1
 O  O10  1  0.25000  0.17510  0.60305  1
 O  O11  1  0.75000  0.68795  0.07205  1
 O  O12  1  0.75000  0.46965  0.90543  1
 O  O13  1  0.75000  0.60799  0.52830  1
 O  O14  1  0.75000  0.18795  0.42795  1
 O  O15  1  0.75000  0.01687  0.24063  1
 O  O16  1  0.25000  0.31205  0.92795  1
 O  O17  1  0.25000  0.67510  0.89695  1
 O  O18  1  0.25000  0.03035  0.40543  1
 O  O19  1  0.25000  0.27696  0.28228  1
 O  O20  1  0.75000  0.32490  0.10305  1
 O  O21  1  0.25000  0.53035  0.09457  1
 O  O22  1  0.75000  0.96965  0.59457  1
 O  O23  1  0.25000  0.48313  0.74063  1
 O  O24  1  0.25000  0.39201  0.47170  1
 Pb  Pb1  1  0.25000  0.12913  0.11841  1
 Pb  Pb2  1  0.75000  0.37087  0.61841  1
 Pb  Pb3  1  0.25000  0.62913  0.38159  1
 Pb  Pb4  1  0.75000  0.87087  0.88159  1
 V  V1  1  0.75000  0.49318  0.13062  1
 V  V2  1  0.25000  0.73916  0.09395  1
 V  V3  1  0.25000  0.50682  0.86938  1
 V  V4  1  0.75000  0.26084  0.90605  1
 V  V5  1  0.75000  0.76084  0.59395  1
 V  V6  1  0.75000  0.99318  0.36938  1
 V  V7  1  0.25000  0.00682  0.63062  1
 V  V8  1  0.25000  0.23916  0.40605  1
