CIF file written using JARVIS-Tools package.
data_Sr3Al2Ge2
_symmetry_space_group_name_H-M  'Immm'
_cell_length_a       4.24338
_cell_length_b       4.84127
_cell_length_c       10.1611
_cell_angle_alpha    103.782
_cell_angle_beta     102.052
_cell_angle_gamma    90

_symmetry_Int_Tables_number  71
_chemical_formula_structural  Sr3Al2Ge2
_chemical_formula_sum  Sr3Al2Ge2
_cell_volume  197.99247750491946
_cell_formula_units_Z  1
loop_
  _symmetry_equiv_pos_site_id
 _symmetry_equiv_pos_as_xyz
 1  'x, y, z'
loop_
 _atom_site_type_symbol
 _atom_site_label
 _atom_site_symmetry_multiplicity
 _atom_site_fract_x
 _atom_site_fract_y
 _atom_site_fract_z
 _atom_site_fract_occupancy
 Al  Al1  1  0.93340  0.43343  0.86680  1
 Al  Al2  1  0.06660  0.56657  0.13320  1
 Ge  Ge1  1  0.35807  0.35816  0.71614  1
 Ge  Ge2  1  0.64193  0.64184  0.28386  1
 Sr  Sr1  1  0.81512  0.81515  0.63024  1
 Sr  Sr2  1  0.50000  0.00000  -0.00000  1
 Sr  Sr3  1  0.18488  0.18485  0.36976  1
