CIF file written using JARVIS-Tools package.
data_K2TeBr6
_symmetry_space_group_name_H-M  'P4/mnc'
_cell_length_a       7.33884
_cell_length_b       7.33884
_cell_length_c       11.1199
_cell_angle_alpha    90
_cell_angle_beta     90
_cell_angle_gamma    90

_symmetry_Int_Tables_number  128
_chemical_formula_structural  K2TeBr6
_chemical_formula_sum  K4Te2Br2
_cell_volume  598.9019645344654
_cell_formula_units_Z  2
loop_
  _symmetry_equiv_pos_site_id
 _symmetry_equiv_pos_as_xyz
 1  'x, y, z'
loop_
 _atom_site_type_symbol
 _atom_site_label
 _atom_site_symmetry_multiplicity
 _atom_site_fract_x
 _atom_site_fract_y
 _atom_site_fract_z
 _atom_site_fract_occupancy
 Br  Br1  1  0.68448  0.19799  0.00000  1
 Br  Br2  1  0.18448  0.30201  0.50000  1
 Br  Br3  1  0.81552  0.69799  0.50000  1
 Br  Br4  1  0.30201  0.81552  0.50000  1
 Br  Br5  1  0.50000  0.50000  0.25326  1
 Br  Br6  1  0.00000  0.00000  0.24674  1
 Br  Br7  1  0.50000  0.50000  0.74674  1
 Br  Br8  1  0.19799  0.31552  0.00000  1
 Br  Br9  1  0.80201  0.68448  0.00000  1
 Br  Br10  1  0.31552  0.80201  0.00000  1
 Br  Br11  1  0.69799  0.18448  0.50000  1
 Br  Br12  1  0.00000  0.00000  0.75326  1
 K  K1  1  0.50000  0.00000  0.25000  1
 K  K2  1  0.00000  0.50000  0.75000  1
 K  K3  1  0.50000  0.00000  0.75000  1
 K  K4  1  0.00000  0.50000  0.25000  1
 Te  Te1  1  0.00000  0.00000  0.00000  1
 Te  Te2  1  0.50000  0.50000  0.50000  1
