CIF file written using JARVIS-Tools package.
data_YH3O3
_symmetry_space_group_name_H-M  'P6_3/m'
_cell_length_a       6.28636
_cell_length_b       3.54486
_cell_length_c       6.28745
_cell_angle_alpha    90
_cell_angle_beta     119.987
_cell_angle_gamma    90

_symmetry_Int_Tables_number  176
_chemical_formula_structural  YH3O3
_chemical_formula_sum  Y2H6O6
_cell_volume  121.35559927734562
_cell_formula_units_Z  2
loop_
  _symmetry_equiv_pos_site_id
 _symmetry_equiv_pos_as_xyz
 1  'x, y, z'
loop_
 _atom_site_type_symbol
 _atom_site_label
 _atom_site_symmetry_multiplicity
 _atom_site_fract_x
 _atom_site_fract_y
 _atom_site_fract_z
 _atom_site_fract_occupancy
 H  H1  1  0.85479  0.50000  0.13615  1
 H  H2  1  0.26912  0.50000  0.14169  1
 H  H3  1  0.86030  0.50000  0.72706  1
 H  H4  1  0.13469  0.00000  0.86724  1
 H  H5  1  0.72036  0.00000  0.86168  1
 H  H6  1  0.12917  0.00000  0.27631  1
 O  O1  1  0.91045  0.50000  0.31157  1
 O  O2  1  0.38886  0.50000  0.08596  1
 O  O3  1  0.68483  0.50000  0.60745  1
 O  O4  1  0.07903  0.00000  0.69182  1
 O  O5  1  0.60063  0.00000  0.91742  1
 O  O6  1  0.30464  0.00000  0.39593  1
 Y  Y1  1  0.32812  0.50000  0.66840  1
 Y  Y2  1  0.66136  0.00000  0.33497  1
