CIF file written using JARVIS-Tools package.
data_NaSmO2
_symmetry_space_group_name_H-M  'I4_1/amd'
_cell_length_a       4.71701
_cell_length_b       4.71701
_cell_length_c       6.26944
_cell_angle_alpha    67.902
_cell_angle_beta     67.902
_cell_angle_gamma    90

_symmetry_Int_Tables_number  141
_chemical_formula_structural  NaSmO2
_chemical_formula_sum  Na2Sm2O4
_cell_volume  118.11631699239825
_cell_formula_units_Z  2
loop_
  _symmetry_equiv_pos_site_id
 _symmetry_equiv_pos_as_xyz
 1  'x, y, z'
loop_
 _atom_site_type_symbol
 _atom_site_label
 _atom_site_symmetry_multiplicity
 _atom_site_fract_x
 _atom_site_fract_y
 _atom_site_fract_z
 _atom_site_fract_occupancy
 Na  Na1  1  0.50000  0.50000  0.00000  1
 Na  Na2  1  0.25000  0.75000  0.50000  1
 O  O1  1  0.22282  0.22282  0.55436  1
 O  O2  1  0.52718  0.02718  0.94564  1
 O  O3  1  0.97282  0.47282  0.05436  1
 O  O4  1  0.77718  0.77718  0.44564  1
 Sm  Sm1  1  0.00000  0.00000  0.00000  1
 Sm  Sm2  1  0.75000  0.25000  0.50000  1
