CIF file written using JARVIS-Tools package.
data_Na6ZnS4
_symmetry_space_group_name_H-M  'P6_3mc'
_cell_length_a       8.922
_cell_length_b       8.922
_cell_length_c       6.8759
_cell_angle_alpha    90
_cell_angle_beta     90
_cell_angle_gamma    120

_symmetry_Int_Tables_number  186
_chemical_formula_structural  Na6ZnS4
_chemical_formula_sum  Na2Zn2S8
_cell_volume  474.00701307732066
_cell_formula_units_Z  2
loop_
  _symmetry_equiv_pos_site_id
 _symmetry_equiv_pos_as_xyz
 1  'x, y, z'
loop_
 _atom_site_type_symbol
 _atom_site_label
 _atom_site_symmetry_multiplicity
 _atom_site_fract_x
 _atom_site_fract_y
 _atom_site_fract_z
 _atom_site_fract_occupancy
 Na  Na1  1  0.14711  0.85289  0.53839  1
 Na  Na2  1  0.85289  0.14711  0.03839  1
 Na  Na3  1  0.85289  0.70578  0.03839  1
 Na  Na4  1  0.14711  0.29422  0.53839  1
 Na  Na5  1  0.70578  0.85289  0.53839  1
 Na  Na6  1  0.93967  0.46984  0.36570  1
 Na  Na7  1  0.29422  0.14711  0.03839  1
 Na  Na8  1  0.06033  0.53016  0.86570  1
 Na  Na9  1  0.46984  0.93967  0.86570  1
 Na  Na10  1  0.53016  0.06033  0.36570  1
 Na  Na11  1  0.46984  0.53016  0.86570  1
 Na  Na12  1  0.53016  0.46984  0.36570  1
 S  S1  1  0.37424  0.18712  0.64083  1
 S  S2  1  0.81288  0.62576  0.64083  1
 S  S3  1  0.81288  0.18712  0.64083  1
 S  S4  1  0.62576  0.81288  0.14083  1
 S  S5  1  0.33333  0.66667  0.59584  1
 S  S6  1  0.66667  0.33333  0.09584  1
 S  S7  1  0.18712  0.81288  0.14083  1
 S  S8  1  0.18712  0.37424  0.14083  1
 Zn  Zn1  1  0.66667  0.33333  0.74886  1
 Zn  Zn2  1  0.33333  0.66667  0.24886  1
