CIF file written using JARVIS-Tools package.
data_Sr2CoCl2O2
_symmetry_space_group_name_H-M  'I4/mmm'
_cell_length_a       3.90829
_cell_length_b       3.90829
_cell_length_c       8.55131
_cell_angle_alpha    103.21
_cell_angle_beta     103.21
_cell_angle_gamma    90

_symmetry_Int_Tables_number  139
_chemical_formula_structural  Sr2CoCl2O2
_chemical_formula_sum  Sr2CoCl2O2
_cell_volume  123.60984433531917
_cell_formula_units_Z  1
loop_
  _symmetry_equiv_pos_site_id
 _symmetry_equiv_pos_as_xyz
 1  'x, y, z'
loop_
 _atom_site_type_symbol
 _atom_site_label
 _atom_site_symmetry_multiplicity
 _atom_site_fract_x
 _atom_site_fract_y
 _atom_site_fract_z
 _atom_site_fract_occupancy
 Cl  Cl1  1  0.18636  0.18636  0.37272  1
 Cl  Cl2  1  0.81364  0.81364  0.62728  1
 Co  Co1  1  0.00000  0.00000  0.00000  1
 O  O1  1  0.50000  -0.00000  0.00000  1
 O  O2  1  1.00000  0.50000  0.00000  1
 Sr  Sr1  1  0.60869  0.60869  0.21739  1
 Sr  Sr2  1  0.39131  0.39131  0.78261  1
