CIF file written using JARVIS-Tools package.
data_MgSi2SnO6
_symmetry_space_group_name_H-M  'C2/c'
_cell_length_a       5.49516
_cell_length_b       7.25014
_cell_length_c       7.25014
_cell_angle_alpha    84.0252
_cell_angle_beta     75.879
_cell_angle_gamma    75.879

_symmetry_Int_Tables_number  15
_chemical_formula_structural  MgSi2SnO6
_chemical_formula_sum  Mg2Si4Sn2O2
_cell_volume  271.3523637638349
_cell_formula_units_Z  2
loop_
  _symmetry_equiv_pos_site_id
 _symmetry_equiv_pos_as_xyz
 1  'x, y, z'
loop_
 _atom_site_type_symbol
 _atom_site_label
 _atom_site_symmetry_multiplicity
 _atom_site_fract_x
 _atom_site_fract_y
 _atom_site_fract_z
 _atom_site_fract_occupancy
 Mg  Mg1  1  0.75000  0.29625  0.70375  1
 Mg  Mg2  1  0.25000  0.70375  0.29625  1
 O  O1  1  0.45181  0.28275  0.26007  1
 O  O2  1  0.32733  0.94791  0.33035  1
 O  O3  1  0.54819  0.71725  0.73993  1
 O  O4  1  0.95181  0.26007  0.28275  1
 O  O5  1  0.04819  0.73993  0.71725  1
 O  O6  1  0.38038  0.41192  0.77270  1
 O  O7  1  0.88038  0.77271  0.41192  1
 O  O8  1  0.61962  0.58808  0.22730  1
 O  O9  1  0.82733  0.33035  0.94791  1
 O  O10  1  0.67267  0.05209  0.66965  1
 O  O11  1  0.11962  0.22729  0.58808  1
 O  O12  1  0.17267  0.66965  0.05209  1
 Si  Si1  1  0.78211  0.82660  0.63577  1
 Si  Si2  1  0.71789  0.36423  0.17340  1
 Si  Si3  1  0.28211  0.63577  0.82660  1
 Si  Si4  1  0.21789  0.17340  0.36423  1
 Sn  Sn1  1  0.75000  0.85111  0.14889  1
 Sn  Sn2  1  0.25000  0.14889  0.85111  1
