CIF file written using JARVIS-Tools package.
data_Tl2GeSe3
_symmetry_space_group_name_H-M  'P-1'
_cell_length_a       6.93994
_cell_length_b       6.99062
_cell_length_c       8.82326
_cell_angle_alpha    90.8608
_cell_angle_beta     110.987
_cell_angle_gamma    113.601

_symmetry_Int_Tables_number  2
_chemical_formula_structural  Tl2GeSe3
_chemical_formula_sum  Tl4Ge2Se6
_cell_volume  359.8978855983657
_cell_formula_units_Z  2
loop_
  _symmetry_equiv_pos_site_id
 _symmetry_equiv_pos_as_xyz
 1  'x, y, z'
loop_
 _atom_site_type_symbol
 _atom_site_label
 _atom_site_symmetry_multiplicity
 _atom_site_fract_x
 _atom_site_fract_y
 _atom_site_fract_z
 _atom_site_fract_occupancy
 Ge  Ge1  1  0.43075  0.54926  0.31197  1
 Ge  Ge2  1  0.56925  0.45074  0.68803  1
 Se  Se1  1  0.77024  0.72319  0.92126  1
 Se  Se2  1  0.22976  0.27681  0.07874  1
 Se  Se3  1  0.51893  0.89961  0.26589  1
 Se  Se4  1  0.48107  0.10039  0.73411  1
 Se  Se5  1  0.22281  0.46629  0.49438  1
 Se  Se6  1  0.77719  0.53371  0.50562  1
 Tl  Tl1  1  0.74831  0.31834  0.10569  1
 Tl  Tl2  1  0.25169  0.68166  0.89431  1
 Tl  Tl3  1  0.88693  0.05607  0.66675  1
 Tl  Tl4  1  0.11307  0.94393  0.33325  1
