CIF file written using JARVIS-Tools package.
data_YbIn2
_symmetry_space_group_name_H-M  'P6_3/mmc'
_cell_length_a       4.8844
_cell_length_b       4.8844
_cell_length_c       7.66031
_cell_angle_alpha    90
_cell_angle_beta     90
_cell_angle_gamma    120

_symmetry_Int_Tables_number  194
_chemical_formula_structural  YbIn2
_chemical_formula_sum  Yb2In4
_cell_volume  158.27032831183467
_cell_formula_units_Z  2
loop_
  _symmetry_equiv_pos_site_id
 _symmetry_equiv_pos_as_xyz
 1  'x, y, z'
loop_
 _atom_site_type_symbol
 _atom_site_label
 _atom_site_symmetry_multiplicity
 _atom_site_fract_x
 _atom_site_fract_y
 _atom_site_fract_z
 _atom_site_fract_occupancy
 In  In1  1  0.33333  0.66667  0.95083  1
 In  In2  1  0.33333  0.66667  0.54917  1
 In  In3  1  0.66667  0.33333  0.04917  1
 In  In4  1  0.66667  0.33333  0.45083  1
 Yb  Yb1  1  0.00000  0.00000  0.75000  1
 Yb  Yb2  1  0.00000  0.00000  0.25000  1
