CIF file written using JARVIS-Tools package.
data_ZrI2
_symmetry_space_group_name_H-M  'R-3'
_cell_length_a       9.07475
_cell_length_b       9.07475
_cell_length_c       9.07475
_cell_angle_alpha    107.289
_cell_angle_beta     107.289
_cell_angle_gamma    107.289

_symmetry_Int_Tables_number  148
_chemical_formula_structural  ZrI2
_chemical_formula_sum  Zr6I2
_cell_volume  617.3993708478691
_cell_formula_units_Z  6
loop_
  _symmetry_equiv_pos_site_id
 _symmetry_equiv_pos_as_xyz
 1  'x, y, z'
loop_
 _atom_site_type_symbol
 _atom_site_label
 _atom_site_symmetry_multiplicity
 _atom_site_fract_x
 _atom_site_fract_y
 _atom_site_fract_z
 _atom_site_fract_occupancy
 I  I1  1  0.07805  0.68839  0.22935  1
 I  I2  1  0.37881  0.45488  0.14944  1
 I  I3  1  0.14944  0.37881  0.45488  1
 I  I4  1  0.92195  0.31161  0.77065  1
 I  I5  1  0.62119  0.54512  0.85056  1
 I  I6  1  0.45488  0.14944  0.37881  1
 I  I7  1  0.54512  0.85056  0.62119  1
 I  I8  1  0.22935  0.07805  0.68839  1
 I  I9  1  0.31161  0.77065  0.92195  1
 I  I10  1  0.68839  0.22935  0.07805  1
 I  I11  1  0.77065  0.92195  0.31161  1
 I  I12  1  0.85056  0.62119  0.54512  1
 Zr  Zr1  1  0.27672  0.09223  0.03034  1
 Zr  Zr2  1  0.03034  0.27672  0.09223  1
 Zr  Zr3  1  0.09223  0.03034  0.27672  1
 Zr  Zr4  1  0.72328  0.90777  0.96966  1
 Zr  Zr5  1  0.96966  0.72328  0.90777  1
 Zr  Zr6  1  0.90777  0.96966  0.72328  1
