CIF file written using JARVIS-Tools package.
data_BiMoRh
_symmetry_space_group_name_H-M  'F-43m'
_cell_length_a       4.48659
_cell_length_b       4.48659
_cell_length_c       4.48659
_cell_angle_alpha    60
_cell_angle_beta     60
_cell_angle_gamma    60

_symmetry_Int_Tables_number  216
_chemical_formula_structural  BiMoRh
_chemical_formula_sum  BiMoRh
_cell_volume  63.861147896752584
_cell_formula_units_Z  1
loop_
  _symmetry_equiv_pos_site_id
 _symmetry_equiv_pos_as_xyz
 1  'x, y, z'
loop_
 _atom_site_type_symbol
 _atom_site_label
 _atom_site_symmetry_multiplicity
 _atom_site_fract_x
 _atom_site_fract_y
 _atom_site_fract_z
 _atom_site_fract_occupancy
 Bi  Bi1  1  0.50000  0.50000  0.50000  1
 Mo  Mo1  1  0.75000  0.75000  0.75000  1
 Rh  Rh1  1  0.00000  0.00000  0.00000  1
