CIF file written using JARVIS-Tools package.
data_HBr
_symmetry_space_group_name_H-M  'Cmc2_1'
_cell_length_a       4.04991
_cell_length_b       5.42119
_cell_length_c       4.04991
_cell_angle_alpha    90
_cell_angle_beta     80.1183
_cell_angle_gamma    90

_symmetry_Int_Tables_number  36
_chemical_formula_structural  HBr
_chemical_formula_sum  H2Br2
_cell_volume  87.59783095696719
_cell_formula_units_Z  2
loop_
  _symmetry_equiv_pos_site_id
 _symmetry_equiv_pos_as_xyz
 1  'x, y, z'
loop_
 _atom_site_type_symbol
 _atom_site_label
 _atom_site_symmetry_multiplicity
 _atom_site_fract_x
 _atom_site_fract_y
 _atom_site_fract_z
 _atom_site_fract_occupancy
 Br  Br1  1  0.74162  0.49431  0.25838  1
 Br  Br2  1  0.25838  0.99431  0.74162  1
 H  H1  1  0.93998  0.68469  0.06002  1
 H  H2  1  0.06002  0.18469  0.93998  1
