CIF file written using JARVIS-Tools package.
data_BaEr2NiO5
_symmetry_space_group_name_H-M  'Immm'
_cell_length_a       3.72614
_cell_length_b       5.73724
_cell_length_c       6.62519
_cell_angle_alpha    115.657
_cell_angle_beta     106.332
_cell_angle_gamma    90

_symmetry_Int_Tables_number  71
_chemical_formula_structural  BaEr2NiO5
_chemical_formula_sum  BaEr2NiO5
_cell_volume  121.29533549837424
_cell_formula_units_Z  1
loop_
  _symmetry_equiv_pos_site_id
 _symmetry_equiv_pos_as_xyz
 1  'x, y, z'
loop_
 _atom_site_type_symbol
 _atom_site_label
 _atom_site_symmetry_multiplicity
 _atom_site_fract_x
 _atom_site_fract_y
 _atom_site_fract_z
 _atom_site_fract_occupancy
 Ba  Ba1  1  0.50000  0.50000  0.00000  1
 Er  Er1  1  0.29802  0.79802  0.59603  1
 Er  Er2  1  0.70198  0.20198  0.40397  1
 Ni  Ni1  1  0.00000  0.00000  0.00000  1
 O  O1  1  0.50000  -0.00000  1.00000  1
 O  O2  1  0.15110  0.91125  0.30219  1
 O  O3  1  0.84890  0.08875  0.69781  1
 O  O4  1  0.84890  0.60906  0.69781  1
 O  O5  1  0.15110  0.39094  0.30219  1
