CIF file written using JARVIS-Tools package.
data_InSn2I5
_symmetry_space_group_name_H-M  'I4/mcm'
_cell_length_a       8.84564
_cell_length_b       8.84563
_cell_length_c       9.84233
_cell_angle_alpha    116.703
_cell_angle_beta     116.703
_cell_angle_gamma    90

_symmetry_Int_Tables_number  140
_chemical_formula_structural  InSn2I5
_chemical_formula_sum  In2Sn4I0
_cell_volume  594.6063866193779
_cell_formula_units_Z  2
loop_
  _symmetry_equiv_pos_site_id
 _symmetry_equiv_pos_as_xyz
 1  'x, y, z'
loop_
 _atom_site_type_symbol
 _atom_site_label
 _atom_site_symmetry_multiplicity
 _atom_site_fract_x
 _atom_site_fract_y
 _atom_site_fract_z
 _atom_site_fract_occupancy
 I  I1  1  0.00000  0.00000  0.00000  1
 I  I2  1  0.50000  0.50000  0.00000  1
 I  I3  1  0.51562  0.01562  0.71679  1
 I  I4  1  0.70117  0.51562  0.71679  1
 I  I5  1  0.01562  0.20117  0.71679  1
 I  I6  1  0.29883  0.48438  0.28321  1
 I  I7  1  0.98438  0.79883  0.28321  1
 I  I8  1  0.79883  0.29883  0.28321  1
 I  I9  1  0.48438  0.98438  0.28321  1
 I  I10  1  0.20117  0.70117  0.71679  1
 In  In1  1  0.25000  0.25000  0.50000  1
 In  In2  1  0.75000  0.75000  0.50000  1
 Sn  Sn1  1  0.16844  0.66844  0.00000  1
 Sn  Sn2  1  0.33156  0.16844  -0.00000  1
 Sn  Sn3  1  0.66844  0.83156  0.00000  1
 Sn  Sn4  1  0.83156  0.33156  -0.00000  1
