CIF file written using JARVIS-Tools package.
data_BaH4Br2O2
_symmetry_space_group_name_H-M  'C2/c'
_cell_length_a       6.3443
_cell_length_b       6.3443
_cell_length_c       8.36717
_cell_angle_alpha    70.7209
_cell_angle_beta     109.279
_cell_angle_gamma    112.049

_symmetry_Int_Tables_number  15
_chemical_formula_structural  BaH4Br2O2
_chemical_formula_sum  Ba2H8Br4O4
_cell_volume  286.3423059055763
_cell_formula_units_Z  2
loop_
  _symmetry_equiv_pos_site_id
 _symmetry_equiv_pos_as_xyz
 1  'x, y, z'
loop_
 _atom_site_type_symbol
 _atom_site_label
 _atom_site_symmetry_multiplicity
 _atom_site_fract_x
 _atom_site_fract_y
 _atom_site_fract_z
 _atom_site_fract_occupancy
 Ba  Ba1  1  0.89919  0.89919  0.75000  1
 Ba  Ba2  1  0.10081  0.10081  0.25000  1
 Br  Br1  1  0.69507  0.25827  0.35248  1
 Br  Br2  1  0.25827  0.69507  0.14752  1
 Br  Br3  1  0.30493  0.74173  0.64752  1
 Br  Br4  1  0.74173  0.30493  0.85248  1
 H  H1  1  0.76734  0.59035  0.45043  1
 H  H2  1  0.40965  0.23266  0.95043  1
 H  H3  1  0.59035  0.76734  0.04957  1
 H  H4  1  0.75327  0.60494  0.13187  1
 H  H5  1  0.24673  0.39506  0.86813  1
 H  H6  1  0.39506  0.24673  0.63187  1
 H  H7  1  0.60494  0.75327  0.36813  1
 H  H8  1  0.23266  0.40965  0.54957  1
 O  O1  1  0.23729  0.25149  0.55829  1
 O  O2  1  0.74851  0.76271  0.05829  1
 O  O3  1  0.25149  0.23729  0.94171  1
 O  O4  1  0.76271  0.74851  0.44171  1
