CIF file written using JARVIS-Tools package.
data_HOF
_symmetry_space_group_name_H-M  'P2_12_12_1'
_cell_length_a       4.00282
_cell_length_b       4.80362
_cell_length_c       5.74657
_cell_angle_alpha    90
_cell_angle_beta     90
_cell_angle_gamma    90

_symmetry_Int_Tables_number  19
_chemical_formula_structural  HOF
_chemical_formula_sum  H4O4F4
_cell_volume  110.49535422164269
_cell_formula_units_Z  4
loop_
  _symmetry_equiv_pos_site_id
 _symmetry_equiv_pos_as_xyz
 1  'x, y, z'
loop_
 _atom_site_type_symbol
 _atom_site_label
 _atom_site_symmetry_multiplicity
 _atom_site_fract_x
 _atom_site_fract_y
 _atom_site_fract_z
 _atom_site_fract_occupancy
 F  F1  1  0.91759  0.75362  0.15483  1
 F  F2  1  0.58241  0.24638  0.65483  1
 F  F3  1  0.41759  0.74638  0.84517  1
 F  F4  1  0.08241  0.25362  0.34517  1
 H  H1  1  0.47393  0.41236  0.21900  1
 H  H2  1  0.02607  0.58764  0.71900  1
 H  H3  1  0.97393  0.08764  0.78100  1
 H  H4  1  0.52607  -0.08764  0.28100  1
 O  O1  1  0.64239  0.73159  0.32142  1
 O  O2  1  0.85761  0.26841  0.82142  1
 O  O3  1  0.14239  0.76841  0.67858  1
 O  O4  1  0.35761  0.23159  0.17858  1
