CIF file written using JARVIS-Tools package.
data_Rb2O3
_symmetry_space_group_name_H-M  'I-43d'
_cell_length_a       7.98009
_cell_length_b       7.98009
_cell_length_c       7.98009
_cell_angle_alpha    109.471
_cell_angle_beta     109.471
_cell_angle_gamma    109.471

_symmetry_Int_Tables_number  220
_chemical_formula_structural  Rb2O3
_chemical_formula_sum  Rb8O2
_cell_volume  391.2027555393407
_cell_formula_units_Z  4
loop_
  _symmetry_equiv_pos_site_id
 _symmetry_equiv_pos_as_xyz
 1  'x, y, z'
loop_
 _atom_site_type_symbol
 _atom_site_label
 _atom_site_symmetry_multiplicity
 _atom_site_fract_x
 _atom_site_fract_y
 _atom_site_fract_z
 _atom_site_fract_occupancy
 O  O1  1  0.75000  0.95137  0.20137  1
 O  O2  1  0.45137  0.25000  0.70137  1
 O  O3  1  0.04863  0.75000  0.79863  1
 O  O4  1  0.79863  0.04863  0.75000  1
 O  O5  1  0.70137  0.45137  0.25000  1
 O  O6  1  0.25000  0.70137  0.45137  1
 O  O7  1  0.95137  0.20137  0.75000  1
 O  O8  1  0.20137  0.75000  0.95137  1
 O  O9  1  0.25000  0.54863  0.29863  1
 O  O10  1  0.29863  0.25000  0.54863  1
 O  O11  1  0.75000  0.79863  0.04863  1
 O  O12  1  0.54863  0.29863  0.25000  1
 Rb  Rb1  1  0.39253  0.50000  0.00000  1
 Rb  Rb2  1  0.10747  0.10747  0.10747  1
 Rb  Rb3  1  0.89253  0.50000  0.00000  1
 Rb  Rb4  1  0.00000  0.89253  0.50000  1
 Rb  Rb5  1  0.50000  -0.00000  0.89253  1
 Rb  Rb6  1  0.00000  0.39253  0.50000  1
 Rb  Rb7  1  0.50000  -0.00000  0.39253  1
 Rb  Rb8  1  0.60747  0.60747  0.60747  1
