CIF file written using JARVIS-Tools package.
data_CrPO4
_symmetry_space_group_name_H-M  'Pnma'
_cell_length_a       4.68333
_cell_length_b       6.29072
_cell_length_c       8.66009
_cell_angle_alpha    90
_cell_angle_beta     90
_cell_angle_gamma    90

_symmetry_Int_Tables_number  62
_chemical_formula_structural  CrPO4
_chemical_formula_sum  Cr4P4O6
_cell_volume  255.1394909278371
_cell_formula_units_Z  4
loop_
  _symmetry_equiv_pos_site_id
 _symmetry_equiv_pos_as_xyz
 1  'x, y, z'
loop_
 _atom_site_type_symbol
 _atom_site_label
 _atom_site_symmetry_multiplicity
 _atom_site_fract_x
 _atom_site_fract_y
 _atom_site_fract_z
 _atom_site_fract_occupancy
 Cr  Cr1  1  0.00000  0.00000  0.00000  1
 Cr  Cr2  1  0.00000  0.50000  0.00000  1
 Cr  Cr3  1  0.50000  0.00000  0.50000  1
 Cr  Cr4  1  0.50000  0.50000  0.50000  1
 O  O1  1  0.66298  0.95442  0.12296  1
 O  O2  1  0.66298  0.54558  0.12296  1
 O  O3  1  0.06077  0.25000  0.14055  1
 O  O4  1  0.33702  0.45442  0.87704  1
 O  O5  1  0.70116  0.25000  0.38123  1
 O  O6  1  0.56077  0.75000  0.35945  1
 O  O7  1  0.20116  0.75000  0.11877  1
 O  O8  1  0.16298  0.04558  0.37704  1
 O  O9  1  0.83702  0.95442  0.62296  1
 O  O10  1  0.43923  0.25000  0.64055  1
 O  O11  1  0.16298  0.45442  0.37704  1
 O  O12  1  0.29884  0.75000  0.61877  1
 O  O13  1  0.79884  0.25000  0.88123  1
 O  O14  1  0.93923  0.75000  0.85945  1
 O  O15  1  0.83702  0.54558  0.62296  1
 O  O16  1  0.33702  0.04558  0.87704  1
 P  P1  1  0.47806  0.25000  0.82300  1
 P  P2  1  0.97806  0.75000  0.67700  1
 P  P3  1  0.02194  0.25000  0.32300  1
 P  P4  1  0.52194  0.75000  0.17700  1
