CIF file written using JARVIS-Tools package.
data_Ti3V2O9
_symmetry_space_group_name_H-M  'C2/c'
_cell_length_a       10.7782
_cell_length_b       10.7782
_cell_length_c       6.87699
_cell_angle_alpha    73.3781
_cell_angle_beta     106.622
_cell_angle_gamma    152.516

_symmetry_Int_Tables_number  15
_chemical_formula_structural  Ti3V2O9
_chemical_formula_sum  Ti6V4O8
_cell_volume  352.3475916431243
_cell_formula_units_Z  2
loop_
  _symmetry_equiv_pos_site_id
 _symmetry_equiv_pos_as_xyz
 1  'x, y, z'
loop_
 _atom_site_type_symbol
 _atom_site_label
 _atom_site_symmetry_multiplicity
 _atom_site_fract_x
 _atom_site_fract_y
 _atom_site_fract_z
 _atom_site_fract_occupancy
 O  O1  1  0.79360  0.22688  0.65111  1
 O  O2  1  0.81156  0.01385  0.49559  1
 O  O3  1  0.01385  0.81156  0.00441  1
 O  O4  1  0.18844  0.98615  0.50441  1
 O  O5  1  0.81262  0.81262  0.75000  1
 O  O6  1  0.25674  0.54324  0.47657  1
 O  O7  1  0.54324  0.25674  0.02343  1
 O  O8  1  0.74326  0.45676  0.52343  1
 O  O9  1  0.98615  0.18844  0.99559  1
 O  O10  1  0.38568  0.32950  0.63538  1
 O  O11  1  0.61432  0.67050  0.36462  1
 O  O12  1  0.67050  0.61432  0.13538  1
 O  O13  1  0.22688  0.79360  0.84889  1
 O  O14  1  0.18738  0.18738  0.25000  1
 O  O15  1  0.77312  0.20640  0.15111  1
 O  O16  1  0.20640  0.77312  0.34889  1
 O  O17  1  0.32950  0.38568  0.86462  1
 O  O18  1  0.45676  0.74326  0.97657  1
 Ti  Ti1  1  0.74253  0.10612  0.93365  1
 Ti  Ti2  1  0.10612  0.74253  0.56635  1
 Ti  Ti3  1  0.25747  0.89388  0.06635  1
 Ti  Ti4  1  0.89388  0.25747  0.43365  1
 Ti  Ti5  1  0.00000  0.00000  0.00000  1
 Ti  Ti6  1  0.00000  -0.00000  0.50000  1
 V  V1  1  0.60909  0.48395  0.91886  1
 V  V2  1  0.48395  0.60909  0.58114  1
 V  V3  1  0.51605  0.39091  0.41886  1
 V  V4  1  0.39091  0.51605  0.08114  1
