CIF file written using JARVIS-Tools package.
data_Tl2ZnI4
_symmetry_space_group_name_H-M  'P2_1'
_cell_length_a       7.80997
_cell_length_b       8.06205
_cell_length_c       9.22637
_cell_angle_alpha    90
_cell_angle_beta     107.387
_cell_angle_gamma    90

_symmetry_Int_Tables_number  4
_chemical_formula_structural  Tl2ZnI4
_chemical_formula_sum  Tl4Zn2I8
_cell_volume  554.3878133845526
_cell_formula_units_Z  2
loop_
  _symmetry_equiv_pos_site_id
 _symmetry_equiv_pos_as_xyz
 1  'x, y, z'
loop_
 _atom_site_type_symbol
 _atom_site_label
 _atom_site_symmetry_multiplicity
 _atom_site_fract_x
 _atom_site_fract_y
 _atom_site_fract_z
 _atom_site_fract_occupancy
 I  I1  1  0.03441  0.73632  0.26657  1
 I  I2  1  0.96559  0.23632  0.73343  1
 I  I3  1  0.97560  0.24661  0.25013  1
 I  I4  1  0.02440  0.74661  0.74987  1
 I  I5  1  0.41057  0.44731  0.61250  1
 I  I6  1  0.58943  0.94731  0.38750  1
 I  I7  1  0.40527  0.44050  0.08906  1
 I  I8  1  0.59473  0.94050  0.91094  1
 Tl  Tl1  1  0.25087  0.02749  0.56378  1
 Tl  Tl2  1  0.74913  0.52749  0.43622  1
 Tl  Tl3  1  0.23615  0.01709  0.05841  1
 Tl  Tl4  1  0.76385  0.51709  0.94159  1
 Zn  Zn1  1  0.78434  0.97200  0.19861  1
 Zn  Zn2  1  0.21566  0.47200  0.80139  1
