CIF file written using JARVIS-Tools package.
data_Li4H3BrO3
_symmetry_space_group_name_H-M  'P2_1/m'
_cell_length_a       5.39535
_cell_length_b       7.48105
_cell_length_c       6.44378
_cell_angle_alpha    90
_cell_angle_beta     92.7531
_cell_angle_gamma    90

_symmetry_Int_Tables_number  11
_chemical_formula_structural  Li4H3BrO3
_chemical_formula_sum  Li8H6Br2O6
_cell_volume  259.7894548954829
_cell_formula_units_Z  2
loop_
  _symmetry_equiv_pos_site_id
 _symmetry_equiv_pos_as_xyz
 1  'x, y, z'
loop_
 _atom_site_type_symbol
 _atom_site_label
 _atom_site_symmetry_multiplicity
 _atom_site_fract_x
 _atom_site_fract_y
 _atom_site_fract_z
 _atom_site_fract_occupancy
 Br  Br1  1  0.83390  0.25000  0.66578  1
 Br  Br2  1  0.16610  0.75000  0.33422  1
 H  H1  1  0.83817  0.75000  0.62891  1
 H  H2  1  0.19374  0.46470  0.76903  1
 H  H3  1  0.19374  0.03530  0.76903  1
 H  H4  1  0.16183  0.25000  0.37109  1
 H  H5  1  0.80626  0.96470  0.23097  1
 H  H6  1  0.80626  0.53530  0.23097  1
 Li  Li1  1  0.07285  0.75000  0.91917  1
 Li  Li2  1  0.65015  0.52127  0.86490  1
 Li  Li3  1  0.65015  0.97873  0.86490  1
 Li  Li4  1  0.59769  0.25000  0.31339  1
 Li  Li5  1  0.40231  0.75000  0.68661  1
 Li  Li6  1  0.34985  0.02127  0.13510  1
 Li  Li7  1  0.34985  0.47873  0.13510  1
 Li  Li8  1  0.92715  0.25000  0.08083  1
 O  O1  1  0.71017  0.44753  0.14871  1
 O  O2  1  0.28983  0.94753  0.85129  1
 O  O3  1  0.28983  0.55247  0.85129  1
 O  O4  1  0.24424  0.25000  0.23895  1
 O  O5  1  0.75576  0.75000  0.76105  1
 O  O6  1  0.71017  0.05247  0.14871  1
