CIF file written using JARVIS-Tools package.
data_Na5CoSO2
_symmetry_space_group_name_H-M  'P4/mmm'
_cell_length_a       4.58313
_cell_length_b       4.58313
_cell_length_c       8.01243
_cell_angle_alpha    90
_cell_angle_beta     90
_cell_angle_gamma    90

_symmetry_Int_Tables_number  123
_chemical_formula_structural  Na5CoSO2
_chemical_formula_sum  Na5CoSO2
_cell_volume  168.30216239828238
_cell_formula_units_Z  1
loop_
  _symmetry_equiv_pos_site_id
 _symmetry_equiv_pos_as_xyz
 1  'x, y, z'
loop_
 _atom_site_type_symbol
 _atom_site_label
 _atom_site_symmetry_multiplicity
 _atom_site_fract_x
 _atom_site_fract_y
 _atom_site_fract_z
 _atom_site_fract_occupancy
 Co  Co1  1  0.00000  0.00000  0.00000  1
 Na  Na1  1  0.00000  0.00000  0.50000  1
 Na  Na2  1  0.50000  0.00000  0.74864  1
 Na  Na3  1  0.00000  0.50000  0.25136  1
 Na  Na4  1  0.50000  0.00000  0.25136  1
 Na  Na5  1  0.00000  0.50000  0.74864  1
 O  O1  1  0.00000  0.00000  0.21885  1
 O  O2  1  0.00000  0.00000  0.78115  1
 S  S1  1  0.50000  0.50000  0.50000  1
