CIF file written using JARVIS-Tools package.
data_KCaNb2O6F
_symmetry_space_group_name_H-M  'Imma'
_cell_length_a       7.56311
_cell_length_b       7.5631
_cell_length_c       7.61474
_cell_angle_alpha    59.7739
_cell_angle_beta     59.7739
_cell_angle_gamma    59.0826

_symmetry_Int_Tables_number  74
_chemical_formula_structural  KCaNb2O6F
_chemical_formula_sum  K2Ca2Nb4O2F2
_cell_volume  304.76569562829235
_cell_formula_units_Z  2
loop_
  _symmetry_equiv_pos_site_id
 _symmetry_equiv_pos_as_xyz
 1  'x, y, z'
loop_
 _atom_site_type_symbol
 _atom_site_label
 _atom_site_symmetry_multiplicity
 _atom_site_fract_x
 _atom_site_fract_y
 _atom_site_fract_z
 _atom_site_fract_occupancy
 Ca  Ca1  1  0.50000  0.50000  0.00000  1
 Ca  Ca2  1  0.50000  0.50000  0.50000  1
 F  F1  1  0.59769  0.59769  0.65231  1
 F  F2  1  0.40231  0.40231  0.34769  1
 K  K1  1  0.50000  -0.00000  0.50000  1
 K  K2  1  0.00000  0.50000  0.50000  1
 Nb  Nb1  1  0.50000  -0.00000  0.00000  1
 Nb  Nb2  1  0.00000  0.00000  0.00000  1
 Nb  Nb3  1  0.00000  0.50000  -0.00000  1
 Nb  Nb4  1  0.00000  0.00000  0.50000  1
 O  O1  1  0.31836  0.31836  0.93164  1
 O  O2  1  0.07389  0.68140  0.05978  1
 O  O3  1  0.05977  0.05977  0.69023  1
 O  O4  1  0.07389  0.68140  0.68493  1
 O  O5  1  0.31860  0.92611  0.31507  1
 O  O6  1  0.68164  0.68164  0.06836  1
 O  O7  1  0.68140  0.07389  0.68493  1
 O  O8  1  0.92611  0.31860  0.31507  1
 O  O9  1  0.94023  0.94023  0.30977  1
 O  O10  1  0.92611  0.31860  0.94022  1
 O  O11  1  0.68140  0.07389  0.05978  1
 O  O12  1  0.31860  0.92611  0.94022  1
