CIF file written using JARVIS-Tools package.
data_ZrTiSe4
_symmetry_space_group_name_H-M  'P2/m'
_cell_length_a       3.67883
_cell_length_b       6.10787
_cell_length_c       6.37835
_cell_angle_alpha    90.0986
_cell_angle_beta     90
_cell_angle_gamma    90

_symmetry_Int_Tables_number  10
_chemical_formula_structural  ZrTiSe4
_chemical_formula_sum  ZrTiSe4
_cell_volume  143.32025045387985
_cell_formula_units_Z  1
loop_
  _symmetry_equiv_pos_site_id
 _symmetry_equiv_pos_as_xyz
 1  'x, y, z'
loop_
 _atom_site_type_symbol
 _atom_site_label
 _atom_site_symmetry_multiplicity
 _atom_site_fract_x
 _atom_site_fract_y
 _atom_site_fract_z
 _atom_site_fract_occupancy
 Se  Se1  1  0.00000  0.25964  0.32173  1
 Se  Se2  1  0.50000  0.74910  0.15446  1
 Se  Se3  1  0.50000  0.25090  0.84554  1
 Se  Se4  1  0.00000  0.74036  0.67827  1
 Ti  Ti1  1  0.00000  0.00000  0.00000  1
 Zr  Zr1  1  0.50000  0.00000  0.50000  1
