CIF file written using JARVIS-Tools package.
data_RbTiS2
_symmetry_space_group_name_H-M  'R3m'
_cell_length_a       7.91487
_cell_length_b       7.91487
_cell_length_c       7.91487
_cell_angle_alpha    26.7078
_cell_angle_beta     26.7078
_cell_angle_gamma    26.7079

_symmetry_Int_Tables_number  160
_chemical_formula_structural  RbTiS2
_chemical_formula_sum  RbTiS2
_cell_volume  88.30643079061052
_cell_formula_units_Z  1
loop_
  _symmetry_equiv_pos_site_id
 _symmetry_equiv_pos_as_xyz
 1  'x, y, z'
loop_
 _atom_site_type_symbol
 _atom_site_label
 _atom_site_symmetry_multiplicity
 _atom_site_fract_x
 _atom_site_fract_y
 _atom_site_fract_z
 _atom_site_fract_occupancy
 Rb  Rb1  1  0.81807  0.81807  0.81807  1
 S  S1  1  0.59298  0.59298  0.59298  1
 S  S2  1  0.38007  0.38007  0.38007  1
 Ti  Ti1  1  0.98687  0.98687  0.98687  1
