CIF file written using JARVIS-Tools package.
data_LiNiO2
_symmetry_space_group_name_H-M  'Cm'
_cell_length_a       2.8237
_cell_length_b       2.98807
_cell_length_c       4.96389
_cell_angle_alpha    92.3532
_cell_angle_beta     90.0435
_cell_angle_gamma    118.197

_symmetry_Int_Tables_number  8
_chemical_formula_structural  LiNiO2
_chemical_formula_sum  LiNiO2
_cell_volume  36.871449179448945
_cell_formula_units_Z  1
loop_
  _symmetry_equiv_pos_site_id
 _symmetry_equiv_pos_as_xyz
 1  'x, y, z'
loop_
 _atom_site_type_symbol
 _atom_site_label
 _atom_site_symmetry_multiplicity
 _atom_site_fract_x
 _atom_site_fract_y
 _atom_site_fract_z
 _atom_site_fract_occupancy
 Li  Li1  1  0.66332  0.32764  0.59696  1
 Ni  Ni1  1  0.99511  0.98988  0.02944  1
 O  O1  1  0.35001  0.70028  0.80156  1
 O  O2  1  0.65826  0.31570  0.22125  1
