CIF file written using JARVIS-Tools package.
data_Na2Ti3Cl8
_symmetry_space_group_name_H-M  'R-3m'
_cell_length_a       7.8259
_cell_length_b       7.8259
_cell_length_c       7.8259
_cell_angle_alpha    54.8438
_cell_angle_beta     54.8438
_cell_angle_gamma    54.8438

_symmetry_Int_Tables_number  166
_chemical_formula_structural  Na2Ti3Cl8
_chemical_formula_sum  Na2Ti3Cl8
_cell_volume  298.2282982598111
_cell_formula_units_Z  1
loop_
  _symmetry_equiv_pos_site_id
 _symmetry_equiv_pos_as_xyz
 1  'x, y, z'
loop_
 _atom_site_type_symbol
 _atom_site_label
 _atom_site_symmetry_multiplicity
 _atom_site_fract_x
 _atom_site_fract_y
 _atom_site_fract_z
 _atom_site_fract_occupancy
 Cl  Cl1  1  0.40729  0.40729  0.40729  1
 Cl  Cl2  1  0.59271  0.59271  0.59271  1
 Cl  Cl3  1  0.09707  0.58443  0.09707  1
 Cl  Cl4  1  0.09707  0.09707  0.58443  1
 Cl  Cl5  1  0.58443  0.09707  0.09707  1
 Cl  Cl6  1  0.41557  0.90293  0.90293  1
 Cl  Cl7  1  0.90293  0.41557  0.90293  1
 Cl  Cl8  1  0.90293  0.90293  0.41557  1
 Na  Na1  1  0.16220  0.16220  0.16220  1
 Na  Na2  1  0.83780  0.83780  0.83780  1
 Ti  Ti1  1  0.50000  0.50000  0.00000  1
 Ti  Ti2  1  -0.00000  0.50000  0.50000  1
 Ti  Ti3  1  0.50000  0.00000  0.50000  1
