data_image0
_chemical_formula_structural       Cd3Dy3Ga3
_chemical_formula_sum              "Cd3 Dy3 Ga3"
_cell_length_a       7.25584
_cell_length_b       7.25584
_cell_length_c       4.39321
_cell_angle_alpha    90
_cell_angle_beta     90
_cell_angle_gamma    120.001

_space_group_name_H-M_alt    "P 1"
_space_group_IT_number       1

loop_
  _space_group_symop_operation_xyz
  'x, y, z'

loop_
  _atom_site_type_symbol
  _atom_site_label
  _atom_site_symmetry_multiplicity
  _atom_site_fract_x
  _atom_site_fract_y
  _atom_site_fract_z
  _atom_site_occupancy
  Cd  Cd1       1.0  0.24900  0.00001  0.00000  1.0000
  Cd  Cd2       1.0  0.00001  0.24900  0.00000  1.0000
  Cd  Cd3       1.0  0.75100  0.75100  0.00000  1.0000
  Dy  Dy1       1.0  0.57700  0.00002  0.50000  1.0000
  Dy  Dy2       1.0  0.42300  0.42300  0.50000  1.0000
  Dy  Dy3       1.0  0.00002  0.57700  0.50000  1.0000
  Ga  Ga1       1.0  0.66700  0.33300  0.00000  1.0000
  Ga  Ga2       1.0  0.33300  0.66700  0.00000  1.0000
  Ga  Ga3       1.0  0.00000  0.00000  0.50000  1.0000
