CIF file written using JARVIS-Tools package.
data_CeSmO2
_symmetry_space_group_name_H-M  'R-3m'
_cell_length_a       3.496
_cell_length_b       6.10036
_cell_length_c       3.496
_cell_angle_alpha    106.651
_cell_angle_beta     60
_cell_angle_gamma    106.651

_symmetry_Int_Tables_number  166
_chemical_formula_structural  CeSmO2
_chemical_formula_sum  CeSmO2
_cell_volume  60.93285620563598
_cell_formula_units_Z  1
loop_
  _symmetry_equiv_pos_site_id
 _symmetry_equiv_pos_as_xyz
 1  'x, y, z'
loop_
 _atom_site_type_symbol
 _atom_site_label
 _atom_site_symmetry_multiplicity
 _atom_site_fract_x
 _atom_site_fract_y
 _atom_site_fract_z
 _atom_site_fract_occupancy
 Ce  Ce1  1  0.00000  0.00000  0.00000  1
 O  O1  1  0.24752  0.74255  0.24752  1
 O  O2  1  0.75248  0.25745  0.75248  1
 Sm  Sm1  1  0.50000  0.50000  0.50000  1
