CIF file written using JARVIS-Tools package.
data_BH8CN
_symmetry_space_group_name_H-M  'Pnma'
_cell_length_a       4.90017
_cell_length_b       6.44953
_cell_length_c       10.7416
_cell_angle_alpha    90
_cell_angle_beta     90
_cell_angle_gamma    90

_symmetry_Int_Tables_number  62
_chemical_formula_structural  BH8CN
_chemical_formula_sum  B4H32C4N4
_cell_volume  339.4756366543271
_cell_formula_units_Z  4
loop_
  _symmetry_equiv_pos_site_id
 _symmetry_equiv_pos_as_xyz
 1  'x, y, z'
loop_
 _atom_site_type_symbol
 _atom_site_label
 _atom_site_symmetry_multiplicity
 _atom_site_fract_x
 _atom_site_fract_y
 _atom_site_fract_z
 _atom_site_fract_occupancy
 B  B1  1  0.81678  0.25000  0.47060  1
 B  B2  1  0.68322  0.25000  0.97060  1
 B  B3  1  0.18322  0.75000  0.52940  1
 B  B4  1  0.31678  0.75000  0.02940  1
 C  C1  1  0.16164  0.25000  0.28718  1
 C  C2  1  0.33836  0.25000  0.78718  1
 C  C3  1  0.66164  0.75000  0.21282  1
 C  C4  1  0.83836  0.75000  0.71282  1
 H  H1  1  0.22606  0.37802  0.46120  1
 H  H2  1  0.56261  0.61172  0.25141  1
 H  H3  1  0.93739  0.61172  0.75141  1
 H  H4  1  0.18396  0.75000  0.41545  1
 H  H5  1  0.62086  0.75000  0.73765  1
 H  H6  1  0.56261  0.88828  0.25141  1
 H  H7  1  0.70588  0.40472  0.42782  1
 H  H8  1  0.77394  0.87802  0.53880  1
 H  H9  1  0.43739  0.38828  0.74859  1
 H  H10  1  0.37914  0.25000  0.26235  1
 H  H11  1  0.68396  0.25000  0.08455  1
 H  H12  1  0.06261  0.11172  0.24859  1
 H  H13  1  0.87914  0.75000  0.23765  1
 H  H14  1  0.29412  0.59528  0.57218  1
 H  H15  1  0.06261  0.38828  0.24859  1
 H  H16  1  0.77394  0.62198  0.53880  1
 H  H17  1  0.12086  0.25000  0.76235  1
 H  H18  1  0.31604  0.75000  0.91545  1
 H  H19  1  0.22606  0.12198  0.46120  1
 H  H20  1  0.79412  0.40472  0.92782  1
 H  H21  1  0.29412  0.90472  0.57218  1
 H  H22  1  0.20588  0.90472  0.07218  1
 H  H23  1  0.20588  0.59528  0.07218  1
 H  H24  1  0.81604  0.25000  0.58455  1
 H  H25  1  0.79412  0.09528  0.92782  1
 H  H26  1  0.43739  0.11172  0.74859  1
 H  H27  1  0.93739  0.88828  0.75141  1
 H  H28  1  0.72606  0.62198  0.03880  1
 H  H29  1  0.72606  0.87802  0.03880  1
 H  H30  1  0.27394  0.12198  0.96120  1
 H  H31  1  0.27394  0.37802  0.96120  1
 H  H32  1  0.70588  0.09528  0.42782  1
 N  N1  1  0.87287  0.75000  0.57544  1
 N  N2  1  0.62713  0.75000  0.07544  1
 N  N3  1  0.12713  0.25000  0.42456  1
 N  N4  1  0.37287  0.25000  0.92456  1
