CIF file written using JARVIS-Tools package.
data_KCu4S3
_symmetry_space_group_name_H-M  'P4/mmm'
_cell_length_a       3.88998
_cell_length_b       3.88998
_cell_length_c       9.30655
_cell_angle_alpha    90
_cell_angle_beta     90
_cell_angle_gamma    90

_symmetry_Int_Tables_number  123
_chemical_formula_structural  KCu4S3
_chemical_formula_sum  KCu4S3
_cell_volume  140.82607951368425
_cell_formula_units_Z  1
loop_
  _symmetry_equiv_pos_site_id
 _symmetry_equiv_pos_as_xyz
 1  'x, y, z'
loop_
 _atom_site_type_symbol
 _atom_site_label
 _atom_site_symmetry_multiplicity
 _atom_site_fract_x
 _atom_site_fract_y
 _atom_site_fract_z
 _atom_site_fract_occupancy
 Cu  Cu1  1  0.50000  0.00000  0.83628  1
 Cu  Cu2  1  0.00000  0.50000  0.16372  1
 Cu  Cu3  1  0.50000  0.00000  0.16372  1
 Cu  Cu4  1  0.00000  0.50000  0.83628  1
 K  K1  1  0.00000  0.00000  0.50000  1
 S  S1  1  0.50000  0.50000  0.70067  1
 S  S2  1  0.50000  0.50000  0.29933  1
 S  S3  1  0.00000  0.00000  0.00000  1
