CIF file written using JARVIS-Tools package.
data_Cu2WSe4
_symmetry_space_group_name_H-M  'I-42m'
_cell_length_a       5.58883
_cell_length_b       5.58883
_cell_length_c       6.71372
_cell_angle_alpha    114.597
_cell_angle_beta     114.597
_cell_angle_gamma    90

_symmetry_Int_Tables_number  121
_chemical_formula_structural  Cu2WSe4
_chemical_formula_sum  Cu2WSe4
_cell_volume  169.5243833264637
_cell_formula_units_Z  1
loop_
  _symmetry_equiv_pos_site_id
 _symmetry_equiv_pos_as_xyz
 1  'x, y, z'
loop_
 _atom_site_type_symbol
 _atom_site_label
 _atom_site_symmetry_multiplicity
 _atom_site_fract_x
 _atom_site_fract_y
 _atom_site_fract_z
 _atom_site_fract_occupancy
 Cu  Cu1  1  0.00000  0.50000  0.00000  1
 Cu  Cu2  1  0.50000  0.00000  0.00000  1
 Se  Se1  1  0.37324  0.37324  0.26386  1
 Se  Se2  1  0.89062  0.89062  0.26386  1
 Se  Se3  1  0.10938  0.62676  0.73614  1
 Se  Se4  1  0.62676  0.10938  0.73614  1
 W  W1  1  0.00000  0.00000  0.00000  1
