CIF file written using JARVIS-Tools package.
data_As2O3
_symmetry_space_group_name_H-M  'Fd-3m'
_cell_length_a       7.76873
_cell_length_b       7.76873
_cell_length_c       7.76873
_cell_angle_alpha    60
_cell_angle_beta     60
_cell_angle_gamma    60

_symmetry_Int_Tables_number  227
_chemical_formula_structural  As2O3
_chemical_formula_sum  As8O2
_cell_volume  331.53907356850146
_cell_formula_units_Z  4
loop_
  _symmetry_equiv_pos_site_id
 _symmetry_equiv_pos_as_xyz
 1  'x, y, z'
loop_
 _atom_site_type_symbol
 _atom_site_label
 _atom_site_symmetry_multiplicity
 _atom_site_fract_x
 _atom_site_fract_y
 _atom_site_fract_z
 _atom_site_fract_occupancy
 As  As1  1  0.76869  0.76869  0.76869  1
 As  As2  1  0.80606  0.23131  0.23131  1
 As  As3  1  0.23131  0.80606  0.23131  1
 As  As4  1  0.19394  0.76869  0.76869  1
 As  As5  1  0.76869  0.19394  0.76869  1
 As  As6  1  0.76869  0.76869  0.19394  1
 As  As7  1  0.23131  0.23131  0.23131  1
 As  As8  1  0.23131  0.23131  0.80606  1
 O  O1  1  0.69583  0.05417  0.05417  1
 O  O2  1  0.30417  0.94583  0.30417  1
 O  O3  1  0.30417  0.30417  0.94583  1
 O  O4  1  0.94583  0.94583  0.30417  1
 O  O5  1  0.94583  0.30417  0.94583  1
 O  O6  1  0.69583  0.69583  0.05417  1
 O  O7  1  0.05417  0.69583  0.05417  1
 O  O8  1  0.94583  0.30417  0.30417  1
 O  O9  1  0.30417  0.94583  0.94583  1
 O  O10  1  0.05417  0.69583  0.69583  1
 O  O11  1  0.69583  0.05417  0.69583  1
 O  O12  1  0.05417  0.05417  0.69583  1
