CIF file written using JARVIS-Tools package.
data_CoH6Se2O8
_symmetry_space_group_name_H-M  'P2_1/c'
_cell_length_a       7.00307
_cell_length_b       6.71845
_cell_length_c       7.9891
_cell_angle_alpha    90
_cell_angle_beta     114.349
_cell_angle_gamma    90

_symmetry_Int_Tables_number  14
_chemical_formula_structural  CoH6Se2O8
_chemical_formula_sum  Co2H2Se4O6
_cell_volume  342.4522184742203
_cell_formula_units_Z  2
loop_
  _symmetry_equiv_pos_site_id
 _symmetry_equiv_pos_as_xyz
 1  'x, y, z'
loop_
 _atom_site_type_symbol
 _atom_site_label
 _atom_site_symmetry_multiplicity
 _atom_site_fract_x
 _atom_site_fract_y
 _atom_site_fract_z
 _atom_site_fract_occupancy
 Co  Co1  1  -0.00000  0.50000  0.50000  1
 Co  Co2  1  0.50000  0.00000  0.00000  1
 H  H1  1  0.37685  0.32617  0.07483  1
 H  H2  1  0.87685  0.17383  0.57483  1
 H  H3  1  0.12315  0.82617  0.42517  1
 H  H4  1  0.25335  0.27355  0.86003  1
 H  H5  1  0.75335  0.22645  0.36003  1
 H  H6  1  0.62315  0.67383  0.92517  1
 H  H7  1  0.24665  0.77355  0.63997  1
 H  H8  1  0.24551  0.00830  0.26016  1
 H  H9  1  0.74551  0.49170  0.76016  1
 H  H10  1  0.75449  0.99170  0.73984  1
 H  H11  1  0.25449  0.50830  0.23984  1
 H  H12  1  0.74665  0.72645  0.13997  1
 O  O1  1  0.38675  0.53579  0.21988  1
 O  O2  1  0.77715  0.67125  0.34596  1
 O  O3  1  0.27715  0.82875  0.84596  1
 O  O4  1  0.22285  0.32875  0.65404  1
 O  O5  1  0.72285  0.17125  0.15404  1
 O  O6  1  0.46783  0.92797  0.26242  1
 O  O7  1  0.96783  0.57203  0.76242  1
 O  O8  1  0.53217  0.07203  0.73758  1
 O  O9  1  0.88675  0.96421  0.71988  1
 O  O10  1  0.30432  0.21593  0.98852  1
 O  O11  1  0.11325  0.03579  0.28012  1
 O  O12  1  0.19568  0.71593  0.51148  1
 O  O13  1  0.69568  0.78407  0.01148  1
 O  O14  1  0.80432  0.28407  0.48852  1
 O  O15  1  0.03217  0.42797  0.23758  1
 O  O16  1  0.61325  0.46421  0.78012  1
 Se  Se1  1  0.05878  0.78202  0.88769  1
 Se  Se2  1  0.44122  0.28202  0.61231  1
 Se  Se3  1  0.94122  0.21798  0.11231  1
 Se  Se4  1  0.55878  0.71798  0.38769  1
