CIF file written using JARVIS-Tools package.
data_K2Sn2O3
_symmetry_space_group_name_H-M  'R-3m'
_cell_length_a       5.86636
_cell_length_b       5.86636
_cell_length_c       5.86636
_cell_angle_alpha    62.3021
_cell_angle_beta     62.3021
_cell_angle_gamma    62.3021

_symmetry_Int_Tables_number  166
_chemical_formula_structural  K2Sn2O3
_chemical_formula_sum  K2Sn2O3
_cell_volume  150.08957813429663
_cell_formula_units_Z  1
loop_
  _symmetry_equiv_pos_site_id
 _symmetry_equiv_pos_as_xyz
 1  'x, y, z'
loop_
 _atom_site_type_symbol
 _atom_site_label
 _atom_site_symmetry_multiplicity
 _atom_site_fract_x
 _atom_site_fract_y
 _atom_site_fract_z
 _atom_site_fract_occupancy
 K  K1  1  0.50000  0.50000  0.50000  1
 K  K2  1  0.00000  0.00000  0.00000  1
 O  O1  1  -0.00000  0.50000  -0.00000  1
 O  O2  1  0.00000  -0.00000  0.50000  1
 O  O3  1  0.50000  0.00000  0.00000  1
 Sn  Sn1  1  0.24431  0.24431  0.24431  1
 Sn  Sn2  1  0.75569  0.75569  0.75569  1
