CIF file written using JARVIS-Tools package.
data_MnCoO3
_symmetry_space_group_name_H-M  'R-3'
_cell_length_a       5.25413
_cell_length_b       5.25413
_cell_length_c       5.25413
_cell_angle_alpha    53.8889
_cell_angle_beta     53.8888
_cell_angle_gamma    53.8888

_symmetry_Int_Tables_number  148
_chemical_formula_structural  MnCoO3
_chemical_formula_sum  Mn2Co2O6
_cell_volume  87.91624948592492
_cell_formula_units_Z  2
loop_
  _symmetry_equiv_pos_site_id
 _symmetry_equiv_pos_as_xyz
 1  'x, y, z'
loop_
 _atom_site_type_symbol
 _atom_site_label
 _atom_site_symmetry_multiplicity
 _atom_site_fract_x
 _atom_site_fract_y
 _atom_site_fract_z
 _atom_site_fract_occupancy
 Co  Co1  1  0.65427  0.65428  0.65427  1
 Co  Co2  1  0.34572  0.34573  0.34573  1
 Mn  Mn1  1  0.84905  0.84905  0.84905  1
 Mn  Mn2  1  0.15095  0.15095  0.15095  1
 O  O1  1  0.74999  0.43748  0.06293  1
 O  O2  1  0.43748  0.06293  0.74999  1
 O  O3  1  0.06293  0.74999  0.43748  1
 O  O4  1  0.25001  0.56252  0.93707  1
 O  O5  1  0.93707  0.25001  0.56252  1
 O  O6  1  0.56252  0.93707  0.25001  1
