CIF file written using JARVIS-Tools package.
data_Bi3O4F
_symmetry_space_group_name_H-M  'P2/c'
_cell_length_a       5.61773
_cell_length_b       5.60778
_cell_length_c       8.67385
_cell_angle_alpha    90
_cell_angle_beta     101.087
_cell_angle_gamma    90

_symmetry_Int_Tables_number  13
_chemical_formula_structural  Bi3O4F
_chemical_formula_sum  Bi6O8F2
_cell_volume  268.1527114209874
_cell_formula_units_Z  2
loop_
  _symmetry_equiv_pos_site_id
 _symmetry_equiv_pos_as_xyz
 1  'x, y, z'
loop_
 _atom_site_type_symbol
 _atom_site_label
 _atom_site_symmetry_multiplicity
 _atom_site_fract_x
 _atom_site_fract_y
 _atom_site_fract_z
 _atom_site_fract_occupancy
 Bi  Bi1  1  0.14499  0.25834  0.19472  1
 Bi  Bi2  1  0.64499  0.74166  0.19472  1
 Bi  Bi3  1  0.25000  0.75748  0.50000  1
 Bi  Bi4  1  0.75000  0.24252  0.50000  1
 Bi  Bi5  1  0.35501  0.25834  0.80528  1
 Bi  Bi6  1  0.85501  0.74166  0.80528  1
 F  F1  1  0.25000  0.67606  -0.00000  1
 F  F2  1  0.75000  0.32394  0.00000  1
 O  O1  1  0.45251  0.49570  0.32573  1
 O  O2  1  0.95251  0.50430  0.32573  1
 O  O3  1  -0.04777  0.00570  0.32390  1
 O  O4  1  0.45223  0.99430  0.32390  1
 O  O5  1  0.54777  0.00570  0.67610  1
 O  O6  1  0.04777  0.99430  0.67610  1
 O  O7  1  0.04749  0.49570  0.67427  1
 O  O8  1  0.54749  0.50430  0.67427  1
