CIF file written using JARVIS-Tools package.
data_Te2W3S4
_symmetry_space_group_name_H-M  'Cm'
_cell_length_a       3.30617
_cell_length_b       3.30607
_cell_length_c       20.3176
_cell_angle_alpha    89.8466
_cell_angle_beta     90
_cell_angle_gamma    120.001

_symmetry_Int_Tables_number  8
_chemical_formula_structural  Te2W3S4
_chemical_formula_sum  Te2W3S4
_cell_volume  192.32374076859836
_cell_formula_units_Z  1
loop_
  _symmetry_equiv_pos_site_id
 _symmetry_equiv_pos_as_xyz
 1  'x, y, z'
loop_
 _atom_site_type_symbol
 _atom_site_label
 _atom_site_symmetry_multiplicity
 _atom_site_fract_x
 _atom_site_fract_y
 _atom_site_fract_z
 _atom_site_fract_occupancy
 S  S1  1  0.33214  0.66427  0.41256  1
 S  S2  1  0.67051  0.34103  0.95740  1
 S  S3  1  0.66879  0.33757  0.10879  1
 S  S4  1  0.33346  0.66691  0.26113  1
 Te  Te1  1  0.66539  0.33077  0.57589  1
 Te  Te2  1  0.66305  0.32610  0.76613  1
 W  W1  1  0.33630  0.67260  0.03308  1
 W  W2  1  0.33085  0.66170  0.67103  1
 W  W3  1  0.66612  0.33224  0.33683  1
