CIF file written using JARVIS-Tools package.
data_BaNd2CoO5
_symmetry_space_group_name_H-M  'Immm'
_cell_length_a       3.7615
_cell_length_b       5.98613
_cell_length_c       6.95412
_cell_angle_alpha    115.494
_cell_angle_beta     105.691
_cell_angle_gamma    90.0001

_symmetry_Int_Tables_number  71
_chemical_formula_structural  BaNd2CoO5
_chemical_formula_sum  BaNd2CoO5
_cell_volume  134.84489632402438
_cell_formula_units_Z  1
loop_
  _symmetry_equiv_pos_site_id
 _symmetry_equiv_pos_as_xyz
 1  'x, y, z'
loop_
 _atom_site_type_symbol
 _atom_site_label
 _atom_site_symmetry_multiplicity
 _atom_site_fract_x
 _atom_site_fract_y
 _atom_site_fract_z
 _atom_site_fract_occupancy
 Ba  Ba1  1  0.00000  0.00000  0.00000  1
 Co  Co1  1  0.50000  0.50000  0.00000  1
 Nd  Nd1  1  0.79718  0.29718  0.59436  1
 Nd  Nd2  1  0.20282  0.70282  0.40564  1
 O  O1  1  0.35453  0.59900  0.70908  1
 O  O2  1  0.64547  0.40100  0.29092  1
 O  O3  1  0.64547  0.88992  0.29092  1
 O  O4  1  0.35453  0.11008  0.70908  1
 O  O5  1  0.00000  0.50000  0.00000  1
