CIF file written using JARVIS-Tools package.
data_Sr2Ta2O7
_symmetry_space_group_name_H-M  'Cmc2_1'
_cell_length_a       3.99106
_cell_length_b       5.73037
_cell_length_c       13.7973
_cell_angle_alpha    90
_cell_angle_beta     98.316
_cell_angle_gamma    90

_symmetry_Int_Tables_number  36
_chemical_formula_structural  Sr2Ta2O7
_chemical_formula_sum  Sr4Ta4O4
_cell_volume  312.230365656346
_cell_formula_units_Z  2
loop_
  _symmetry_equiv_pos_site_id
 _symmetry_equiv_pos_as_xyz
 1  'x, y, z'
loop_
 _atom_site_type_symbol
 _atom_site_label
 _atom_site_symmetry_multiplicity
 _atom_site_fract_x
 _atom_site_fract_y
 _atom_site_fract_z
 _atom_site_fract_occupancy
 O  O1  1  0.90527  0.04708  0.81055  1
 O  O2  1  0.21097  0.97387  0.42193  1
 O  O3  1  0.89495  0.53260  0.78991  1
 O  O4  1  0.10505  0.03260  0.21009  1
 O  O5  1  0.35015  0.26502  0.70030  1
 O  O6  1  0.64985  0.76502  0.29970  1
 O  O7  1  0.45276  0.77077  0.90553  1
 O  O8  1  0.54724  0.27077  0.09447  1
 O  O9  1  0.99518  0.49897  0.99037  1
 O  O10  1  0.78903  0.47387  0.57807  1
 O  O11  1  0.09473  0.54708  0.18945  1
 O  O12  1  0.20270  0.49572  0.40541  1
 O  O13  1  0.79730  0.99572  0.59459  1
 O  O14  1  0.00482  0.99897  0.00963  1
 Sr  Sr1  1  0.55340  0.76924  0.10680  1
 Sr  Sr2  1  0.44660  0.26924  0.89320  1
 Sr  Sr3  1  0.71186  0.23174  0.42372  1
 Sr  Sr4  1  0.28814  0.73174  0.57628  1
 Ta  Ta1  1  0.16022  0.75092  0.32045  1
 Ta  Ta2  1  0.05539  0.26387  0.11077  1
 Ta  Ta3  1  0.94461  0.76387  0.88923  1
 Ta  Ta4  1  0.83978  0.25092  0.67955  1
