CIF file written using JARVIS-Tools package.
data_SmAsO4
_symmetry_space_group_name_H-M  'I4_1/a'
_cell_length_a       5.11472
_cell_length_b       5.11472
_cell_length_c       6.79335
_cell_angle_alpha    112.114
_cell_angle_beta     112.114
_cell_angle_gamma    90

_symmetry_Int_Tables_number  88
_chemical_formula_structural  SmAsO4
_chemical_formula_sum  Sm2As2O8
_cell_volume  150.43763876994237
_cell_formula_units_Z  2
loop_
  _symmetry_equiv_pos_site_id
 _symmetry_equiv_pos_as_xyz
 1  'x, y, z'
loop_
 _atom_site_type_symbol
 _atom_site_label
 _atom_site_symmetry_multiplicity
 _atom_site_fract_x
 _atom_site_fract_y
 _atom_site_fract_z
 _atom_site_fract_occupancy
 As  As1  1  0.87500  0.62500  0.75000  1
 As  As2  1  0.12500  0.37500  0.25000  1
 O  O1  1  0.93912  0.29679  0.59242  1
 O  O2  1  0.29563  0.43912  0.09242  1
 O  O3  1  0.79679  0.15330  0.09242  1
 O  O4  1  0.65330  0.79563  0.59242  1
 O  O5  1  0.34670  0.20437  0.40758  1
 O  O6  1  0.20321  0.84670  0.90758  1
 O  O7  1  0.70437  0.56088  0.90758  1
 O  O8  1  0.06088  0.70321  0.40758  1
 Sm  Sm1  1  0.37500  0.12500  0.75000  1
 Sm  Sm2  1  0.62500  0.87500  0.25000  1
