CIF file written using JARVIS-Tools package.
data_V3Te4
_symmetry_space_group_name_H-M  'C2/m'
_cell_length_a       3.961
_cell_length_b       6.88965
_cell_length_c       7.29681
_cell_angle_alpha    116.525
_cell_angle_beta     105.749
_cell_angle_gamma    90.0001

_symmetry_Int_Tables_number  12
_chemical_formula_structural  V3Te4
_chemical_formula_sum  V3Te4
_cell_volume  169.77305235868567
_cell_formula_units_Z  1
loop_
  _symmetry_equiv_pos_site_id
 _symmetry_equiv_pos_as_xyz
 1  'x, y, z'
loop_
 _atom_site_type_symbol
 _atom_site_label
 _atom_site_symmetry_multiplicity
 _atom_site_fract_x
 _atom_site_fract_y
 _atom_site_fract_z
 _atom_site_fract_occupancy
 Te  Te1  1  0.63530  0.97403  0.27061  1
 Te  Te2  1  0.36470  0.02597  0.72939  1
 Te  Te3  1  0.11213  0.45219  0.22427  1
 Te  Te4  1  0.88787  0.54781  0.77573  1
 V  V1  1  0.25608  0.29065  0.51216  1
 V  V2  1  0.74392  0.70935  0.48784  1
 V  V3  1  0.00000  0.00000  0.00000  1
