CIF file written using JARVIS-Tools package.
data_CuSiO3
_symmetry_space_group_name_H-M  'Pmma'
_cell_length_a       2.8688
_cell_length_b       4.71894
_cell_length_c       8.67105
_cell_angle_alpha    90
_cell_angle_beta     90
_cell_angle_gamma    90

_symmetry_Int_Tables_number  51
_chemical_formula_structural  CuSiO3
_chemical_formula_sum  Cu2Si2O6
_cell_volume  117.38598169447548
_cell_formula_units_Z  2
loop_
  _symmetry_equiv_pos_site_id
 _symmetry_equiv_pos_as_xyz
 1  'x, y, z'
loop_
 _atom_site_type_symbol
 _atom_site_label
 _atom_site_symmetry_multiplicity
 _atom_site_fract_x
 _atom_site_fract_y
 _atom_site_fract_z
 _atom_site_fract_occupancy
 Cu  Cu1  1  0.00000  0.50000  0.50000  1
 Cu  Cu2  1  0.00000  0.50000  0.00000  1
 O  O1  1  0.50000  0.71527  0.59316  1
 O  O2  1  0.50000  0.28473  0.40684  1
 O  O3  1  0.50000  0.71527  0.90684  1
 O  O4  1  0.50000  0.28473  0.09316  1
 O  O5  1  0.00000  0.90742  0.25000  1
 O  O6  1  0.00000  0.09258  0.75000  1
 Si  Si1  1  0.50000  0.90797  0.75000  1
 Si  Si2  1  0.50000  0.09203  0.25000  1
