CIF file written using JARVIS-Tools package.
data_Na4FeO4
_symmetry_space_group_name_H-M  'P-1'
_cell_length_a       5.75791
_cell_length_b       5.75233
_cell_length_c       8.14387
_cell_angle_alpha    88.4382
_cell_angle_beta     107.268
_cell_angle_gamma    110.307

_symmetry_Int_Tables_number  2
_chemical_formula_structural  Na4FeO4
_chemical_formula_sum  Na8Fe2O8
_cell_volume  240.70255979089126
_cell_formula_units_Z  2
loop_
  _symmetry_equiv_pos_site_id
 _symmetry_equiv_pos_as_xyz
 1  'x, y, z'
loop_
 _atom_site_type_symbol
 _atom_site_label
 _atom_site_symmetry_multiplicity
 _atom_site_fract_x
 _atom_site_fract_y
 _atom_site_fract_z
 _atom_site_fract_occupancy
 Fe  Fe1  1  0.40989  0.71980  0.25164  1
 Fe  Fe2  1  0.59011  0.28020  0.74836  1
 Na  Na1  1  0.24835  0.77159  0.83633  1
 Na  Na2  1  0.75165  0.22841  0.16367  1
 Na  Na3  1  0.04595  0.27635  0.56865  1
 Na  Na4  1  0.40572  0.20946  0.36747  1
 Na  Na5  1  0.20319  0.26318  0.98371  1
 Na  Na6  1  0.79681  0.73682  0.01629  1
 Na  Na7  1  0.59428  0.79054  0.63253  1
 Na  Na8  1  0.95405  0.72365  0.43135  1
 O  O1  1  0.16515  0.49302  0.32647  1
 O  O2  1  0.24288  0.90073  0.11094  1
 O  O3  1  0.75712  0.09927  0.88906  1
 O  O4  1  0.68954  0.97035  0.38313  1
 O  O5  1  0.31046  0.02965  0.61687  1
 O  O6  1  0.42952  0.47514  0.79806  1
 O  O7  1  0.57048  0.52486  0.20194  1
 O  O8  1  0.83485  0.50698  0.67353  1
