CIF file written using JARVIS-Tools package.
data_BaCo2P2O8
_symmetry_space_group_name_H-M  'R-3'
_cell_length_a       8.35324
_cell_length_b       8.35324
_cell_length_c       8.35325
_cell_angle_alpha    33.5146
_cell_angle_beta     33.5145
_cell_angle_gamma    33.5145

_symmetry_Int_Tables_number  148
_chemical_formula_structural  BaCo2P2O8
_chemical_formula_sum  BaCo2P2O8
_cell_volume  158.26675591589986
_cell_formula_units_Z  1
loop_
  _symmetry_equiv_pos_site_id
 _symmetry_equiv_pos_as_xyz
 1  'x, y, z'
loop_
 _atom_site_type_symbol
 _atom_site_label
 _atom_site_symmetry_multiplicity
 _atom_site_fract_x
 _atom_site_fract_y
 _atom_site_fract_z
 _atom_site_fract_occupancy
 Ba  Ba1  1  0.00000  0.00000  0.00000  1
 Co  Co1  1  0.16844  0.16844  0.16844  1
 Co  Co2  1  0.83156  0.83156  0.83156  1
 O  O1  1  0.75807  0.14391  0.43878  1
 O  O2  1  0.14391  0.43878  0.75807  1
 O  O3  1  0.43878  0.75807  0.14391  1
 O  O4  1  0.24193  0.85609  0.56122  1
 O  O5  1  0.85609  0.56122  0.24193  1
 O  O6  1  0.63927  0.63927  0.63927  1
 O  O7  1  0.56122  0.24193  0.85609  1
 O  O8  1  0.36073  0.36073  0.36073  1
 P  P1  1  0.42524  0.42524  0.42524  1
 P  P2  1  0.57476  0.57476  0.57476  1
