CIF file written using JARVIS-Tools package.
data_Si3Ru2
_symmetry_space_group_name_H-M  'P-4c2'
_cell_length_a       5.62534
_cell_length_b       5.62534
_cell_length_c       8.98663
_cell_angle_alpha    90
_cell_angle_beta     90
_cell_angle_gamma    90

_symmetry_Int_Tables_number  116
_chemical_formula_structural  Si3Ru2
_chemical_formula_sum  Si2Ru8
_cell_volume  284.3772377509918
_cell_formula_units_Z  4
loop_
  _symmetry_equiv_pos_site_id
 _symmetry_equiv_pos_as_xyz
 1  'x, y, z'
loop_
 _atom_site_type_symbol
 _atom_site_label
 _atom_site_symmetry_multiplicity
 _atom_site_fract_x
 _atom_site_fract_y
 _atom_site_fract_z
 _atom_site_fract_occupancy
 Ru  Ru1  1  0.50000  0.00000  0.37344  1
 Ru  Ru2  1  0.50000  0.00000  0.87344  1
 Ru  Ru3  1  0.50000  0.50000  0.25000  1
 Ru  Ru4  1  0.50000  0.50000  0.75000  1
 Ru  Ru5  1  0.00000  0.00000  0.00000  1
 Ru  Ru6  1  0.00000  0.00000  0.50000  1
 Ru  Ru7  1  0.00000  0.50000  0.62656  1
 Ru  Ru8  1  0.00000  0.50000  0.12656  1
 Si  Si1  1  0.64646  0.79051  0.58956  1
 Si  Si2  1  0.82878  0.82878  0.25000  1
 Si  Si3  1  0.17122  0.82878  0.75000  1
 Si  Si4  1  0.35354  0.20949  0.58956  1
 Si  Si5  1  0.20949  0.35354  0.91044  1
 Si  Si6  1  0.20949  0.64646  0.41044  1
 Si  Si7  1  0.79051  0.35354  0.41044  1
 Si  Si8  1  0.64646  0.20949  0.08956  1
 Si  Si9  1  0.79051  0.64646  0.91044  1
 Si  Si10  1  0.35354  0.79051  0.08956  1
 Si  Si11  1  0.82878  0.17122  0.75000  1
 Si  Si12  1  0.17122  0.17122  0.25000  1
