CIF file written using JARVIS-Tools package.
data_GeBi2O5
_symmetry_space_group_name_H-M  'Cmc2_1'
_cell_length_a       5.38718
_cell_length_b       5.55917
_cell_length_c       8.37572
_cell_angle_alpha    109.382
_cell_angle_beta     90
_cell_angle_gamma    90

_symmetry_Int_Tables_number  36
_chemical_formula_structural  GeBi2O5
_chemical_formula_sum  Ge2Bi4O0
_cell_volume  236.62266227320177
_cell_formula_units_Z  2
loop_
  _symmetry_equiv_pos_site_id
 _symmetry_equiv_pos_as_xyz
 1  'x, y, z'
loop_
 _atom_site_type_symbol
 _atom_site_label
 _atom_site_symmetry_multiplicity
 _atom_site_fract_x
 _atom_site_fract_y
 _atom_site_fract_z
 _atom_site_fract_occupancy
 Bi  Bi1  1  0.22375  0.60715  0.66330  1
 Bi  Bi2  1  0.72375  0.39285  0.33670  1
 Bi  Bi3  1  0.72375  0.05615  0.66330  1
 Bi  Bi4  1  0.22375  0.94385  0.33670  1
 Ge  Ge1  1  0.70838  0.68613  0.00000  1
 Ge  Ge2  1  0.20838  0.31387  -0.00000  1
 O  O1  1  0.45891  0.25692  0.50323  1
 O  O2  1  0.95891  0.74308  0.49677  1
 O  O3  1  0.95891  0.24631  0.50323  1
 O  O4  1  0.45891  0.75369  0.49677  1
 O  O5  1  0.65041  0.72511  0.80418  1
 O  O6  1  0.15041  0.27489  0.19582  1
 O  O7  1  0.53690  0.40049  -0.00000  1
 O  O8  1  0.03690  0.59951  0.00000  1
 O  O9  1  0.65041  0.92092  0.19582  1
 O  O10  1  0.15041  0.07908  0.80418  1
