CIF file written using JARVIS-Tools package.
data_AlH3O3
_symmetry_space_group_name_H-M  'Cm'
_cell_length_a       5.12076
_cell_length_b       5.12066
_cell_length_c       4.67474
_cell_angle_alpha    90.2188
_cell_angle_beta     90.2231
_cell_angle_gamma    122.705

_symmetry_Int_Tables_number  8
_chemical_formula_structural  AlH3O3
_chemical_formula_sum  Al2H6O6
_cell_volume  103.14367682059704
_cell_formula_units_Z  2
loop_
  _symmetry_equiv_pos_site_id
 _symmetry_equiv_pos_as_xyz
 1  'x, y, z'
loop_
 _atom_site_type_symbol
 _atom_site_label
 _atom_site_symmetry_multiplicity
 _atom_site_fract_x
 _atom_site_fract_y
 _atom_site_fract_z
 _atom_site_fract_occupancy
 Al  Al1  1  0.35780  0.68260  0.98117  1
 Al  Al2  1  0.68379  0.35662  0.98117  1
 H  H1  1  0.57216  0.01795  0.56709  1
 H  H2  1  0.17892  0.17776  0.73625  1
 H  H3  1  0.01913  0.57094  0.56709  1
 H  H4  1  0.18766  0.96643  0.26090  1
 H  H5  1  0.60377  0.60257  0.40242  1
 H  H6  1  0.96764  0.18644  0.26084  1
 O  O1  1  0.65288  0.02241  0.76140  1
 O  O2  1  0.37761  0.37643  0.76512  1
 O  O3  1  0.02360  0.65168  0.76138  1
 O  O4  1  0.39478  0.01175  0.21695  1
 O  O5  1  0.67204  0.67085  0.20406  1
 O  O6  1  0.01295  0.39358  0.21697  1
