CIF file written using JARVIS-Tools package.
data_Li2Mn3WO8
_symmetry_space_group_name_H-M  'Cc'
_cell_length_a       5.81958
_cell_length_b       5.86507
_cell_length_c       9.67674
_cell_angle_alpha    93.5524
_cell_angle_beta     88.2107
_cell_angle_gamma    120.259

_symmetry_Int_Tables_number  9
_chemical_formula_structural  Li2Mn3WO8
_chemical_formula_sum  Li4Mn6W2O6
_cell_volume  284.74060174674645
_cell_formula_units_Z  2
loop_
  _symmetry_equiv_pos_site_id
 _symmetry_equiv_pos_as_xyz
 1  'x, y, z'
loop_
 _atom_site_type_symbol
 _atom_site_label
 _atom_site_symmetry_multiplicity
 _atom_site_fract_x
 _atom_site_fract_y
 _atom_site_fract_z
 _atom_site_fract_occupancy
 Li  Li1  1  0.34209  0.65609  0.90703  1
 Li  Li2  1  0.01917  0.01559  0.98971  1
 Li  Li3  1  -0.01917  -0.00357  0.48971  1
 Li  Li4  1  0.65791  0.31400  0.40703  1
 Mn  Mn1  1  0.66335  0.82979  0.21101  1
 Mn  Mn2  1  0.17194  0.34153  0.21481  1
 Mn  Mn3  1  0.16296  0.82283  0.21551  1
 Mn  Mn4  1  0.33665  0.16644  0.71101  1
 Mn  Mn5  1  0.83704  0.65987  0.71551  1
 Mn  Mn6  1  0.82806  0.16960  0.71481  1
 O  O1  1  0.02254  0.50040  0.34753  1
 O  O2  1  0.15104  0.83484  0.58542  1
 O  O3  1  0.97746  0.47786  0.84753  1
 O  O4  1  0.33630  0.66168  0.11219  1
 O  O5  1  0.00113  0.00864  0.30337  1
 O  O6  1  -0.00113  0.00751  0.80337  1
 O  O7  1  0.14078  0.34685  0.59388  1
 O  O8  1  0.46748  0.49302  0.35238  1
 O  O9  1  0.84896  0.68379  0.08542  1
 O  O10  1  0.52833  0.47757  0.84391  1
 O  O11  1  0.53252  0.02555  0.85238  1
 O  O12  1  0.66370  0.32538  0.61219  1
 O  O13  1  0.47167  0.94924  0.34391  1
 O  O14  1  0.36354  0.21136  0.09184  1
 O  O15  1  0.63646  0.84782  0.59184  1
 O  O16  1  0.85922  0.20607  0.09388  1
 W  W1  1  0.67756  0.32406  0.98534  1
 W  W2  1  0.32244  0.64650  0.48534  1
