CIF file written using JARVIS-Tools package.
data_LuCd3
_symmetry_space_group_name_H-M  'Cmcm'
_cell_length_a       4.79519
_cell_length_b       6.39614
_cell_length_c       6.39615
_cell_angle_alpha    112.219
_cell_angle_beta     90
_cell_angle_gamma    90

_symmetry_Int_Tables_number  63
_chemical_formula_structural  LuCd3
_chemical_formula_sum  Lu2Cd6
_cell_volume  181.60736076223392
_cell_formula_units_Z  2
loop_
  _symmetry_equiv_pos_site_id
 _symmetry_equiv_pos_as_xyz
 1  'x, y, z'
loop_
 _atom_site_type_symbol
 _atom_site_label
 _atom_site_symmetry_multiplicity
 _atom_site_fract_x
 _atom_site_fract_y
 _atom_site_fract_z
 _atom_site_fract_occupancy
 Cd  Cd1  1  0.75000  0.82122  0.17878  1
 Cd  Cd2  1  0.25000  0.17878  0.82122  1
 Cd  Cd3  1  0.75000  0.31416  0.12120  1
 Cd  Cd4  1  0.25000  0.68584  0.87880  1
 Cd  Cd5  1  0.25000  0.12120  0.31416  1
 Cd  Cd6  1  0.75000  0.87880  0.68584  1
 Lu  Lu1  1  0.75000  0.36966  0.63034  1
 Lu  Lu2  1  0.25000  0.63034  0.36966  1
