CIF file written using JARVIS-Tools package.
data_GaGeTe
_symmetry_space_group_name_H-M  'R-3m'
_cell_length_a       11.9833
_cell_length_b       11.9833
_cell_length_c       11.9833
_cell_angle_alpha    19.7649
_cell_angle_beta     19.7649
_cell_angle_gamma    19.7649

_symmetry_Int_Tables_number  166
_chemical_formula_structural  GaGeTe
_chemical_formula_sum  Ga2Ge2Te2
_cell_volume  172.10270973501397
_cell_formula_units_Z  2
loop_
  _symmetry_equiv_pos_site_id
 _symmetry_equiv_pos_as_xyz
 1  'x, y, z'
loop_
 _atom_site_type_symbol
 _atom_site_label
 _atom_site_symmetry_multiplicity
 _atom_site_fract_x
 _atom_site_fract_y
 _atom_site_fract_z
 _atom_site_fract_occupancy
 Ga  Ga1  1  0.25197  0.25197  0.25197  1
 Ga  Ga2  1  0.74803  0.74803  0.74803  1
 Ge  Ge1  1  0.32190  0.32190  0.32190  1
 Ge  Ge2  1  0.67810  0.67810  0.67810  1
 Te  Te1  1  0.11756  0.11756  0.11756  1
 Te  Te2  1  0.88244  0.88244  0.88244  1
