CIF file written using JARVIS-Tools package.
data_ZrNiSb
_symmetry_space_group_name_H-M  'Pnma'
_cell_length_a       4.17851
_cell_length_b       6.78314
_cell_length_c       7.67755
_cell_angle_alpha    90
_cell_angle_beta     90
_cell_angle_gamma    90

_symmetry_Int_Tables_number  62
_chemical_formula_structural  ZrNiSb
_chemical_formula_sum  Zr4Ni4Sb4
_cell_volume  217.60807805283585
_cell_formula_units_Z  4
loop_
  _symmetry_equiv_pos_site_id
 _symmetry_equiv_pos_as_xyz
 1  'x, y, z'
loop_
 _atom_site_type_symbol
 _atom_site_label
 _atom_site_symmetry_multiplicity
 _atom_site_fract_x
 _atom_site_fract_y
 _atom_site_fract_z
 _atom_site_fract_occupancy
 Ni  Ni1  1  0.25000  0.68127  0.91180  1
 Ni  Ni2  1  0.75000  0.31873  0.08820  1
 Ni  Ni3  1  0.25000  0.18127  0.58820  1
 Ni  Ni4  1  0.75000  0.81873  0.41180  1
 Sb  Sb1  1  0.25000  0.79185  0.59334  1
 Sb  Sb2  1  0.75000  0.20815  0.40666  1
 Sb  Sb3  1  0.25000  0.29185  0.90666  1
 Sb  Sb4  1  0.75000  0.70815  0.09334  1
 Zr  Zr1  1  0.75000  0.99870  0.80668  1
 Zr  Zr2  1  0.25000  0.00130  0.19332  1
 Zr  Zr3  1  0.75000  0.49870  0.69332  1
 Zr  Zr4  1  0.25000  0.50130  0.30668  1
