CIF file written using JARVIS-Tools package.
data_BaHo2NiO5
_symmetry_space_group_name_H-M  'Immm'
_cell_length_a       3.73588
_cell_length_b       5.76127
_cell_length_c       6.65303
_cell_angle_alpha    115.657
_cell_angle_beta     106.306
_cell_angle_gamma    90

_symmetry_Int_Tables_number  71
_chemical_formula_structural  BaHo2NiO5
_chemical_formula_sum  BaHo2NiO5
_cell_volume  122.65583965811732
_cell_formula_units_Z  1
loop_
  _symmetry_equiv_pos_site_id
 _symmetry_equiv_pos_as_xyz
 1  'x, y, z'
loop_
 _atom_site_type_symbol
 _atom_site_label
 _atom_site_symmetry_multiplicity
 _atom_site_fract_x
 _atom_site_fract_y
 _atom_site_fract_z
 _atom_site_fract_occupancy
 Ba  Ba1  1  0.50000  0.50000  0.00000  1
 Ho  Ho1  1  0.29811  0.79811  0.59622  1
 Ho  Ho2  1  0.70189  0.20189  0.40378  1
 Ni  Ni1  1  0.00000  0.00000  0.00000  1
 O  O1  1  0.50000  0.00000  -0.00000  1
 O  O2  1  0.15034  0.91018  0.30068  1
 O  O3  1  0.84966  0.08982  0.69932  1
 O  O4  1  0.84966  0.60950  0.69932  1
 O  O5  1  0.15034  0.39050  0.30068  1
