CIF file written using JARVIS-Tools package.
data_MgGa2O4
_symmetry_space_group_name_H-M  'R3m'
_cell_length_a       5.94658
_cell_length_b       5.94658
_cell_length_c       5.92862
_cell_angle_alpha    59.8997
_cell_angle_beta     59.8997
_cell_angle_gamma    60

_symmetry_Int_Tables_number  160
_chemical_formula_structural  MgGa2O4
_chemical_formula_sum  Mg2Ga4O8
_cell_volume  148.0180922126951
_cell_formula_units_Z  2
loop_
  _symmetry_equiv_pos_site_id
 _symmetry_equiv_pos_as_xyz
 1  'x, y, z'
loop_
 _atom_site_type_symbol
 _atom_site_label
 _atom_site_symmetry_multiplicity
 _atom_site_fract_x
 _atom_site_fract_y
 _atom_site_fract_z
 _atom_site_fract_occupancy
 Ga  Ga1  1  0.49723  0.00960  0.49594  1
 Ga  Ga2  1  0.00960  0.49723  0.49594  1
 Ga  Ga3  1  0.49723  0.49723  0.49594  1
 Ga  Ga4  1  0.87999  0.87999  0.86003  1
 Mg  Mg1  1  0.12126  0.12126  0.13622  1
 Mg  Mg2  1  0.49827  0.49827  0.00518  1
 O  O1  1  0.71885  0.25496  0.27122  1
 O  O2  1  0.25496  0.25496  0.27122  1
 O  O3  1  0.25496  0.71885  0.27122  1
 O  O4  1  0.25776  0.25776  0.72672  1
 O  O5  1  0.74501  0.74501  0.26497  1
 O  O6  1  0.74582  0.27323  0.73513  1
 O  O7  1  0.74582  0.74582  0.73513  1
 O  O8  1  0.27323  0.74582  0.73513  1
