CIF file written using JARVIS-Tools package.
data_Sm3NbO7
_symmetry_space_group_name_H-M  'C222_1'
_cell_length_a       6.6181
_cell_length_b       6.6181
_cell_length_c       7.63136
_cell_angle_alpha    90
_cell_angle_beta     90
_cell_angle_gamma    108.872

_symmetry_Int_Tables_number  20
_chemical_formula_structural  Sm3NbO7
_chemical_formula_sum  Sm6Nb2O4
_cell_volume  316.2783748431635
_cell_formula_units_Z  2
loop_
  _symmetry_equiv_pos_site_id
 _symmetry_equiv_pos_as_xyz
 1  'x, y, z'
loop_
 _atom_site_type_symbol
 _atom_site_label
 _atom_site_symmetry_multiplicity
 _atom_site_fract_x
 _atom_site_fract_y
 _atom_site_fract_z
 _atom_site_fract_occupancy
 Nb  Nb1  1  0.00186  0.00186  0.25000  1
 Nb  Nb2  1  0.99814  0.99814  0.75000  1
 O  O1  1  0.62945  0.37055  0.00000  1
 O  O2  1  0.06667  0.93333  0.00000  1
 O  O3  1  0.36249  0.63751  0.00000  1
 O  O4  1  0.63751  0.36249  0.50000  1
 O  O5  1  0.69537  0.94913  0.79428  1
 O  O6  1  0.37055  0.62945  0.50000  1
 O  O7  1  0.05087  0.30463  0.20572  1
 O  O8  1  0.08205  0.32658  0.77236  1
 O  O9  1  0.32658  0.08205  0.72764  1
 O  O10  1  0.93333  0.06667  0.50000  1
 O  O11  1  0.67342  0.91795  0.22764  1
 O  O12  1  0.94913  0.69537  0.70572  1
 O  O13  1  0.30463  0.05087  0.29428  1
 O  O14  1  0.91795  0.67342  0.27236  1
 Sm  Sm1  1  0.46271  0.00124  0.01001  1
 Sm  Sm2  1  0.99876  0.53729  0.98999  1
 Sm  Sm3  1  0.53325  0.53325  0.25000  1
 Sm  Sm4  1  0.46675  0.46675  0.75000  1
 Sm  Sm5  1  0.53729  0.99876  0.51001  1
 Sm  Sm6  1  0.00124  0.46271  0.48999  1
