CIF file written using JARVIS-Tools package.
data_SmH3C3O6
_symmetry_space_group_name_H-M  'R3m'
_cell_length_a       6.24106
_cell_length_b       6.24105
_cell_length_c       6.24106
_cell_angle_alpha    115.521
_cell_angle_beta     115.521
_cell_angle_gamma    115.521

_symmetry_Int_Tables_number  160
_chemical_formula_structural  SmH3C3O6
_chemical_formula_sum  SmH3C3O6
_cell_volume  129.36370104730474
_cell_formula_units_Z  1
loop_
  _symmetry_equiv_pos_site_id
 _symmetry_equiv_pos_as_xyz
 1  'x, y, z'
loop_
 _atom_site_type_symbol
 _atom_site_label
 _atom_site_symmetry_multiplicity
 _atom_site_fract_x
 _atom_site_fract_y
 _atom_site_fract_z
 _atom_site_fract_occupancy
 C  C1  1  0.22832  0.68890  0.22832  1
 C  C2  1  0.68890  0.22832  0.22832  1
 C  C3  1  0.22832  0.22832  0.68890  1
 H  H1  1  0.98757  0.47153  0.47153  1
 H  H2  1  0.47153  0.47153  0.98757  1
 H  H3  1  0.47153  0.98757  0.47153  1
 O  O1  1  0.50113  0.24753  0.24753  1
 O  O2  1  0.95193  0.55405  0.95193  1
 O  O3  1  0.95193  0.95193  0.55405  1
 O  O4  1  0.24753  0.50113  0.24753  1
 O  O5  1  0.24753  0.24753  0.50113  1
 O  O6  1  0.55405  0.95193  0.95193  1
 Sm  Sm1  1  0.83650  0.83650  0.83650  1
