CIF file written using JARVIS-Tools package.
data_Sr2SmNbO6
_symmetry_space_group_name_H-M  'P2_1/c'
_cell_length_a       5.8779
_cell_length_b       6.01893
_cell_length_c       10.2145
_cell_angle_alpha    90
_cell_angle_beta     124.884
_cell_angle_gamma    90

_symmetry_Int_Tables_number  14
_chemical_formula_structural  Sr2SmNbO6
_chemical_formula_sum  Sr4Sm2Nb2O2
_cell_volume  296.44042677950904
_cell_formula_units_Z  2
loop_
  _symmetry_equiv_pos_site_id
 _symmetry_equiv_pos_as_xyz
 1  'x, y, z'
loop_
 _atom_site_type_symbol
 _atom_site_label
 _atom_site_symmetry_multiplicity
 _atom_site_fract_x
 _atom_site_fract_y
 _atom_site_fract_z
 _atom_site_fract_occupancy
 Nb  Nb1  1  0.50000  0.50000  -0.00000  1
 Nb  Nb2  1  0.50000  0.00000  0.50000  1
 O  O1  1  0.73056  0.31012  0.95313  1
 O  O2  1  0.36711  0.22301  0.05312  1
 O  O3  1  0.26944  0.68988  0.04687  1
 O  O4  1  0.63289  0.77699  0.94688  1
 O  O5  1  0.36711  0.27699  0.55312  1
 O  O6  1  0.63289  0.72301  0.44688  1
 O  O7  1  0.17431  0.46691  0.76803  1
 O  O8  1  0.17431  0.03309  0.26803  1
 O  O9  1  0.73056  0.18988  0.45313  1
 O  O10  1  0.82569  0.96691  0.73197  1
 O  O11  1  0.26944  0.81012  0.54687  1
 O  O12  1  0.82569  0.53309  0.23197  1
 Sm  Sm1  1  0.00000  0.00000  0.00000  1
 Sm  Sm2  1  -0.00000  0.50000  0.50000  1
 Sr  Sr1  1  0.73969  0.54493  0.75098  1
 Sr  Sr2  1  0.26031  0.04493  0.74902  1
 Sr  Sr3  1  0.26031  0.45507  0.24902  1
 Sr  Sr4  1  0.73969  0.95507  0.25098  1
