CIF file written using JARVIS-Tools package.
data_TcS2
_symmetry_space_group_name_H-M  'P-1'
_cell_length_a       6.41998
_cell_length_b       6.51844
_cell_length_c       6.72926
_cell_angle_alpha    63.2147
_cell_angle_beta     76.4448
_cell_angle_gamma    61.0871

_symmetry_Int_Tables_number  2
_chemical_formula_structural  TcS2
_chemical_formula_sum  Tc4S8
_cell_volume  220.00800691016207
_cell_formula_units_Z  4
loop_
  _symmetry_equiv_pos_site_id
 _symmetry_equiv_pos_as_xyz
 1  'x, y, z'
loop_
 _atom_site_type_symbol
 _atom_site_label
 _atom_site_symmetry_multiplicity
 _atom_site_fract_x
 _atom_site_fract_y
 _atom_site_fract_z
 _atom_site_fract_occupancy
 S  S1  1  0.32126  0.18513  0.30290  1
 S  S2  1  0.67874  0.81487  0.69710  1
 S  S3  1  0.85734  0.16985  0.27657  1
 S  S4  1  0.14266  0.83015  0.72343  1
 S  S5  1  0.36133  0.69005  0.21259  1
 S  S6  1  0.63867  0.30995  0.78741  1
 S  S7  1  0.82444  0.71817  0.24051  1
 S  S8  1  0.17556  0.28183  0.75949  1
 Tc  Tc1  1  0.51150  0.28538  0.50246  1
 Tc  Tc2  1  0.48850  0.71462  0.49754  1
 Tc  Tc3  1  0.93818  0.30850  0.50909  1
 Tc  Tc4  1  0.06182  0.69150  0.49091  1
