CIF file written using JARVIS-Tools package.
data_MoH4O5
_symmetry_space_group_name_H-M  'P1'
_cell_length_a       4.00537
_cell_length_b       6.79225
_cell_length_c       7.9456
_cell_angle_alpha    104.212
_cell_angle_beta     92.8207
_cell_angle_gamma    84.3881

_symmetry_Int_Tables_number  1
_chemical_formula_structural  MoH4O5
_chemical_formula_sum  Mo2H8O0
_cell_volume  208.47225681136442
_cell_formula_units_Z  2
loop_
  _symmetry_equiv_pos_site_id
 _symmetry_equiv_pos_as_xyz
 1  'x, y, z'
loop_
 _atom_site_type_symbol
 _atom_site_label
 _atom_site_symmetry_multiplicity
 _atom_site_fract_x
 _atom_site_fract_y
 _atom_site_fract_z
 _atom_site_fract_occupancy
 H  H1  1  0.41183  0.57530  0.58491  1
 H  H2  1  0.61328  0.57755  0.03756  1
 H  H3  1  0.17573  0.36532  0.84704  1
 H  H4  1  0.74138  0.36193  0.35216  1
 H  H5  1  0.13749  0.62722  0.10244  1
 H  H6  1  0.89006  0.64318  0.58870  1
 H  H7  1  0.71676  0.41553  0.63896  1
 H  H8  1  0.54566  0.38165  0.09383  1
 Mo  Mo1  1  0.99772  0.00639  0.23873  1
 Mo  Mo2  1  0.94636  0.01355  0.73753  1
 O  O1  1  0.83602  0.28256  0.23706  1
 O  O2  1  0.00295  0.29820  0.76283  1
 O  O3  1  0.00194  0.01239  0.95492  1
 O  O4  1  0.95885  0.02930  0.45968  1
 O  O5  1  0.44121  0.47677  0.02406  1
 O  O6  1  0.62838  0.48873  0.54908  1
 O  O7  1  0.42914  0.99472  0.22152  1
 O  O8  1  0.51409  0.01006  0.71016  1
 O  O9  1  0.92966  0.72840  0.13496  1
 O  O10  1  0.08299  0.73470  0.63201  1
