CIF file written using JARVIS-Tools package.
data_KPt2S3
_symmetry_space_group_name_H-M  'R-3m'
_cell_length_a       7.50361
_cell_length_b       7.50361
_cell_length_c       7.5036
_cell_angle_alpha    56.7582
_cell_angle_beta     56.7582
_cell_angle_gamma    56.7583

_symmetry_Int_Tables_number  166
_chemical_formula_structural  KPt2S3
_chemical_formula_sum  K2Pt4S6
_cell_volume  276.3843226463278
_cell_formula_units_Z  2
loop_
  _symmetry_equiv_pos_site_id
 _symmetry_equiv_pos_as_xyz
 1  'x, y, z'
loop_
 _atom_site_type_symbol
 _atom_site_label
 _atom_site_symmetry_multiplicity
 _atom_site_fract_x
 _atom_site_fract_y
 _atom_site_fract_z
 _atom_site_fract_occupancy
 K  K1  1  0.69437  0.69437  0.69437  1
 K  K2  1  0.30563  0.30563  0.30563  1
 Pt  Pt1  1  0.50000  0.50000  0.50000  1
 Pt  Pt2  1  0.00000  -0.00000  0.50000  1
 Pt  Pt3  1  0.50000  0.00000  -0.00000  1
 Pt  Pt4  1  -0.00000  0.50000  -0.00000  1
 S  S1  1  0.73387  0.22174  0.73387  1
 S  S2  1  0.73387  0.73387  0.22174  1
 S  S3  1  0.22174  0.73387  0.73387  1
 S  S4  1  0.77826  0.26613  0.26613  1
 S  S5  1  0.26613  0.77826  0.26613  1
 S  S6  1  0.26613  0.26613  0.77826  1
