CIF file written using JARVIS-Tools package.
data_Lu2Pt2O7
_symmetry_space_group_name_H-M  'Fd-3m'
_cell_length_a       7.14604
_cell_length_b       7.14604
_cell_length_c       7.14604
_cell_angle_alpha    60
_cell_angle_beta     90
_cell_angle_gamma    120

_symmetry_Int_Tables_number  227
_chemical_formula_structural  Lu2Pt2O7
_chemical_formula_sum  Lu4Pt4O4
_cell_volume  258.0366989306353
_cell_formula_units_Z  2
loop_
  _symmetry_equiv_pos_site_id
 _symmetry_equiv_pos_as_xyz
 1  'x, y, z'
loop_
 _atom_site_type_symbol
 _atom_site_label
 _atom_site_symmetry_multiplicity
 _atom_site_fract_x
 _atom_site_fract_y
 _atom_site_fract_z
 _atom_site_fract_occupancy
 Lu  Lu1  1  0.50000  0.00000  -0.00000  1
 Lu  Lu2  1  0.50000  0.00000  0.50000  1
 Lu  Lu3  1  0.50000  0.50000  0.50000  1
 Lu  Lu4  1  -0.00000  0.50000  0.50000  1
 O  O1  1  0.90513  0.25000  0.34487  1
 O  O2  1  0.65513  0.31025  0.09487  1
 O  O3  1  0.34487  0.68975  0.90513  1
 O  O4  1  0.34487  0.25000  0.34487  1
 O  O5  1  0.62500  0.25000  0.62500  1
 O  O6  1  0.65513  0.75000  0.09487  1
 O  O7  1  0.90513  0.81025  0.34487  1
 O  O8  1  0.09487  0.75000  0.09487  1
 O  O9  1  0.65513  0.75000  0.65513  1
 O  O10  1  0.90513  0.25000  0.90513  1
 O  O11  1  0.37500  0.75000  0.37500  1
 O  O12  1  0.34487  0.25000  0.90513  1
 O  O13  1  0.09487  0.18975  0.65513  1
 O  O14  1  0.09487  0.75000  0.65513  1
 Pt  Pt1  1  -0.00000  0.50000  0.00000  1
 Pt  Pt2  1  -0.00000  0.00000  0.50000  1
 Pt  Pt3  1  0.50000  0.50000  0.00000  1
 Pt  Pt4  1  0.00000  0.00000  0.00000  1
