CIF file written using JARVIS-Tools package.
data_Mg2AgSbO6
_symmetry_space_group_name_H-M  'P2_1/m'
_cell_length_a       5.49198
_cell_length_b       7.55556
_cell_length_c       5.60358
_cell_angle_alpha    90
_cell_angle_beta     99.3311
_cell_angle_gamma    90

_symmetry_Int_Tables_number  11
_chemical_formula_structural  Mg2AgSbO6
_chemical_formula_sum  Mg4Ag2Sb2O2
_cell_volume  229.44410135843523
_cell_formula_units_Z  2
loop_
  _symmetry_equiv_pos_site_id
 _symmetry_equiv_pos_as_xyz
 1  'x, y, z'
loop_
 _atom_site_type_symbol
 _atom_site_label
 _atom_site_symmetry_multiplicity
 _atom_site_fract_x
 _atom_site_fract_y
 _atom_site_fract_z
 _atom_site_fract_occupancy
 Ag  Ag1  1  0.50000  0.50000  -0.00000  1
 Ag  Ag2  1  0.50000  0.00000  -0.00000  1
 Mg  Mg1  1  0.47873  0.75000  0.43496  1
 Mg  Mg2  1  0.52127  0.25000  0.56504  1
 Mg  Mg3  1  0.94304  0.75000  0.97659  1
 Mg  Mg4  1  0.05696  0.25000  0.02341  1
 O  O1  1  0.65064  0.44122  0.34371  1
 O  O2  1  0.87440  0.75000  0.59545  1
 O  O3  1  0.34936  0.94122  0.65629  1
 O  O4  1  0.12153  0.57253  0.20777  1
 O  O5  1  0.87847  0.07253  0.79223  1
 O  O6  1  0.12153  0.92747  0.20777  1
 O  O7  1  0.61327  0.75000  0.10010  1
 O  O8  1  0.65064  0.05878  0.34371  1
 O  O9  1  0.87847  0.42747  0.79223  1
 O  O10  1  0.34936  0.55878  0.65629  1
 O  O11  1  0.12560  0.25000  0.40455  1
 O  O12  1  0.38673  0.25000  0.89990  1
 Sb  Sb1  1  -0.00000  0.00000  0.50000  1
 Sb  Sb2  1  -0.00000  0.50000  0.50000  1
