CIF file written using JARVIS-Tools package.
data_Na2Ni5O10
_symmetry_space_group_name_H-M  'P-1'
_cell_length_a       4.92051
_cell_length_b       6.43412
_cell_length_c       7.03006
_cell_angle_alpha    112.159
_cell_angle_beta     96.8569
_cell_angle_gamma    104.07

_symmetry_Int_Tables_number  2
_chemical_formula_structural  Na2Ni5O10
_chemical_formula_sum  Na2Ni5O0
_cell_volume  194.34630650296336
_cell_formula_units_Z  1
loop_
  _symmetry_equiv_pos_site_id
 _symmetry_equiv_pos_as_xyz
 1  'x, y, z'
loop_
 _atom_site_type_symbol
 _atom_site_label
 _atom_site_symmetry_multiplicity
 _atom_site_fract_x
 _atom_site_fract_y
 _atom_site_fract_z
 _atom_site_fract_occupancy
 Na  Na1  1  0.12143  0.73406  0.23149  1
 Na  Na2  1  0.87857  0.26594  0.76851  1
 Ni  Ni1  1  0.10239  0.20316  0.19918  1
 Ni  Ni2  1  0.50000  -0.00000  -0.00000  1
 Ni  Ni3  1  0.89761  0.79684  0.80082  1
 Ni  Ni4  1  0.29855  0.59679  0.60254  1
 Ni  Ni5  1  0.70145  0.40321  0.39746  1
 O  O1  1  0.18081  0.10048  0.92567  1
 O  O2  1  0.38678  0.50818  0.33115  1
 O  O3  1  0.19461  0.68102  0.86983  1
 O  O4  1  0.81919  0.89952  0.07433  1
 O  O5  1  0.61322  0.49182  0.66885  1
 O  O6  1  0.41564  0.09981  0.26775  1
 O  O7  1  0.58436  0.90019  0.73225  1
 O  O8  1  0.98848  0.70407  0.53127  1
 O  O9  1  0.80539  0.31898  0.13017  1
 O  O10  1  0.01152  0.29593  0.46873  1
