CIF file written using JARVIS-Tools package.
data_VBiO4
_symmetry_space_group_name_H-M  'I4_1/a'
_cell_length_a       5.16321
_cell_length_b       5.16321
_cell_length_c       6.89285
_cell_angle_alpha    111.995
_cell_angle_beta     111.996
_cell_angle_gamma    90

_symmetry_Int_Tables_number  88
_chemical_formula_structural  VBiO4
_chemical_formula_sum  V2Bi2O8
_cell_volume  155.86106635520093
_cell_formula_units_Z  2
loop_
  _symmetry_equiv_pos_site_id
 _symmetry_equiv_pos_as_xyz
 1  'x, y, z'
loop_
 _atom_site_type_symbol
 _atom_site_label
 _atom_site_symmetry_multiplicity
 _atom_site_fract_x
 _atom_site_fract_y
 _atom_site_fract_z
 _atom_site_fract_occupancy
 Bi  Bi1  1  0.37500  0.12500  0.75000  1
 Bi  Bi2  1  0.62500  0.87500  0.25000  1
 O  O1  1  0.93608  0.29598  0.59155  1
 O  O2  1  0.29558  0.43608  0.09155  1
 O  O3  1  0.79598  0.15547  0.09155  1
 O  O4  1  0.65547  0.79558  0.59155  1
 O  O5  1  0.34453  0.20442  0.40845  1
 O  O6  1  0.20402  0.84453  0.90845  1
 O  O7  1  0.06392  0.70402  0.40845  1
 O  O8  1  0.70442  0.56392  0.90845  1
 V  V1  1  0.87500  0.62500  0.75000  1
 V  V2  1  0.12500  0.37500  0.25000  1
