CIF file written using JARVIS-Tools package.
data_AgAsS2
_symmetry_space_group_name_H-M  'R-3'
_cell_length_a       8.67071
_cell_length_b       8.67071
_cell_length_c       8.6707
_cell_angle_alpha    108.235
_cell_angle_beta     108.235
_cell_angle_gamma    108.235

_symmetry_Int_Tables_number  148
_chemical_formula_structural  AgAsS2
_chemical_formula_sum  Ag6As6S2
_cell_volume  523.5172775982861
_cell_formula_units_Z  6
loop_
  _symmetry_equiv_pos_site_id
 _symmetry_equiv_pos_as_xyz
 1  'x, y, z'
loop_
 _atom_site_type_symbol
 _atom_site_label
 _atom_site_symmetry_multiplicity
 _atom_site_fract_x
 _atom_site_fract_y
 _atom_site_fract_z
 _atom_site_fract_occupancy
 Ag  Ag1  1  0.32245  0.74616  0.90920  1
 Ag  Ag2  1  0.74616  0.90920  0.32245  1
 Ag  Ag3  1  0.67755  0.25384  0.09080  1
 Ag  Ag4  1  0.09080  0.67755  0.25384  1
 Ag  Ag5  1  0.25384  0.09080  0.67755  1
 Ag  Ag6  1  0.90920  0.32245  0.74616  1
 As  As1  1  0.14622  0.35656  0.42984  1
 As  As2  1  0.35656  0.42984  0.14622  1
 As  As3  1  0.64344  0.57016  0.85378  1
 As  As4  1  0.85378  0.64344  0.57016  1
 As  As5  1  0.42984  0.14622  0.35656  1
 As  As6  1  0.57016  0.85378  0.64344  1
 S  S1  1  0.38968  0.85481  0.24812  1
 S  S2  1  0.93096  0.65325  0.85651  1
 S  S3  1  0.24812  0.38968  0.85481  1
 S  S4  1  0.85481  0.24812  0.38968  1
 S  S5  1  0.61032  0.14519  0.75188  1
 S  S6  1  0.75188  0.61032  0.14519  1
 S  S7  1  0.14349  0.06904  0.34675  1
 S  S8  1  0.34675  0.14349  0.06904  1
 S  S9  1  0.06904  0.34675  0.14349  1
 S  S10  1  0.85651  0.93096  0.65325  1
 S  S11  1  0.65325  0.85651  0.93096  1
 S  S12  1  0.14519  0.75188  0.61032  1
