CIF file written using JARVIS-Tools package.
data_CuCClO
_symmetry_space_group_name_H-M  'Pmn2_1'
_cell_length_a       3.63112
_cell_length_b       4.91605
_cell_length_c       8.09215
_cell_angle_alpha    90
_cell_angle_beta     90
_cell_angle_gamma    90

_symmetry_Int_Tables_number  31
_chemical_formula_structural  CuCClO
_chemical_formula_sum  Cu2C2Cl2O2
_cell_volume  144.45116145979873
_cell_formula_units_Z  2
loop_
  _symmetry_equiv_pos_site_id
 _symmetry_equiv_pos_as_xyz
 1  'x, y, z'
loop_
 _atom_site_type_symbol
 _atom_site_label
 _atom_site_symmetry_multiplicity
 _atom_site_fract_x
 _atom_site_fract_y
 _atom_site_fract_z
 _atom_site_fract_occupancy
 C  C1  1  0.00000  0.21668  0.66973  1
 C  C2  1  0.50000  0.71668  0.33027  1
 Cl  Cl1  1  0.00000  0.19072  0.12095  1
 Cl  Cl2  1  0.50000  0.69072  0.87905  1
 Cu  Cu1  1  0.50000  0.50145  0.14829  1
 Cu  Cu2  1  0.00000  0.00145  0.85171  1
 O  O1  1  0.00000  0.34655  0.55166  1
 O  O2  1  0.50000  0.84655  0.44834  1
