CIF file written using JARVIS-Tools package.
data_Li5FeS4
_symmetry_space_group_name_H-M  'Imm2'
_cell_length_a       3.57866
_cell_length_b       6.76851
_cell_length_c       7.87449
_cell_angle_alpha    115.447
_cell_angle_beta     103.129
_cell_angle_gamma    90.0005

_symmetry_Int_Tables_number  44
_chemical_formula_structural  Li5FeS4
_chemical_formula_sum  Li5FeS4
_cell_volume  166.69443488331783
_cell_formula_units_Z  1
loop_
  _symmetry_equiv_pos_site_id
 _symmetry_equiv_pos_as_xyz
 1  'x, y, z'
loop_
 _atom_site_type_symbol
 _atom_site_label
 _atom_site_symmetry_multiplicity
 _atom_site_fract_x
 _atom_site_fract_y
 _atom_site_fract_z
 _atom_site_fract_occupancy
 Fe  Fe1  1  0.52990  0.03002  0.06094  1
 Li  Li1  1  0.82135  0.61813  0.64402  1
 Li  Li2  1  0.82138  0.02489  0.64399  1
 Li  Li3  1  0.16950  0.94458  0.34036  1
 Li  Li4  1  0.16948  0.39488  0.34035  1
 Li  Li5  1  0.51670  0.51674  0.03439  1
 S  S1  1  -0.00317  0.23320  -0.00522  1
 S  S2  1  0.26997  0.77012  0.54118  1
 S  S3  1  0.70195  0.20218  0.40527  1
 S  S4  1  -0.00314  0.76068  -0.00519  1
