CIF file written using JARVIS-Tools package.
data_DyTlSe2
_symmetry_space_group_name_H-M  'R-3m'
_cell_length_a       8.0897
_cell_length_b       8.0897
_cell_length_c       8.08969
_cell_angle_alpha    29.792
_cell_angle_beta     29.792
_cell_angle_gamma    29.792

_symmetry_Int_Tables_number  166
_chemical_formula_structural  DyTlSe2
_chemical_formula_sum  DyTlSe2
_cell_volume  115.72950272381138
_cell_formula_units_Z  1
loop_
  _symmetry_equiv_pos_site_id
 _symmetry_equiv_pos_as_xyz
 1  'x, y, z'
loop_
 _atom_site_type_symbol
 _atom_site_label
 _atom_site_symmetry_multiplicity
 _atom_site_fract_x
 _atom_site_fract_y
 _atom_site_fract_z
 _atom_site_fract_occupancy
 Dy  Dy1  1  0.00000  0.00000  0.00000  1
 Se  Se1  1  0.73506  0.73506  0.73506  1
 Se  Se2  1  0.26494  0.26494  0.26494  1
 Tl  Tl1  1  0.50000  0.50000  0.50000  1
