CIF file written using JARVIS-Tools package.
data_LiCoSiO4
_symmetry_space_group_name_H-M  'Pnma'
_cell_length_a       4.59814
_cell_length_b       5.88569
_cell_length_c       9.99065
_cell_angle_alpha    90
_cell_angle_beta     90
_cell_angle_gamma    90

_symmetry_Int_Tables_number  62
_chemical_formula_structural  LiCoSiO4
_chemical_formula_sum  Li4Co4Si4O6
_cell_volume  270.3790292823676
_cell_formula_units_Z  4
loop_
  _symmetry_equiv_pos_site_id
 _symmetry_equiv_pos_as_xyz
 1  'x, y, z'
loop_
 _atom_site_type_symbol
 _atom_site_label
 _atom_site_symmetry_multiplicity
 _atom_site_fract_x
 _atom_site_fract_y
 _atom_site_fract_z
 _atom_site_fract_occupancy
 Co  Co1  1  -0.00000  0.25652  0.50000  1
 Co  Co2  1  0.50000  0.25652  0.00000  1
 Co  Co3  1  0.50000  0.75652  -0.00000  1
 Co  Co4  1  0.00000  0.75652  0.50000  1
 Li  Li1  1  0.01937  0.00653  0.22083  1
 Li  Li2  1  0.48063  0.00653  0.72083  1
 Li  Li3  1  0.51937  0.50653  0.27917  1
 Li  Li4  1  0.98063  0.50653  0.77917  1
 O  O1  1  0.22168  0.27417  0.14772  1
 O  O2  1  0.27832  0.73889  0.64772  1
 O  O3  1  0.28265  0.00653  0.91864  1
 O  O4  1  0.26051  0.50653  0.93800  1
 O  O5  1  0.22168  0.73889  0.14772  1
 O  O6  1  0.77832  0.77417  0.85228  1
 O  O7  1  0.23949  0.50653  0.43800  1
 O  O8  1  0.21735  0.00653  0.41864  1
 O  O9  1  0.76051  0.00653  0.56200  1
 O  O10  1  0.78265  0.50653  0.58136  1
 O  O11  1  0.72168  0.23889  0.35228  1
 O  O12  1  0.71735  0.50653  0.08136  1
 O  O13  1  0.27832  0.27417  0.64772  1
 O  O14  1  0.77832  0.23889  0.85228  1
 O  O15  1  0.72168  0.77417  0.35228  1
 O  O16  1  0.73949  0.00653  0.06200  1
 Si  Si1  1  0.07720  0.50653  0.08750  1
 Si  Si2  1  0.42280  0.50653  0.58750  1
 Si  Si3  1  0.57720  0.00653  0.41250  1
 Si  Si4  1  0.92280  0.00653  0.91250  1
