CIF file written using JARVIS-Tools package.
data_CdSe
_symmetry_space_group_name_H-M  'P6_3mc'
_cell_length_a       4.35775
_cell_length_b       4.35775
_cell_length_c       7.13617
_cell_angle_alpha    90
_cell_angle_beta     90
_cell_angle_gamma    120

_symmetry_Int_Tables_number  186
_chemical_formula_structural  CdSe
_chemical_formula_sum  Cd2Se2
_cell_volume  117.36016503535127
_cell_formula_units_Z  2
loop_
  _symmetry_equiv_pos_site_id
 _symmetry_equiv_pos_as_xyz
 1  'x, y, z'
loop_
 _atom_site_type_symbol
 _atom_site_label
 _atom_site_symmetry_multiplicity
 _atom_site_fract_x
 _atom_site_fract_y
 _atom_site_fract_z
 _atom_site_fract_occupancy
 Cd  Cd1  1  0.66667  0.33333  0.49946  1
 Cd  Cd2  1  0.33333  0.66667  -0.00054  1
 Se  Se1  1  0.66667  0.33333  0.12468  1
 Se  Se2  1  0.33333  0.66667  0.62468  1
