CIF file written using JARVIS-Tools package.
data_LiVP2O7
_symmetry_space_group_name_H-M  'P-1'
_cell_length_a       6.25646
_cell_length_b       6.41372
_cell_length_c       7.82992
_cell_angle_alpha    97.3908
_cell_angle_beta     104.189
_cell_angle_gamma    115.084

_symmetry_Int_Tables_number  2
_chemical_formula_structural  LiVP2O7
_chemical_formula_sum  Li2V2P4O4
_cell_volume  266.02767391374584
_cell_formula_units_Z  2
loop_
  _symmetry_equiv_pos_site_id
 _symmetry_equiv_pos_as_xyz
 1  'x, y, z'
loop_
 _atom_site_type_symbol
 _atom_site_label
 _atom_site_symmetry_multiplicity
 _atom_site_fract_x
 _atom_site_fract_y
 _atom_site_fract_z
 _atom_site_fract_occupancy
 Li  Li1  1  0.00000  0.00000  0.00000  1
 Li  Li2  1  -0.00000  0.00000  0.50000  1
 O  O1  1  0.29242  0.60476  0.96708  1
 O  O2  1  0.20992  0.21483  0.76295  1
 O  O3  1  0.79008  0.78517  0.23705  1
 O  O4  1  0.71270  0.68780  0.80078  1
 O  O5  1  0.26134  0.56442  0.63299  1
 O  O6  1  0.55863  -0.00673  0.78963  1
 O  O7  1  0.40032  0.20511  0.49744  1
 O  O8  1  0.59968  0.79489  0.50256  1
 O  O9  1  0.11807  0.64649  0.29034  1
 O  O10  1  0.73866  0.43558  0.36701  1
 O  O11  1  0.28730  0.31220  0.19922  1
 O  O12  1  0.44137  0.00673  0.21037  1
 O  O13  1  0.88193  0.35351  0.70966  1
 O  O14  1  0.70758  0.39524  0.03292  1
 P  P1  1  0.84236  0.56902  0.22054  1
 P  P2  1  0.45448  0.22830  0.31817  1
 P  P3  1  0.54552  0.77170  0.68183  1
 P  P4  1  0.15764  0.43098  0.77946  1
 V  V1  1  0.41434  0.69199  0.23098  1
 V  V2  1  0.58566  0.30801  0.76902  1
