CIF file written using JARVIS-Tools package.
data_Zn2GeS4
_symmetry_space_group_name_H-M  'I-42m'
_cell_length_a       5.44996
_cell_length_b       5.45043
_cell_length_c       6.35494
_cell_angle_alpha    115.395
_cell_angle_beta     115.391
_cell_angle_gamma    89.9991

_symmetry_Int_Tables_number  121
_chemical_formula_structural  Zn2GeS4
_chemical_formula_sum  Zn2GeS4
_cell_volume  150.09717584704384
_cell_formula_units_Z  1
loop_
  _symmetry_equiv_pos_site_id
 _symmetry_equiv_pos_as_xyz
 1  'x, y, z'
loop_
 _atom_site_type_symbol
 _atom_site_label
 _atom_site_symmetry_multiplicity
 _atom_site_fract_x
 _atom_site_fract_y
 _atom_site_fract_z
 _atom_site_fract_occupancy
 Ge  Ge1  1  0.24827  0.74977  0.49897  1
 S  S1  1  0.61393  0.11541  0.73097  1
 S  S2  1  0.11464  0.61617  0.73100  1
 S  S3  1  0.88263  0.88339  0.26699  1
 S  S4  1  0.38193  0.38414  0.26699  1
 Zn  Zn1  1  0.99829  -0.00019  -0.00097  1
 Zn  Zn2  1  0.49826  0.49975  0.99894  1
