CIF file written using JARVIS-Tools package.
data_Cd2As2O7
_symmetry_space_group_name_H-M  'C2/m'
_cell_length_a       4.92597
_cell_length_b       5.77753
_cell_length_c       5.77753
_cell_angle_alpha    104.302
_cell_angle_beta     97.0641
_cell_angle_gamma    97.0641

_symmetry_Int_Tables_number  12
_chemical_formula_structural  Cd2As2O7
_chemical_formula_sum  Cd2As2O7
_cell_volume  156.09896226384387
_cell_formula_units_Z  1
loop_
  _symmetry_equiv_pos_site_id
 _symmetry_equiv_pos_as_xyz
 1  'x, y, z'
loop_
 _atom_site_type_symbol
 _atom_site_label
 _atom_site_symmetry_multiplicity
 _atom_site_fract_x
 _atom_site_fract_y
 _atom_site_fract_z
 _atom_site_fract_occupancy
 As  As1  1  0.91169  0.22889  0.22889  1
 As  As2  1  0.08831  0.77111  0.77111  1
 Cd  Cd1  1  0.50000  0.30173  0.69827  1
 Cd  Cd2  1  0.50000  0.69827  0.30173  1
 O  O1  1  0.27454  0.91909  0.60551  1
 O  O2  1  0.72546  0.39449  0.08091  1
 O  O3  1  0.72546  0.08091  0.39449  1
 O  O4  1  0.27454  0.60551  0.91909  1
 O  O5  1  0.00000  0.00000  0.00000  1
 O  O6  1  0.77979  0.61247  0.61247  1
 O  O7  1  0.22021  0.38753  0.38753  1
