CIF file written using JARVIS-Tools package.
data_Li3MnCo3O8
_symmetry_space_group_name_H-M  'C2/m'
_cell_length_a       5.65407
_cell_length_b       5.65407
_cell_length_c       5.76695
_cell_angle_alpha    120.081
_cell_angle_beta     90.6232
_cell_angle_gamma    60.0089

_symmetry_Int_Tables_number  12
_chemical_formula_structural  Li3MnCo3O8
_chemical_formula_sum  Li3MnCo3O8
_cell_volume  130.91502272169265
_cell_formula_units_Z  1
loop_
  _symmetry_equiv_pos_site_id
 _symmetry_equiv_pos_as_xyz
 1  'x, y, z'
loop_
 _atom_site_type_symbol
 _atom_site_label
 _atom_site_symmetry_multiplicity
 _atom_site_fract_x
 _atom_site_fract_y
 _atom_site_fract_z
 _atom_site_fract_occupancy
 Co  Co1  1  0.00000  0.50000  0.00000  1
 Co  Co2  1  0.50000  -0.00000  0.00000  1
 Co  Co3  1  0.50000  0.50000  0.00000  1
 Li  Li1  1  0.00000  0.00000  0.50000  1
 Li  Li2  1  0.50000  0.00000  0.50000  1
 Li  Li3  1  0.50000  0.50000  0.50000  1
 Mn  Mn1  1  0.00000  0.00000  0.00000  1
 O  O1  1  0.23893  0.01690  0.77798  1
 O  O2  1  0.24043  0.52125  0.78430  1
 O  O3  1  0.26682  0.47688  0.21006  1
 O  O4  1  0.73694  0.02474  0.78430  1
 O  O5  1  0.26306  0.97526  0.21570  1
 O  O6  1  0.73318  0.52312  0.78994  1
 O  O7  1  0.75957  0.47875  0.21570  1
 O  O8  1  0.76107  0.98310  0.22202  1
