CIF file written using JARVIS-Tools package.
data_PPbS3
_symmetry_space_group_name_H-M  'P2_1/c'
_cell_length_a       6.72086
_cell_length_b       7.48193
_cell_length_c       11.3973
_cell_angle_alpha    90
_cell_angle_beta     124.236
_cell_angle_gamma    90

_symmetry_Int_Tables_number  14
_chemical_formula_structural  PPbS3
_chemical_formula_sum  P4Pb4S2
_cell_volume  473.80502701818335
_cell_formula_units_Z  4
loop_
  _symmetry_equiv_pos_site_id
 _symmetry_equiv_pos_as_xyz
 1  'x, y, z'
loop_
 _atom_site_type_symbol
 _atom_site_label
 _atom_site_symmetry_multiplicity
 _atom_site_fract_x
 _atom_site_fract_y
 _atom_site_fract_z
 _atom_site_fract_occupancy
 P  P1  1  0.87559  0.13918  0.71301  1
 P  P2  1  0.87559  0.86082  0.21301  1
 P  P3  1  0.13289  0.36081  0.84475  1
 P  P4  1  0.13289  0.63919  0.34475  1
 Pb  Pb1  1  0.78823  0.63497  0.52639  1
 Pb  Pb2  1  0.22026  0.13499  0.53137  1
 Pb  Pb3  1  0.22026  0.86501  0.03137  1
 Pb  Pb4  1  0.78823  0.36503  0.02639  1
 S  S1  1  0.28343  0.55374  0.24076  1
 S  S2  1  0.37123  0.74420  0.54046  1
 S  S3  1  0.90909  0.44653  0.33660  1
 S  S4  1  0.72505  0.05375  0.81700  1
 S  S5  1  0.90909  0.55347  0.83660  1
 S  S6  1  0.37123  0.25580  0.04046  1
 S  S7  1  0.09938  0.94652  0.72116  1
 S  S8  1  0.72505  0.94625  0.31700  1
 S  S9  1  0.63726  0.24419  0.51730  1
 S  S10  1  0.09938  0.05348  0.22116  1
 S  S11  1  0.63726  0.75581  0.01730  1
 S  S12  1  0.28343  0.44626  0.74076  1
