CIF file written using JARVIS-Tools package.
data_MgH12Cl2O6
_symmetry_space_group_name_H-M  'C2/m'
_cell_length_a       5.9985
_cell_length_b       5.9985
_cell_length_c       6.12631
_cell_angle_alpha    86.8057
_cell_angle_beta     93.1943
_cell_angle_gamma    109.245

_symmetry_Int_Tables_number  12
_chemical_formula_structural  MgH12Cl2O6
_chemical_formula_sum  MgH2Cl2O6
_cell_volume  207.63179712457315
_cell_formula_units_Z  1
loop_
  _symmetry_equiv_pos_site_id
 _symmetry_equiv_pos_as_xyz
 1  'x, y, z'
loop_
 _atom_site_type_symbol
 _atom_site_label
 _atom_site_symmetry_multiplicity
 _atom_site_fract_x
 _atom_site_fract_y
 _atom_site_fract_z
 _atom_site_fract_occupancy
 Cl  Cl1  1  0.31214  0.68786  0.60911  1
 Cl  Cl2  1  0.68786  0.31214  0.39089  1
 H  H1  1  0.24282  0.75718  0.26391  1
 H  H2  1  0.08186  0.31956  0.31896  1
 H  H3  1  0.68044  0.91814  0.31896  1
 H  H4  1  0.31956  0.08186  0.68104  1
 H  H5  1  0.33081  0.27999  0.28602  1
 H  H6  1  0.72001  0.66919  0.28602  1
 H  H7  1  0.91814  0.68044  0.68104  1
 H  H8  1  0.27999  0.33081  0.71398  1
 H  H9  1  0.27904  0.72096  0.01305  1
 H  H10  1  0.72096  0.27904  0.98695  1
 H  H11  1  0.75718  0.24282  0.73609  1
 H  H12  1  0.66919  0.72001  0.71398  1
 Mg  Mg1  1  0.00000  0.00000  0.00000  1
 O  O1  1  0.74272  0.82995  0.22170  1
 O  O2  1  0.79616  0.20384  0.88924  1
 O  O3  1  0.20384  0.79616  0.11076  1
 O  O4  1  0.25728  0.17005  0.77830  1
 O  O5  1  0.82995  0.74272  0.77830  1
 O  O6  1  0.17005  0.25728  0.22170  1
