CIF file written using JARVIS-Tools package.
data_SrP6Pt4
_symmetry_space_group_name_H-M  'C2/c'
_cell_length_a       5.81484
_cell_length_b       5.81484
_cell_length_c       11.5882
_cell_angle_alpha    89.5423
_cell_angle_beta     89.5422
_cell_angle_gamma    88.0933

_symmetry_Int_Tables_number  15
_chemical_formula_structural  SrP6Pt4
_chemical_formula_sum  Sr2P2Pt8
_cell_volume  391.5828872856364
_cell_formula_units_Z  2
loop_
  _symmetry_equiv_pos_site_id
 _symmetry_equiv_pos_as_xyz
 1  'x, y, z'
loop_
 _atom_site_type_symbol
 _atom_site_label
 _atom_site_symmetry_multiplicity
 _atom_site_fract_x
 _atom_site_fract_y
 _atom_site_fract_z
 _atom_site_fract_occupancy
 P  P1  1  0.08945  0.12982  0.80536  1
 P  P2  1  0.12982  0.08945  0.30536  1
 P  P3  1  0.60886  0.11638  0.94877  1
 P  P4  1  0.11638  0.60886  0.44877  1
 P  P5  1  0.39114  0.88362  0.05123  1
 P  P6  1  0.61578  0.88558  0.44690  1
 P  P7  1  0.88362  0.39114  0.55123  1
 P  P8  1  0.38422  0.11442  0.55310  1
 P  P9  1  0.88558  0.61578  0.94690  1
 P  P10  1  0.87018  0.91055  0.69464  1
 P  P11  1  0.91055  0.87018  0.19464  1
 P  P12  1  0.11442  0.38422  0.05310  1
 Pt  Pt1  1  0.00000  0.00000  0.50000  1
 Pt  Pt2  1  0.50000  0.50000  -0.00000  1
 Pt  Pt3  1  0.50000  0.50000  0.50000  1
 Pt  Pt4  1  0.49329  0.07731  0.75022  1
 Pt  Pt5  1  0.07731  0.49329  0.25022  1
 Pt  Pt6  1  0.50671  0.92269  0.24978  1
 Pt  Pt7  1  0.00000  0.00000  0.00000  1
 Pt  Pt8  1  0.92269  0.50671  0.74978  1
 Sr  Sr1  1  0.40209  0.59791  0.75000  1
 Sr  Sr2  1  0.59791  0.40209  0.25000  1
