CIF file written using JARVIS-Tools package.
data_PbF2
_symmetry_space_group_name_H-M  'Pnma'
_cell_length_a       3.89791
_cell_length_b       6.45549
_cell_length_c       7.68395
_cell_angle_alpha    90
_cell_angle_beta     90
_cell_angle_gamma    90

_symmetry_Int_Tables_number  62
_chemical_formula_structural  PbF2
_chemical_formula_sum  Pb4F8
_cell_volume  193.35041028247247
_cell_formula_units_Z  4
loop_
  _symmetry_equiv_pos_site_id
 _symmetry_equiv_pos_as_xyz
 1  'x, y, z'
loop_
 _atom_site_type_symbol
 _atom_site_label
 _atom_site_symmetry_multiplicity
 _atom_site_fract_x
 _atom_site_fract_y
 _atom_site_fract_z
 _atom_site_fract_occupancy
 F  F1  1  0.25000  0.97324  0.34240  1
 F  F2  1  0.75000  0.02676  0.65760  1
 F  F3  1  0.25000  0.47324  0.15760  1
 F  F4  1  0.75000  0.52676  0.84240  1
 F  F5  1  0.75000  0.14075  0.06694  1
 F  F6  1  0.25000  0.85925  0.93306  1
 F  F7  1  0.75000  0.64075  0.43306  1
 F  F8  1  0.25000  0.35925  0.56694  1
 Pb  Pb1  1  0.25000  0.75464  0.60681  1
 Pb  Pb2  1  0.75000  0.24536  0.39319  1
 Pb  Pb3  1  0.25000  0.25464  0.89319  1
 Pb  Pb4  1  0.75000  0.74536  0.10681  1
