CIF file written using JARVIS-Tools package.
data_SrAg2
_symmetry_space_group_name_H-M  'Imma'
_cell_length_a       4.8237
_cell_length_b       6.13871
_cell_length_c       6.13871
_cell_angle_alpha    77.1668
_cell_angle_beta     66.8655
_cell_angle_gamma    66.8654

_symmetry_Int_Tables_number  74
_chemical_formula_structural  SrAg2
_chemical_formula_sum  Sr2Ag4
_cell_volume  153.2214379861738
_cell_formula_units_Z  2
loop_
  _symmetry_equiv_pos_site_id
 _symmetry_equiv_pos_as_xyz
 1  'x, y, z'
loop_
 _atom_site_type_symbol
 _atom_site_label
 _atom_site_symmetry_multiplicity
 _atom_site_fract_x
 _atom_site_fract_y
 _atom_site_fract_z
 _atom_site_fract_occupancy
 Ag  Ag1  1  0.66347  0.78626  0.88681  1
 Ag  Ag2  1  0.33653  0.21374  0.11319  1
 Ag  Ag3  1  0.33653  0.61319  0.71374  1
 Ag  Ag4  1  0.66347  0.38681  0.28626  1
 Sr  Sr1  1  0.95858  0.79142  0.29142  1
 Sr  Sr2  1  0.04142  0.20858  0.70858  1
