CIF file written using JARVIS-Tools package.
data_ZnCrF6
_symmetry_space_group_name_H-M  'R-3'
_cell_length_a       5.32391
_cell_length_b       5.32391
_cell_length_c       5.3239
_cell_angle_alpha    55.0303
_cell_angle_beta     55.0302
_cell_angle_gamma    55.0303

_symmetry_Int_Tables_number  148
_chemical_formula_structural  ZnCrF6
_chemical_formula_sum  ZnCrF6
_cell_volume  94.36633455577851
_cell_formula_units_Z  1
loop_
  _symmetry_equiv_pos_site_id
 _symmetry_equiv_pos_as_xyz
 1  'x, y, z'
loop_
 _atom_site_type_symbol
 _atom_site_label
 _atom_site_symmetry_multiplicity
 _atom_site_fract_x
 _atom_site_fract_y
 _atom_site_fract_z
 _atom_site_fract_occupancy
 Cr  Cr1  1  0.50000  0.50000  0.50000  1
 F  F1  1  0.12251  0.40637  0.73364  1
 F  F2  1  0.40637  0.73364  0.12251  1
 F  F3  1  0.73364  0.12251  0.40637  1
 F  F4  1  0.26636  0.87749  0.59363  1
 F  F5  1  0.59363  0.26636  0.87749  1
 F  F6  1  0.87749  0.59363  0.26636  1
 Zn  Zn1  1  0.00000  0.00000  0.00000  1
