CIF file written using JARVIS-Tools package.
data_LiInP2O7
_symmetry_space_group_name_H-M  'P2_1'
_cell_length_a       4.91965
_cell_length_b       8.48249
_cell_length_c       7.14964
_cell_angle_alpha    90
_cell_angle_beta     110.37
_cell_angle_gamma    90

_symmetry_Int_Tables_number  4
_chemical_formula_structural  LiInP2O7
_chemical_formula_sum  Li2In2P4O4
_cell_volume  279.7025209542147
_cell_formula_units_Z  2
loop_
  _symmetry_equiv_pos_site_id
 _symmetry_equiv_pos_as_xyz
 1  'x, y, z'
loop_
 _atom_site_type_symbol
 _atom_site_label
 _atom_site_symmetry_multiplicity
 _atom_site_fract_x
 _atom_site_fract_y
 _atom_site_fract_z
 _atom_site_fract_occupancy
 In  In1  1  0.22146  0.24863  0.73523  1
 In  In2  1  0.77854  0.74863  0.26477  1
 Li  Li1  1  0.81146  0.39005  0.33248  1
 Li  Li2  1  0.18854  0.89005  0.66752  1
 O  O1  1  0.78609  0.21504  0.50495  1
 O  O2  1  0.21391  0.71504  0.49505  1
 O  O3  1  0.60866  0.56427  0.41056  1
 O  O4  1  0.76636  0.91431  0.49408  1
 O  O5  1  0.39424  0.08392  0.23515  1
 O  O6  1  0.23364  0.41431  0.50592  1
 O  O7  1  0.91218  0.93715  0.12004  1
 O  O8  1  0.08782  0.43715  0.87996  1
 O  O9  1  0.13178  0.04188  0.87258  1
 O  O10  1  0.60576  0.58392  0.76485  1
 O  O11  1  0.34977  0.80573  0.07975  1
 O  O12  1  0.65023  0.30573  0.92025  1
 O  O13  1  0.86822  0.54188  0.12742  1
 O  O14  1  0.39134  0.06427  0.58944  1
 P  P1  1  0.18807  0.96068  0.07347  1
 P  P2  1  0.81193  0.46068  0.92653  1
 P  P3  1  0.40688  0.56803  0.53188  1
 P  P4  1  0.59312  0.06803  0.46812  1
