CIF file written using JARVIS-Tools package.
data_Tm2Te5O13
_symmetry_space_group_name_H-M  'P-1'
_cell_length_a       6.88079
_cell_length_b       8.60069
_cell_length_c       10.505
_cell_angle_alpha    88.9613
_cell_angle_beta     86.9331
_cell_angle_gamma    74.999

_symmetry_Int_Tables_number  2
_chemical_formula_structural  Tm2Te5O13
_chemical_formula_sum  Tm4Te0O26
_cell_volume  599.627833701312
_cell_formula_units_Z  2
loop_
  _symmetry_equiv_pos_site_id
 _symmetry_equiv_pos_as_xyz
 1  'x, y, z'
loop_
 _atom_site_type_symbol
 _atom_site_label
 _atom_site_symmetry_multiplicity
 _atom_site_fract_x
 _atom_site_fract_y
 _atom_site_fract_z
 _atom_site_fract_occupancy
 O  O1  1  0.06819  0.26693  0.28194  1
 O  O2  1  0.53880  0.81092  0.48766  1
 O  O3  1  0.93181  0.73307  0.71806  1
 O  O4  1  0.66643  0.26187  0.22876  1
 O  O5  1  0.94358  0.17956  0.96284  1
 O  O6  1  0.46120  0.18908  0.51234  1
 O  O7  1  0.67162  0.77661  0.22316  1
 O  O8  1  0.12469  0.48876  0.89406  1
 O  O9  1  0.23789  0.49892  0.18627  1
 O  O10  1  0.06604  0.01851  0.68873  1
 O  O11  1  0.93396  0.98149  0.31127  1
 O  O12  1  0.68794  0.26147  0.71089  1
 O  O13  1  0.32838  0.22339  0.77684  1
 O  O14  1  0.05642  0.82044  0.03716  1
 O  O15  1  0.34041  0.51149  0.61531  1
 O  O16  1  0.65311  0.00779  0.87674  1
 O  O17  1  0.31206  0.73853  0.28911  1
 O  O18  1  0.46984  0.67315  0.99936  1
 O  O19  1  0.76211  0.50108  0.81373  1
 O  O20  1  0.33357  0.73813  0.77124  1
 O  O21  1  0.34689  0.99221  0.12326  1
 O  O22  1  0.65959  0.48851  0.38469  1
 O  O23  1  0.04066  0.35068  0.56446  1
 O  O24  1  0.87531  0.51124  0.10594  1
 O  O25  1  0.53016  0.32685  0.00064  1
 O  O26  1  0.95934  0.64932  0.43554  1
 Te  Te1  1  0.87126  0.65289  0.89501  1
 Te  Te2  1  0.12874  0.34711  0.10499  1
 Te  Te3  1  0.15886  0.80312  0.63376  1
 Te  Te4  1  0.70915  0.11809  0.02958  1
 Te  Te5  1  0.72783  0.60488  0.52130  1
 Te  Te6  1  0.29085  0.88191  0.97042  1
 Te  Te7  1  0.43584  0.90975  0.30438  1
 Te  Te8  1  0.27217  0.39512  0.47870  1
 Te  Te9  1  0.84114  0.19688  0.36624  1
 Te  Te10  1  0.56416  0.09025  0.69562  1
 Tm  Tm1  1  0.99964  0.73676  0.23859  1
 Tm  Tm2  1  0.00036  0.26324  0.76141  1
 Tm  Tm3  1  0.55326  0.53210  0.18094  1
 Tm  Tm4  1  0.44674  0.46790  0.81906  1
