CIF file written using JARVIS-Tools package.
data_Ti5Ga4
_symmetry_space_group_name_H-M  'P6_3/mcm'
_cell_length_a       7.86068
_cell_length_b       7.86068
_cell_length_c       5.38911
_cell_angle_alpha    90
_cell_angle_beta     90
_cell_angle_gamma    120

_symmetry_Int_Tables_number  193
_chemical_formula_structural  Ti5Ga4
_chemical_formula_sum  Ti0Ga8
_cell_volume  288.3817632305974
_cell_formula_units_Z  2
loop_
  _symmetry_equiv_pos_site_id
 _symmetry_equiv_pos_as_xyz
 1  'x, y, z'
loop_
 _atom_site_type_symbol
 _atom_site_label
 _atom_site_symmetry_multiplicity
 _atom_site_fract_x
 _atom_site_fract_y
 _atom_site_fract_z
 _atom_site_fract_occupancy
 Ga  Ga1  1  0.37753  -0.00000  0.75000  1
 Ga  Ga2  1  -0.00000  0.37753  0.75000  1
 Ga  Ga3  1  0.62247  0.62247  0.75000  1
 Ga  Ga4  1  0.62247  0.00000  0.25000  1
 Ga  Ga5  1  0.00000  0.00000  0.50000  1
 Ga  Ga6  1  0.00000  0.00000  0.00000  1
 Ga  Ga7  1  0.37753  0.37753  0.25000  1
 Ga  Ga8  1  0.00000  0.62247  0.25000  1
 Ti  Ti1  1  0.28557  -0.00000  0.25000  1
 Ti  Ti2  1  0.33333  0.66667  0.00000  1
 Ti  Ti3  1  0.33333  0.66667  0.50000  1
 Ti  Ti4  1  0.71443  0.71443  0.25000  1
 Ti  Ti5  1  0.28557  0.28557  0.75000  1
 Ti  Ti6  1  0.00000  0.71443  0.75000  1
 Ti  Ti7  1  -0.00000  0.28557  0.25000  1
 Ti  Ti8  1  0.71443  0.00000  0.75000  1
 Ti  Ti9  1  0.66667  0.33333  0.00000  1
 Ti  Ti10  1  0.66667  0.33333  0.50000  1
