CIF file written using JARVIS-Tools package.
data_VO2
_symmetry_space_group_name_H-M  'P1'
_cell_length_a       2.91576
_cell_length_b       2.90638
_cell_length_c       9.62856
_cell_angle_alpha    73.0352
_cell_angle_beta     107.073
_cell_angle_gamma    120.081

_symmetry_Int_Tables_number  1
_chemical_formula_structural  VO2
_chemical_formula_sum  V2O4
_cell_volume  66.45500666389991
_cell_formula_units_Z  2
loop_
  _symmetry_equiv_pos_site_id
 _symmetry_equiv_pos_as_xyz
 1  'x, y, z'
loop_
 _atom_site_type_symbol
 _atom_site_label
 _atom_site_symmetry_multiplicity
 _atom_site_fract_x
 _atom_site_fract_y
 _atom_site_fract_z
 _atom_site_fract_occupancy
 O  O1  1  0.41109  0.59298  0.60655  1
 O  O2  1  0.27361  0.73454  0.88916  1
 O  O3  1  0.60442  0.40129  0.38931  1
 O  O4  1  0.74962  0.26393  0.10667  1
 V  V1  1  -0.02278  -0.00431  0.49795  1
 V  V2  1  -0.01752  -0.00176  0.99790  1
