CIF file written using JARVIS-Tools package.
data_Li4SeO5
_symmetry_space_group_name_H-M  'C2/c'
_cell_length_a       5.24717
_cell_length_b       5.24718
_cell_length_c       7.84874
_cell_angle_alpha    82.7784
_cell_angle_beta     82.7784
_cell_angle_gamma    66.2773

_symmetry_Int_Tables_number  15
_chemical_formula_structural  Li4SeO5
_chemical_formula_sum  Li8Se2O0
_cell_volume  195.59643866816631
_cell_formula_units_Z  2
loop_
  _symmetry_equiv_pos_site_id
 _symmetry_equiv_pos_as_xyz
 1  'x, y, z'
loop_
 _atom_site_type_symbol
 _atom_site_label
 _atom_site_symmetry_multiplicity
 _atom_site_fract_x
 _atom_site_fract_y
 _atom_site_fract_z
 _atom_site_fract_occupancy
 Li  Li1  1  0.36381  0.03288  0.35354  1
 Li  Li2  1  0.96712  0.63619  0.14646  1
 Li  Li3  1  0.56609  0.22366  0.94350  1
 Li  Li4  1  0.77634  0.43391  0.55650  1
 Li  Li5  1  0.43391  0.77634  0.05650  1
 Li  Li6  1  0.22366  0.56609  0.44350  1
 Li  Li7  1  0.63619  0.96712  0.64646  1
 Li  Li8  1  0.03288  0.36381  0.85354  1
 O  O1  1  0.99312  0.65101  0.65889  1
 O  O2  1  0.34899  0.00688  0.84111  1
 O  O3  1  0.76716  0.41420  0.07151  1
 O  O4  1  0.58580  0.23284  0.42849  1
 O  O5  1  0.23284  0.58580  0.92849  1
 O  O6  1  0.65101  0.99312  0.15889  1
 O  O7  1  0.13363  0.86637  0.25000  1
 O  O8  1  0.86637  0.13363  0.75000  1
 O  O9  1  0.00688  0.34899  0.34111  1
 O  O10  1  0.41420  0.76716  0.57151  1
 Se  Se1  1  0.82867  0.17133  0.25000  1
 Se  Se2  1  0.17133  0.82867  0.75000  1
