CIF file written using JARVIS-Tools package.
data_NaH3Se2O6
_symmetry_space_group_name_H-M  'P2_1/c'
_cell_length_a       4.51163
_cell_length_b       5.98032
_cell_length_c       11.0716
_cell_angle_alpha    90
_cell_angle_beta     110.894
_cell_angle_gamma    90

_symmetry_Int_Tables_number  14
_chemical_formula_structural  NaH3Se2O6
_chemical_formula_sum  Na2H6Se4O2
_cell_volume  279.079748285122
_cell_formula_units_Z  2
loop_
  _symmetry_equiv_pos_site_id
 _symmetry_equiv_pos_as_xyz
 1  'x, y, z'
loop_
 _atom_site_type_symbol
 _atom_site_label
 _atom_site_symmetry_multiplicity
 _atom_site_fract_x
 _atom_site_fract_y
 _atom_site_fract_z
 _atom_site_fract_occupancy
 H  H1  1  0.00000  0.00000  0.50000  1
 H  H2  1  0.00000  0.50000  0.00000  1
 H  H3  1  0.79007  0.55435  0.68656  1
 H  H4  1  0.79007  0.94565  0.18656  1
 H  H5  1  0.20993  0.44565  0.31344  1
 H  H6  1  0.20993  0.05435  0.81344  1
 Na  Na1  1  0.00000  0.50000  0.50000  1
 Na  Na2  1  0.00000  0.00000  0.00000  1
 O  O1  1  0.03588  0.17329  0.80092  1
 O  O2  1  0.47471  0.63112  0.35411  1
 O  O3  1  0.47471  0.86888  0.85411  1
 O  O4  1  0.52529  0.36888  0.64589  1
 O  O5  1  0.52529  0.13112  0.14589  1
 O  O6  1  0.15006  0.86142  0.46487  1
 O  O7  1  0.15006  0.63858  0.96487  1
 O  O8  1  0.96412  0.67329  0.69908  1
 O  O9  1  0.84994  0.36142  0.03513  1
 O  O10  1  0.96412  0.82671  0.19908  1
 O  O11  1  0.03588  0.32671  0.30092  1
 O  O12  1  0.84994  0.13858  0.53513  1
 Se  Se1  1  0.68891  0.11243  0.65693  1
 Se  Se2  1  0.31109  0.61243  0.84307  1
 Se  Se3  1  0.31109  0.88757  0.34307  1
 Se  Se4  1  0.68891  0.38757  0.15693  1
