CIF file written using JARVIS-Tools package.
data_LiCuBO3
_symmetry_space_group_name_H-M  'P-1'
_cell_length_a       5.22746
_cell_length_b       5.22921
_cell_length_c       5.50202
_cell_angle_alpha    90.1293
_cell_angle_beta     115.739
_cell_angle_gamma    119.974

_symmetry_Int_Tables_number  2
_chemical_formula_structural  LiCuBO3
_chemical_formula_sum  Li2Cu2B2O6
_cell_volume  112.63096853435826
_cell_formula_units_Z  2
loop_
  _symmetry_equiv_pos_site_id
 _symmetry_equiv_pos_as_xyz
 1  'x, y, z'
loop_
 _atom_site_type_symbol
 _atom_site_label
 _atom_site_symmetry_multiplicity
 _atom_site_fract_x
 _atom_site_fract_y
 _atom_site_fract_z
 _atom_site_fract_occupancy
 B  B1  1  0.82612  0.08384  0.74901  1
 B  B2  1  0.17388  0.91616  0.25099  1
 Cu  Cu1  1  0.15388  0.77475  0.74299  1
 Cu  Cu2  1  0.84612  0.22525  0.25701  1
 Li  Li1  1  0.46904  0.39495  0.70869  1
 Li  Li2  1  0.53096  0.60505  0.29131  1
 O  O1  1  0.04799  0.31584  0.67946  1
 O  O2  1  0.64267  0.14054  0.84109  1
 O  O3  1  0.76473  0.79541  0.70926  1
 O  O4  1  0.23527  0.20459  0.29074  1
 O  O5  1  0.35733  0.85946  0.15891  1
 O  O6  1  0.95201  0.68416  0.32054  1
