CIF file written using JARVIS-Tools package.
data_BaHg2
_symmetry_space_group_name_H-M  'Imma'
_cell_length_a       5.24345
_cell_length_b       6.63305
_cell_length_c       6.63305
_cell_angle_alpha    75.6434
_cell_angle_beta     66.7183
_cell_angle_gamma    66.7184

_symmetry_Int_Tables_number  74
_chemical_formula_structural  BaHg2
_chemical_formula_sum  Ba2Hg4
_cell_volume  193.50336413497374
_cell_formula_units_Z  2
loop_
  _symmetry_equiv_pos_site_id
 _symmetry_equiv_pos_as_xyz
 1  'x, y, z'
loop_
 _atom_site_type_symbol
 _atom_site_label
 _atom_site_symmetry_multiplicity
 _atom_site_fract_x
 _atom_site_fract_y
 _atom_site_fract_z
 _atom_site_fract_occupancy
 Ba  Ba1  1  0.49902  0.25098  0.75098  1
 Ba  Ba2  1  0.50098  0.74902  0.24902  1
 Hg  Hg1  1  0.83331  0.16535  0.16802  1
 Hg  Hg2  1  0.16669  0.83465  0.83198  1
 Hg  Hg3  1  0.16669  0.33198  0.33465  1
 Hg  Hg4  1  0.83331  0.66802  0.66535  1
