CIF file written using JARVIS-Tools package.
data_GePt3
_symmetry_space_group_name_H-M  'C2/m'
_cell_length_a       5.65809
_cell_length_b       5.6581
_cell_length_c       5.52618
_cell_angle_alpha    60.3883
_cell_angle_beta     60.3883
_cell_angle_gamma    89.8779

_symmetry_Int_Tables_number  12
_chemical_formula_structural  GePt3
_chemical_formula_sum  Ge2Pt6
_cell_volume  126.68033041911522
_cell_formula_units_Z  2
loop_
  _symmetry_equiv_pos_site_id
 _symmetry_equiv_pos_as_xyz
 1  'x, y, z'
loop_
 _atom_site_type_symbol
 _atom_site_label
 _atom_site_symmetry_multiplicity
 _atom_site_fract_x
 _atom_site_fract_y
 _atom_site_fract_z
 _atom_site_fract_occupancy
 Ge  Ge1  1  0.72532  0.72532  0.49605  1
 Ge  Ge2  1  0.27468  0.27468  0.50395  1
 Pt  Pt1  1  0.73135  0.26865  0.50000  1
 Pt  Pt2  1  0.26865  0.73135  0.50000  1
 Pt  Pt3  1  0.27270  0.27270  0.05986  1
 Pt  Pt4  1  0.72730  0.72730  0.94014  1
 Pt  Pt5  1  0.19966  0.80034  0.00000  1
 Pt  Pt6  1  0.80034  0.19966  -0.00000  1
