CIF file written using JARVIS-Tools package.
data_PdSe6Cl2
_symmetry_space_group_name_H-M  'P2_1/c'
_cell_length_a       4.34555
_cell_length_b       8.58204
_cell_length_c       12.9448
_cell_angle_alpha    90
_cell_angle_beta     99.6864
_cell_angle_gamma    90

_symmetry_Int_Tables_number  14
_chemical_formula_structural  PdSe6Cl2
_chemical_formula_sum  Pd2Se2Cl4
_cell_volume  475.87864302424066
_cell_formula_units_Z  2
loop_
  _symmetry_equiv_pos_site_id
 _symmetry_equiv_pos_as_xyz
 1  'x, y, z'
loop_
 _atom_site_type_symbol
 _atom_site_label
 _atom_site_symmetry_multiplicity
 _atom_site_fract_x
 _atom_site_fract_y
 _atom_site_fract_z
 _atom_site_fract_occupancy
 Cl  Cl1  1  0.62483  0.96657  0.85032  1
 Cl  Cl2  1  0.62483  0.53343  0.35032  1
 Cl  Cl3  1  0.37517  0.46657  0.64968  1
 Cl  Cl4  1  0.37517  0.03343  0.14968  1
 Pd  Pd1  1  -0.00000  0.50000  0.50000  1
 Pd  Pd2  1  0.00000  0.00000  0.00000  1
 Se  Se1  1  0.81238  0.26820  0.00727  1
 Se  Se2  1  0.81238  0.23180  0.50727  1
 Se  Se3  1  0.18762  0.73180  0.99273  1
 Se  Se4  1  0.97934  0.86478  0.64401  1
 Se  Se5  1  0.18256  0.37957  0.15079  1
 Se  Se6  1  0.02066  0.36478  0.85599  1
 Se  Se7  1  0.81744  0.87957  0.34921  1
 Se  Se8  1  0.18256  0.12043  0.65079  1
 Se  Se9  1  0.02066  0.13522  0.35599  1
 Se  Se10  1  0.81744  0.62043  0.84921  1
 Se  Se11  1  0.18762  0.76820  0.49273  1
 Se  Se12  1  0.97934  0.63522  0.14401  1
