CIF file written using JARVIS-Tools package.
data_Hg3S2Cl2
_symmetry_space_group_name_H-M  'I2_13'
_cell_length_a       7.84087
_cell_length_b       7.84086
_cell_length_c       7.84086
_cell_angle_alpha    109.471
_cell_angle_beta     109.471
_cell_angle_gamma    109.471

_symmetry_Int_Tables_number  199
_chemical_formula_structural  Hg3S2Cl2
_chemical_formula_sum  Hg6S4Cl4
_cell_volume  371.0816988592294
_cell_formula_units_Z  2
loop_
  _symmetry_equiv_pos_site_id
 _symmetry_equiv_pos_as_xyz
 1  'x, y, z'
loop_
 _atom_site_type_symbol
 _atom_site_label
 _atom_site_symmetry_multiplicity
 _atom_site_fract_x
 _atom_site_fract_y
 _atom_site_fract_z
 _atom_site_fract_occupancy
 Cl  Cl1  1  -0.00000  0.47869  0.50000  1
 Cl  Cl2  1  0.50000  0.00000  0.47869  1
 Cl  Cl3  1  0.02131  0.02131  0.02131  1
 Cl  Cl4  1  0.47869  0.50000  0.00000  1
 Hg  Hg1  1  0.75000  0.94521  0.19521  1
 Hg  Hg2  1  0.30479  0.25000  0.55479  1
 Hg  Hg3  1  0.55479  0.30479  0.25000  1
 Hg  Hg4  1  0.19521  0.75000  0.94521  1
 Hg  Hg5  1  0.94521  0.19521  0.75000  1
 Hg  Hg6  1  0.25000  0.55479  0.30479  1
 S  S1  1  -0.00000  0.96444  0.50000  1
 S  S2  1  0.50000  0.00000  0.96444  1
 S  S3  1  0.96444  0.50000  0.00000  1
 S  S4  1  0.53556  0.53556  0.53556  1
