CIF file written using JARVIS-Tools package.
data_BaDy2CoO5
_symmetry_space_group_name_H-M  'Immm'
_cell_length_a       3.69795
_cell_length_b       5.79185
_cell_length_c       6.73457
_cell_angle_alpha    115.468
_cell_angle_beta     105.936
_cell_angle_gamma    89.9984

_symmetry_Int_Tables_number  71
_chemical_formula_structural  BaDy2CoO5
_chemical_formula_sum  BaDy2CoO5
_cell_volume  124.0574446433187
_cell_formula_units_Z  1
loop_
  _symmetry_equiv_pos_site_id
 _symmetry_equiv_pos_as_xyz
 1  'x, y, z'
loop_
 _atom_site_type_symbol
 _atom_site_label
 _atom_site_symmetry_multiplicity
 _atom_site_fract_x
 _atom_site_fract_y
 _atom_site_fract_z
 _atom_site_fract_occupancy
 Ba  Ba1  1  1.00000  0.00000  0.00000  1
 Co  Co1  1  0.50000  0.50000  0.00000  1
 Dy  Dy1  1  0.79682  0.29683  0.59366  1
 Dy  Dy2  1  0.20318  0.70317  0.40634  1
 O  O1  1  0.65034  0.40896  0.30066  1
 O  O2  1  0.34967  0.10828  0.69935  1
 O  O3  1  0.34966  0.59104  0.69934  1
 O  O4  1  0.65033  0.89172  0.30065  1
 O  O5  1  0.00000  0.50000  0.00000  1
