CIF file written using JARVIS-Tools package.
data_Li3MnO2F
_symmetry_space_group_name_H-M  'P-1'
_cell_length_a       5.31733
_cell_length_b       5.37647
_cell_length_c       5.68839
_cell_angle_alpha    64.2714
_cell_angle_beta     85.5704
_cell_angle_gamma    82.5102

_symmetry_Int_Tables_number  2
_chemical_formula_structural  Li3MnO2F
_chemical_formula_sum  Li6Mn2O4F2
_cell_volume  145.21138819908538
_cell_formula_units_Z  2
loop_
  _symmetry_equiv_pos_site_id
 _symmetry_equiv_pos_as_xyz
 1  'x, y, z'
loop_
 _atom_site_type_symbol
 _atom_site_label
 _atom_site_symmetry_multiplicity
 _atom_site_fract_x
 _atom_site_fract_y
 _atom_site_fract_z
 _atom_site_fract_occupancy
 F  F1  1  0.80180  0.17052  0.04223  1
 F  F2  1  0.19820  0.82948  0.95777  1
 Li  Li1  1  0.88884  0.22661  0.38869  1
 Li  Li2  1  0.84046  0.82335  0.98808  1
 Li  Li3  1  0.58904  0.95688  0.31017  1
 Li  Li4  1  0.41096  0.04312  0.68983  1
 Li  Li5  1  0.15954  0.17665  0.01192  1
 Li  Li6  1  0.11116  0.77339  0.61131  1
 Mn  Mn1  1  0.64875  0.51442  0.70386  1
 Mn  Mn2  1  0.35125  0.48558  0.29614  1
 O  O1  1  0.74757  0.88165  0.64908  1
 O  O2  1  0.70163  0.58245  0.31195  1
 O  O3  1  0.29837  0.41755  0.68805  1
 O  O4  1  0.25243  0.11835  0.35092  1
