CIF file written using JARVIS-Tools package.
data_CaSbF6
_symmetry_space_group_name_H-M  'R-3'
_cell_length_a       6.03004
_cell_length_b       6.03005
_cell_length_c       6.03005
_cell_angle_alpha    52.7165
_cell_angle_beta     52.7165
_cell_angle_gamma    52.7165

_symmetry_Int_Tables_number  148
_chemical_formula_structural  CaSbF6
_chemical_formula_sum  CaSbF6
_cell_volume  128.5486686321799
_cell_formula_units_Z  1
loop_
  _symmetry_equiv_pos_site_id
 _symmetry_equiv_pos_as_xyz
 1  'x, y, z'
loop_
 _atom_site_type_symbol
 _atom_site_label
 _atom_site_symmetry_multiplicity
 _atom_site_fract_x
 _atom_site_fract_y
 _atom_site_fract_z
 _atom_site_fract_occupancy
 Ca  Ca1  1  0.50000  0.50000  0.50000  1
 F  F1  1  0.38439  0.08682  0.76416  1
 F  F2  1  0.08682  0.76416  0.38439  1
 F  F3  1  0.23584  0.61561  0.91318  1
 F  F4  1  0.91318  0.23584  0.61561  1
 F  F5  1  0.61561  0.91318  0.23584  1
 F  F6  1  0.76416  0.38439  0.08682  1
 Sb  Sb1  1  0.00000  0.00000  0.00000  1
