CIF file written using JARVIS-Tools package.
data_ThP2S6
_symmetry_space_group_name_H-M  'P4_2/m'
_cell_length_a       6.9047
_cell_length_b       6.9047
_cell_length_c       9.97751
_cell_angle_alpha    90
_cell_angle_beta     90
_cell_angle_gamma    90

_symmetry_Int_Tables_number  84
_chemical_formula_structural  ThP2S6
_chemical_formula_sum  Th2P4S2
_cell_volume  475.676206684624
_cell_formula_units_Z  2
loop_
  _symmetry_equiv_pos_site_id
 _symmetry_equiv_pos_as_xyz
 1  'x, y, z'
loop_
 _atom_site_type_symbol
 _atom_site_label
 _atom_site_symmetry_multiplicity
 _atom_site_fract_x
 _atom_site_fract_y
 _atom_site_fract_z
 _atom_site_fract_occupancy
 P  P1  1  0.65046  0.06447  0.00000  1
 P  P2  1  0.34954  0.93553  0.00000  1
 P  P3  1  0.06447  0.34954  0.50000  1
 P  P4  1  0.93553  0.65046  0.50000  1
 S  S1  1  0.67566  0.22268  0.83016  1
 S  S2  1  0.22268  0.32434  0.66984  1
 S  S3  1  0.67566  0.22268  0.16984  1
 S  S4  1  0.77732  0.67566  0.66984  1
 S  S5  1  0.82101  0.17503  0.50000  1
 S  S6  1  0.17503  0.17899  0.00000  1
 S  S7  1  0.32434  0.77732  0.16984  1
 S  S8  1  0.22268  0.32434  0.33016  1
 S  S9  1  0.17899  0.82497  0.50000  1
 S  S10  1  0.32434  0.77732  0.83016  1
 S  S11  1  0.77732  0.67566  0.33016  1
 S  S12  1  0.82497  0.82101  0.00000  1
 Th  Th1  1  0.00000  0.00000  0.25000  1
 Th  Th2  1  0.00000  0.00000  0.75000  1
