CIF file written using JARVIS-Tools package.
data_CaZnSiH2O5
_symmetry_space_group_name_H-M  'Cc'
_cell_length_a       8.38404
_cell_length_b       8.38404
_cell_length_c       5.45467
_cell_angle_alpha    85.9423
_cell_angle_beta     94.0577
_cell_angle_gamma    35.7516

_symmetry_Int_Tables_number  9
_chemical_formula_structural  CaZnSiH2O5
_chemical_formula_sum  Ca2Zn2Si2H4O0
_cell_volume  217.98788478486998
_cell_formula_units_Z  2
loop_
  _symmetry_equiv_pos_site_id
 _symmetry_equiv_pos_as_xyz
 1  'x, y, z'
loop_
 _atom_site_type_symbol
 _atom_site_label
 _atom_site_symmetry_multiplicity
 _atom_site_fract_x
 _atom_site_fract_y
 _atom_site_fract_z
 _atom_site_fract_occupancy
 Ca  Ca1  1  0.78391  0.07263  0.14512  1
 Ca  Ca2  1  0.92737  0.21609  0.64512  1
 H  H1  1  0.23381  0.93419  0.22272  1
 H  H2  1  0.31343  0.66006  0.89870  1
 H  H3  1  0.33994  0.68657  0.39870  1
 H  H4  1  0.06581  0.76619  0.72272  1
 O  O1  1  0.47686  0.20674  0.82413  1
 O  O2  1  0.56309  0.34782  0.44830  1
 O  O3  1  0.18857  0.89668  0.36028  1
 O  O4  1  0.10332  0.81143  0.86028  1
 O  O5  1  0.04396  0.66970  0.45818  1
 O  O6  1  0.33030  0.95604  0.95818  1
 O  O7  1  0.84952  0.56597  0.85350  1
 O  O8  1  0.43403  0.15048  0.35350  1
 O  O9  1  0.79326  0.52314  0.32413  1
 O  O10  1  0.65218  0.43691  0.94830  1
 Si  Si1  1  0.65429  0.62080  0.02423  1
 Si  Si2  1  0.37920  0.34571  0.52423  1
 Zn  Zn1  1  0.25644  0.24406  0.00484  1
 Zn  Zn2  1  0.75594  0.74356  0.50484  1
