CIF file written using JARVIS-Tools package.
data_Al2CrCl8
_symmetry_space_group_name_H-M  'Pca2_1'
_cell_length_a       6.00786
_cell_length_b       12.6551
_cell_length_c       14.8171
_cell_angle_alpha    90
_cell_angle_beta     90
_cell_angle_gamma    90

_symmetry_Int_Tables_number  29
_chemical_formula_structural  Al2CrCl8
_chemical_formula_sum  Al8Cr4Cl32
_cell_volume  1126.548134985992
_cell_formula_units_Z  4
loop_
  _symmetry_equiv_pos_site_id
 _symmetry_equiv_pos_as_xyz
 1  'x, y, z'
loop_
 _atom_site_type_symbol
 _atom_site_label
 _atom_site_symmetry_multiplicity
 _atom_site_fract_x
 _atom_site_fract_y
 _atom_site_fract_z
 _atom_site_fract_occupancy
 Al  Al1  1  0.87625  0.09126  0.73787  1
 Al  Al2  1  0.61803  0.90870  0.01061  1
 Al  Al3  1  0.38197  0.40870  0.98939  1
 Al  Al4  1  0.87625  0.59126  0.76213  1
 Al  Al5  1  0.61803  0.40870  0.48939  1
 Al  Al6  1  0.12375  0.09126  0.23787  1
 Al  Al7  1  0.12375  0.59126  0.26213  1
 Al  Al8  1  0.38197  0.90870  0.51061  1
 Cl  Cl1  1  0.47954  0.59138  0.25906  1
 Cl  Cl2  1  0.48457  0.83134  0.12434  1
 Cl  Cl3  1  0.02631  0.90898  0.50814  1
 Cl  Cl4  1  0.48085  0.07002  0.99225  1
 Cl  Cl5  1  0.01542  0.93017  0.75572  1
 Cl  Cl6  1  0.97369  0.90898  0.00814  1
 Cl  Cl7  1  0.00612  0.66917  0.87619  1
 Cl  Cl8  1  0.48085  0.57002  0.50775  1
 Cl  Cl9  1  0.51913  0.84534  0.38259  1
 Cl  Cl10  1  0.02631  0.40898  -0.00814  1
 Cl  Cl11  1  0.51543  0.33134  0.87566  1
 Cl  Cl12  1  0.52046  0.59138  0.75906  1
 Cl  Cl13  1  0.47954  0.09138  0.24094  1
 Cl  Cl14  1  0.97369  0.40898  0.49186  1
 Cl  Cl15  1  -0.00612  0.66917  0.37619  1
 Cl  Cl16  1  0.01473  0.65452  0.63423  1
 Cl  Cl17  1  0.51915  0.07002  0.49225  1
 Cl  Cl18  1  0.51913  0.34534  0.11741  1
 Cl  Cl19  1  0.98458  0.93017  0.25572  1
 Cl  Cl20  1  0.01542  0.43017  0.74428  1
 Cl  Cl21  1  0.51543  0.83134  0.62434  1
 Cl  Cl22  1  0.48087  0.84534  0.88259  1
 Cl  Cl23  1  0.52046  0.09138  0.74094  1
 Cl  Cl24  1  -0.00612  0.16917  0.12381  1
 Cl  Cl25  1  0.48087  0.34534  0.61741  1
 Cl  Cl26  1  0.48457  0.33134  0.37566  1
 Cl  Cl27  1  0.98458  0.43017  0.24428  1
 Cl  Cl28  1  0.98527  0.65452  0.13423  1
 Cl  Cl29  1  0.51915  0.57002  0.00775  1
 Cl  Cl30  1  0.00612  0.16917  0.62381  1
 Cl  Cl31  1  0.01473  0.15452  0.86577  1
 Cl  Cl32  1  0.98527  0.15452  0.36577  1
 Cr  Cr1  1  0.75222  0.49992  0.12587  1
 Cr  Cr2  1  0.24778  -0.00008  0.87413  1
 Cr  Cr3  1  0.75222  -0.00008  0.37413  1
 Cr  Cr4  1  0.24778  0.49992  0.62587  1
