CIF file written using JARVIS-Tools package.
data_Li2NiO2
_symmetry_space_group_name_H-M  'Immm'
_cell_length_a       2.79825
_cell_length_b       3.75287
_cell_length_c       5.01786
_cell_angle_alpha    111.954
_cell_angle_beta     106.188
_cell_angle_gamma    90.0013

_symmetry_Int_Tables_number  71
_chemical_formula_structural  Li2NiO2
_chemical_formula_sum  Li2NiO2
_cell_volume  46.61367861117729
_cell_formula_units_Z  1
loop_
  _symmetry_equiv_pos_site_id
 _symmetry_equiv_pos_as_xyz
 1  'x, y, z'
loop_
 _atom_site_type_symbol
 _atom_site_label
 _atom_site_symmetry_multiplicity
 _atom_site_fract_x
 _atom_site_fract_y
 _atom_site_fract_z
 _atom_site_fract_occupancy
 Li  Li1  1  0.30324  0.80325  0.60651  1
 Li  Li2  1  0.69676  0.19675  0.39349  1
 Ni  Ni1  1  -0.00000  0.50000  -0.00000  1
 O  O1  1  0.35682  0.35678  0.71362  1
 O  O2  1  0.64318  0.64322  0.28638  1
