CIF file written using JARVIS-Tools package.
data_Sr3P4
_symmetry_space_group_name_H-M  'Fdd2'
_cell_length_a       5.84806
_cell_length_b       7.7434
_cell_length_c       9.17188
_cell_angle_alpha    83.0857
_cell_angle_beta     71.4095
_cell_angle_gamma    67.814

_symmetry_Int_Tables_number  43
_chemical_formula_structural  Sr3P4
_chemical_formula_sum  Sr6P8
_cell_volume  364.5198661933917
_cell_formula_units_Z  2
loop_
  _symmetry_equiv_pos_site_id
 _symmetry_equiv_pos_as_xyz
 1  'x, y, z'
loop_
 _atom_site_type_symbol
 _atom_site_label
 _atom_site_symmetry_multiplicity
 _atom_site_fract_x
 _atom_site_fract_y
 _atom_site_fract_z
 _atom_site_fract_occupancy
 P  P1  1  0.42225  0.66428  0.49821  1
 P  P2  1  0.58474  0.33572  0.50179  1
 P  P3  1  0.83654  0.83572  0.99821  1
 P  P4  1  0.67046  0.16428  0.00179  1
 P  P5  1  0.33852  0.18082  0.65594  1
 P  P6  1  0.17529  0.81918  0.34406  1
 P  P7  1  0.74447  0.68082  0.84406  1
 P  P8  1  0.26935  0.31918  0.15594  1
 Sr  Sr1  1  0.58207  0.99661  0.33616  1
 Sr  Sr2  1  0.91483  0.00339  0.66384  1
 Sr  Sr3  1  0.32868  0.50339  0.83616  1
 Sr  Sr4  1  0.66822  0.49661  0.16384  1
 Sr  Sr5  1  0.00549  0.50000  0.50000  1
 Sr  Sr6  1  0.25549  0.00000  0.00000  1
