CIF file written using JARVIS-Tools package.
data_Co3SbO8
_symmetry_space_group_name_H-M  'R-3m'
_cell_length_a       5.85233
_cell_length_b       5.85232
_cell_length_c       5.54803
_cell_angle_alpha    58.1684
_cell_angle_beta     58.1684
_cell_angle_gamma    60

_symmetry_Int_Tables_number  166
_chemical_formula_structural  Co3SbO8
_chemical_formula_sum  Co3SbO8
_cell_volume  130.52224954647275
_cell_formula_units_Z  1
loop_
  _symmetry_equiv_pos_site_id
 _symmetry_equiv_pos_as_xyz
 1  'x, y, z'
loop_
 _atom_site_type_symbol
 _atom_site_label
 _atom_site_symmetry_multiplicity
 _atom_site_fract_x
 _atom_site_fract_y
 _atom_site_fract_z
 _atom_site_fract_occupancy
 Co  Co1  1  0.50000  0.00000  0.00000  1
 Co  Co2  1  0.00000  0.50000  -0.00000  1
 Co  Co3  1  0.50000  0.50000  -0.00000  1
 O  O1  1  0.24855  0.24855  0.78018  1
 O  O2  1  0.72273  0.24855  0.78018  1
 O  O3  1  0.24855  0.72273  0.78018  1
 O  O4  1  0.73370  0.73370  0.79891  1
 O  O5  1  0.26631  0.26631  0.20109  1
 O  O6  1  0.75145  0.27727  0.21982  1
 O  O7  1  0.27727  0.75145  0.21982  1
 O  O8  1  0.75145  0.75145  0.21982  1
 Sb  Sb1  1  0.00000  0.00000  0.00000  1
