CIF file written using JARVIS-Tools package.
data_Li2MnF4
_symmetry_space_group_name_H-M  'I4_1md'
_cell_length_a       5.69347
_cell_length_b       5.69343
_cell_length_c       5.69464
_cell_angle_alpha    110.42
_cell_angle_beta     110.425
_cell_angle_gamma    107.58

_symmetry_Int_Tables_number  109
_chemical_formula_structural  Li2MnF4
_chemical_formula_sum  Li4Mn2F8
_cell_volume  141.99431144203936
_cell_formula_units_Z  2
loop_
  _symmetry_equiv_pos_site_id
 _symmetry_equiv_pos_as_xyz
 1  'x, y, z'
loop_
 _atom_site_type_symbol
 _atom_site_label
 _atom_site_symmetry_multiplicity
 _atom_site_fract_x
 _atom_site_fract_y
 _atom_site_fract_z
 _atom_site_fract_occupancy
 F  F1  1  0.73688  0.03305  0.70191  1
 F  F2  1  0.33280  0.03309  0.29791  1
 F  F3  1  0.26953  0.46132  0.80606  1
 F  F4  1  0.65696  0.46157  0.19373  1
 F  F5  1  0.78487  0.58104  0.79789  1
 F  F6  1  0.21312  0.51774  0.30604  1
 F  F7  1  0.21339  0.90515  0.69378  1
 F  F8  1  0.78481  0.98510  0.20193  1
 Li  Li1  1  0.51680  0.75201  0.76319  1
 Li  Li2  1  0.99049  0.75172  0.23661  1
 Li  Li3  1  0.50352  0.23870  0.73661  1
 Li  Li4  1  0.50377  0.76501  0.26317  1
 Mn  Mn1  1  0.14395  0.14215  -0.00010  1
 Mn  Mn2  1  0.89393  0.39215  0.49993  1
