CIF file written using JARVIS-Tools package.
data_FeHO2
_symmetry_space_group_name_H-M  'Pmmn'
_cell_length_a       3.84937
_cell_length_b       5.67969
_cell_length_c       6.40457
_cell_angle_alpha    152.514
_cell_angle_beta     90
_cell_angle_gamma    90

_symmetry_Int_Tables_number  59
_chemical_formula_structural  FeHO2
_chemical_formula_sum  Fe2H2O4
_cell_volume  64.62469196508027
_cell_formula_units_Z  2
loop_
  _symmetry_equiv_pos_site_id
 _symmetry_equiv_pos_as_xyz
 1  'x, y, z'
loop_
 _atom_site_type_symbol
 _atom_site_label
 _atom_site_symmetry_multiplicity
 _atom_site_fract_x
 _atom_site_fract_y
 _atom_site_fract_z
 _atom_site_fract_occupancy
 Fe  Fe1  1  0.25000  0.88926  0.25021  1
 Fe  Fe2  1  0.75000  0.11074  0.74979  1
 H  H1  1  0.25000  0.76978  0.75078  1
 H  H2  1  0.75000  0.23022  0.24922  1
 O  O1  1  0.25000  0.16253  0.74992  1
 O  O2  1  0.75000  0.83747  0.25008  1
 O  O3  1  0.25000  0.59650  0.75046  1
 O  O4  1  0.75000  0.40350  0.24954  1
