CIF file written using JARVIS-Tools package.
data_BaYF5
_symmetry_space_group_name_H-M  'C2/c'
_cell_length_a       6.38036
_cell_length_b       6.38036
_cell_length_c       8.66292
_cell_angle_alpha    70.0242
_cell_angle_beta     109.976
_cell_angle_gamma    108.458

_symmetry_Int_Tables_number  15
_chemical_formula_structural  BaYF5
_chemical_formula_sum  Ba2Y2F0
_cell_volume  303.418810933978
_cell_formula_units_Z  2
loop_
  _symmetry_equiv_pos_site_id
 _symmetry_equiv_pos_as_xyz
 1  'x, y, z'
loop_
 _atom_site_type_symbol
 _atom_site_label
 _atom_site_symmetry_multiplicity
 _atom_site_fract_x
 _atom_site_fract_y
 _atom_site_fract_z
 _atom_site_fract_occupancy
 Ba  Ba1  1  0.45747  0.45747  0.75000  1
 Ba  Ba2  1  0.54253  0.54253  0.25000  1
 F  F1  1  0.21021  0.75461  0.61685  1
 F  F2  1  0.71707  0.69926  0.97217  1
 F  F3  1  0.24539  0.78979  0.11685  1
 F  F4  1  0.07431  0.07431  0.75000  1
 F  F5  1  0.69926  0.71707  0.52783  1
 F  F6  1  0.30074  0.28293  0.47217  1
 F  F7  1  0.92569  0.92569  0.25000  1
 F  F8  1  0.75461  0.21021  0.88315  1
 F  F9  1  0.28293  0.30074  0.02783  1
 F  F10  1  0.78979  0.24539  0.38315  1
 Y  Y1  1  -0.00000  -0.00000  0.50000  1
 Y  Y2  1  0.00000  0.00000  0.00000  1
