CIF file written using JARVIS-Tools package.
data_KPrSiSe4
_symmetry_space_group_name_H-M  'P2_1'
_cell_length_a       6.81856
_cell_length_b       6.99728
_cell_length_c       8.91213
_cell_angle_alpha    90
_cell_angle_beta     108.007
_cell_angle_gamma    90

_symmetry_Int_Tables_number  4
_chemical_formula_structural  KPrSiSe4
_chemical_formula_sum  K2Pr2Si2Se8
_cell_volume  404.3821874719624
_cell_formula_units_Z  2
loop_
  _symmetry_equiv_pos_site_id
 _symmetry_equiv_pos_as_xyz
 1  'x, y, z'
loop_
 _atom_site_type_symbol
 _atom_site_label
 _atom_site_symmetry_multiplicity
 _atom_site_fract_x
 _atom_site_fract_y
 _atom_site_fract_z
 _atom_site_fract_occupancy
 K  K1  1  0.76653  0.29427  0.06551  1
 K  K2  1  0.23347  0.79427  0.93449  1
 Pr  Pr1  1  0.72941  0.30279  0.55228  1
 Pr  Pr2  1  0.27059  0.80279  0.44772  1
 Se  Se1  1  0.52740  0.03336  0.73708  1
 Se  Se2  1  0.08922  0.27149  0.85034  1
 Se  Se3  1  0.91078  0.77149  0.14966  1
 Se  Se4  1  0.48755  0.54265  0.72337  1
 Se  Se5  1  0.51245  0.04265  0.27663  1
 Se  Se6  1  0.09153  0.22997  0.42802  1
 Se  Se7  1  0.90847  0.72997  0.57198  1
 Se  Se8  1  0.47260  0.53336  0.26292  1
 Si  Si1  1  0.71437  0.77346  0.31293  1
 Si  Si2  1  0.28563  0.27346  0.68707  1
