CIF file written using JARVIS-Tools package.
data_MgPd2
_symmetry_space_group_name_H-M  'Pnma'
_cell_length_a       4.16484
_cell_length_b       5.51421
_cell_length_c       8.16241
_cell_angle_alpha    90
_cell_angle_beta     90
_cell_angle_gamma    90

_symmetry_Int_Tables_number  62
_chemical_formula_structural  MgPd2
_chemical_formula_sum  Mg4Pd8
_cell_volume  187.45634174927912
_cell_formula_units_Z  4
loop_
  _symmetry_equiv_pos_site_id
 _symmetry_equiv_pos_as_xyz
 1  'x, y, z'
loop_
 _atom_site_type_symbol
 _atom_site_label
 _atom_site_symmetry_multiplicity
 _atom_site_fract_x
 _atom_site_fract_y
 _atom_site_fract_z
 _atom_site_fract_occupancy
 Mg  Mg1  1  0.75000  0.66688  0.09832  1
 Mg  Mg2  1  0.25000  0.33312  0.90168  1
 Mg  Mg3  1  0.75000  0.16688  0.40168  1
 Mg  Mg4  1  0.25000  0.83312  0.59832  1
 Pd  Pd1  1  0.75000  0.65682  0.42733  1
 Pd  Pd2  1  0.25000  0.34318  0.57267  1
 Pd  Pd3  1  0.75000  0.15682  0.07267  1
 Pd  Pd4  1  0.25000  0.84318  0.92733  1
 Pd  Pd5  1  0.75000  0.57092  0.76475  1
 Pd  Pd6  1  0.25000  0.42908  0.23525  1
 Pd  Pd7  1  0.75000  0.07092  0.73525  1
 Pd  Pd8  1  0.25000  0.92908  0.26475  1
