CIF file written using JARVIS-Tools package.
data_FeTe2
_symmetry_space_group_name_H-M  'Pnnm'
_cell_length_a       3.88603
_cell_length_b       5.29755
_cell_length_c       6.28344
_cell_angle_alpha    90
_cell_angle_beta     90
_cell_angle_gamma    90

_symmetry_Int_Tables_number  58
_chemical_formula_structural  FeTe2
_chemical_formula_sum  Fe2Te4
_cell_volume  129.35376109395338
_cell_formula_units_Z  2
loop_
  _symmetry_equiv_pos_site_id
 _symmetry_equiv_pos_as_xyz
 1  'x, y, z'
loop_
 _atom_site_type_symbol
 _atom_site_label
 _atom_site_symmetry_multiplicity
 _atom_site_fract_x
 _atom_site_fract_y
 _atom_site_fract_z
 _atom_site_fract_occupancy
 Fe  Fe1  1  0.00000  0.00000  0.00000  1
 Fe  Fe2  1  0.50000  0.50000  0.50000  1
 Te  Te1  1  0.00000  0.22686  0.36057  1
 Te  Te2  1  0.00000  0.77314  0.63943  1
 Te  Te3  1  0.50000  0.27314  0.86057  1
 Te  Te4  1  0.50000  0.72686  0.13943  1
