CIF file written using JARVIS-Tools package.
data_Mg3Fe2O7
_symmetry_space_group_name_H-M  'Cmc2_1'
_cell_length_a       5.19908
_cell_length_b       4.96133
_cell_length_c       9.06247
_cell_angle_alpha    105.886
_cell_angle_beta     90
_cell_angle_gamma    90

_symmetry_Int_Tables_number  36
_chemical_formula_structural  Mg3Fe2O7
_chemical_formula_sum  Mg6Fe4O4
_cell_volume  224.83227594755138
_cell_formula_units_Z  2
loop_
  _symmetry_equiv_pos_site_id
 _symmetry_equiv_pos_as_xyz
 1  'x, y, z'
loop_
 _atom_site_type_symbol
 _atom_site_label
 _atom_site_symmetry_multiplicity
 _atom_site_fract_x
 _atom_site_fract_y
 _atom_site_fract_z
 _atom_site_fract_occupancy
 Fe  Fe1  1  0.75047  0.35360  0.20454  1
 Fe  Fe2  1  0.25047  0.64640  0.79546  1
 Fe  Fe3  1  0.25047  0.85094  0.20454  1
 Fe  Fe4  1  0.75047  0.14906  0.79546  1
 Mg  Mg1  1  0.67703  0.77155  -0.00000  1
 Mg  Mg2  1  0.17703  0.22845  0.00000  1
 Mg  Mg3  1  0.82838  0.56202  0.61486  1
 Mg  Mg4  1  0.32838  0.43798  0.38514  1
 Mg  Mg5  1  0.82838  0.94717  0.38514  1
 Mg  Mg6  1  0.32838  0.05283  0.61486  1
 O  O1  1  0.70559  0.93116  0.59297  1
 O  O2  1  0.93967  0.01223  0.15226  1
 O  O3  1  0.20559  0.66181  0.59297  1
 O  O4  1  0.70559  0.33819  0.40703  1
 O  O5  1  0.04931  0.30925  0.73631  1
 O  O6  1  0.20559  0.06884  0.40703  1
 O  O7  1  0.79614  0.37820  0.00000  1
 O  O8  1  0.04931  0.57294  0.26369  1
 O  O9  1  0.93967  0.85997  0.84774  1
 O  O10  1  0.43967  0.14003  0.15226  1
 O  O11  1  0.54931  0.69075  0.26369  1
 O  O12  1  0.29614  0.62180  -0.00000  1
 O  O13  1  0.54931  0.42706  0.73631  1
 O  O14  1  0.43967  0.98777  0.84774  1
