CIF file written using JARVIS-Tools package.
data_Mg3Co2O7
_symmetry_space_group_name_H-M  'Cmc2_1'
_cell_length_a       5.1764
_cell_length_b       4.93909
_cell_length_c       9.07446
_cell_angle_alpha    105.792
_cell_angle_beta     90
_cell_angle_gamma    90

_symmetry_Int_Tables_number  36
_chemical_formula_structural  Mg3Co2O7
_chemical_formula_sum  Mg6Co4O4
_cell_volume  223.24749611996552
_cell_formula_units_Z  2
loop_
  _symmetry_equiv_pos_site_id
 _symmetry_equiv_pos_as_xyz
 1  'x, y, z'
loop_
 _atom_site_type_symbol
 _atom_site_label
 _atom_site_symmetry_multiplicity
 _atom_site_fract_x
 _atom_site_fract_y
 _atom_site_fract_z
 _atom_site_fract_occupancy
 Co  Co1  1  0.74956  0.35215  0.20282  1
 Co  Co2  1  0.24956  0.64785  0.79718  1
 Co  Co3  1  0.24956  0.85067  0.20282  1
 Co  Co4  1  0.74956  0.14933  0.79718  1
 Mg  Mg1  1  0.67411  0.77309  -0.00000  1
 Mg  Mg2  1  0.17411  0.22691  0.00000  1
 Mg  Mg3  1  0.82970  0.56052  0.61437  1
 Mg  Mg4  1  0.32970  0.43948  0.38563  1
 Mg  Mg5  1  0.82970  0.94615  0.38563  1
 Mg  Mg6  1  0.32970  0.05385  0.61437  1
 O  O1  1  0.70619  0.93104  0.59354  1
 O  O2  1  0.93945  0.01074  0.14978  1
 O  O3  1  0.20619  0.66250  0.59354  1
 O  O4  1  0.70619  0.33750  0.40646  1
 O  O5  1  0.04829  0.30846  0.73421  1
 O  O6  1  0.20619  0.06896  0.40646  1
 O  O7  1  0.79951  0.38584  0.00000  1
 O  O8  1  0.04829  0.57425  0.26579  1
 O  O9  1  0.93945  0.86096  0.85022  1
 O  O10  1  0.43945  0.13904  0.14978  1
 O  O11  1  0.54829  0.69154  0.26579  1
 O  O12  1  0.29951  0.61416  -0.00000  1
 O  O13  1  0.54829  0.42575  0.73421  1
 O  O14  1  0.43945  0.98926  0.85022  1
