CIF file written using JARVIS-Tools package.
data_LiMn2O4
_symmetry_space_group_name_H-M  'Imma'
_cell_length_a       5.70966
_cell_length_b       5.70966
_cell_length_c       5.70969
_cell_angle_alpha    59.8488
_cell_angle_beta     60.6618
_cell_angle_gamma    90.4438

_symmetry_Int_Tables_number  74
_chemical_formula_structural  LiMn2O4
_chemical_formula_sum  Li2Mn4O8
_cell_volume  132.11461333078154
_cell_formula_units_Z  2
loop_
  _symmetry_equiv_pos_site_id
 _symmetry_equiv_pos_as_xyz
 1  'x, y, z'
loop_
 _atom_site_type_symbol
 _atom_site_label
 _atom_site_symmetry_multiplicity
 _atom_site_fract_x
 _atom_site_fract_y
 _atom_site_fract_z
 _atom_site_fract_occupancy
 Li  Li1  1  0.50000  0.00000  0.50000  1
 Li  Li2  1  0.50000  0.50000  0.00000  1
 Mn  Mn1  1  0.00000  0.50000  0.50000  1
 Mn  Mn2  1  -0.00000  0.00000  0.50000  1
 Mn  Mn3  1  0.00000  0.00000  0.00000  1
 Mn  Mn4  1  0.50000  0.00000  -0.00000  1
 O  O1  1  0.24234  0.76153  0.01918  1
 O  O2  1  0.24075  0.21419  0.02656  1
 O  O3  1  0.24076  0.76731  0.47344  1
 O  O4  1  0.21930  0.23848  0.51918  1
 O  O5  1  0.78070  0.76152  0.48082  1
 O  O6  1  0.75924  0.23269  0.52656  1
 O  O7  1  0.75925  0.78581  0.97344  1
 O  O8  1  0.75766  0.23847  -0.01918  1
