CIF file written using JARVIS-Tools package.
data_NaN3
_symmetry_space_group_name_H-M  'C2/m'
_cell_length_a       3.57469
_cell_length_b       3.57649
_cell_length_c       6.16276
_cell_angle_alpha    60.268
_cell_angle_beta     60.4214
_cell_angle_gamma    59.8715

_symmetry_Int_Tables_number  12
_chemical_formula_structural  NaN3
_chemical_formula_sum  NaN3
_cell_volume  55.946018138250984
_cell_formula_units_Z  1
loop_
  _symmetry_equiv_pos_site_id
 _symmetry_equiv_pos_as_xyz
 1  'x, y, z'
loop_
 _atom_site_type_symbol
 _atom_site_label
 _atom_site_symmetry_multiplicity
 _atom_site_fract_x
 _atom_site_fract_y
 _atom_site_fract_z
 _atom_site_fract_occupancy
 N  N1  1  0.00152  -0.00970  0.49848  1
 N  N2  1  0.81731  0.80821  0.72199  1
 N  N3  1  0.18575  0.17237  0.27498  1
 Na  Na1  1  0.00154  -0.00974  -0.00149  1
