CIF file written using JARVIS-Tools package.
data_LiVPHO5
_symmetry_space_group_name_H-M  'P-1'
_cell_length_a       5.36903
_cell_length_b       6.09185
_cell_length_c       6.53821
_cell_angle_alpha    104.75
_cell_angle_beta     104.212
_cell_angle_gamma    103.056

_symmetry_Int_Tables_number  2
_chemical_formula_structural  LiVPHO5
_chemical_formula_sum  Li2V2P2H2O0
_cell_volume  190.7470845459648
_cell_formula_units_Z  2
loop_
  _symmetry_equiv_pos_site_id
 _symmetry_equiv_pos_as_xyz
 1  'x, y, z'
loop_
 _atom_site_type_symbol
 _atom_site_label
 _atom_site_symmetry_multiplicity
 _atom_site_fract_x
 _atom_site_fract_y
 _atom_site_fract_z
 _atom_site_fract_occupancy
 H  H1  1  0.66224  0.93965  0.15765  1
 H  H2  1  0.33776  0.06035  0.84235  1
 Li  Li1  1  -0.00000  -0.00000  0.50000  1
 Li  Li2  1  0.00000  0.00000  0.00000  1
 O  O1  1  0.74532  0.34684  0.95748  1
 O  O2  1  0.25468  0.65316  0.04252  1
 O  O3  1  0.82295  0.07894  0.24068  1
 O  O4  1  0.65137  0.68172  0.36424  1
 O  O5  1  0.66399  0.71163  0.84513  1
 O  O6  1  0.33601  0.28837  0.15487  1
 O  O7  1  0.17705  0.92106  0.75932  1
 O  O8  1  0.83523  0.40969  0.61415  1
 O  O9  1  0.16477  0.59031  0.38585  1
 O  O10  1  0.34863  0.31828  0.63576  1
 P  P1  1  0.65418  0.44568  0.76748  1
 P  P2  1  0.34582  0.55432  0.23252  1
 V  V1  1  0.23880  0.61859  0.72763  1
 V  V2  1  0.76120  0.38141  0.27237  1
