CIF file written using JARVIS-Tools package.
data_YCrF5
_symmetry_space_group_name_H-M  'Immm'
_cell_length_a       4.19411
_cell_length_b       5.74507
_cell_length_c       5.74507
_cell_angle_alpha    73.0261
_cell_angle_beta     68.5913
_cell_angle_gamma    68.5913

_symmetry_Int_Tables_number  71
_chemical_formula_structural  YCrF5
_chemical_formula_sum  YCrF5
_cell_volume  117.9573061776007
_cell_formula_units_Z  1
loop_
  _symmetry_equiv_pos_site_id
 _symmetry_equiv_pos_as_xyz
 1  'x, y, z'
loop_
 _atom_site_type_symbol
 _atom_site_label
 _atom_site_symmetry_multiplicity
 _atom_site_fract_x
 _atom_site_fract_y
 _atom_site_fract_z
 _atom_site_fract_occupancy
 Cr  Cr1  1  0.00000  0.00000  0.00000  1
 F  F1  1  0.50000  0.81909  0.18091  1
 F  F2  1  0.50000  0.18091  0.81909  1
 F  F3  1  0.76641  0.23359  0.23359  1
 F  F4  1  0.23359  0.76641  0.76641  1
 F  F5  1  -0.00000  0.50000  0.50000  1
 Y  Y1  1  0.50000  0.50000  0.50000  1
