CIF file written using JARVIS-Tools package.
data_CrSn2
_symmetry_space_group_name_H-M  'Fddd'
_cell_length_a       5.42894
_cell_length_b       5.40966
_cell_length_c       9.60677
_cell_angle_alpha    81.849
_cell_angle_beta     73.587
_cell_angle_gamma    59.882

_symmetry_Int_Tables_number  70
_chemical_formula_structural  CrSn2
_chemical_formula_sum  Cr4Sn8
_cell_volume  234.10302135897368
_cell_formula_units_Z  4
loop_
  _symmetry_equiv_pos_site_id
 _symmetry_equiv_pos_as_xyz
 1  'x, y, z'
loop_
 _atom_site_type_symbol
 _atom_site_label
 _atom_site_symmetry_multiplicity
 _atom_site_fract_x
 _atom_site_fract_y
 _atom_site_fract_z
 _atom_site_fract_occupancy
 Cr  Cr1  1  0.25171  0.75000  0.49657  1
 Cr  Cr2  1  0.99829  0.75000  0.00343  1
 Cr  Cr3  1  0.74829  0.25000  0.50343  1
 Cr  Cr4  1  0.00171  0.25000  0.99657  1
 Sn  Sn1  1  0.54368  0.75000  0.91264  1
 Sn  Sn2  1  0.70632  0.75000  0.58736  1
 Sn  Sn3  1  0.45632  0.25000  0.08736  1
 Sn  Sn4  1  0.29368  0.25000  0.41264  1
 Sn  Sn5  1  0.29000  0.42000  0.75000  1
 Sn  Sn6  1  0.96000  0.08000  0.75000  1
 Sn  Sn7  1  0.71000  0.58000  0.25000  1
 Sn  Sn8  1  0.04000  0.92000  0.25000  1
