CIF file written using JARVIS-Tools package.
data_Re2PbO8
_symmetry_space_group_name_H-M  'P31m'
_cell_length_a       11.4328
_cell_length_b       11.4328
_cell_length_c       4.61279
_cell_angle_alpha    90
_cell_angle_beta     90
_cell_angle_gamma    120

_symmetry_Int_Tables_number  157
_chemical_formula_structural  Re2PbO8
_chemical_formula_sum  Re6Pb3O24
_cell_volume  522.1524444651781
_cell_formula_units_Z  3
loop_
  _symmetry_equiv_pos_site_id
 _symmetry_equiv_pos_as_xyz
 1  'x, y, z'
loop_
 _atom_site_type_symbol
 _atom_site_label
 _atom_site_symmetry_multiplicity
 _atom_site_fract_x
 _atom_site_fract_y
 _atom_site_fract_z
 _atom_site_fract_occupancy
 O  O1  1  0.71062  -0.00000  0.11702  1
 O  O2  1  0.38139  0.00000  0.60818  1
 O  O3  1  0.61861  0.61861  0.60818  1
 O  O4  1  0.00000  0.38139  0.60818  1
 O  O5  1  0.85843  0.00000  0.60374  1
 O  O6  1  0.14157  0.14157  0.60374  1
 O  O7  1  0.00000  0.85843  0.60374  1
 O  O8  1  0.56431  0.85358  0.61149  1
 O  O9  1  0.43569  0.28927  0.61149  1
 O  O10  1  0.28927  0.43569  0.61149  1
 O  O11  1  -0.00000  0.22994  0.09279  1
 O  O12  1  0.14642  0.71073  0.61149  1
 O  O13  1  0.22994  -0.00000  0.09279  1
 O  O14  1  0.37548  0.85113  0.09791  1
 O  O15  1  0.85113  0.37548  0.09791  1
 O  O16  1  0.77006  0.77006  0.09279  1
 O  O17  1  0.71073  0.14642  0.61149  1
 O  O18  1  -0.00000  0.71062  0.11702  1
 O  O19  1  0.85358  0.56431  0.61149  1
 O  O20  1  0.14887  0.52435  0.09791  1
 O  O21  1  0.47565  0.62452  0.09791  1
 O  O22  1  0.52435  0.14887  0.09791  1
 O  O23  1  0.62452  0.47565  0.09791  1
 O  O24  1  0.28938  0.28938  0.11702  1
 Pb  Pb1  1  0.66667  0.33333  0.46154  1
 Pb  Pb2  1  0.33333  0.66667  0.46154  1
 Pb  Pb3  1  0.00000  0.00000  0.01900  1
 Re  Re1  1  0.00000  0.71062  0.49373  1
 Re  Re2  1  0.28938  0.28938  0.49373  1
 Re  Re3  1  0.71062  0.00000  0.49373  1
 Re  Re4  1  0.37752  -0.00000  0.98510  1
 Re  Re5  1  0.62248  0.62248  0.98510  1
 Re  Re6  1  -0.00000  0.37752  0.98510  1
