CIF file written using JARVIS-Tools package.
data_MgBiPO6
_symmetry_space_group_name_H-M  'P2_1/m'
_cell_length_a       6.23574
_cell_length_b       5.20613
_cell_length_c       7.90101
_cell_angle_alpha    90
_cell_angle_beta     112.509
_cell_angle_gamma    90

_symmetry_Int_Tables_number  11
_chemical_formula_structural  MgBiPO6
_chemical_formula_sum  Mg2Bi2P2O2
_cell_volume  236.95841659567756
_cell_formula_units_Z  2
loop_
  _symmetry_equiv_pos_site_id
 _symmetry_equiv_pos_as_xyz
 1  'x, y, z'
loop_
 _atom_site_type_symbol
 _atom_site_label
 _atom_site_symmetry_multiplicity
 _atom_site_fract_x
 _atom_site_fract_y
 _atom_site_fract_z
 _atom_site_fract_occupancy
 Bi  Bi1  1  0.76574  0.75000  0.44084  1
 Bi  Bi2  1  0.23426  0.25000  0.55916  1
 Mg  Mg1  1  0.87883  0.25000  0.08285  1
 Mg  Mg2  1  0.12117  0.75000  0.91715  1
 O  O1  1  0.01680  0.97636  0.67145  1
 O  O2  1  0.78000  0.51616  0.88040  1
 O  O3  1  0.78000  0.98384  0.88040  1
 O  O4  1  0.44089  0.75000  0.91230  1
 O  O5  1  0.55911  0.25000  0.08770  1
 O  O6  1  0.51166  0.25000  0.39121  1
 O  O7  1  0.98320  0.47636  0.32855  1
 O  O8  1  0.01680  0.52364  0.67145  1
 O  O9  1  0.22000  0.01616  0.11960  1
 O  O10  1  0.48834  0.75000  0.60879  1
 O  O11  1  0.98320  0.02364  0.32855  1
 O  O12  1  0.22000  0.48384  0.11960  1
 P  P1  1  0.61550  0.75000  0.82207  1
 P  P2  1  0.38450  0.25000  0.17793  1
