CIF file written using JARVIS-Tools package.
data_Li3Fe3CoO8
_symmetry_space_group_name_H-M  'Cm'
_cell_length_a       4.86621
_cell_length_b       5.63698
_cell_length_c       5.75394
_cell_angle_alpha    119.333
_cell_angle_beta     106.344
_cell_angle_gamma    89.9997

_symmetry_Int_Tables_number  8
_chemical_formula_structural  Li3Fe3CoO8
_chemical_formula_sum  Li3Fe3CoO8
_cell_volume  130.23288545970408
_cell_formula_units_Z  1
loop_
  _symmetry_equiv_pos_site_id
 _symmetry_equiv_pos_as_xyz
 1  'x, y, z'
loop_
 _atom_site_type_symbol
 _atom_site_label
 _atom_site_symmetry_multiplicity
 _atom_site_fract_x
 _atom_site_fract_y
 _atom_site_fract_z
 _atom_site_fract_occupancy
 Co  Co1  1  0.99323  0.49919  0.49839  1
 Fe  Fe1  1  0.49529  0.24319  0.49898  1
 Fe  Fe2  1  0.49529  0.75578  0.49898  1
 Fe  Fe3  1  0.01325  0.00182  0.50364  1
 Li  Li1  1  0.49862  0.74806  0.99611  1
 Li  Li2  1  0.99814  0.01399  0.00027  1
 Li  Li3  1  0.99815  0.48628  0.00029  1
 O  O1  1  0.76529  0.13646  0.28936  1
 O  O2  1  0.76529  0.65288  0.28936  1
 O  O3  1  0.25615  0.88165  0.26331  1
 O  O4  1  0.25776  0.39588  0.29178  1
 O  O5  1  0.72837  0.60718  0.71435  1
 O  O6  1  0.75138  0.10854  0.71707  1
 O  O7  1  0.23601  0.36462  0.71642  1
 O  O8  1  0.23601  0.85181  0.71642  1
