CIF file written using JARVIS-Tools package.
data_MoH4O5
_symmetry_space_group_name_H-M  'Pc'
_cell_length_a       3.97835
_cell_length_b       6.60836
_cell_length_c       7.9006
_cell_angle_alpha    76.5413
_cell_angle_beta     90.0003
_cell_angle_gamma    90.0007

_symmetry_Int_Tables_number  7
_chemical_formula_structural  MoH4O5
_chemical_formula_sum  Mo2H8O0
_cell_volume  202.0056222597343
_cell_formula_units_Z  2
loop_
  _symmetry_equiv_pos_site_id
 _symmetry_equiv_pos_as_xyz
 1  'x, y, z'
loop_
 _atom_site_type_symbol
 _atom_site_label
 _atom_site_symmetry_multiplicity
 _atom_site_fract_x
 _atom_site_fract_y
 _atom_site_fract_z
 _atom_site_fract_occupancy
 H  H1  1  0.63200  0.59547  0.44393  1
 H  H2  1  0.36812  0.59547  0.94393  1
 H  H3  1  -0.23914  0.66158  0.17579  1
 H  H4  1  0.35802  0.42679  0.55300  1
 H  H5  1  0.83628  0.36973  0.62575  1
 H  H6  1  0.23925  0.66158  0.67579  1
 H  H7  1  0.64211  0.42679  0.05300  1
 H  H8  1  0.16384  0.36974  0.12575  1
 Mo  Mo1  1  0.03760  -0.01444  0.24729  1
 Mo  Mo2  1  0.96252  -0.01444  0.74729  1
 O  O1  1  -0.04079  0.27186  0.14925  1
 O  O2  1  0.04091  0.27185  0.64925  1
 O  O3  1  -0.00205  -0.02624  0.96957  1
 O  O4  1  0.00217  -0.02624  0.46958  1
 O  O5  1  0.46003  0.52855  0.06086  1
 O  O6  1  0.54010  0.52855  0.56087  1
 O  O7  1  0.47213  -0.00612  0.22144  1
 O  O8  1  0.52799  -0.00613  0.72144  1
 O  O9  1  0.90836  0.69931  0.26588  1
 O  O10  1  0.09175  0.69932  0.76588  1
