CIF file written using JARVIS-Tools package.
data_AgCN
_symmetry_space_group_name_H-M  'R3m'
_cell_length_a       3.89183
_cell_length_b       3.89183
_cell_length_c       3.89182
_cell_angle_alpha    101.42
_cell_angle_beta     101.42
_cell_angle_gamma    101.42

_symmetry_Int_Tables_number  160
_chemical_formula_structural  AgCN
_chemical_formula_sum  AgCN
_cell_volume  54.88281230162705
_cell_formula_units_Z  1
loop_
  _symmetry_equiv_pos_site_id
 _symmetry_equiv_pos_as_xyz
 1  'x, y, z'
loop_
 _atom_site_type_symbol
 _atom_site_label
 _atom_site_symmetry_multiplicity
 _atom_site_fract_x
 _atom_site_fract_y
 _atom_site_fract_z
 _atom_site_fract_occupancy
 Ag  Ag1  1  0.02069  0.02069  0.02069  1
 C  C1  1  0.40569  0.40569  0.40569  1
 N  N1  1  0.62861  0.62861  0.62861  1
