CIF file written using JARVIS-Tools package.
data_HC2O2
_symmetry_space_group_name_H-M  'Cm'
_cell_length_a       5.04357
_cell_length_b       5.04357
_cell_length_c       5.04419
_cell_angle_alpha    105.284
_cell_angle_beta     105.285
_cell_angle_gamma    118.21

_symmetry_Int_Tables_number  8
_chemical_formula_structural  HC2O2
_chemical_formula_sum  H2C4O4
_cell_volume  97.03160282523311
_cell_formula_units_Z  2
loop_
  _symmetry_equiv_pos_site_id
 _symmetry_equiv_pos_as_xyz
 1  'x, y, z'
loop_
 _atom_site_type_symbol
 _atom_site_label
 _atom_site_symmetry_multiplicity
 _atom_site_fract_x
 _atom_site_fract_y
 _atom_site_fract_z
 _atom_site_fract_occupancy
 C  C1  1  0.33829  0.56207  0.90036  1
 C  C2  1  0.44047  0.34636  0.78684  1
 C  C3  1  0.56066  0.66177  0.22243  1
 C  C4  1  0.65361  0.44152  0.09513  1
 H  H1  1  0.48028  0.02530  0.50558  1
 H  H2  1  0.97433  0.47768  0.45201  1
 O  O1  1  0.14822  0.63558  0.78380  1
 O  O2  1  0.63737  0.85050  0.48787  1
 O  O3  1  0.35994  0.15191  0.51185  1
 O  O4  1  0.84693  0.35819  0.20512  1
