CIF file written using JARVIS-Tools package.
data_MoH4O5
_symmetry_space_group_name_H-M  'P1'
_cell_length_a       4.03031
_cell_length_b       6.43175
_cell_length_c       7.66694
_cell_angle_alpha    78.3576
_cell_angle_beta     90.2764
_cell_angle_gamma    91.4289

_symmetry_Int_Tables_number  1
_chemical_formula_structural  MoH4O5
_chemical_formula_sum  Mo2H8O0
_cell_volume  194.59308555088234
_cell_formula_units_Z  2
loop_
  _symmetry_equiv_pos_site_id
 _symmetry_equiv_pos_as_xyz
 1  'x, y, z'
loop_
 _atom_site_type_symbol
 _atom_site_label
 _atom_site_symmetry_multiplicity
 _atom_site_fract_x
 _atom_site_fract_y
 _atom_site_fract_z
 _atom_site_fract_occupancy
 H  H1  1  0.49502  0.58947  0.40360  1
 H  H2  1  0.57324  0.57654  0.90602  1
 H  H3  1  0.97364  0.43778  0.26150  1
 H  H4  1  0.77223  0.38773  0.58287  1
 H  H5  1  0.28633  0.40862  0.54350  1
 H  H6  1  0.01243  0.65104  0.71778  1
 H  H7  1  0.29181  0.42998  0.02859  1
 H  H8  1  0.76608  0.36888  0.09626  1
 Mo  Mo1  1  0.04136  0.98735  0.28035  1
 Mo  Mo2  1  0.89454  0.03976  0.77328  1
 O  O1  1  0.97060  0.33226  0.18365  1
 O  O2  1  0.97085  0.33345  0.67033  1
 O  O3  1  0.96394  0.03890  0.00123  1
 O  O4  1  0.97700  0.01492  0.50446  1
 O  O5  1  0.50785  0.43175  -0.03309  1
 O  O6  1  0.49197  0.44155  0.46744  1
 O  O7  1  0.47457  0.01306  0.25942  1
 O  O8  1  0.46686  0.04343  0.75523  1
 O  O9  1  0.97251  0.71664  0.29429  1
 O  O10  1  0.95582  0.73698  0.80500  1
