CIF file written using JARVIS-Tools package.
data_NaHF2
_symmetry_space_group_name_H-M  'P1'
_cell_length_a       3.09151
_cell_length_b       3.25075
_cell_length_c       4.48773
_cell_angle_alpha    97.9989
_cell_angle_beta     83.1998
_cell_angle_gamma    89.0656

_symmetry_Int_Tables_number  1
_chemical_formula_structural  NaHF2
_chemical_formula_sum  NaHF2
_cell_volume  44.322741253300514
_cell_formula_units_Z  1
loop_
  _symmetry_equiv_pos_site_id
 _symmetry_equiv_pos_as_xyz
 1  'x, y, z'
loop_
 _atom_site_type_symbol
 _atom_site_label
 _atom_site_symmetry_multiplicity
 _atom_site_fract_x
 _atom_site_fract_y
 _atom_site_fract_z
 _atom_site_fract_occupancy
 F  F1  1  0.43762  0.88272  0.68275  1
 F  F2  1  0.55053  0.26567  0.13944  1
 H  H1  1  0.49939  0.08012  0.88370  1
 Na  Na1  1  0.01166  0.78222  0.30187  1
