CIF file written using JARVIS-Tools package.
data_ZrO2
_symmetry_space_group_name_H-M  'P2_1/c'
_cell_length_a       5.17336
_cell_length_b       5.26057
_cell_length_c       5.34333
_cell_angle_alpha    90
_cell_angle_beta     99.2892
_cell_angle_gamma    90

_symmetry_Int_Tables_number  14
_chemical_formula_structural  ZrO2
_chemical_formula_sum  Zr4O8
_cell_volume  143.51100407929832
_cell_formula_units_Z  4
loop_
  _symmetry_equiv_pos_site_id
 _symmetry_equiv_pos_as_xyz
 1  'x, y, z'
loop_
 _atom_site_type_symbol
 _atom_site_label
 _atom_site_symmetry_multiplicity
 _atom_site_fract_x
 _atom_site_fract_y
 _atom_site_fract_z
 _atom_site_fract_occupancy
 O  O1  1  0.92841  0.83813  0.16029  1
 O  O2  1  0.92841  0.66187  0.66029  1
 O  O3  1  0.44821  0.74208  0.97969  1
 O  O4  1  0.55179  0.24208  0.52031  1
 O  O5  1  0.44821  0.75792  0.47969  1
 O  O6  1  0.55179  0.25792  0.02031  1
 O  O7  1  0.07159  0.33813  0.33971  1
 O  O8  1  0.07159  0.16187  0.83971  1
 Zr  Zr1  1  0.27667  0.04171  0.20966  1
 Zr  Zr2  1  0.27667  0.45829  0.70966  1
 Zr  Zr3  1  0.72333  0.54171  0.29034  1
 Zr  Zr4  1  0.72333  0.95829  0.79034  1
