CIF file written using JARVIS-Tools package.
data_Co2As
_symmetry_space_group_name_H-M  'P-6m2'
_cell_length_a       6.79099
_cell_length_b       6.79099
_cell_length_c       2.77612
_cell_angle_alpha    90
_cell_angle_beta     90
_cell_angle_gamma    120

_symmetry_Int_Tables_number  187
_chemical_formula_structural  Co2As
_chemical_formula_sum  Co6As3
_cell_volume  110.8753469021248
_cell_formula_units_Z  3
loop_
  _symmetry_equiv_pos_site_id
 _symmetry_equiv_pos_as_xyz
 1  'x, y, z'
loop_
 _atom_site_type_symbol
 _atom_site_label
 _atom_site_symmetry_multiplicity
 _atom_site_fract_x
 _atom_site_fract_y
 _atom_site_fract_z
 _atom_site_fract_occupancy
 As  As1  1  0.00000  0.00000  0.50000  1
 As  As2  1  0.33333  0.66667  0.50000  1
 As  As3  1  0.66667  0.33333  0.50000  1
 Co  Co1  1  -0.00000  0.66667  0.00000  1
 Co  Co2  1  0.33333  0.33333  0.00000  1
 Co  Co3  1  0.66667  -0.00000  0.00000  1
 Co  Co4  1  -0.00000  0.33333  0.50000  1
 Co  Co5  1  0.66667  0.66667  0.50000  1
 Co  Co6  1  0.33333  -0.00000  0.50000  1
