CIF file written using JARVIS-Tools package.
data_Sr2Li2Nb4O13
_symmetry_space_group_name_H-M  'I4/mmm'
_cell_length_a       3.99966
_cell_length_b       17.3827
_cell_length_c       3.99966
_cell_angle_alpha    83.3936
_cell_angle_beta     90
_cell_angle_gamma    96.6064

_symmetry_Int_Tables_number  139
_chemical_formula_structural  Sr2Li2Nb4O13
_chemical_formula_sum  Sr2Li2Nb4O3
_cell_volume  274.36971357918566
_cell_formula_units_Z  1
loop_
  _symmetry_equiv_pos_site_id
 _symmetry_equiv_pos_as_xyz
 1  'x, y, z'
loop_
 _atom_site_type_symbol
 _atom_site_label
 _atom_site_symmetry_multiplicity
 _atom_site_fract_x
 _atom_site_fract_y
 _atom_site_fract_z
 _atom_site_fract_occupancy
 Li  Li1  1  0.25000  0.50000  0.25000  1
 Li  Li2  1  0.75000  0.50000  0.75000  1
 Nb  Nb1  1  0.94337  0.88675  0.05663  1
 Nb  Nb2  1  0.82047  0.64094  0.17953  1
 Nb  Nb3  1  0.05663  0.11325  0.94337  1
 Nb  Nb4  1  0.17953  0.35906  0.82047  1
 O  O1  1  0.23501  0.47001  0.76499  1
 O  O2  1  0.00000  0.00000  0.00000  1
 O  O3  1  0.06329  0.12659  0.43671  1
 O  O4  1  0.93671  0.87341  0.56329  1
 O  O5  1  0.32630  0.65260  0.17370  1
 O  O6  1  0.43671  0.87341  0.06329  1
 O  O7  1  0.17370  0.34740  0.32630  1
 O  O8  1  0.82630  0.65260  0.67370  1
 O  O9  1  0.11763  0.23527  0.88237  1
 O  O10  1  0.76499  0.52999  0.23501  1
 O  O11  1  0.67370  0.34740  0.82630  1
 O  O12  1  0.56329  0.12659  0.93671  1
 O  O13  1  0.88237  0.76473  0.11763  1
 Sr  Sr1  1  0.38253  0.76505  0.61747  1
 Sr  Sr2  1  0.61747  0.23495  0.38253  1
