CIF file written using JARVIS-Tools package.
data_LiSmSe2
_symmetry_space_group_name_H-M  'I4_1/amd'
_cell_length_a       8.17983
_cell_length_b       10.8379
_cell_length_c       7.11006
_cell_angle_alpha    29.1788
_cell_angle_beta     54.882
_cell_angle_gamma    40.9971

_symmetry_Int_Tables_number  141
_chemical_formula_structural  LiSmSe2
_chemical_formula_sum  Li2Sm2Se4
_cell_volume  194.57186649056445
_cell_formula_units_Z  2
loop_
  _symmetry_equiv_pos_site_id
 _symmetry_equiv_pos_as_xyz
 1  'x, y, z'
loop_
 _atom_site_type_symbol
 _atom_site_label
 _atom_site_symmetry_multiplicity
 _atom_site_fract_x
 _atom_site_fract_y
 _atom_site_fract_z
 _atom_site_fract_occupancy
 Li  Li1  1  0.50000  0.00000  0.99999  1
 Li  Li2  1  0.25000  0.50000  0.00002  1
 Se  Se1  1  0.24994  0.99998  0.50016  1
 Se  Se2  1  0.75006  0.00002  0.49983  1
 Se  Se3  1  0.50006  0.50002  0.49984  1
 Se  Se4  1  0.99994  0.49998  0.50017  1
 Sm  Sm1  1  0.99998  0.00001  -0.00001  1
 Sm  Sm2  1  0.75002  0.49999  0.00001  1
