CIF file written using JARVIS-Tools package.
data_Li3MnF5
_symmetry_space_group_name_H-M  'P-1'
_cell_length_a       5.05078
_cell_length_b       5.58736
_cell_length_c       7.76893
_cell_angle_alpha    97.3455
_cell_angle_beta     107.913
_cell_angle_gamma    111.415

_symmetry_Int_Tables_number  2
_chemical_formula_structural  Li3MnF5
_chemical_formula_sum  Li6Mn2F0
_cell_volume  186.938774420278
_cell_formula_units_Z  2
loop_
  _symmetry_equiv_pos_site_id
 _symmetry_equiv_pos_as_xyz
 1  'x, y, z'
loop_
 _atom_site_type_symbol
 _atom_site_label
 _atom_site_symmetry_multiplicity
 _atom_site_fract_x
 _atom_site_fract_y
 _atom_site_fract_z
 _atom_site_fract_occupancy
 F  F1  1  0.25203  0.24982  0.86091  1
 F  F2  1  0.04510  0.28380  0.46232  1
 F  F3  1  0.74797  0.75018  0.13909  1
 F  F4  1  0.63411  0.26200  0.66864  1
 F  F5  1  0.95490  0.71620  0.53768  1
 F  F6  1  0.44627  0.25227  0.23943  1
 F  F7  1  0.11980  0.70172  0.92654  1
 F  F8  1  0.36589  0.73800  0.33136  1
 F  F9  1  0.55373  0.74773  0.76057  1
 F  F10  1  0.88020  0.29828  0.07346  1
 Li  Li1  1  0.31727  0.54422  0.09113  1
 Li  Li2  1  0.66936  0.02659  0.30213  1
 Li  Li3  1  0.06094  0.43589  0.70252  1
 Li  Li4  1  0.93906  0.56411  0.29748  1
 Li  Li5  1  0.33064  0.97341  0.69787  1
 Li  Li6  1  0.68273  0.45578  0.90887  1
 Mn  Mn1  1  0.50000  0.50000  0.50000  1
 Mn  Mn2  1  0.00000  0.00000  0.00000  1
