CIF file written using JARVIS-Tools package.
data_Ti3H2O7
_symmetry_space_group_name_H-M  'Cm'
_cell_length_a       8.31354
_cell_length_b       8.31354
_cell_length_c       9.27178
_cell_angle_alpha    78.3441
_cell_angle_beta     101.656
_cell_angle_gamma    153.877

_symmetry_Int_Tables_number  8
_chemical_formula_structural  Ti3H2O7
_chemical_formula_sum  Ti6H4O4
_cell_volume  276.0205180547387
_cell_formula_units_Z  2
loop_
  _symmetry_equiv_pos_site_id
 _symmetry_equiv_pos_as_xyz
 1  'x, y, z'
loop_
 _atom_site_type_symbol
 _atom_site_label
 _atom_site_symmetry_multiplicity
 _atom_site_fract_x
 _atom_site_fract_y
 _atom_site_fract_z
 _atom_site_fract_occupancy
 H  H1  1  0.07233  0.92767  0.24242  1
 H  H2  1  0.98084  0.01916  0.46967  1
 H  H3  1  -0.00017  0.00017  0.03520  1
 H  H4  1  0.95455  0.04545  0.79264  1
 O  O1  1  0.70374  0.29626  0.54191  1
 O  O2  1  0.82963  0.17037  0.96863  1
 O  O3  1  0.76341  0.23659  0.25348  1
 O  O4  1  0.86295  0.13705  0.68369  1
 O  O5  1  0.13288  0.86712  0.31089  1
 O  O6  1  0.92327  0.07673  0.40382  1
 O  O7  1  0.17316  0.82684  0.03075  1
 O  O8  1  0.99082  0.00918  0.14070  1
 O  O9  1  0.01094  0.98906  0.86362  1
 O  O10  1  0.23799  0.76201  0.74268  1
 O  O11  1  0.35203  0.64797  0.18189  1
 O  O12  1  0.07630  0.92370  0.59946  1
 O  O13  1  0.29175  0.70825  0.45452  1
 O  O14  1  0.64929  0.35071  0.81738  1
 Ti  Ti1  1  0.11702  0.88298  0.82657  1
 Ti  Ti2  1  0.88095  0.11905  0.16832  1
 Ti  Ti3  1  0.16743  0.83257  0.52230  1
 Ti  Ti4  1  0.82418  0.17582  0.48663  1
 Ti  Ti5  1  0.23246  0.76754  0.21240  1
 Ti  Ti6  1  0.76883  0.23117  0.78513  1
