CIF file written using JARVIS-Tools package.
data_SO2
_symmetry_space_group_name_H-M  'Aea2'
_cell_length_a       4.17695
_cell_length_b       4.17696
_cell_length_c       5.92764
_cell_angle_alpha    90
_cell_angle_beta     90
_cell_angle_gamma    92.1731

_symmetry_Int_Tables_number  41
_chemical_formula_structural  SO2
_chemical_formula_sum  S2O4
_cell_volume  103.34495183212582
_cell_formula_units_Z  2
loop_
  _symmetry_equiv_pos_site_id
 _symmetry_equiv_pos_as_xyz
 1  'x, y, z'
loop_
 _atom_site_type_symbol
 _atom_site_label
 _atom_site_symmetry_multiplicity
 _atom_site_fract_x
 _atom_site_fract_y
 _atom_site_fract_z
 _atom_site_fract_occupancy
 O  O1  1  0.77605  0.53371  0.64142  1
 O  O2  1  0.46629  0.22395  0.35858  1
 O  O3  1  0.96629  0.72395  0.14142  1
 O  O4  1  0.27605  0.03371  0.85858  1
 S  S1  1  0.49366  0.50634  0.50000  1
 S  S2  1  -0.00634  0.00634  0.00000  1
