CIF file written using JARVIS-Tools package.
data_LiNiO2
_symmetry_space_group_name_H-M  'Imm2'
_cell_length_a       5.3805
_cell_length_b       5.38051
_cell_length_c       5.38051
_cell_angle_alpha    146.222
_cell_angle_beta     150.82
_cell_angle_gamma    45.2272

_symmetry_Int_Tables_number  44
_chemical_formula_structural  LiNiO2
_chemical_formula_sum  LiNiO2
_cell_volume  42.08984718453744
_cell_formula_units_Z  1
loop_
  _symmetry_equiv_pos_site_id
 _symmetry_equiv_pos_as_xyz
 1  'x, y, z'
loop_
 _atom_site_type_symbol
 _atom_site_label
 _atom_site_symmetry_multiplicity
 _atom_site_fract_x
 _atom_site_fract_y
 _atom_site_fract_z
 _atom_site_fract_occupancy
 Li  Li1  1  0.27133  0.77133  0.50000  1
 Ni  Ni1  1  0.00754  0.50754  0.50000  1
 O  O1  1  0.38429  0.38429  0.00000  1
 O  O2  1  0.62984  0.62984  1.00000  1
