CIF file written using JARVIS-Tools package.
data_SrLiNiF6
_symmetry_space_group_name_H-M  'P-31c'
_cell_length_a       5.13597
_cell_length_b       5.13597
_cell_length_c       10.4171
_cell_angle_alpha    90
_cell_angle_beta     90
_cell_angle_gamma    120

_symmetry_Int_Tables_number  163
_chemical_formula_structural  SrLiNiF6
_chemical_formula_sum  Sr2Li2Ni2F2
_cell_volume  237.97036016851192
_cell_formula_units_Z  2
loop_
  _symmetry_equiv_pos_site_id
 _symmetry_equiv_pos_as_xyz
 1  'x, y, z'
loop_
 _atom_site_type_symbol
 _atom_site_label
 _atom_site_symmetry_multiplicity
 _atom_site_fract_x
 _atom_site_fract_y
 _atom_site_fract_z
 _atom_site_fract_occupancy
 F  F1  1  0.62058  0.98200  0.64589  1
 F  F2  1  0.36142  0.98200  0.85411  1
 F  F3  1  0.98200  0.36142  0.35411  1
 F  F4  1  0.63858  0.01800  0.14589  1
 F  F5  1  0.63858  0.62058  0.35411  1
 F  F6  1  0.37942  0.01800  0.35411  1
 F  F7  1  0.62058  0.63858  0.85411  1
 F  F8  1  0.01800  0.37942  0.85411  1
 F  F9  1  0.98200  0.62058  0.14589  1
 F  F10  1  0.37942  0.36142  0.14589  1
 F  F11  1  0.01800  0.63858  0.64589  1
 F  F12  1  0.36142  0.37942  0.64589  1
 Li  Li1  1  0.33333  0.66667  0.25000  1
 Li  Li2  1  0.66667  0.33333  0.75000  1
 Ni  Ni1  1  0.66667  0.33333  0.25000  1
 Ni  Ni2  1  0.33333  0.66667  0.75000  1
 Sr  Sr1  1  0.00000  0.00000  0.50000  1
 Sr  Sr2  1  0.00000  0.00000  0.00000  1
