CIF file written using JARVIS-Tools package.
data_Li2Ti2S5
_symmetry_space_group_name_H-M  'C2/c'
_cell_length_a       6.07032
_cell_length_b       6.07032
_cell_length_c       11.8907
_cell_angle_alpha    68.7859
_cell_angle_beta     111.214
_cell_angle_gamma    118.728

_symmetry_Int_Tables_number  15
_chemical_formula_structural  Li2Ti2S5
_chemical_formula_sum  Li4Ti4S0
_cell_volume  348.5928082294767
_cell_formula_units_Z  2
loop_
  _symmetry_equiv_pos_site_id
 _symmetry_equiv_pos_as_xyz
 1  'x, y, z'
loop_
 _atom_site_type_symbol
 _atom_site_label
 _atom_site_symmetry_multiplicity
 _atom_site_fract_x
 _atom_site_fract_y
 _atom_site_fract_z
 _atom_site_fract_occupancy
 Li  Li1  1  0.17293  0.55845  0.67598  1
 Li  Li2  1  0.44155  0.82707  0.17598  1
 Li  Li3  1  0.55845  0.17293  0.82402  1
 Li  Li4  1  0.82707  0.44155  0.32402  1
 S  S1  1  0.71530  0.28892  0.54064  1
 S  S2  1  0.28470  0.71108  0.45936  1
 S  S3  1  0.01550  0.18815  0.86029  1
 S  S4  1  0.28892  0.71530  0.95936  1
 S  S5  1  0.18815  0.01550  0.63971  1
 S  S6  1  0.81185  0.98450  0.36029  1
 S  S7  1  0.98450  0.81185  0.13971  1
 S  S8  1  0.63711  0.63711  0.75000  1
 S  S9  1  0.36289  0.36289  0.25000  1
 S  S10  1  0.71108  0.28470  0.04064  1
 Ti  Ti1  1  0.24959  0.07562  0.44146  1
 Ti  Ti2  1  0.07562  0.24959  0.05854  1
 Ti  Ti3  1  0.92438  0.75041  0.94146  1
 Ti  Ti4  1  0.75041  0.92438  0.55854  1
