CIF file written using JARVIS-Tools package.
data_Tl3BSe3
_symmetry_space_group_name_H-M  'P2_1/m'
_cell_length_a       5.63125
_cell_length_b       10.2639
_cell_length_c       6.86731
_cell_angle_alpha    90
_cell_angle_beta     97.2494
_cell_angle_gamma    90

_symmetry_Int_Tables_number  11
_chemical_formula_structural  Tl3BSe3
_chemical_formula_sum  Tl6B2Se6
_cell_volume  393.74702614962035
_cell_formula_units_Z  2
loop_
  _symmetry_equiv_pos_site_id
 _symmetry_equiv_pos_as_xyz
 1  'x, y, z'
loop_
 _atom_site_type_symbol
 _atom_site_label
 _atom_site_symmetry_multiplicity
 _atom_site_fract_x
 _atom_site_fract_y
 _atom_site_fract_z
 _atom_site_fract_occupancy
 B  B1  1  0.60975  0.25000  0.73832  1
 B  B2  1  0.39025  0.75000  0.26168  1
 Se  Se1  1  0.24471  0.58395  0.16713  1
 Se  Se2  1  0.75529  0.08395  0.83287  1
 Se  Se3  1  0.75529  0.41605  0.83287  1
 Se  Se4  1  0.24471  0.91605  0.16713  1
 Se  Se5  1  0.68374  0.75000  0.45046  1
 Se  Se6  1  0.31626  0.25000  0.54954  1
 Tl  Tl1  1  0.73139  0.05589  0.33334  1
 Tl  Tl2  1  0.26861  0.55589  0.66666  1
 Tl  Tl3  1  0.26861  0.94411  0.66666  1
 Tl  Tl4  1  0.73139  0.44411  0.33334  1
 Tl  Tl5  1  0.19544  0.25000  0.01740  1
 Tl  Tl6  1  0.80456  0.75000  0.98260  1
