CIF file written using JARVIS-Tools package.
data_Ba2CaWO6
_symmetry_space_group_name_H-M  'I4/m'
_cell_length_a       5.96919
_cell_length_b       5.96919
_cell_length_c       5.98855
_cell_angle_alpha    119.893
_cell_angle_beta     119.893
_cell_angle_gamma    90

_symmetry_Int_Tables_number  87
_chemical_formula_structural  Ba2CaWO6
_chemical_formula_sum  Ba2CaWO6
_cell_volume  151.36833898494893
_cell_formula_units_Z  1
loop_
  _symmetry_equiv_pos_site_id
 _symmetry_equiv_pos_as_xyz
 1  'x, y, z'
loop_
 _atom_site_type_symbol
 _atom_site_label
 _atom_site_symmetry_multiplicity
 _atom_site_fract_x
 _atom_site_fract_y
 _atom_site_fract_z
 _atom_site_fract_occupancy
 Ba  Ba1  1  0.25000  0.75000  0.50000  1
 Ba  Ba2  1  0.75000  0.25000  0.50000  1
 Ca  Ca1  1  0.00000  0.00000  0.00000  1
 O  O1  1  0.75584  0.70198  -0.00000  1
 O  O2  1  0.29802  0.75584  -0.00000  1
 O  O3  1  0.70198  0.24416  0.00000  1
 O  O4  1  0.24416  0.29802  0.00000  1
 O  O5  1  0.27075  0.27075  0.54151  1
 O  O6  1  0.72925  0.72925  0.45849  1
 W  W1  1  0.50000  0.50000  1.00000  1
