CIF file written using JARVIS-Tools package.
data_ThGe2Pt2
_symmetry_space_group_name_H-M  'I4/mmm'
_cell_length_a       4.46694
_cell_length_b       4.46694
_cell_length_c       5.85494
_cell_angle_alpha    112.425
_cell_angle_beta     112.425
_cell_angle_gamma    89.9999

_symmetry_Int_Tables_number  139
_chemical_formula_structural  ThGe2Pt2
_chemical_formula_sum  ThGe2Pt2
_cell_volume  98.36820469308755
_cell_formula_units_Z  1
loop_
  _symmetry_equiv_pos_site_id
 _symmetry_equiv_pos_as_xyz
 1  'x, y, z'
loop_
 _atom_site_type_symbol
 _atom_site_label
 _atom_site_symmetry_multiplicity
 _atom_site_fract_x
 _atom_site_fract_y
 _atom_site_fract_z
 _atom_site_fract_occupancy
 Ge  Ge1  1  0.62593  0.62593  0.25186  1
 Ge  Ge2  1  0.37407  0.37407  0.74814  1
 Pt  Pt1  1  0.25000  0.75000  0.50000  1
 Pt  Pt2  1  0.75000  0.25000  0.50000  1
 Th  Th1  1  0.00000  0.00000  0.00000  1
