CIF file written using JARVIS-Tools package.
data_LiCuCO3
_symmetry_space_group_name_H-M  'P-1'
_cell_length_a       3.5714
_cell_length_b       4.51087
_cell_length_c       8.62543
_cell_angle_alpha    99.1351
_cell_angle_beta     78.1279
_cell_angle_gamma    98.6558

_symmetry_Int_Tables_number  2
_chemical_formula_structural  LiCuCO3
_chemical_formula_sum  Li2Cu2C2O6
_cell_volume  133.25764820145355
_cell_formula_units_Z  2
loop_
  _symmetry_equiv_pos_site_id
 _symmetry_equiv_pos_as_xyz
 1  'x, y, z'
loop_
 _atom_site_type_symbol
 _atom_site_label
 _atom_site_symmetry_multiplicity
 _atom_site_fract_x
 _atom_site_fract_y
 _atom_site_fract_z
 _atom_site_fract_occupancy
 C  C1  1  0.21496  0.76963  0.71618  1
 C  C2  1  0.78500  0.23031  0.28370  1
 Cu  Cu1  1  -0.00002  0.49997  0.99994  1
 Cu  Cu2  1  0.49997  -0.00002  0.99994  1
 Li  Li1  1  0.83982  0.18910  0.63442  1
 Li  Li2  1  0.16014  0.81083  0.36546  1
 O  O1  1  0.05828  0.52466  0.77979  1
 O  O2  1  0.14936  0.81251  0.58358  1
 O  O3  1  0.43902  0.97786  0.79019  1
 O  O4  1  0.94168  0.47528  0.22008  1
 O  O5  1  0.85059  0.18743  0.41630  1
 O  O6  1  0.56094  0.02207  0.20969  1
