CIF file written using JARVIS-Tools package.
data_NaCaSiHO4
_symmetry_space_group_name_H-M  'P2_1'
_cell_length_a       5.437
_cell_length_b       7.06003
_cell_length_c       5.48568
_cell_angle_alpha    90
_cell_angle_beta     116.321
_cell_angle_gamma    90

_symmetry_Int_Tables_number  4
_chemical_formula_structural  NaCaSiHO4
_chemical_formula_sum  Na2Ca2Si2H2O8
_cell_volume  188.73882065154987
_cell_formula_units_Z  2
loop_
  _symmetry_equiv_pos_site_id
 _symmetry_equiv_pos_as_xyz
 1  'x, y, z'
loop_
 _atom_site_type_symbol
 _atom_site_label
 _atom_site_symmetry_multiplicity
 _atom_site_fract_x
 _atom_site_fract_y
 _atom_site_fract_z
 _atom_site_fract_occupancy
 Ca  Ca1  1  0.99647  0.51421  0.00660  1
 Ca  Ca2  1  0.00353  0.01421  0.99340  1
 H  H1  1  0.96452  -0.00046  0.46761  1
 H  H2  1  0.03548  0.49954  0.53239  1
 Na  Na1  1  0.36417  0.76537  0.74700  1
 Na  Na2  1  0.63583  0.26537  0.25300  1
 O  O1  1  0.32336  0.76364  0.19685  1
 O  O2  1  0.67664  0.26364  0.80315  1
 O  O3  1  0.76364  0.76131  0.70485  1
 O  O4  1  0.23636  0.26131  0.29515  1
 O  O5  1  0.78925  0.57215  0.28932  1
 O  O6  1  0.21075  0.07215  0.71068  1
 O  O7  1  0.79065  0.95188  0.29624  1
 O  O8  1  0.20935  0.45188  0.70376  1
 Si  Si1  1  0.65602  0.75491  0.37421  1
 Si  Si2  1  0.34398  0.25491  0.62579  1
