CIF file written using JARVIS-Tools package.
data_PNF2
_symmetry_space_group_name_H-M  'P2_1/c'
_cell_length_a       4.76214
_cell_length_b       7.20176
_cell_length_c       13.5884
_cell_angle_alpha    90
_cell_angle_beta     90
_cell_angle_gamma    108.414

_symmetry_Int_Tables_number  14
_chemical_formula_structural  PNF2
_chemical_formula_sum  P8N8F6
_cell_volume  442.1649734276779
_cell_formula_units_Z  8
loop_
  _symmetry_equiv_pos_site_id
 _symmetry_equiv_pos_as_xyz
 1  'x, y, z'
loop_
 _atom_site_type_symbol
 _atom_site_label
 _atom_site_symmetry_multiplicity
 _atom_site_fract_x
 _atom_site_fract_y
 _atom_site_fract_z
 _atom_site_fract_occupancy
 F  F1  1  0.30961  0.75931  0.92062  1
 F  F2  1  0.67575  0.63921  0.85039  1
 F  F3  1  0.69039  0.74069  0.42062  1
 F  F4  1  0.69039  0.24069  0.07938  1
 F  F5  1  0.72975  0.31858  0.28960  1
 F  F6  1  0.27025  0.18142  0.78960  1
 F  F7  1  0.32425  0.36079  0.14961  1
 F  F8  1  0.72975  0.81858  0.21040  1
 F  F9  1  0.95831  0.86009  0.65518  1
 F  F10  1  0.04169  0.13991  0.34482  1
 F  F11  1  0.67575  0.13921  0.64961  1
 F  F12  1  0.27025  0.68142  0.71040  1
 F  F13  1  0.95831  0.36009  0.84482  1
 F  F14  1  0.04169  0.63991  0.15518  1
 F  F15  1  0.32425  0.86079  0.35039  1
 F  F16  1  0.30961  0.25931  0.57938  1
 N  N1  1  0.19706  0.99728  0.11603  1
 N  N2  1  0.80294  0.00272  0.88397  1
 N  N3  1  0.28207  0.26920  0.96939  1
 N  N4  1  0.71793  0.23080  0.46939  1
 N  N5  1  0.80294  0.50272  0.61603  1
 N  N6  1  0.71793  0.73080  0.03061  1
 N  N7  1  0.28207  0.76920  0.53061  1
 N  N8  1  0.19706  0.49728  0.38397  1
 P  P1  1  0.92655  0.80824  0.12006  1
 P  P2  1  0.65159  0.29531  0.57370  1
 P  P3  1  0.34841  0.20469  0.07370  1
 P  P4  1  0.34841  0.70469  0.42630  1
 P  P5  1  0.07345  0.19176  0.87994  1
 P  P6  1  0.92655  0.30824  0.37994  1
 P  P7  1  0.65159  0.79531  0.92630  1
 P  P8  1  0.07345  0.69176  0.62006  1
