CIF file written using JARVIS-Tools package.
data_BaAl2Te4
_symmetry_space_group_name_H-M  'P4/nbm'
_cell_length_a       8.58556
_cell_length_b       8.58556
_cell_length_c       6.77095
_cell_angle_alpha    90
_cell_angle_beta     90
_cell_angle_gamma    90

_symmetry_Int_Tables_number  125
_chemical_formula_structural  BaAl2Te4
_chemical_formula_sum  Ba2Al4Te8
_cell_volume  499.09941856468146
_cell_formula_units_Z  2
loop_
  _symmetry_equiv_pos_site_id
 _symmetry_equiv_pos_as_xyz
 1  'x, y, z'
loop_
 _atom_site_type_symbol
 _atom_site_label
 _atom_site_symmetry_multiplicity
 _atom_site_fract_x
 _atom_site_fract_y
 _atom_site_fract_z
 _atom_site_fract_occupancy
 Al  Al1  1  0.50000  0.00000  0.50000  1
 Al  Al2  1  0.00000  0.50000  0.50000  1
 Al  Al3  1  0.00000  0.50000  0.00000  1
 Al  Al4  1  0.50000  0.00000  0.00000  1
 Ba  Ba1  1  0.50000  0.50000  0.00000  1
 Ba  Ba2  1  0.00000  0.00000  0.00000  1
 Te  Te1  1  0.66880  0.83120  0.25138  1
 Te  Te2  1  0.33120  0.16880  0.25138  1
 Te  Te3  1  0.83120  0.66880  0.74862  1
 Te  Te4  1  0.66880  0.16880  0.74862  1
 Te  Te5  1  0.33120  0.83120  0.74862  1
 Te  Te6  1  0.16880  0.33120  0.74862  1
 Te  Te7  1  0.16880  0.66880  0.25138  1
 Te  Te8  1  0.83120  0.33120  0.25138  1
