CIF file written using JARVIS-Tools package.
data_SnAu5
_symmetry_space_group_name_H-M  'R32'
_cell_length_a       5.72242
_cell_length_b       5.72242
_cell_length_c       5.72241
_cell_angle_alpha    53.8573
_cell_angle_beta     53.8572
_cell_angle_gamma    53.8573

_symmetry_Int_Tables_number  155
_chemical_formula_structural  SnAu5
_chemical_formula_sum  SnAu5
_cell_volume  113.48134735622996
_cell_formula_units_Z  1
loop_
  _symmetry_equiv_pos_site_id
 _symmetry_equiv_pos_as_xyz
 1  'x, y, z'
loop_
 _atom_site_type_symbol
 _atom_site_label
 _atom_site_symmetry_multiplicity
 _atom_site_fract_x
 _atom_site_fract_y
 _atom_site_fract_z
 _atom_site_fract_occupancy
 Au  Au1  1  0.67141  0.67141  0.67141  1
 Au  Au2  1  0.50002  0.17459  0.82544  1
 Au  Au3  1  0.82544  0.50002  0.17459  1
 Au  Au4  1  0.17459  0.82544  0.50002  1
 Au  Au5  1  0.32862  0.32862  0.32862  1
 Sn  Sn1  1  0.00002  0.00002  0.00002  1
