CIF file written using JARVIS-Tools package.
data_Co9S8
_symmetry_space_group_name_H-M  'Fm-3m'
_cell_length_a       6.93855
_cell_length_b       6.93855
_cell_length_c       6.93855
_cell_angle_alpha    60
_cell_angle_beta     60
_cell_angle_gamma    60

_symmetry_Int_Tables_number  225
_chemical_formula_structural  Co9S8
_chemical_formula_sum  Co9S8
_cell_volume  236.20575643446816
_cell_formula_units_Z  1
loop_
  _symmetry_equiv_pos_site_id
 _symmetry_equiv_pos_as_xyz
 1  'x, y, z'
loop_
 _atom_site_type_symbol
 _atom_site_label
 _atom_site_symmetry_multiplicity
 _atom_site_fract_x
 _atom_site_fract_y
 _atom_site_fract_z
 _atom_site_fract_occupancy
 Co  Co1  1  0.12643  0.12643  0.62070  1
 Co  Co2  1  0.12643  0.12643  0.12643  1
 Co  Co3  1  0.87357  0.87357  0.87357  1
 Co  Co4  1  0.87357  0.87357  0.37930  1
 Co  Co5  1  0.37930  0.87357  0.87357  1
 Co  Co6  1  0.50000  0.50000  0.50000  1
 Co  Co7  1  0.87357  0.37930  0.87357  1
 Co  Co8  1  0.12643  0.62070  0.12643  1
 Co  Co9  1  0.62070  0.12643  0.12643  1
 S  S1  1  0.73810  0.73810  0.26190  1
 S  S2  1  0.75000  0.75000  0.75000  1
 S  S3  1  0.73810  0.26190  0.26190  1
 S  S4  1  0.26190  0.73810  0.73810  1
 S  S5  1  0.26190  0.73810  0.26190  1
 S  S6  1  0.73810  0.26190  0.73810  1
 S  S7  1  0.26190  0.26190  0.73810  1
 S  S8  1  0.25000  0.25000  0.25000  1
