CIF file written using JARVIS-Tools package.
data_CoP2
_symmetry_space_group_name_H-M  'P2_1/c'
_cell_length_a       5.5786
_cell_length_b       5.57404
_cell_length_c       5.64401
_cell_angle_alpha    90
_cell_angle_beta     114.292
_cell_angle_gamma    90

_symmetry_Int_Tables_number  14
_chemical_formula_structural  CoP2
_chemical_formula_sum  Co4P8
_cell_volume  159.96429521902695
_cell_formula_units_Z  4
loop_
  _symmetry_equiv_pos_site_id
 _symmetry_equiv_pos_as_xyz
 1  'x, y, z'
loop_
 _atom_site_type_symbol
 _atom_site_label
 _atom_site_symmetry_multiplicity
 _atom_site_fract_x
 _atom_site_fract_y
 _atom_site_fract_z
 _atom_site_fract_occupancy
 Co  Co1  1  0.72821  0.50144  0.21292  1
 Co  Co2  1  0.27179  0.00144  0.28708  1
 Co  Co3  1  0.27179  0.49856  0.78708  1
 Co  Co4  1  0.72821  0.99856  0.71292  1
 P  P1  1  0.84264  0.12679  0.13340  1
 P  P2  1  0.15736  0.62679  0.36660  1
 P  P3  1  0.15736  0.87321  0.86660  1
 P  P4  1  0.84264  0.37321  0.63340  1
 P  P5  1  0.66094  0.62841  0.81933  1
 P  P6  1  0.33906  0.12841  0.68067  1
 P  P7  1  0.33906  0.37159  0.18067  1
 P  P8  1  0.66094  0.87159  0.31933  1
