CIF file written using JARVIS-Tools package.
data_ScAlO3
_symmetry_space_group_name_H-M  'Pnma'
_cell_length_a       4.96132
_cell_length_b       5.25714
_cell_length_c       7.26691
_cell_angle_alpha    90
_cell_angle_beta     90
_cell_angle_gamma    90

_symmetry_Int_Tables_number  62
_chemical_formula_structural  ScAlO3
_chemical_formula_sum  Sc4Al4O2
_cell_volume  189.53819161409498
_cell_formula_units_Z  4
loop_
  _symmetry_equiv_pos_site_id
 _symmetry_equiv_pos_as_xyz
 1  'x, y, z'
loop_
 _atom_site_type_symbol
 _atom_site_label
 _atom_site_symmetry_multiplicity
 _atom_site_fract_x
 _atom_site_fract_y
 _atom_site_fract_z
 _atom_site_fract_occupancy
 Al  Al1  1  0.50000  0.00000  0.00000  1
 Al  Al2  1  0.00000  0.50000  0.00000  1
 Al  Al3  1  0.00000  0.50000  0.50000  1
 Al  Al4  1  0.50000  0.00000  0.50000  1
 O  O1  1  0.12199  0.45468  0.25000  1
 O  O2  1  0.19123  0.19477  0.93772  1
 O  O3  1  0.37801  0.95468  0.25000  1
 O  O4  1  0.30877  0.69477  0.56228  1
 O  O5  1  0.80877  0.80523  0.43772  1
 O  O6  1  0.69123  0.30523  0.06228  1
 O  O7  1  0.30877  0.69477  0.93772  1
 O  O8  1  0.87801  0.54532  0.75000  1
 O  O9  1  0.19123  0.19477  0.56228  1
 O  O10  1  0.80877  0.80523  0.06228  1
 O  O11  1  0.62199  0.04532  0.75000  1
 O  O12  1  0.69123  0.30523  0.43772  1
 Sc  Sc1  1  0.52177  0.56895  0.25000  1
 Sc  Sc2  1  0.02177  0.93105  0.75000  1
 Sc  Sc3  1  0.97823  0.06895  0.25000  1
 Sc  Sc4  1  0.47823  0.43105  0.75000  1
