CIF file written using JARVIS-Tools package.
data_Li2AgF3
_symmetry_space_group_name_H-M  'P-3m1'
_cell_length_a       2.92884
_cell_length_b       2.92884
_cell_length_c       8.17222
_cell_angle_alpha    90
_cell_angle_beta     90
_cell_angle_gamma    120

_symmetry_Int_Tables_number  164
_chemical_formula_structural  Li2AgF3
_chemical_formula_sum  Li2AgF3
_cell_volume  60.71016240166326
_cell_formula_units_Z  1
loop_
  _symmetry_equiv_pos_site_id
 _symmetry_equiv_pos_as_xyz
 1  'x, y, z'
loop_
 _atom_site_type_symbol
 _atom_site_label
 _atom_site_symmetry_multiplicity
 _atom_site_fract_x
 _atom_site_fract_y
 _atom_site_fract_z
 _atom_site_fract_occupancy
 Ag  Ag1  1  0.00000  0.00000  0.50000  1
 F  F1  1  0.33333  0.66667  0.72460  1
 F  F2  1  0.66667  0.33333  0.27540  1
 F  F3  1  0.00000  0.00000  0.00000  1
 Li  Li1  1  0.33333  0.66667  0.14091  1
 Li  Li2  1  0.66667  0.33333  0.85909  1
