CIF file written using JARVIS-Tools package.
data_PbSeO3
_symmetry_space_group_name_H-M  'P2_1/m'
_cell_length_a       4.5359
_cell_length_b       5.5751
_cell_length_c       6.64055
_cell_angle_alpha    90
_cell_angle_beta     106.649
_cell_angle_gamma    90

_symmetry_Int_Tables_number  11
_chemical_formula_structural  PbSeO3
_chemical_formula_sum  Pb2Se2O6
_cell_volume  160.88736938565626
_cell_formula_units_Z  2
loop_
  _symmetry_equiv_pos_site_id
 _symmetry_equiv_pos_as_xyz
 1  'x, y, z'
loop_
 _atom_site_type_symbol
 _atom_site_label
 _atom_site_symmetry_multiplicity
 _atom_site_fract_x
 _atom_site_fract_y
 _atom_site_fract_z
 _atom_site_fract_occupancy
 O  O1  1  0.80322  0.01249  0.66683  1
 O  O2  1  0.19678  0.51249  0.33317  1
 O  O3  1  0.19678  0.98751  0.33317  1
 O  O4  1  0.80322  0.48751  0.66683  1
 O  O5  1  0.30766  0.25000  0.88430  1
 O  O6  1  0.69234  0.75000  0.11570  1
 Pb  Pb1  1  0.64111  0.25000  0.30402  1
 Pb  Pb2  1  0.35889  0.75000  0.69598  1
 Se  Se1  1  0.08373  0.75000  0.15775  1
 Se  Se2  1  0.91627  0.25000  0.84225  1
