CIF file written using JARVIS-Tools package.
data_Mg3Ni2O7
_symmetry_space_group_name_H-M  'Cmc2_1'
_cell_length_a       5.20539
_cell_length_b       4.95341
_cell_length_c       9.06972
_cell_angle_alpha    105.847
_cell_angle_beta     90
_cell_angle_gamma    90

_symmetry_Int_Tables_number  36
_chemical_formula_structural  Mg3Ni2O7
_chemical_formula_sum  Mg6Ni4O4
_cell_volume  224.96920243152547
_cell_formula_units_Z  2
loop_
  _symmetry_equiv_pos_site_id
 _symmetry_equiv_pos_as_xyz
 1  'x, y, z'
loop_
 _atom_site_type_symbol
 _atom_site_label
 _atom_site_symmetry_multiplicity
 _atom_site_fract_x
 _atom_site_fract_y
 _atom_site_fract_z
 _atom_site_fract_occupancy
 Mg  Mg1  1  0.67342  0.77794  0.00000  1
 Mg  Mg2  1  0.17342  0.22206  -0.00000  1
 Mg  Mg3  1  0.82972  0.56449  0.61520  1
 Mg  Mg4  1  0.32972  0.43551  0.38480  1
 Mg  Mg5  1  0.82972  0.94929  0.38480  1
 Mg  Mg6  1  0.32972  0.05071  0.61520  1
 Ni  Ni1  1  0.74945  0.35576  0.20451  1
 Ni  Ni2  1  0.24945  0.64424  0.79549  1
 Ni  Ni3  1  0.24945  0.84874  0.20451  1
 Ni  Ni4  1  0.74945  0.15126  0.79549  1
 O  O1  1  0.70399  0.93032  0.59241  1
 O  O2  1  0.94255  0.01313  0.14960  1
 O  O3  1  0.20399  0.66209  0.59241  1
 O  O4  1  0.70399  0.33791  0.40759  1
 O  O5  1  0.04188  0.31056  0.72733  1
 O  O6  1  0.20399  0.06968  0.40759  1
 O  O7  1  0.81142  0.39040  0.00000  1
 O  O8  1  0.04188  0.58323  0.27267  1
 O  O9  1  0.94255  0.86353  0.85040  1
 O  O10  1  0.44255  0.13647  0.14960  1
 O  O11  1  0.54188  0.68944  0.27267  1
 O  O12  1  0.31142  0.60960  -0.00000  1
 O  O13  1  0.54188  0.41677  0.72733  1
 O  O14  1  0.44255  0.98687  0.85040  1
