CIF file written using JARVIS-Tools package.
data_Na4FeO3
_symmetry_space_group_name_H-M  'Cc'
_cell_length_a       5.7949
_cell_length_b       6.17096
_cell_length_c       8.23956
_cell_angle_alpha    110.998
_cell_angle_beta     90
_cell_angle_gamma    118.004

_symmetry_Int_Tables_number  9
_chemical_formula_structural  Na4FeO3
_chemical_formula_sum  Na8Fe2O6
_cell_volume  237.7600402917099
_cell_formula_units_Z  2
loop_
  _symmetry_equiv_pos_site_id
 _symmetry_equiv_pos_as_xyz
 1  'x, y, z'
loop_
 _atom_site_type_symbol
 _atom_site_label
 _atom_site_symmetry_multiplicity
 _atom_site_fract_x
 _atom_site_fract_y
 _atom_site_fract_z
 _atom_site_fract_occupancy
 Fe  Fe1  1  0.63017  0.96171  0.74503  1
 Fe  Fe2  1  0.33153  0.96171  0.24503  1
 Na  Na1  1  0.27697  0.22052  0.95071  1
 Na  Na2  1  0.72653  0.77073  0.03158  1
 Na  Na3  1  0.94356  0.22052  0.45071  1
 Na  Na4  1  0.10078  0.61570  0.84987  1
 Na  Na5  1  0.51492  0.61570  0.34987  1
 Na  Na6  1  0.86695  0.41195  0.12968  1
 Na  Na7  1  0.04420  0.77072  0.53158  1
 Na  Na8  1  0.54500  0.41195  0.62968  1
 O  O1  1  0.88230  0.87200  0.79189  1
 O  O2  1  0.31613  0.63269  0.60971  1
 O  O3  1  0.31657  0.63269  0.10971  1
 O  O4  1  0.98970  0.87200  0.29189  1
 O  O5  1  0.63894  0.29830  0.34263  1
 O  O6  1  0.65936  0.29830  0.84263  1
