CIF file written using JARVIS-Tools package.
data_CN
_symmetry_space_group_name_H-M  'Pbca'
_cell_length_a       6.00693
_cell_length_b       6.14404
_cell_length_c       6.99131
_cell_angle_alpha    90
_cell_angle_beta     90
_cell_angle_gamma    90

_symmetry_Int_Tables_number  61
_chemical_formula_structural  CN
_chemical_formula_sum  C8N8
_cell_volume  258.0267120859425
_cell_formula_units_Z  8
loop_
  _symmetry_equiv_pos_site_id
 _symmetry_equiv_pos_as_xyz
 1  'x, y, z'
loop_
 _atom_site_type_symbol
 _atom_site_label
 _atom_site_symmetry_multiplicity
 _atom_site_fract_x
 _atom_site_fract_y
 _atom_site_fract_z
 _atom_site_fract_occupancy
 C  C1  1  0.09511  0.96996  0.04744  1
 C  C2  1  0.59511  0.03004  0.45256  1
 C  C3  1  0.40489  0.46996  0.95256  1
 C  C4  1  0.90489  0.53004  0.54744  1
 C  C5  1  0.90489  0.03004  0.95256  1
 C  C6  1  0.40489  0.96996  0.54744  1
 C  C7  1  0.59511  0.53004  0.04744  1
 C  C8  1  0.09511  0.46996  0.45256  1
 N  N1  1  0.25696  0.91895  0.12731  1
 N  N2  1  0.75696  0.08105  0.37269  1
 N  N3  1  0.24304  0.41895  0.87269  1
 N  N4  1  0.74304  0.58105  0.62731  1
 N  N5  1  0.74304  0.08105  0.87269  1
 N  N6  1  0.24304  0.91895  0.62731  1
 N  N7  1  0.75696  0.58105  0.12731  1
 N  N8  1  0.25696  0.41895  0.37269  1
