CIF file written using JARVIS-Tools package.
data_Te4W3S2
_symmetry_space_group_name_H-M  'P3m1'
_cell_length_a       3.43124
_cell_length_b       3.43121
_cell_length_c       29.8241
_cell_angle_alpha    89.9976
_cell_angle_beta     90
_cell_angle_gamma    120

_symmetry_Int_Tables_number  156
_chemical_formula_structural  Te4W3S2
_chemical_formula_sum  Te4W3S2
_cell_volume  304.08530118680716
_cell_formula_units_Z  1
loop_
  _symmetry_equiv_pos_site_id
 _symmetry_equiv_pos_as_xyz
 1  'x, y, z'
loop_
 _atom_site_type_symbol
 _atom_site_label
 _atom_site_symmetry_multiplicity
 _atom_site_fract_x
 _atom_site_fract_y
 _atom_site_fract_z
 _atom_site_fract_occupancy
 S  S1  1  0.66675  0.33351  0.06629  1
 S  S2  1  0.66673  0.33347  0.16688  1
 Te  Te1  1  0.33318  0.66636  0.40284  1
 Te  Te2  1  0.66671  0.33342  0.52155  1
 Te  Te3  1  0.66668  0.33337  0.64718  1
 Te  Te4  1  0.33323  0.66646  0.27712  1
 W  W1  1  0.33341  0.66682  0.11656  1
 W  W2  1  0.33336  0.66673  0.58443  1
 W  W3  1  0.66654  0.33307  0.34000  1
