CIF file written using JARVIS-Tools package.
data_YbF3
_symmetry_space_group_name_H-M  'Pnma'
_cell_length_a       4.10583
_cell_length_b       6.43309
_cell_length_c       7.04648
_cell_angle_alpha    90
_cell_angle_beta     90
_cell_angle_gamma    90

_symmetry_Int_Tables_number  62
_chemical_formula_structural  YbF3
_chemical_formula_sum  Yb4F2
_cell_volume  186.1200757673334
_cell_formula_units_Z  4
loop_
  _symmetry_equiv_pos_site_id
 _symmetry_equiv_pos_as_xyz
 1  'x, y, z'
loop_
 _atom_site_type_symbol
 _atom_site_label
 _atom_site_symmetry_multiplicity
 _atom_site_fract_x
 _atom_site_fract_y
 _atom_site_fract_z
 _atom_site_fract_occupancy
 F  F1  1  0.07213  0.96188  0.75000  1
 F  F2  1  0.57213  0.53812  0.25000  1
 F  F3  1  0.42787  0.46188  0.75000  1
 F  F4  1  0.92787  0.03812  0.25000  1
 F  F5  1  0.39000  0.18308  0.05436  1
 F  F6  1  0.89000  0.31692  0.94564  1
 F  F7  1  0.11000  0.68308  0.44564  1
 F  F8  1  0.61000  0.81692  0.55436  1
 F  F9  1  0.61000  0.81692  0.94564  1
 F  F10  1  0.11000  0.68308  0.05436  1
 F  F11  1  0.89000  0.31692  0.55436  1
 F  F12  1  0.39000  0.18308  0.44564  1
 Yb  Yb1  1  0.93292  0.61430  0.75000  1
 Yb  Yb2  1  0.43292  0.88570  0.25000  1
 Yb  Yb3  1  0.56708  0.11430  0.75000  1
 Yb  Yb4  1  0.06708  0.38570  0.25000  1
