CIF file written using JARVIS-Tools package.
data_Sr2MgB2O6
_symmetry_space_group_name_H-M  'C2/m'
_cell_length_a       5.17896
_cell_length_b       5.23259
_cell_length_c       6.10482
_cell_angle_alpha    114.748
_cell_angle_beta     90
_cell_angle_gamma    119.662

_symmetry_Int_Tables_number  12
_chemical_formula_structural  Sr2MgB2O6
_chemical_formula_sum  Sr2MgB2O6
_cell_volume  125.97635430209439
_cell_formula_units_Z  1
loop_
  _symmetry_equiv_pos_site_id
 _symmetry_equiv_pos_as_xyz
 1  'x, y, z'
loop_
 _atom_site_type_symbol
 _atom_site_label
 _atom_site_symmetry_multiplicity
 _atom_site_fract_x
 _atom_site_fract_y
 _atom_site_fract_z
 _atom_site_fract_occupancy
 B  B1  1  0.93687  0.87375  0.73706  1
 B  B2  1  0.06313  0.12625  0.26294  1
 Mg  Mg1  1  0.50000  0.00000  0.50000  1
 O  O1  1  0.76777  0.53554  0.66402  1
 O  O2  1  0.20749  0.95297  0.23124  1
 O  O3  1  0.25453  0.04703  0.76876  1
 O  O4  1  0.79251  0.04703  0.76876  1
 O  O5  1  0.74547  0.95297  0.23124  1
 O  O6  1  0.23223  0.46446  0.33598  1
 Sr  Sr1  1  0.70947  0.41894  0.18237  1
 Sr  Sr2  1  0.29053  0.58106  0.81763  1
