CIF file written using JARVIS-Tools package.
data_RbIO4
_symmetry_space_group_name_H-M  'I4_1/a'
_cell_length_a       5.93398
_cell_length_b       5.93404
_cell_length_c       7.70731
_cell_angle_alpha    112.641
_cell_angle_beta     112.641
_cell_angle_gamma    89.999

_symmetry_Int_Tables_number  88
_chemical_formula_structural  RbIO4
_chemical_formula_sum  Rb2I2O8
_cell_volume  227.6504594072743
_cell_formula_units_Z  2
loop_
  _symmetry_equiv_pos_site_id
 _symmetry_equiv_pos_as_xyz
 1  'x, y, z'
loop_
 _atom_site_type_symbol
 _atom_site_label
 _atom_site_symmetry_multiplicity
 _atom_site_fract_x
 _atom_site_fract_y
 _atom_site_fract_z
 _atom_site_fract_occupancy
 I  I1  1  0.62500  0.87500  0.25000  1
 I  I2  1  0.37500  0.12500  0.75000  1
 O  O1  1  0.57402  0.16793  0.40643  1
 O  O2  1  0.23850  0.07403  0.90644  1
 O  O3  1  0.66793  0.33241  0.90643  1
 O  O4  1  0.83242  0.73850  0.40643  1
 O  O5  1  0.16758  0.26150  0.59357  1
 O  O6  1  0.33207  0.66759  0.09357  1
 O  O7  1  0.76150  0.92597  0.09356  1
 O  O8  1  0.42598  0.83207  0.59357  1
 Rb  Rb1  1  0.12500  0.37500  0.25000  1
 Rb  Rb2  1  0.87500  0.62500  0.75000  1
