CIF file written using JARVIS-Tools package.
data_SrNd2O4
_symmetry_space_group_name_H-M  'Fd-3m'
_cell_length_a       7.19414
_cell_length_b       7.19426
_cell_length_c       7.19414
_cell_angle_alpha    60.0006
_cell_angle_beta     90
_cell_angle_gamma    119.999

_symmetry_Int_Tables_number  227
_chemical_formula_structural  SrNd2O4
_chemical_formula_sum  Sr2Nd4O8
_cell_volume  263.29151446049815
_cell_formula_units_Z  2
loop_
  _symmetry_equiv_pos_site_id
 _symmetry_equiv_pos_as_xyz
 1  'x, y, z'
loop_
 _atom_site_type_symbol
 _atom_site_label
 _atom_site_symmetry_multiplicity
 _atom_site_fract_x
 _atom_site_fract_y
 _atom_site_fract_z
 _atom_site_fract_occupancy
 Nd  Nd1  1  0.00000  0.50000  -0.00000  1
 Nd  Nd2  1  0.50000  0.00000  0.50000  1
 Nd  Nd3  1  0.00000  0.00000  0.50000  1
 Nd  Nd4  1  0.00000  0.50000  0.50000  1
 O  O1  1  0.76445  0.02886  0.26441  1
 O  O2  1  0.76441  0.47114  0.26441  1
 O  O3  1  0.20673  0.47114  0.26445  1
 O  O4  1  0.23559  0.97114  0.29327  1
 O  O5  1  0.76441  0.02886  0.70673  1
 O  O6  1  0.79327  0.52886  0.73555  1
 O  O7  1  0.23559  0.52886  0.73559  1
 O  O8  1  0.23555  0.97114  0.73559  1
 Sr  Sr1  1  0.62500  0.75000  0.12500  1
 Sr  Sr2  1  0.37500  0.25000  0.87500  1
