CIF file written using JARVIS-Tools package.
data_ErTa3O9
_symmetry_space_group_name_H-M  'P2_1/m'
_cell_length_a       5.2437
_cell_length_b       7.46662
_cell_length_c       8.26695
_cell_angle_alpha    90
_cell_angle_beta     92.4665
_cell_angle_gamma    90

_symmetry_Int_Tables_number  11
_chemical_formula_structural  ErTa3O9
_chemical_formula_sum  Er2Ta6O8
_cell_volume  323.3737579109875
_cell_formula_units_Z  2
loop_
  _symmetry_equiv_pos_site_id
 _symmetry_equiv_pos_as_xyz
 1  'x, y, z'
loop_
 _atom_site_type_symbol
 _atom_site_label
 _atom_site_symmetry_multiplicity
 _atom_site_fract_x
 _atom_site_fract_y
 _atom_site_fract_z
 _atom_site_fract_occupancy
 Er  Er1  1  0.96729  0.25000  0.56550  1
 Er  Er2  1  0.03271  0.75000  0.43450  1
 O  O1  1  0.89432  0.25000  0.02299  1
 O  O2  1  0.85675  0.93274  0.21738  1
 O  O3  1  0.85675  0.56726  0.21738  1
 O  O4  1  0.74372  0.95452  0.53367  1
 O  O5  1  0.14325  0.43274  0.78262  1
 O  O6  1  0.67311  0.25000  0.34813  1
 O  O7  1  0.67069  0.94069  0.88214  1
 O  O8  1  0.74372  0.54548  0.53367  1
 O  O9  1  0.58184  0.25000  0.68792  1
 O  O10  1  0.41816  0.75000  0.31208  1
 O  O11  1  0.32931  0.05931  0.11786  1
 O  O12  1  0.32931  0.44069  0.11786  1
 O  O13  1  0.32689  0.75000  0.65187  1
 O  O14  1  0.25628  0.04548  0.46633  1
 O  O15  1  0.25628  0.45452  0.46633  1
 O  O16  1  0.14325  0.06726  0.78262  1
 O  O17  1  0.67069  0.55931  0.88214  1
 O  O18  1  0.10568  0.75000  0.97701  1
 Ta  Ta1  1  0.47121  0.50798  0.69717  1
 Ta  Ta2  1  0.47121  0.99202  0.69717  1
 Ta  Ta3  1  0.52879  0.49202  0.30283  1
 Ta  Ta4  1  0.52879  0.00798  0.30283  1
 Ta  Ta5  1  0.00000  0.50000  0.00000  1
 Ta  Ta6  1  0.00000  0.00000  0.00000  1
