CIF file written using JARVIS-Tools package.
data_Al2Bi2O7
_symmetry_space_group_name_H-M  'Fd-3m'
_cell_length_a       7.19894
_cell_length_b       7.19891
_cell_length_c       7.19892
_cell_angle_alpha    59.9997
_cell_angle_beta     59.9998
_cell_angle_gamma    59.9997

_symmetry_Int_Tables_number  227
_chemical_formula_structural  Al2Bi2O7
_chemical_formula_sum  Al4Bi4O4
_cell_volume  263.80601652155235
_cell_formula_units_Z  2
loop_
  _symmetry_equiv_pos_site_id
 _symmetry_equiv_pos_as_xyz
 1  'x, y, z'
loop_
 _atom_site_type_symbol
 _atom_site_label
 _atom_site_symmetry_multiplicity
 _atom_site_fract_x
 _atom_site_fract_y
 _atom_site_fract_z
 _atom_site_fract_occupancy
 Al  Al1  1  0.50001  0.99998  0.50001  1
 Al  Al2  1  0.99998  0.50001  0.50001  1
 Al  Al3  1  0.50001  0.50001  0.99998  1
 Al  Al4  1  0.50001  0.50001  0.50001  1
 Bi  Bi1  1  -0.00000  0.50000  -0.00000  1
 Bi  Bi2  1  0.50000  -0.00000  -0.00000  1
 Bi  Bi3  1  -0.00000  0.00000  0.50000  1
 Bi  Bi4  1  -0.00000  -0.00000  -0.00000  1
 O  O1  1  0.62500  0.62500  0.62500  1
 O  O2  1  0.37500  0.37500  0.37500  1
 O  O3  1  0.58725  0.16275  0.58725  1
 O  O4  1  0.16275  0.58725  0.58725  1
 O  O5  1  0.83727  0.41272  0.83728  1
 O  O6  1  0.41272  0.83728  0.83728  1
 O  O7  1  0.58725  0.58725  0.16275  1
 O  O8  1  0.41273  0.83728  0.41272  1
 O  O9  1  0.83727  0.41273  0.41273  1
 O  O10  1  0.83728  0.83727  0.41272  1
 O  O11  1  0.16275  0.16275  0.58725  1
 O  O12  1  0.58725  0.16275  0.16275  1
 O  O13  1  0.41273  0.41273  0.83727  1
 O  O14  1  0.16275  0.58725  0.16275  1
