CIF file written using JARVIS-Tools package.
data_BH4O2F3
_symmetry_space_group_name_H-M  'P2_1/c'
_cell_length_a       5.45028
_cell_length_b       7.26011
_cell_length_c       8.59634
_cell_angle_alpha    90
_cell_angle_beta     88.7308
_cell_angle_gamma    90

_symmetry_Int_Tables_number  14
_chemical_formula_structural  BH4O2F3
_chemical_formula_sum  B4H6O8F2
_cell_volume  340.07074965645006
_cell_formula_units_Z  4
loop_
  _symmetry_equiv_pos_site_id
 _symmetry_equiv_pos_as_xyz
 1  'x, y, z'
loop_
 _atom_site_type_symbol
 _atom_site_label
 _atom_site_symmetry_multiplicity
 _atom_site_fract_x
 _atom_site_fract_y
 _atom_site_fract_z
 _atom_site_fract_occupancy
 B  B1  1  0.26362  0.30581  0.91863  1
 B  B2  1  0.73638  0.80581  0.58137  1
 B  B3  1  0.73638  0.69419  0.08137  1
 B  B4  1  0.26362  0.19419  0.41863  1
 F  F1  1  0.09365  0.15881  0.89719  1
 F  F2  1  0.21643  0.11400  0.56516  1
 F  F3  1  0.78357  0.61400  0.93484  1
 F  F4  1  0.78357  0.88600  0.43484  1
 F  F5  1  0.21643  0.38600  0.06516  1
 F  F6  1  0.24466  0.06817  0.29707  1
 F  F7  1  0.75534  0.56817  0.20293  1
 F  F8  1  0.75534  0.93183  0.70293  1
 F  F9  1  0.24466  0.43183  0.79707  1
 F  F10  1  0.90635  0.84119  0.10281  1
 F  F11  1  0.90635  0.65881  0.60281  1
 F  F12  1  0.09365  0.34119  0.39719  1
 H  H1  1  0.38444  0.78248  0.98481  1
 H  H2  1  0.16828  0.93667  0.84087  1
 H  H3  1  0.16828  0.56333  0.34087  1
 H  H4  1  0.83172  0.06333  0.15913  1
 H  H5  1  0.91078  0.22568  0.65782  1
 H  H6  1  0.08922  0.72568  0.84218  1
 H  H7  1  0.08922  0.77432  0.34218  1
 H  H8  1  0.91078  0.27432  0.15782  1
 H  H9  1  0.83172  0.43667  0.65913  1
 H  H10  1  0.37485  0.73929  0.18177  1
 H  H11  1  0.37485  0.76071  0.68177  1
 H  H12  1  0.62515  0.23929  0.31823  1
 H  H13  1  0.62515  0.26071  0.81823  1
 H  H14  1  0.61556  0.21752  0.01519  1
 H  H15  1  0.38444  0.71752  0.48481  1
 H  H16  1  0.61556  0.28248  0.51519  1
 O  O1  1  0.51801  0.22749  0.91431  1
 O  O2  1  0.48199  0.72749  0.58569  1
 O  O3  1  0.48199  0.77251  0.08569  1
 O  O4  1  0.23250  0.69128  0.33553  1
 O  O5  1  0.76750  0.19128  0.16447  1
 O  O6  1  0.23250  0.80872  0.83553  1
 O  O7  1  0.76750  0.30872  0.66447  1
 O  O8  1  0.51801  0.27251  0.41431  1
