CIF file written using JARVIS-Tools package.
data_TiO2
_symmetry_space_group_name_H-M  'R-3m'
_cell_length_a       5.21211
_cell_length_b       5.21211
_cell_length_c       5.21211
_cell_angle_alpha    33.3627
_cell_angle_beta     33.3626
_cell_angle_gamma    33.3627

_symmetry_Int_Tables_number  166
_chemical_formula_structural  TiO2
_chemical_formula_sum  TiO2
_cell_volume  38.13029711415639
_cell_formula_units_Z  1
loop_
  _symmetry_equiv_pos_site_id
 _symmetry_equiv_pos_as_xyz
 1  'x, y, z'
loop_
 _atom_site_type_symbol
 _atom_site_label
 _atom_site_symmetry_multiplicity
 _atom_site_fract_x
 _atom_site_fract_y
 _atom_site_fract_z
 _atom_site_fract_occupancy
 O  O1  1  0.60115  0.60115  0.60115  1
 O  O2  1  0.39885  0.39885  0.39885  1
 Ti  Ti1  1  0.00000  0.00000  0.00000  1
