CIF file written using JARVIS-Tools package.
data_Tm3Mn3Ga2Si
_symmetry_space_group_name_H-M  'P-62m'
_cell_length_a       6.96024
_cell_length_b       6.96024
_cell_length_c       3.87717
_cell_angle_alpha    90
_cell_angle_beta     90
_cell_angle_gamma    120

_symmetry_Int_Tables_number  189
_chemical_formula_structural  Tm3Mn3Ga2Si
_chemical_formula_sum  Tm3Mn3Ga2Si
_cell_volume  162.66479723596566
_cell_formula_units_Z  1
loop_
  _symmetry_equiv_pos_site_id
 _symmetry_equiv_pos_as_xyz
 1  'x, y, z'
loop_
 _atom_site_type_symbol
 _atom_site_label
 _atom_site_symmetry_multiplicity
 _atom_site_fract_x
 _atom_site_fract_y
 _atom_site_fract_z
 _atom_site_fract_occupancy
 Ga  Ga1  1  0.66667  0.33333  0.00000  1
 Ga  Ga2  1  0.33333  0.66667  0.00000  1
 Mn  Mn1  1  0.22075  -0.00000  0.00000  1
 Mn  Mn2  1  -0.00000  0.22075  0.00000  1
 Mn  Mn3  1  0.77925  0.77925  0.00000  1
 Si  Si1  1  0.00000  0.00000  0.50000  1
 Tm  Tm1  1  0.40791  0.40791  0.50000  1
 Tm  Tm2  1  -0.00000  0.59209  0.50000  1
 Tm  Tm3  1  0.59209  -0.00000  0.50000  1
