CIF file written using JARVIS-Tools package.
data_Li2Si
_symmetry_space_group_name_H-M  'R-3m'
_cell_length_a       4.34114
_cell_length_b       4.34145
_cell_length_c       6.6297
_cell_angle_alpha    70.8908
_cell_angle_beta     70.8889
_cell_angle_gamma    60.0024

_symmetry_Int_Tables_number  166
_chemical_formula_structural  Li2Si
_chemical_formula_sum  Li4Si2
_cell_volume  100.18114917683396
_cell_formula_units_Z  2
loop_
  _symmetry_equiv_pos_site_id
 _symmetry_equiv_pos_as_xyz
 1  'x, y, z'
loop_
 _atom_site_type_symbol
 _atom_site_label
 _atom_site_symmetry_multiplicity
 _atom_site_fract_x
 _atom_site_fract_y
 _atom_site_fract_z
 _atom_site_fract_occupancy
 Li  Li1  1  0.64384  0.64392  0.06840  1
 Li  Li2  1  0.35616  0.35608  0.93160  1
 Li  Li3  1  0.20545  0.20549  0.38362  1
 Li  Li4  1  0.79455  0.79451  0.61638  1
 Si  Si1  1  0.93758  0.93770  0.18715  1
 Si  Si2  1  0.06242  0.06230  0.81285  1
