CIF file written using JARVIS-Tools package.
data_DyHO2
_symmetry_space_group_name_H-M  'P6_3/mmc'
_cell_length_a       3.5136
_cell_length_b       3.51361
_cell_length_c       9.22247
_cell_angle_alpha    89.9884
_cell_angle_beta     90.0029
_cell_angle_gamma    119.999

_symmetry_Int_Tables_number  194
_chemical_formula_structural  DyHO2
_chemical_formula_sum  Dy2H2O4
_cell_volume  98.60257491518945
_cell_formula_units_Z  2
loop_
  _symmetry_equiv_pos_site_id
 _symmetry_equiv_pos_as_xyz
 1  'x, y, z'
loop_
 _atom_site_type_symbol
 _atom_site_label
 _atom_site_symmetry_multiplicity
 _atom_site_fract_x
 _atom_site_fract_y
 _atom_site_fract_z
 _atom_site_fract_occupancy
 Dy  Dy1  1  0.00000  0.00007  -0.00000  1
 Dy  Dy2  1  1.00000  0.99998  0.50000  1
 H  H1  1  0.33332  0.66668  0.25000  1
 H  H2  1  0.66668  0.33336  0.75000  1
 O  O1  1  0.33331  0.66666  0.11720  1
 O  O2  1  0.33333  0.66670  0.38280  1
 O  O3  1  0.66670  0.33348  0.88280  1
 O  O4  1  0.66667  0.33326  0.61720  1
