CIF file written using JARVIS-Tools package.
data_H4NClO2
_symmetry_space_group_name_H-M  'P-42_1m'
_cell_length_a       6.34693
_cell_length_b       6.34693
_cell_length_c       3.69917
_cell_angle_alpha    90
_cell_angle_beta     90
_cell_angle_gamma    90

_symmetry_Int_Tables_number  113
_chemical_formula_structural  H4NClO2
_chemical_formula_sum  H8N2Cl2O4
_cell_volume  149.01549586440154
_cell_formula_units_Z  2
loop_
  _symmetry_equiv_pos_site_id
 _symmetry_equiv_pos_as_xyz
 1  'x, y, z'
loop_
 _atom_site_type_symbol
 _atom_site_label
 _atom_site_symmetry_multiplicity
 _atom_site_fract_x
 _atom_site_fract_y
 _atom_site_fract_z
 _atom_site_fract_occupancy
 Cl  Cl1  1  0.00000  0.50000  0.86235  1
 Cl  Cl2  1  0.50000  0.00000  0.13765  1
 H  H1  1  0.37043  0.45968  0.33698  1
 H  H2  1  0.12957  0.95968  0.66302  1
 H  H3  1  0.62957  0.54032  0.33698  1
 H  H4  1  0.87043  0.04032  0.66302  1
 H  H5  1  0.54032  0.37043  0.66302  1
 H  H6  1  0.95968  0.87043  0.33698  1
 H  H7  1  0.45968  0.62957  0.66302  1
 H  H8  1  0.04032  0.12957  0.33698  1
 N  N1  1  0.50000  0.50000  0.50000  1
 N  N2  1  0.00000  0.00000  0.50000  1
 O  O1  1  0.64703  0.14703  0.89821  1
 O  O2  1  0.85297  0.64703  0.10179  1
 O  O3  1  0.35297  0.85297  0.89821  1
 O  O4  1  0.14703  0.35297  0.10179  1
