CIF file written using JARVIS-Tools package.
data_SbF5
_symmetry_space_group_name_H-M  'Immm'
_cell_length_a       3.71256
_cell_length_b       5.3361
_cell_length_c       5.3361
_cell_angle_alpha    50.3216
_cell_angle_beta     69.6429
_cell_angle_gamma    69.6428

_symmetry_Int_Tables_number  71
_chemical_formula_structural  SbF5
_chemical_formula_sum  SbF5
_cell_volume  75.1105442230334
_cell_formula_units_Z  1
loop_
  _symmetry_equiv_pos_site_id
 _symmetry_equiv_pos_as_xyz
 1  'x, y, z'
loop_
 _atom_site_type_symbol
 _atom_site_label
 _atom_site_symmetry_multiplicity
 _atom_site_fract_x
 _atom_site_fract_y
 _atom_site_fract_z
 _atom_site_fract_occupancy
 F  F1  1  0.50000  0.76478  0.23522  1
 F  F2  1  0.50000  0.23522  0.76478  1
 F  F3  1  0.78941  0.21059  0.21059  1
 F  F4  1  0.21059  0.78941  0.78941  1
 F  F5  1  -0.00000  0.50000  0.50000  1
 Sb  Sb1  1  0.00000  0.00000  0.00000  1
