CIF file written using JARVIS-Tools package.
data_SbOF
_symmetry_space_group_name_H-M  'P-42_1c'
_cell_length_a       9.80711
_cell_length_b       9.80711
_cell_length_c       4.30375
_cell_angle_alpha    90
_cell_angle_beta     90
_cell_angle_gamma    90

_symmetry_Int_Tables_number  114
_chemical_formula_structural  SbOF
_chemical_formula_sum  Sb8O8F8
_cell_volume  413.9320706745031
_cell_formula_units_Z  8
loop_
  _symmetry_equiv_pos_site_id
 _symmetry_equiv_pos_as_xyz
 1  'x, y, z'
loop_
 _atom_site_type_symbol
 _atom_site_label
 _atom_site_symmetry_multiplicity
 _atom_site_fract_x
 _atom_site_fract_y
 _atom_site_fract_z
 _atom_site_fract_occupancy
 F  F1  1  0.93906  0.66673  0.77093  1
 F  F2  1  0.66673  0.06094  0.22907  1
 F  F3  1  0.56094  0.16673  0.72907  1
 F  F4  1  0.43906  0.83327  0.72907  1
 F  F5  1  0.33327  0.93906  0.22907  1
 F  F6  1  0.16673  0.43906  0.27093  1
 F  F7  1  0.06094  0.33327  0.77093  1
 F  F8  1  0.83327  0.56094  0.27093  1
 O  O1  1  0.13070  0.11713  0.19239  1
 O  O2  1  0.11713  0.86930  0.80761  1
 O  O3  1  0.38287  0.36930  0.69239  1
 O  O4  1  0.36930  0.61713  0.30761  1
 O  O5  1  0.63070  0.38287  0.30761  1
 O  O6  1  0.88287  0.13070  0.80761  1
 O  O7  1  0.86930  0.88287  0.19239  1
 O  O8  1  0.61713  0.63070  0.69239  1
 Sb  Sb1  1  0.97612  0.24206  0.14299  1
 Sb  Sb2  1  0.75794  0.97612  0.85701  1
 Sb  Sb3  1  0.74206  0.47612  0.64299  1
 Sb  Sb4  1  0.52388  0.74206  0.35701  1
 Sb  Sb5  1  0.47612  0.25794  0.35701  1
 Sb  Sb6  1  0.25794  0.52388  0.64299  1
 Sb  Sb7  1  0.24206  0.02388  0.85701  1
 Sb  Sb8  1  0.02388  0.75794  0.14299  1
