CIF file written using JARVIS-Tools package.
data_PrCuSe2
_symmetry_space_group_name_H-M  'P2_1/c'
_cell_length_a       6.74869
_cell_length_b       7.55758
_cell_length_c       7.25823
_cell_angle_alpha    90
_cell_angle_beta     96.712
_cell_angle_gamma    90

_symmetry_Int_Tables_number  14
_chemical_formula_structural  PrCuSe2
_chemical_formula_sum  Pr4Cu4Se8
_cell_volume  367.65989101876227
_cell_formula_units_Z  4
loop_
  _symmetry_equiv_pos_site_id
 _symmetry_equiv_pos_as_xyz
 1  'x, y, z'
loop_
 _atom_site_type_symbol
 _atom_site_label
 _atom_site_symmetry_multiplicity
 _atom_site_fract_x
 _atom_site_fract_y
 _atom_site_fract_z
 _atom_site_fract_occupancy
 Cu  Cu1  1  0.93500  0.83761  0.45561  1
 Cu  Cu2  1  0.06500  0.16239  0.54439  1
 Cu  Cu3  1  0.93500  0.66239  0.95561  1
 Cu  Cu4  1  0.06500  0.33761  0.04439  1
 Pr  Pr1  1  0.30821  0.54636  0.70066  1
 Pr  Pr2  1  0.69179  0.04636  0.79934  1
 Pr  Pr3  1  0.69179  0.45364  0.29934  1
 Pr  Pr4  1  0.30821  0.95364  0.20066  1
 Se  Se1  1  0.58398  0.72379  0.99918  1
 Se  Se2  1  0.58398  0.77621  0.49918  1
 Se  Se3  1  0.41602  0.22379  0.50082  1
 Se  Se4  1  0.41602  0.27621  0.00082  1
 Se  Se5  1  0.10043  0.61016  0.28009  1
 Se  Se6  1  0.89957  0.11016  0.21991  1
 Se  Se7  1  0.89957  0.38984  0.71991  1
 Se  Se8  1  0.10043  0.88984  0.78009  1
