CIF file written using JARVIS-Tools package.
data_AlVF5
_symmetry_space_group_name_H-M  'Immm'
_cell_length_a       3.56605
_cell_length_b       5.24293
_cell_length_c       5.24293
_cell_angle_alpha    72.9747
_cell_angle_beta     70.1181
_cell_angle_gamma    70.1181

_symmetry_Int_Tables_number  71
_chemical_formula_structural  AlVF5
_chemical_formula_sum  AlVF5
_cell_volume  84.93112667354923
_cell_formula_units_Z  1
loop_
  _symmetry_equiv_pos_site_id
 _symmetry_equiv_pos_as_xyz
 1  'x, y, z'
loop_
 _atom_site_type_symbol
 _atom_site_label
 _atom_site_symmetry_multiplicity
 _atom_site_fract_x
 _atom_site_fract_y
 _atom_site_fract_z
 _atom_site_fract_occupancy
 Al  Al1  1  0.50000  0.50000  0.50000  1
 F  F1  1  0.50000  0.79836  0.20164  1
 F  F2  1  0.50000  0.20164  0.79836  1
 F  F3  1  0.73432  0.26568  0.26568  1
 F  F4  1  0.26568  0.73432  0.73432  1
 F  F5  1  -0.00000  0.50000  0.50000  1
 V  V1  1  0.00000  0.00000  0.00000  1
