CIF file written using JARVIS-Tools package.
data_TiH12C2N6F6
_symmetry_space_group_name_H-M  'C2/m'
_cell_length_a       7.4429
_cell_length_b       7.4429
_cell_length_c       5.97798
_cell_angle_alpha    68.7915
_cell_angle_beta     111.209
_cell_angle_gamma    120.189

_symmetry_Int_Tables_number  12
_chemical_formula_structural  TiH12C2N6F6
_chemical_formula_sum  TiH2C2N6F6
_cell_volume  260.1262278545464
_cell_formula_units_Z  1
loop_
  _symmetry_equiv_pos_site_id
 _symmetry_equiv_pos_as_xyz
 1  'x, y, z'
loop_
 _atom_site_type_symbol
 _atom_site_label
 _atom_site_symmetry_multiplicity
 _atom_site_fract_x
 _atom_site_fract_y
 _atom_site_fract_z
 _atom_site_fract_occupancy
 C  C1  1  0.34228  0.65772  0.31083  1
 C  C2  1  0.79253  0.20747  0.85973  1
 F  F1  1  0.89996  0.73838  0.37507  1
 F  F2  1  0.26162  0.10004  0.37507  1
 F  F3  1  0.90686  0.09314  0.40959  1
 F  F4  1  0.22798  0.77202  0.76094  1
 F  F5  1  0.23486  0.12677  0.79545  1
 F  F6  1  0.87323  0.76514  0.79545  1
 H  H1  1  0.52733  0.23652  0.84628  1
 H  H2  1  0.07912  0.47333  0.84341  1
 H  H3  1  0.52667  0.92088  0.84341  1
 H  H4  1  0.08150  0.23564  0.85680  1
 H  H5  1  0.76436  0.91850  0.85680  1
 H  H6  1  0.60749  0.62865  0.32436  1
 H  H7  1  0.37135  0.39251  0.32436  1
 H  H8  1  0.05327  0.62957  0.31360  1
 H  H9  1  0.37043  0.94673  0.31360  1
 H  H10  1  0.76348  0.47267  0.84628  1
 H  H11  1  0.05569  0.39186  0.32715  1
 H  H12  1  0.60814  0.94431  0.32715  1
 N  N1  1  0.44626  0.55374  0.31150  1
 N  N2  1  0.00111  0.31141  0.86277  1
 N  N3  1  0.68857  0.31143  0.85921  1
 N  N4  1  0.44621  0.86631  0.30771  1
 N  N5  1  0.13369  0.55379  0.30771  1
 N  N6  1  0.68859  0.99889  0.86277  1
 Ti  Ti1  1  0.06742  0.93258  0.58526  1
