CIF file written using JARVIS-Tools package.
data_H2W2O7
_symmetry_space_group_name_H-M  'Ima2'
_cell_length_a       7.27371
_cell_length_b       7.32155
_cell_length_c       7.27371
_cell_angle_alpha    59.7822
_cell_angle_beta     60.7783
_cell_angle_gamma    59.7822

_symmetry_Int_Tables_number  46
_chemical_formula_structural  H2W2O7
_chemical_formula_sum  H4W4O4
_cell_volume  274.5586518309782
_cell_formula_units_Z  2
loop_
  _symmetry_equiv_pos_site_id
 _symmetry_equiv_pos_as_xyz
 1  'x, y, z'
loop_
 _atom_site_type_symbol
 _atom_site_label
 _atom_site_symmetry_multiplicity
 _atom_site_fract_x
 _atom_site_fract_y
 _atom_site_fract_z
 _atom_site_fract_occupancy
 H  H1  1  0.01561  0.59286  0.29867  1
 H  H2  1  0.54394  0.18952  0.57702  1
 H  H3  1  0.70133  0.40714  0.98439  1
 H  H4  1  0.42298  0.81048  0.45606  1
 O  O1  1  0.66870  0.08007  0.03983  1
 O  O2  1  0.06117  0.57489  0.68013  1
 O  O3  1  0.01943  0.84153  0.79752  1
 O  O4  1  0.66870  0.71141  0.03983  1
 O  O5  1  0.95721  0.68584  0.17110  1
 O  O6  1  0.06117  0.18381  0.68013  1
 O  O7  1  0.31987  0.81619  0.93883  1
 O  O8  1  0.96017  0.28859  0.33130  1
 O  O9  1  0.31987  0.42511  0.93883  1
 O  O10  1  0.64440  0.09308  0.66945  1
 O  O11  1  0.82890  0.31416  0.04279  1
 O  O12  1  0.33055  0.90692  0.35560  1
 O  O13  1  0.96017  0.91993  0.33130  1
 O  O14  1  0.20248  0.15847  -0.01943  1
 W  W1  1  0.03644  -0.00000  0.96356  1
 W  W2  1  0.49965  0.99489  0.01057  1
 W  W3  1  0.98943  0.00511  0.50035  1
 W  W4  1  0.03644  0.50000  0.96356  1
