CIF file written using JARVIS-Tools package.
data_PrGaO3
_symmetry_space_group_name_H-M  'Pnma'
_cell_length_a       5.50703
_cell_length_b       5.57202
_cell_length_c       7.8174
_cell_angle_alpha    90
_cell_angle_beta     90
_cell_angle_gamma    90

_symmetry_Int_Tables_number  62
_chemical_formula_structural  PrGaO3
_chemical_formula_sum  Pr4Ga4O2
_cell_volume  239.87948701110557
_cell_formula_units_Z  4
loop_
  _symmetry_equiv_pos_site_id
 _symmetry_equiv_pos_as_xyz
 1  'x, y, z'
loop_
 _atom_site_type_symbol
 _atom_site_label
 _atom_site_symmetry_multiplicity
 _atom_site_fract_x
 _atom_site_fract_y
 _atom_site_fract_z
 _atom_site_fract_occupancy
 Ga  Ga1  1  0.50000  0.00000  0.50000  1
 Ga  Ga2  1  0.00000  0.50000  0.50000  1
 Ga  Ga3  1  0.00000  0.50000  0.00000  1
 Ga  Ga4  1  0.50000  0.00000  0.00000  1
 O  O1  1  0.07963  0.48315  0.25000  1
 O  O2  1  0.71341  0.28740  0.45708  1
 O  O3  1  0.42037  0.98315  0.25000  1
 O  O4  1  0.78659  0.78740  0.04292  1
 O  O5  1  0.28659  0.71260  0.95708  1
 O  O6  1  0.21341  0.21260  0.54292  1
 O  O7  1  0.78659  0.78740  0.45708  1
 O  O8  1  0.92037  0.51685  0.75000  1
 O  O9  1  0.71341  0.28740  0.04292  1
 O  O10  1  0.28659  0.71260  0.54292  1
 O  O11  1  0.57963  0.01685  0.75000  1
 O  O12  1  0.21341  0.21260  0.95708  1
 Pr  Pr1  1  0.98993  0.04233  0.25000  1
 Pr  Pr2  1  0.48993  0.45767  0.75000  1
 Pr  Pr3  1  0.51007  0.54233  0.25000  1
 Pr  Pr4  1  0.01007  0.95767  0.75000  1
