CIF file written using JARVIS-Tools package.
data_Li5Nb2V5O12
_symmetry_space_group_name_H-M  'C2'
_cell_length_a       5.0708
_cell_length_b       5.0708
_cell_length_c       10.02
_cell_angle_alpha    85.0832
_cell_angle_beta     94.9169
_cell_angle_gamma    59.0096

_symmetry_Int_Tables_number  5
_chemical_formula_structural  Li5Nb2V5O12
_chemical_formula_sum  Li5Nb2V5O2
_cell_volume  217.49584755321266
_cell_formula_units_Z  1
loop_
  _symmetry_equiv_pos_site_id
 _symmetry_equiv_pos_as_xyz
 1  'x, y, z'
loop_
 _atom_site_type_symbol
 _atom_site_label
 _atom_site_symmetry_multiplicity
 _atom_site_fract_x
 _atom_site_fract_y
 _atom_site_fract_z
 _atom_site_fract_occupancy
 Li  Li1  1  0.16329  0.67858  0.50502  1
 Li  Li2  1  0.31580  0.82593  0.99152  1
 Li  Li3  1  0.67858  0.16329  0.99498  1
 Li  Li4  1  0.82593  0.31580  0.50848  1
 Li  Li5  1  0.92527  0.92527  0.75000  1
 Nb  Nb1  1  0.25127  0.25127  0.75000  1
 Nb  Nb2  1  0.73050  0.73050  0.25000  1
 O  O1  1  0.62936  0.87649  0.87259  1
 O  O2  1  0.70711  0.44910  0.10825  1
 O  O3  1  0.44910  0.70711  0.39175  1
 O  O4  1  0.55105  0.29264  0.62721  1
 O  O5  1  0.29264  0.55105  0.87279  1
 O  O6  1  0.36388  0.14605  0.12622  1
 O  O7  1  0.14605  0.36388  0.37378  1
 O  O8  1  0.04521  0.78139  0.12499  1
 O  O9  1  0.95843  0.19945  0.87553  1
 O  O10  1  0.78139  0.04521  0.37501  1
 O  O11  1  0.87649  0.62936  0.62741  1
 O  O12  1  0.19945  0.95843  0.62447  1
 V  V1  1  0.99754  0.50222  0.98542  1
 V  V2  1  0.08258  0.08258  0.25000  1
 V  V3  1  0.44231  0.44231  0.25000  1
 V  V4  1  0.58457  0.58457  0.75000  1
 V  V5  1  0.50222  0.99754  0.51458  1
