CIF file written using JARVIS-Tools package.
data_Zn2GeSe4
_symmetry_space_group_name_H-M  'I-42m'
_cell_length_a       8.05674
_cell_length_b       10.4787
_cell_length_c       6.70013
_cell_angle_alpha    29.4773
_cell_angle_beta     53.0414
_cell_angle_gamma    39.7475

_symmetry_Int_Tables_number  121
_chemical_formula_structural  Zn2GeSe4
_chemical_formula_sum  Zn2GeSe4
_cell_volume  173.75588867571588
_cell_formula_units_Z  1
loop_
  _symmetry_equiv_pos_site_id
 _symmetry_equiv_pos_as_xyz
 1  'x, y, z'
loop_
 _atom_site_type_symbol
 _atom_site_label
 _atom_site_symmetry_multiplicity
 _atom_site_fract_x
 _atom_site_fract_y
 _atom_site_fract_z
 _atom_site_fract_occupancy
 Ge  Ge1  1  0.25000  0.50000  -0.00000  1
 Se  Se1  1  0.39224  0.50000  0.22994  1
 Se  Se2  1  0.10775  0.01444  0.25561  1
 Se  Se3  1  0.87781  0.50000  0.22994  1
 Se  Se4  1  0.62220  0.98555  0.28450  1
 Zn  Zn1  1  -0.00000  0.00000  0.00000  1
 Zn  Zn2  1  0.50000  0.00000  0.00000  1
