CIF file written using JARVIS-Tools package.
data_FeHO2
_symmetry_space_group_name_H-M  'Pnma'
_cell_length_a       2.86348
_cell_length_b       4.35683
_cell_length_c       9.57198
_cell_angle_alpha    90
_cell_angle_beta     90
_cell_angle_gamma    90

_symmetry_Int_Tables_number  62
_chemical_formula_structural  FeHO2
_chemical_formula_sum  Fe4H4O8
_cell_volume  119.41688972422044
_cell_formula_units_Z  4
loop_
  _symmetry_equiv_pos_site_id
 _symmetry_equiv_pos_as_xyz
 1  'x, y, z'
loop_
 _atom_site_type_symbol
 _atom_site_label
 _atom_site_symmetry_multiplicity
 _atom_site_fract_x
 _atom_site_fract_y
 _atom_site_fract_z
 _atom_site_fract_occupancy
 Fe  Fe1  1  0.75000  0.53695  0.64138  1
 Fe  Fe2  1  0.25000  0.46305  0.35862  1
 Fe  Fe3  1  0.75000  0.96305  0.14138  1
 Fe  Fe4  1  0.25000  0.03695  0.85862  1
 H  H1  1  0.75000  0.57364  0.90815  1
 H  H2  1  0.25000  0.07364  0.59185  1
 H  H3  1  0.25000  0.42636  0.09185  1
 H  H4  1  0.75000  0.92636  0.40815  1
 O  O1  1  0.75000  0.79187  0.94578  1
 O  O2  1  0.25000  0.71000  0.19922  1
 O  O3  1  0.75000  0.21000  0.30078  1
 O  O4  1  0.25000  0.79000  0.69922  1
 O  O5  1  0.25000  0.20813  0.05422  1
 O  O6  1  0.75000  0.70813  0.44578  1
 O  O7  1  0.25000  0.29187  0.55422  1
 O  O8  1  0.75000  0.29000  0.80078  1
