CIF file written using JARVIS-Tools package.
data_Li3Ti2Mn3O10
_symmetry_space_group_name_H-M  'P-1'
_cell_length_a       4.9852
_cell_length_b       5.20428
_cell_length_c       7.69018
_cell_angle_alpha    75.7183
_cell_angle_beta     75.4421
_cell_angle_gamma    81.2489

_symmetry_Int_Tables_number  2
_chemical_formula_structural  Li3Ti2Mn3O10
_chemical_formula_sum  Li3Ti2Mn3O0
_cell_volume  186.2768175726803
_cell_formula_units_Z  1
loop_
  _symmetry_equiv_pos_site_id
 _symmetry_equiv_pos_as_xyz
 1  'x, y, z'
loop_
 _atom_site_type_symbol
 _atom_site_label
 _atom_site_symmetry_multiplicity
 _atom_site_fract_x
 _atom_site_fract_y
 _atom_site_fract_z
 _atom_site_fract_occupancy
 Li  Li1  1  0.50863  0.76116  0.40174  1
 Li  Li2  1  0.00000  0.50000  0.50000  1
 Li  Li3  1  0.49137  0.23884  0.59826  1
 Mn  Mn1  1  0.50000  0.00000  0.00000  1
 Mn  Mn2  1  0.99072  0.31417  0.89313  1
 Mn  Mn3  1  0.00928  0.68583  0.10687  1
 O  O1  1  0.19233  0.34176  0.07266  1
 O  O2  1  0.80767  0.65824  0.92734  1
 O  O3  1  0.78638  0.87487  0.52638  1
 O  O4  1  0.24025  0.00252  0.84716  1
 O  O5  1  0.23275  0.56774  0.64569  1
 O  O6  1  0.21362  0.12513  0.47362  1
 O  O7  1  0.74578  0.19223  0.78498  1
 O  O8  1  0.25422  0.80777  0.21502  1
 O  O9  1  0.76725  0.43226  0.35431  1
 O  O10  1  0.75975  -0.00252  0.15284  1
 Ti  Ti1  1  0.96842  0.12157  0.31605  1
 Ti  Ti2  1  0.03158  0.87843  0.68395  1
