CIF file written using JARVIS-Tools package.
data_AgSbSe2
_symmetry_space_group_name_H-M  'C2/c'
_cell_length_a       8.21325
_cell_length_b       10.8442
_cell_length_c       7.13189
_cell_angle_alpha    29.2944
_cell_angle_beta     54.8403
_cell_angle_gamma    40.7685

_symmetry_Int_Tables_number  15
_chemical_formula_structural  AgSbSe2
_chemical_formula_sum  Ag2Sb2Se4
_cell_volume  195.7061657706533
_cell_formula_units_Z  2
loop_
  _symmetry_equiv_pos_site_id
 _symmetry_equiv_pos_as_xyz
 1  'x, y, z'
loop_
 _atom_site_type_symbol
 _atom_site_label
 _atom_site_symmetry_multiplicity
 _atom_site_fract_x
 _atom_site_fract_y
 _atom_site_fract_z
 _atom_site_fract_occupancy
 Ag  Ag1  1  0.50526  -0.00022  0.00017  1
 Ag  Ag2  1  0.24474  0.50022  -0.00017  1
 Sb  Sb1  1  0.00673  -0.00006  0.00006  1
 Sb  Sb2  1  0.74327  0.50006  -0.00006  1
 Se  Se1  1  0.27602  0.97842  0.52102  1
 Se  Se2  1  0.75380  0.02159  0.47896  1
 Se  Se3  1  0.47398  0.52158  0.47898  1
 Se  Se4  1  0.99620  0.47841  0.52104  1
