CIF file written using JARVIS-Tools package.
data_NaLuO2
_symmetry_space_group_name_H-M  'I4_1/amd'
_cell_length_a       4.52192
_cell_length_b       4.52192
_cell_length_c       5.89503
_cell_angle_alpha    67.4471
_cell_angle_beta     67.4471
_cell_angle_gamma    90.0001

_symmetry_Int_Tables_number  141
_chemical_formula_structural  NaLuO2
_chemical_formula_sum  Na2Lu2O4
_cell_volume  101.26803449344666
_cell_formula_units_Z  2
loop_
  _symmetry_equiv_pos_site_id
 _symmetry_equiv_pos_as_xyz
 1  'x, y, z'
loop_
 _atom_site_type_symbol
 _atom_site_label
 _atom_site_symmetry_multiplicity
 _atom_site_fract_x
 _atom_site_fract_y
 _atom_site_fract_z
 _atom_site_fract_occupancy
 Lu  Lu1  1  0.75000  0.25000  0.50000  1
 Lu  Lu2  1  0.00000  0.00000  0.00000  1
 Na  Na1  1  0.25000  0.75000  0.50000  1
 Na  Na2  1  0.50000  0.50000  0.00000  1
 O  O1  1  0.52627  0.02627  0.94746  1
 O  O2  1  0.22373  0.22373  0.55254  1
 O  O3  1  0.77627  0.77627  0.44746  1
 O  O4  1  0.97373  0.47373  0.05254  1
