CIF file written using JARVIS-Tools package.
data_PbCl2O6
_symmetry_space_group_name_H-M  'Fdd2'
_cell_length_a       6.97559
_cell_length_b       6.9756
_cell_length_c       7.34562
_cell_angle_alpha    106.08
_cell_angle_beta     106.08
_cell_angle_gamma    114.624

_symmetry_Int_Tables_number  43
_chemical_formula_structural  PbCl2O6
_chemical_formula_sum  Pb2Cl4O2
_cell_volume  278.940151846161
_cell_formula_units_Z  2
loop_
  _symmetry_equiv_pos_site_id
 _symmetry_equiv_pos_as_xyz
 1  'x, y, z'
loop_
 _atom_site_type_symbol
 _atom_site_label
 _atom_site_symmetry_multiplicity
 _atom_site_fract_x
 _atom_site_fract_y
 _atom_site_fract_z
 _atom_site_fract_occupancy
 Cl  Cl1  1  0.61779  0.22308  0.95507  1
 Cl  Cl2  1  0.26802  0.66272  0.04493  1
 Cl  Cl3  1  0.97308  0.86779  0.45507  1
 Cl  Cl4  1  0.41272  0.51802  0.54493  1
 O  O1  1  0.36892  0.28683  0.39218  1
 O  O2  1  0.87154  0.61872  0.41626  1
 O  O3  1  0.20528  0.45246  0.08374  1
 O  O4  1  0.36872  0.12154  0.91626  1
 O  O5  1  0.33937  0.86365  0.24773  1
 O  O6  1  0.61592  0.09164  0.75227  1
 O  O7  1  0.89464  0.97674  0.60782  1
 O  O8  1  0.20246  0.45528  0.58374  1
 O  O9  1  0.03683  0.61892  0.89218  1
 O  O10  1  0.84164  0.86592  0.25227  1
 O  O11  1  0.61365  0.58937  0.74773  1
 O  O12  1  0.72674  0.14464  0.10782  1
 Pb  Pb1  1  0.74854  0.24854  0.50000  1
 Pb  Pb2  1  -0.00146  -0.00146  0.00000  1
