CIF file written using JARVIS-Tools package.
data_Na2CuF4
_symmetry_space_group_name_H-M  'P2_1/c'
_cell_length_a       3.30984
_cell_length_b       9.27609
_cell_length_c       5.64197
_cell_angle_alpha    90
_cell_angle_beta     92.3925
_cell_angle_gamma    90

_symmetry_Int_Tables_number  14
_chemical_formula_structural  Na2CuF4
_chemical_formula_sum  Na4Cu2F8
_cell_volume  173.07095226561603
_cell_formula_units_Z  2
loop_
  _symmetry_equiv_pos_site_id
 _symmetry_equiv_pos_as_xyz
 1  'x, y, z'
loop_
 _atom_site_type_symbol
 _atom_site_label
 _atom_site_symmetry_multiplicity
 _atom_site_fract_x
 _atom_site_fract_y
 _atom_site_fract_z
 _atom_site_fract_occupancy
 Cu  Cu1  1  0.00000  0.00000  0.00000  1
 Cu  Cu2  1  0.00000  0.50000  0.50000  1
 F  F1  1  0.01203  0.69294  0.62446  1
 F  F2  1  0.98797  0.19294  0.87554  1
 F  F3  1  0.98797  0.30706  0.37554  1
 F  F4  1  0.01203  0.80706  0.12446  1
 F  F5  1  0.57981  0.94985  0.76180  1
 F  F6  1  0.42019  0.44985  0.73820  1
 F  F7  1  0.57981  0.55015  0.26180  1
 F  F8  1  0.42019  0.05015  0.23820  1
 Na  Na1  1  0.51685  0.81759  0.41578  1
 Na  Na2  1  0.48315  0.31759  0.08422  1
 Na  Na3  1  0.51685  0.68241  0.91578  1
 Na  Na4  1  0.48315  0.18241  0.58422  1
