CIF file written using JARVIS-Tools package.
data_CdSO3
_symmetry_space_group_name_H-M  'P2_1/c'
_cell_length_a       4.47973
_cell_length_b       8.76001
_cell_length_c       7.24152
_cell_angle_alpha    90
_cell_angle_beta     93.5026
_cell_angle_gamma    90

_symmetry_Int_Tables_number  14
_chemical_formula_structural  CdSO3
_chemical_formula_sum  Cd4S4O2
_cell_volume  283.64511222915394
_cell_formula_units_Z  4
loop_
  _symmetry_equiv_pos_site_id
 _symmetry_equiv_pos_as_xyz
 1  'x, y, z'
loop_
 _atom_site_type_symbol
 _atom_site_label
 _atom_site_symmetry_multiplicity
 _atom_site_fract_x
 _atom_site_fract_y
 _atom_site_fract_z
 _atom_site_fract_occupancy
 Cd  Cd1  1  0.76655  0.70701  0.51608  1
 Cd  Cd2  1  0.23345  0.20701  0.98392  1
 Cd  Cd3  1  0.23345  0.29299  0.48392  1
 Cd  Cd4  1  0.76655  0.79299  0.01608  1
 O  O1  1  0.70748  0.90043  0.73014  1
 O  O2  1  0.71149  0.13253  0.91199  1
 O  O3  1  0.29252  0.09957  0.26986  1
 O  O4  1  0.70748  0.59957  0.23014  1
 O  O5  1  0.29252  0.40043  0.76986  1
 O  O6  1  0.07362  0.10393  0.68459  1
 O  O7  1  0.07362  0.39607  0.18459  1
 O  O8  1  0.28851  0.86747  0.08801  1
 O  O9  1  0.92638  0.60393  0.81541  1
 O  O10  1  0.71149  0.36747  0.41199  1
 O  O11  1  0.92638  0.89607  0.31541  1
 O  O12  1  0.28851  0.63253  0.58801  1
 S  S1  1  0.26101  0.92475  0.29025  1
 S  S2  1  0.73899  0.42475  0.20975  1
 S  S3  1  0.73899  0.07525  0.70975  1
 S  S4  1  0.26101  0.57525  0.79025  1
