CIF file written using JARVIS-Tools package.
data_TeMoWSe2S
_symmetry_space_group_name_H-M  'Cm'
_cell_length_a       3.34556
_cell_length_b       3.34554
_cell_length_c       33.6247
_cell_angle_alpha    89.9735
_cell_angle_beta     90.0274
_cell_angle_gamma    120

_symmetry_Int_Tables_number  8
_chemical_formula_structural  TeMoWSe2S
_chemical_formula_sum  Te2Mo2W2Se4S2
_cell_volume  325.9296451510121
_cell_formula_units_Z  2
loop_
  _symmetry_equiv_pos_site_id
 _symmetry_equiv_pos_as_xyz
 1  'x, y, z'
loop_
 _atom_site_type_symbol
 _atom_site_label
 _atom_site_symmetry_multiplicity
 _atom_site_fract_x
 _atom_site_fract_y
 _atom_site_fract_z
 _atom_site_fract_occupancy
 Mo  Mo1  1  0.33175  0.66429  0.08135  1
 Mo  Mo2  1  0.33315  0.66598  0.47150  1
 S  S1  1  0.33381  0.66739  0.32812  1
 S  S2  1  0.33365  0.66802  0.23739  1
 Se  Se1  1  0.33491  0.66853  0.71706  1
 Se  Se2  1  0.66634  0.33296  0.42194  1
 Se  Se3  1  0.66667  0.33259  0.52107  1
 Se  Se4  1  0.33451  0.66878  0.61743  1
 Te  Te1  1  0.66491  0.33117  0.02487  1
 Te  Te2  1  0.66529  0.33073  0.13797  1
 W  W1  1  0.66704  0.33434  0.28276  1
 W  W2  1  0.66799  0.33524  0.66728  1
