CIF file written using JARVIS-Tools package.
data_Sr3NiIrO6
_symmetry_space_group_name_H-M  'R-3c'
_cell_length_a       6.69944
_cell_length_b       6.69945
_cell_length_c       6.69944
_cell_angle_alpha    91.4989
_cell_angle_beta     91.499
_cell_angle_gamma    91.4989

_symmetry_Int_Tables_number  167
_chemical_formula_structural  Sr3NiIrO6
_chemical_formula_sum  Sr6Ni2Ir2O2
_cell_volume  300.37392152104076
_cell_formula_units_Z  2
loop_
  _symmetry_equiv_pos_site_id
 _symmetry_equiv_pos_as_xyz
 1  'x, y, z'
loop_
 _atom_site_type_symbol
 _atom_site_label
 _atom_site_symmetry_multiplicity
 _atom_site_fract_x
 _atom_site_fract_y
 _atom_site_fract_z
 _atom_site_fract_occupancy
 Ir  Ir1  1  0.00000  0.00000  0.00000  1
 Ir  Ir2  1  0.50000  0.50000  0.50000  1
 Ni  Ni1  1  0.25000  0.25000  0.25000  1
 Ni  Ni2  1  0.75000  0.75000  0.75000  1
 O  O1  1  0.09334  0.28722  0.96306  1
 O  O2  1  0.59334  0.46306  0.78722  1
 O  O3  1  0.46306  0.78722  0.59334  1
 O  O4  1  0.03694  0.90666  0.71278  1
 O  O5  1  0.90666  0.71278  0.03694  1
 O  O6  1  0.71278  0.03694  0.90666  1
 O  O7  1  0.21278  0.40666  0.53694  1
 O  O8  1  0.40666  0.53694  0.21278  1
 O  O9  1  0.28722  0.96306  0.09334  1
 O  O10  1  0.78722  0.59334  0.46306  1
 O  O11  1  0.96306  0.09334  0.28722  1
 O  O12  1  0.53694  0.21278  0.40666  1
 Sr  Sr1  1  0.75000  0.38594  0.11406  1
 Sr  Sr2  1  0.61406  0.88594  0.25000  1
 Sr  Sr3  1  0.11406  0.75000  0.38594  1
 Sr  Sr4  1  0.25000  0.61406  0.88594  1
 Sr  Sr5  1  0.88594  0.25000  0.61406  1
 Sr  Sr6  1  0.38594  0.11406  0.75000  1
