CIF file written using JARVIS-Tools package.
data_Na3AsSe3
_symmetry_space_group_name_H-M  'P2_13'
_cell_length_a       8.87681
_cell_length_b       8.87681
_cell_length_c       8.87681
_cell_angle_alpha    90
_cell_angle_beta     90
_cell_angle_gamma    90

_symmetry_Int_Tables_number  198
_chemical_formula_structural  Na3AsSe3
_chemical_formula_sum  Na2As4Se2
_cell_volume  699.4721199348245
_cell_formula_units_Z  4
loop_
  _symmetry_equiv_pos_site_id
 _symmetry_equiv_pos_as_xyz
 1  'x, y, z'
loop_
 _atom_site_type_symbol
 _atom_site_label
 _atom_site_symmetry_multiplicity
 _atom_site_fract_x
 _atom_site_fract_y
 _atom_site_fract_z
 _atom_site_fract_occupancy
 As  As1  1  0.96946  0.53054  0.46946  1
 As  As2  1  0.03054  0.03054  0.03054  1
 As  As3  1  0.46946  0.96946  0.53054  1
 As  As4  1  0.53054  0.46946  0.96946  1
 Na  Na1  1  0.58286  0.58286  0.58286  1
 Na  Na2  1  0.91714  0.41714  0.08286  1
 Na  Na3  1  0.08286  0.91714  0.41714  1
 Na  Na4  1  0.41714  0.08286  0.91714  1
 Na  Na5  1  0.82317  0.17683  0.67683  1
 Na  Na6  1  0.68628  0.18628  0.31372  1
 Na  Na7  1  0.31372  0.68628  0.18628  1
 Na  Na8  1  0.18628  0.31372  0.68628  1
 Na  Na9  1  0.32317  0.32317  0.32317  1
 Na  Na10  1  0.17683  0.67683  0.82317  1
 Na  Na11  1  0.67683  0.82317  0.17683  1
 Na  Na12  1  0.81372  0.81372  0.81372  1
 Se  Se1  1  0.61273  0.50093  0.23060  1
 Se  Se2  1  0.88727  0.49907  0.73060  1
 Se  Se3  1  0.00093  0.26940  0.38727  1
 Se  Se4  1  0.38727  0.00093  0.26940  1
 Se  Se5  1  -0.00093  0.76940  0.11273  1
 Se  Se6  1  0.73060  0.88727  0.49907  1
 Se  Se7  1  0.11273  -0.00093  0.76940  1
 Se  Se8  1  0.76940  0.11273  -0.00093  1
 Se  Se9  1  0.26940  0.38727  0.00093  1
 Se  Se10  1  0.50093  0.23060  0.61273  1
 Se  Se11  1  0.49907  0.73060  0.88727  1
 Se  Se12  1  0.23060  0.61273  0.50093  1
