CIF file written using JARVIS-Tools package.
data_ZnSn2N2
_symmetry_space_group_name_H-M  'C2'
_cell_length_a       3.38591
_cell_length_b       3.38604
_cell_length_c       7.72828
_cell_angle_alpha    84.7764
_cell_angle_beta     84.7828
_cell_angle_gamma    91.3199

_symmetry_Int_Tables_number  5
_chemical_formula_structural  ZnSn2N2
_chemical_formula_sum  ZnSn2N2
_cell_volume  87.82609280816457
_cell_formula_units_Z  1
loop_
  _symmetry_equiv_pos_site_id
 _symmetry_equiv_pos_as_xyz
 1  'x, y, z'
loop_
 _atom_site_type_symbol
 _atom_site_label
 _atom_site_symmetry_multiplicity
 _atom_site_fract_x
 _atom_site_fract_y
 _atom_site_fract_z
 _atom_site_fract_occupancy
 N  N1  1  0.05133  0.51192  0.59742  1
 N  N2  1  0.48813  0.94859  0.90257  1
 Sn  Sn1  1  0.35757  0.41103  0.06691  1
 Sn  Sn2  1  0.58884  0.64257  0.43309  1
 Zn  Zn1  1  0.01412  0.98589  0.75000  1
