CIF file written using JARVIS-Tools package.
data_Pr2S2O
_symmetry_space_group_name_H-M  'P2_1/c'
_cell_length_a       7.14304
_cell_length_b       7.25465
_cell_length_c       8.61963
_cell_angle_alpha    90
_cell_angle_beta     98.6422
_cell_angle_gamma    90

_symmetry_Int_Tables_number  14
_chemical_formula_structural  Pr2S2O
_chemical_formula_sum  Pr8S8O4
_cell_volume  441.6000843064035
_cell_formula_units_Z  4
loop_
  _symmetry_equiv_pos_site_id
 _symmetry_equiv_pos_as_xyz
 1  'x, y, z'
loop_
 _atom_site_type_symbol
 _atom_site_label
 _atom_site_symmetry_multiplicity
 _atom_site_fract_x
 _atom_site_fract_y
 _atom_site_fract_z
 _atom_site_fract_occupancy
 O  O1  1  0.14931  0.41169  0.61749  1
 O  O2  1  0.85069  0.58831  0.38251  1
 O  O3  1  0.64931  0.08831  0.61749  1
 O  O4  1  0.35069  0.91169  0.38251  1
 Pr  Pr1  1  0.24912  0.55664  0.86324  1
 Pr  Pr2  1  0.74912  0.94336  0.86324  1
 Pr  Pr3  1  0.75088  0.44336  0.13676  1
 Pr  Pr4  1  0.81231  0.36640  0.58243  1
 Pr  Pr5  1  0.18769  0.63360  0.41757  1
 Pr  Pr6  1  0.68769  0.86640  0.41757  1
 Pr  Pr7  1  0.25088  0.05664  0.13676  1
 Pr  Pr8  1  0.31231  0.13360  0.58243  1
 S  S1  1  0.47212  0.22450  0.92113  1
 S  S2  1  0.06130  0.85418  0.67599  1
 S  S3  1  0.56130  0.64582  0.67599  1
 S  S4  1  0.02788  0.72450  0.07887  1
 S  S5  1  0.93870  0.14582  0.32401  1
 S  S6  1  0.52788  0.77550  0.07887  1
 S  S7  1  0.43870  0.35418  0.32401  1
 S  S8  1  0.97212  0.27550  0.92113  1
