CIF file written using JARVIS-Tools package.
data_VO2
_symmetry_space_group_name_H-M  'Pnma'
_cell_length_a       2.85986
_cell_length_b       4.82482
_cell_length_c       9.28282
_cell_angle_alpha    90
_cell_angle_beta     90
_cell_angle_gamma    90

_symmetry_Int_Tables_number  62
_chemical_formula_structural  VO2
_chemical_formula_sum  V4O8
_cell_volume  128.0873087088412
_cell_formula_units_Z  4
loop_
  _symmetry_equiv_pos_site_id
 _symmetry_equiv_pos_as_xyz
 1  'x, y, z'
loop_
 _atom_site_type_symbol
 _atom_site_label
 _atom_site_symmetry_multiplicity
 _atom_site_fract_x
 _atom_site_fract_y
 _atom_site_fract_z
 _atom_site_fract_occupancy
 O  O1  1  0.25000  0.71645  0.48284  1
 O  O2  1  0.75000  0.28355  0.51716  1
 O  O3  1  0.75000  0.21645  0.01716  1
 O  O4  1  0.25000  0.78355  0.98284  1
 O  O5  1  0.25000  0.10561  0.76419  1
 O  O6  1  0.75000  0.89439  0.23581  1
 O  O7  1  0.25000  0.39439  0.26419  1
 O  O8  1  0.75000  0.60561  0.73581  1
 V  V1  1  0.25000  0.39770  0.63592  1
 V  V2  1  0.75000  0.60230  0.36408  1
 V  V3  1  0.75000  0.89770  0.86408  1
 V  V4  1  0.25000  0.10230  0.13592  1
