CIF file written using JARVIS-Tools package.
data_Fe3O4F2
_symmetry_space_group_name_H-M  'C2/m'
_cell_length_a       7.37754
_cell_length_b       5.46066
_cell_length_c       5.46066
_cell_angle_alpha    69.1532
_cell_angle_beta     68.3265
_cell_angle_gamma    68.3265

_symmetry_Int_Tables_number  12
_chemical_formula_structural  Fe3O4F2
_chemical_formula_sum  Fe6O8F4
_cell_volume  183.7470393192067
_cell_formula_units_Z  2
loop_
  _symmetry_equiv_pos_site_id
 _symmetry_equiv_pos_as_xyz
 1  'x, y, z'
loop_
 _atom_site_type_symbol
 _atom_site_label
 _atom_site_symmetry_multiplicity
 _atom_site_fract_x
 _atom_site_fract_y
 _atom_site_fract_z
 _atom_site_fract_occupancy
 F  F1  1  0.70094  0.09537  0.09537  1
 F  F2  1  0.30720  0.88082  0.88082  1
 F  F3  1  0.02613  0.78585  0.78585  1
 F  F4  1  0.63239  0.57129  0.57129  1
 Fe  Fe1  1  0.00690  0.02255  0.02255  1
 Fe  Fe2  1  0.83533  0.67037  0.67037  1
 Fe  Fe3  1  0.16667  0.33333  0.33333  1
 Fe  Fe4  1  0.32644  0.64412  0.64412  1
 Fe  Fe5  1  0.66667  0.33333  0.33333  1
 Fe  Fe6  1  0.49800  0.99629  0.99629  1
 O  O1  1  0.00509  0.69998  0.31411  1
 O  O2  1  0.00509  0.31411  0.69998  1
 O  O3  1  0.32824  0.96669  0.35256  1
 O  O4  1  0.95678  0.24265  0.24265  1
 O  O5  1  0.32824  0.35256  0.96669  1
 O  O6  1  0.66667  0.03267  0.63400  1
 O  O7  1  0.37655  0.42402  0.42402  1
 O  O8  1  0.66667  0.63400  0.03267  1
