CIF file written using JARVIS-Tools package.
data_Li3Mn3OF7
_symmetry_space_group_name_H-M  'R3m'
_cell_length_a       6.08264
_cell_length_b       6.08264
_cell_length_c       6.08264
_cell_angle_alpha    61.8606
_cell_angle_beta     61.8606
_cell_angle_gamma    61.8606

_symmetry_Int_Tables_number  160
_chemical_formula_structural  Li3Mn3OF7
_chemical_formula_sum  Li3Mn3OF7
_cell_volume  165.76330003629226
_cell_formula_units_Z  1
loop_
  _symmetry_equiv_pos_site_id
 _symmetry_equiv_pos_as_xyz
 1  'x, y, z'
loop_
 _atom_site_type_symbol
 _atom_site_label
 _atom_site_symmetry_multiplicity
 _atom_site_fract_x
 _atom_site_fract_y
 _atom_site_fract_z
 _atom_site_fract_occupancy
 F  F1  1  0.86526  0.38573  0.38573  1
 F  F2  1  0.38573  0.86526  0.38573  1
 F  F3  1  0.38573  0.38573  0.86526  1
 F  F4  1  0.86603  0.86603  0.38807  1
 F  F5  1  0.86603  0.38807  0.86603  1
 F  F6  1  0.86626  0.86626  0.86626  1
 F  F7  1  0.38807  0.86603  0.86603  1
 Li  Li1  1  0.99923  0.99923  0.99923  1
 Li  Li2  1  0.25794  0.25794  0.25794  1
 Li  Li3  1  0.62250  0.62250  0.62250  1
 Mn  Mn1  1  0.61391  0.13301  0.61391  1
 Mn  Mn2  1  0.61391  0.61391  0.13301  1
 Mn  Mn3  1  0.13301  0.61391  0.61391  1
 O  O1  1  0.38640  0.38640  0.38640  1
