CIF file written using JARVIS-Tools package.
data_CdH2O2
_symmetry_space_group_name_H-M  'Cm'
_cell_length_a       3.45676
_cell_length_b       5.74986
_cell_length_c       6.14466
_cell_angle_alpha    118.42
_cell_angle_beta     107.14
_cell_angle_gamma    88.3563

_symmetry_Int_Tables_number  8
_chemical_formula_structural  CdH2O2
_chemical_formula_sum  Cd2H4O4
_cell_volume  101.73277568368246
_cell_formula_units_Z  2
loop_
  _symmetry_equiv_pos_site_id
 _symmetry_equiv_pos_as_xyz
 1  'x, y, z'
loop_
 _atom_site_type_symbol
 _atom_site_label
 _atom_site_symmetry_multiplicity
 _atom_site_fract_x
 _atom_site_fract_y
 _atom_site_fract_z
 _atom_site_fract_occupancy
 Cd  Cd1  1  0.84979  0.87541  0.69049  1
 Cd  Cd2  1  0.15927  0.18492  0.30950  1
 H  H1  1  0.14941  0.65147  0.27385  1
 H  H2  1  0.87553  0.37762  0.72614  1
 H  H3  1  0.35815  0.70534  0.00000  1
 H  H4  1  0.50589  0.31023  -0.00000  1
 O  O1  1  0.79100  0.19804  0.56660  1
 O  O2  1  0.22442  0.63144  0.43340  1
 O  O3  1  0.07404  0.71265  0.00001  1
 O  O4  1  0.51550  0.13988  -0.00000  1
