CIF file written using JARVIS-Tools package.
data_ICl3
_symmetry_space_group_name_H-M  'P-1'
_cell_length_a       5.43549
_cell_length_b       5.72625
_cell_length_c       8.35086
_cell_angle_alpha    71.9718
_cell_angle_beta     77.4422
_cell_angle_gamma    80.8641

_symmetry_Int_Tables_number  2
_chemical_formula_structural  ICl3
_chemical_formula_sum  I2Cl6
_cell_volume  240.07152941061733
_cell_formula_units_Z  2
loop_
  _symmetry_equiv_pos_site_id
 _symmetry_equiv_pos_as_xyz
 1  'x, y, z'
loop_
 _atom_site_type_symbol
 _atom_site_label
 _atom_site_symmetry_multiplicity
 _atom_site_fract_x
 _atom_site_fract_y
 _atom_site_fract_z
 _atom_site_fract_occupancy
 Cl  Cl1  1  0.46065  0.27697  0.20617  1
 Cl  Cl2  1  0.53935  0.72303  0.79383  1
 Cl  Cl3  1  0.87035  0.70631  0.13908  1
 Cl  Cl4  1  0.12965  0.29369  0.86092  1
 Cl  Cl5  1  0.21645  0.72198  0.46503  1
 Cl  Cl6  1  0.78355  0.27802  0.53497  1
 I  I1  1  0.81780  -0.00063  0.81240  1
 I  I2  1  0.18220  0.00063  0.18760  1
