CIF file written using JARVIS-Tools package.
data_Sc3CoC4
_symmetry_space_group_name_H-M  'Immm'
_cell_length_a       3.42265
_cell_length_b       4.34103
_cell_length_c       6.59523
_cell_angle_alpha    109.214
_cell_angle_beta     105.039
_cell_angle_gamma    89.9999

_symmetry_Int_Tables_number  71
_chemical_formula_structural  Sc3CoC4
_chemical_formula_sum  Sc3CoC4
_cell_volume  88.96991044104482
_cell_formula_units_Z  1
loop_
  _symmetry_equiv_pos_site_id
 _symmetry_equiv_pos_as_xyz
 1  'x, y, z'
loop_
 _atom_site_type_symbol
 _atom_site_label
 _atom_site_symmetry_multiplicity
 _atom_site_fract_x
 _atom_site_fract_y
 _atom_site_fract_z
 _atom_site_fract_occupancy
 C  C1  1  0.37595  0.20988  0.75190  1
 C  C2  1  0.62405  0.79012  0.24810  1
 C  C3  1  0.62405  0.45798  0.24810  1
 C  C4  1  0.37595  0.54202  0.75190  1
 Co  Co1  1  0.50000  0.00000  -0.00000  1
 Sc  Sc1  1  0.00000  0.50000  0.00000  1
 Sc  Sc2  1  0.18764  0.18764  0.37528  1
 Sc  Sc3  1  0.81236  0.81236  0.62472  1
