CIF file written using JARVIS-Tools package.
data_V4NiS8
_symmetry_space_group_name_H-M  'P-1'
_cell_length_a       6.40902
_cell_length_b       6.49937
_cell_length_c       6.45341
_cell_angle_alpha    104.091
_cell_angle_beta     105.059
_cell_angle_gamma    117.976

_symmetry_Int_Tables_number  2
_chemical_formula_structural  V4NiS8
_chemical_formula_sum  V4NiS8
_cell_volume  207.1484844606664
_cell_formula_units_Z  1
loop_
  _symmetry_equiv_pos_site_id
 _symmetry_equiv_pos_as_xyz
 1  'x, y, z'
loop_
 _atom_site_type_symbol
 _atom_site_label
 _atom_site_symmetry_multiplicity
 _atom_site_fract_x
 _atom_site_fract_y
 _atom_site_fract_z
 _atom_site_fract_occupancy
 Ni  Ni1  1  0.00046  -0.00004  0.99949  1
 S  S1  1  0.69733  0.97397  0.66835  1
 S  S2  1  0.30354  0.02594  0.33063  1
 S  S3  1  0.22629  0.44423  0.66730  1
 S  S4  1  0.77456  0.55566  0.33165  1
 S  S5  1  0.71030  0.96958  0.17073  1
 S  S6  1  0.77701  0.54991  0.82815  1
 S  S7  1  0.22386  0.45002  0.17082  1
 S  S8  1  0.29058  0.03034  0.82824  1
 V  V1  1  0.79250  0.29576  0.51407  1
 V  V2  1  0.20835  0.70415  0.48490  1
 V  V3  1  0.22359  0.70920  0.97671  1
 V  V4  1  0.77730  0.29071  0.02225  1
