CIF file written using JARVIS-Tools package.
data_Y2Th5O13
_symmetry_space_group_name_H-M  'R3m'
_cell_length_a       3.92292
_cell_length_b       3.92292
_cell_length_c       22.7593
_cell_angle_alpha    94.944
_cell_angle_beta     90
_cell_angle_gamma    120

_symmetry_Int_Tables_number  160
_chemical_formula_structural  Y2Th5O13
_chemical_formula_sum  Y2Th5O3
_cell_volume  301.81830356048215
_cell_formula_units_Z  1
loop_
  _symmetry_equiv_pos_site_id
 _symmetry_equiv_pos_as_xyz
 1  'x, y, z'
loop_
 _atom_site_type_symbol
 _atom_site_label
 _atom_site_symmetry_multiplicity
 _atom_site_fract_x
 _atom_site_fract_y
 _atom_site_fract_z
 _atom_site_fract_occupancy
 O  O1  1  0.53638  0.07275  0.60913  1
 O  O2  1  0.39131  0.78262  0.17393  1
 O  O3  1  0.03065  0.06129  0.09194  1
 O  O4  1  0.32688  0.65376  0.98064  1
 O  O5  1  0.46351  0.92702  0.39052  1
 O  O6  1  0.74848  0.49696  0.24544  1
 O  O7  1  0.10612  0.21225  0.31837  1
 O  O8  1  0.17857  0.35714  0.53572  1
 O  O9  1  0.25155  0.50310  0.75465  1
 O  O10  1  0.96574  0.93148  0.89722  1
 O  O11  1  0.89370  0.78740  0.68110  1
 O  O12  1  0.60857  0.21714  0.82571  1
 O  O13  1  0.82129  0.64258  0.46387  1
 Th  Th1  1  0.57186  0.14372  0.71558  1
 Th  Th2  1  0.28680  0.57361  0.86041  1
 Th  Th3  1  0.85674  0.71348  0.57022  1
 Th  Th4  1  0.14165  0.28330  0.42495  1
 Th  Th5  1  0.42649  0.85297  0.27946  1
 Y  Y1  1  0.71541  0.43082  0.14623  1
 Y  Y2  1  0.99973  0.99946  0.99920  1
