CIF file written using JARVIS-Tools package.
data_Sr2SnO4
_symmetry_space_group_name_H-M  'I4/mmm'
_cell_length_a       4.09163
_cell_length_b       4.09162
_cell_length_c       6.97322
_cell_angle_alpha    107.061
_cell_angle_beta     107.061
_cell_angle_gamma    89.9999

_symmetry_Int_Tables_number  139
_chemical_formula_structural  Sr2SnO4
_chemical_formula_sum  Sr2SnO4
_cell_volume  106.21909683929617
_cell_formula_units_Z  1
loop_
  _symmetry_equiv_pos_site_id
 _symmetry_equiv_pos_as_xyz
 1  'x, y, z'
loop_
 _atom_site_type_symbol
 _atom_site_label
 _atom_site_symmetry_multiplicity
 _atom_site_fract_x
 _atom_site_fract_y
 _atom_site_fract_z
 _atom_site_fract_occupancy
 O  O1  1  0.83576  0.83576  0.67152  1
 O  O2  1  0.16424  0.16424  0.32848  1
 O  O3  1  -0.00000  0.50000  -0.00000  1
 O  O4  1  0.50000  -0.00000  -0.00000  1
 Sn  Sn1  1  0.00000  0.00000  0.00000  1
 Sr  Sr1  1  0.64612  0.64612  0.29224  1
 Sr  Sr2  1  0.35388  0.35388  0.70776  1
