CIF file written using JARVIS-Tools package.
data_Li2FeO2F
_symmetry_space_group_name_H-M  'C2'
_cell_length_a       4.95169
_cell_length_b       4.95959
_cell_length_c       9.62831
_cell_angle_alpha    85.1318
_cell_angle_beta     99.7876
_cell_angle_gamma    119.947

_symmetry_Int_Tables_number  5
_chemical_formula_structural  Li2FeO2F
_chemical_formula_sum  Li8Fe4O8F4
_cell_volume  201.90297828243828
_cell_formula_units_Z  4
loop_
  _symmetry_equiv_pos_site_id
 _symmetry_equiv_pos_as_xyz
 1  'x, y, z'
loop_
 _atom_site_type_symbol
 _atom_site_label
 _atom_site_symmetry_multiplicity
 _atom_site_fract_x
 _atom_site_fract_y
 _atom_site_fract_z
 _atom_site_fract_occupancy
 F  F1  1  0.70202  0.16624  0.12363  1
 F  F2  1  0.03938  0.84208  0.12101  1
 F  F3  1  0.80270  0.84208  0.37899  1
 F  F4  1  0.46422  0.16624  0.37637  1
 Fe  Fe1  1  0.25099  0.50199  0.75000  1
 Fe  Fe2  1  0.91783  0.83566  0.75000  1
 Fe  Fe3  1  0.58377  0.16755  0.75000  1
 Fe  Fe4  1  0.38782  0.77565  0.25000  1
 Li  Li1  1  0.74268  0.48535  0.25000  1
 Li  Li2  1  0.33650  0.19065  0.00407  1
 Li  Li3  1  0.48631  0.49309  0.50183  1
 Li  Li4  1  0.65612  0.82186  0.00149  1
 Li  Li5  1  0.08973  0.17946  0.25000  1
 Li  Li6  1  0.00678  0.49309  0.99817  1
 Li  Li7  1  0.85415  0.19065  0.49593  1
 Li  Li8  1  0.16574  0.82186  0.49851  1
 O  O1  1  0.28648  0.83554  0.85829  1
 O  O2  1  0.12963  0.50816  0.37541  1
 O  O3  1  0.21498  0.16784  0.64105  1
 O  O4  1  0.54906  0.83554  0.64171  1
 O  O5  1  0.37853  0.50816  0.12459  1
 O  O6  1  0.62157  0.50171  0.85859  1
 O  O7  1  0.88014  0.50171  0.64141  1
 O  O8  1  0.95286  0.16784  0.85895  1
