CIF file written using JARVIS-Tools package.
data_GaSe
_symmetry_space_group_name_H-M  'R3m'
_cell_length_a       8.32906
_cell_length_b       8.32906
_cell_length_c       8.32906
_cell_angle_alpha    26.4302
_cell_angle_beta     26.4301
_cell_angle_gamma    26.4301

_symmetry_Int_Tables_number  160
_chemical_formula_structural  GaSe
_chemical_formula_sum  Ga2Se2
_cell_volume  100.89566854376294
_cell_formula_units_Z  2
loop_
  _symmetry_equiv_pos_site_id
 _symmetry_equiv_pos_as_xyz
 1  'x, y, z'
loop_
 _atom_site_type_symbol
 _atom_site_label
 _atom_site_symmetry_multiplicity
 _atom_site_fract_x
 _atom_site_fract_y
 _atom_site_fract_z
 _atom_site_fract_occupancy
 Ga  Ga1  1  0.05112  0.05112  0.05112  1
 Ga  Ga2  1  0.94925  0.94925  0.94925  1
 Se  Se1  1  0.76634  0.76634  0.76634  1
 Se  Se2  1  0.56729  0.56729  0.56729  1
