CIF file written using JARVIS-Tools package.
data_InBF4
_symmetry_space_group_name_H-M  'Pnma'
_cell_length_a       5.6796
_cell_length_b       7.27117
_cell_length_c       9.00151
_cell_angle_alpha    90
_cell_angle_beta     90
_cell_angle_gamma    90

_symmetry_Int_Tables_number  62
_chemical_formula_structural  InBF4
_chemical_formula_sum  In4B4F6
_cell_volume  371.7385148984774
_cell_formula_units_Z  4
loop_
  _symmetry_equiv_pos_site_id
 _symmetry_equiv_pos_as_xyz
 1  'x, y, z'
loop_
 _atom_site_type_symbol
 _atom_site_label
 _atom_site_symmetry_multiplicity
 _atom_site_fract_x
 _atom_site_fract_y
 _atom_site_fract_z
 _atom_site_fract_occupancy
 B  B1  1  0.25000  0.68649  0.06834  1
 B  B2  1  0.25000  0.81351  0.56834  1
 B  B3  1  0.75000  0.18649  0.43166  1
 B  B4  1  0.75000  0.31351  0.93166  1
 F  F1  1  0.75000  0.09114  0.56722  1
 F  F2  1  0.54655  0.30108  0.42218  1
 F  F3  1  0.95345  0.19892  0.92218  1
 F  F4  1  0.45345  0.80108  0.07782  1
 F  F5  1  0.95345  0.30108  0.42218  1
 F  F6  1  0.25000  0.56318  0.19022  1
 F  F7  1  0.75000  0.43682  0.80978  1
 F  F8  1  0.04655  0.69892  0.57782  1
 F  F9  1  0.25000  0.93682  0.69022  1
 F  F10  1  0.45345  0.69892  0.57782  1
 F  F11  1  0.75000  0.40886  0.06722  1
 F  F12  1  0.75000  0.06318  0.30978  1
 F  F13  1  0.25000  0.90886  0.43278  1
 F  F14  1  0.04655  0.80108  0.07782  1
 F  F15  1  0.54655  0.19892  0.92218  1
 F  F16  1  0.25000  0.59114  0.93278  1
 In  In1  1  0.25000  0.16783  0.18139  1
 In  In2  1  0.75000  0.83217  0.81861  1
 In  In3  1  0.75000  0.66783  0.31861  1
 In  In4  1  0.25000  0.33217  0.68139  1
