CIF file written using JARVIS-Tools package.
data_BaTe3
_symmetry_space_group_name_H-M  'P-42_1m'
_cell_length_a       8.027
_cell_length_b       8.027
_cell_length_c       4.41462
_cell_angle_alpha    90
_cell_angle_beta     90
_cell_angle_gamma    90

_symmetry_Int_Tables_number  113
_chemical_formula_structural  BaTe3
_chemical_formula_sum  Ba2Te6
_cell_volume  284.4454352236818
_cell_formula_units_Z  2
loop_
  _symmetry_equiv_pos_site_id
 _symmetry_equiv_pos_as_xyz
 1  'x, y, z'
loop_
 _atom_site_type_symbol
 _atom_site_label
 _atom_site_symmetry_multiplicity
 _atom_site_fract_x
 _atom_site_fract_y
 _atom_site_fract_z
 _atom_site_fract_occupancy
 Ba  Ba1  1  0.50000  0.50000  0.00000  1
 Ba  Ba2  1  0.00000  0.00000  0.00000  1
 Te  Te1  1  0.79964  0.70036  0.49915  1
 Te  Te2  1  0.29964  0.79964  0.50085  1
 Te  Te3  1  0.00000  0.50000  0.10428  1
 Te  Te4  1  0.50000  0.00000  0.89572  1
 Te  Te5  1  0.20036  0.29964  0.49915  1
 Te  Te6  1  0.70036  0.20036  0.50085  1
