CIF file written using JARVIS-Tools package.
data_Na2O
_symmetry_space_group_name_H-M  'Fm-3m'
_cell_length_a       3.9144
_cell_length_b       3.9144
_cell_length_c       7.83185
_cell_angle_alpha    119.921
_cell_angle_beta     60.0785
_cell_angle_gamma    119.96

_symmetry_Int_Tables_number  225
_chemical_formula_structural  Na2O
_chemical_formula_sum  Na4O2
_cell_volume  84.98201411867342
_cell_formula_units_Z  2
loop_
  _symmetry_equiv_pos_site_id
 _symmetry_equiv_pos_as_xyz
 1  'x, y, z'
loop_
 _atom_site_type_symbol
 _atom_site_label
 _atom_site_symmetry_multiplicity
 _atom_site_fract_x
 _atom_site_fract_y
 _atom_site_fract_z
 _atom_site_fract_occupancy
 Na  Na1  1  0.24996  0.75004  0.62495  1
 Na  Na2  1  0.25004  0.74996  0.12496  1
 Na  Na3  1  0.74996  0.25004  0.87504  1
 Na  Na4  1  0.75004  0.24996  0.37505  1
 O  O1  1  0.50006  0.49994  0.25000  1
 O  O2  1  0.49994  0.50006  0.75000  1
