CIF file written using JARVIS-Tools package.
data_SmTaO4
_symmetry_space_group_name_H-M  'C2/c'
_cell_length_a       5.13662
_cell_length_b       5.46668
_cell_length_c       6.64115
_cell_angle_alpha    111.975
_cell_angle_beta     110.301
_cell_angle_gamma    95.5461

_symmetry_Int_Tables_number  15
_chemical_formula_structural  SmTaO4
_chemical_formula_sum  Sm2Ta2O8
_cell_volume  156.59947211769676
_cell_formula_units_Z  2
loop_
  _symmetry_equiv_pos_site_id
 _symmetry_equiv_pos_as_xyz
 1  'x, y, z'
loop_
 _atom_site_type_symbol
 _atom_site_label
 _atom_site_symmetry_multiplicity
 _atom_site_fract_x
 _atom_site_fract_y
 _atom_site_fract_z
 _atom_site_fract_occupancy
 O  O1  1  0.99877  0.79221  0.06268  1
 O  O2  1  0.56391  0.27046  0.06268  1
 O  O3  1  0.00123  0.20779  0.93732  1
 O  O4  1  0.43609  0.72954  0.93732  1
 O  O5  1  0.20155  0.36151  0.41664  1
 O  O6  1  0.71510  0.05514  0.41664  1
 O  O7  1  0.79845  0.63849  0.58336  1
 O  O8  1  0.28490  0.94486  0.58336  1
 Sm  Sm1  1  0.38147  0.63147  0.26294  1
 Sm  Sm2  1  0.61853  0.36853  0.73706  1
 Ta  Ta1  1  0.85023  0.10023  0.20046  1
 Ta  Ta2  1  0.14977  0.89977  0.79954  1
