CIF file written using JARVIS-Tools package.
data_PbSe
_symmetry_space_group_name_H-M  'I4/mmm'
_cell_length_a       4.38549
_cell_length_b       4.38549
_cell_length_c       7.26278
_cell_angle_alpha    107.573
_cell_angle_beta     107.573
_cell_angle_gamma    89.9988

_symmetry_Int_Tables_number  139
_chemical_formula_structural  PbSe
_chemical_formula_sum  Pb2Se2
_cell_volume  126.30871764597924
_cell_formula_units_Z  2
loop_
  _symmetry_equiv_pos_site_id
 _symmetry_equiv_pos_as_xyz
 1  'x, y, z'
loop_
 _atom_site_type_symbol
 _atom_site_label
 _atom_site_symmetry_multiplicity
 _atom_site_fract_x
 _atom_site_fract_y
 _atom_site_fract_z
 _atom_site_fract_occupancy
 Pb  Pb1  1  0.85039  0.85039  0.71751  1
 Pb  Pb2  1  0.13287  0.13287  0.28249  1
 Se  Se1  1  0.34753  0.34753  0.71232  1
 Se  Se2  1  0.63521  0.63521  0.28768  1
