CIF file written using JARVIS-Tools package.
data_BaSi6N8
_symmetry_space_group_name_H-M  'Imm2'
_cell_length_a       4.88157
_cell_length_b       6.64269
_cell_length_c       6.64268
_cell_angle_alpha    73.9478
_cell_angle_beta     68.4423
_cell_angle_gamma    68.4422

_symmetry_Int_Tables_number  44
_chemical_formula_structural  BaSi6N8
_chemical_formula_sum  BaSi6N8
_cell_volume  183.80884992100124
_cell_formula_units_Z  1
loop_
  _symmetry_equiv_pos_site_id
 _symmetry_equiv_pos_as_xyz
 1  'x, y, z'
loop_
 _atom_site_type_symbol
 _atom_site_label
 _atom_site_symmetry_multiplicity
 _atom_site_fract_x
 _atom_site_fract_y
 _atom_site_fract_z
 _atom_site_fract_occupancy
 Ba  Ba1  1  0.16817  0.00000  0.00000  1
 N  N1  1  0.98403  0.31751  0.31751  1
 N  N2  1  0.50089  0.11912  0.47894  1
 N  N3  1  0.09894  0.88088  0.52106  1
 N  N4  1  0.70919  0.78555  0.21445  1
 N  N5  1  0.50089  0.47894  0.11912  1
 N  N6  1  0.09894  0.52106  0.88088  1
 N  N7  1  0.70919  0.21445  0.78555  1
 N  N8  1  0.61906  0.68249  0.68249  1
 Si  Si1  1  0.81249  0.54072  0.13767  1
 Si  Si2  1  0.49088  0.45928  0.86233  1
 Si  Si3  1  0.49088  0.86233  0.45928  1
 Si  Si4  1  0.81249  0.13767  0.54072  1
 Si  Si5  1  0.01841  0.62791  0.62791  1
 Si  Si6  1  0.27424  0.37209  0.37209  1
