CIF file written using JARVIS-Tools package.
data_BaSe3
_symmetry_space_group_name_H-M  'P-42_1m'
_cell_length_a       7.36527
_cell_length_b       7.36527
_cell_length_c       4.24586
_cell_angle_alpha    90
_cell_angle_beta     90
_cell_angle_gamma    90

_symmetry_Int_Tables_number  113
_chemical_formula_structural  BaSe3
_chemical_formula_sum  Ba2Se6
_cell_volume  230.32635715645745
_cell_formula_units_Z  2
loop_
  _symmetry_equiv_pos_site_id
 _symmetry_equiv_pos_as_xyz
 1  'x, y, z'
loop_
 _atom_site_type_symbol
 _atom_site_label
 _atom_site_symmetry_multiplicity
 _atom_site_fract_x
 _atom_site_fract_y
 _atom_site_fract_z
 _atom_site_fract_occupancy
 Ba  Ba1  1  0.50000  0.50000  0.00000  1
 Ba  Ba2  1  0.00000  0.00000  0.00000  1
 Se  Se1  1  0.80718  0.69282  0.48748  1
 Se  Se2  1  0.30718  0.80718  0.51252  1
 Se  Se3  1  0.00000  0.50000  0.16815  1
 Se  Se4  1  0.50000  0.00000  0.83185  1
 Se  Se5  1  0.19282  0.30718  0.48748  1
 Se  Se6  1  0.69282  0.19282  0.51252  1
