CIF file written using JARVIS-Tools package.
data_VO2
_symmetry_space_group_name_H-M  'R-3m'
_cell_length_a       4.82045
_cell_length_b       4.82045
_cell_length_c       4.82045
_cell_angle_alpha    35.1037
_cell_angle_beta     35.1037
_cell_angle_gamma    35.1037

_symmetry_Int_Tables_number  166
_chemical_formula_structural  VO2
_chemical_formula_sum  VO2
_cell_volume  33.07931807487299
_cell_formula_units_Z  1
loop_
  _symmetry_equiv_pos_site_id
 _symmetry_equiv_pos_as_xyz
 1  'x, y, z'
loop_
 _atom_site_type_symbol
 _atom_site_label
 _atom_site_symmetry_multiplicity
 _atom_site_fract_x
 _atom_site_fract_y
 _atom_site_fract_z
 _atom_site_fract_occupancy
 O  O1  1  0.23919  0.23919  0.23919  1
 O  O2  1  0.76081  0.76081  0.76081  1
 V  V1  1  0.50000  0.50000  0.50000  1
