CIF file written using JARVIS-Tools package.
data_Ba6Ru3Cl2O12
_symmetry_space_group_name_H-M  'P-3m1'
_cell_length_a       5.86256
_cell_length_b       5.86256
_cell_length_c       15.0277
_cell_angle_alpha    90
_cell_angle_beta     90
_cell_angle_gamma    120

_symmetry_Int_Tables_number  164
_chemical_formula_structural  Ba6Ru3Cl2O12
_chemical_formula_sum  Ba6Ru3Cl2O2
_cell_volume  447.3015368602546
_cell_formula_units_Z  1
loop_
  _symmetry_equiv_pos_site_id
 _symmetry_equiv_pos_as_xyz
 1  'x, y, z'
loop_
 _atom_site_type_symbol
 _atom_site_label
 _atom_site_symmetry_multiplicity
 _atom_site_fract_x
 _atom_site_fract_y
 _atom_site_fract_z
 _atom_site_fract_occupancy
 Ba  Ba1  1  0.66667  0.33333  0.63708  1
 Ba  Ba2  1  0.33333  0.66667  0.36292  1
 Ba  Ba3  1  0.33333  0.66667  0.78537  1
 Ba  Ba4  1  0.66667  0.33333  0.92094  1
 Ba  Ba5  1  0.33333  0.66667  0.07906  1
 Ba  Ba6  1  0.66667  0.33333  0.21463  1
 Cl  Cl1  1  0.33333  0.66667  0.57648  1
 Cl  Cl2  1  0.66667  0.33333  0.42352  1
 O  O1  1  0.68098  0.84049  0.23846  1
 O  O2  1  0.68853  0.84426  0.91841  1
 O  O3  1  0.84426  0.68853  0.08159  1
 O  O4  1  0.15574  0.31147  0.91841  1
 O  O5  1  0.84049  0.68098  0.76154  1
 O  O6  1  0.15574  0.84426  0.91841  1
 O  O7  1  0.15951  0.31902  0.23846  1
 O  O8  1  0.84426  0.15574  0.08159  1
 O  O9  1  0.15951  0.84049  0.23846  1
 O  O10  1  0.31147  0.15574  0.08159  1
 O  O11  1  0.84049  0.15951  0.76154  1
 O  O12  1  0.31902  0.15951  0.76154  1
 Ru  Ru1  1  0.00000  0.00000  0.82714  1
 Ru  Ru2  1  0.00000  0.00000  0.00000  1
 Ru  Ru3  1  0.00000  0.00000  0.17286  1
