CIF file written using JARVIS-Tools package.
data_TaCl5
_symmetry_space_group_name_H-M  'C2/m'
_cell_length_a       5.81029
_cell_length_b       12.7697
_cell_length_c       12.7697
_cell_angle_alpha    88.4672
_cell_angle_beta     89.6513
_cell_angle_gamma    89.6513

_symmetry_Int_Tables_number  12
_chemical_formula_structural  TaCl5
_chemical_formula_sum  Ta6Cl30
_cell_volume  947.075242349845
_cell_formula_units_Z  6
loop_
  _symmetry_equiv_pos_site_id
 _symmetry_equiv_pos_as_xyz
 1  'x, y, z'
loop_
 _atom_site_type_symbol
 _atom_site_label
 _atom_site_symmetry_multiplicity
 _atom_site_fract_x
 _atom_site_fract_y
 _atom_site_fract_z
 _atom_site_fract_occupancy
 Cl  Cl1  1  0.70966  0.38577  0.38577  1
 Cl  Cl2  1  0.75237  0.46640  0.66240  1
 Cl  Cl3  1  0.75237  0.66240  0.46640  1
 Cl  Cl4  1  0.24763  0.53360  0.33760  1
 Cl  Cl5  1  0.72784  0.19710  0.58170  1
 Cl  Cl6  1  0.27216  0.41830  0.80290  1
 Cl  Cl7  1  0.77118  0.05245  0.05245  1
 Cl  Cl8  1  0.23098  0.00458  0.20010  1
 Cl  Cl9  1  0.25841  0.28095  0.28095  1
 Cl  Cl10  1  0.24503  0.13623  0.75125  1
 Cl  Cl11  1  0.24503  0.75125  0.13623  1
 Cl  Cl12  1  0.75497  0.86377  0.24875  1
 Cl  Cl13  1  0.23098  0.20010  0.00458  1
 Cl  Cl14  1  0.76902  0.99542  0.79990  1
 Cl  Cl15  1  0.76902  0.79990  0.99542  1
 Cl  Cl16  1  0.22882  0.94755  0.94755  1
 Cl  Cl17  1  0.24763  0.33760  0.53360  1
 Cl  Cl18  1  0.74159  0.71905  0.71905  1
 Cl  Cl19  1  0.75871  0.91531  0.53059  1
 Cl  Cl20  1  0.27216  0.80290  0.41830  1
 Cl  Cl21  1  0.72784  0.58170  0.19710  1
 Cl  Cl22  1  0.75497  0.24875  0.86377  1
 Cl  Cl23  1  0.24129  0.46941  0.08469  1
 Cl  Cl24  1  0.72055  0.13310  0.32863  1
 Cl  Cl25  1  0.29034  0.61423  0.61423  1
 Cl  Cl26  1  0.27945  0.86690  0.67137  1
 Cl  Cl27  1  0.72055  0.32863  0.13310  1
 Cl  Cl28  1  0.24129  0.08469  0.46941  1
 Cl  Cl29  1  0.75871  0.53059  0.91531  1
 Cl  Cl30  1  0.27945  0.67137  0.86690  1
 Ta  Ta1  1  0.51564  0.77769  0.55577  1
 Ta  Ta2  1  0.48436  0.44423  0.22231  1
 Ta  Ta3  1  0.00000  0.88911  0.11089  1
 Ta  Ta4  1  0.51564  0.55577  0.77769  1
 Ta  Ta5  1  0.48436  0.22231  0.44423  1
 Ta  Ta6  1  -0.00000  0.11089  0.88911  1
