CIF file written using JARVIS-Tools package.
data_KAlO2
_symmetry_space_group_name_H-M  'P4_12_12'
_cell_length_a       5.5306
_cell_length_b       5.5306
_cell_length_c       7.78377
_cell_angle_alpha    90
_cell_angle_beta     90
_cell_angle_gamma    90

_symmetry_Int_Tables_number  92
_chemical_formula_structural  KAlO2
_chemical_formula_sum  K4Al4O8
_cell_volume  238.086095734423
_cell_formula_units_Z  4
loop_
  _symmetry_equiv_pos_site_id
 _symmetry_equiv_pos_as_xyz
 1  'x, y, z'
loop_
 _atom_site_type_symbol
 _atom_site_label
 _atom_site_symmetry_multiplicity
 _atom_site_fract_x
 _atom_site_fract_y
 _atom_site_fract_z
 _atom_site_fract_occupancy
 Al  Al1  1  0.71068  0.71068  0.50000  1
 Al  Al2  1  0.21068  0.78932  0.25000  1
 Al  Al3  1  0.78932  0.21068  0.75000  1
 Al  Al4  1  0.28932  0.28932  0.00000  1
 K  K1  1  0.72777  0.72777  0.00000  1
 K  K2  1  0.77223  0.22777  0.25000  1
 K  K3  1  0.22777  0.77223  0.75000  1
 K  K4  1  0.27223  0.27223  0.50000  1
 O  O1  1  0.90854  0.75645  0.32428  1
 O  O2  1  0.09146  0.24355  0.82428  1
 O  O3  1  0.75645  0.90854  0.67572  1
 O  O4  1  0.25645  0.59146  0.07428  1
 O  O5  1  0.74355  0.40854  0.57428  1
 O  O6  1  0.24355  0.09146  0.17572  1
 O  O7  1  0.40854  0.74355  0.42572  1
 O  O8  1  0.59146  0.25645  0.92572  1
