CIF file written using JARVIS-Tools package.
data_AlH3O3
_symmetry_space_group_name_H-M  'P1'
_cell_length_a       8.69852
_cell_length_b       5.08047
_cell_length_c       9.2603
_cell_angle_alpha    89.3389
_cell_angle_beta     87.9398
_cell_angle_gamma    88.4336

_symmetry_Int_Tables_number  1
_chemical_formula_structural  AlH3O3
_chemical_formula_sum  Al8H24O24
_cell_volume  408.7965488998101
_cell_formula_units_Z  8
loop_
  _symmetry_equiv_pos_site_id
 _symmetry_equiv_pos_as_xyz
 1  'x, y, z'
loop_
 _atom_site_type_symbol
 _atom_site_label
 _atom_site_symmetry_multiplicity
 _atom_site_fract_x
 _atom_site_fract_y
 _atom_site_fract_z
 _atom_site_fract_occupancy
 Al  Al1  1  0.84045  0.03383  0.51045  1
 Al  Al2  1  0.34039  0.46869  0.48360  1
 Al  Al3  1  0.15301  0.50013  0.99063  1
 Al  Al4  1  0.66668  0.01740  0.01781  1
 Al  Al5  1  0.17079  0.98126  0.48685  1
 Al  Al6  1  0.66973  0.53437  0.51068  1
 Al  Al7  1  0.81417  0.49441  0.02105  1
 Al  Al8  1  0.33598  0.01076  0.98318  1
 H  H1  1  0.98134  0.68134  0.38482  1
 H  H2  1  0.51906  0.33798  0.87851  1
 H  H3  1  0.00424  0.35341  0.21898  1
 H  H4  1  0.56432  0.35815  0.28320  1
 H  H5  1  0.39529  0.84766  0.30204  1
 H  H6  1  0.96255  0.83625  0.89150  1
 H  H7  1  0.89016  0.65331  0.68666  1
 H  H8  1  0.23487  0.27777  0.27161  1
 H  H9  1  0.03487  0.33642  0.60800  1
 H  H10  1  0.45623  0.82568  0.61184  1
 H  H11  1  0.10330  0.14420  0.81535  1
 H  H12  1  0.51422  0.68209  0.11155  1
 H  H13  1  0.61285  0.16109  0.68674  1
 H  H14  1  0.05988  0.91158  0.13376  1
 H  H15  1  0.30909  0.16725  0.69756  1
 H  H16  1  0.78715  0.32272  0.29985  1
 H  H17  1  0.69802  0.71473  0.80171  1
 H  H18  1  0.41536  0.36989  0.11732  1
 H  H19  1  0.38167  0.64394  0.81150  1
 H  H20  1  0.18498  0.66840  0.69642  1
 H  H21  1  0.77876  0.81712  0.23056  1
 H  H22  1  0.80234  0.21005  0.80192  1
 H  H23  1  0.20856  0.79063  0.21876  1
 H  H24  1  0.59781  0.98742  0.39243  1
 O  O1  1  0.30955  0.31536  0.09973  1
 O  O2  1  0.30752  0.77924  0.36076  1
 O  O3  1  0.48176  0.63454  0.61218  1
 O  O4  1  0.99661  0.87206  0.38943  1
 O  O5  1  0.50792  0.14599  0.88239  1
 O  O6  1  0.99854  0.36268  0.11365  1
 O  O7  1  0.52529  0.37279  0.38798  1
 O  O8  1  0.48198  0.86959  0.11417  1
 O  O9  1  0.98552  0.64515  0.89343  1
 O  O10  1  0.80985  0.72467  0.62453  1
 O  O11  1  0.01667  0.14573  0.61108  1
 O  O12  1  0.82937  0.35471  0.39647  1
 O  O13  1  0.69936  0.23328  0.62953  1
 O  O14  1  0.80644  0.81422  0.12606  1
 O  O15  1  0.30367  0.70287  0.88503  1
 O  O16  1  0.33200  0.14329  0.59372  1
 O  O17  1  0.67247  0.69190  0.90538  1
 O  O18  1  0.16415  0.82656  0.11705  1
 O  O19  1  0.68444  0.86231  0.40666  1
 O  O20  1  0.19910  0.28824  0.37437  1
 O  O21  1  0.17579  0.65206  0.59178  1
 O  O22  1  0.18569  0.20166  0.87699  1
 O  O23  1  0.65958  0.32341  0.12703  1
 O  O24  1  0.82528  0.18091  0.90461  1
