CIF file written using JARVIS-Tools package.
data_AgHgAsS3
_symmetry_space_group_name_H-M  'Cc'
_cell_length_a       6.62228
_cell_length_b       6.62228
_cell_length_c       7.84934
_cell_angle_alpha    102.783
_cell_angle_beta     102.783
_cell_angle_gamma    118.571

_symmetry_Int_Tables_number  9
_chemical_formula_structural  AgHgAsS3
_chemical_formula_sum  Ag2Hg2As2S6
_cell_volume  272.47261203214595
_cell_formula_units_Z  2
loop_
  _symmetry_equiv_pos_site_id
 _symmetry_equiv_pos_as_xyz
 1  'x, y, z'
loop_
 _atom_site_type_symbol
 _atom_site_label
 _atom_site_symmetry_multiplicity
 _atom_site_fract_x
 _atom_site_fract_y
 _atom_site_fract_z
 _atom_site_fract_occupancy
 Ag  Ag1  1  0.01648  0.99231  0.25250  1
 Ag  Ag2  1  0.99231  0.01648  0.75250  1
 As  As1  1  0.32353  0.62423  0.20909  1
 As  As2  1  0.62423  0.32353  0.70909  1
 Hg  Hg1  1  0.65883  0.30789  0.22822  1
 Hg  Hg2  1  0.30789  0.65883  0.72822  1
 S  S1  1  0.97245  0.22682  0.05191  1
 S  S2  1  0.22682  0.97245  0.55191  1
 S  S3  1  0.81571  0.23421  0.51338  1
 S  S4  1  0.56643  0.57991  0.57730  1
 S  S5  1  0.57991  0.56643  0.07730  1
 S  S6  1  0.23421  0.81571  0.01338  1
