CIF file written using JARVIS-Tools package.
data_CaSi2Pd2
_symmetry_space_group_name_H-M  'I4/mmm'
_cell_length_a       4.24266
_cell_length_b       4.24267
_cell_length_c       5.77671
_cell_angle_alpha    111.544
_cell_angle_beta     111.544
_cell_angle_gamma    90

_symmetry_Int_Tables_number  139
_chemical_formula_structural  CaSi2Pd2
_chemical_formula_sum  CaSi2Pd2
_cell_volume  88.86043934336489
_cell_formula_units_Z  1
loop_
  _symmetry_equiv_pos_site_id
 _symmetry_equiv_pos_as_xyz
 1  'x, y, z'
loop_
 _atom_site_type_symbol
 _atom_site_label
 _atom_site_symmetry_multiplicity
 _atom_site_fract_x
 _atom_site_fract_y
 _atom_site_fract_z
 _atom_site_fract_occupancy
 Ca  Ca1  1  0.00000  0.00000  0.00000  1
 Pd  Pd1  1  0.75000  0.25000  0.50000  1
 Pd  Pd2  1  0.25000  0.75000  0.50000  1
 Si  Si1  1  0.37856  0.37856  0.75712  1
 Si  Si2  1  0.62144  0.62144  0.24288  1
