CIF file written using JARVIS-Tools package.
data_YWF5
_symmetry_space_group_name_H-M  'Immm'
_cell_length_a       4.21408
_cell_length_b       5.84788
_cell_length_c       5.84788
_cell_angle_alpha    71.4154
_cell_angle_beta     68.8809
_cell_angle_gamma    68.881

_symmetry_Int_Tables_number  71
_chemical_formula_structural  YWF5
_chemical_formula_sum  YWF5
_cell_volume  122.41262635817196
_cell_formula_units_Z  1
loop_
  _symmetry_equiv_pos_site_id
 _symmetry_equiv_pos_as_xyz
 1  'x, y, z'
loop_
 _atom_site_type_symbol
 _atom_site_label
 _atom_site_symmetry_multiplicity
 _atom_site_fract_x
 _atom_site_fract_y
 _atom_site_fract_z
 _atom_site_fract_occupancy
 F  F1  1  0.50000  0.82695  0.17305  1
 F  F2  1  0.50000  0.17305  0.82695  1
 F  F3  1  0.75625  0.24375  0.24375  1
 F  F4  1  0.24375  0.75625  0.75625  1
 F  F5  1  -0.00000  0.50000  0.50000  1
 W  W1  1  0.00000  0.00000  0.00000  1
 Y  Y1  1  0.50000  0.50000  0.50000  1
