CIF file written using JARVIS-Tools package.
data_TbCl
_symmetry_space_group_name_H-M  'R-3m'
_cell_length_a       9.50202
_cell_length_b       9.50202
_cell_length_c       9.50202
_cell_angle_alpha    22.6638
_cell_angle_beta     22.6638
_cell_angle_gamma    22.6638

_symmetry_Int_Tables_number  166
_chemical_formula_structural  TbCl
_chemical_formula_sum  Tb2Cl2
_cell_volume  111.7508177868826
_cell_formula_units_Z  2
loop_
  _symmetry_equiv_pos_site_id
 _symmetry_equiv_pos_as_xyz
 1  'x, y, z'
loop_
 _atom_site_type_symbol
 _atom_site_label
 _atom_site_symmetry_multiplicity
 _atom_site_fract_x
 _atom_site_fract_y
 _atom_site_fract_z
 _atom_site_fract_occupancy
 Cl  Cl1  1  0.38675  0.38675  0.38675  1
 Cl  Cl2  1  0.61325  0.61325  0.61325  1
 Tb  Tb1  1  0.21682  0.21682  0.21682  1
 Tb  Tb2  1  0.78318  0.78318  0.78318  1
