CIF file written using JARVIS-Tools package.
data_Li2CrSiO4
_symmetry_space_group_name_H-M  'Pc'
_cell_length_a       4.83013
_cell_length_b       5.62042
_cell_length_c       7.84443
_cell_angle_alpha    90
_cell_angle_beta     127.398
_cell_angle_gamma    90

_symmetry_Int_Tables_number  7
_chemical_formula_structural  Li2CrSiO4
_chemical_formula_sum  Li4Cr2Si2O8
_cell_volume  169.17997216634964
_cell_formula_units_Z  2
loop_
  _symmetry_equiv_pos_site_id
 _symmetry_equiv_pos_as_xyz
 1  'x, y, z'
loop_
 _atom_site_type_symbol
 _atom_site_label
 _atom_site_symmetry_multiplicity
 _atom_site_fract_x
 _atom_site_fract_y
 _atom_site_fract_z
 _atom_site_fract_occupancy
 Cr  Cr1  1  0.01039  0.15265  -0.01110  1
 Cr  Cr2  1  0.01039  0.84735  0.48890  1
 Li  Li1  1  0.50593  0.81523  0.00169  1
 Li  Li2  1  0.25013  0.34659  0.74478  1
 Li  Li3  1  0.50593  0.18477  0.50169  1
 Li  Li4  1  0.25013  0.65341  0.24478  1
 O  O1  1  0.06496  0.80181  0.96683  1
 O  O2  1  0.84750  0.38944  0.74323  1
 O  O3  1  0.39975  0.66340  0.74913  1
 O  O4  1  0.61927  0.82185  0.52891  1
 O  O5  1  0.06496  0.19819  0.46683  1
 O  O6  1  0.84750  0.61056  0.24323  1
 O  O7  1  0.39975  0.33660  0.24913  1
 O  O8  1  0.61927  0.17815  0.02891  1
 Si  Si1  1  0.73908  0.66616  0.74653  1
 Si  Si2  1  0.73908  0.33384  0.24653  1
