CIF file written using JARVIS-Tools package.
data_TeF6
_symmetry_space_group_name_H-M  'R-3'
_cell_length_a       5.46616
_cell_length_b       5.46616
_cell_length_c       5.46616
_cell_angle_alpha    54.7892
_cell_angle_beta     54.7892
_cell_angle_gamma    54.7892

_symmetry_Int_Tables_number  148
_chemical_formula_structural  TeF6
_chemical_formula_sum  TeF6
_cell_volume  101.47308008562116
_cell_formula_units_Z  1
loop_
  _symmetry_equiv_pos_site_id
 _symmetry_equiv_pos_as_xyz
 1  'x, y, z'
loop_
 _atom_site_type_symbol
 _atom_site_label
 _atom_site_symmetry_multiplicity
 _atom_site_fract_x
 _atom_site_fract_y
 _atom_site_fract_z
 _atom_site_fract_occupancy
 F  F1  1  0.37776  0.08272  0.77244  1
 F  F2  1  0.08272  0.77244  0.37776  1
 F  F3  1  0.22756  0.62224  0.91728  1
 F  F4  1  0.91728  0.22756  0.62224  1
 F  F5  1  0.62224  0.91728  0.22756  1
 F  F6  1  0.77244  0.37776  0.08272  1
 Te  Te1  1  0.00000  0.00000  0.00000  1
