CIF file written using JARVIS-Tools package.
data_SrZnO2
_symmetry_space_group_name_H-M  'Pnma'
_cell_length_a       3.35894
_cell_length_b       5.86687
_cell_length_c       11.3895
_cell_angle_alpha    90
_cell_angle_beta     90
_cell_angle_gamma    90

_symmetry_Int_Tables_number  62
_chemical_formula_structural  SrZnO2
_chemical_formula_sum  Sr4Zn4O8
_cell_volume  224.44594639365664
_cell_formula_units_Z  4
loop_
  _symmetry_equiv_pos_site_id
 _symmetry_equiv_pos_as_xyz
 1  'x, y, z'
loop_
 _atom_site_type_symbol
 _atom_site_label
 _atom_site_symmetry_multiplicity
 _atom_site_fract_x
 _atom_site_fract_y
 _atom_site_fract_z
 _atom_site_fract_occupancy
 O  O1  1  0.25000  0.23880  0.96122  1
 O  O2  1  0.75000  0.76120  0.03878  1
 O  O3  1  0.25000  0.73880  0.53878  1
 O  O4  1  0.75000  0.26120  0.46122  1
 O  O5  1  0.25000  0.44100  0.24120  1
 O  O6  1  0.75000  0.05900  0.74120  1
 O  O7  1  0.25000  0.94100  0.25880  1
 O  O8  1  0.75000  0.55900  0.75880  1
 Sr  Sr1  1  0.25000  0.31899  0.63297  1
 Sr  Sr2  1  0.75000  0.68101  0.36703  1
 Sr  Sr3  1  0.25000  0.81899  0.86703  1
 Sr  Sr4  1  0.75000  0.18101  0.13297  1
 Zn  Zn1  1  0.75000  0.80598  0.62811  1
 Zn  Zn2  1  0.75000  0.30598  0.87189  1
 Zn  Zn3  1  0.25000  0.19402  0.37189  1
 Zn  Zn4  1  0.25000  0.69402  0.12811  1
