CIF file written using JARVIS-Tools package.
data_TlAgI2
_symmetry_space_group_name_H-M  'I4/mcm'
_cell_length_a       7.06509
_cell_length_b       7.06509
_cell_length_c       7.06509
_cell_angle_alpha    107.635
_cell_angle_beta     107.635
_cell_angle_gamma    113.21

_symmetry_Int_Tables_number  140
_chemical_formula_structural  TlAgI2
_chemical_formula_sum  Tl2Ag2I4
_cell_volume  270.60286261181665
_cell_formula_units_Z  2
loop_
  _symmetry_equiv_pos_site_id
 _symmetry_equiv_pos_as_xyz
 1  'x, y, z'
loop_
 _atom_site_type_symbol
 _atom_site_label
 _atom_site_symmetry_multiplicity
 _atom_site_fract_x
 _atom_site_fract_y
 _atom_site_fract_z
 _atom_site_fract_occupancy
 Ag  Ag1  1  0.25000  0.75000  0.50000  1
 Ag  Ag2  1  0.75000  0.25000  0.50000  1
 I  I1  1  0.68122  0.18122  0.86244  1
 I  I2  1  0.18122  0.31878  0.50000  1
 I  I3  1  0.81878  0.68122  0.50000  1
 I  I4  1  0.31878  0.81878  0.13756  1
 Tl  Tl1  1  0.25000  0.25000  -0.00000  1
 Tl  Tl2  1  0.75000  0.75000  -0.00000  1
