CIF file written using JARVIS-Tools package.
data_BaBr2O6
_symmetry_space_group_name_H-M  'Fdd2'
_cell_length_a       7.25883
_cell_length_b       7.25883
_cell_length_c       7.88237
_cell_angle_alpha    105.603
_cell_angle_beta     105.603
_cell_angle_gamma    114.574

_symmetry_Int_Tables_number  43
_chemical_formula_structural  BaBr2O6
_chemical_formula_sum  Ba2Br4O2
_cell_volume  327.6095799450796
_cell_formula_units_Z  2
loop_
  _symmetry_equiv_pos_site_id
 _symmetry_equiv_pos_as_xyz
 1  'x, y, z'
loop_
 _atom_site_type_symbol
 _atom_site_label
 _atom_site_symmetry_multiplicity
 _atom_site_fract_x
 _atom_site_fract_y
 _atom_site_fract_z
 _atom_site_fract_occupancy
 Ba  Ba1  1  0.99907  0.99907  0.00000  1
 Ba  Ba2  1  0.74907  0.24907  0.50000  1
 Br  Br1  1  0.61643  0.22819  0.95546  1
 Br  Br2  1  0.27273  0.66098  0.04454  1
 Br  Br3  1  0.97819  0.86643  0.45546  1
 Br  Br4  1  0.41098  0.52273  0.54454  1
 O  O1  1  0.70996  0.13499  0.11407  1
 O  O2  1  0.02092  0.59589  0.88593  1
 O  O3  1  0.85124  0.58954  0.38722  1
 O  O4  1  0.34589  0.27092  0.38593  1
 O  O5  1  0.88499  0.95996  0.61407  1
 O  O6  1  0.32683  0.87739  0.23949  1
 O  O7  1  0.63790  0.08733  0.76051  1
 O  O8  1  0.83733  0.88790  0.26051  1
 O  O9  1  0.33954  0.10124  0.88722  1
 O  O10  1  0.21402  0.45232  0.11278  1
 O  O11  1  0.62739  0.57683  0.73949  1
 O  O12  1  0.20232  0.46402  0.61278  1
