CIF file written using JARVIS-Tools package.
data_FeH6SO6
_symmetry_space_group_name_H-M  'P2_1/c'
_cell_length_a       7.00166
_cell_length_b       7.73573
_cell_length_c       8.92882
_cell_angle_alpha    90
_cell_angle_beta     103.58
_cell_angle_gamma    90

_symmetry_Int_Tables_number  14
_chemical_formula_structural  FeH6SO6
_chemical_formula_sum  Fe4H24S4O24
_cell_volume  470.08990400058684
_cell_formula_units_Z  4
loop_
  _symmetry_equiv_pos_site_id
 _symmetry_equiv_pos_as_xyz
 1  'x, y, z'
loop_
 _atom_site_type_symbol
 _atom_site_label
 _atom_site_symmetry_multiplicity
 _atom_site_fract_x
 _atom_site_fract_y
 _atom_site_fract_z
 _atom_site_fract_occupancy
 Fe  Fe1  1  0.83762  0.36313  0.51810  1
 Fe  Fe2  1  0.16238  0.86313  0.98190  1
 Fe  Fe3  1  0.16238  0.63687  0.48190  1
 Fe  Fe4  1  0.83762  0.13687  0.01810  1
 H  H1  1  0.48396  0.27374  0.51603  1
 H  H2  1  0.51604  0.77374  0.98397  1
 H  H3  1  0.51604  0.72626  0.48397  1
 H  H4  1  0.48396  0.22626  0.01603  1
 H  H5  1  0.51786  0.43817  0.63123  1
 H  H6  1  0.48214  0.93817  0.86877  1
 H  H7  1  0.48214  0.56183  0.36877  1
 H  H8  1  0.51786  0.06183  0.13123  1
 H  H9  1  0.31386  0.48702  0.75532  1
 H  H10  1  0.68614  0.98702  0.74468  1
 H  H11  1  0.68614  0.51298  0.24468  1
 H  H12  1  0.31386  0.01298  0.25532  1
 H  H13  1  0.37667  0.68534  0.75270  1
 H  H14  1  0.76716  0.01116  0.51594  1
 H  H15  1  0.23284  0.51116  0.98406  1
 H  H16  1  0.23284  0.98884  0.48406  1
 H  H17  1  0.85504  0.08777  0.37447  1
 H  H18  1  0.14496  0.58777  0.12553  1
 H  H19  1  0.76716  0.48884  0.01594  1
 H  H20  1  0.85504  0.41223  0.87447  1
 H  H21  1  0.37667  0.81466  0.25270  1
 H  H22  1  0.62333  0.31466  0.24730  1
 H  H23  1  0.62333  0.18534  0.74730  1
 H  H24  1  0.14496  0.91223  0.62553  1
 O  O1  1  0.97581  0.17927  0.23526  1
 O  O2  1  0.90838  0.88534  0.05330  1
 O  O3  1  0.69015  0.83432  0.61331  1
 O  O4  1  0.30985  0.33432  0.88669  1
 O  O5  1  0.02419  0.67927  0.26474  1
 O  O6  1  0.90838  0.61466  0.55330  1
 O  O7  1  0.97581  0.32073  0.73526  1
 O  O8  1  0.09162  0.38534  0.44670  1
 O  O9  1  0.09162  0.11466  0.94670  1
 O  O10  1  0.30985  0.16568  0.38669  1
 O  O11  1  0.21548  0.61583  0.04464  1
 O  O12  1  0.02419  0.82073  0.76474  1
 O  O13  1  0.58472  0.33596  0.59801  1
 O  O14  1  0.21548  0.88417  0.54464  1
 O  O15  1  0.41528  0.66404  0.40199  1
 O  O16  1  0.58472  0.16404  0.09801  1
 O  O17  1  0.34558  0.57988  0.68592  1
 O  O18  1  0.65442  0.07988  0.81408  1
 O  O19  1  0.65442  0.42012  0.31408  1
 O  O20  1  0.34558  0.92012  0.18592  1
 O  O21  1  0.78452  0.38417  0.95536  1
 O  O22  1  0.69015  0.66568  0.11331  1
 O  O23  1  0.41528  0.83596  0.90199  1
 O  O24  1  0.78452  0.11583  0.45536  1
 S  S1  1  0.84919  0.70438  0.69529  1
 S  S2  1  0.15081  0.20438  0.80471  1
 S  S3  1  0.15081  0.29562  0.30471  1
 S  S4  1  0.84919  0.79562  0.19529  1
