CIF file written using JARVIS-Tools package.
data_NaSr3IrO6
_symmetry_space_group_name_H-M  'R-3c'
_cell_length_a       6.79621
_cell_length_b       6.79622
_cell_length_c       6.79621
_cell_angle_alpha    90.8275
_cell_angle_beta     90.8276
_cell_angle_gamma    90.8275

_symmetry_Int_Tables_number  167
_chemical_formula_structural  NaSr3IrO6
_chemical_formula_sum  Na2Sr6Ir2O2
_cell_volume  313.807839842777
_cell_formula_units_Z  2
loop_
  _symmetry_equiv_pos_site_id
 _symmetry_equiv_pos_as_xyz
 1  'x, y, z'
loop_
 _atom_site_type_symbol
 _atom_site_label
 _atom_site_symmetry_multiplicity
 _atom_site_fract_x
 _atom_site_fract_y
 _atom_site_fract_z
 _atom_site_fract_occupancy
 Ir  Ir1  1  0.50000  0.50000  0.50000  1
 Ir  Ir2  1  0.00000  0.00000  0.00000  1
 Na  Na1  1  0.75000  0.75000  0.75000  1
 Na  Na2  1  0.25000  0.25000  0.25000  1
 O  O1  1  0.44469  0.57805  0.78062  1
 O  O2  1  0.57805  0.78062  0.44469  1
 O  O3  1  0.92195  0.05531  0.71938  1
 O  O4  1  0.05531  0.71938  0.92195  1
 O  O5  1  0.71938  0.92195  0.05531  1
 O  O6  1  0.21938  0.55531  0.42195  1
 O  O7  1  0.55531  0.42195  0.21938  1
 O  O8  1  0.42195  0.21938  0.55531  1
 O  O9  1  0.94469  0.28062  0.07805  1
 O  O10  1  0.07805  0.94469  0.28062  1
 O  O11  1  0.78062  0.44469  0.57805  1
 O  O12  1  0.28062  0.07805  0.94469  1
 Sr  Sr1  1  0.39139  0.75000  0.10861  1
 Sr  Sr2  1  0.75000  0.10861  0.39139  1
 Sr  Sr3  1  0.10861  0.39139  0.75000  1
 Sr  Sr4  1  0.60861  0.25000  0.89139  1
 Sr  Sr5  1  0.25000  0.89139  0.60861  1
 Sr  Sr6  1  0.89139  0.60861  0.25000  1
