CIF file written using JARVIS-Tools package.
data_ZrP2H2O6
_symmetry_space_group_name_H-M  'P-3'
_cell_length_a       5.46146
_cell_length_b       5.46146
_cell_length_c       5.3901
_cell_angle_alpha    89.9984
_cell_angle_beta     90.0005
_cell_angle_gamma    120

_symmetry_Int_Tables_number  147
_chemical_formula_structural  ZrP2H2O6
_chemical_formula_sum  ZrP2H2O6
_cell_volume  139.23376918954224
_cell_formula_units_Z  1
loop_
  _symmetry_equiv_pos_site_id
 _symmetry_equiv_pos_as_xyz
 1  'x, y, z'
loop_
 _atom_site_type_symbol
 _atom_site_label
 _atom_site_symmetry_multiplicity
 _atom_site_fract_x
 _atom_site_fract_y
 _atom_site_fract_z
 _atom_site_fract_occupancy
 H  H1  1  0.66666  0.33335  0.43559  1
 H  H2  1  0.33334  0.66665  0.56441  1
 O  O1  1  0.35997  0.14153  0.77970  1
 O  O2  1  0.78157  0.64005  0.77968  1
 O  O3  1  0.85848  0.21845  0.77968  1
 O  O4  1  0.64003  0.85847  0.22030  1
 O  O5  1  0.21843  0.35995  0.22032  1
 O  O6  1  0.14152  0.78155  0.22032  1
 P  P1  1  0.66667  0.33335  0.69569  1
 P  P2  1  0.33333  0.66665  0.30431  1
 Zr  Zr1  1  0.00000  0.00000  0.00000  1
