CIF file written using JARVIS-Tools package.
data_V2Pb3O8
_symmetry_space_group_name_H-M  'C2'
_cell_length_a       5.6735
_cell_length_b       5.6735
_cell_length_c       7.52285
_cell_angle_alpha    67.8651
_cell_angle_beta     67.8651
_cell_angle_gamma    66.8689

_symmetry_Int_Tables_number  5
_chemical_formula_structural  V2Pb3O8
_chemical_formula_sum  V2Pb3O8
_cell_volume  198.69361941174702
_cell_formula_units_Z  1
loop_
  _symmetry_equiv_pos_site_id
 _symmetry_equiv_pos_as_xyz
 1  'x, y, z'
loop_
 _atom_site_type_symbol
 _atom_site_label
 _atom_site_symmetry_multiplicity
 _atom_site_fract_x
 _atom_site_fract_y
 _atom_site_fract_z
 _atom_site_fract_occupancy
 O  O1  1  0.67335  0.77707  0.96048  1
 O  O2  1  0.22293  0.32665  0.03952  1
 O  O3  1  0.75348  0.65439  0.32994  1
 O  O4  1  0.34561  0.24652  0.67006  1
 O  O5  1  0.66003  0.25503  0.23995  1
 O  O6  1  0.29541  0.75696  0.70198  1
 O  O7  1  0.24304  0.70459  0.29802  1
 O  O8  1  0.74497  0.33997  0.76005  1
 Pb  Pb1  1  0.16860  0.27029  0.38818  1
 Pb  Pb2  1  0.72971  0.83140  0.61182  1
 Pb  Pb3  1  -0.00280  0.00280  -0.00000  1
 V  V1  1  0.58714  0.59799  0.20526  1
 V  V2  1  0.40201  0.41286  0.79474  1
