CIF file written using JARVIS-Tools package.
data_ZrBrN
_symmetry_space_group_name_H-M  'Pmmn'
_cell_length_a       3.62889
_cell_length_b       4.13175
_cell_length_c       8.72535
_cell_angle_alpha    90
_cell_angle_beta     90
_cell_angle_gamma    90

_symmetry_Int_Tables_number  59
_chemical_formula_structural  ZrBrN
_chemical_formula_sum  Zr2Br2N2
_cell_volume  130.8249587609907
_cell_formula_units_Z  2
loop_
  _symmetry_equiv_pos_site_id
 _symmetry_equiv_pos_as_xyz
 1  'x, y, z'
loop_
 _atom_site_type_symbol
 _atom_site_label
 _atom_site_symmetry_multiplicity
 _atom_site_fract_x
 _atom_site_fract_y
 _atom_site_fract_z
 _atom_site_fract_occupancy
 Br  Br1  1  0.00000  0.00000  0.65869  1
 Br  Br2  1  0.50000  0.50000  0.34131  1
 N  N1  1  0.00000  0.00000  0.03272  1
 N  N2  1  0.50000  0.50000  0.96728  1
 Zr  Zr1  1  0.00000  0.50000  0.10185  1
 Zr  Zr2  1  0.50000  0.00000  0.89815  1
