CIF file written using JARVIS-Tools package.
data_Sr3Co2Cl2O5
_symmetry_space_group_name_H-M  'I4/mmm'
_cell_length_a       3.86387
_cell_length_b       3.86386
_cell_length_c       12.3593
_cell_angle_alpha    98.993
_cell_angle_beta     98.9929
_cell_angle_gamma    90

_symmetry_Int_Tables_number  139
_chemical_formula_structural  Sr3Co2Cl2O5
_chemical_formula_sum  Sr3Co2Cl2O5
_cell_volume  179.95233396523398
_cell_formula_units_Z  1
loop_
  _symmetry_equiv_pos_site_id
 _symmetry_equiv_pos_as_xyz
 1  'x, y, z'
loop_
 _atom_site_type_symbol
 _atom_site_label
 _atom_site_symmetry_multiplicity
 _atom_site_fract_x
 _atom_site_fract_y
 _atom_site_fract_z
 _atom_site_fract_occupancy
 Cl  Cl1  1  0.29520  0.29520  0.59041  1
 Cl  Cl2  1  0.70480  0.70480  0.40959  1
 Co  Co1  1  0.42333  0.42333  0.84666  1
 Co  Co2  1  0.57667  0.57667  0.15334  1
 O  O1  1  0.50000  0.50000  0.00000  1
 O  O2  1  0.41343  0.91343  0.82686  1
 O  O3  1  0.91343  0.41343  0.82686  1
 O  O4  1  0.08657  0.58657  0.17314  1
 O  O5  1  0.58657  0.08657  0.17314  1
 Sr  Sr1  1  0.00000  0.00000  0.00000  1
 Sr  Sr2  1  0.15487  0.15487  0.30973  1
 Sr  Sr3  1  0.84513  0.84513  0.69027  1
