CIF file written using JARVIS-Tools package.
data_Ag3AsS3
_symmetry_space_group_name_H-M  'R3c'
_cell_length_a       6.89738
_cell_length_b       6.89738
_cell_length_c       6.89738
_cell_angle_alpha    101.589
_cell_angle_beta     101.589
_cell_angle_gamma    101.589

_symmetry_Int_Tables_number  161
_chemical_formula_structural  Ag3AsS3
_chemical_formula_sum  Ag6As2S6
_cell_volume  304.78166947906703
_cell_formula_units_Z  2
loop_
  _symmetry_equiv_pos_site_id
 _symmetry_equiv_pos_as_xyz
 1  'x, y, z'
loop_
 _atom_site_type_symbol
 _atom_site_label
 _atom_site_symmetry_multiplicity
 _atom_site_fract_x
 _atom_site_fract_y
 _atom_site_fract_z
 _atom_site_fract_occupancy
 Ag  Ag1  1  0.26536  0.92705  0.45083  1
 Ag  Ag2  1  0.92705  0.45083  0.26536  1
 Ag  Ag3  1  0.45083  0.26536  0.92705  1
 Ag  Ag4  1  0.76536  0.95083  0.42705  1
 Ag  Ag5  1  0.42705  0.76536  0.95083  1
 Ag  Ag6  1  0.95083  0.42705  0.76536  1
 As  As1  1  0.00351  0.00351  0.00351  1
 As  As2  1  0.50351  0.50351  0.50351  1
 S  S1  1  0.09541  0.77809  0.76085  1
 S  S2  1  0.77809  0.76085  0.09541  1
 S  S3  1  0.59541  0.26085  0.27809  1
 S  S4  1  0.76085  0.09541  0.77809  1
 S  S5  1  0.26085  0.27809  0.59541  1
 S  S6  1  0.27809  0.59541  0.26085  1
