CIF file written using JARVIS-Tools package.
data_H4N2O3
_symmetry_space_group_name_H-M  'Pmmn'
_cell_length_a       4.89389
_cell_length_b       5.41463
_cell_length_c       5.64746
_cell_angle_alpha    90
_cell_angle_beta     90
_cell_angle_gamma    90

_symmetry_Int_Tables_number  59
_chemical_formula_structural  H4N2O3
_chemical_formula_sum  H8N4O6
_cell_volume  149.6498037925689
_cell_formula_units_Z  2
loop_
  _symmetry_equiv_pos_site_id
 _symmetry_equiv_pos_as_xyz
 1  'x, y, z'
loop_
 _atom_site_type_symbol
 _atom_site_label
 _atom_site_symmetry_multiplicity
 _atom_site_fract_x
 _atom_site_fract_y
 _atom_site_fract_z
 _atom_site_fract_occupancy
 H  H1  1  0.55545  0.50000  0.15069  1
 H  H2  1  0.31095  0.65424  0.00000  1
 H  H3  1  0.31095  0.34576  0.00000  1
 H  H4  1  0.68905  0.15424  0.50000  1
 H  H5  1  0.55545  0.50000  0.84931  1
 H  H6  1  0.44455  0.00000  0.34931  1
 H  H7  1  0.44455  0.00000  0.65069  1
 H  H8  1  0.68905  0.84576  0.50000  1
 N  N1  1  0.43425  0.50000  0.00000  1
 N  N2  1  0.03430  0.50000  0.50000  1
 N  N3  1  0.96570  0.00000  0.00000  1
 N  N4  1  0.56575  0.00000  0.50000  1
 O  O1  1  0.29215  0.50000  0.50000  1
 O  O2  1  0.70785  0.00000  0.00000  1
 O  O3  1  0.90410  0.50000  0.69498  1
 O  O4  1  0.09590  0.00000  0.19498  1
 O  O5  1  0.09590  0.00000  0.80502  1
 O  O6  1  0.90410  0.50000  0.30502  1
