CIF file written using JARVIS-Tools package.
data_NiH2O2
_symmetry_space_group_name_H-M  'P-3m1'
_cell_length_a       3.19514
_cell_length_b       3.19725
_cell_length_c       4.39018
_cell_angle_alpha    90
_cell_angle_beta     90.0805
_cell_angle_gamma    120.022

_symmetry_Int_Tables_number  164
_chemical_formula_structural  NiH2O2
_chemical_formula_sum  NiH2O2
_cell_volume  38.83146877210028
_cell_formula_units_Z  1
loop_
  _symmetry_equiv_pos_site_id
 _symmetry_equiv_pos_as_xyz
 1  'x, y, z'
loop_
 _atom_site_type_symbol
 _atom_site_label
 _atom_site_symmetry_multiplicity
 _atom_site_fract_x
 _atom_site_fract_y
 _atom_site_fract_z
 _atom_site_fract_occupancy
 H  H1  1  0.66587  0.39826  0.56009  1
 H  H2  1  0.33413  0.73239  0.43991  1
 Ni  Ni1  1  0.00000  0.06525  -0.00000  1
 O  O1  1  0.66620  0.39836  0.78455  1
 O  O2  1  0.33380  0.73216  0.21545  1
