CIF file written using JARVIS-Tools package.
data_Li4Mn3Sn5O16
_symmetry_space_group_name_H-M  'P1'
_cell_length_a       6.16315
_cell_length_b       6.1345
_cell_length_c       9.86924
_cell_angle_alpha    90.7379
_cell_angle_beta     89.6637
_cell_angle_gamma    119.282

_symmetry_Int_Tables_number  1
_chemical_formula_structural  Li4Mn3Sn5O16
_chemical_formula_sum  Li4Mn3Sn5O6
_cell_volume  325.43067932188643
_cell_formula_units_Z  1
loop_
  _symmetry_equiv_pos_site_id
 _symmetry_equiv_pos_as_xyz
 1  'x, y, z'
loop_
 _atom_site_type_symbol
 _atom_site_label
 _atom_site_symmetry_multiplicity
 _atom_site_fract_x
 _atom_site_fract_y
 _atom_site_fract_z
 _atom_site_fract_occupancy
 Li  Li1  1  0.32882  0.66899  0.10544  1
 Li  Li2  1  0.01227  0.03180  0.01526  1
 Li  Li3  1  0.01492  0.01375  0.50339  1
 Li  Li4  1  0.67080  0.33543  0.59426  1
 Mn  Mn1  1  0.16996  0.33694  0.78458  1
 Mn  Mn2  1  0.33864  0.17072  0.28741  1
 Mn  Mn3  1  0.82313  0.16007  0.28666  1
 O  O1  1  0.15319  0.81936  0.40869  1
 O  O2  1  0.48431  0.03394  0.16032  1
 O  O3  1  0.33142  0.66607  0.89872  1
 O  O4  1  -0.00165  0.00009  0.68699  1
 O  O5  1  0.01135  0.01134  0.19793  1
 O  O6  1  0.68305  0.84664  0.40303  1
 O  O7  1  0.48217  0.96905  0.65716  1
 O  O8  1  0.50022  0.52715  0.65328  1
 O  O9  1  0.83918  0.67618  0.90545  1
 O  O10  1  0.65523  0.31987  0.38927  1
 O  O11  1  0.53291  0.50946  0.15067  1
 O  O12  1  0.95874  0.46263  0.15818  1
 O  O13  1  0.03829  0.51402  0.65648  1
 O  O14  1  0.31707  0.16101  0.90217  1
 O  O15  1  0.18368  0.32081  0.40209  1
 O  O16  1  0.82443  0.15312  0.90794  1
 Sn  Sn1  1  0.16497  0.82637  0.78516  1
 Sn  Sn2  1  0.33634  0.65593  0.50503  1
 Sn  Sn3  1  0.66033  0.82951  0.78686  1
 Sn  Sn4  1  0.83475  0.65898  0.28514  1
 Sn  Sn5  1  0.65119  0.32076  0.01462  1
