data_image0
_chemical_formula_structural       GeIO6Rb
_chemical_formula_sum              "Ge1 I1 O6 Rb1"
_cell_length_a       5.05203
_cell_length_b       5.05142
_cell_length_c       6.20249
_cell_angle_alpha    90.0018
_cell_angle_beta     89.9963
_cell_angle_gamma    120.004

_space_group_name_H-M_alt    "P 1"
_space_group_IT_number       1

loop_
  _space_group_symop_operation_xyz
  'x, y, z'

loop_
  _atom_site_type_symbol
  _atom_site_label
  _atom_site_symmetry_multiplicity
  _atom_site_fract_x
  _atom_site_fract_y
  _atom_site_fract_z
  _atom_site_occupancy
  Ge  Ge1       1.0  0.33300  0.66700  0.50000  1.0000
  I   I1        1.0  0.66700  0.33300  0.50000  1.0000
  O   O1        1.0  0.99800  0.61600  0.32400  1.0000
  O   O2        1.0  0.38400  0.38200  0.32400  1.0000
  O   O3        1.0  0.61800  0.00208  0.32400  1.0000
  O   O4        1.0  0.38400  0.00208  0.67600  1.0000
  O   O5        1.0  0.99800  0.38200  0.67600  1.0000
  O   O6        1.0  0.61800  0.61600  0.67600  1.0000
  Rb  Rb1       1.0  0.00001  0.00002  0.00000  1.0000
