CIF file written using JARVIS-Tools package.
data_ZnCr4O6
_symmetry_space_group_name_H-M  'Cmcm'
_cell_length_a       2.94288
_cell_length_b       5.14211
_cell_length_c       15.2006
_cell_angle_alpha    90
_cell_angle_beta     90
_cell_angle_gamma    106.628

_symmetry_Int_Tables_number  63
_chemical_formula_structural  ZnCr4O6
_chemical_formula_sum  Zn2Cr8O2
_cell_volume  220.4065759610499
_cell_formula_units_Z  2
loop_
  _symmetry_equiv_pos_site_id
 _symmetry_equiv_pos_as_xyz
 1  'x, y, z'
loop_
 _atom_site_type_symbol
 _atom_site_label
 _atom_site_symmetry_multiplicity
 _atom_site_fract_x
 _atom_site_fract_y
 _atom_site_fract_z
 _atom_site_fract_occupancy
 Cr  Cr1  1  0.86568  0.73136  0.04567  1
 Cr  Cr2  1  0.39959  0.79918  0.63691  1
 Cr  Cr3  1  0.13432  0.26864  0.95433  1
 Cr  Cr4  1  0.60041  0.20082  0.36309  1
 Cr  Cr5  1  0.86568  0.73136  0.45433  1
 Cr  Cr6  1  0.13432  0.26864  0.54567  1
 Cr  Cr7  1  0.60041  0.20082  0.13691  1
 Cr  Cr8  1  0.39959  0.79918  0.86309  1
 O  O1  1  0.77859  0.55719  0.57809  1
 O  O2  1  0.29723  0.59446  0.75000  1
 O  O3  1  0.50000  0.00000  0.00000  1
 O  O4  1  0.03770  0.07540  0.84078  1
 O  O5  1  0.96230  0.92460  0.15922  1
 O  O6  1  0.50000  0.00000  0.50000  1
 O  O7  1  0.70277  0.40554  0.25000  1
 O  O8  1  0.77859  0.55719  0.92191  1
 O  O9  1  0.22141  0.44281  0.07809  1
 O  O10  1  0.22141  0.44281  0.42191  1
 O  O11  1  0.96230  0.92460  0.34078  1
 O  O12  1  0.03770  0.07540  0.65922  1
 Zn  Zn1  1  0.34814  0.69629  0.25000  1
 Zn  Zn2  1  0.65186  0.30371  0.75000  1
