CIF file written using JARVIS-Tools package.
data_NaBeO2
_symmetry_space_group_name_H-M  'C2/c'
_cell_length_a       7.97114
_cell_length_b       7.97114
_cell_length_c       5.27346
_cell_angle_alpha    65.9909
_cell_angle_beta     114.009
_cell_angle_gamma    57.928

_symmetry_Int_Tables_number  15
_chemical_formula_structural  NaBeO2
_chemical_formula_sum  Na4Be4O8
_cell_volume  153.9642782199452
_cell_formula_units_Z  4
loop_
  _symmetry_equiv_pos_site_id
 _symmetry_equiv_pos_as_xyz
 1  'x, y, z'
loop_
 _atom_site_type_symbol
 _atom_site_label
 _atom_site_symmetry_multiplicity
 _atom_site_fract_x
 _atom_site_fract_y
 _atom_site_fract_z
 _atom_site_fract_occupancy
 Be  Be1  1  0.73558  0.73558  0.75000  1
 Be  Be2  1  0.89518  0.89518  0.75000  1
 Be  Be3  1  0.10482  0.10482  0.25000  1
 Be  Be4  1  0.26442  0.26442  0.25000  1
 Na  Na1  1  0.18152  0.18152  0.75000  1
 Na  Na2  1  0.44011  0.44011  0.75000  1
 Na  Na3  1  0.55989  0.55989  0.25000  1
 Na  Na4  1  0.81848  0.81848  0.25000  1
 O  O1  1  0.07620  0.84063  0.65490  1
 O  O2  1  0.46492  0.90345  0.69547  1
 O  O3  1  0.15937  0.92380  0.15490  1
 O  O4  1  0.09655  0.53508  0.19547  1
 O  O5  1  0.90345  0.46492  0.80453  1
 O  O6  1  0.84063  0.07620  0.84510  1
 O  O7  1  0.53508  0.09655  0.30453  1
 O  O8  1  0.92380  0.15937  0.34510  1
