CIF file written using JARVIS-Tools package.
data_DyMnSi
_symmetry_space_group_name_H-M  'Pnma'
_cell_length_a       4.13531
_cell_length_b       6.98756
_cell_length_c       7.41332
_cell_angle_alpha    90
_cell_angle_beta     90
_cell_angle_gamma    90

_symmetry_Int_Tables_number  62
_chemical_formula_structural  DyMnSi
_chemical_formula_sum  Dy4Mn4Si4
_cell_volume  214.21317702252503
_cell_formula_units_Z  4
loop_
  _symmetry_equiv_pos_site_id
 _symmetry_equiv_pos_as_xyz
 1  'x, y, z'
loop_
 _atom_site_type_symbol
 _atom_site_label
 _atom_site_symmetry_multiplicity
 _atom_site_fract_x
 _atom_site_fract_y
 _atom_site_fract_z
 _atom_site_fract_occupancy
 Dy  Dy1  1  0.25000  0.00263  0.81291  1
 Dy  Dy2  1  0.75000  0.99737  0.18709  1
 Dy  Dy3  1  0.25000  0.50263  0.68709  1
 Dy  Dy4  1  0.75000  0.49737  0.31291  1
 Mn  Mn1  1  0.75000  0.85938  0.56089  1
 Mn  Mn2  1  0.25000  0.14062  0.43911  1
 Mn  Mn3  1  0.75000  0.35938  0.93911  1
 Mn  Mn4  1  0.25000  0.64062  0.06089  1
 Si  Si1  1  0.25000  0.29183  0.10813  1
 Si  Si2  1  0.75000  0.70817  0.89187  1
 Si  Si3  1  0.25000  0.79183  0.39187  1
 Si  Si4  1  0.75000  0.20817  0.60813  1
