CIF file written using JARVIS-Tools package.
data_SiS2
_symmetry_space_group_name_H-M  'I-42d'
_cell_length_a       5.46417
_cell_length_b       5.46417
_cell_length_c       5.87208
_cell_angle_alpha    117.728
_cell_angle_beta     117.728
_cell_angle_gamma    90

_symmetry_Int_Tables_number  122
_chemical_formula_structural  SiS2
_chemical_formula_sum  Si2S4
_cell_volume  132.02388352478434
_cell_formula_units_Z  2
loop_
  _symmetry_equiv_pos_site_id
 _symmetry_equiv_pos_as_xyz
 1  'x, y, z'
loop_
 _atom_site_type_symbol
 _atom_site_label
 _atom_site_symmetry_multiplicity
 _atom_site_fract_x
 _atom_site_fract_y
 _atom_site_fract_z
 _atom_site_fract_occupancy
 S  S1  1  0.35283  0.37500  0.25000  1
 S  S2  1  0.12500  0.64717  0.75000  1
 S  S3  1  0.62500  0.10283  0.75000  1
 S  S4  1  0.89717  0.87500  0.25000  1
 Si  Si1  1  0.00000  0.00000  0.00000  1
 Si  Si2  1  0.25000  0.75000  0.50000  1
