CIF file written using JARVIS-Tools package.
data_BaAg2
_symmetry_space_group_name_H-M  'P6/mmm'
_cell_length_a       4.88881
_cell_length_b       6.51259
_cell_length_c       6.51258
_cell_angle_alpha    82.713
_cell_angle_beta     67.955
_cell_angle_gamma    67.955

_symmetry_Int_Tables_number  191
_chemical_formula_structural  BaAg2
_chemical_formula_sum  Ba2Ag4
_cell_volume  178.1178985331261
_cell_formula_units_Z  2
loop_
  _symmetry_equiv_pos_site_id
 _symmetry_equiv_pos_as_xyz
 1  'x, y, z'
loop_
 _atom_site_type_symbol
 _atom_site_label
 _atom_site_symmetry_multiplicity
 _atom_site_fract_x
 _atom_site_fract_y
 _atom_site_fract_z
 _atom_site_fract_occupancy
 Ag  Ag1  1  0.66671  0.83328  0.83330  1
 Ag  Ag2  1  0.33329  0.16672  0.16670  1
 Ag  Ag3  1  0.33329  0.66670  0.66672  1
 Ag  Ag4  1  0.66671  0.33330  0.33328  1
 Ba  Ba1  1  0.00001  0.74999  0.24999  1
 Ba  Ba2  1  -0.00001  0.25001  0.75001  1
