CIF file written using JARVIS-Tools package.
data_V2O2F3
_symmetry_space_group_name_H-M  'Cmcm'
_cell_length_a       3.7849
_cell_length_b       5.13379
_cell_length_c       9.6423
_cell_angle_alpha    90
_cell_angle_beta     90
_cell_angle_gamma    68.3691

_symmetry_Int_Tables_number  63
_chemical_formula_structural  V2O2F3
_chemical_formula_sum  V4O4F6
_cell_volume  174.16457926088597
_cell_formula_units_Z  2
loop_
  _symmetry_equiv_pos_site_id
 _symmetry_equiv_pos_as_xyz
 1  'x, y, z'
loop_
 _atom_site_type_symbol
 _atom_site_label
 _atom_site_symmetry_multiplicity
 _atom_site_fract_x
 _atom_site_fract_y
 _atom_site_fract_z
 _atom_site_fract_occupancy
 F  F1  1  0.04367  0.91266  0.88285  1
 F  F2  1  0.04367  0.91266  0.61715  1
 F  F3  1  0.21635  0.56730  0.25000  1
 F  F4  1  0.78365  0.43270  0.75000  1
 F  F5  1  0.95633  0.08734  0.11715  1
 F  F6  1  0.95633  0.08734  0.38285  1
 O  O1  1  0.32928  0.34145  0.54585  1
 O  O2  1  0.32928  0.34145  0.95415  1
 O  O3  1  0.67072  0.65855  0.04585  1
 O  O4  1  0.67072  0.65855  0.45415  1
 V  V1  1  0.15288  0.69424  0.05689  1
 V  V2  1  0.15288  0.69424  0.44311  1
 V  V3  1  0.84712  0.30576  0.94311  1
 V  V4  1  0.84712  0.30576  0.55689  1
