CIF file written using JARVIS-Tools package.
data_MnCo5O12
_symmetry_space_group_name_H-M  'C2/m'
_cell_length_a       4.89178
_cell_length_b       4.8915
_cell_length_c       8.78563
_cell_angle_alpha    95.2717
_cell_angle_beta     100.588
_cell_angle_gamma    59.9981

_symmetry_Int_Tables_number  12
_chemical_formula_structural  MnCo5O12
_chemical_formula_sum  MnCo5O2
_cell_volume  178.95593179697306
_cell_formula_units_Z  1
loop_
  _symmetry_equiv_pos_site_id
 _symmetry_equiv_pos_as_xyz
 1  'x, y, z'
loop_
 _atom_site_type_symbol
 _atom_site_label
 _atom_site_symmetry_multiplicity
 _atom_site_fract_x
 _atom_site_fract_y
 _atom_site_fract_z
 _atom_site_fract_occupancy
 Co  Co1  1  0.16667  0.66666  0.50000  1
 Co  Co2  1  0.66682  0.66637  0.00000  1
 Co  Co3  1  0.33318  0.33363  -0.00000  1
 Co  Co4  1  0.83333  0.33334  0.50000  1
 Co  Co5  1  0.50000  -0.00000  0.50000  1
 Mn  Mn1  1  0.00000  0.00000  0.00000  1
 O  O1  1  0.03564  0.66958  0.10821  1
 O  O2  1  0.29478  0.66958  0.89179  1
 O  O3  1  0.63365  -0.00000  0.89197  1
 O  O4  1  0.46440  0.66673  0.39225  1
 O  O5  1  0.13113  0.33327  0.39225  1
 O  O6  1  0.70522  0.33042  0.10821  1
 O  O7  1  0.86887  0.66673  0.60775  1
 O  O8  1  0.53560  0.33327  0.60775  1
 O  O9  1  0.36635  0.00000  0.10803  1
 O  O10  1  0.96436  0.33042  0.89179  1
 O  O11  1  0.20218  0.00000  0.60775  1
 O  O12  1  0.79782  -0.00000  0.39225  1
