CIF file written using JARVIS-Tools package.
data_Sb2Rh
_symmetry_space_group_name_H-M  'P2_1/c'
_cell_length_a       6.72146
_cell_length_b       6.66064
_cell_length_c       6.78962
_cell_angle_alpha    90
_cell_angle_beta     116.296
_cell_angle_gamma    90

_symmetry_Int_Tables_number  14
_chemical_formula_structural  Sb2Rh
_chemical_formula_sum  Sb8Rh4
_cell_volume  272.5111827101279
_cell_formula_units_Z  4
loop_
  _symmetry_equiv_pos_site_id
 _symmetry_equiv_pos_as_xyz
 1  'x, y, z'
loop_
 _atom_site_type_symbol
 _atom_site_label
 _atom_site_symmetry_multiplicity
 _atom_site_fract_x
 _atom_site_fract_y
 _atom_site_fract_z
 _atom_site_fract_occupancy
 Rh  Rh1  1  0.27063  0.00040  0.28525  1
 Rh  Rh2  1  0.72937  0.50040  0.21475  1
 Rh  Rh3  1  0.72937  0.99960  0.71475  1
 Rh  Rh4  1  0.27063  0.49960  0.78525  1
 Sb  Sb1  1  0.34468  0.63846  0.17358  1
 Sb  Sb2  1  0.65532  0.13846  0.32642  1
 Sb  Sb3  1  0.65532  0.36154  0.82642  1
 Sb  Sb4  1  0.34468  0.86154  0.67358  1
 Sb  Sb5  1  0.15037  0.36286  0.37128  1
 Sb  Sb6  1  0.84963  0.86286  0.12872  1
 Sb  Sb7  1  0.84963  0.63714  0.62872  1
 Sb  Sb8  1  0.15037  0.13714  0.87128  1
