CIF file written using JARVIS-Tools package.
data_CaSnF4
_symmetry_space_group_name_H-M  'P4/mmm'
_cell_length_a       3.98416
_cell_length_b       3.98401
_cell_length_c       5.73676
_cell_angle_alpha    89.9998
_cell_angle_beta     89.9982
_cell_angle_gamma    90

_symmetry_Int_Tables_number  123
_chemical_formula_structural  CaSnF4
_chemical_formula_sum  CaSnF4
_cell_volume  91.05944210092395
_cell_formula_units_Z  1
loop_
  _symmetry_equiv_pos_site_id
 _symmetry_equiv_pos_as_xyz
 1  'x, y, z'
loop_
 _atom_site_type_symbol
 _atom_site_label
 _atom_site_symmetry_multiplicity
 _atom_site_fract_x
 _atom_site_fract_y
 _atom_site_fract_z
 _atom_site_fract_occupancy
 Ca  Ca1  1  0.99718  0.00689  0.49960  1
 F  F1  1  0.99718  0.50694  0.26533  1
 F  F2  1  0.99708  0.50684  0.73383  1
 F  F3  1  0.49711  0.00685  0.73387  1
 F  F4  1  0.49724  0.00696  0.26538  1
 Sn  Sn1  1  0.49723  0.50687  -0.00040  1
