CIF file written using JARVIS-Tools package.
data_YbHO2
_symmetry_space_group_name_H-M  'P2_1/m'
_cell_length_a       4.13781
_cell_length_b       3.56553
_cell_length_c       6.30627
_cell_angle_alpha    90
_cell_angle_beta     112.391
_cell_angle_gamma    90

_symmetry_Int_Tables_number  11
_chemical_formula_structural  YbHO2
_chemical_formula_sum  Yb2H2O4
_cell_volume  86.02462590688124
_cell_formula_units_Z  2
loop_
  _symmetry_equiv_pos_site_id
 _symmetry_equiv_pos_as_xyz
 1  'x, y, z'
loop_
 _atom_site_type_symbol
 _atom_site_label
 _atom_site_symmetry_multiplicity
 _atom_site_fract_x
 _atom_site_fract_y
 _atom_site_fract_z
 _atom_site_fract_occupancy
 H  H1  1  -0.02746  0.75000  0.41350  1
 H  H2  1  0.02746  0.25000  0.58650  1
 O  O1  1  0.29837  0.75000  0.96927  1
 O  O2  1  0.70163  0.25000  0.03073  1
 O  O3  1  0.21430  0.75000  0.42493  1
 O  O4  1  0.78570  0.25000  0.57507  1
 Yb  Yb1  1  0.67313  0.75000  0.77178  1
 Yb  Yb2  1  0.32687  0.25000  0.22822  1
