CIF file written using JARVIS-Tools package.
data_V4GeSe8
_symmetry_space_group_name_H-M  'F-43m'
_cell_length_a       7.23514
_cell_length_b       7.23514
_cell_length_c       7.23515
_cell_angle_alpha    60
_cell_angle_beta     60
_cell_angle_gamma    60

_symmetry_Int_Tables_number  216
_chemical_formula_structural  V4GeSe8
_chemical_formula_sum  V4GeSe8
_cell_volume  267.81037372808373
_cell_formula_units_Z  1
loop_
  _symmetry_equiv_pos_site_id
 _symmetry_equiv_pos_as_xyz
 1  'x, y, z'
loop_
 _atom_site_type_symbol
 _atom_site_label
 _atom_site_symmetry_multiplicity
 _atom_site_fract_x
 _atom_site_fract_y
 _atom_site_fract_z
 _atom_site_fract_occupancy
 Ge  Ge1  1  0.00000  0.00000  0.00000  1
 Se  Se1  1  0.36861  0.36861  0.36861  1
 Se  Se2  1  0.36861  0.36861  0.89418  1
 Se  Se3  1  0.89418  0.36861  0.36861  1
 Se  Se4  1  0.36861  0.89418  0.36861  1
 Se  Se5  1  0.86106  0.86106  0.86106  1
 Se  Se6  1  0.86106  0.86106  0.41682  1
 Se  Se7  1  0.41682  0.86106  0.86106  1
 Se  Se8  1  0.86106  0.41682  0.86106  1
 V  V1  1  0.60247  0.19260  0.60247  1
 V  V2  1  0.60247  0.60247  0.60247  1
 V  V3  1  0.60247  0.60247  0.19260  1
 V  V4  1  0.19260  0.60247  0.60247  1
