CIF file written using JARVIS-Tools package.
data_YbTaO4
_symmetry_space_group_name_H-M  'P2/c'
_cell_length_a       5.1324
_cell_length_b       5.39721
_cell_length_c       5.35984
_cell_angle_alpha    90
_cell_angle_beta     94.7293
_cell_angle_gamma    90

_symmetry_Int_Tables_number  13
_chemical_formula_structural  YbTaO4
_chemical_formula_sum  Yb2Ta2O8
_cell_volume  147.9652638348696
_cell_formula_units_Z  2
loop_
  _symmetry_equiv_pos_site_id
 _symmetry_equiv_pos_as_xyz
 1  'x, y, z'
loop_
 _atom_site_type_symbol
 _atom_site_label
 _atom_site_symmetry_multiplicity
 _atom_site_fract_x
 _atom_site_fract_y
 _atom_site_fract_z
 _atom_site_fract_occupancy
 O  O1  1  0.26952  0.55569  0.97898  1
 O  O2  1  0.73048  0.55569  0.52102  1
 O  O3  1  0.73048  0.44431  0.02102  1
 O  O4  1  0.26952  0.44431  0.47898  1
 O  O5  1  0.73938  0.06860  0.41289  1
 O  O6  1  0.26062  0.06860  0.08711  1
 O  O7  1  0.26062  0.93140  0.58711  1
 O  O8  1  0.73938  0.93140  0.91289  1
 Ta  Ta1  1  0.50000  0.70812  0.75000  1
 Ta  Ta2  1  0.50000  0.29188  0.25000  1
 Yb  Yb1  1  0.00000  0.75989  0.25000  1
 Yb  Yb2  1  0.00000  0.24011  0.75000  1
