CIF file written using JARVIS-Tools package.
data_Ho2TiO5
_symmetry_space_group_name_H-M  'C2/c'
_cell_length_a       6.42498
_cell_length_b       6.42498
_cell_length_c       7.44883
_cell_angle_alpha    68.0658
_cell_angle_beta     111.934
_cell_angle_gamma    131.862

_symmetry_Int_Tables_number  15
_chemical_formula_structural  Ho2TiO5
_chemical_formula_sum  Ho4Ti2O0
_cell_volume  208.96339521326377
_cell_formula_units_Z  2
loop_
  _symmetry_equiv_pos_site_id
 _symmetry_equiv_pos_as_xyz
 1  'x, y, z'
loop_
 _atom_site_type_symbol
 _atom_site_label
 _atom_site_symmetry_multiplicity
 _atom_site_fract_x
 _atom_site_fract_y
 _atom_site_fract_z
 _atom_site_fract_occupancy
 Ho  Ho1  1  0.33914  0.62351  0.73383  1
 Ho  Ho2  1  0.37649  0.66086  0.23383  1
 Ho  Ho3  1  0.62351  0.33914  0.76617  1
 Ho  Ho4  1  0.66086  0.37649  0.26617  1
 O  O1  1  0.00935  0.67319  0.63673  1
 O  O2  1  0.32681  0.99065  0.13673  1
 O  O3  1  0.60984  0.75947  0.53709  1
 O  O4  1  0.16246  0.16246  0.75000  1
 O  O5  1  0.75947  0.60984  0.96291  1
 O  O6  1  0.24053  0.39016  0.03709  1
 O  O7  1  0.83754  0.83754  0.25000  1
 O  O8  1  0.39016  0.24053  0.46291  1
 O  O9  1  0.67319  0.00935  0.86327  1
 O  O10  1  0.99065  0.32681  0.36327  1
 Ti  Ti1  1  -0.00000  -0.00000  0.50000  1
 Ti  Ti2  1  0.00000  0.00000  0.00000  1
