CIF file written using JARVIS-Tools package.
data_LiZrO2
_symmetry_space_group_name_H-M  'I4_1/amd'
_cell_length_a       5.40065
_cell_length_b       5.40065
_cell_length_c       5.40065
_cell_angle_alpha    132.729
_cell_angle_beta     132.729
_cell_angle_gamma    69.0797

_symmetry_Int_Tables_number  141
_chemical_formula_structural  LiZrO2
_chemical_formula_sum  Li2Zr2O4
_cell_volume  83.42384598238448
_cell_formula_units_Z  2
loop_
  _symmetry_equiv_pos_site_id
 _symmetry_equiv_pos_as_xyz
 1  'x, y, z'
loop_
 _atom_site_type_symbol
 _atom_site_label
 _atom_site_symmetry_multiplicity
 _atom_site_fract_x
 _atom_site_fract_y
 _atom_site_fract_z
 _atom_site_fract_occupancy
 Li  Li1  1  0.50000  0.50000  0.00000  1
 Li  Li2  1  0.25000  0.75000  0.50000  1
 O  O1  1  0.25612  0.25612  0.00000  1
 O  O2  1  0.74388  0.74388  0.00000  1
 O  O3  1  0.49388  0.99388  0.50000  1
 O  O4  1  0.00612  0.50612  0.50000  1
 Zr  Zr1  1  0.00000  0.00000  0.00000  1
 Zr  Zr2  1  0.75000  0.25000  0.50000  1
