CIF file written using JARVIS-Tools package.
data_AgAuF4
_symmetry_space_group_name_H-M  'I4/mcm'
_cell_length_a       5.76117
_cell_length_b       5.76116
_cell_length_c       6.77225
_cell_angle_alpha    115.173
_cell_angle_beta     115.173
_cell_angle_gamma    90

_symmetry_Int_Tables_number  140
_chemical_formula_structural  AgAuF4
_chemical_formula_sum  Ag2Au2F8
_cell_volume  179.56254375969016
_cell_formula_units_Z  2
loop_
  _symmetry_equiv_pos_site_id
 _symmetry_equiv_pos_as_xyz
 1  'x, y, z'
loop_
 _atom_site_type_symbol
 _atom_site_label
 _atom_site_symmetry_multiplicity
 _atom_site_fract_x
 _atom_site_fract_y
 _atom_site_fract_z
 _atom_site_fract_occupancy
 Ag  Ag1  1  0.25000  0.25000  0.50000  1
 Ag  Ag2  1  0.75000  0.75000  0.50000  1
 Au  Au1  1  -0.00000  0.50000  -0.00000  1
 Au  Au2  1  0.50000  -0.00000  -0.00000  1
 F  F1  1  0.69893  0.19893  0.74229  1
 F  F2  1  0.95664  0.45664  0.25771  1
 F  F3  1  0.30107  0.80107  0.25771  1
 F  F4  1  0.45664  0.30107  0.25771  1
 F  F5  1  0.04336  0.54336  0.74229  1
 F  F6  1  0.19893  0.04336  0.74229  1
 F  F7  1  0.54336  0.69893  0.74229  1
 F  F8  1  0.80107  0.95664  0.25771  1
