CIF file written using JARVIS-Tools package.
data_AsH3CNOF9
_symmetry_space_group_name_H-M  'P-1'
_cell_length_a       5.004
_cell_length_b       8.23237
_cell_length_c       8.83258
_cell_angle_alpha    89.4121
_cell_angle_beta     95.9126
_cell_angle_gamma    101.003

_symmetry_Int_Tables_number  2
_chemical_formula_structural  AsH3CNOF9
_chemical_formula_sum  As2H6C2N2O2F8
_cell_volume  355.25138385699165
_cell_formula_units_Z  2
loop_
  _symmetry_equiv_pos_site_id
 _symmetry_equiv_pos_as_xyz
 1  'x, y, z'
loop_
 _atom_site_type_symbol
 _atom_site_label
 _atom_site_symmetry_multiplicity
 _atom_site_fract_x
 _atom_site_fract_y
 _atom_site_fract_z
 _atom_site_fract_occupancy
 As  As1  1  0.96611  0.75060  0.66093  1
 As  As2  1  0.03389  0.24940  0.33907  1
 C  C1  1  0.71158  0.22633  0.87371  1
 C  C2  1  0.28842  0.77367  0.12629  1
 F  F1  1  0.19393  0.93841  0.72223  1
 F  F2  1  0.80607  0.06159  0.27777  1
 F  F3  1  0.74117  0.56180  0.59694  1
 F  F4  1  0.25883  0.43820  0.40306  1
 F  F5  1  0.16942  0.26397  0.16360  1
 F  F6  1  0.10253  0.76798  0.48086  1
 F  F7  1  0.71831  0.86405  0.58364  1
 F  F8  1  0.89747  0.23202  0.51914  1
 F  F9  1  0.21790  0.63783  0.72895  1
 F  F10  1  0.78210  0.36217  0.27105  1
 F  F11  1  0.83058  0.73603  0.83640  1
 F  F12  1  0.13672  0.62403  0.09736  1
 F  F13  1  0.45336  0.81853  0.01796  1
 F  F14  1  0.13206  0.88604  0.14208  1
 F  F15  1  0.28169  0.13595  0.41636  1
 F  F16  1  0.86794  0.11396  0.85792  1
 F  F17  1  0.54664  0.18147  0.98204  1
 F  F18  1  0.86328  0.37597  0.90264  1
 H  H1  1  0.45532  0.45247  0.69785  1
 H  H2  1  0.54468  0.54753  0.30215  1
 H  H3  1  0.41003  0.11610  0.70177  1
 H  H4  1  0.58997  0.88390  0.29823  1
 H  H5  1  0.66186  0.26117  0.63514  1
 H  H6  1  0.33814  0.73883  0.36486  1
 N  N1  1  0.46344  0.76720  0.27561  1
 N  N2  1  0.53656  0.23280  0.72439  1
 O  O1  1  0.36078  0.34535  0.73675  1
 O  O2  1  0.63922  0.65465  0.26325  1
