CIF file written using JARVIS-Tools package.
data_Nb3O7F
_symmetry_space_group_name_H-M  'Cmmm'
_cell_length_a       6.34448
_cell_length_b       6.34448
_cell_length_c       3.9044
_cell_angle_alpha    90
_cell_angle_beta     90
_cell_angle_gamma    62.1088

_symmetry_Int_Tables_number  65
_chemical_formula_structural  Nb3O7F
_chemical_formula_sum  Nb3O7F
_cell_volume  138.90495720366619
_cell_formula_units_Z  1
loop_
  _symmetry_equiv_pos_site_id
 _symmetry_equiv_pos_as_xyz
 1  'x, y, z'
loop_
 _atom_site_type_symbol
 _atom_site_label
 _atom_site_symmetry_multiplicity
 _atom_site_fract_x
 _atom_site_fract_y
 _atom_site_fract_z
 _atom_site_fract_occupancy
 F  F1  1  0.50000  0.50000  0.00000  1
 Nb  Nb1  1  0.00000  0.00000  0.00000  1
 Nb  Nb2  1  0.30203  0.30203  0.00000  1
 Nb  Nb3  1  0.69797  0.69797  0.00000  1
 O  O1  1  0.04528  0.66220  0.00000  1
 O  O2  1  0.33780  0.95472  0.00000  1
 O  O3  1  0.00000  0.00000  0.50000  1
 O  O4  1  0.31428  0.31428  0.50000  1
 O  O5  1  0.68572  0.68572  0.50000  1
 O  O6  1  0.95472  0.33780  0.00000  1
 O  O7  1  0.66220  0.04528  0.00000  1
