CIF file written using JARVIS-Tools package.
data_Mg2SiO4
_symmetry_space_group_name_H-M  'Fd-3m'
_cell_length_a       5.74371
_cell_length_b       5.74371
_cell_length_c       5.74371
_cell_angle_alpha    60
_cell_angle_beta     60
_cell_angle_gamma    59.9999

_symmetry_Int_Tables_number  227
_chemical_formula_structural  Mg2SiO4
_chemical_formula_sum  Mg4Si2O8
_cell_volume  133.98714571770375
_cell_formula_units_Z  2
loop_
  _symmetry_equiv_pos_site_id
 _symmetry_equiv_pos_as_xyz
 1  'x, y, z'
loop_
 _atom_site_type_symbol
 _atom_site_label
 _atom_site_symmetry_multiplicity
 _atom_site_fract_x
 _atom_site_fract_y
 _atom_site_fract_z
 _atom_site_fract_occupancy
 Mg  Mg1  1  0.50000  0.50000  0.50000  1
 Mg  Mg2  1  0.50000  0.50000  0.00000  1
 Mg  Mg3  1  0.50000  0.00000  0.50000  1
 Mg  Mg4  1  0.00000  0.50000  0.50000  1
 O  O1  1  0.75547  0.75547  0.75547  1
 O  O2  1  0.24453  0.24453  0.76642  1
 O  O3  1  0.24453  0.76642  0.24453  1
 O  O4  1  0.76642  0.24453  0.24453  1
 O  O5  1  0.75547  0.23358  0.75547  1
 O  O6  1  0.23358  0.75547  0.75547  1
 O  O7  1  0.24453  0.24453  0.24453  1
 O  O8  1  0.75547  0.75547  0.23358  1
 Si  Si1  1  0.87500  0.87500  0.87500  1
 Si  Si2  1  0.12500  0.12500  0.12500  1
