CIF file written using JARVIS-Tools package.
data_N2O
_symmetry_space_group_name_H-M  'Pa-3'
_cell_length_a       5.58626
_cell_length_b       5.58626
_cell_length_c       5.58626
_cell_angle_alpha    90
_cell_angle_beta     90
_cell_angle_gamma    90

_symmetry_Int_Tables_number  205
_chemical_formula_structural  N2O
_chemical_formula_sum  N8O4
_cell_volume  174.32675293467383
_cell_formula_units_Z  4
loop_
  _symmetry_equiv_pos_site_id
 _symmetry_equiv_pos_as_xyz
 1  'x, y, z'
loop_
 _atom_site_type_symbol
 _atom_site_label
 _atom_site_symmetry_multiplicity
 _atom_site_fract_x
 _atom_site_fract_y
 _atom_site_fract_z
 _atom_site_fract_occupancy
 N  N1  1  0.12338  0.37662  0.62338  1
 N  N2  1  0.37662  0.62338  0.12338  1
 N  N3  1  0.62338  0.12338  0.37662  1
 N  N4  1  0.87662  0.87662  0.87662  1
 N  N5  1  0.12338  0.12338  0.12338  1
 N  N6  1  0.37662  0.87662  0.62338  1
 N  N7  1  0.62338  0.37662  0.87662  1
 N  N8  1  0.87662  0.62338  0.37662  1
 O  O1  1  0.00000  0.50000  0.50000  1
 O  O2  1  0.50000  0.50000  0.00000  1
 O  O3  1  0.50000  0.00000  0.50000  1
 O  O4  1  0.00000  0.00000  0.00000  1
