CIF file written using JARVIS-Tools package.
data_Zn2PtO4
_symmetry_space_group_name_H-M  'Imma'
_cell_length_a       6.13977
_cell_length_b       6.19454
_cell_length_c       6.13976
_cell_angle_alpha    59.7044
_cell_angle_beta     57.8774
_cell_angle_gamma    59.7044

_symmetry_Int_Tables_number  74
_chemical_formula_structural  Zn2PtO4
_chemical_formula_sum  Zn4Pt2O8
_cell_volume  161.60248359140903
_cell_formula_units_Z  2
loop_
  _symmetry_equiv_pos_site_id
 _symmetry_equiv_pos_as_xyz
 1  'x, y, z'
loop_
 _atom_site_type_symbol
 _atom_site_label
 _atom_site_symmetry_multiplicity
 _atom_site_fract_x
 _atom_site_fract_y
 _atom_site_fract_z
 _atom_site_fract_occupancy
 O  O1  1  0.39264  0.37549  0.39264  1
 O  O2  1  0.39264  0.83923  0.39264  1
 O  O3  1  0.39895  0.37419  0.85266  1
 O  O4  1  0.85266  0.37419  0.39895  1
 O  O5  1  0.39734  0.87581  0.85105  1
 O  O6  1  0.85736  0.41077  0.85736  1
 O  O7  1  0.85105  0.87581  0.39734  1
 O  O8  1  0.85736  0.87451  0.85736  1
 Pt  Pt1  1  0.62500  0.12500  0.62500  1
 Pt  Pt2  1  0.62500  0.62500  0.62500  1
 Zn  Zn1  1  0.97622  0.02378  0.97622  1
 Zn  Zn2  1  0.27378  0.22622  0.27378  1
 Zn  Zn3  1  0.12500  0.62500  0.62500  1
 Zn  Zn4  1  0.62500  0.62500  0.12500  1
