CIF file written using JARVIS-Tools package.
data_B4PbO7
_symmetry_space_group_name_H-M  'Pmn2_1'
_cell_length_a       4.27076
_cell_length_b       4.48054
_cell_length_c       10.908
_cell_angle_alpha    90
_cell_angle_beta     90
_cell_angle_gamma    90

_symmetry_Int_Tables_number  31
_chemical_formula_structural  B4PbO7
_chemical_formula_sum  B8Pb2O4
_cell_volume  208.72890142182362
_cell_formula_units_Z  2
loop_
  _symmetry_equiv_pos_site_id
 _symmetry_equiv_pos_as_xyz
 1  'x, y, z'
loop_
 _atom_site_type_symbol
 _atom_site_label
 _atom_site_symmetry_multiplicity
 _atom_site_fract_x
 _atom_site_fract_y
 _atom_site_fract_z
 _atom_site_fract_occupancy
 B  B1  1  0.99789  0.17665  0.24853  1
 B  B2  1  0.49789  0.82335  0.25147  1
 B  B3  1  0.02373  0.67429  0.37813  1
 B  B4  1  0.52373  0.32571  0.12187  1
 B  B5  1  0.52373  0.32571  0.87813  1
 B  B6  1  0.02373  0.67429  0.62187  1
 B  B7  1  0.49789  0.82335  0.74853  1
 B  B8  1  0.99789  0.17665  0.75147  1
 O  O1  1  0.45127  0.63940  0.14438  1
 O  O2  1  0.35629  0.73017  0.63676  1
 O  O3  1  0.85629  0.26983  0.13676  1
 O  O4  1  0.85629  0.26983  0.86324  1
 O  O5  1  0.85213  0.87148  0.71970  1
 O  O6  1  0.35629  0.73017  0.36324  1
 O  O7  1  0.35213  0.12852  0.21970  1
 O  O8  1  0.91714  0.76491  0.50000  1
 O  O9  1  0.95127  0.36060  0.64438  1
 O  O10  1  0.45127  0.63940  0.85562  1
 O  O11  1  0.35213  0.12852  0.78030  1
 O  O12  1  0.41714  0.23509  0.00000  1
 O  O13  1  0.85213  0.87148  0.28030  1
 O  O14  1  0.95127  0.36060  0.35562  1
 Pb  Pb1  1  0.02605  0.80120  0.00000  1
 Pb  Pb2  1  0.52605  0.19880  0.50000  1
