CIF file written using JARVIS-Tools package.
data_Mg2NF
_symmetry_space_group_name_H-M  'I4_1/amd'
_cell_length_a       4.20088
_cell_length_b       4.20088
_cell_length_c       5.85357
_cell_angle_alpha    111.028
_cell_angle_beta     111.028
_cell_angle_gamma    90

_symmetry_Int_Tables_number  141
_chemical_formula_structural  Mg2NF
_chemical_formula_sum  Mg4N2F2
_cell_volume  89.01094036150381
_cell_formula_units_Z  2
loop_
  _symmetry_equiv_pos_site_id
 _symmetry_equiv_pos_as_xyz
 1  'x, y, z'
loop_
 _atom_site_type_symbol
 _atom_site_label
 _atom_site_symmetry_multiplicity
 _atom_site_fract_x
 _atom_site_fract_y
 _atom_site_fract_z
 _atom_site_fract_occupancy
 F  F1  1  0.37500  0.62500  0.75000  1
 F  F2  1  0.62500  0.37500  0.25000  1
 Mg  Mg1  1  0.08755  0.33755  0.17510  1
 Mg  Mg2  1  0.33755  0.08755  0.67510  1
 Mg  Mg3  1  0.91245  0.66245  0.82490  1
 Mg  Mg4  1  0.66245  0.91245  0.32490  1
 N  N1  1  0.87500  0.12500  0.75000  1
 N  N2  1  0.12500  0.87500  0.25000  1
