CIF file written using JARVIS-Tools package.
data_USb2O6
_symmetry_space_group_name_H-M  'C2/m'
_cell_length_a       3.99085
_cell_length_b       5.18653
_cell_length_c       7.02487
_cell_angle_alpha    104.253
_cell_angle_beta     106.502
_cell_angle_gamma    90

_symmetry_Int_Tables_number  12
_chemical_formula_structural  USb2O6
_chemical_formula_sum  USb2O6
_cell_volume  134.74142355020606
_cell_formula_units_Z  1
loop_
  _symmetry_equiv_pos_site_id
 _symmetry_equiv_pos_as_xyz
 1  'x, y, z'
loop_
 _atom_site_type_symbol
 _atom_site_label
 _atom_site_symmetry_multiplicity
 _atom_site_fract_x
 _atom_site_fract_y
 _atom_site_fract_z
 _atom_site_fract_occupancy
 O  O1  1  0.41044  0.15961  0.82088  1
 O  O2  1  0.58956  0.84039  0.17912  1
 O  O3  1  0.69344  0.40526  0.38688  1
 O  O4  1  0.06424  0.36743  0.12848  1
 O  O5  1  0.93576  0.63257  0.87152  1
 O  O6  1  0.30656  0.59474  0.61312  1
 Sb  Sb1  1  0.80981  0.76749  0.61962  1
 Sb  Sb2  1  0.19019  0.23251  0.38038  1
 U  U1  1  0.50000  0.50000  -0.00000  1
