CIF file written using JARVIS-Tools package.
data_Sr2N
_symmetry_space_group_name_H-M  'R-3m'
_cell_length_a       7.23397
_cell_length_b       7.23397
_cell_length_c       7.23397
_cell_angle_alpha    30.6833
_cell_angle_beta     30.6833
_cell_angle_gamma    30.6833

_symmetry_Int_Tables_number  166
_chemical_formula_structural  Sr2N
_chemical_formula_sum  Sr2N
_cell_volume  87.40565176800384
_cell_formula_units_Z  1
loop_
  _symmetry_equiv_pos_site_id
 _symmetry_equiv_pos_as_xyz
 1  'x, y, z'
loop_
 _atom_site_type_symbol
 _atom_site_label
 _atom_site_symmetry_multiplicity
 _atom_site_fract_x
 _atom_site_fract_y
 _atom_site_fract_z
 _atom_site_fract_occupancy
 N  N1  1  0.00000  0.00000  0.00000  1
 Sr  Sr1  1  0.26677  0.26677  0.26677  1
 Sr  Sr2  1  0.73323  0.73323  0.73323  1
