CIF file written using JARVIS-Tools package.
data_HfSnS3
_symmetry_space_group_name_H-M  'Pnma'
_cell_length_a       3.7189
_cell_length_b       9.24874
_cell_length_c       13.8917
_cell_angle_alpha    90
_cell_angle_beta     90
_cell_angle_gamma    90

_symmetry_Int_Tables_number  62
_chemical_formula_structural  HfSnS3
_chemical_formula_sum  Hf4Sn4S2
_cell_volume  477.807647761873
_cell_formula_units_Z  4
loop_
  _symmetry_equiv_pos_site_id
 _symmetry_equiv_pos_as_xyz
 1  'x, y, z'
loop_
 _atom_site_type_symbol
 _atom_site_label
 _atom_site_symmetry_multiplicity
 _atom_site_fract_x
 _atom_site_fract_y
 _atom_site_fract_z
 _atom_site_fract_occupancy
 Hf  Hf1  1  0.75000  0.83778  0.04889  1
 Hf  Hf2  1  0.25000  0.16222  0.95111  1
 Hf  Hf3  1  0.75000  0.33778  0.45111  1
 Hf  Hf4  1  0.25000  0.66222  0.54889  1
 S  S1  1  0.25000  0.51201  0.39355  1
 S  S2  1  0.75000  0.23069  0.28444  1
 S  S3  1  0.25000  0.01201  0.10645  1
 S  S4  1  0.75000  0.98799  0.89355  1
 S  S5  1  0.75000  0.48799  0.60645  1
 S  S6  1  0.75000  0.32760  0.00838  1
 S  S7  1  0.25000  0.17240  0.50838  1
 S  S8  1  0.75000  0.73069  0.21556  1
 S  S9  1  0.25000  0.67240  0.99162  1
 S  S10  1  0.25000  0.26931  0.78444  1
 S  S11  1  0.75000  0.82760  0.49162  1
 S  S12  1  0.25000  0.76931  0.71556  1
 Sn  Sn1  1  0.25000  0.03889  0.32827  1
 Sn  Sn2  1  0.75000  0.96111  0.67173  1
 Sn  Sn3  1  0.25000  0.53889  0.17173  1
 Sn  Sn4  1  0.75000  0.46111  0.82827  1
