CIF file written using JARVIS-Tools package.
data_TiCo5O12
_symmetry_space_group_name_H-M  'C2/m'
_cell_length_a       4.92688
_cell_length_b       4.92713
_cell_length_c       8.76838
_cell_angle_alpha    84.6483
_cell_angle_beta     79.2487
_cell_angle_gamma    60.0015

_symmetry_Int_Tables_number  12
_chemical_formula_structural  TiCo5O12
_chemical_formula_sum  TiCo5O2
_cell_volume  181.10561701340117
_cell_formula_units_Z  1
loop_
  _symmetry_equiv_pos_site_id
 _symmetry_equiv_pos_as_xyz
 1  'x, y, z'
loop_
 _atom_site_type_symbol
 _atom_site_label
 _atom_site_symmetry_multiplicity
 _atom_site_fract_x
 _atom_site_fract_y
 _atom_site_fract_z
 _atom_site_fract_occupancy
 Co  Co1  1  0.16651  0.66697  0.50000  1
 Co  Co2  1  0.66666  0.66667  0.00000  1
 Co  Co3  1  0.33334  0.33333  -0.00000  1
 Co  Co4  1  0.83349  0.33303  0.50000  1
 Co  Co5  1  0.50000  -0.00000  0.50000  1
 O  O1  1  0.61452  0.34783  0.11343  1
 O  O2  1  -0.03766  0.65217  0.11343  1
 O  O3  1  0.38548  0.65217  0.88657  1
 O  O4  1  0.68983  0.00000  0.88657  1
 O  O5  1  0.53506  0.66669  0.39433  1
 O  O6  1  0.20175  0.33331  0.39433  1
 O  O7  1  0.86899  -0.00000  0.39271  1
 O  O8  1  0.79825  0.66669  0.60567  1
 O  O9  1  0.46494  0.33331  0.60567  1
 O  O10  1  0.31017  -0.00000  0.11343  1
 O  O11  1  0.03766  0.34783  0.88657  1
 O  O12  1  0.13101  0.00000  0.60729  1
 Ti  Ti1  1  0.00000  0.00000  0.00000  1
