CIF file written using JARVIS-Tools package.
data_BaH4O6
_symmetry_space_group_name_H-M  'C2/c'
_cell_length_a       6.04859
_cell_length_b       6.04859
_cell_length_c       6.37276
_cell_angle_alpha    86.9228
_cell_angle_beta     93.0772
_cell_angle_gamma    85.759

_symmetry_Int_Tables_number  15
_chemical_formula_structural  BaH4O6
_chemical_formula_sum  Ba2H8O2
_cell_volume  231.78706835827964
_cell_formula_units_Z  2
loop_
  _symmetry_equiv_pos_site_id
 _symmetry_equiv_pos_as_xyz
 1  'x, y, z'
loop_
 _atom_site_type_symbol
 _atom_site_label
 _atom_site_symmetry_multiplicity
 _atom_site_fract_x
 _atom_site_fract_y
 _atom_site_fract_z
 _atom_site_fract_occupancy
 Ba  Ba1  1  0.80660  0.80660  0.75000  1
 Ba  Ba2  1  0.19340  0.19340  0.25000  1
 H  H1  1  0.98447  0.67083  0.26370  1
 H  H2  1  0.67083  0.98447  0.23630  1
 H  H3  1  0.01553  0.32917  0.73630  1
 H  H4  1  0.32917  0.01553  0.76370  1
 H  H5  1  0.35673  0.73153  0.06840  1
 H  H6  1  0.73153  0.35673  0.43160  1
 H  H7  1  0.64327  0.26847  0.93160  1
 H  H8  1  0.26847  0.64327  0.56840  1
 O  O1  1  0.90381  0.52994  0.42169  1
 O  O2  1  0.77501  0.04776  0.35867  1
 O  O3  1  0.95224  0.22499  0.85867  1
 O  O4  1  0.22499  0.95224  0.64133  1
 O  O5  1  0.04776  0.77501  0.14133  1
 O  O6  1  0.47006  0.09619  0.92169  1
 O  O7  1  0.77240  0.37316  0.93711  1
 O  O8  1  0.37316  0.77240  0.56289  1
 O  O9  1  0.09619  0.47006  0.57831  1
 O  O10  1  0.22760  0.62684  0.06289  1
 O  O11  1  0.62684  0.22760  0.43711  1
 O  O12  1  0.52994  0.90381  0.07831  1
