CIF file written using JARVIS-Tools package.
data_Ba3Mn2O8
_symmetry_space_group_name_H-M  'R-3m'
_cell_length_a       7.93849
_cell_length_b       7.93849
_cell_length_c       7.93848
_cell_angle_alpha    42.4415
_cell_angle_beta     42.4415
_cell_angle_gamma    42.4415

_symmetry_Int_Tables_number  166
_chemical_formula_structural  Ba3Mn2O8
_chemical_formula_sum  Ba3Mn2O8
_cell_volume  206.27172292411933
_cell_formula_units_Z  1
loop_
  _symmetry_equiv_pos_site_id
 _symmetry_equiv_pos_as_xyz
 1  'x, y, z'
loop_
 _atom_site_type_symbol
 _atom_site_label
 _atom_site_symmetry_multiplicity
 _atom_site_fract_x
 _atom_site_fract_y
 _atom_site_fract_z
 _atom_site_fract_occupancy
 Ba  Ba1  1  0.79309  0.79309  0.79309  1
 Ba  Ba2  1  0.20691  0.20691  0.20691  1
 Ba  Ba3  1  0.00000  0.00000  0.00000  1
 Mn  Mn1  1  0.59260  0.59260  0.59260  1
 Mn  Mn2  1  0.40740  0.40740  0.40740  1
 O  O1  1  0.67079  0.67079  0.67079  1
 O  O2  1  0.32921  0.32921  0.32921  1
 O  O3  1  0.27326  0.75791  0.27326  1
 O  O4  1  0.75791  0.27326  0.27326  1
 O  O5  1  0.27326  0.27326  0.75791  1
 O  O6  1  0.72674  0.72674  0.24209  1
 O  O7  1  0.24209  0.72674  0.72674  1
 O  O8  1  0.72674  0.24209  0.72674  1
