CIF file written using JARVIS-Tools package.
data_LiCoSiO4
_symmetry_space_group_name_H-M  'Imma'
_cell_length_a       5.66342
_cell_length_b       5.53311
_cell_length_c       5.41267
_cell_angle_alpha    60.7176
_cell_angle_beta     90
_cell_angle_gamma    120.782

_symmetry_Int_Tables_number  74
_chemical_formula_structural  LiCoSiO4
_chemical_formula_sum  Li2Co2Si2O8
_cell_volume  119.7967924346676
_cell_formula_units_Z  2
loop_
  _symmetry_equiv_pos_site_id
 _symmetry_equiv_pos_as_xyz
 1  'x, y, z'
loop_
 _atom_site_type_symbol
 _atom_site_label
 _atom_site_symmetry_multiplicity
 _atom_site_fract_x
 _atom_site_fract_y
 _atom_site_fract_z
 _atom_site_fract_occupancy
 Co  Co1  1  0.00000  0.00000  0.00000  1
 Co  Co2  1  0.50000  0.00000  0.00000  1
 Li  Li1  1  -0.00000  0.50000  0.00000  1
 Li  Li2  1  -0.00000  0.50000  0.50000  1
 O  O1  1  0.25769  0.01539  0.23975  1
 O  O2  1  0.74231  0.98461  0.25514  1
 O  O3  1  0.26061  0.50644  0.24678  1
 O  O4  1  0.74584  0.50644  0.24678  1
 O  O5  1  0.25769  0.01539  0.74486  1
 O  O6  1  0.74231  0.98461  0.76025  1
 O  O7  1  0.73939  0.49356  0.75322  1
 O  O8  1  0.25416  0.49356  0.75322  1
 Si  Si1  1  0.38979  0.27958  0.36021  1
 Si  Si2  1  0.61021  0.72042  0.63979  1
