CIF file written using JARVIS-Tools package.
data_CI4
_symmetry_space_group_name_H-M  'I-42m'
_cell_length_a       6.15931
_cell_length_b       6.15931
_cell_length_c       6.51608
_cell_angle_alpha    118.205
_cell_angle_beta     118.205
_cell_angle_gamma    90

_symmetry_Int_Tables_number  121
_chemical_formula_structural  CI4
_chemical_formula_sum  CI4
_cell_volume  183.87103870350543
_cell_formula_units_Z  1
loop_
  _symmetry_equiv_pos_site_id
 _symmetry_equiv_pos_as_xyz
 1  'x, y, z'
loop_
 _atom_site_type_symbol
 _atom_site_label
 _atom_site_symmetry_multiplicity
 _atom_site_fract_x
 _atom_site_fract_y
 _atom_site_fract_z
 _atom_site_fract_occupancy
 C  C1  1  0.00000  0.00000  0.00000  1
 I  I1  1  0.33553  0.33553  0.26180  1
 I  I2  1  0.07373  0.66447  0.73820  1
 I  I3  1  0.66447  0.07373  0.73820  1
 I  I4  1  0.92627  0.92627  0.26180  1
