CIF file written using JARVIS-Tools package.
data_NaSnN
_symmetry_space_group_name_H-M  'P6_3mc'
_cell_length_a       3.36645
_cell_length_b       3.36645
_cell_length_c       10.8763
_cell_angle_alpha    90
_cell_angle_beta     90
_cell_angle_gamma    120

_symmetry_Int_Tables_number  186
_chemical_formula_structural  NaSnN
_chemical_formula_sum  Na2Sn2N2
_cell_volume  106.74708288850769
_cell_formula_units_Z  2
loop_
  _symmetry_equiv_pos_site_id
 _symmetry_equiv_pos_as_xyz
 1  'x, y, z'
loop_
 _atom_site_type_symbol
 _atom_site_label
 _atom_site_symmetry_multiplicity
 _atom_site_fract_x
 _atom_site_fract_y
 _atom_site_fract_z
 _atom_site_fract_occupancy
 N  N1  1  0.66667  0.33333  0.39939  1
 N  N2  1  0.33333  0.66667  0.89939  1
 Na  Na1  1  0.66667  0.33333  0.75615  1
 Na  Na2  1  0.33333  0.66667  0.25615  1
 Sn  Sn1  1  0.00000  0.00000  0.49982  1
 Sn  Sn2  1  0.00000  0.00000  -0.00018  1
