CIF file written using JARVIS-Tools package.
data_Ca3Fe2N4
_symmetry_space_group_name_H-M  'Imm2'
_cell_length_a       4.82861
_cell_length_b       5.89374
_cell_length_c       6.3587
_cell_angle_alpha    117.603
_cell_angle_beta     112.314
_cell_angle_gamma    89.9998

_symmetry_Int_Tables_number  44
_chemical_formula_structural  Ca3Fe2N4
_chemical_formula_sum  Ca3Fe2N4
_cell_volume  144.89785532739037
_cell_formula_units_Z  1
loop_
  _symmetry_equiv_pos_site_id
 _symmetry_equiv_pos_as_xyz
 1  'x, y, z'
loop_
 _atom_site_type_symbol
 _atom_site_label
 _atom_site_symmetry_multiplicity
 _atom_site_fract_x
 _atom_site_fract_y
 _atom_site_fract_z
 _atom_site_fract_occupancy
 Ca  Ca1  1  0.30539  0.33361  0.61251  1
 Ca  Ca2  1  0.68225  0.71044  0.36624  1
 Ca  Ca3  1  0.99381  0.28752  0.98936  1
 Fe  Fe1  1  0.60944  0.11739  0.22063  1
 Fe  Fe2  1  0.37817  0.88612  0.75809  1
 N  N1  1  0.77431  0.22148  0.55035  1
 N  N2  1  0.21333  0.66043  0.42839  1
 N  N3  1  0.49382  0.78131  0.98939  1
 N  N4  1  0.49380  0.23948  0.98933  1
