CIF file written using JARVIS-Tools package.
data_SrC2
_symmetry_space_group_name_H-M  'I4/mmm'
_cell_length_a       4.08953
_cell_length_b       4.08953
_cell_length_c       4.46234
_cell_angle_alpha    117.273
_cell_angle_beta     117.273
_cell_angle_gamma    90.0001

_symmetry_Int_Tables_number  139
_chemical_formula_structural  SrC2
_chemical_formula_sum  SrC2
_cell_volume  56.83893184250163
_cell_formula_units_Z  1
loop_
  _symmetry_equiv_pos_site_id
 _symmetry_equiv_pos_as_xyz
 1  'x, y, z'
loop_
 _atom_site_type_symbol
 _atom_site_label
 _atom_site_symmetry_multiplicity
 _atom_site_fract_x
 _atom_site_fract_y
 _atom_site_fract_z
 _atom_site_fract_occupancy
 C  C1  1  0.40755  0.40755  0.81510  1
 C  C2  1  0.59245  0.59245  0.18490  1
 Sr  Sr1  1  0.00000  0.00000  0.00000  1
