CIF file written using JARVIS-Tools package.
data_Sr3MnN3
_symmetry_space_group_name_H-M  'P6_3/m'
_cell_length_a       7.65718
_cell_length_b       7.65718
_cell_length_c       5.2519
_cell_angle_alpha    90
_cell_angle_beta     90
_cell_angle_gamma    120

_symmetry_Int_Tables_number  176
_chemical_formula_structural  Sr3MnN3
_chemical_formula_sum  Sr6Mn2N6
_cell_volume  266.67580704979383
_cell_formula_units_Z  2
loop_
  _symmetry_equiv_pos_site_id
 _symmetry_equiv_pos_as_xyz
 1  'x, y, z'
loop_
 _atom_site_type_symbol
 _atom_site_label
 _atom_site_symmetry_multiplicity
 _atom_site_fract_x
 _atom_site_fract_y
 _atom_site_fract_z
 _atom_site_fract_occupancy
 Mn  Mn1  1  0.33333  0.66667  0.25000  1
 Mn  Mn2  1  0.66667  0.33333  0.75000  1
 N  N1  1  0.88185  0.57062  0.75000  1
 N  N2  1  0.31123  0.88185  0.25000  1
 N  N3  1  0.57062  0.68877  0.25000  1
 N  N4  1  0.42938  0.31123  0.75000  1
 N  N5  1  0.68877  0.11815  0.75000  1
 N  N6  1  0.11815  0.42938  0.25000  1
 Sr  Sr1  1  0.63958  0.72763  0.75000  1
 Sr  Sr2  1  0.91196  0.63958  0.25000  1
 Sr  Sr3  1  0.72763  0.08804  0.25000  1
 Sr  Sr4  1  0.27237  0.91196  0.75000  1
 Sr  Sr5  1  0.08804  0.36042  0.75000  1
 Sr  Sr6  1  0.36042  0.27237  0.25000  1
