CIF file written using JARVIS-Tools package.
data_TlNO2
_symmetry_space_group_name_H-M  'P3_121'
_cell_length_a       5.5663
_cell_length_b       5.5663
_cell_length_c       7.39007
_cell_angle_alpha    90
_cell_angle_beta     90
_cell_angle_gamma    120

_symmetry_Int_Tables_number  152
_chemical_formula_structural  TlNO2
_chemical_formula_sum  Tl3N3O6
_cell_volume  198.29581163680604
_cell_formula_units_Z  3
loop_
  _symmetry_equiv_pos_site_id
 _symmetry_equiv_pos_as_xyz
 1  'x, y, z'
loop_
 _atom_site_type_symbol
 _atom_site_label
 _atom_site_symmetry_multiplicity
 _atom_site_fract_x
 _atom_site_fract_y
 _atom_site_fract_z
 _atom_site_fract_occupancy
 N  N1  1  -0.00000  0.30573  0.16667  1
 N  N2  1  0.30573  -0.00000  0.83333  1
 N  N3  1  0.69427  0.69427  0.50000  1
 O  O1  1  0.48865  0.12037  0.95496  1
 O  O2  1  0.63172  0.51135  0.62163  1
 O  O3  1  0.87963  0.36828  0.28830  1
 O  O4  1  0.51135  0.63172  0.37837  1
 O  O5  1  0.12037  0.48865  0.04504  1
 O  O6  1  0.36828  0.87963  0.71170  1
 Tl  Tl1  1  0.29256  0.00000  0.33333  1
 Tl  Tl2  1  0.00000  0.29256  0.66667  1
 Tl  Tl3  1  0.70744  0.70744  0.00000  1
