CIF file written using JARVIS-Tools package.
data_MgTiO3
_symmetry_space_group_name_H-M  'R-3'
_cell_length_a       5.50371
_cell_length_b       5.50371
_cell_length_c       5.50371
_cell_angle_alpha    55.0545
_cell_angle_beta     55.0545
_cell_angle_gamma    55.0544

_symmetry_Int_Tables_number  148
_chemical_formula_structural  MgTiO3
_chemical_formula_sum  Mg2Ti2O6
_cell_volume  104.32189186453516
_cell_formula_units_Z  2
loop_
  _symmetry_equiv_pos_site_id
 _symmetry_equiv_pos_as_xyz
 1  'x, y, z'
loop_
 _atom_site_type_symbol
 _atom_site_label
 _atom_site_symmetry_multiplicity
 _atom_site_fract_x
 _atom_site_fract_y
 _atom_site_fract_z
 _atom_site_fract_occupancy
 Mg  Mg1  1  0.35462  0.35462  0.35462  1
 Mg  Mg2  1  0.64538  0.64538  0.64538  1
 O  O1  1  0.04879  0.77286  0.43761  1
 O  O2  1  0.77286  0.43761  0.04879  1
 O  O3  1  0.43761  0.04879  0.77286  1
 O  O4  1  0.95121  0.22714  0.56239  1
 O  O5  1  0.56239  0.95121  0.22714  1
 O  O6  1  0.22714  0.56239  0.95121  1
 Ti  Ti1  1  0.14376  0.14376  0.14376  1
 Ti  Ti2  1  0.85624  0.85624  0.85624  1
