CIF file written using JARVIS-Tools package.
data_MgAu2F8
_symmetry_space_group_name_H-M  'P2_1/c'
_cell_length_a       5.52695
_cell_length_b       5.5411
_cell_length_c       10.748
_cell_angle_alpha    90
_cell_angle_beta     109.435
_cell_angle_gamma    90

_symmetry_Int_Tables_number  14
_chemical_formula_structural  MgAu2F8
_chemical_formula_sum  Mg2Au4F6
_cell_volume  310.40635472603765
_cell_formula_units_Z  2
loop_
  _symmetry_equiv_pos_site_id
 _symmetry_equiv_pos_as_xyz
 1  'x, y, z'
loop_
 _atom_site_type_symbol
 _atom_site_label
 _atom_site_symmetry_multiplicity
 _atom_site_fract_x
 _atom_site_fract_y
 _atom_site_fract_z
 _atom_site_fract_occupancy
 Au  Au1  1  0.87184  0.70081  0.33781  1
 Au  Au2  1  0.12816  0.20081  0.16219  1
 Au  Au3  1  0.12816  0.29919  0.66219  1
 Au  Au4  1  0.87184  0.79919  0.83781  1
 F  F1  1  0.66726  0.70523  0.45832  1
 F  F2  1  0.57185  0.59352  0.19108  1
 F  F3  1  0.42815  0.09352  0.30892  1
 F  F4  1  0.42815  0.40648  0.80892  1
 F  F5  1  0.57185  0.90648  0.69108  1
 F  F6  1  0.17660  0.80977  0.48109  1
 F  F7  1  0.82340  0.19023  0.51891  1
 F  F8  1  0.17660  0.69023  0.98109  1
 F  F9  1  0.82340  0.30977  0.01891  1
 F  F10  1  0.33274  0.20523  0.04168  1
 F  F11  1  0.66726  0.79477  0.95832  1
 F  F12  1  0.07267  0.80761  0.72149  1
 F  F13  1  0.92733  0.30761  0.77851  1
 F  F14  1  0.92733  0.19239  0.27851  1
 F  F15  1  0.07267  0.69239  0.22149  1
 F  F16  1  0.33274  0.29477  0.54168  1
 Mg  Mg1  1  0.50000  0.00000  0.50000  1
 Mg  Mg2  1  0.50000  0.50000  0.00000  1
