CIF file written using JARVIS-Tools package.
data_LiCoSiO4
_symmetry_space_group_name_H-M  'Cmcm'
_cell_length_a       4.84085
_cell_length_b       4.84085
_cell_length_c       5.94386
_cell_angle_alpha    90
_cell_angle_beta     90
_cell_angle_gamma    65.5572

_symmetry_Int_Tables_number  63
_chemical_formula_structural  LiCoSiO4
_chemical_formula_sum  Li2Co2Si2O8
_cell_volume  126.80375173504045
_cell_formula_units_Z  2
loop_
  _symmetry_equiv_pos_site_id
 _symmetry_equiv_pos_as_xyz
 1  'x, y, z'
loop_
 _atom_site_type_symbol
 _atom_site_label
 _atom_site_symmetry_multiplicity
 _atom_site_fract_x
 _atom_site_fract_y
 _atom_site_fract_z
 _atom_site_fract_occupancy
 Co  Co1  1  0.00000  0.00000  0.00000  1
 Co  Co2  1  0.00000  0.00000  0.50000  1
 Li  Li1  1  0.33203  0.33203  0.75000  1
 Li  Li2  1  0.66797  0.66797  0.25000  1
 O  O1  1  0.27272  0.77100  0.75000  1
 O  O2  1  0.22900  0.72728  0.25000  1
 O  O3  1  0.23230  0.23230  0.02516  1
 O  O4  1  0.23230  0.23230  0.47484  1
 O  O5  1  0.76770  0.76770  0.52516  1
 O  O6  1  0.76770  0.76770  0.97484  1
 O  O7  1  0.72728  0.22900  0.25000  1
 O  O8  1  0.77100  0.27272  0.75000  1
 Si  Si1  1  0.34217  0.34217  0.25000  1
 Si  Si2  1  0.65783  0.65783  0.75000  1
