CIF file written using JARVIS-Tools package.
data_BaCeO3
_symmetry_space_group_name_H-M  'R-3c'
_cell_length_a       6.22932
_cell_length_b       6.22932
_cell_length_c       6.22933
_cell_angle_alpha    60.7947
_cell_angle_beta     60.7947
_cell_angle_gamma    60.7947

_symmetry_Int_Tables_number  167
_chemical_formula_structural  BaCeO3
_chemical_formula_sum  Ba2Ce2O6
_cell_volume  173.98927713377472
_cell_formula_units_Z  2
loop_
  _symmetry_equiv_pos_site_id
 _symmetry_equiv_pos_as_xyz
 1  'x, y, z'
loop_
 _atom_site_type_symbol
 _atom_site_label
 _atom_site_symmetry_multiplicity
 _atom_site_fract_x
 _atom_site_fract_y
 _atom_site_fract_z
 _atom_site_fract_occupancy
 Ba  Ba1  1  0.25000  0.25000  0.25000  1
 Ba  Ba2  1  0.75000  0.75000  0.75000  1
 Ce  Ce1  1  0.00000  0.00000  0.00000  1
 Ce  Ce2  1  0.50000  0.50000  0.50000  1
 O  O1  1  0.25000  0.81868  0.68132  1
 O  O2  1  0.81868  0.68132  0.25000  1
 O  O3  1  0.68132  0.25000  0.81868  1
 O  O4  1  0.75000  0.18132  0.31868  1
 O  O5  1  0.31868  0.75000  0.18132  1
 O  O6  1  0.18132  0.31868  0.75000  1
