CIF file written using JARVIS-Tools package.
data_Ce4ThO9
_symmetry_space_group_name_H-M  'I-4'
_cell_length_a       6.77883
_cell_length_b       5.59553
_cell_length_c       6.77883
_cell_angle_alpha    114.376
_cell_angle_beta     80.1925
_cell_angle_gamma    114.376

_symmetry_Int_Tables_number  82
_chemical_formula_structural  Ce4ThO9
_chemical_formula_sum  Ce4ThO9
_cell_volume  213.3293188028315
_cell_formula_units_Z  1
loop_
  _symmetry_equiv_pos_site_id
 _symmetry_equiv_pos_as_xyz
 1  'x, y, z'
loop_
 _atom_site_type_symbol
 _atom_site_label
 _atom_site_symmetry_multiplicity
 _atom_site_fract_x
 _atom_site_fract_y
 _atom_site_fract_z
 _atom_site_fract_occupancy
 Ce  Ce1  1  0.99916  0.98579  0.02025  1
 Ce  Ce2  1  0.42025  0.63446  0.80084  1
 Ce  Ce3  1  0.20084  0.76637  0.37975  1
 Ce  Ce4  1  0.77975  0.21338  0.59916  1
 O  O1  1  0.10000  0.65000  0.70000  1
 O  O2  1  0.31628  0.95277  0.09991  1
 O  O3  1  0.70009  0.56351  0.91628  1
 O  O4  1  0.46887  0.24748  0.52052  1
 O  O5  1  0.73113  0.05808  0.87948  1
 O  O6  1  0.49991  0.74714  0.48372  1
 O  O7  1  0.27948  0.42139  0.06887  1
 O  O8  1  0.92052  0.87305  0.33113  1
 O  O9  1  0.88372  0.33658  0.30009  1
 Th  Th1  1  0.60000  0.40000  0.20000  1
