CIF file written using JARVIS-Tools package.
data_MgGeO3
_symmetry_space_group_name_H-M  'R-3'
_cell_length_a       5.44324
_cell_length_b       5.44324
_cell_length_c       5.44323
_cell_angle_alpha    54.7303
_cell_angle_beta     54.7303
_cell_angle_gamma    54.7303

_symmetry_Int_Tables_number  148
_chemical_formula_structural  MgGeO3
_chemical_formula_sum  Mg2Ge2O6
_cell_volume  100.04230881242557
_cell_formula_units_Z  2
loop_
  _symmetry_equiv_pos_site_id
 _symmetry_equiv_pos_as_xyz
 1  'x, y, z'
loop_
 _atom_site_type_symbol
 _atom_site_label
 _atom_site_symmetry_multiplicity
 _atom_site_fract_x
 _atom_site_fract_y
 _atom_site_fract_z
 _atom_site_fract_occupancy
 Ge  Ge1  1  0.15266  0.15266  0.15266  1
 Ge  Ge2  1  0.84734  0.84734  0.84734  1
 Mg  Mg1  1  0.35844  0.35844  0.35844  1
 Mg  Mg2  1  0.64156  0.64156  0.64156  1
 O  O1  1  0.04667  0.77838  0.44082  1
 O  O2  1  0.77838  0.44082  0.04667  1
 O  O3  1  0.44082  0.04667  0.77838  1
 O  O4  1  0.95333  0.22162  0.55918  1
 O  O5  1  0.55918  0.95333  0.22162  1
 O  O6  1  0.22162  0.55918  0.95333  1
