CIF file written using JARVIS-Tools package.
data_RbCr5Se8
_symmetry_space_group_name_H-M  'C2/m'
_cell_length_a       3.6871
_cell_length_b       9.05128
_cell_length_c       9.61821
_cell_angle_alpha    104.241
_cell_angle_beta     101.05
_cell_angle_gamma    90

_symmetry_Int_Tables_number  12
_chemical_formula_structural  RbCr5Se8
_chemical_formula_sum  RbCr5Se8
_cell_volume  304.9802588725554
_cell_formula_units_Z  1
loop_
  _symmetry_equiv_pos_site_id
 _symmetry_equiv_pos_as_xyz
 1  'x, y, z'
loop_
 _atom_site_type_symbol
 _atom_site_label
 _atom_site_symmetry_multiplicity
 _atom_site_fract_x
 _atom_site_fract_y
 _atom_site_fract_z
 _atom_site_fract_occupancy
 Cr  Cr1  1  0.00000  0.00000  0.00000  1
 Cr  Cr2  1  0.29602  0.66454  0.59203  1
 Cr  Cr3  1  0.65829  0.97740  0.31657  1
 Cr  Cr4  1  0.34171  0.02260  0.68343  1
 Cr  Cr5  1  0.70398  0.33546  0.40797  1
 Rb  Rb1  1  0.50000  0.50000  -0.00000  1
 Se  Se1  1  0.23823  0.15725  0.47647  1
 Se  Se2  1  0.42518  0.84446  0.85036  1
 Se  Se3  1  0.57482  0.15554  0.14964  1
 Se  Se4  1  0.91325  0.17389  0.82650  1
 Se  Se5  1  0.08675  0.82611  0.17350  1
 Se  Se6  1  0.82995  0.50819  0.65991  1
 Se  Se7  1  0.17005  0.49181  0.34009  1
 Se  Se8  1  0.76177  0.84275  0.52353  1
