CIF file written using JARVIS-Tools package.
data_Sr3LiIrO6
_symmetry_space_group_name_H-M  'R-3c'
_cell_length_a       6.71914
_cell_length_b       6.71914
_cell_length_c       6.71914
_cell_angle_alpha    92.2505
_cell_angle_beta     92.2505
_cell_angle_gamma    92.2505

_symmetry_Int_Tables_number  167
_chemical_formula_structural  Sr3LiIrO6
_chemical_formula_sum  Sr6Li2Ir2O2
_cell_volume  302.6263243009481
_cell_formula_units_Z  2
loop_
  _symmetry_equiv_pos_site_id
 _symmetry_equiv_pos_as_xyz
 1  'x, y, z'
loop_
 _atom_site_type_symbol
 _atom_site_label
 _atom_site_symmetry_multiplicity
 _atom_site_fract_x
 _atom_site_fract_y
 _atom_site_fract_z
 _atom_site_fract_occupancy
 Ir  Ir1  1  0.00000  0.00000  0.00000  1
 Ir  Ir2  1  0.50000  0.50000  0.50000  1
 Li  Li1  1  0.25000  0.25000  0.25000  1
 Li  Li2  1  0.75000  0.75000  0.75000  1
 O  O1  1  0.21740  0.41422  0.54659  1
 O  O2  1  0.45341  0.78260  0.58578  1
 O  O3  1  0.04659  0.91422  0.71740  1
 O  O4  1  0.91422  0.71740  0.04659  1
 O  O5  1  0.71740  0.04659  0.91422  1
 O  O6  1  0.78260  0.58578  0.45341  1
 O  O7  1  0.58578  0.45341  0.78260  1
 O  O8  1  0.54659  0.21740  0.41422  1
 O  O9  1  0.28260  0.95341  0.08578  1
 O  O10  1  0.08578  0.28260  0.95341  1
 O  O11  1  0.41422  0.54659  0.21740  1
 O  O12  1  0.95341  0.08578  0.28260  1
 Sr  Sr1  1  0.60992  0.89008  0.25000  1
 Sr  Sr2  1  0.25000  0.60992  0.89008  1
 Sr  Sr3  1  0.10992  0.75000  0.39008  1
 Sr  Sr4  1  0.75000  0.39008  0.10992  1
 Sr  Sr5  1  0.39008  0.10992  0.75000  1
 Sr  Sr6  1  0.89008  0.25000  0.60992  1
