CIF file written using JARVIS-Tools package.
data_CdTeMoO6
_symmetry_space_group_name_H-M  'P-42_1m'
_cell_length_a       5.31696
_cell_length_b       5.31696
_cell_length_c       9.10501
_cell_angle_alpha    90
_cell_angle_beta     90
_cell_angle_gamma    90

_symmetry_Int_Tables_number  113
_chemical_formula_structural  CdTeMoO6
_chemical_formula_sum  Cd2Te2Mo2O2
_cell_volume  257.39919666657585
_cell_formula_units_Z  2
loop_
  _symmetry_equiv_pos_site_id
 _symmetry_equiv_pos_as_xyz
 1  'x, y, z'
loop_
 _atom_site_type_symbol
 _atom_site_label
 _atom_site_symmetry_multiplicity
 _atom_site_fract_x
 _atom_site_fract_y
 _atom_site_fract_z
 _atom_site_fract_occupancy
 Cd  Cd1  1  0.00000  0.00000  0.50000  1
 Cd  Cd2  1  0.50000  0.50000  0.50000  1
 Mo  Mo1  1  0.50000  0.00000  0.18313  1
 Mo  Mo2  1  0.00000  0.50000  0.81687  1
 O  O1  1  0.68170  0.18170  0.06731  1
 O  O2  1  0.31830  0.81830  0.06731  1
 O  O3  1  0.18170  0.31830  0.93269  1
 O  O4  1  0.80611  0.30611  0.37403  1
 O  O5  1  0.19389  0.69389  0.37403  1
 O  O6  1  0.21688  0.71688  0.71581  1
 O  O7  1  0.28312  0.21688  0.28419  1
 O  O8  1  0.78312  0.28312  0.71581  1
 O  O9  1  0.30611  0.19389  0.62597  1
 O  O10  1  0.81830  0.68170  0.93269  1
 O  O11  1  0.69389  0.80611  0.62597  1
 O  O12  1  0.71688  0.78312  0.28419  1
 Te  Te1  1  0.00000  0.50000  0.23717  1
 Te  Te2  1  0.50000  0.00000  0.76283  1
