CIF file written using JARVIS-Tools package.
data_Te2MoWSeS
_symmetry_space_group_name_H-M  'P3m1'
_cell_length_a       3.41616
_cell_length_b       3.41616
_cell_length_c       38.3434
_cell_angle_alpha    90
_cell_angle_beta     90
_cell_angle_gamma    120

_symmetry_Int_Tables_number  156
_chemical_formula_structural  Te2MoWSeS
_chemical_formula_sum  Te4Mo2W2Se2S2
_cell_volume  387.523005612243
_cell_formula_units_Z  2
loop_
  _symmetry_equiv_pos_site_id
 _symmetry_equiv_pos_as_xyz
 1  'x, y, z'
loop_
 _atom_site_type_symbol
 _atom_site_label
 _atom_site_symmetry_multiplicity
 _atom_site_fract_x
 _atom_site_fract_y
 _atom_site_fract_z
 _atom_site_fract_occupancy
 Mo  Mo1  1  0.33330  0.66660  0.09392  1
 Mo  Mo2  1  0.33332  0.66664  0.46962  1
 S  S1  1  0.33336  0.66673  0.32108  1
 S  S2  1  0.33336  0.66671  0.24247  1
 Se  Se1  1  0.66664  0.33328  0.42677  1
 Se  Se2  1  0.66665  0.33330  0.51250  1
 Te  Te1  1  0.33336  0.66672  0.70633  1
 Te  Te2  1  0.66664  0.33328  0.04541  1
 Te  Te3  1  0.66665  0.33330  0.14282  1
 Te  Te4  1  0.33335  0.66670  0.60848  1
 W  W1  1  0.66668  0.33337  0.28183  1
 W  W2  1  0.66669  0.33337  0.65752  1
