CIF file written using JARVIS-Tools package.
data_Ti2FeSe4
_symmetry_space_group_name_H-M  'C2/m'
_cell_length_a       3.57334
_cell_length_b       6.25663
_cell_length_c       6.9723
_cell_angle_alpha    116.652
_cell_angle_beta     104.848
_cell_angle_gamma    90

_symmetry_Int_Tables_number  12
_chemical_formula_structural  Ti2FeSe4
_chemical_formula_sum  Ti2FeSe4
_cell_volume  133.4676355018988
_cell_formula_units_Z  1
loop_
  _symmetry_equiv_pos_site_id
 _symmetry_equiv_pos_as_xyz
 1  'x, y, z'
loop_
 _atom_site_type_symbol
 _atom_site_label
 _atom_site_symmetry_multiplicity
 _atom_site_fract_x
 _atom_site_fract_y
 _atom_site_fract_z
 _atom_site_fract_occupancy
 Fe  Fe1  1  0.00000  0.00000  0.00000  1
 Se  Se1  1  0.62450  0.95419  0.24900  1
 Se  Se2  1  0.37550  0.04581  0.75100  1
 Se  Se3  1  0.88350  0.54860  0.76701  1
 Se  Se4  1  0.11650  0.45140  0.23299  1
 Ti  Ti1  1  0.74934  0.73145  0.49869  1
 Ti  Ti2  1  0.25066  0.26855  0.50131  1
