CIF file written using JARVIS-Tools package.
data_Sr2HfO4
_symmetry_space_group_name_H-M  'P4_2/ncm'
_cell_length_a       5.82619
_cell_length_b       5.82704
_cell_length_c       12.6407
_cell_angle_alpha    90
_cell_angle_beta     90
_cell_angle_gamma    90

_symmetry_Int_Tables_number  138
_chemical_formula_structural  Sr2HfO4
_chemical_formula_sum  Sr8Hf4O6
_cell_volume  429.14384052595966
_cell_formula_units_Z  4
loop_
  _symmetry_equiv_pos_site_id
 _symmetry_equiv_pos_as_xyz
 1  'x, y, z'
loop_
 _atom_site_type_symbol
 _atom_site_label
 _atom_site_symmetry_multiplicity
 _atom_site_fract_x
 _atom_site_fract_y
 _atom_site_fract_z
 _atom_site_fract_occupancy
 Hf  Hf1  1  0.00000  0.50000  0.50000  1
 Hf  Hf2  1  0.50000  0.50000  0.00000  1
 Hf  Hf3  1  0.50000  0.00000  0.50000  1
 Hf  Hf4  1  0.00000  0.00000  0.00000  1
 O  O1  1  0.75000  0.25000  0.00009  1
 O  O2  1  0.54260  0.95715  0.66347  1
 O  O3  1  0.04260  0.04285  0.83653  1
 O  O4  1  0.75000  0.75000  0.97442  1
 O  O5  1  0.75000  0.75000  0.47442  1
 O  O6  1  0.25000  0.75000  0.99991  1
 O  O7  1  0.25000  0.75000  0.49991  1
 O  O8  1  0.95740  0.95715  0.16347  1
 O  O9  1  0.95740  0.54285  0.66347  1
 O  O10  1  0.45740  0.45715  0.83653  1
 O  O11  1  0.04260  0.45715  0.33653  1
 O  O12  1  0.45740  0.04285  0.33653  1
 O  O13  1  0.25000  0.25000  0.52558  1
 O  O14  1  0.54260  0.54285  0.16347  1
 O  O15  1  0.25000  0.25000  0.02558  1
 O  O16  1  0.75000  0.25000  0.50009  1
 Sr  Sr1  1  0.01270  0.01272  0.35173  1
 Sr  Sr2  1  0.48730  0.01272  0.85173  1
 Sr  Sr3  1  0.01270  0.48728  0.85173  1
 Sr  Sr4  1  0.48730  0.48728  0.35173  1
 Sr  Sr5  1  0.51270  0.51272  0.64827  1
 Sr  Sr6  1  0.98730  0.51272  0.14827  1
 Sr  Sr7  1  0.51270  0.98728  0.14827  1
 Sr  Sr8  1  0.98730  0.98728  0.64827  1
