CIF file written using JARVIS-Tools package.
data_Li2CuF4
_symmetry_space_group_name_H-M  'I4_1/amd'
_cell_length_a       5.60386
_cell_length_b       5.60386
_cell_length_c       5.60386
_cell_angle_alpha    111.879
_cell_angle_beta     111.879
_cell_angle_gamma    104.756

_symmetry_Int_Tables_number  141
_chemical_formula_structural  Li2CuF4
_chemical_formula_sum  Li4Cu2F8
_cell_volume  134.78809683505656
_cell_formula_units_Z  2
loop_
  _symmetry_equiv_pos_site_id
 _symmetry_equiv_pos_as_xyz
 1  'x, y, z'
loop_
 _atom_site_type_symbol
 _atom_site_label
 _atom_site_symmetry_multiplicity
 _atom_site_fract_x
 _atom_site_fract_y
 _atom_site_fract_z
 _atom_site_fract_occupancy
 Cu  Cu1  1  0.12500  0.87500  0.25000  1
 Cu  Cu2  1  0.87500  0.12500  0.75000  1
 F  F1  1  0.21399  0.67002  0.95603  1
 F  F2  1  0.32998  0.78601  0.54397  1
 F  F3  1  0.21399  0.25796  0.54397  1
 F  F4  1  0.74204  0.78601  0.95603  1
 F  F5  1  0.25796  0.21399  0.04397  1
 F  F6  1  0.78601  0.74204  0.45603  1
 F  F7  1  0.67002  0.21399  0.45603  1
 F  F8  1  0.78601  0.32998  0.04397  1
 Li  Li1  1  -0.00000  0.50000  0.50000  1
 Li  Li2  1  0.50000  0.50000  0.50000  1
 Li  Li3  1  0.50000  0.50000  0.00000  1
 Li  Li4  1  0.50000  0.00000  0.00000  1
