CIF file written using JARVIS-Tools package.
data_K4UO5
_symmetry_space_group_name_H-M  'P-1'
_cell_length_a       6.4474
_cell_length_b       6.48257
_cell_length_c       9.7394
_cell_angle_alpha    101.563
_cell_angle_beta     108.926
_cell_angle_gamma    102.374

_symmetry_Int_Tables_number  2
_chemical_formula_structural  K4UO5
_chemical_formula_sum  K8U2O0
_cell_volume  359.70241769289987
_cell_formula_units_Z  2
loop_
  _symmetry_equiv_pos_site_id
 _symmetry_equiv_pos_as_xyz
 1  'x, y, z'
loop_
 _atom_site_type_symbol
 _atom_site_label
 _atom_site_symmetry_multiplicity
 _atom_site_fract_x
 _atom_site_fract_y
 _atom_site_fract_z
 _atom_site_fract_occupancy
 K  K1  1  0.57626  0.79011  0.09653  1
 K  K2  1  0.19826  0.58136  0.69685  1
 K  K3  1  0.59750  0.29450  0.59709  1
 K  K4  1  0.40250  0.70550  0.40291  1
 K  K5  1  0.42374  0.20989  0.90347  1
 K  K6  1  -0.00000  -0.00000  0.50000  1
 K  K7  1  -0.00000  0.50000  -0.00000  1
 K  K8  1  0.80174  0.41864  0.30315  1
 O  O1  1  0.85269  0.10466  0.03508  1
 O  O2  1  0.02886  0.82542  0.23686  1
 O  O3  1  0.97114  0.17458  0.76314  1
 O  O4  1  0.82055  0.70166  0.60956  1
 O  O5  1  0.17945  0.29834  0.39044  1
 O  O6  1  0.50847  0.06330  0.30794  1
 O  O7  1  0.35931  0.37814  0.15832  1
 O  O8  1  0.49153  0.93670  0.69206  1
 O  O9  1  0.14731  0.89534  0.96492  1
 O  O10  1  0.64069  0.62186  0.84168  1
 U  U1  1  0.80805  0.89815  0.80331  1
 U  U2  1  0.19195  0.10185  0.19669  1
