CIF file written using JARVIS-Tools package.
data_RbSn2Br5
_symmetry_space_group_name_H-M  'I4/mcm'
_cell_length_a       8.40162
_cell_length_b       8.40162
_cell_length_c       9.38175
_cell_angle_alpha    116.6
_cell_angle_beta     116.6
_cell_angle_gamma    90

_symmetry_Int_Tables_number  140
_chemical_formula_structural  RbSn2Br5
_chemical_formula_sum  Rb2Sn4Br0
_cell_volume  512.5411348612374
_cell_formula_units_Z  2
loop_
  _symmetry_equiv_pos_site_id
 _symmetry_equiv_pos_as_xyz
 1  'x, y, z'
loop_
 _atom_site_type_symbol
 _atom_site_label
 _atom_site_symmetry_multiplicity
 _atom_site_fract_x
 _atom_site_fract_y
 _atom_site_fract_z
 _atom_site_fract_occupancy
 Br  Br1  1  0.29423  0.47900  0.27323  1
 Br  Br2  1  0.79423  0.29423  0.27323  1
 Br  Br3  1  0.70577  0.52100  0.72677  1
 Br  Br4  1  0.97900  0.79423  0.27323  1
 Br  Br5  1  0.47900  0.97900  0.27323  1
 Br  Br6  1  0.20577  0.70577  0.72677  1
 Br  Br7  1  0.02100  0.20577  0.72677  1
 Br  Br8  1  0.00000  0.00000  0.00000  1
 Br  Br9  1  0.52100  0.02100  0.72677  1
 Br  Br10  1  0.50000  0.50000  -0.00000  1
 Rb  Rb1  1  0.25000  0.25000  0.50000  1
 Rb  Rb2  1  0.75000  0.75000  0.50000  1
 Sn  Sn1  1  0.32640  0.17360  -0.00000  1
 Sn  Sn2  1  0.82640  0.32640  0.00000  1
 Sn  Sn3  1  0.67360  0.82640  0.00000  1
 Sn  Sn4  1  0.17360  0.67360  -0.00000  1
