CIF file written using JARVIS-Tools package.
data_Ba3NaRuO6
_symmetry_space_group_name_H-M  'R-3c'
_cell_length_a       7.11646
_cell_length_b       7.11646
_cell_length_c       7.11646
_cell_angle_alpha    91.6904
_cell_angle_beta     91.6903
_cell_angle_gamma    91.6904

_symmetry_Int_Tables_number  167
_chemical_formula_structural  Ba3NaRuO6
_chemical_formula_sum  Ba6Na2Ru2O2
_cell_volume  359.9261871824136
_cell_formula_units_Z  2
loop_
  _symmetry_equiv_pos_site_id
 _symmetry_equiv_pos_as_xyz
 1  'x, y, z'
loop_
 _atom_site_type_symbol
 _atom_site_label
 _atom_site_symmetry_multiplicity
 _atom_site_fract_x
 _atom_site_fract_y
 _atom_site_fract_z
 _atom_site_fract_occupancy
 Ba  Ba1  1  0.60678  0.25000  0.89322  1
 Ba  Ba2  1  0.89322  0.60678  0.25000  1
 Ba  Ba3  1  0.25000  0.89322  0.60678  1
 Ba  Ba4  1  0.10678  0.39322  0.75000  1
 Ba  Ba5  1  0.75000  0.10678  0.39322  1
 Ba  Ba6  1  0.39322  0.75000  0.10678  1
 Na  Na1  1  0.75000  0.75000  0.75000  1
 Na  Na2  1  0.25000  0.25000  0.25000  1
 O  O1  1  0.44939  0.58164  0.76529  1
 O  O2  1  0.58164  0.76529  0.44939  1
 O  O3  1  0.91836  0.05061  0.73471  1
 O  O4  1  0.05061  0.73471  0.91836  1
 O  O5  1  0.73471  0.91836  0.05061  1
 O  O6  1  0.23471  0.55061  0.41836  1
 O  O7  1  0.94939  0.26529  0.08164  1
 O  O8  1  0.41836  0.23471  0.55061  1
 O  O9  1  0.76529  0.44939  0.58164  1
 O  O10  1  0.08164  0.94939  0.26529  1
 O  O11  1  0.55061  0.41836  0.23471  1
 O  O12  1  0.26529  0.08164  0.94939  1
 Ru  Ru1  1  0.00000  0.00000  0.00000  1
 Ru  Ru2  1  0.50000  0.50000  0.50000  1
