CIF file written using JARVIS-Tools package.
data_Na2TiGeO5
_symmetry_space_group_name_H-M  'P4/nmm'
_cell_length_a       6.70761
_cell_length_b       6.70761
_cell_length_c       5.17288
_cell_angle_alpha    90
_cell_angle_beta     90
_cell_angle_gamma    90

_symmetry_Int_Tables_number  129
_chemical_formula_structural  Na2TiGeO5
_chemical_formula_sum  Na4Ti2Ge2O0
_cell_volume  232.73847974397154
_cell_formula_units_Z  2
loop_
  _symmetry_equiv_pos_site_id
 _symmetry_equiv_pos_as_xyz
 1  'x, y, z'
loop_
 _atom_site_type_symbol
 _atom_site_label
 _atom_site_symmetry_multiplicity
 _atom_site_fract_x
 _atom_site_fract_y
 _atom_site_fract_z
 _atom_site_fract_occupancy
 Ge  Ge1  1  0.00000  0.00000  0.50000  1
 Ge  Ge2  1  0.50000  0.50000  0.50000  1
 Na  Na1  1  0.25000  0.75000  0.00000  1
 Na  Na2  1  0.25000  0.25000  0.00000  1
 Na  Na3  1  0.75000  0.25000  0.00000  1
 Na  Na4  1  0.75000  0.75000  0.00000  1
 O  O1  1  0.50000  0.00000  0.75982  1
 O  O2  1  0.28323  0.50000  0.69715  1
 O  O3  1  0.00000  0.21677  0.69715  1
 O  O4  1  0.71677  0.50000  0.69715  1
 O  O5  1  0.50000  0.71677  0.30285  1
 O  O6  1  0.50000  0.28323  0.30285  1
 O  O7  1  0.78323  0.00000  0.30285  1
 O  O8  1  0.00000  0.78323  0.69715  1
 O  O9  1  0.21677  0.00000  0.30285  1
 O  O10  1  0.00000  0.50000  0.24018  1
 Ti  Ti1  1  0.50000  0.00000  0.42615  1
 Ti  Ti2  1  0.00000  0.50000  0.57385  1
