CIF file written using JARVIS-Tools package.
data_Ba4PtO6
_symmetry_space_group_name_H-M  'R-3c'
_cell_length_a       7.33246
_cell_length_b       7.33245
_cell_length_c       7.33246
_cell_angle_alpha    89.4916
_cell_angle_beta     89.4917
_cell_angle_gamma    89.4916

_symmetry_Int_Tables_number  167
_chemical_formula_structural  Ba4PtO6
_chemical_formula_sum  Ba8Pt2O2
_cell_volume  394.1824672681476
_cell_formula_units_Z  2
loop_
  _symmetry_equiv_pos_site_id
 _symmetry_equiv_pos_as_xyz
 1  'x, y, z'
loop_
 _atom_site_type_symbol
 _atom_site_label
 _atom_site_symmetry_multiplicity
 _atom_site_fract_x
 _atom_site_fract_y
 _atom_site_fract_z
 _atom_site_fract_occupancy
 Ba  Ba1  1  0.61759  0.88241  0.25000  1
 Ba  Ba2  1  0.25000  0.61759  0.88241  1
 Ba  Ba3  1  0.88241  0.25000  0.61759  1
 Ba  Ba4  1  0.38241  0.11759  0.75000  1
 Ba  Ba5  1  0.75000  0.38241  0.11759  1
 Ba  Ba6  1  0.11759  0.75000  0.38241  1
 Ba  Ba7  1  0.75000  0.75000  0.75000  1
 Ba  Ba8  1  0.25000  0.25000  0.25000  1
 O  O1  1  0.57333  0.43847  0.77246  1
 O  O2  1  0.43847  0.77246  0.57333  1
 O  O3  1  0.06153  0.92667  0.72754  1
 O  O4  1  0.92667  0.72754  0.06153  1
 O  O5  1  0.72754  0.06153  0.92667  1
 O  O6  1  0.22754  0.42667  0.56153  1
 O  O7  1  0.07333  0.27246  0.93847  1
 O  O8  1  0.56153  0.22754  0.42667  1
 O  O9  1  0.77246  0.57333  0.43847  1
 O  O10  1  0.93847  0.07333  0.27246  1
 O  O11  1  0.42667  0.56153  0.22754  1
 O  O12  1  0.27246  0.93847  0.07333  1
 Pt  Pt1  1  0.00000  0.00000  0.00000  1
 Pt  Pt2  1  0.50000  0.50000  0.50000  1
