CIF file written using JARVIS-Tools package.
data_LiSiBiO4
_symmetry_space_group_name_H-M  'P2_1/c'
_cell_length_a       5.72061
_cell_length_b       6.50017
_cell_length_c       11.3437
_cell_angle_alpha    90
_cell_angle_beta     117.4
_cell_angle_gamma    90

_symmetry_Int_Tables_number  14
_chemical_formula_structural  LiSiBiO4
_chemical_formula_sum  Li4Si4Bi4O6
_cell_volume  374.49318966745955
_cell_formula_units_Z  4
loop_
  _symmetry_equiv_pos_site_id
 _symmetry_equiv_pos_as_xyz
 1  'x, y, z'
loop_
 _atom_site_type_symbol
 _atom_site_label
 _atom_site_symmetry_multiplicity
 _atom_site_fract_x
 _atom_site_fract_y
 _atom_site_fract_z
 _atom_site_fract_occupancy
 Bi  Bi1  1  0.96884  0.33578  0.14105  1
 Bi  Bi2  1  0.03116  0.66422  0.85895  1
 Bi  Bi3  1  0.03116  0.83578  0.35895  1
 Bi  Bi4  1  0.96884  0.16422  0.64105  1
 Li  Li1  1  0.40836  0.36344  0.54862  1
 Li  Li2  1  0.59164  0.63656  0.45138  1
 Li  Li3  1  0.40836  0.13656  0.04862  1
 Li  Li4  1  0.59164  0.86344  0.95138  1
 O  O1  1  0.91203  0.80045  0.53274  1
 O  O2  1  0.30962  0.83625  0.77375  1
 O  O3  1  0.16210  0.46858  0.69054  1
 O  O4  1  0.64022  0.18455  0.95304  1
 O  O5  1  0.35978  0.68455  0.54696  1
 O  O6  1  0.30962  0.66375  0.27375  1
 O  O7  1  0.08797  0.19955  0.46726  1
 O  O8  1  0.08797  0.30045  0.96726  1
 O  O9  1  0.35978  0.81545  0.04696  1
 O  O10  1  0.83790  0.53142  0.30946  1
 O  O11  1  0.69038  0.33625  0.72625  1
 O  O12  1  0.64022  0.31545  0.45304  1
 O  O13  1  0.16210  0.03142  0.19054  1
 O  O14  1  0.69038  0.16375  0.22625  1
 O  O15  1  0.83790  0.96858  0.80946  1
 O  O16  1  0.91203  0.69955  0.03274  1
 Si  Si1  1  0.79777  0.30524  0.36107  1
 Si  Si2  1  0.79777  0.19476  0.86107  1
 Si  Si3  1  0.20223  0.80524  0.13893  1
 Si  Si4  1  0.20223  0.69476  0.63893  1
