CIF file written using JARVIS-Tools package.
data_BaCeO3
_symmetry_space_group_name_H-M  'Imma'
_cell_length_a       6.24416
_cell_length_b       6.25707
_cell_length_c       6.25706
_cell_angle_alpha    60.6498
_cell_angle_beta     60.0682
_cell_angle_gamma    60.0682

_symmetry_Int_Tables_number  74
_chemical_formula_structural  BaCeO3
_chemical_formula_sum  Ba2Ce2O6
_cell_volume  173.87577031285045
_cell_formula_units_Z  2
loop_
  _symmetry_equiv_pos_site_id
 _symmetry_equiv_pos_as_xyz
 1  'x, y, z'
loop_
 _atom_site_type_symbol
 _atom_site_label
 _atom_site_symmetry_multiplicity
 _atom_site_fract_x
 _atom_site_fract_y
 _atom_site_fract_z
 _atom_site_fract_occupancy
 Ba  Ba1  1  0.75000  0.25913  0.74087  1
 Ba  Ba2  1  0.25000  0.74087  0.25913  1
 Ce  Ce1  1  0.00000  0.50000  0.00000  1
 Ce  Ce2  1  0.50000  -0.00000  0.50000  1
 O  O1  1  0.20411  0.29589  0.29589  1
 O  O2  1  0.29589  0.70411  0.70411  1
 O  O3  1  0.79589  0.70411  0.70411  1
 O  O4  1  0.70411  0.29589  0.29589  1
 O  O5  1  0.25000  0.16826  0.83174  1
 O  O6  1  0.75000  0.83174  0.16826  1
