CIF file written using JARVIS-Tools package.
data_MnP2H8O10
_symmetry_space_group_name_H-M  'P2_1/c'
_cell_length_a       5.28446
_cell_length_b       10.2556
_cell_length_c       7.17622
_cell_angle_alpha    90
_cell_angle_beta     92.6453
_cell_angle_gamma    90

_symmetry_Int_Tables_number  14
_chemical_formula_structural  MnP2H8O10
_chemical_formula_sum  Mn2P4H6O20
_cell_volume  388.5027237427821
_cell_formula_units_Z  2
loop_
  _symmetry_equiv_pos_site_id
 _symmetry_equiv_pos_as_xyz
 1  'x, y, z'
loop_
 _atom_site_type_symbol
 _atom_site_label
 _atom_site_symmetry_multiplicity
 _atom_site_fract_x
 _atom_site_fract_y
 _atom_site_fract_z
 _atom_site_fract_occupancy
 H  H1  1  0.44089  0.07631  0.82290  1
 H  H2  1  0.61652  0.22591  0.48966  1
 H  H3  1  0.94089  0.42369  0.32290  1
 H  H4  1  0.55911  0.92369  0.17710  1
 H  H5  1  0.05911  0.57631  0.67710  1
 H  H6  1  0.88348  0.72591  0.01034  1
 H  H7  1  0.15256  0.10623  0.59920  1
 H  H8  1  0.84744  0.89377  0.40080  1
 H  H9  1  0.34744  0.60623  0.90080  1
 H  H10  1  0.17384  0.45053  0.77961  1
 H  H11  1  0.67384  0.04947  0.27961  1
 H  H12  1  0.82616  0.54947  0.22039  1
 H  H13  1  0.32616  0.95053  0.72039  1
 H  H14  1  0.65256  0.39377  0.09920  1
 H  H15  1  0.11652  0.27409  0.98966  1
 H  H16  1  0.38348  0.77409  0.51034  1
 Mn  Mn1  1  0.00000  0.00000  0.00000  1
 Mn  Mn2  1  0.50000  0.50000  0.50000  1
 O  O1  1  0.57309  0.35698  0.97833  1
 O  O2  1  0.72561  0.96589  0.21954  1
 O  O3  1  0.27380  0.86386  0.13666  1
 O  O4  1  0.77380  0.63614  0.63666  1
 O  O5  1  0.72620  0.13614  0.86334  1
 O  O6  1  0.22620  0.36386  0.36334  1
 O  O7  1  0.33457  0.66864  0.35673  1
 O  O8  1  0.66543  0.33136  0.64327  1
 O  O9  1  0.16543  0.16864  0.14327  1
 O  O10  1  0.83457  0.83136  0.85673  1
 O  O11  1  0.47002  0.82704  0.61704  1
 O  O12  1  0.22561  0.53411  0.71954  1
 O  O13  1  0.77439  0.46589  0.28046  1
 O  O14  1  0.02998  0.32704  0.88296  1
 O  O15  1  0.07309  0.14302  0.47833  1
 O  O16  1  0.27439  0.03411  0.78046  1
 O  O17  1  0.92691  0.85698  0.52167  1
 O  O18  1  0.42691  0.64302  0.02167  1
 O  O19  1  0.52998  0.17296  0.38296  1
 O  O20  1  0.97002  0.67296  0.11704  1
 P  P1  1  0.25600  0.71624  0.16125  1
 P  P2  1  0.75600  0.78376  0.66125  1
 P  P3  1  0.24400  0.21624  0.33875  1
 P  P4  1  0.74400  0.28376  0.83875  1
