CIF file written using JARVIS-Tools package.
data_NdH3O3
_symmetry_space_group_name_H-M  'P6_3/m'
_cell_length_a       6.4482
_cell_length_b       3.73679
_cell_length_c       6.44825
_cell_angle_alpha    90
_cell_angle_beta     119.993
_cell_angle_gamma    90

_symmetry_Int_Tables_number  176
_chemical_formula_structural  NdH3O3
_chemical_formula_sum  Nd2H6O6
_cell_volume  134.56808648579874
_cell_formula_units_Z  2
loop_
  _symmetry_equiv_pos_site_id
 _symmetry_equiv_pos_as_xyz
 1  'x, y, z'
loop_
 _atom_site_type_symbol
 _atom_site_label
 _atom_site_symmetry_multiplicity
 _atom_site_fract_x
 _atom_site_fract_y
 _atom_site_fract_z
 _atom_site_fract_occupancy
 H  H1  1  0.72756  0.25000  0.86229  1
 H  H2  1  0.13480  0.25000  0.27245  1
 H  H3  1  0.13771  0.25000  0.86541  1
 H  H4  1  0.27244  0.75000  0.13771  1
 H  H5  1  0.86520  0.75000  0.72755  1
 H  H6  1  0.86229  0.75000  0.13459  1
 Nd  Nd1  1  0.66670  0.25000  0.33334  1
 Nd  Nd2  1  0.33330  0.75000  0.66666  1
 O  O1  1  0.60963  0.25000  0.69156  1
 O  O2  1  0.08193  0.25000  0.39035  1
 O  O3  1  0.30843  0.25000  0.91812  1
 O  O4  1  0.39037  0.75000  0.30844  1
 O  O5  1  0.91807  0.75000  0.60965  1
 O  O6  1  0.69157  0.75000  0.08188  1
