CIF file written using JARVIS-Tools package.
data_MgRh2O4
_symmetry_space_group_name_H-M  'Fd-3m'
_cell_length_a       6.08472
_cell_length_b       6.08472
_cell_length_c       6.08471
_cell_angle_alpha    60
_cell_angle_beta     60
_cell_angle_gamma    60

_symmetry_Int_Tables_number  227
_chemical_formula_structural  MgRh2O4
_chemical_formula_sum  Mg2Rh4O8
_cell_volume  159.29612574265659
_cell_formula_units_Z  2
loop_
  _symmetry_equiv_pos_site_id
 _symmetry_equiv_pos_as_xyz
 1  'x, y, z'
loop_
 _atom_site_type_symbol
 _atom_site_label
 _atom_site_symmetry_multiplicity
 _atom_site_fract_x
 _atom_site_fract_y
 _atom_site_fract_z
 _atom_site_fract_occupancy
 Mg  Mg1  1  0.87500  0.87500  0.87500  1
 Mg  Mg2  1  0.12500  0.12500  0.12500  1
 O  O1  1  0.73988  0.73988  0.73988  1
 O  O2  1  0.26012  0.26012  0.71963  1
 O  O3  1  0.26012  0.71963  0.26012  1
 O  O4  1  0.71963  0.26012  0.26012  1
 O  O5  1  0.73988  0.28037  0.73988  1
 O  O6  1  0.28037  0.73988  0.73988  1
 O  O7  1  0.26012  0.26012  0.26012  1
 O  O8  1  0.73988  0.73988  0.28037  1
 Rh  Rh1  1  0.50000  0.50000  0.00000  1
 Rh  Rh2  1  0.50000  0.50000  0.50000  1
 Rh  Rh3  1  0.00000  0.50000  0.50000  1
 Rh  Rh4  1  0.50000  0.00000  0.50000  1
