CIF file written using JARVIS-Tools package.
data_HoGaO3
_symmetry_space_group_name_H-M  'Pnma'
_cell_length_a       5.26389
_cell_length_b       5.58532
_cell_length_c       7.58116
_cell_angle_alpha    90
_cell_angle_beta     90
_cell_angle_gamma    90

_symmetry_Int_Tables_number  62
_chemical_formula_structural  HoGaO3
_chemical_formula_sum  Ho4Ga4O2
_cell_volume  222.89020258182546
_cell_formula_units_Z  4
loop_
  _symmetry_equiv_pos_site_id
 _symmetry_equiv_pos_as_xyz
 1  'x, y, z'
loop_
 _atom_site_type_symbol
 _atom_site_label
 _atom_site_symmetry_multiplicity
 _atom_site_fract_x
 _atom_site_fract_y
 _atom_site_fract_z
 _atom_site_fract_occupancy
 Ga  Ga1  1  -0.00000  0.50000  0.24093  1
 Ga  Ga2  1  0.50000  0.00000  0.24093  1
 Ga  Ga3  1  0.50000  -0.00000  0.74093  1
 Ga  Ga4  1  0.00000  0.50000  0.74093  1
 Ho  Ho1  1  0.01982  0.07066  0.99093  1
 Ho  Ho2  1  0.48018  0.57066  0.99093  1
 Ho  Ho3  1  0.51982  0.42934  0.49093  1
 Ho  Ho4  1  0.98018  0.92934  0.49093  1
 O  O1  1  0.11275  0.53862  0.49093  1
 O  O2  1  0.80791  0.19466  0.68376  1
 O  O3  1  0.19209  0.80534  0.79809  1
 O  O4  1  0.30791  0.30534  0.79809  1
 O  O5  1  0.19209  0.80534  0.18376  1
 O  O6  1  0.69209  0.69466  0.29809  1
 O  O7  1  0.61275  0.96138  0.99093  1
 O  O8  1  0.69209  0.69466  0.68376  1
 O  O9  1  0.30791  0.30534  0.18376  1
 O  O10  1  0.80791  0.19466  0.29809  1
 O  O11  1  0.38725  0.03862  0.49093  1
 O  O12  1  0.88725  0.46138  0.99093  1
