CIF file written using JARVIS-Tools package.
data_TcF6
_symmetry_space_group_name_H-M  'Im-3m'
_cell_length_a       5.47229
_cell_length_b       5.47229
_cell_length_c       5.47229
_cell_angle_alpha    109.471
_cell_angle_beta     109.471
_cell_angle_gamma    109.471

_symmetry_Int_Tables_number  229
_chemical_formula_structural  TcF6
_chemical_formula_sum  TcF6
_cell_volume  126.14944977212133
_cell_formula_units_Z  1
loop_
  _symmetry_equiv_pos_site_id
 _symmetry_equiv_pos_as_xyz
 1  'x, y, z'
loop_
 _atom_site_type_symbol
 _atom_site_label
 _atom_site_symmetry_multiplicity
 _atom_site_fract_x
 _atom_site_fract_y
 _atom_site_fract_z
 _atom_site_fract_occupancy
 F  F1  1  0.70864  0.70864  0.00000  1
 F  F2  1  0.29136  0.29136  -0.00000  1
 F  F3  1  0.70864  0.00000  0.70864  1
 F  F4  1  0.29136  -0.00000  0.29136  1
 F  F5  1  0.00000  0.70864  0.70864  1
 F  F6  1  -0.00000  0.29136  0.29136  1
 Tc  Tc1  1  0.00000  0.00000  0.00000  1
