CIF file written using JARVIS-Tools package.
data_Rb3SbO3
_symmetry_space_group_name_H-M  'C2/m'
_cell_length_a       6.77658
_cell_length_b       6.77658
_cell_length_c       7.68853
_cell_angle_alpha    95.5713
_cell_angle_beta     84.4287
_cell_angle_gamma    72.6565

_symmetry_Int_Tables_number  12
_chemical_formula_structural  Rb3SbO3
_chemical_formula_sum  Rb6Sb2O6
_cell_volume  332.46395703943926
_cell_formula_units_Z  2
loop_
  _symmetry_equiv_pos_site_id
 _symmetry_equiv_pos_as_xyz
 1  'x, y, z'
loop_
 _atom_site_type_symbol
 _atom_site_label
 _atom_site_symmetry_multiplicity
 _atom_site_fract_x
 _atom_site_fract_y
 _atom_site_fract_z
 _atom_site_fract_occupancy
 O  O1  1  0.96648  0.03352  0.76028  1
 O  O2  1  0.21271  0.51130  0.30195  1
 O  O3  1  0.48870  0.78729  0.30195  1
 O  O4  1  0.51130  0.21271  0.69805  1
 O  O5  1  0.78729  0.48870  0.69805  1
 O  O6  1  0.03352  0.96648  0.23972  1
 Rb  Rb1  1  0.31610  0.68390  0.64879  1
 Rb  Rb2  1  0.80763  0.80763  0.50000  1
 Rb  Rb3  1  0.19237  0.19237  0.50000  1
 Rb  Rb4  1  0.20824  0.20824  0.00000  1
 Rb  Rb5  1  0.79176  0.79176  -0.00000  1
 Rb  Rb6  1  0.68390  0.31610  0.35121  1
 Sb  Sb1  1  0.28100  0.71900  0.16521  1
 Sb  Sb2  1  0.71900  0.28100  0.83479  1
