CIF file written using JARVIS-Tools package.
data_Al2Ge2O7
_symmetry_space_group_name_H-M  'C2/c'
_cell_length_a       5.31993
_cell_length_b       5.31993
_cell_length_c       9.81791
_cell_angle_alpha    103.768
_cell_angle_beta     103.768
_cell_angle_gamma    94.7233

_symmetry_Int_Tables_number  15
_chemical_formula_structural  Al2Ge2O7
_chemical_formula_sum  Al4Ge4O4
_cell_volume  259.26460270626313
_cell_formula_units_Z  2
loop_
  _symmetry_equiv_pos_site_id
 _symmetry_equiv_pos_as_xyz
 1  'x, y, z'
loop_
 _atom_site_type_symbol
 _atom_site_label
 _atom_site_symmetry_multiplicity
 _atom_site_fract_x
 _atom_site_fract_y
 _atom_site_fract_z
 _atom_site_fract_occupancy
 Al  Al1  1  0.59563  0.74848  0.97942  1
 Al  Al2  1  0.25152  0.40437  0.52058  1
 Al  Al3  1  0.40437  0.25152  0.02058  1
 Al  Al4  1  0.74848  0.59563  0.47942  1
 Ge  Ge1  1  0.50941  0.00720  0.70512  1
 Ge  Ge2  1  0.49059  0.99280  0.29488  1
 Ge  Ge3  1  0.00720  0.50941  0.20512  1
 Ge  Ge4  1  0.99280  0.49059  0.79488  1
 O  O1  1  0.56211  0.01805  0.12816  1
 O  O2  1  0.01805  0.56211  0.62816  1
 O  O3  1  0.43789  0.98195  0.87184  1
 O  O4  1  0.68178  0.51879  0.10291  1
 O  O5  1  0.48121  0.31822  0.39709  1
 O  O6  1  0.31822  0.48121  0.89709  1
 O  O7  1  0.85896  0.72182  0.90036  1
 O  O8  1  0.83639  0.16361  0.75000  1
 O  O9  1  0.98195  0.43789  0.37184  1
 O  O10  1  0.16361  0.83639  0.25000  1
 O  O11  1  0.72182  0.85896  0.40036  1
 O  O12  1  0.14104  0.27818  0.09964  1
 O  O13  1  0.51879  0.68178  0.60291  1
 O  O14  1  0.27818  0.14104  0.59964  1
