CIF file written using JARVIS-Tools package.
data_Hf2CuSb3
_symmetry_space_group_name_H-M  'P-4m2'
_cell_length_a       3.93073
_cell_length_b       3.93073
_cell_length_c       8.54601
_cell_angle_alpha    90
_cell_angle_beta     90
_cell_angle_gamma    90

_symmetry_Int_Tables_number  115
_chemical_formula_structural  Hf2CuSb3
_chemical_formula_sum  Hf2CuSb3
_cell_volume  132.0412166302744
_cell_formula_units_Z  1
loop_
  _symmetry_equiv_pos_site_id
 _symmetry_equiv_pos_as_xyz
 1  'x, y, z'
loop_
 _atom_site_type_symbol
 _atom_site_label
 _atom_site_symmetry_multiplicity
 _atom_site_fract_x
 _atom_site_fract_y
 _atom_site_fract_z
 _atom_site_fract_occupancy
 Cu  Cu1  1  0.00000  0.00000  0.00000  1
 Hf  Hf1  1  0.50000  0.00000  0.73706  1
 Hf  Hf2  1  0.00000  0.50000  0.26294  1
 Sb  Sb1  1  0.50000  0.50000  0.00000  1
 Sb  Sb2  1  0.50000  0.00000  0.37528  1
 Sb  Sb3  1  0.00000  0.50000  0.62472  1
