CIF file written using JARVIS-Tools package.
data_BaYAgSe3
_symmetry_space_group_name_H-M  'Cmcm'
_cell_length_a       4.27119
_cell_length_b       7.41369
_cell_length_c       10.7257
_cell_angle_alpha    90
_cell_angle_beta     90
_cell_angle_gamma    106.742

_symmetry_Int_Tables_number  63
_chemical_formula_structural  BaYAgSe3
_chemical_formula_sum  Ba2Y2Ag2Se6
_cell_volume  325.2349579081701
_cell_formula_units_Z  2
loop_
  _symmetry_equiv_pos_site_id
 _symmetry_equiv_pos_as_xyz
 1  'x, y, z'
loop_
 _atom_site_type_symbol
 _atom_site_label
 _atom_site_symmetry_multiplicity
 _atom_site_fract_x
 _atom_site_fract_y
 _atom_site_fract_z
 _atom_site_fract_occupancy
 Ag  Ag1  1  0.46794  0.93588  0.25000  1
 Ag  Ag2  1  0.53206  0.06412  0.75000  1
 Ba  Ba1  1  0.75111  0.50221  0.25000  1
 Ba  Ba2  1  0.24889  0.49779  0.75000  1
 Se  Se1  1  0.63699  0.27398  0.54848  1
 Se  Se2  1  0.36301  0.72602  0.45152  1
 Se  Se3  1  0.36301  0.72602  0.04848  1
 Se  Se4  1  0.92081  0.84163  0.75000  1
 Se  Se5  1  0.07919  0.15837  0.25000  1
 Se  Se6  1  0.63699  0.27398  0.95152  1
 Y  Y1  1  0.00000  0.00000  0.00000  1
 Y  Y2  1  0.00000  0.00000  0.50000  1
