data_image0
_chemical_formula_structural       C2Si2U3
_chemical_formula_sum              "C2 Si2 U3"
_cell_length_a       3.64868
_cell_length_b       3.64868
_cell_length_c       8.76856
_cell_angle_alpha    102.008
_cell_angle_beta     102.008
_cell_angle_gamma    90

_space_group_name_H-M_alt    "P 1"
_space_group_IT_number       1

loop_
  _space_group_symop_operation_xyz
  'x, y, z'

loop_
  _atom_site_type_symbol
  _atom_site_label
  _atom_site_symmetry_multiplicity
  _atom_site_fract_x
  _atom_site_fract_y
  _atom_site_fract_z
  _atom_site_occupancy
  C   C1        1.0  0.69600  0.69600  0.39100  1.0000
  C   C2        1.0  0.30400  0.30400  0.60900  1.0000
  Si  Si1       1.0  0.58300  0.58300  0.16600  1.0000
  Si  Si2       1.0  0.41700  0.41700  0.83400  1.0000
  U   U1        1.0  0.00000  0.00000  0.00000  1.0000
  U   U2        1.0  0.17200  0.17200  0.34400  1.0000
  U   U3        1.0  0.82800  0.82800  0.65600  1.0000
