CIF file written using JARVIS-Tools package.
data_KInGe2O6
_symmetry_space_group_name_H-M  'C2/c'
_cell_length_a       5.69515
_cell_length_b       7.08687
_cell_length_c       7.08687
_cell_angle_alpha    84.9897
_cell_angle_beta     78.9618
_cell_angle_gamma    78.9617

_symmetry_Int_Tables_number  15
_chemical_formula_structural  KInGe2O6
_chemical_formula_sum  K2In2Ge4O2
_cell_volume  275.1650175672865
_cell_formula_units_Z  2
loop_
  _symmetry_equiv_pos_site_id
 _symmetry_equiv_pos_as_xyz
 1  'x, y, z'
loop_
 _atom_site_type_symbol
 _atom_site_label
 _atom_site_symmetry_multiplicity
 _atom_site_fract_x
 _atom_site_fract_y
 _atom_site_fract_z
 _atom_site_fract_occupancy
 Ge  Ge1  1  0.78673  0.19560  0.37526  1
 Ge  Ge2  1  0.21327  0.80440  0.62474  1
 Ge  Ge3  1  0.71327  0.62474  0.80440  1
 Ge  Ge4  1  0.28673  0.37526  0.19560  1
 In  In1  1  0.25000  0.89678  0.10322  1
 In  In2  1  0.75000  0.10322  0.89678  1
 K  K1  1  0.25000  0.31152  0.68848  1
 K  K2  1  0.75000  0.68848  0.31152  1
 O  O1  1  0.52129  0.37128  0.33454  1
 O  O2  1  0.02129  0.33454  0.37128  1
 O  O3  1  0.47871  0.62872  0.66546  1
 O  O4  1  0.29234  0.90991  0.39503  1
 O  O5  1  0.20766  0.60497  0.09009  1
 O  O6  1  0.36890  0.18233  0.03691  1
 O  O7  1  0.79234  0.39503  0.90991  1
 O  O8  1  0.97871  0.66546  0.62872  1
 O  O9  1  0.63110  0.81767  0.96309  1
 O  O10  1  0.13110  0.96309  0.81767  1
 O  O11  1  0.70766  0.09009  0.60497  1
 O  O12  1  0.86890  0.03691  0.18233  1
