CIF file written using JARVIS-Tools package.
data_NdH3C3O6
_symmetry_space_group_name_H-M  'R3m'
_cell_length_a       6.29757
_cell_length_b       6.29757
_cell_length_c       6.29757
_cell_angle_alpha    115.49
_cell_angle_beta     115.49
_cell_angle_gamma    115.49

_symmetry_Int_Tables_number  160
_chemical_formula_structural  NdH3C3O6
_chemical_formula_sum  NdH3C3O6
_cell_volume  133.33421298169483
_cell_formula_units_Z  1
loop_
  _symmetry_equiv_pos_site_id
 _symmetry_equiv_pos_as_xyz
 1  'x, y, z'
loop_
 _atom_site_type_symbol
 _atom_site_label
 _atom_site_symmetry_multiplicity
 _atom_site_fract_x
 _atom_site_fract_y
 _atom_site_fract_z
 _atom_site_fract_occupancy
 C  C1  1  0.52618  0.98625  0.52618  1
 C  C2  1  0.98625  0.52618  0.52618  1
 C  C3  1  0.52618  0.52618  0.98625  1
 H  H1  1  0.28181  0.76561  0.76561  1
 H  H2  1  0.76561  0.76561  0.28181  1
 H  H3  1  0.76561  0.28181  0.76561  1
 Nd  Nd1  1  0.13603  0.13603  0.13603  1
 O  O1  1  0.85142  0.25209  0.25209  1
 O  O2  1  0.54738  0.80208  0.54738  1
 O  O3  1  0.54738  0.54738  0.80208  1
 O  O4  1  0.25209  0.85142  0.25209  1
 O  O5  1  0.25209  0.25209  0.85142  1
 O  O6  1  0.80208  0.54738  0.54738  1
