CIF file written using JARVIS-Tools package.
data_NbI2O
_symmetry_space_group_name_H-M  'C2'
_cell_length_a       3.93199
_cell_length_b       7.57966
_cell_length_c       7.95126
_cell_angle_alpha    104.928
_cell_angle_beta     104.316
_cell_angle_gamma    90.0033

_symmetry_Int_Tables_number  5
_chemical_formula_structural  NbI2O
_chemical_formula_sum  Nb2I4O2
_cell_volume  221.34971565002792
_cell_formula_units_Z  2
loop_
  _symmetry_equiv_pos_site_id
 _symmetry_equiv_pos_as_xyz
 1  'x, y, z'
loop_
 _atom_site_type_symbol
 _atom_site_label
 _atom_site_symmetry_multiplicity
 _atom_site_fract_x
 _atom_site_fract_y
 _atom_site_fract_z
 _atom_site_fract_occupancy
 I  I1  1  0.84785  0.41375  0.68964  1
 I  I2  1  0.87265  0.93208  0.74378  1
 I  I3  1  0.12890  0.06792  0.25622  1
 I  I4  1  0.15824  0.58625  0.31036  1
 Nb  Nb1  1  0.02138  0.29186  0.00113  1
 Nb  Nb2  1  0.02026  0.70814  0.99886  1
 O  O1  1  0.50731  0.28692  0.00191  1
 O  O2  1  0.50540  0.71308  0.99809  1
