CIF file written using JARVIS-Tools package.
data_Rb2Hg2PdBr8
_symmetry_space_group_name_H-M  'C2/m'
_cell_length_a       6.9591
_cell_length_b       6.9591
_cell_length_c       10.237
_cell_angle_alpha    74.2305
_cell_angle_beta     74.2305
_cell_angle_gamma    61.6376

_symmetry_Int_Tables_number  12
_chemical_formula_structural  Rb2Hg2PdBr8
_chemical_formula_sum  Rb2Hg2PdBr8
_cell_volume  413.83474632412333
_cell_formula_units_Z  1
loop_
  _symmetry_equiv_pos_site_id
 _symmetry_equiv_pos_as_xyz
 1  'x, y, z'
loop_
 _atom_site_type_symbol
 _atom_site_label
 _atom_site_symmetry_multiplicity
 _atom_site_fract_x
 _atom_site_fract_y
 _atom_site_fract_z
 _atom_site_fract_occupancy
 Br  Br1  1  0.35326  0.35326  0.49717  1
 Br  Br2  1  0.89430  0.37908  0.86652  1
 Br  Br3  1  0.08824  0.08824  0.30369  1
 Br  Br4  1  0.91176  0.91176  0.69631  1
 Br  Br5  1  0.64674  0.64674  0.50283  1
 Br  Br6  1  0.10570  0.62092  0.13348  1
 Br  Br7  1  0.62092  0.10570  0.13348  1
 Br  Br8  1  0.37908  0.89430  0.86652  1
 Hg  Hg1  1  0.13301  0.13301  0.60204  1
 Hg  Hg2  1  0.86699  0.86699  0.39796  1
 Pd  Pd1  1  0.00000  0.00000  0.00000  1
 Rb  Rb1  1  0.39905  0.39905  0.82808  1
 Rb  Rb2  1  0.60095  0.60095  0.17192  1
