CIF file written using JARVIS-Tools package.
data_W2C
_symmetry_space_group_name_H-M  'Pnnm'
_cell_length_a       3.04415
_cell_length_b       4.71346
_cell_length_c       5.30014
_cell_angle_alpha    90
_cell_angle_beta     90
_cell_angle_gamma    90

_symmetry_Int_Tables_number  58
_chemical_formula_structural  W2C
_chemical_formula_sum  W4C2
_cell_volume  76.04887910864569
_cell_formula_units_Z  2
loop_
  _symmetry_equiv_pos_site_id
 _symmetry_equiv_pos_as_xyz
 1  'x, y, z'
loop_
 _atom_site_type_symbol
 _atom_site_label
 _atom_site_symmetry_multiplicity
 _atom_site_fract_x
 _atom_site_fract_y
 _atom_site_fract_z
 _atom_site_fract_occupancy
 C  C1  1  0.00000  0.00000  0.00000  1
 C  C2  1  0.50000  0.50000  0.50000  1
 W  W1  1  0.50000  0.26089  0.15735  1
 W  W2  1  0.00000  0.76089  0.34265  1
 W  W3  1  0.00000  0.23911  0.65735  1
 W  W4  1  0.50000  0.73911  0.84265  1
