CIF file written using JARVIS-Tools package.
data_ZnSi2SnO6
_symmetry_space_group_name_H-M  'C2/c'
_cell_length_a       5.48846
_cell_length_b       7.28327
_cell_length_c       7.28328
_cell_angle_alpha    83.0789
_cell_angle_beta     75.3144
_cell_angle_gamma    75.3145

_symmetry_Int_Tables_number  15
_chemical_formula_structural  ZnSi2SnO6
_chemical_formula_sum  Zn2Si4Sn2O2
_cell_volume  271.93799936284904
_cell_formula_units_Z  2
loop_
  _symmetry_equiv_pos_site_id
 _symmetry_equiv_pos_as_xyz
 1  'x, y, z'
loop_
 _atom_site_type_symbol
 _atom_site_label
 _atom_site_symmetry_multiplicity
 _atom_site_fract_x
 _atom_site_fract_y
 _atom_site_fract_z
 _atom_site_fract_occupancy
 O  O1  1  0.83221  0.34304  0.94310  1
 O  O2  1  0.46268  0.26888  0.24898  1
 O  O3  1  0.33221  0.94310  0.34304  1
 O  O4  1  0.53732  0.73112  0.75102  1
 O  O5  1  0.96268  0.24898  0.26888  1
 O  O6  1  0.03732  0.75102  0.73112  1
 O  O7  1  0.38216  0.41971  0.76261  1
 O  O8  1  0.88216  0.76261  0.41971  1
 O  O9  1  0.61784  0.58029  0.23739  1
 O  O10  1  0.16779  0.65696  0.05690  1
 O  O11  1  0.66779  0.05690  0.65696  1
 O  O12  1  0.11784  0.23739  0.58029  1
 Si  Si1  1  0.78015  0.82897  0.63977  1
 Si  Si2  1  0.71985  0.36023  0.17103  1
 Si  Si3  1  0.28015  0.63977  0.82897  1
 Si  Si4  1  0.21985  0.17103  0.36023  1
 Sn  Sn1  1  0.75000  0.84508  0.15493  1
 Sn  Sn2  1  0.25000  0.15493  0.84507  1
 Zn  Zn1  1  0.25000  0.70085  0.29915  1
 Zn  Zn2  1  0.75000  0.29915  0.70085  1
