CIF file written using JARVIS-Tools package.
data_SrY2S4
_symmetry_space_group_name_H-M  'I-42d'
_cell_length_a       7.3613
_cell_length_b       7.3613
_cell_length_c       7.3613
_cell_angle_alpha    109.351
_cell_angle_beta     109.351
_cell_angle_gamma    109.712

_symmetry_Int_Tables_number  122
_chemical_formula_structural  SrY2S4
_chemical_formula_sum  Sr2Y4S8
_cell_volume  307.0688805486161
_cell_formula_units_Z  2
loop_
  _symmetry_equiv_pos_site_id
 _symmetry_equiv_pos_as_xyz
 1  'x, y, z'
loop_
 _atom_site_type_symbol
 _atom_site_label
 _atom_site_symmetry_multiplicity
 _atom_site_fract_x
 _atom_site_fract_y
 _atom_site_fract_z
 _atom_site_fract_occupancy
 S  S1  1  0.48749  0.98392  0.84972  1
 S  S2  1  0.13777  0.13420  0.15028  1
 S  S3  1  0.36223  0.51251  0.99643  1
 S  S4  1  0.63420  0.63777  0.65028  1
 S  S5  1  0.48392  0.98749  0.34972  1
 S  S6  1  0.01251  0.86223  0.49643  1
 S  S7  1  0.86580  0.51608  0.00357  1
 S  S8  1  0.01608  0.36580  0.50357  1
 Sr  Sr1  1  0.62500  0.37500  0.25000  1
 Sr  Sr2  1  0.87500  0.12500  0.75000  1
 Y  Y1  1  0.12859  0.75000  0.87859  1
 Y  Y2  1  0.25000  0.62859  0.37859  1
 Y  Y3  1  0.37141  0.25000  0.62141  1
 Y  Y4  1  0.75000  0.87141  0.12141  1
