CIF file written using JARVIS-Tools package.
data_HgIBr
_symmetry_space_group_name_H-M  'Cmc2_1'
_cell_length_a       4.33187
_cell_length_b       4.33187
_cell_length_c       13.0393
_cell_angle_alpha    90
_cell_angle_beta     90
_cell_angle_gamma    116.397

_symmetry_Int_Tables_number  36
_chemical_formula_structural  HgIBr
_chemical_formula_sum  Hg2I2Br2
_cell_volume  219.17163941053266
_cell_formula_units_Z  2
loop_
  _symmetry_equiv_pos_site_id
 _symmetry_equiv_pos_as_xyz
 1  'x, y, z'
loop_
 _atom_site_type_symbol
 _atom_site_label
 _atom_site_symmetry_multiplicity
 _atom_site_fract_x
 _atom_site_fract_y
 _atom_site_fract_z
 _atom_site_fract_occupancy
 Br  Br1  1  0.59336  0.40664  0.86911  1
 Br  Br2  1  0.40664  0.59336  0.36911  1
 Hg  Hg1  1  0.84403  0.15597  0.00119  1
 Hg  Hg2  1  0.15597  0.84403  0.50119  1
 I  I1  1  0.89266  0.10734  0.64169  1
 I  I2  1  0.10734  0.89266  0.14169  1
