CIF file written using JARVIS-Tools package.
data_Ca3B2O6
_symmetry_space_group_name_H-M  'R-3c'
_cell_length_a       6.35842
_cell_length_b       6.35842
_cell_length_c       6.35842
_cell_angle_alpha    86.0308
_cell_angle_beta     86.0307
_cell_angle_gamma    86.0308

_symmetry_Int_Tables_number  167
_chemical_formula_structural  Ca3B2O6
_chemical_formula_sum  Ca6B4O2
_cell_volume  255.29915225921607
_cell_formula_units_Z  2
loop_
  _symmetry_equiv_pos_site_id
 _symmetry_equiv_pos_as_xyz
 1  'x, y, z'
loop_
 _atom_site_type_symbol
 _atom_site_label
 _atom_site_symmetry_multiplicity
 _atom_site_fract_x
 _atom_site_fract_y
 _atom_site_fract_z
 _atom_site_fract_occupancy
 B  B1  1  0.38221  0.38221  0.38221  1
 B  B2  1  0.11779  0.11779  0.11779  1
 B  B3  1  0.88221  0.88221  0.88221  1
 B  B4  1  0.61779  0.61779  0.61779  1
 Ca  Ca1  1  0.60865  0.89135  0.25000  1
 Ca  Ca2  1  0.89135  0.25000  0.60865  1
 Ca  Ca3  1  0.39135  0.10865  0.75000  1
 Ca  Ca4  1  0.75000  0.39135  0.10865  1
 Ca  Ca5  1  0.10865  0.75000  0.39135  1
 Ca  Ca6  1  0.25000  0.60865  0.89135  1
 O  O1  1  0.89791  0.71847  0.03798  1
 O  O2  1  0.21847  0.39791  0.53798  1
 O  O3  1  0.39791  0.53798  0.21847  1
 O  O4  1  0.53798  0.21847  0.39791  1
 O  O5  1  0.96202  0.10209  0.28153  1
 O  O6  1  0.78153  0.60209  0.46202  1
 O  O7  1  0.71847  0.03798  0.89791  1
 O  O8  1  0.60209  0.46202  0.78153  1
 O  O9  1  0.46202  0.78153  0.60209  1
 O  O10  1  0.03798  0.89791  0.71847  1
 O  O11  1  0.10209  0.28153  0.96202  1
 O  O12  1  0.28153  0.96202  0.10209  1
