CIF file written using JARVIS-Tools package.
data_CrCl2
_symmetry_space_group_name_H-M  'Pnnm'
_cell_length_a       3.59207
_cell_length_b       5.80881
_cell_length_c       6.19187
_cell_angle_alpha    90
_cell_angle_beta     90
_cell_angle_gamma    90

_symmetry_Int_Tables_number  58
_chemical_formula_structural  CrCl2
_chemical_formula_sum  Cr2Cl4
_cell_volume  129.19721029954385
_cell_formula_units_Z  2
loop_
  _symmetry_equiv_pos_site_id
 _symmetry_equiv_pos_as_xyz
 1  'x, y, z'
loop_
 _atom_site_type_symbol
 _atom_site_label
 _atom_site_symmetry_multiplicity
 _atom_site_fract_x
 _atom_site_fract_y
 _atom_site_fract_z
 _atom_site_fract_occupancy
 Cl  Cl1  1  0.50000  0.77702  0.16434  1
 Cl  Cl2  1  0.50000  0.22298  0.83566  1
 Cl  Cl3  1  0.00000  0.72298  0.66434  1
 Cl  Cl4  1  0.00000  0.27702  0.33566  1
 Cr  Cr1  1  0.50000  0.50000  0.50000  1
 Cr  Cr2  1  0.00000  0.00000  0.00000  1
