CIF file written using JARVIS-Tools package.
data_MgV2O6
_symmetry_space_group_name_H-M  'Amm2'
_cell_length_a       5.4617
_cell_length_b       5.16837
_cell_length_c       5.53719
_cell_angle_alpha    89.9581
_cell_angle_beta     119.55
_cell_angle_gamma    90

_symmetry_Int_Tables_number  38
_chemical_formula_structural  MgV2O6
_chemical_formula_sum  MgV2O6
_cell_volume  135.97291496538094
_cell_formula_units_Z  1
loop_
  _symmetry_equiv_pos_site_id
 _symmetry_equiv_pos_as_xyz
 1  'x, y, z'
loop_
 _atom_site_type_symbol
 _atom_site_label
 _atom_site_symmetry_multiplicity
 _atom_site_fract_x
 _atom_site_fract_y
 _atom_site_fract_z
 _atom_site_fract_occupancy
 Mg  Mg1  1  0.43776  0.51306  0.87552  1
 O  O1  1  0.21994  0.26990  0.99268  1
 O  O2  1  0.77264  0.75612  0.99251  1
 O  O3  1  0.77274  0.26990  0.99268  1
 O  O4  1  0.21987  0.75612  0.99251  1
 O  O5  1  0.77009  0.01353  0.54019  1
 O  O6  1  0.23357  0.51282  0.46714  1
 V  V1  1  0.93687  0.01314  0.87375  1
 V  V2  1  0.06112  0.51294  0.12225  1
