CIF file written using JARVIS-Tools package.
data_CaPS3
_symmetry_space_group_name_H-M  'P2_1/c'
_cell_length_a       6.5484
_cell_length_b       7.2835
_cell_length_c       11.0776
_cell_angle_alpha    90
_cell_angle_beta     124.014
_cell_angle_gamma    90

_symmetry_Int_Tables_number  14
_chemical_formula_structural  CaPS3
_chemical_formula_sum  Ca4P4S2
_cell_volume  437.94927328730193
_cell_formula_units_Z  4
loop_
  _symmetry_equiv_pos_site_id
 _symmetry_equiv_pos_as_xyz
 1  'x, y, z'
loop_
 _atom_site_type_symbol
 _atom_site_label
 _atom_site_symmetry_multiplicity
 _atom_site_fract_x
 _atom_site_fract_y
 _atom_site_fract_z
 _atom_site_fract_occupancy
 Ca  Ca1  1  0.71264  0.61861  0.75277  1
 Ca  Ca2  1  0.28736  0.11861  0.74723  1
 Ca  Ca3  1  0.28736  0.38139  0.24723  1
 Ca  Ca4  1  0.71264  0.88139  0.25277  1
 P  P1  1  0.36347  0.60986  0.93331  1
 P  P2  1  0.63653  0.10986  0.56669  1
 P  P3  1  0.63653  0.39014  0.06669  1
 P  P4  1  0.36347  0.89014  0.43331  1
 S  S1  1  0.58336  0.69097  0.43365  1
 S  S2  1  0.77828  0.19550  0.45262  1
 S  S3  1  0.41664  0.30903  0.56635  1
 S  S4  1  0.58336  0.80903  0.93365  1
 S  S5  1  0.41664  0.19097  0.06635  1
 S  S6  1  0.22172  0.80450  0.54738  1
 S  S7  1  0.88609  0.99302  0.76225  1
 S  S8  1  0.11391  0.49302  0.73775  1
 S  S9  1  0.11391  0.00698  0.23775  1
 S  S10  1  0.77828  0.30450  0.95262  1
 S  S11  1  0.88609  0.50698  0.26225  1
 S  S12  1  0.22172  0.69550  0.04738  1
