CIF file written using JARVIS-Tools package.
data_CeCu2
_symmetry_space_group_name_H-M  'Imma'
_cell_length_a       4.38429
_cell_length_b       5.52257
_cell_length_c       5.52257
_cell_angle_alpha    75.4747
_cell_angle_beta     66.6128
_cell_angle_gamma    66.6128

_symmetry_Int_Tables_number  74
_chemical_formula_structural  CeCu2
_chemical_formula_sum  Ce2Cu4
_cell_volume  111.95442909245531
_cell_formula_units_Z  2
loop_
  _symmetry_equiv_pos_site_id
 _symmetry_equiv_pos_as_xyz
 1  'x, y, z'
loop_
 _atom_site_type_symbol
 _atom_site_label
 _atom_site_symmetry_multiplicity
 _atom_site_fract_x
 _atom_site_fract_y
 _atom_site_fract_z
 _atom_site_fract_occupancy
 Ce  Ce1  1  0.51830  0.73170  0.23170  1
 Ce  Ce2  1  0.48170  0.26830  0.76830  1
 Cu  Cu1  1  0.83364  0.69277  0.63995  1
 Cu  Cu2  1  0.16636  0.30723  0.36005  1
 Cu  Cu3  1  0.83364  0.13995  0.19277  1
 Cu  Cu4  1  0.16636  0.86005  0.80723  1
