CIF file written using JARVIS-Tools package.
data_RbCuO
_symmetry_space_group_name_H-M  'I4/mmm'
_cell_length_a       5.81873
_cell_length_b       7.33836
_cell_length_c       7.33835
_cell_angle_alpha    80.9567
_cell_angle_beta     66.643
_cell_angle_gamma    66.6429

_symmetry_Int_Tables_number  139
_chemical_formula_structural  RbCuO
_chemical_formula_sum  Rb4Cu4O4
_cell_volume  264.0951719982715
_cell_formula_units_Z  4
loop_
  _symmetry_equiv_pos_site_id
 _symmetry_equiv_pos_as_xyz
 1  'x, y, z'
loop_
 _atom_site_type_symbol
 _atom_site_label
 _atom_site_symmetry_multiplicity
 _atom_site_fract_x
 _atom_site_fract_y
 _atom_site_fract_z
 _atom_site_fract_occupancy
 Cu  Cu1  1  0.13732  0.72536  -0.00000  1
 Cu  Cu2  1  0.86268  0.27464  0.00000  1
 Cu  Cu3  1  0.13732  -0.00000  0.72536  1
 Cu  Cu4  1  0.86268  0.00000  0.27464  1
 O  O1  1  0.72640  0.27360  0.27360  1
 O  O2  1  0.00000  0.27360  0.72640  1
 O  O3  1  -0.00000  0.72640  0.27360  1
 O  O4  1  0.27360  0.72640  0.72640  1
 Rb  Rb1  1  0.50000  0.30477  0.69523  1
 Rb  Rb2  1  0.80477  0.69523  0.69523  1
 Rb  Rb3  1  0.50000  0.69523  0.30477  1
 Rb  Rb4  1  0.19523  0.30477  0.30477  1
