CIF file written using JARVIS-Tools package.
data_BaBAsO5
_symmetry_space_group_name_H-M  'P3_121'
_cell_length_a       7.37335
_cell_length_b       7.37335
_cell_length_c       7.17917
_cell_angle_alpha    90
_cell_angle_beta     90
_cell_angle_gamma    120

_symmetry_Int_Tables_number  152
_chemical_formula_structural  BaBAsO5
_chemical_formula_sum  Ba3B3As3O5
_cell_volume  338.01401042745294
_cell_formula_units_Z  3
loop_
  _symmetry_equiv_pos_site_id
 _symmetry_equiv_pos_as_xyz
 1  'x, y, z'
loop_
 _atom_site_type_symbol
 _atom_site_label
 _atom_site_symmetry_multiplicity
 _atom_site_fract_x
 _atom_site_fract_y
 _atom_site_fract_z
 _atom_site_fract_occupancy
 As  As1  1  0.93652  0.26998  0.66956  1
 As  As2  1  0.33346  0.06348  0.33623  1
 As  As3  1  0.73002  0.66654  0.00289  1
 B  B1  1  0.33327  0.56987  0.83627  1
 B  B2  1  0.23659  0.66673  0.50294  1
 B  B3  1  0.43013  0.76341  0.16960  1
 Ba  Ba1  1  0.33334  0.05806  0.83624  1
 Ba  Ba2  1  0.72472  0.66666  0.50291  1
 Ba  Ba3  1  0.94194  0.27528  0.16957  1
 O  O1  1  0.33354  0.64003  0.33637  1
 O  O2  1  0.35997  0.69351  0.66971  1
 O  O3  1  0.47848  0.98999  0.19078  1
 O  O4  1  0.74698  0.23145  0.82136  1
 O  O5  1  0.48447  0.25302  0.48803  1
 O  O6  1  0.76855  0.51553  0.15469  1
 O  O7  1  0.18261  0.10240  0.18455  1
 O  O8  1  0.18816  0.84490  0.48153  1
 O  O9  1  0.15510  0.34326  0.81486  1
 O  O10  1  0.91980  0.81739  0.85122  1
 O  O11  1  0.65674  0.81184  0.14819  1
 O  O12  1  0.89760  0.08020  0.51789  1
 O  O13  1  0.51151  0.52152  0.85744  1
 O  O14  1  0.30649  0.66646  0.00304  1
 O  O15  1  0.01001  0.48849  0.52411  1
