CIF file written using JARVIS-Tools package.
data_PbWO4
_symmetry_space_group_name_H-M  'I4_1/a'
_cell_length_a       5.51019
_cell_length_b       5.5102
_cell_length_c       7.18986
_cell_angle_alpha    112.532
_cell_angle_beta     112.531
_cell_angle_gamma    90

_symmetry_Int_Tables_number  88
_chemical_formula_structural  PbWO4
_chemical_formula_sum  Pb2W2O8
_cell_volume  183.4666554266452
_cell_formula_units_Z  2
loop_
  _symmetry_equiv_pos_site_id
 _symmetry_equiv_pos_as_xyz
 1  'x, y, z'
loop_
 _atom_site_type_symbol
 _atom_site_label
 _atom_site_symmetry_multiplicity
 _atom_site_fract_x
 _atom_site_fract_y
 _atom_site_fract_z
 _atom_site_fract_occupancy
 O  O1  1  0.19058  0.56409  0.91571  1
 O  O2  1  0.35162  0.69058  0.41571  1
 O  O3  1  0.06409  0.22513  0.41571  1
 O  O4  1  0.72513  0.85162  0.91571  1
 O  O5  1  0.27487  0.14838  0.08429  1
 O  O6  1  0.93591  0.77487  0.58429  1
 O  O7  1  0.64838  0.30942  0.58429  1
 O  O8  1  0.80942  0.43591  0.08429  1
 Pb  Pb1  1  0.37500  0.12500  0.75000  1
 Pb  Pb2  1  0.62500  0.87500  0.25000  1
 W  W1  1  0.87500  0.62500  0.75000  1
 W  W2  1  0.12500  0.37500  0.25000  1
