CIF file written using JARVIS-Tools package.
data_RbCr4O8
_symmetry_space_group_name_H-M  'I4/m'
_cell_length_a       2.97086
_cell_length_b       7.11536
_cell_length_c       7.11579
_cell_angle_alpha    87.4987
_cell_angle_beta     102.048
_cell_angle_gamma    102.049

_symmetry_Int_Tables_number  87
_chemical_formula_structural  RbCr4O8
_chemical_formula_sum  RbCr4O8
_cell_volume  143.86465640547004
_cell_formula_units_Z  1
loop_
  _symmetry_equiv_pos_site_id
 _symmetry_equiv_pos_as_xyz
 1  'x, y, z'
loop_
 _atom_site_type_symbol
 _atom_site_label
 _atom_site_symmetry_multiplicity
 _atom_site_fract_x
 _atom_site_fract_y
 _atom_site_fract_z
 _atom_site_fract_occupancy
 Cr  Cr1  1  0.65263  0.81565  0.48960  1
 Cr  Cr2  1  0.83698  0.48963  0.18434  1
 Cr  Cr3  1  0.34736  0.18436  0.51040  1
 Cr  Cr4  1  0.16303  0.51037  0.81566  1
 O  O1  1  0.83699  0.29730  0.37672  1
 O  O2  1  0.16301  0.70271  0.62329  1
 O  O3  1  0.53972  0.37665  0.70277  1
 O  O4  1  0.46028  0.62335  0.29723  1
 O  O5  1  0.79592  0.64093  0.95093  1
 O  O6  1  0.84497  0.04903  0.64093  1
 O  O7  1  0.20408  0.35906  0.04907  1
 O  O8  1  0.15503  0.95097  0.35907  1
 Rb  Rb1  1  0.50001  1.00000  0.00000  1
