CIF file written using JARVIS-Tools package.
data_MoPH3O7
_symmetry_space_group_name_H-M  'P2_1/m'
_cell_length_a       6.70051
_cell_length_b       6.36717
_cell_length_c       7.03084
_cell_angle_alpha    90
_cell_angle_beta     110.864
_cell_angle_gamma    90

_symmetry_Int_Tables_number  11
_chemical_formula_structural  MoPH3O7
_chemical_formula_sum  Mo2P2H6O4
_cell_volume  280.2901298209949
_cell_formula_units_Z  2
loop_
  _symmetry_equiv_pos_site_id
 _symmetry_equiv_pos_as_xyz
 1  'x, y, z'
loop_
 _atom_site_type_symbol
 _atom_site_label
 _atom_site_symmetry_multiplicity
 _atom_site_fract_x
 _atom_site_fract_y
 _atom_site_fract_z
 _atom_site_fract_occupancy
 H  H1  1  0.00237  0.25000  0.70101  1
 H  H2  1  0.99763  0.75000  0.29899  1
 H  H3  1  0.74848  0.25000  0.30519  1
 H  H4  1  0.25152  0.75000  0.69481  1
 H  H5  1  0.66507  0.25000  0.06134  1
 H  H6  1  0.33493  0.75000  0.93866  1
 Mo  Mo1  1  0.28193  0.25000  0.16331  1
 Mo  Mo2  1  0.71807  0.75000  0.83669  1
 O  O1  1  0.67459  0.06028  0.80917  1
 O  O2  1  0.04340  0.25000  0.19702  1
 O  O3  1  0.32541  0.93972  0.19083  1
 O  O4  1  0.67459  0.43972  0.80917  1
 O  O5  1  0.45745  0.25000  0.48229  1
 O  O6  1  0.32541  0.56028  0.19083  1
 O  O7  1  0.85417  0.25000  0.59142  1
 O  O8  1  0.62076  0.25000  0.17998  1
 O  O9  1  0.21451  0.25000  0.90233  1
 O  O10  1  0.78549  0.75000  0.09767  1
 O  O11  1  0.54255  0.75000  0.51771  1
 O  O12  1  0.37924  0.75000  0.82002  1
 O  O13  1  0.14583  0.75000  0.40858  1
 O  O14  1  0.95660  0.75000  0.80298  1
 P  P1  1  0.34074  0.75000  0.33201  1
 P  P2  1  0.65926  0.25000  0.66799  1
