CIF file written using JARVIS-Tools package.
data_Ce3Th2O9
_symmetry_space_group_name_H-M  'Cm'
_cell_length_a       3.91741
_cell_length_b       6.8551
_cell_length_c       8.82088
_cell_angle_alpha    97.5446
_cell_angle_beta     102.83
_cell_angle_gamma    106.595

_symmetry_Int_Tables_number  8
_chemical_formula_structural  Ce3Th2O9
_chemical_formula_sum  Ce3Th2O9
_cell_volume  216.48417020597768
_cell_formula_units_Z  1
loop_
  _symmetry_equiv_pos_site_id
 _symmetry_equiv_pos_as_xyz
 1  'x, y, z'
loop_
 _atom_site_type_symbol
 _atom_site_label
 _atom_site_symmetry_multiplicity
 _atom_site_fract_x
 _atom_site_fract_y
 _atom_site_fract_z
 _atom_site_fract_occupancy
 Ce  Ce1  1  0.00402  0.99763  0.01245  1
 Ce  Ce2  1  0.61188  0.42985  0.79595  1
 Ce  Ce3  1  0.18782  0.79287  0.58481  1
 O  O1  1  0.12931  0.31983  0.94078  1
 O  O2  1  0.05602  0.46527  0.64882  1
 O  O3  1  0.35954  0.14795  0.57317  1
 O  O4  1  0.77291  0.78962  0.75828  1
 O  O5  1  0.63995  0.84603  0.43591  1
 O  O6  1  0.25308  0.24534  0.26286  1
 O  O7  1  0.94354  0.54349  0.34563  1
 O  O8  1  0.84480  0.64325  0.04839  1
 O  O9  1  0.54289  0.95174  0.13607  1
 Th  Th1  1  0.80298  0.19883  0.40917  1
 Th  Th2  1  0.39023  0.58837  0.19412  1
