CIF file written using JARVIS-Tools package.
data_UCrC2
_symmetry_space_group_name_H-M  'Pnma'
_cell_length_a       3.73103
_cell_length_b       5.26982
_cell_length_c       10.4013
_cell_angle_alpha    90
_cell_angle_beta     90
_cell_angle_gamma    90

_symmetry_Int_Tables_number  62
_chemical_formula_structural  UCrC2
_chemical_formula_sum  U4Cr4C8
_cell_volume  204.50793123736065
_cell_formula_units_Z  4
loop_
  _symmetry_equiv_pos_site_id
 _symmetry_equiv_pos_as_xyz
 1  'x, y, z'
loop_
 _atom_site_type_symbol
 _atom_site_label
 _atom_site_symmetry_multiplicity
 _atom_site_fract_x
 _atom_site_fract_y
 _atom_site_fract_z
 _atom_site_fract_occupancy
 C  C1  1  0.25000  0.25343  0.49991  1
 C  C2  1  0.75000  0.74657  0.50009  1
 C  C3  1  0.25000  0.75343  0.00009  1
 C  C4  1  0.75000  0.24657  0.99991  1
 C  C5  1  0.25000  0.10247  0.62467  1
 C  C6  1  0.75000  0.39753  0.12467  1
 C  C7  1  0.25000  0.60247  0.87533  1
 C  C8  1  0.75000  0.89753  0.37533  1
 Cr  Cr1  1  0.75000  0.59793  0.92855  1
 Cr  Cr2  1  0.75000  0.09793  0.57145  1
 Cr  Cr3  1  0.25000  0.40207  0.07145  1
 Cr  Cr4  1  0.25000  0.90207  0.42855  1
 U  U1  1  0.25000  0.60535  0.64395  1
 U  U2  1  0.75000  0.39465  0.35605  1
 U  U3  1  0.25000  0.10535  0.85605  1
 U  U4  1  0.75000  0.89465  0.14395  1
