CIF file written using JARVIS-Tools package.
data_TlI
_symmetry_space_group_name_H-M  'Cmcm'
_cell_length_a       4.59383
_cell_length_b       5.28507
_cell_length_c       6.89477
_cell_angle_alpha    90
_cell_angle_beta     109.459
_cell_angle_gamma    90

_symmetry_Int_Tables_number  63
_chemical_formula_structural  TlI
_chemical_formula_sum  Tl2I2
_cell_volume  157.83396180859782
_cell_formula_units_Z  2
loop_
  _symmetry_equiv_pos_site_id
 _symmetry_equiv_pos_as_xyz
 1  'x, y, z'
loop_
 _atom_site_type_symbol
 _atom_site_label
 _atom_site_symmetry_multiplicity
 _atom_site_fract_x
 _atom_site_fract_y
 _atom_site_fract_z
 _atom_site_fract_occupancy
 I  I1  1  0.86614  0.25000  0.73227  1
 I  I2  1  0.13386  0.75000  0.26773  1
 Tl  Tl1  1  0.60823  0.25000  0.21646  1
 Tl  Tl2  1  0.39177  0.75000  0.78354  1
