CIF file written using JARVIS-Tools package.
data_SrPS3
_symmetry_space_group_name_H-M  'P2_1/c'
_cell_length_a       6.68459
_cell_length_b       7.57938
_cell_length_c       11.3936
_cell_angle_alpha    90
_cell_angle_beta     124.174
_cell_angle_gamma    90

_symmetry_Int_Tables_number  14
_chemical_formula_structural  SrPS3
_chemical_formula_sum  Sr4P4S2
_cell_volume  477.5853211574729
_cell_formula_units_Z  4
loop_
  _symmetry_equiv_pos_site_id
 _symmetry_equiv_pos_as_xyz
 1  'x, y, z'
loop_
 _atom_site_type_symbol
 _atom_site_label
 _atom_site_symmetry_multiplicity
 _atom_site_fract_x
 _atom_site_fract_y
 _atom_site_fract_z
 _atom_site_fract_occupancy
 P  P1  1  0.37074  0.60882  0.93387  1
 P  P2  1  0.62926  0.10882  0.56613  1
 P  P3  1  0.62926  0.39118  0.06613  1
 P  P4  1  0.37074  0.89118  0.43387  1
 S  S1  1  0.21741  0.80822  0.53692  1
 S  S2  1  0.59449  0.69964  0.44297  1
 S  S3  1  0.78259  0.19178  0.46308  1
 S  S4  1  0.40551  0.30036  0.55703  1
 S  S5  1  0.59449  0.80036  0.94297  1
 S  S6  1  0.40551  0.19964  0.05703  1
 S  S7  1  0.86225  0.49589  0.26157  1
 S  S8  1  0.21741  0.69178  0.03692  1
 S  S9  1  0.13775  0.50411  0.73843  1
 S  S10  1  0.13775  0.99589  0.23843  1
 S  S11  1  0.78259  0.30822  0.96308  1
 S  S12  1  0.86225  0.00411  0.76157  1
 Sr  Sr1  1  0.70849  0.88824  0.24967  1
 Sr  Sr2  1  0.29151  0.38824  0.25033  1
 Sr  Sr3  1  0.29151  0.11176  0.75033  1
 Sr  Sr4  1  0.70849  0.61176  0.74967  1
