CIF file written using JARVIS-Tools package.
data_Li7Cr2O8
_symmetry_space_group_name_H-M  'P1'
_cell_length_a       5.13893
_cell_length_b       5.20543
_cell_length_c       7.74605
_cell_angle_alpha    69.4607
_cell_angle_beta     81.6527
_cell_angle_gamma    67.2155

_symmetry_Int_Tables_number  1
_chemical_formula_structural  Li7Cr2O8
_chemical_formula_sum  Li7Cr2O8
_cell_volume  178.88631381476804
_cell_formula_units_Z  1
loop_
  _symmetry_equiv_pos_site_id
 _symmetry_equiv_pos_as_xyz
 1  'x, y, z'
loop_
 _atom_site_type_symbol
 _atom_site_label
 _atom_site_symmetry_multiplicity
 _atom_site_fract_x
 _atom_site_fract_y
 _atom_site_fract_z
 _atom_site_fract_occupancy
 Cr  Cr1  1  0.70246  0.62246  0.22680  1
 Cr  Cr2  1  0.29522  0.37084  0.76741  1
 Li  Li1  1  0.22074  0.80034  -0.00247  1
 Li  Li2  1  0.72605  0.77281  0.81318  1
 Li  Li3  1  0.76349  0.22401  0.01070  1
 Li  Li4  1  0.24133  0.95072  0.54177  1
 Li  Li5  1  0.71322  0.06336  0.45391  1
 Li  Li6  1  0.26916  0.23016  0.20857  1
 Li  Li7  1  0.80107  0.51597  0.56599  1
 O  O1  1  0.02604  0.68806  0.63832  1
 O  O2  1  0.55799  0.49072  0.78793  1
 O  O3  1  0.84459  0.81508  0.02852  1
 O  O4  1  0.49675  0.47392  0.16152  1
 O  O5  1  0.94573  0.30715  0.38201  1
 O  O6  1  0.54563  0.85032  0.36474  1
 O  O7  1  0.43318  0.11100  0.65543  1
 O  O8  1  0.16340  0.20319  0.98089  1
