CIF file written using JARVIS-Tools package.
data_LiCuPO4
_symmetry_space_group_name_H-M  'I-4'
_cell_length_a       4.96437
_cell_length_b       4.82814
_cell_length_c       4.96437
_cell_angle_alpha    59.0622
_cell_angle_beta     90
_cell_angle_gamma    120.938

_symmetry_Int_Tables_number  82
_chemical_formula_structural  LiCuPO4
_chemical_formula_sum  LiCuPO4
_cell_volume  81.69517872704823
_cell_formula_units_Z  1
loop_
  _symmetry_equiv_pos_site_id
 _symmetry_equiv_pos_as_xyz
 1  'x, y, z'
loop_
 _atom_site_type_symbol
 _atom_site_label
 _atom_site_symmetry_multiplicity
 _atom_site_fract_x
 _atom_site_fract_y
 _atom_site_fract_z
 _atom_site_fract_occupancy
 Cu  Cu1  1  0.00000  0.00000  0.00000  1
 Li  Li1  1  0.50000  0.00000  0.50000  1
 O  O1  1  0.69802  0.76298  0.43560  1
 O  O2  1  0.80142  0.23702  0.69802  1
 O  O3  1  0.43560  0.23702  0.06496  1
 O  O4  1  0.06496  0.76298  0.80142  1
 P  P1  1  0.75000  0.50000  0.75000  1
