CIF file written using JARVIS-Tools package.
data_BaSiN2
_symmetry_space_group_name_H-M  'Cmce'
_cell_length_a       5.65361
_cell_length_b       6.41235
_cell_length_c       7.6438
_cell_angle_alpha    90
_cell_angle_beta     90
_cell_angle_gamma    116.157

_symmetry_Int_Tables_number  64
_chemical_formula_structural  BaSiN2
_chemical_formula_sum  Ba4Si4N8
_cell_volume  248.7299794535296
_cell_formula_units_Z  4
loop_
  _symmetry_equiv_pos_site_id
 _symmetry_equiv_pos_as_xyz
 1  'x, y, z'
loop_
 _atom_site_type_symbol
 _atom_site_label
 _atom_site_symmetry_multiplicity
 _atom_site_fract_x
 _atom_site_fract_y
 _atom_site_fract_z
 _atom_site_fract_occupancy
 Ba  Ba1  1  0.83504  0.67008  0.56538  1
 Ba  Ba2  1  0.16496  0.32992  0.43462  1
 Ba  Ba3  1  0.66496  0.32992  0.06538  1
 Ba  Ba4  1  0.33504  0.67008  0.93462  1
 N  N1  1  0.34765  0.19530  0.75000  1
 N  N2  1  0.15235  0.80470  0.25000  1
 N  N3  1  0.65235  0.80470  0.25000  1
 N  N4  1  0.84765  0.19530  0.75000  1
 N  N5  1  0.89913  0.79826  0.91944  1
 N  N6  1  0.39913  0.79826  0.58056  1
 N  N7  1  0.60087  0.20174  0.41944  1
 N  N8  1  0.10087  0.20174  0.08056  1
 Si  Si1  1  0.04942  0.09885  0.85921  1
 Si  Si2  1  0.45058  0.90115  0.35921  1
 Si  Si3  1  0.95058  0.90115  0.14079  1
 Si  Si4  1  0.54942  0.09885  0.64079  1
