CIF file written using JARVIS-Tools package.
data_YCoF5
_symmetry_space_group_name_H-M  'Immm'
_cell_length_a       4.17927
_cell_length_b       5.71644
_cell_length_c       5.71643
_cell_angle_alpha    73.637
_cell_angle_beta     68.5586
_cell_angle_gamma    68.5586

_symmetry_Int_Tables_number  71
_chemical_formula_structural  YCoF5
_chemical_formula_sum  YCoF5
_cell_volume  116.57796651863065
_cell_formula_units_Z  1
loop_
  _symmetry_equiv_pos_site_id
 _symmetry_equiv_pos_as_xyz
 1  'x, y, z'
loop_
 _atom_site_type_symbol
 _atom_site_label
 _atom_site_symmetry_multiplicity
 _atom_site_fract_x
 _atom_site_fract_y
 _atom_site_fract_z
 _atom_site_fract_occupancy
 Co  Co1  1  0.00000  0.00000  0.00000  1
 F  F1  1  0.50000  0.81787  0.18213  1
 F  F2  1  0.50000  0.18213  0.81787  1
 F  F3  1  0.77049  0.22951  0.22951  1
 F  F4  1  0.22951  0.77049  0.77049  1
 F  F5  1  0.00000  0.50000  0.50000  1
 Y  Y1  1  0.50000  0.50000  0.50000  1
