CIF file written using JARVIS-Tools package.
data_HCl
_symmetry_space_group_name_H-M  'I4mm'
_cell_length_a       3.74758
_cell_length_b       3.74758
_cell_length_c       3.85186
_cell_angle_alpha    59.0752
_cell_angle_beta     59.0752
_cell_angle_gamma    86.6281

_symmetry_Int_Tables_number  107
_chemical_formula_structural  HCl
_chemical_formula_sum  HCl
_cell_volume  38.2292271831433
_cell_formula_units_Z  1
loop_
  _symmetry_equiv_pos_site_id
 _symmetry_equiv_pos_as_xyz
 1  'x, y, z'
loop_
 _atom_site_type_symbol
 _atom_site_label
 _atom_site_symmetry_multiplicity
 _atom_site_fract_x
 _atom_site_fract_y
 _atom_site_fract_z
 _atom_site_fract_occupancy
 Cl  Cl1  1  0.95978  0.04022  0.00000  1
 H  H1  1  0.70822  0.29178  -0.00000  1
