CIF file written using JARVIS-Tools package.
data_CoSeO3
_symmetry_space_group_name_H-M  'Pnma'
_cell_length_a       5.06261
_cell_length_b       5.91911
_cell_length_c       7.52542
_cell_angle_alpha    90
_cell_angle_beta     90
_cell_angle_gamma    90

_symmetry_Int_Tables_number  62
_chemical_formula_structural  CoSeO3
_chemical_formula_sum  Co4Se4O2
_cell_volume  225.5081000422278
_cell_formula_units_Z  4
loop_
  _symmetry_equiv_pos_site_id
 _symmetry_equiv_pos_as_xyz
 1  'x, y, z'
loop_
 _atom_site_type_symbol
 _atom_site_label
 _atom_site_symmetry_multiplicity
 _atom_site_fract_x
 _atom_site_fract_y
 _atom_site_fract_z
 _atom_site_fract_occupancy
 Co  Co1  1  0.00000  0.50000  0.50000  1
 Co  Co2  1  0.50000  0.00000  0.50000  1
 Co  Co3  1  0.50000  0.00000  0.00000  1
 Co  Co4  1  0.00000  0.50000  0.00000  1
 O  O1  1  0.86338  0.18614  0.42643  1
 O  O2  1  0.67386  0.93343  0.75000  1
 O  O3  1  0.63662  0.68614  0.07357  1
 O  O4  1  0.13662  0.81386  0.92643  1
 O  O5  1  0.36338  0.31386  0.57357  1
 O  O6  1  0.63662  0.68614  0.42643  1
 O  O7  1  0.36338  0.31386  0.92643  1
 O  O8  1  0.32614  0.06657  0.25000  1
 O  O9  1  0.13662  0.81386  0.57357  1
 O  O10  1  0.82614  0.43343  0.75000  1
 O  O11  1  0.86338  0.18614  0.07357  1
 O  O12  1  0.17386  0.56657  0.25000  1
 Se  Se1  1  0.98226  0.01689  0.25000  1
 Se  Se2  1  0.48226  0.48311  0.75000  1
 Se  Se3  1  0.51774  0.51689  0.25000  1
 Se  Se4  1  0.01774  0.98311  0.75000  1
