CIF file written using JARVIS-Tools package.
data_KAs
_symmetry_space_group_name_H-M  'P2_12_12_1'
_cell_length_a       6.47995
_cell_length_b       6.64928
_cell_length_c       11.5735
_cell_angle_alpha    90
_cell_angle_beta     90
_cell_angle_gamma    90

_symmetry_Int_Tables_number  19
_chemical_formula_structural  KAs
_chemical_formula_sum  K8As8
_cell_volume  498.66558057695465
_cell_formula_units_Z  8
loop_
  _symmetry_equiv_pos_site_id
 _symmetry_equiv_pos_as_xyz
 1  'x, y, z'
loop_
 _atom_site_type_symbol
 _atom_site_label
 _atom_site_symmetry_multiplicity
 _atom_site_fract_x
 _atom_site_fract_y
 _atom_site_fract_z
 _atom_site_fract_occupancy
 As  As1  1  0.09315  0.43990  0.46739  1
 As  As2  1  0.59315  0.06010  0.53261  1
 As  As3  1  0.90685  0.93990  0.03261  1
 As  As4  1  0.40685  0.56010  0.96739  1
 As  As5  1  0.82851  0.32469  0.61614  1
 As  As6  1  0.32851  0.17531  0.38386  1
 As  As7  1  0.17149  0.82469  0.88386  1
 As  As8  1  0.67149  0.67531  0.11614  1
 K  K1  1  0.32984  0.34357  0.71446  1
 K  K2  1  0.82984  0.15643  0.28554  1
 K  K3  1  0.67016  0.84357  0.78554  1
 K  K4  1  0.17016  0.65643  0.21446  1
 K  K5  1  0.59699  0.60601  0.41763  1
 K  K6  1  0.09699  0.89399  0.58237  1
 K  K7  1  0.40301  0.10601  0.08237  1
 K  K8  1  0.90301  0.39399  0.91763  1
