CIF file written using JARVIS-Tools package.
data_Y2S2O
_symmetry_space_group_name_H-M  'P2_1/c'
_cell_length_a       6.86769
_cell_length_b       6.89879
_cell_length_c       8.27074
_cell_angle_alpha    90
_cell_angle_beta     99.6238
_cell_angle_gamma    90

_symmetry_Int_Tables_number  14
_chemical_formula_structural  Y2S2O
_chemical_formula_sum  Y8S8O4
_cell_volume  386.3429466623498
_cell_formula_units_Z  4
loop_
  _symmetry_equiv_pos_site_id
 _symmetry_equiv_pos_as_xyz
 1  'x, y, z'
loop_
 _atom_site_type_symbol
 _atom_site_label
 _atom_site_symmetry_multiplicity
 _atom_site_fract_x
 _atom_site_fract_y
 _atom_site_fract_z
 _atom_site_fract_occupancy
 O  O1  1  0.85034  0.58732  0.38319  1
 O  O2  1  0.64966  0.08732  0.61681  1
 O  O3  1  0.35034  0.91268  0.38319  1
 O  O4  1  0.14966  0.41268  0.61681  1
 S  S1  1  0.07590  0.86693  0.68110  1
 S  S2  1  0.03037  0.72270  0.07633  1
 S  S3  1  0.42410  0.36693  0.31890  1
 S  S4  1  0.57590  0.63307  0.68110  1
 S  S5  1  0.46963  0.22270  0.92367  1
 S  S6  1  0.96963  0.27730  0.92367  1
 S  S7  1  0.53037  0.77730  0.07633  1
 S  S8  1  0.92410  0.13307  0.31890  1
 Y  Y1  1  0.82076  0.35591  0.57614  1
 Y  Y2  1  0.67924  0.85591  0.42386  1
 Y  Y3  1  0.17924  0.64409  0.42386  1
 Y  Y4  1  0.32076  0.14409  0.57614  1
 Y  Y5  1  0.74950  0.44527  0.13759  1
 Y  Y6  1  0.75050  0.94527  0.86241  1
 Y  Y7  1  0.25050  0.55473  0.86241  1
 Y  Y8  1  0.24950  0.05473  0.13759  1
