CIF file written using JARVIS-Tools package.
data_Ca2Si
_symmetry_space_group_name_H-M  'Pnma'
_cell_length_a       4.8148
_cell_length_b       7.53348
_cell_length_c       8.98887
_cell_angle_alpha    90
_cell_angle_beta     90
_cell_angle_gamma    90

_symmetry_Int_Tables_number  62
_chemical_formula_structural  Ca2Si
_chemical_formula_sum  Ca8Si4
_cell_volume  326.0459140386601
_cell_formula_units_Z  4
loop_
  _symmetry_equiv_pos_site_id
 _symmetry_equiv_pos_as_xyz
 1  'x, y, z'
loop_
 _atom_site_type_symbol
 _atom_site_label
 _atom_site_symmetry_multiplicity
 _atom_site_fract_x
 _atom_site_fract_y
 _atom_site_fract_z
 _atom_site_fract_occupancy
 Ca  Ca1  1  0.75000  0.34389  0.07482  1
 Ca  Ca2  1  0.25000  0.65611  0.92518  1
 Ca  Ca3  1  0.75000  0.84389  0.42518  1
 Ca  Ca4  1  0.25000  0.15611  0.57482  1
 Ca  Ca5  1  0.25000  0.01950  0.18039  1
 Ca  Ca6  1  0.75000  0.98050  0.81961  1
 Ca  Ca7  1  0.25000  0.51950  0.31961  1
 Ca  Ca8  1  0.75000  0.48050  0.68039  1
 Si  Si1  1  0.25000  0.75202  0.60412  1
 Si  Si2  1  0.75000  0.24798  0.39588  1
 Si  Si3  1  0.25000  0.25202  0.89588  1
 Si  Si4  1  0.75000  0.74798  0.10412  1
