CIF file written using JARVIS-Tools package.
data_CaFeSi2O6
_symmetry_space_group_name_H-M  'C2/c'
_cell_length_a       5.22684
_cell_length_b       6.69541
_cell_length_c       6.69542
_cell_angle_alpha    83.4582
_cell_angle_beta     79.7968
_cell_angle_gamma    79.7969

_symmetry_Int_Tables_number  15
_chemical_formula_structural  CaFeSi2O6
_chemical_formula_sum  Ca2Fe2Si4O2
_cell_volume  226.13354638029455
_cell_formula_units_Z  2
loop_
  _symmetry_equiv_pos_site_id
 _symmetry_equiv_pos_as_xyz
 1  'x, y, z'
loop_
 _atom_site_type_symbol
 _atom_site_label
 _atom_site_symmetry_multiplicity
 _atom_site_fract_x
 _atom_site_fract_y
 _atom_site_fract_z
 _atom_site_fract_occupancy
 Ca  Ca1  1  0.75000  0.30323  0.69677  1
 Ca  Ca2  1  0.25000  0.69677  0.30323  1
 Fe  Fe1  1  0.75000  0.91823  0.08177  1
 Fe  Fe2  1  0.25000  0.08177  0.91823  1
 O  O1  1  0.65361  0.97250  0.78279  1
 O  O2  1  0.34639  0.02750  0.21721  1
 O  O3  1  0.15361  0.78279  0.97250  1
 O  O4  1  0.51434  0.32773  0.37505  1
 O  O5  1  0.32893  0.38222  0.88657  1
 O  O6  1  0.84639  0.21721  0.02750  1
 O  O7  1  0.67107  0.61778  0.11343  1
 O  O8  1  0.01434  0.37505  0.32773  1
 O  O9  1  0.17107  0.11343  0.61778  1
 O  O10  1  -0.01434  0.62495  0.67227  1
 O  O11  1  0.82893  0.88657  0.38222  1
 O  O12  1  0.48566  0.67227  0.62495  1
 Si  Si1  1  0.23176  0.61417  0.80721  1
 Si  Si2  1  0.73176  0.80721  0.61417  1
 Si  Si3  1  0.76824  0.38583  0.19279  1
 Si  Si4  1  0.26824  0.19279  0.38583  1
