CIF file written using JARVIS-Tools package.
data_Hg2P3Cl
_symmetry_space_group_name_H-M  'C2/c'
_cell_length_a       5.97766
_cell_length_b       5.97766
_cell_length_c       7.7658
_cell_angle_alpha    95.2505
_cell_angle_beta     95.2505
_cell_angle_gamma    96.3154

_symmetry_Int_Tables_number  15
_chemical_formula_structural  Hg2P3Cl
_chemical_formula_sum  Hg4P6Cl2
_cell_volume  273.19917516042267
_cell_formula_units_Z  2
loop_
  _symmetry_equiv_pos_site_id
 _symmetry_equiv_pos_as_xyz
 1  'x, y, z'
loop_
 _atom_site_type_symbol
 _atom_site_label
 _atom_site_symmetry_multiplicity
 _atom_site_fract_x
 _atom_site_fract_y
 _atom_site_fract_z
 _atom_site_fract_occupancy
 Cl  Cl1  1  0.37102  0.62898  0.75000  1
 Cl  Cl2  1  0.62898  0.37102  0.25000  1
 Hg  Hg1  1  0.85252  0.58764  0.65930  1
 Hg  Hg2  1  0.41236  0.14748  0.84070  1
 Hg  Hg3  1  0.58764  0.85252  0.15930  1
 Hg  Hg4  1  0.14748  0.41236  0.34070  1
 P  P1  1  0.94413  0.82204  0.02260  1
 P  P2  1  0.17796  0.05587  0.47740  1
 P  P3  1  0.05587  0.17796  0.97740  1
 P  P4  1  0.80488  0.19512  0.75000  1
 P  P5  1  0.19512  0.80488  0.25000  1
 P  P6  1  0.82204  0.94413  0.52260  1
