CIF file written using JARVIS-Tools package.
data_Zn2NiWO6
_symmetry_space_group_name_H-M  'P2_1/c'
_cell_length_a       5.17134
_cell_length_b       5.20108
_cell_length_c       9.19503
_cell_angle_alpha    90
_cell_angle_beta     123.282
_cell_angle_gamma    90

_symmetry_Int_Tables_number  14
_chemical_formula_structural  Zn2NiWO6
_chemical_formula_sum  Zn4Ni2W2O2
_cell_volume  206.75049457029132
_cell_formula_units_Z  2
loop_
  _symmetry_equiv_pos_site_id
 _symmetry_equiv_pos_as_xyz
 1  'x, y, z'
loop_
 _atom_site_type_symbol
 _atom_site_label
 _atom_site_symmetry_multiplicity
 _atom_site_fract_x
 _atom_site_fract_y
 _atom_site_fract_z
 _atom_site_fract_occupancy
 Ni  Ni1  1  0.50000  0.00000  -0.00000  1
 Ni  Ni2  1  0.50000  0.50000  0.50000  1
 O  O1  1  0.35681  0.57973  0.23871  1
 O  O2  1  0.08696  0.68550  0.42489  1
 O  O3  1  0.35681  0.92027  0.73871  1
 O  O4  1  0.91304  0.31450  0.57511  1
 O  O5  1  0.08696  0.81450  0.92489  1
 O  O6  1  0.91304  0.18550  0.07511  1
 O  O7  1  0.26201  0.32601  0.94287  1
 O  O8  1  0.26201  0.17399  0.44287  1
 O  O9  1  0.64319  0.42027  0.76129  1
 O  O10  1  0.73799  0.82601  0.55713  1
 O  O11  1  0.64319  0.07973  0.26129  1
 O  O12  1  0.73799  0.67399  0.05713  1
 W  W1  1  0.00000  0.50000  0.00000  1
 W  W2  1  0.00000  0.00000  0.50000  1
 Zn  Zn1  1  0.26055  0.53463  0.75354  1
 Zn  Zn2  1  0.73945  0.03463  0.74646  1
 Zn  Zn3  1  0.73945  0.46537  0.24646  1
 Zn  Zn4  1  0.26055  0.96537  0.25354  1
