CIF file written using JARVIS-Tools package.
data_Zn2SbWO6
_symmetry_space_group_name_H-M  'P2_1/c'
_cell_length_a       5.4244
_cell_length_b       5.46147
_cell_length_c       9.53491
_cell_angle_alpha    90
_cell_angle_beta     120.972
_cell_angle_gamma    90

_symmetry_Int_Tables_number  14
_chemical_formula_structural  Zn2SbWO6
_chemical_formula_sum  Zn4Sb2W2O2
_cell_volume  242.19811207561696
_cell_formula_units_Z  2
loop_
  _symmetry_equiv_pos_site_id
 _symmetry_equiv_pos_as_xyz
 1  'x, y, z'
loop_
 _atom_site_type_symbol
 _atom_site_label
 _atom_site_symmetry_multiplicity
 _atom_site_fract_x
 _atom_site_fract_y
 _atom_site_fract_z
 _atom_site_fract_occupancy
 O  O1  1  0.33290  0.63027  0.21626  1
 O  O2  1  0.03139  0.69644  0.40383  1
 O  O3  1  0.33290  0.86973  0.71626  1
 O  O4  1  0.96861  0.30356  0.59617  1
 O  O5  1  0.03139  0.80356  0.90383  1
 O  O6  1  0.96861  0.19644  0.09617  1
 O  O7  1  0.26603  0.35466  0.94446  1
 O  O8  1  0.26603  0.14534  0.44446  1
 O  O9  1  0.73397  0.64534  0.05554  1
 O  O10  1  0.66710  0.36973  0.78374  1
 O  O11  1  0.66710  0.13027  0.28374  1
 O  O12  1  0.73397  0.85466  0.55554  1
 Sb  Sb1  1  0.50000  0.50000  0.50000  1
 Sb  Sb2  1  0.50000  0.00000  -0.00000  1
 W  W1  1  0.00000  0.50000  0.00000  1
 W  W2  1  0.00000  0.00000  0.50000  1
 Zn  Zn1  1  0.28629  0.51089  0.75674  1
 Zn  Zn2  1  0.71371  0.01089  0.74326  1
 Zn  Zn3  1  0.71371  0.48911  0.24326  1
 Zn  Zn4  1  0.28629  0.98911  0.25674  1
