CIF file written using JARVIS-Tools package.
data_Na2ZnS2
_symmetry_space_group_name_H-M  'Ibam'
_cell_length_a       5.90257
_cell_length_b       6.41608
_cell_length_c       7.06911
_cell_angle_alpha    116.988
_cell_angle_beta     114.676
_cell_angle_gamma    90

_symmetry_Int_Tables_number  72
_chemical_formula_structural  Na2ZnS2
_chemical_formula_sum  Na4Zn2S4
_cell_volume  210.7590197504845
_cell_formula_units_Z  2
loop_
  _symmetry_equiv_pos_site_id
 _symmetry_equiv_pos_as_xyz
 1  'x, y, z'
loop_
 _atom_site_type_symbol
 _atom_site_label
 _atom_site_symmetry_multiplicity
 _atom_site_fract_x
 _atom_site_fract_y
 _atom_site_fract_z
 _atom_site_fract_occupancy
 Na  Na1  1  0.14168  0.49003  0.28336  1
 Na  Na2  1  0.85832  0.50997  0.71664  1
 Na  Na3  1  0.35832  0.20667  0.71664  1
 Na  Na4  1  0.64168  0.79333  0.28336  1
 S  S1  1  0.61266  0.32863  0.22533  1
 S  S2  1  0.38734  0.67137  0.77467  1
 S  S3  1  0.88734  0.10331  0.77467  1
 S  S4  1  0.11266  0.89669  0.22533  1
 Zn  Zn1  1  0.25000  0.00000  0.00000  1
 Zn  Zn2  1  0.75000  0.00000  -0.00000  1
