CIF file written using JARVIS-Tools package.
data_K3Ta3B2O12
_symmetry_space_group_name_H-M  'P-62m'
_cell_length_a       8.85978
_cell_length_b       8.85978
_cell_length_c       3.93195
_cell_angle_alpha    90
_cell_angle_beta     90
_cell_angle_gamma    120

_symmetry_Int_Tables_number  189
_chemical_formula_structural  K3Ta3B2O12
_chemical_formula_sum  K3Ta3B2O2
_cell_volume  267.29033039796656
_cell_formula_units_Z  1
loop_
  _symmetry_equiv_pos_site_id
 _symmetry_equiv_pos_as_xyz
 1  'x, y, z'
loop_
 _atom_site_type_symbol
 _atom_site_label
 _atom_site_symmetry_multiplicity
 _atom_site_fract_x
 _atom_site_fract_y
 _atom_site_fract_z
 _atom_site_fract_occupancy
 B  B1  1  0.33333  0.66667  0.00000  1
 B  B2  1  0.66667  0.33333  0.00000  1
 K  K1  1  0.00000  0.59586  0.50000  1
 K  K2  1  0.40414  0.40414  0.50000  1
 K  K3  1  0.59586  0.00000  0.50000  1
 O  O1  1  0.50402  0.18730  0.00000  1
 O  O2  1  0.18086  0.18086  0.00000  1
 O  O3  1  0.31671  0.81270  0.00000  1
 O  O4  1  0.49598  0.68329  0.00000  1
 O  O5  1  0.18730  0.50402  0.00000  1
 O  O6  1  0.81270  0.31671  0.00000  1
 O  O7  1  0.26336  -0.00000  0.50000  1
 O  O8  1  0.73664  0.73664  0.50000  1
 O  O9  1  0.68329  0.49598  0.00000  1
 O  O10  1  -0.00000  0.81914  0.00000  1
 O  O11  1  -0.00000  0.26336  0.50000  1
 O  O12  1  0.81914  -0.00000  0.00000  1
 Ta  Ta1  1  0.24688  -0.00000  0.00000  1
 Ta  Ta2  1  0.75312  0.75312  0.00000  1
 Ta  Ta3  1  -0.00000  0.24688  0.00000  1
