CIF file written using JARVIS-Tools package.
data_NbAs2
_symmetry_space_group_name_H-M  'C2/m'
_cell_length_a       3.43581
_cell_length_b       5.04604
_cell_length_c       7.12951
_cell_angle_alpha    78.7307
_cell_angle_beta     76.0571
_cell_angle_gamma    70.0959

_symmetry_Int_Tables_number  12
_chemical_formula_structural  NbAs2
_chemical_formula_sum  Nb2As4
_cell_volume  111.92354384080261
_cell_formula_units_Z  2
loop_
  _symmetry_equiv_pos_site_id
 _symmetry_equiv_pos_as_xyz
 1  'x, y, z'
loop_
 _atom_site_type_symbol
 _atom_site_label
 _atom_site_symmetry_multiplicity
 _atom_site_fract_x
 _atom_site_fract_y
 _atom_site_fract_z
 _atom_site_fract_occupancy
 As  As1  1  0.85914  0.75259  0.52912  1
 As  As2  1  0.14086  0.24741  0.47088  1
 As  As3  1  0.59398  0.70443  0.10762  1
 As  As4  1  0.40602  0.29557  0.89238  1
 Nb  Nb1  1  0.15742  0.88133  0.80382  1
 Nb  Nb2  1  0.84258  0.11867  0.19618  1
