CIF file written using JARVIS-Tools package.
data_BeF2
_symmetry_space_group_name_H-M  'C2'
_cell_length_a       4.73578
_cell_length_b       4.73578
_cell_length_c       7.1145
_cell_angle_alpha    104.062
_cell_angle_beta     75.9376
_cell_angle_gamma    144.968

_symmetry_Int_Tables_number  5
_chemical_formula_structural  BeF2
_chemical_formula_sum  Be3F6
_cell_volume  88.56952319926765
_cell_formula_units_Z  3
loop_
  _symmetry_equiv_pos_site_id
 _symmetry_equiv_pos_as_xyz
 1  'x, y, z'
loop_
 _atom_site_type_symbol
 _atom_site_label
 _atom_site_symmetry_multiplicity
 _atom_site_fract_x
 _atom_site_fract_y
 _atom_site_fract_z
 _atom_site_fract_occupancy
 Be  Be1  1  0.00513  0.60529  0.94280  1
 Be  Be2  1  0.54919  0.54919  0.66667  1
 Be  Be3  1  0.60529  0.00513  0.39053  1
 F  F1  1  0.14231  0.46941  0.28324  1
 F  F2  1  0.19477  0.44147  0.84397  1
 F  F3  1  0.68623  0.90620  0.55312  1
 F  F4  1  0.44147  0.19477  0.48936  1
 F  F5  1  0.90620  0.68623  0.78021  1
 F  F6  1  0.46941  0.14231  0.05009  1
