CIF file written using JARVIS-Tools package.
data_Ca2FeIrO6
_symmetry_space_group_name_H-M  'P2_1/c'
_cell_length_a       5.30444
_cell_length_b       5.49894
_cell_length_c       9.24683
_cell_angle_alpha    90
_cell_angle_beta     124.968
_cell_angle_gamma    90

_symmetry_Int_Tables_number  14
_chemical_formula_structural  Ca2FeIrO6
_chemical_formula_sum  Ca4Fe2Ir2O2
_cell_volume  221.02553798939243
_cell_formula_units_Z  2
loop_
  _symmetry_equiv_pos_site_id
 _symmetry_equiv_pos_as_xyz
 1  'x, y, z'
loop_
 _atom_site_type_symbol
 _atom_site_label
 _atom_site_symmetry_multiplicity
 _atom_site_fract_x
 _atom_site_fract_y
 _atom_site_fract_z
 _atom_site_fract_occupancy
 Ca  Ca1  1  0.26526  0.06010  0.24963  1
 Ca  Ca2  1  0.73474  0.56010  0.25037  1
 Ca  Ca3  1  0.26526  0.43990  0.74963  1
 Ca  Ca4  1  0.73474  0.93990  0.75037  1
 Fe  Fe1  1  0.00000  0.50000  0.00000  1
 Fe  Fe2  1  0.00000  0.00000  0.50000  1
 Ir  Ir1  1  0.50000  0.50000  0.50000  1
 Ir  Ir2  1  0.50000  0.00000  0.00000  1
 O  O1  1  0.85179  0.52418  0.75692  1
 O  O2  1  0.34506  0.19476  0.54723  1
 O  O3  1  0.65494  0.80524  0.45277  1
 O  O4  1  0.34506  0.30524  0.04723  1
 O  O5  1  0.23955  0.79193  0.04902  1
 O  O6  1  0.65494  0.69476  0.95277  1
 O  O7  1  0.85179  0.97582  0.25692  1
 O  O8  1  0.23955  0.70807  0.54902  1
 O  O9  1  0.76045  0.29193  0.45098  1
 O  O10  1  0.76045  0.20807  0.95098  1
 O  O11  1  0.14821  0.02418  0.74308  1
 O  O12  1  0.14821  0.47582  0.24308  1
