CIF file written using JARVIS-Tools package.
data_Na2Mn3Cl8
_symmetry_space_group_name_H-M  'R-3m'
_cell_length_a       7.76771
_cell_length_b       7.76772
_cell_length_c       7.76771
_cell_angle_alpha    56.8637
_cell_angle_beta     56.8636
_cell_angle_gamma    56.8637

_symmetry_Int_Tables_number  166
_chemical_formula_structural  Na2Mn3Cl8
_chemical_formula_sum  Na2Mn3Cl8
_cell_volume  307.4266443438263
_cell_formula_units_Z  1
loop_
  _symmetry_equiv_pos_site_id
 _symmetry_equiv_pos_as_xyz
 1  'x, y, z'
loop_
 _atom_site_type_symbol
 _atom_site_label
 _atom_site_symmetry_multiplicity
 _atom_site_fract_x
 _atom_site_fract_y
 _atom_site_fract_z
 _atom_site_fract_occupancy
 Cl  Cl1  1  0.40627  0.40627  0.40627  1
 Cl  Cl2  1  0.59373  0.59373  0.59373  1
 Cl  Cl3  1  0.89912  0.42086  0.89912  1
 Cl  Cl4  1  0.89912  0.89912  0.42086  1
 Cl  Cl5  1  0.42086  0.89912  0.89912  1
 Cl  Cl6  1  0.57914  0.10088  0.10088  1
 Cl  Cl7  1  0.10088  0.57914  0.10088  1
 Cl  Cl8  1  0.10088  0.10088  0.57914  1
 Mn  Mn1  1  0.50000  0.50000  -0.00000  1
 Mn  Mn2  1  -0.00000  0.50000  0.50000  1
 Mn  Mn3  1  0.50000  -0.00000  0.50000  1
 Na  Na1  1  0.15883  0.15883  0.15883  1
 Na  Na2  1  0.84117  0.84117  0.84117  1
