CIF file written using JARVIS-Tools package.
data_Ba3B2O6
_symmetry_space_group_name_H-M  'R-3c'
_cell_length_a       7.12732
_cell_length_b       7.12732
_cell_length_c       7.12732
_cell_angle_alpha    84.8088
_cell_angle_beta     84.8088
_cell_angle_gamma    84.8087

_symmetry_Int_Tables_number  167
_chemical_formula_structural  Ba3B2O6
_chemical_formula_sum  Ba6B4O2
_cell_volume  357.85671788837385
_cell_formula_units_Z  2
loop_
  _symmetry_equiv_pos_site_id
 _symmetry_equiv_pos_as_xyz
 1  'x, y, z'
loop_
 _atom_site_type_symbol
 _atom_site_label
 _atom_site_symmetry_multiplicity
 _atom_site_fract_x
 _atom_site_fract_y
 _atom_site_fract_z
 _atom_site_fract_occupancy
 B  B1  1  0.88590  0.88590  0.88590  1
 B  B2  1  0.61410  0.61410  0.61410  1
 B  B3  1  0.11410  0.11410  0.11410  1
 B  B4  1  0.38590  0.38590  0.38590  1
 Ba  Ba1  1  0.09907  0.75000  0.40093  1
 Ba  Ba2  1  0.25000  0.59907  0.90093  1
 Ba  Ba3  1  0.59907  0.90093  0.25000  1
 Ba  Ba4  1  0.40093  0.09907  0.75000  1
 Ba  Ba5  1  0.75000  0.40093  0.09907  1
 Ba  Ba6  1  0.90093  0.25000  0.59907  1
 O  O1  1  0.73794  0.02917  0.89235  1
 O  O2  1  0.26206  0.97083  0.10765  1
 O  O3  1  0.47083  0.76206  0.60765  1
 O  O4  1  0.23794  0.39235  0.52917  1
 O  O5  1  0.02917  0.89235  0.73794  1
 O  O6  1  0.52917  0.23794  0.39235  1
 O  O7  1  0.60765  0.47083  0.76206  1
 O  O8  1  0.76206  0.60765  0.47083  1
 O  O9  1  0.89235  0.73794  0.02917  1
 O  O10  1  0.10765  0.26206  0.97083  1
 O  O11  1  0.39235  0.52917  0.23794  1
 O  O12  1  0.97083  0.10765  0.26206  1
