CIF file written using JARVIS-Tools package.
data_Mg6Si7Ni16
_symmetry_space_group_name_H-M  'Fm-3m'
_cell_length_a       8.01697
_cell_length_b       8.01697
_cell_length_c       8.01697
_cell_angle_alpha    60
_cell_angle_beta     60
_cell_angle_gamma    60

_symmetry_Int_Tables_number  225
_chemical_formula_structural  Mg6Si7Ni16
_chemical_formula_sum  Mg6Si7Ni6
_cell_volume  364.347037187567
_cell_formula_units_Z  1
loop_
  _symmetry_equiv_pos_site_id
 _symmetry_equiv_pos_as_xyz
 1  'x, y, z'
loop_
 _atom_site_type_symbol
 _atom_site_label
 _atom_site_symmetry_multiplicity
 _atom_site_fract_x
 _atom_site_fract_y
 _atom_site_fract_z
 _atom_site_fract_occupancy
 Mg  Mg1  1  0.20486  0.79514  0.20486  1
 Mg  Mg2  1  0.79514  0.20486  0.20486  1
 Mg  Mg3  1  0.79514  0.79514  0.20486  1
 Mg  Mg4  1  0.20486  0.79514  0.79514  1
 Mg  Mg5  1  0.20486  0.20486  0.79514  1
 Mg  Mg6  1  0.79514  0.20486  0.79514  1
 Ni  Ni1  1  0.49839  0.16720  0.16720  1
 Ni  Ni2  1  0.38209  0.38209  0.85375  1
 Ni  Ni3  1  0.61791  0.61791  0.61791  1
 Ni  Ni4  1  0.16720  0.49839  0.16720  1
 Ni  Ni5  1  0.14625  0.61791  0.61791  1
 Ni  Ni6  1  0.61791  0.14625  0.61791  1
 Ni  Ni7  1  0.85375  0.38209  0.38209  1
 Ni  Ni8  1  0.61791  0.61791  0.14625  1
 Ni  Ni9  1  0.38209  0.38209  0.38209  1
 Ni  Ni10  1  0.16720  0.16720  0.16720  1
 Ni  Ni11  1  0.38209  0.85375  0.38209  1
 Ni  Ni12  1  0.83280  0.50161  0.83280  1
 Ni  Ni13  1  0.50161  0.83280  0.83280  1
 Ni  Ni14  1  0.83280  0.83280  0.50161  1
 Ni  Ni15  1  0.83280  0.83280  0.83280  1
 Ni  Ni16  1  0.16720  0.16720  0.49839  1
 Si  Si1  1  0.50000  0.00000  0.50000  1
 Si  Si2  1  0.00000  0.50000  0.00000  1
 Si  Si3  1  0.50000  0.50000  0.50000  1
 Si  Si4  1  0.50000  0.00000  0.00000  1
 Si  Si5  1  0.00000  0.00000  0.50000  1
 Si  Si6  1  0.00000  0.50000  0.50000  1
 Si  Si7  1  0.50000  0.50000  0.00000  1
