CIF file written using JARVIS-Tools package.
data_ZnCuSi2O6
_symmetry_space_group_name_H-M  'C2/c'
_cell_length_a       5.30312
_cell_length_b       6.82722
_cell_length_c       6.82721
_cell_angle_alpha    86.6804
_cell_angle_beta     73.9642
_cell_angle_gamma    73.9642

_symmetry_Int_Tables_number  15
_chemical_formula_structural  ZnCuSi2O6
_chemical_formula_sum  Zn2Cu2Si4O2
_cell_volume  228.27571659217233
_cell_formula_units_Z  2
loop_
  _symmetry_equiv_pos_site_id
 _symmetry_equiv_pos_as_xyz
 1  'x, y, z'
loop_
 _atom_site_type_symbol
 _atom_site_label
 _atom_site_symmetry_multiplicity
 _atom_site_fract_x
 _atom_site_fract_y
 _atom_site_fract_z
 _atom_site_fract_occupancy
 Cu  Cu1  1  0.25000  0.10535  0.89465  1
 Cu  Cu2  1  0.75000  0.89465  0.10535  1
 O  O1  1  0.86645  0.21029  0.03195  1
 O  O2  1  0.48615  0.32356  0.38194  1
 O  O3  1  0.36644  0.03195  0.21029  1
 O  O4  1  0.51385  0.67644  0.61806  1
 O  O5  1  0.98615  0.38194  0.32356  1
 O  O6  1  0.01385  0.61806  0.67644  1
 O  O7  1  0.37324  0.38461  0.86144  1
 O  O8  1  0.87324  0.86144  0.38461  1
 O  O9  1  0.13356  0.78971  0.96805  1
 O  O10  1  0.12676  0.13856  0.61539  1
 O  O11  1  0.63355  0.96805  0.78971  1
 O  O12  1  0.62675  0.61539  0.13856  1
 Si  Si1  1  0.75763  0.78375  0.61313  1
 Si  Si2  1  0.74237  0.38687  0.21625  1
 Si  Si3  1  0.25763  0.61313  0.78375  1
 Si  Si4  1  0.24237  0.21625  0.38687  1
 Zn  Zn1  1  0.25000  0.76509  0.23491  1
 Zn  Zn2  1  0.75000  0.23491  0.76509  1
