CIF file written using JARVIS-Tools package.
data_Na8TiAs4
_symmetry_space_group_name_H-M  'Fd-3m'
_cell_length_a       9.71836
_cell_length_b       9.71836
_cell_length_c       9.71837
_cell_angle_alpha    60
_cell_angle_beta     60
_cell_angle_gamma    60

_symmetry_Int_Tables_number  227
_chemical_formula_structural  Na8TiAs4
_chemical_formula_sum  Na6Ti2As8
_cell_volume  649.0304349616516
_cell_formula_units_Z  2
loop_
  _symmetry_equiv_pos_site_id
 _symmetry_equiv_pos_as_xyz
 1  'x, y, z'
loop_
 _atom_site_type_symbol
 _atom_site_label
 _atom_site_symmetry_multiplicity
 _atom_site_fract_x
 _atom_site_fract_y
 _atom_site_fract_z
 _atom_site_fract_occupancy
 As  As1  1  0.76963  0.76963  0.76963  1
 As  As2  1  0.76963  0.76963  0.19112  1
 As  As3  1  0.19112  0.76963  0.76963  1
 As  As4  1  0.76963  0.19112  0.76963  1
 As  As5  1  0.80888  0.23037  0.23037  1
 As  As6  1  0.23037  0.80888  0.23037  1
 As  As7  1  0.23037  0.23037  0.80888  1
 As  As8  1  0.23037  0.23037  0.23037  1
 Na  Na1  1  0.50000  0.00000  -0.00000  1
 Na  Na2  1  0.00000  0.00000  0.50000  1
 Na  Na3  1  0.00000  0.00000  0.00000  1
 Na  Na4  1  0.00000  0.50000  -0.00000  1
 Na  Na5  1  0.59435  0.59435  0.15565  1
 Na  Na6  1  0.40565  0.84435  0.84435  1
 Na  Na7  1  0.15565  0.59435  0.59435  1
 Na  Na8  1  0.40565  0.84435  0.40565  1
 Na  Na9  1  0.84435  0.40565  0.40565  1
 Na  Na10  1  0.40565  0.40565  0.84435  1
 Na  Na11  1  0.59435  0.15565  0.15565  1
 Na  Na12  1  0.59435  0.15565  0.59435  1
 Na  Na13  1  0.15565  0.59435  0.15565  1
 Na  Na14  1  0.15565  0.15565  0.59435  1
 Na  Na15  1  0.84435  0.84435  0.40565  1
 Na  Na16  1  0.84435  0.40565  0.84435  1
 Ti  Ti1  1  0.87500  0.87500  0.87500  1
 Ti  Ti2  1  0.12500  0.12500  0.12500  1
