CIF file written using JARVIS-Tools package.
data_NaHoF4
_symmetry_space_group_name_H-M  'I4_1/amd'
_cell_length_a       7.65227
_cell_length_b       10.0893
_cell_length_c       6.57588
_cell_angle_alpha    29.2614
_cell_angle_beta     54.4207
_cell_angle_gamma    40.6727

_symmetry_Int_Tables_number  141
_chemical_formula_structural  NaHoF4
_chemical_formula_sum  Na2Ho2F8
_cell_volume  156.5739221744575
_cell_formula_units_Z  2
loop_
  _symmetry_equiv_pos_site_id
 _symmetry_equiv_pos_as_xyz
 1  'x, y, z'
loop_
 _atom_site_type_symbol
 _atom_site_label
 _atom_site_symmetry_multiplicity
 _atom_site_fract_x
 _atom_site_fract_y
 _atom_site_fract_z
 _atom_site_fract_occupancy
 F  F1  1  0.37501  0.48240  0.26760  1
 F  F2  1  0.14259  0.48242  0.76758  1
 F  F3  1  0.14260  0.98241  0.26759  1
 F  F4  1  0.87501  0.51759  0.23239  1
 F  F5  1  0.60740  0.51759  0.73241  1
 F  F6  1  0.60741  0.01758  0.23242  1
 F  F7  1  0.37500  0.01760  0.73240  1
 F  F8  1  0.87499  0.98241  0.76761  1
 Ho  Ho1  1  0.50000  1.00000  0.00000  1
 Ho  Ho2  1  0.25000  0.50000  1.00000  1
 Na  Na1  1  1.00000  0.00000  1.00000  1
 Na  Na2  1  0.75000  0.50000  0.00000  1
