CIF file written using JARVIS-Tools package.
data_BaVO3
_symmetry_space_group_name_H-M  'P-3m1'
_cell_length_a       5.68716
_cell_length_b       5.68716
_cell_length_c       11.5633
_cell_angle_alpha    90
_cell_angle_beta     90
_cell_angle_gamma    120

_symmetry_Int_Tables_number  164
_chemical_formula_structural  BaVO3
_chemical_formula_sum  Ba5V5O5
_cell_volume  323.8952506285916
_cell_formula_units_Z  5
loop_
  _symmetry_equiv_pos_site_id
 _symmetry_equiv_pos_as_xyz
 1  'x, y, z'
loop_
 _atom_site_type_symbol
 _atom_site_label
 _atom_site_symmetry_multiplicity
 _atom_site_fract_x
 _atom_site_fract_y
 _atom_site_fract_z
 _atom_site_fract_occupancy
 Ba  Ba1  1  0.33333  0.66667  0.40701  1
 Ba  Ba2  1  0.66667  0.33333  0.59299  1
 Ba  Ba3  1  0.33333  0.66667  0.79020  1
 Ba  Ba4  1  0.66667  0.33333  0.20980  1
 Ba  Ba5  1  0.00000  0.00000  0.00000  1
 O  O1  1  0.69621  0.84811  0.60428  1
 O  O2  1  0.15189  0.30379  0.60428  1
 O  O3  1  0.33340  0.16670  0.80493  1
 O  O4  1  0.84811  0.15189  0.39572  1
 O  O5  1  0.84811  0.69621  0.39572  1
 O  O6  1  0.30379  0.15189  0.39572  1
 O  O7  1  0.15189  0.84811  0.60428  1
 O  O8  1  0.16670  0.33340  0.19507  1
 O  O9  1  0.16670  0.83330  0.19507  1
 O  O10  1  0.50000  -0.00000  0.00000  1
 O  O11  1  0.66660  0.83330  0.19507  1
 O  O12  1  0.50000  0.50000  0.00000  1
 O  O13  1  0.83330  0.66660  0.80493  1
 O  O14  1  0.83330  0.16670  0.80493  1
 O  O15  1  -0.00000  0.50000  0.00000  1
 V  V1  1  0.00000  0.00000  0.27955  1
 V  V2  1  0.00000  0.00000  0.72045  1
 V  V3  1  0.66667  0.33333  0.90718  1
 V  V4  1  0.33333  0.66667  0.09282  1
 V  V5  1  0.00000  0.00000  0.50000  1
