CIF file written using JARVIS-Tools package.
data_ZrMnGe
_symmetry_space_group_name_H-M  'Pnma'
_cell_length_a       3.75446
_cell_length_b       6.70958
_cell_length_c       7.83293
_cell_angle_alpha    90
_cell_angle_beta     90
_cell_angle_gamma    90

_symmetry_Int_Tables_number  62
_chemical_formula_structural  ZrMnGe
_chemical_formula_sum  Zr4Mn4Ge4
_cell_volume  197.31807137536848
_cell_formula_units_Z  4
loop_
  _symmetry_equiv_pos_site_id
 _symmetry_equiv_pos_as_xyz
 1  'x, y, z'
loop_
 _atom_site_type_symbol
 _atom_site_label
 _atom_site_symmetry_multiplicity
 _atom_site_fract_x
 _atom_site_fract_y
 _atom_site_fract_z
 _atom_site_fract_occupancy
 Ge  Ge1  1  0.75000  0.73706  0.87695  1
 Ge  Ge2  1  0.25000  0.76294  0.37695  1
 Ge  Ge3  1  0.25000  0.26294  0.12305  1
 Ge  Ge4  1  0.75000  0.23706  0.62305  1
 Mn  Mn1  1  0.75000  0.86614  0.56361  1
 Mn  Mn2  1  0.25000  0.13386  0.43639  1
 Mn  Mn3  1  0.75000  0.36614  0.93639  1
 Mn  Mn4  1  0.25000  0.63386  0.06361  1
 Zr  Zr1  1  0.25000  0.53381  0.68017  1
 Zr  Zr2  1  0.25000  0.03381  0.81983  1
 Zr  Zr3  1  0.75000  0.96619  0.18017  1
 Zr  Zr4  1  0.75000  0.46619  0.31983  1
