CIF file written using JARVIS-Tools package.
data_BH3NF4
_symmetry_space_group_name_H-M  'P-1'
_cell_length_a       5.31579
_cell_length_b       5.12757
_cell_length_c       6.51144
_cell_angle_alpha    106.288
_cell_angle_beta     107.987
_cell_angle_gamma    97.2445

_symmetry_Int_Tables_number  2
_chemical_formula_structural  BH3NF4
_chemical_formula_sum  B2H6N2F8
_cell_volume  157.57326523831364
_cell_formula_units_Z  2
loop_
  _symmetry_equiv_pos_site_id
 _symmetry_equiv_pos_as_xyz
 1  'x, y, z'
loop_
 _atom_site_type_symbol
 _atom_site_label
 _atom_site_symmetry_multiplicity
 _atom_site_fract_x
 _atom_site_fract_y
 _atom_site_fract_z
 _atom_site_fract_occupancy
 B  B1  1  0.64164  0.74693  0.32059  1
 B  B2  1  0.35836  0.25307  0.67941  1
 F  F1  1  0.62988  0.39803  0.72697  1
 F  F2  1  0.37012  0.60197  0.27303  1
 F  F3  1  0.38296  0.03658  0.77840  1
 F  F4  1  0.61704  0.96342  0.22160  1
 F  F5  1  0.22093  0.13719  0.44210  1
 F  F6  1  0.77907  0.86281  0.55790  1
 F  F7  1  0.22125  0.43484  0.78216  1
 F  F8  1  0.77875  0.56516  0.21784  1
 H  H1  1  0.86065  0.15755  0.86764  1
 H  H2  1  0.13935  0.84245  0.13236  1
 H  H3  1  0.82742  0.12495  0.11336  1
 H  H4  1  0.17258  0.87505  0.88664  1
 H  H5  1  0.13195  0.29544  0.12414  1
 H  H6  1  0.86805  0.70456  0.87586  1
 N  N1  1  0.04034  0.86873  0.97683  1
 N  N2  1  0.95966  0.13127  0.02317  1
