CIF file written using JARVIS-Tools package.
data_RbTe
_symmetry_space_group_name_H-M  'Pbam'
_cell_length_a       4.86959
_cell_length_b       5.78593
_cell_length_c       11.0859
_cell_angle_alpha    90
_cell_angle_beta     90
_cell_angle_gamma    90

_symmetry_Int_Tables_number  55
_chemical_formula_structural  RbTe
_chemical_formula_sum  Rb4Te4
_cell_volume  312.34511177242916
_cell_formula_units_Z  4
loop_
  _symmetry_equiv_pos_site_id
 _symmetry_equiv_pos_as_xyz
 1  'x, y, z'
loop_
 _atom_site_type_symbol
 _atom_site_label
 _atom_site_symmetry_multiplicity
 _atom_site_fract_x
 _atom_site_fract_y
 _atom_site_fract_z
 _atom_site_fract_occupancy
 Rb  Rb1  1  0.50000  0.67065  0.86595  1
 Rb  Rb2  1  0.50000  0.32935  0.13405  1
 Rb  Rb3  1  0.50000  0.17065  0.63405  1
 Rb  Rb4  1  0.50000  0.82935  0.36595  1
 Te  Te1  1  0.00000  0.14595  0.89454  1
 Te  Te2  1  0.00000  0.85405  0.10546  1
 Te  Te3  1  0.00000  0.64595  0.60546  1
 Te  Te4  1  0.00000  0.35405  0.39454  1
