CIF file written using JARVIS-Tools package.
data_Ni3S2
_symmetry_space_group_name_H-M  'R32'
_cell_length_a       4.07298
_cell_length_b       4.07298
_cell_length_c       4.07298
_cell_angle_alpha    89.4535
_cell_angle_beta     89.4534
_cell_angle_gamma    89.4535

_symmetry_Int_Tables_number  155
_chemical_formula_structural  Ni3S2
_chemical_formula_sum  Ni3S2
_cell_volume  67.5584115075005
_cell_formula_units_Z  1
loop_
  _symmetry_equiv_pos_site_id
 _symmetry_equiv_pos_as_xyz
 1  'x, y, z'
loop_
 _atom_site_type_symbol
 _atom_site_label
 _atom_site_symmetry_multiplicity
 _atom_site_fract_x
 _atom_site_fract_y
 _atom_site_fract_z
 _atom_site_fract_occupancy
 Ni  Ni1  1  0.24447  0.75553  0.50000  1
 Ni  Ni2  1  0.50000  0.24447  0.75553  1
 Ni  Ni3  1  0.75553  0.50000  0.24447  1
 S  S1  1  0.25331  0.25331  0.25331  1
 S  S2  1  0.74669  0.74669  0.74669  1
