CIF file written using JARVIS-Tools package.
data_Ba3SbN
_symmetry_space_group_name_H-M  'P6_3/mmc'
_cell_length_a       7.58604
_cell_length_b       7.58604
_cell_length_c       6.69968
_cell_angle_alpha    90
_cell_angle_beta     90
_cell_angle_gamma    120

_symmetry_Int_Tables_number  194
_chemical_formula_structural  Ba3SbN
_chemical_formula_sum  Ba6Sb2N2
_cell_volume  333.8988100236055
_cell_formula_units_Z  2
loop_
  _symmetry_equiv_pos_site_id
 _symmetry_equiv_pos_as_xyz
 1  'x, y, z'
loop_
 _atom_site_type_symbol
 _atom_site_label
 _atom_site_symmetry_multiplicity
 _atom_site_fract_x
 _atom_site_fract_y
 _atom_site_fract_z
 _atom_site_fract_occupancy
 Ba  Ba1  1  0.16137  0.32274  0.75000  1
 Ba  Ba2  1  0.83863  0.16137  0.25000  1
 Ba  Ba3  1  0.67726  0.83863  0.75000  1
 Ba  Ba4  1  0.32274  0.16137  0.25000  1
 Ba  Ba5  1  0.83863  0.67726  0.25000  1
 Ba  Ba6  1  0.16137  0.83863  0.75000  1
 N  N1  1  0.00000  0.00000  0.50000  1
 N  N2  1  0.00000  0.00000  0.00000  1
 Sb  Sb1  1  0.66667  0.33333  0.75000  1
 Sb  Sb2  1  0.33333  0.66667  0.25000  1
