CIF file written using JARVIS-Tools package.
data_BaCa2I6
_symmetry_space_group_name_H-M  'Pmn2_1'
_cell_length_a       7.68853
_cell_length_b       8.65817
_cell_length_c       13.8745
_cell_angle_alpha    90
_cell_angle_beta     123.652
_cell_angle_gamma    90

_symmetry_Int_Tables_number  31
_chemical_formula_structural  BaCa2I6
_chemical_formula_sum  Ba2Ca4I2
_cell_volume  768.8234603167217
_cell_formula_units_Z  2
loop_
  _symmetry_equiv_pos_site_id
 _symmetry_equiv_pos_as_xyz
 1  'x, y, z'
loop_
 _atom_site_type_symbol
 _atom_site_label
 _atom_site_symmetry_multiplicity
 _atom_site_fract_x
 _atom_site_fract_y
 _atom_site_fract_z
 _atom_site_fract_occupancy
 Ba  Ba1  1  0.05149  0.36392  0.49832  1
 Ba  Ba2  1  0.05149  0.63608  -0.00168  1
 Ca  Ca1  1  0.26316  0.75914  0.74457  1
 Ca  Ca2  1  0.77063  0.75926  0.25208  1
 Ca  Ca3  1  0.26316  0.24086  0.24457  1
 Ca  Ca4  1  0.77063  0.24074  0.75208  1
 I  I1  1  0.16445  0.56536  0.31148  1
 I  I2  1  0.85664  0.27965  -0.00167  1
 I  I3  1  0.36400  0.92838  0.18116  1
 I  I4  1  0.64587  0.80352  0.99832  1
 I  I5  1  0.53822  0.56526  0.68522  1
 I  I6  1  0.85664  0.72035  0.49833  1
 I  I7  1  0.16445  0.43464  0.81148  1
 I  I8  1  0.36400  0.07162  0.68116  1
 I  I9  1  0.53822  0.43474  0.18522  1
 I  I10  1  0.64587  0.19648  0.49832  1
 I  I11  1  0.99817  0.07176  0.31534  1
 I  I12  1  0.99817  0.92824  0.81534  1
