CIF file written using JARVIS-Tools package.
data_LiAuI4
_symmetry_space_group_name_H-M  'P2_1/c'
_cell_length_a       7.14534
_cell_length_b       4.34177
_cell_length_c       14.5324
_cell_angle_alpha    90
_cell_angle_beta     116.923
_cell_angle_gamma    90

_symmetry_Int_Tables_number  14
_chemical_formula_structural  LiAuI4
_chemical_formula_sum  Li2Au2I8
_cell_volume  401.9798210102511
_cell_formula_units_Z  2
loop_
  _symmetry_equiv_pos_site_id
 _symmetry_equiv_pos_as_xyz
 1  'x, y, z'
loop_
 _atom_site_type_symbol
 _atom_site_label
 _atom_site_symmetry_multiplicity
 _atom_site_fract_x
 _atom_site_fract_y
 _atom_site_fract_z
 _atom_site_fract_occupancy
 Au  Au1  1  0.00000  0.00000  0.00000  1
 Au  Au2  1  0.00000  0.50000  0.50000  1
 I  I1  1  0.80050  0.00975  0.11793  1
 I  I2  1  0.19950  0.50975  0.38207  1
 I  I3  1  0.19950  0.99025  0.88207  1
 I  I4  1  0.80050  0.49025  0.61793  1
 I  I5  1  0.30861  0.65141  0.14253  1
 I  I6  1  0.69139  0.15141  0.35747  1
 I  I7  1  0.69139  0.34859  0.85747  1
 I  I8  1  0.30861  0.84859  0.64253  1
 Li  Li1  1  0.50000  0.50000  -0.00000  1
 Li  Li2  1  0.50000  0.00000  0.50000  1
