CIF file written using JARVIS-Tools package.
data_SrRu2O6
_symmetry_space_group_name_H-M  'Imm2'
_cell_length_a       5.43396
_cell_length_b       5.43396
_cell_length_c       5.43397
_cell_angle_alpha    90.1112
_cell_angle_beta     119.891
_cell_angle_gamma    119.98

_symmetry_Int_Tables_number  44
_chemical_formula_structural  SrRu2O6
_chemical_formula_sum  SrRu2O6
_cell_volume  113.5677529263026
_cell_formula_units_Z  1
loop_
  _symmetry_equiv_pos_site_id
 _symmetry_equiv_pos_as_xyz
 1  'x, y, z'
loop_
 _atom_site_type_symbol
 _atom_site_label
 _atom_site_symmetry_multiplicity
 _atom_site_fract_x
 _atom_site_fract_y
 _atom_site_fract_z
 _atom_site_fract_occupancy
 O  O1  1  0.99784  0.26722  0.76781  1
 O  O2  1  0.50059  0.76997  0.76781  1
 O  O3  1  0.45720  0.25000  0.70720  1
 O  O4  1  0.53209  0.75000  0.28209  1
 O  O5  1  0.50059  0.23278  0.23062  1
 O  O6  1  0.99784  0.73003  0.23062  1
 Ru  Ru1  1  0.49798  0.00012  0.49810  1
 Ru  Ru2  1  0.49798  0.49988  0.99787  1
 Sr  Sr1  1  -0.00112  0.75000  0.74888  1
