CIF file written using JARVIS-Tools package.
data_TiAl2O5
_symmetry_space_group_name_H-M  'Cmcm'
_cell_length_a       3.61652
_cell_length_b       5.05578
_cell_length_c       9.74295
_cell_angle_alpha    90
_cell_angle_beta     90
_cell_angle_gamma    110.957

_symmetry_Int_Tables_number  63
_chemical_formula_structural  TiAl2O5
_chemical_formula_sum  Ti2Al4O0
_cell_volume  166.3594585976129
_cell_formula_units_Z  2
loop_
  _symmetry_equiv_pos_site_id
 _symmetry_equiv_pos_as_xyz
 1  'x, y, z'
loop_
 _atom_site_type_symbol
 _atom_site_label
 _atom_site_symmetry_multiplicity
 _atom_site_fract_x
 _atom_site_fract_y
 _atom_site_fract_z
 _atom_site_fract_occupancy
 Al  Al1  1  0.14042  0.28083  0.44340  1
 Al  Al2  1  0.85958  0.71917  0.55660  1
 Al  Al3  1  0.14042  0.28083  0.05660  1
 Al  Al4  1  0.85958  0.71917  0.94340  1
 O  O1  1  0.31237  0.62473  0.56652  1
 O  O2  1  0.68763  0.37527  0.43348  1
 O  O3  1  0.68763  0.37527  0.06652  1
 O  O4  1  0.31237  0.62473  0.93348  1
 O  O5  1  0.04464  0.08928  0.61700  1
 O  O6  1  0.95536  0.91072  0.38300  1
 O  O7  1  0.76470  0.52940  0.75000  1
 O  O8  1  0.23530  0.47060  0.25000  1
 O  O9  1  0.04464  0.08928  0.88300  1
 O  O10  1  0.95536  0.91072  0.11700  1
 Ti  Ti1  1  0.18404  0.36808  0.75000  1
 Ti  Ti2  1  0.81596  0.63192  0.25000  1
