CIF file written using JARVIS-Tools package.
data_NdS2
_symmetry_space_group_name_H-M  'P2_1/c'
_cell_length_a       8.05202
_cell_length_b       4.04318
_cell_length_c       8.13694
_cell_angle_alpha    90
_cell_angle_beta     89.9515
_cell_angle_gamma    90

_symmetry_Int_Tables_number  14
_chemical_formula_structural  NdS2
_chemical_formula_sum  Nd4S8
_cell_volume  264.90447021687174
_cell_formula_units_Z  4
loop_
  _symmetry_equiv_pos_site_id
 _symmetry_equiv_pos_as_xyz
 1  'x, y, z'
loop_
 _atom_site_type_symbol
 _atom_site_label
 _atom_site_symmetry_multiplicity
 _atom_site_fract_x
 _atom_site_fract_y
 _atom_site_fract_z
 _atom_site_fract_occupancy
 Nd  Nd1  1  0.37072  0.28701  0.72451  1
 Nd  Nd2  1  0.12928  0.78701  0.27549  1
 Nd  Nd3  1  0.62928  0.71299  0.27549  1
 Nd  Nd4  1  0.87072  0.21299  0.72451  1
 S  S1  1  0.39146  0.84073  0.99766  1
 S  S2  1  0.10854  0.34073  0.00234  1
 S  S3  1  0.60854  0.15927  0.00234  1
 S  S4  1  0.89146  0.65927  0.99766  1
 S  S5  1  0.87487  0.24016  0.36709  1
 S  S6  1  0.62513  0.74016  0.63291  1
 S  S7  1  0.12513  0.75984  0.63291  1
 S  S8  1  0.37487  0.25984  0.36709  1
