CIF file written using JARVIS-Tools package.
data_Li3TiP2O8
_symmetry_space_group_name_H-M  'P2_1/c'
_cell_length_a       4.93641
_cell_length_b       8.90232
_cell_length_c       7.71676
_cell_angle_alpha    90
_cell_angle_beta     125.08
_cell_angle_gamma    90

_symmetry_Int_Tables_number  14
_chemical_formula_structural  Li3TiP2O8
_chemical_formula_sum  Li6Ti2P4O6
_cell_volume  277.51492290821915
_cell_formula_units_Z  2
loop_
  _symmetry_equiv_pos_site_id
 _symmetry_equiv_pos_as_xyz
 1  'x, y, z'
loop_
 _atom_site_type_symbol
 _atom_site_label
 _atom_site_symmetry_multiplicity
 _atom_site_fract_x
 _atom_site_fract_y
 _atom_site_fract_z
 _atom_site_fract_occupancy
 Li  Li1  1  0.31964  0.13715  0.31063  1
 Li  Li2  1  0.00000  0.50000  0.00000  1
 Li  Li3  1  0.68036  0.63715  0.18937  1
 Li  Li4  1  -0.00000  0.00000  0.50000  1
 Li  Li5  1  0.31964  0.36285  0.81063  1
 Li  Li6  1  0.68036  0.86285  0.68937  1
 O  O1  1  0.83286  0.35517  0.75680  1
 O  O2  1  0.25444  0.90173  0.40873  1
 O  O3  1  0.52356  0.35355  0.30873  1
 O  O4  1  0.14648  0.13280  0.98799  1
 O  O5  1  0.47644  0.85355  0.19127  1
 O  O6  1  0.85352  0.63280  0.51201  1
 O  O7  1  0.74556  0.09827  0.59127  1
 O  O8  1  0.16714  0.85517  0.74320  1
 O  O9  1  0.83286  0.14483  0.25680  1
 O  O10  1  0.74556  0.40173  0.09127  1
 O  O11  1  0.85352  0.86720  0.01201  1
 O  O12  1  0.52356  0.14645  0.80873  1
 O  O13  1  0.25444  0.59827  0.90873  1
 O  O14  1  0.47644  0.64645  0.69127  1
 O  O15  1  0.14648  0.36720  0.48799  1
 O  O16  1  0.16714  0.64483  0.24320  1
 P  P1  1  0.81010  0.18204  0.78317  1
 P  P2  1  0.18990  0.68204  0.71683  1
 P  P3  1  0.81010  0.31796  0.28317  1
 P  P4  1  0.18990  0.81796  0.21683  1
 Ti  Ti1  1  0.50000  0.00000  -0.00000  1
 Ti  Ti2  1  0.50000  0.50000  0.50000  1
