CIF file written using JARVIS-Tools package.
data_C3N4
_symmetry_space_group_name_H-M  'Fd-3m'
_cell_length_a       4.79948
_cell_length_b       4.79947
_cell_length_c       4.79947
_cell_angle_alpha    59.9999
_cell_angle_beta     60
_cell_angle_gamma    60

_symmetry_Int_Tables_number  227
_chemical_formula_structural  C3N4
_chemical_formula_sum  C6N8
_cell_volume  78.17467297185831
_cell_formula_units_Z  2
loop_
  _symmetry_equiv_pos_site_id
 _symmetry_equiv_pos_as_xyz
 1  'x, y, z'
loop_
 _atom_site_type_symbol
 _atom_site_label
 _atom_site_symmetry_multiplicity
 _atom_site_fract_x
 _atom_site_fract_y
 _atom_site_fract_z
 _atom_site_fract_occupancy
 C  C1  1  0.12500  0.12500  0.12500  1
 C  C2  1  0.87500  0.87500  0.87500  1
 C  C3  1  0.50000  0.50000  0.50000  1
 C  C4  1  0.50000  0.50000  -0.00000  1
 C  C5  1  0.00000  0.50000  0.50000  1
 C  C6  1  0.50000  0.00000  0.50000  1
 N  N1  1  0.25555  0.25555  0.25555  1
 N  N2  1  0.74445  0.74445  0.26664  1
 N  N3  1  0.26664  0.74445  0.74445  1
 N  N4  1  0.74445  0.26664  0.74445  1
 N  N5  1  0.73336  0.25555  0.25555  1
 N  N6  1  0.25555  0.73336  0.25555  1
 N  N7  1  0.25555  0.25555  0.73336  1
 N  N8  1  0.74445  0.74445  0.74445  1
