CIF file written using JARVIS-Tools package.
data_HgTe
_symmetry_space_group_name_H-M  'P3_121'
_cell_length_a       4.62846
_cell_length_b       4.62846
_cell_length_c       10.3879
_cell_angle_alpha    90
_cell_angle_beta     90
_cell_angle_gamma    120

_symmetry_Int_Tables_number  152
_chemical_formula_structural  HgTe
_chemical_formula_sum  Hg3Te3
_cell_volume  192.72108554943188
_cell_formula_units_Z  3
loop_
  _symmetry_equiv_pos_site_id
 _symmetry_equiv_pos_as_xyz
 1  'x, y, z'
loop_
 _atom_site_type_symbol
 _atom_site_label
 _atom_site_symmetry_multiplicity
 _atom_site_fract_x
 _atom_site_fract_y
 _atom_site_fract_z
 _atom_site_fract_occupancy
 Hg  Hg1  1  0.32827  -0.00000  0.83333  1
 Hg  Hg2  1  -0.00000  0.32827  0.16667  1
 Hg  Hg3  1  0.67173  0.67173  0.50000  1
 Te  Te1  1  0.46899  -0.00000  0.33333  1
 Te  Te2  1  -0.00000  0.46899  0.66667  1
 Te  Te3  1  0.53101  0.53101  0.00000  1
