CIF file written using JARVIS-Tools package.
data_LiCaUF8
_symmetry_space_group_name_H-M  'I-4'
_cell_length_a       6.59286
_cell_length_b       6.59286
_cell_length_c       6.59286
_cell_angle_alpha    133.036
_cell_angle_beta     133.036
_cell_angle_gamma    68.5983

_symmetry_Int_Tables_number  82
_chemical_formula_structural  LiCaUF8
_chemical_formula_sum  LiCaUF8
_cell_volume  150.3481353030026
_cell_formula_units_Z  1
loop_
  _symmetry_equiv_pos_site_id
 _symmetry_equiv_pos_as_xyz
 1  'x, y, z'
loop_
 _atom_site_type_symbol
 _atom_site_label
 _atom_site_symmetry_multiplicity
 _atom_site_fract_x
 _atom_site_fract_y
 _atom_site_fract_z
 _atom_site_fract_occupancy
 Ca  Ca1  1  0.25000  0.75000  0.50000  1
 F  F1  1  0.20265  0.75233  0.10356  1
 F  F2  1  0.64877  0.09909  0.89644  1
 F  F3  1  0.90091  0.79735  0.54968  1
 F  F4  1  0.24767  0.35123  0.45032  1
 F  F5  1  0.13865  0.18042  0.63060  1
 F  F6  1  0.54982  0.50805  0.36940  1
 F  F7  1  0.49195  0.86135  0.04177  1
 F  F8  1  0.81958  0.45018  0.95823  1
 Li  Li1  1  0.00000  0.00000  0.00000  1
 U  U1  1  0.50000  0.50000  0.00000  1
