CIF file written using JARVIS-Tools package.
data_Er2S3
_symmetry_space_group_name_H-M  'P2_1/m'
_cell_length_a       10.9042
_cell_length_b       3.88587
_cell_length_c       11.1754
_cell_angle_alpha    90
_cell_angle_beta     108.886
_cell_angle_gamma    90

_symmetry_Int_Tables_number  11
_chemical_formula_structural  Er2S3
_chemical_formula_sum  Er8S2
_cell_volume  448.03401421064177
_cell_formula_units_Z  4
loop_
  _symmetry_equiv_pos_site_id
 _symmetry_equiv_pos_as_xyz
 1  'x, y, z'
loop_
 _atom_site_type_symbol
 _atom_site_label
 _atom_site_symmetry_multiplicity
 _atom_site_fract_x
 _atom_site_fract_y
 _atom_site_fract_z
 _atom_site_fract_occupancy
 Er  Er1  1  0.66100  0.25000  0.08334  1
 Er  Er2  1  0.33900  0.75000  0.91666  1
 Er  Er3  1  0.54410  0.25000  0.69079  1
 Er  Er4  1  0.45590  0.75000  0.30921  1
 Er  Er5  1  0.18221  0.25000  0.50325  1
 Er  Er6  1  0.81779  0.75000  0.49675  1
 Er  Er7  1  0.93225  0.25000  0.83168  1
 Er  Er8  1  0.06775  0.75000  0.16832  1
 S  S1  1  0.61082  0.25000  0.46295  1
 S  S2  1  0.10261  0.75000  0.93696  1
 S  S3  1  0.30826  0.25000  0.75060  1
 S  S4  1  0.69174  0.75000  0.24940  1
 S  S5  1  0.38918  0.75000  0.53705  1
 S  S6  1  0.75390  0.75000  0.72315  1
 S  S7  1  0.41829  0.25000  0.09903  1
 S  S8  1  0.58171  0.75000  0.90097  1
 S  S9  1  0.97892  0.25000  0.61421  1
 S  S10  1  0.24610  0.25000  0.27685  1
 S  S11  1  0.02108  0.75000  0.38579  1
 S  S12  1  0.89739  0.25000  0.06304  1
