CIF file written using JARVIS-Tools package.
data_BaNaBO3
_symmetry_space_group_name_H-M  'C2/m'
_cell_length_a       5.57971
_cell_length_b       5.57971
_cell_length_c       6.16906
_cell_angle_alpha    82.0946
_cell_angle_beta     82.0946
_cell_angle_gamma    60.303

_symmetry_Int_Tables_number  12
_chemical_formula_structural  BaNaBO3
_chemical_formula_sum  Ba2Na2B2O6
_cell_volume  164.71225312664262
_cell_formula_units_Z  2
loop_
  _symmetry_equiv_pos_site_id
 _symmetry_equiv_pos_as_xyz
 1  'x, y, z'
loop_
 _atom_site_type_symbol
 _atom_site_label
 _atom_site_symmetry_multiplicity
 _atom_site_fract_x
 _atom_site_fract_y
 _atom_site_fract_z
 _atom_site_fract_occupancy
 B  B1  1  0.83201  0.83201  0.75137  1
 B  B2  1  0.16799  0.16799  0.24863  1
 Ba  Ba1  1  0.83387  0.83387  0.24282  1
 Ba  Ba2  1  0.16613  0.16613  0.75718  1
 Na  Na1  1  0.50000  0.50000  0.50000  1
 Na  Na2  1  0.50000  0.50000  -0.00000  1
 O  O1  1  0.88864  0.31633  0.21056  1
 O  O2  1  0.68367  0.11136  0.78944  1
 O  O3  1  0.11136  0.68367  0.78944  1
 O  O4  1  0.31633  0.88864  0.21056  1
 O  O5  1  0.70169  0.70169  0.68064  1
 O  O6  1  0.29831  0.29831  0.31936  1
