CIF file written using JARVIS-Tools package.
data_MnNb3S6
_symmetry_space_group_name_H-M  'P6_322'
_cell_length_a       5.84229
_cell_length_b       5.84229
_cell_length_c       12.2977
_cell_angle_alpha    90
_cell_angle_beta     90
_cell_angle_gamma    120

_symmetry_Int_Tables_number  182
_chemical_formula_structural  MnNb3S6
_chemical_formula_sum  Mn2Nb6S2
_cell_volume  363.51397450483097
_cell_formula_units_Z  2
loop_
  _symmetry_equiv_pos_site_id
 _symmetry_equiv_pos_as_xyz
 1  'x, y, z'
loop_
 _atom_site_type_symbol
 _atom_site_label
 _atom_site_symmetry_multiplicity
 _atom_site_fract_x
 _atom_site_fract_y
 _atom_site_fract_z
 _atom_site_fract_occupancy
 Mn  Mn1  1  0.66667  0.33333  0.25000  1
 Mn  Mn2  1  0.33333  0.66667  0.75000  1
 Nb  Nb1  1  0.33333  0.66667  0.49879  1
 Nb  Nb2  1  0.66667  0.33333  0.99879  1
 Nb  Nb3  1  0.66667  0.33333  0.50121  1
 Nb  Nb4  1  0.33333  0.66667  0.00121  1
 Nb  Nb5  1  0.00000  0.00000  0.50000  1
 Nb  Nb6  1  0.00000  0.00000  0.00000  1
 S  S1  1  0.33267  0.00263  0.87158  1
 S  S2  1  0.00263  0.33267  0.12842  1
 S  S3  1  0.99737  0.33004  0.87158  1
 S  S4  1  0.00263  0.66996  0.37158  1
 S  S5  1  0.66996  0.66733  0.87158  1
 S  S6  1  0.33267  0.33004  0.62842  1
 S  S7  1  0.33004  0.33267  0.37158  1
 S  S8  1  0.66996  0.00263  0.62842  1
 S  S9  1  0.66733  0.66996  0.12842  1
 S  S10  1  0.33004  0.99737  0.12842  1
 S  S11  1  0.66733  0.99737  0.37158  1
 S  S12  1  0.99737  0.66733  0.62842  1
