CIF file written using JARVIS-Tools package.
data_CaTiO3
_symmetry_space_group_name_H-M  'Pnma'
_cell_length_a       5.38781
_cell_length_b       5.49089
_cell_length_c       7.66713
_cell_angle_alpha    90
_cell_angle_beta     90
_cell_angle_gamma    90

_symmetry_Int_Tables_number  62
_chemical_formula_structural  CaTiO3
_chemical_formula_sum  Ca4Ti4O2
_cell_volume  226.8233320753833
_cell_formula_units_Z  4
loop_
  _symmetry_equiv_pos_site_id
 _symmetry_equiv_pos_as_xyz
 1  'x, y, z'
loop_
 _atom_site_type_symbol
 _atom_site_label
 _atom_site_symmetry_multiplicity
 _atom_site_fract_x
 _atom_site_fract_y
 _atom_site_fract_z
 _atom_site_fract_occupancy
 Ca  Ca1  1  0.99065  0.04437  0.25000  1
 Ca  Ca2  1  0.49065  0.45563  0.75000  1
 Ca  Ca3  1  0.50935  0.54437  0.25000  1
 Ca  Ca4  1  0.00935  0.95563  0.75000  1
 O  O1  1  0.92043  0.52011  0.75000  1
 O  O2  1  0.29210  0.70874  0.54173  1
 O  O3  1  0.57957  0.02011  0.75000  1
 O  O4  1  0.07957  0.47989  0.25000  1
 O  O5  1  0.42043  0.97989  0.25000  1
 O  O6  1  0.20790  0.20874  0.54173  1
 O  O7  1  0.79210  0.79126  0.04173  1
 O  O8  1  0.70790  0.29126  0.04173  1
 O  O9  1  0.70790  0.29126  0.45827  1
 O  O10  1  0.20790  0.20874  0.95827  1
 O  O11  1  0.29210  0.70874  0.95827  1
 O  O12  1  0.79210  0.79126  0.45827  1
 Ti  Ti1  1  0.50000  0.00000  0.50000  1
 Ti  Ti2  1  0.00000  0.50000  0.50000  1
 Ti  Ti3  1  0.00000  0.50000  0.00000  1
 Ti  Ti4  1  0.50000  0.00000  0.00000  1
