CIF file written using JARVIS-Tools package.
data_Na6P4W
_symmetry_space_group_name_H-M  'P6_3mc'
_cell_length_a       9.13508
_cell_length_b       9.13508
_cell_length_c       7.14221
_cell_angle_alpha    90
_cell_angle_beta     90
_cell_angle_gamma    120

_symmetry_Int_Tables_number  186
_chemical_formula_structural  Na6P4W
_chemical_formula_sum  Na2P8W2
_cell_volume  516.1645340089426
_cell_formula_units_Z  2
loop_
  _symmetry_equiv_pos_site_id
 _symmetry_equiv_pos_as_xyz
 1  'x, y, z'
loop_
 _atom_site_type_symbol
 _atom_site_label
 _atom_site_symmetry_multiplicity
 _atom_site_fract_x
 _atom_site_fract_y
 _atom_site_fract_z
 _atom_site_fract_occupancy
 Na  Na1  1  0.70637  0.85318  0.71414  1
 Na  Na2  1  0.93538  0.46769  0.89248  1
 Na  Na3  1  0.53231  0.46769  0.89248  1
 Na  Na4  1  0.46769  0.93538  0.39248  1
 Na  Na5  1  0.06462  0.53231  0.39248  1
 Na  Na6  1  0.29363  0.14682  0.21414  1
 Na  Na7  1  0.85318  0.14682  0.21414  1
 Na  Na8  1  0.46769  0.53231  0.39248  1
 Na  Na9  1  0.14682  0.85318  0.71414  1
 Na  Na10  1  0.14682  0.29363  0.71414  1
 Na  Na11  1  0.85318  0.70637  0.21414  1
 Na  Na12  1  0.53231  0.06462  0.89248  1
 P  P1  1  0.38740  0.19370  0.60708  1
 P  P2  1  0.80630  0.61260  0.60708  1
 P  P3  1  0.33333  0.66667  0.67977  1
 P  P4  1  0.66667  0.33333  0.17977  1
 P  P5  1  0.80630  0.19370  0.60708  1
 P  P6  1  0.19370  0.80630  0.10708  1
 P  P7  1  0.61260  0.80630  0.10708  1
 P  P8  1  0.19370  0.38740  0.10708  1
 W  W1  1  0.66667  0.33333  0.50423  1
 W  W2  1  0.33333  0.66667  0.00423  1
