CIF file written using JARVIS-Tools package.
data_AlH3O3
_symmetry_space_group_name_H-M  'Pbca'
_cell_length_a       8.72814
_cell_length_b       5.06492
_cell_length_c       9.29364
_cell_angle_alpha    90
_cell_angle_beta     90
_cell_angle_gamma    90

_symmetry_Int_Tables_number  61
_chemical_formula_structural  AlH3O3
_chemical_formula_sum  Al8H24O24
_cell_volume  410.8473134629018
_cell_formula_units_Z  8
loop_
  _symmetry_equiv_pos_site_id
 _symmetry_equiv_pos_as_xyz
 1  'x, y, z'
loop_
 _atom_site_type_symbol
 _atom_site_label
 _atom_site_symmetry_multiplicity
 _atom_site_fract_x
 _atom_site_fract_y
 _atom_site_fract_z
 _atom_site_fract_occupancy
 Al  Al1  1  0.83452  0.03151  0.51332  1
 Al  Al2  1  0.33452  0.46849  0.48668  1
 Al  Al3  1  0.16548  0.53151  0.98668  1
 Al  Al4  1  0.66548  0.96849  0.01332  1
 Al  Al5  1  0.16548  0.96849  0.48668  1
 Al  Al6  1  0.66548  0.53151  0.51332  1
 Al  Al7  1  0.83452  0.46849  0.01332  1
 Al  Al8  1  0.33452  0.03151  0.98668  1
 H  H1  1  0.96071  0.67293  0.38960  1
 H  H2  1  0.53929  0.32707  0.88960  1
 H  H3  1  0.03929  0.17293  0.11040  1
 H  H4  1  0.53929  0.17293  0.38960  1
 H  H5  1  0.38749  0.84081  0.31067  1
 H  H6  1  0.96071  0.82707  0.88960  1
 H  H7  1  0.88749  0.65919  0.68933  1
 H  H8  1  0.61251  0.34081  0.18933  1
 H  H9  1  0.03929  0.32707  0.61040  1
 H  H10  1  0.46071  0.82707  0.61040  1
 H  H11  1  0.11251  0.15919  0.81067  1
 H  H12  1  0.46071  0.67293  0.11040  1
 H  H13  1  0.11251  0.34081  0.31067  1
 H  H14  1  0.19086  0.82950  0.19556  1
 H  H15  1  0.38749  0.65919  0.81067  1
 H  H16  1  0.30914  0.17050  0.69556  1
 H  H17  1  0.80914  0.32950  0.30444  1
 H  H18  1  0.30914  0.32950  0.19556  1
 H  H19  1  0.88749  0.84081  0.18933  1
 H  H20  1  0.19086  0.67050  0.69556  1
 H  H21  1  0.61251  0.15919  0.68933  1
 H  H22  1  0.80914  0.17050  0.80444  1
 H  H23  1  0.69086  0.67050  0.80444  1
 H  H24  1  0.69086  0.82950  0.30444  1
 O  O1  1  0.32888  0.35637  0.09205  1
 O  O2  1  0.30387  0.77058  0.37022  1
 O  O3  1  0.48326  0.63584  0.61241  1
 O  O4  1  0.98326  0.86416  0.38759  1
 O  O5  1  0.51674  0.13584  0.88759  1
 O  O6  1  0.01674  0.36416  0.11241  1
 O  O7  1  0.51674  0.36416  0.38759  1
 O  O8  1  0.48326  0.86416  0.11241  1
 O  O9  1  0.98326  0.63584  0.88759  1
 O  O10  1  0.80387  0.72942  0.62978  1
 O  O11  1  0.01674  0.13584  0.61241  1
 O  O12  1  0.82888  0.35637  0.40795  1
 O  O13  1  0.69613  0.22942  0.62978  1
 O  O14  1  0.80387  0.77058  0.12978  1
 O  O15  1  0.30387  0.72942  0.87022  1
 O  O16  1  0.32888  0.14363  0.59205  1
 O  O17  1  0.67112  0.64363  0.90795  1
 O  O18  1  0.17112  0.85637  0.09205  1
 O  O19  1  0.67112  0.85637  0.40795  1
 O  O20  1  0.19613  0.27058  0.37022  1
 O  O21  1  0.17112  0.64363  0.59205  1
 O  O22  1  0.19613  0.22942  0.87022  1
 O  O23  1  0.69613  0.27058  0.12978  1
 O  O24  1  0.82888  0.14363  0.90795  1
