CIF file written using JARVIS-Tools package.
data_HgHOF
_symmetry_space_group_name_H-M  'P2_12_12_1'
_cell_length_a       4.97751
_cell_length_b       6.04203
_cell_length_c       6.97464
_cell_angle_alpha    90
_cell_angle_beta     90
_cell_angle_gamma    90

_symmetry_Int_Tables_number  19
_chemical_formula_structural  HgHOF
_chemical_formula_sum  Hg4H4O4F4
_cell_volume  209.75711671968156
_cell_formula_units_Z  4
loop_
  _symmetry_equiv_pos_site_id
 _symmetry_equiv_pos_as_xyz
 1  'x, y, z'
loop_
 _atom_site_type_symbol
 _atom_site_label
 _atom_site_symmetry_multiplicity
 _atom_site_fract_x
 _atom_site_fract_y
 _atom_site_fract_z
 _atom_site_fract_occupancy
 F  F1  1  0.39935  0.10799  0.60830  1
 F  F2  1  0.60065  0.60799  0.89170  1
 F  F3  1  0.89935  0.39201  0.39170  1
 F  F4  1  0.10065  0.89201  0.10830  1
 H  H1  1  0.64375  0.50916  0.39413  1
 H  H2  1  0.14375  0.99084  0.60587  1
 H  H3  1  0.35625  0.00916  0.10587  1
 H  H4  1  0.85625  0.49084  0.89413  1
 Hg  Hg1  1  0.25419  0.49329  0.14076  1
 Hg  Hg2  1  0.75419  0.00671  0.85924  1
 Hg  Hg3  1  0.74581  -0.00671  0.35924  1
 Hg  Hg4  1  0.24581  0.50671  0.64076  1
 O  O1  1  0.46592  0.59822  0.39066  1
 O  O2  1  0.03408  0.40178  0.89066  1
 O  O3  1  0.53408  0.09822  0.10934  1
 O  O4  1  0.96592  0.90178  0.60934  1
