CIF file written using JARVIS-Tools package.
data_PrBN2
_symmetry_space_group_name_H-M  'R-3c'
_cell_length_a       7.44811
_cell_length_b       7.4481
_cell_length_c       7.4481
_cell_angle_alpha    110.612
_cell_angle_beta     110.612
_cell_angle_gamma    110.611

_symmetry_Int_Tables_number  167
_chemical_formula_structural  PrBN2
_chemical_formula_sum  Pr6B6N2
_cell_volume  303.8974641279129
_cell_formula_units_Z  6
loop_
  _symmetry_equiv_pos_site_id
 _symmetry_equiv_pos_as_xyz
 1  'x, y, z'
loop_
 _atom_site_type_symbol
 _atom_site_label
 _atom_site_symmetry_multiplicity
 _atom_site_fract_x
 _atom_site_fract_y
 _atom_site_fract_z
 _atom_site_fract_occupancy
 B  B1  1  0.25000  0.36885  0.13115  1
 B  B2  1  0.13115  0.25000  0.36885  1
 B  B3  1  0.86885  0.75000  0.63115  1
 B  B4  1  0.75000  0.63115  0.86885  1
 B  B5  1  0.63115  0.86885  0.75000  1
 B  B6  1  0.36885  0.13115  0.25000  1
 N  N1  1  0.98998  0.75000  0.51002  1
 N  N2  1  0.01002  0.25000  0.48998  1
 N  N3  1  0.51002  0.98998  0.75000  1
 N  N4  1  0.12869  0.37131  0.25000  1
 N  N5  1  0.25000  0.12869  0.37131  1
 N  N6  1  0.37131  0.25000  0.12869  1
 N  N7  1  0.87131  0.62869  0.75000  1
 N  N8  1  0.75000  0.87131  0.62869  1
 N  N9  1  0.75000  0.51002  0.98998  1
 N  N10  1  0.25000  0.48998  0.01002  1
 N  N11  1  0.48998  0.01002  0.25000  1
 N  N12  1  0.62869  0.75000  0.87131  1
 Pr  Pr1  1  0.25000  0.70430  0.79570  1
 Pr  Pr2  1  0.20430  0.75000  0.29570  1
 Pr  Pr3  1  0.75000  0.29570  0.20430  1
 Pr  Pr4  1  0.29570  0.20430  0.75000  1
 Pr  Pr5  1  0.79570  0.25000  0.70430  1
 Pr  Pr6  1  0.70430  0.79570  0.25000  1
