CIF file written using JARVIS-Tools package.
data_K2SrTa2O7
_symmetry_space_group_name_H-M  'I4/mmm'
_cell_length_a       4.00437
_cell_length_b       4.00436
_cell_length_c       11.2864
_cell_angle_alpha    100.218
_cell_angle_beta     100.218
_cell_angle_gamma    90

_symmetry_Int_Tables_number  139
_chemical_formula_structural  K2SrTa2O7
_chemical_formula_sum  K2SrTa2O7
_cell_volume  175.1899832989691
_cell_formula_units_Z  1
loop_
  _symmetry_equiv_pos_site_id
 _symmetry_equiv_pos_as_xyz
 1  'x, y, z'
loop_
 _atom_site_type_symbol
 _atom_site_label
 _atom_site_symmetry_multiplicity
 _atom_site_fract_x
 _atom_site_fract_y
 _atom_site_fract_z
 _atom_site_fract_occupancy
 K  K1  1  0.80647  0.80647  0.61295  1
 K  K2  1  0.19353  0.19353  0.38705  1
 O  O1  1  0.50000  0.50000  0.00000  1
 O  O2  1  0.31737  0.31737  0.63473  1
 O  O3  1  0.68263  0.68263  0.36527  1
 O  O4  1  0.41215  0.91215  0.82430  1
 O  O5  1  0.91215  0.41215  0.82430  1
 O  O6  1  0.08785  0.58785  0.17570  1
 O  O7  1  0.58785  0.08785  0.17570  1
 Sr  Sr1  1  0.00000  0.00000  0.00000  1
 Ta  Ta1  1  0.59688  0.59688  0.19377  1
 Ta  Ta2  1  0.40312  0.40312  0.80623  1
