CIF file written using JARVIS-Tools package.
data_TaCo2
_symmetry_space_group_name_H-M  'P6_3/mmc'
_cell_length_a       4.75017
_cell_length_b       4.75017
_cell_length_c       15.4863
_cell_angle_alpha    90
_cell_angle_beta     90
_cell_angle_gamma    120

_symmetry_Int_Tables_number  194
_chemical_formula_structural  TaCo2
_chemical_formula_sum  Ta8Co6
_cell_volume  302.619062820192
_cell_formula_units_Z  8
loop_
  _symmetry_equiv_pos_site_id
 _symmetry_equiv_pos_as_xyz
 1  'x, y, z'
loop_
 _atom_site_type_symbol
 _atom_site_label
 _atom_site_symmetry_multiplicity
 _atom_site_fract_x
 _atom_site_fract_y
 _atom_site_fract_z
 _atom_site_fract_occupancy
 Co  Co1  1  0.33333  0.66667  0.87377  1
 Co  Co2  1  0.50000  0.50000  0.00000  1
 Co  Co3  1  0.83552  0.67104  0.25000  1
 Co  Co4  1  0.66667  0.33333  0.12623  1
 Co  Co5  1  0.33333  0.66667  0.62623  1
 Co  Co6  1  0.32896  0.16448  0.25000  1
 Co  Co7  1  0.83552  0.16448  0.25000  1
 Co  Co8  1  0.16448  0.83552  0.75000  1
 Co  Co9  1  0.67104  0.83552  0.75000  1
 Co  Co10  1  0.50000  0.50000  0.50000  1
 Co  Co11  1  0.16448  0.32896  0.75000  1
 Co  Co12  1  0.50000  -0.00000  0.50000  1
 Co  Co13  1  0.50000  -0.00000  0.00000  1
 Co  Co14  1  0.66667  0.33333  0.37377  1
 Co  Co15  1  -0.00000  0.50000  0.50000  1
 Co  Co16  1  -0.00000  0.50000  0.00000  1
 Ta  Ta1  1  0.33333  0.66667  0.34444  1
 Ta  Ta2  1  0.66667  0.33333  0.65556  1
 Ta  Ta3  1  0.00000  0.00000  0.59215  1
 Ta  Ta4  1  0.00000  0.00000  0.40785  1
 Ta  Ta5  1  0.00000  0.00000  0.09215  1
 Ta  Ta6  1  0.66667  0.33333  0.84444  1
 Ta  Ta7  1  0.00000  0.00000  0.90785  1
 Ta  Ta8  1  0.33333  0.66667  0.15556  1
