CIF file written using JARVIS-Tools package.
data_BaCo2P2H2O9
_symmetry_space_group_name_H-M  'C2'
_cell_length_a       5.22914
_cell_length_b       5.22914
_cell_length_c       8.33138
_cell_angle_alpha    88.3622
_cell_angle_beta     91.6378
_cell_angle_gamma    124.135

_symmetry_Int_Tables_number  5
_chemical_formula_structural  BaCo2P2H2O9
_chemical_formula_sum  BaCo2P2H2O9
_cell_volume  188.4668078295234
_cell_formula_units_Z  1
loop_
  _symmetry_equiv_pos_site_id
 _symmetry_equiv_pos_as_xyz
 1  'x, y, z'
loop_
 _atom_site_type_symbol
 _atom_site_label
 _atom_site_symmetry_multiplicity
 _atom_site_fract_x
 _atom_site_fract_y
 _atom_site_fract_z
 _atom_site_fract_occupancy
 Ba  Ba1  1  0.22940  0.22940  0.50000  1
 Co  Co1  1  0.50327  0.83524  0.85476  1
 Co  Co2  1  0.83524  0.50327  0.14524  1
 H  H1  1  0.21519  0.33708  0.06689  1
 H  H2  1  0.33708  0.21519  0.93311  1
 O  O1  1  0.39256  0.39256  -0.00000  1
 O  O2  1  0.67954  0.04676  0.06679  1
 O  O3  1  0.04676  0.67954  0.93321  1
 O  O4  1  0.78102  0.79593  0.71014  1
 O  O5  1  0.79593  0.78102  0.28986  1
 O  O6  1  0.15324  0.64305  0.65228  1
 O  O7  1  0.64305  0.15324  0.34772  1
 O  O8  1  0.60545  0.24670  0.75475  1
 O  O9  1  0.24670  0.60545  0.24525  1
 P  P1  1  0.89081  0.58196  0.76141  1
 P  P2  1  0.58196  0.89081  0.23859  1
