CIF file written using JARVIS-Tools package.
data_CaDy2S4
_symmetry_space_group_name_H-M  'I-42d'
_cell_length_a       7.2321
_cell_length_b       7.23218
_cell_length_c       7.23211
_cell_angle_alpha    109.506
_cell_angle_beta     109.502
_cell_angle_gamma    109.406

_symmetry_Int_Tables_number  122
_chemical_formula_structural  CaDy2S4
_chemical_formula_sum  Ca2Dy4S8
_cell_volume  291.19143681015305
_cell_formula_units_Z  2
loop_
  _symmetry_equiv_pos_site_id
 _symmetry_equiv_pos_as_xyz
 1  'x, y, z'
loop_
 _atom_site_type_symbol
 _atom_site_label
 _atom_site_symmetry_multiplicity
 _atom_site_fract_x
 _atom_site_fract_y
 _atom_site_fract_z
 _atom_site_fract_occupancy
 Ca  Ca1  1  0.62500  0.37500  0.25000  1
 Ca  Ca2  1  0.87500  0.12500  0.75000  1
 Dy  Dy1  1  0.12222  0.75000  0.87222  1
 Dy  Dy2  1  0.25000  0.62222  0.37222  1
 Dy  Dy3  1  0.37778  0.25000  0.62778  1
 Dy  Dy4  1  0.75000  0.87778  0.12778  1
 S  S1  1  0.13763  0.13807  0.14411  1
 S  S2  1  0.49395  0.99352  0.35589  1
 S  S3  1  0.36237  0.50648  0.00043  1
 S  S4  1  0.63807  0.63763  0.64412  1
 S  S5  1  0.49352  0.99395  0.85588  1
 S  S6  1  0.00648  0.86237  0.50043  1
 S  S7  1  0.86193  0.50605  0.99957  1
 S  S8  1  0.00605  0.36193  0.49957  1
