CIF file written using JARVIS-Tools package.
data_LaBO3
_symmetry_space_group_name_H-M  'P2_1/m'
_cell_length_a       4.19187
_cell_length_b       5.1123
_cell_length_c       6.30625
_cell_angle_alpha    90
_cell_angle_beta     107.381
_cell_angle_gamma    90

_symmetry_Int_Tables_number  11
_chemical_formula_structural  LaBO3
_chemical_formula_sum  La2B2O6
_cell_volume  128.97264984107673
_cell_formula_units_Z  2
loop_
  _symmetry_equiv_pos_site_id
 _symmetry_equiv_pos_as_xyz
 1  'x, y, z'
loop_
 _atom_site_type_symbol
 _atom_site_label
 _atom_site_symmetry_multiplicity
 _atom_site_fract_x
 _atom_site_fract_y
 _atom_site_fract_z
 _atom_site_fract_occupancy
 B  B1  1  0.00452  0.75000  0.74570  1
 B  B2  1  0.99548  0.25000  0.25430  1
 La  La1  1  0.37890  0.75000  0.22462  1
 La  La2  1  0.62110  0.25000  0.77538  1
 O  O1  1  0.15959  0.98289  0.82704  1
 O  O2  1  0.84041  0.48289  0.17296  1
 O  O3  1  0.32535  0.25000  0.38396  1
 O  O4  1  0.67465  0.75000  0.61604  1
 O  O5  1  0.84041  0.01711  0.17296  1
 O  O6  1  0.15959  0.51711  0.82704  1
