CIF file written using JARVIS-Tools package.
data_Cr2As
_symmetry_space_group_name_H-M  'P-62m'
_cell_length_a       6.43086
_cell_length_b       6.43086
_cell_length_c       3.59062
_cell_angle_alpha    90
_cell_angle_beta     90
_cell_angle_gamma    120

_symmetry_Int_Tables_number  189
_chemical_formula_structural  Cr2As
_chemical_formula_sum  Cr6As3
_cell_volume  128.59933558001592
_cell_formula_units_Z  3
loop_
  _symmetry_equiv_pos_site_id
 _symmetry_equiv_pos_as_xyz
 1  'x, y, z'
loop_
 _atom_site_type_symbol
 _atom_site_label
 _atom_site_symmetry_multiplicity
 _atom_site_fract_x
 _atom_site_fract_y
 _atom_site_fract_z
 _atom_site_fract_occupancy
 As  As1  1  0.66667  0.33333  0.00000  1
 As  As2  1  0.33333  0.66667  0.00000  1
 As  As3  1  0.00000  0.00000  0.50000  1
 Cr  Cr1  1  0.39737  -0.00000  0.50000  1
 Cr  Cr2  1  0.60263  0.60263  0.50000  1
 Cr  Cr3  1  -0.00000  0.39737  0.50000  1
 Cr  Cr4  1  0.00000  0.74832  0.00000  1
 Cr  Cr5  1  0.25168  0.25168  0.00000  1
 Cr  Cr6  1  0.74832  0.00000  0.00000  1
