CIF file written using JARVIS-Tools package.
data_CuI
_symmetry_space_group_name_H-M  'F-43m'
_cell_length_a       4.27979
_cell_length_b       4.28436
_cell_length_c       4.28435
_cell_angle_alpha    60
_cell_angle_beta     59.9646
_cell_angle_gamma    59.9646

_symmetry_Int_Tables_number  216
_chemical_formula_structural  CuI
_chemical_formula_sum  CuI
_cell_volume  55.519494339005746
_cell_formula_units_Z  1
loop_
  _symmetry_equiv_pos_site_id
 _symmetry_equiv_pos_as_xyz
 1  'x, y, z'
loop_
 _atom_site_type_symbol
 _atom_site_label
 _atom_site_symmetry_multiplicity
 _atom_site_fract_x
 _atom_site_fract_y
 _atom_site_fract_z
 _atom_site_fract_occupancy
 Cu  Cu1  1  0.83290  0.72237  0.72237  1
 I  I1  1  0.08210  0.97263  0.97263  1
