CIF file written using JARVIS-Tools package.
data_Mg2NiSbO6
_symmetry_space_group_name_H-M  'P2_1/m'
_cell_length_a       5.07918
_cell_length_b       7.60137
_cell_length_c       5.30828
_cell_angle_alpha    90
_cell_angle_beta     90.4509
_cell_angle_gamma    90

_symmetry_Int_Tables_number  11
_chemical_formula_structural  Mg2NiSbO6
_chemical_formula_sum  Mg4Ni2Sb2O2
_cell_volume  204.93968613619336
_cell_formula_units_Z  2
loop_
  _symmetry_equiv_pos_site_id
 _symmetry_equiv_pos_as_xyz
 1  'x, y, z'
loop_
 _atom_site_type_symbol
 _atom_site_label
 _atom_site_symmetry_multiplicity
 _atom_site_fract_x
 _atom_site_fract_y
 _atom_site_fract_z
 _atom_site_fract_occupancy
 Mg  Mg1  1  0.47777  0.75000  0.42064  1
 Mg  Mg2  1  0.52223  0.25000  0.57936  1
 Mg  Mg3  1  0.01646  0.75000  0.95173  1
 Mg  Mg4  1  -0.01646  0.25000  0.04827  1
 Ni  Ni1  1  0.50000  0.50000  -0.00000  1
 Ni  Ni2  1  0.50000  0.00000  -0.00000  1
 O  O1  1  0.68251  0.42656  0.30948  1
 O  O2  1  0.85807  0.75000  0.56920  1
 O  O3  1  0.31749  0.92656  0.69052  1
 O  O4  1  0.18835  0.57382  0.19121  1
 O  O5  1  0.81165  0.07382  0.80879  1
 O  O6  1  0.18835  0.92618  0.19121  1
 O  O7  1  0.63425  0.75000  0.06670  1
 O  O8  1  0.68251  0.07344  0.30948  1
 O  O9  1  0.81165  0.42618  0.80879  1
 O  O10  1  0.31749  0.57344  0.69052  1
 O  O11  1  0.14193  0.25000  0.43080  1
 O  O12  1  0.36575  0.25000  0.93330  1
 Sb  Sb1  1  0.00000  0.00000  0.50000  1
 Sb  Sb2  1  0.00000  0.50000  0.50000  1
