CIF file written using JARVIS-Tools package.
data_Li2UO4
_symmetry_space_group_name_H-M  'I4/mmm'
_cell_length_a       4.34739
_cell_length_b       4.34738
_cell_length_c       6.04626
_cell_angle_alpha    111.07
_cell_angle_beta     111.07
_cell_angle_gamma    89.999

_symmetry_Int_Tables_number  139
_chemical_formula_structural  Li2UO4
_chemical_formula_sum  Li2UO4
_cell_volume  98.40088238621193
_cell_formula_units_Z  1
loop_
  _symmetry_equiv_pos_site_id
 _symmetry_equiv_pos_as_xyz
 1  'x, y, z'
loop_
 _atom_site_type_symbol
 _atom_site_label
 _atom_site_symmetry_multiplicity
 _atom_site_fract_x
 _atom_site_fract_y
 _atom_site_fract_z
 _atom_site_fract_occupancy
 Li  Li1  1  0.64193  0.64193  0.28386  1
 Li  Li2  1  0.35807  0.35807  0.71614  1
 O  O1  1  0.00000  0.50000  0.00000  1
 O  O2  1  0.18451  0.18451  0.36902  1
 O  O3  1  0.81549  0.81549  0.63098  1
 O  O4  1  0.50000  -0.00000  -0.00000  1
 U  U1  1  0.00000  0.00000  0.00000  1
