CIF file written using JARVIS-Tools package.
data_Na2FeO4
_symmetry_space_group_name_H-M  'Cmcm'
_cell_length_a       5.43209
_cell_length_b       5.4321
_cell_length_c       7.17763
_cell_angle_alpha    90
_cell_angle_beta     90
_cell_angle_gamma    115.5

_symmetry_Int_Tables_number  63
_chemical_formula_structural  Na2FeO4
_chemical_formula_sum  Na4Fe2O8
_cell_volume  191.16323866022753
_cell_formula_units_Z  2
loop_
  _symmetry_equiv_pos_site_id
 _symmetry_equiv_pos_as_xyz
 1  'x, y, z'
loop_
 _atom_site_type_symbol
 _atom_site_label
 _atom_site_symmetry_multiplicity
 _atom_site_fract_x
 _atom_site_fract_y
 _atom_site_fract_z
 _atom_site_fract_occupancy
 Fe  Fe1  1  0.85458  0.14542  0.75000  1
 Fe  Fe2  1  0.14542  0.85458  0.25000  1
 Na  Na1  1  0.50000  0.50000  0.00000  1
 Na  Na2  1  0.50000  0.50000  0.50000  1
 Na  Na3  1  0.81385  0.18615  0.25000  1
 Na  Na4  1  0.18615  0.81385  0.75000  1
 O  O1  1  0.75018  0.24982  0.93704  1
 O  O2  1  0.24982  0.75018  0.43704  1
 O  O3  1  0.24982  0.75018  0.06296  1
 O  O4  1  0.75018  0.24982  0.56296  1
 O  O5  1  0.19482  0.27281  0.75000  1
 O  O6  1  0.80518  0.72719  0.25000  1
 O  O7  1  0.72719  0.80518  0.75000  1
 O  O8  1  0.27281  0.19482  0.25000  1
