CIF file written using JARVIS-Tools package.
data_Co3TeO8
_symmetry_space_group_name_H-M  'R-3m'
_cell_length_a       5.83599
_cell_length_b       5.83599
_cell_length_c       5.56689
_cell_angle_alpha    58.3877
_cell_angle_beta     58.3876
_cell_angle_gamma    60

_symmetry_Int_Tables_number  166
_chemical_formula_structural  Co3TeO8
_chemical_formula_sum  Co3TeO8
_cell_volume  130.7075543615182
_cell_formula_units_Z  1
loop_
  _symmetry_equiv_pos_site_id
 _symmetry_equiv_pos_as_xyz
 1  'x, y, z'
loop_
 _atom_site_type_symbol
 _atom_site_label
 _atom_site_symmetry_multiplicity
 _atom_site_fract_x
 _atom_site_fract_y
 _atom_site_fract_z
 _atom_site_fract_occupancy
 Co  Co1  1  0.50000  0.00000  -0.00000  1
 Co  Co2  1  0.00000  0.50000  -0.00000  1
 Co  Co3  1  0.50000  0.50000  -0.00000  1
 O  O1  1  0.24555  0.24555  0.77937  1
 O  O2  1  0.72953  0.24555  0.77937  1
 O  O3  1  0.24555  0.72953  0.77937  1
 O  O4  1  0.73288  0.73288  0.80136  1
 O  O5  1  0.26712  0.26712  0.19864  1
 O  O6  1  0.75445  0.27047  0.22063  1
 O  O7  1  0.27047  0.75445  0.22063  1
 O  O8  1  0.75445  0.75445  0.22063  1
 Te  Te1  1  0.00000  0.00000  0.00000  1
