CIF file written using JARVIS-Tools package.
data_K2VAgS4
_symmetry_space_group_name_H-M  'Fddd'
_cell_length_a       5.78394
_cell_length_b       7.04897
_cell_length_c       11.3961
_cell_angle_alpha    84.0239
_cell_angle_beta     75.2995
_cell_angle_gamma    65.7784

_symmetry_Int_Tables_number  70
_chemical_formula_structural  K2VAgS4
_chemical_formula_sum  K4V2Ag2S8
_cell_volume  409.85469037707736
_cell_formula_units_Z  2
loop_
  _symmetry_equiv_pos_site_id
 _symmetry_equiv_pos_as_xyz
 1  'x, y, z'
loop_
 _atom_site_type_symbol
 _atom_site_label
 _atom_site_symmetry_multiplicity
 _atom_site_fract_x
 _atom_site_fract_y
 _atom_site_fract_z
 _atom_site_fract_occupancy
 Ag  Ag1  1  0.12500  0.75000  0.75000  1
 Ag  Ag2  1  0.87500  0.25000  0.25000  1
 K  K1  1  0.55688  0.25000  0.88624  1
 K  K2  1  0.44312  0.75000  0.11376  1
 K  K3  1  0.19312  0.25000  0.61376  1
 K  K4  1  0.80688  0.75000  0.38624  1
 S  S1  1  0.87247  0.54531  0.86699  1
 S  S2  1  0.58222  0.54531  0.63301  1
 S  S3  1  0.78477  0.95469  0.63301  1
 S  S4  1  0.26054  0.95469  0.86699  1
 S  S5  1  0.12753  0.45469  0.13301  1
 S  S6  1  0.21523  0.04531  0.36699  1
 S  S7  1  0.41778  0.45469  0.36699  1
 S  S8  1  0.73946  0.04531  0.13301  1
 V  V1  1  0.62500  0.75000  0.75000  1
 V  V2  1  0.37500  0.25000  0.25000  1
