CIF file written using JARVIS-Tools package.
data_Sr2SnO4
_symmetry_space_group_name_H-M  'Cmce'
_cell_length_a       5.75998
_cell_length_b       5.87923
_cell_length_c       6.91525
_cell_angle_alpha    90
_cell_angle_beta     114.612
_cell_angle_gamma    90

_symmetry_Int_Tables_number  64
_chemical_formula_structural  Sr2SnO4
_chemical_formula_sum  Sr4Sn2O8
_cell_volume  212.9043369174239
_cell_formula_units_Z  2
loop_
  _symmetry_equiv_pos_site_id
 _symmetry_equiv_pos_as_xyz
 1  'x, y, z'
loop_
 _atom_site_type_symbol
 _atom_site_label
 _atom_site_symmetry_multiplicity
 _atom_site_fract_x
 _atom_site_fract_y
 _atom_site_fract_z
 _atom_site_fract_occupancy
 O  O1  1  0.33642  0.55346  0.67285  1
 O  O2  1  0.66358  0.44654  0.32715  1
 O  O3  1  0.16358  0.05346  0.32715  1
 O  O4  1  0.83642  0.94654  0.67285  1
 O  O5  1  0.23004  0.25000  0.96007  1
 O  O6  1  0.26996  0.75000  0.03993  1
 O  O7  1  0.73004  0.25000  0.96007  1
 O  O8  1  0.76996  0.75000  0.03993  1
 Sn  Sn1  1  0.50000  0.50000  -0.00000  1
 Sn  Sn2  1  0.00000  0.00000  0.00000  1
 Sr  Sr1  1  0.14701  0.48665  0.29402  1
 Sr  Sr2  1  0.85299  0.51335  0.70598  1
 Sr  Sr3  1  0.35299  0.98665  0.70598  1
 Sr  Sr4  1  0.64701  0.01335  0.29402  1
