CIF file written using JARVIS-Tools package.
data_Li2CrCl4
_symmetry_space_group_name_H-M  'C2/c'
_cell_length_a       7.12923
_cell_length_b       7.12922
_cell_length_c       7.37852
_cell_angle_alpha    117.867
_cell_angle_beta     117.867
_cell_angle_gamma    89.925

_symmetry_Int_Tables_number  15
_chemical_formula_structural  Li2CrCl4
_chemical_formula_sum  Li4Cr2Cl8
_cell_volume  281.54168590605946
_cell_formula_units_Z  2
loop_
  _symmetry_equiv_pos_site_id
 _symmetry_equiv_pos_as_xyz
 1  'x, y, z'
loop_
 _atom_site_type_symbol
 _atom_site_label
 _atom_site_symmetry_multiplicity
 _atom_site_fract_x
 _atom_site_fract_y
 _atom_site_fract_z
 _atom_site_fract_occupancy
 Cl  Cl1  1  0.27884  0.25288  0.52664  1
 Cl  Cl2  1  0.73144  0.23401  0.48912  1
 Cl  Cl3  1  0.76599  0.26856  0.01088  1
 Cl  Cl4  1  0.26856  0.76599  0.51088  1
 Cl  Cl5  1  0.23401  0.73144  0.98912  1
 Cl  Cl6  1  0.72116  0.74712  0.47336  1
 Cl  Cl7  1  0.25288  0.27884  0.02664  1
 Cl  Cl8  1  0.74712  0.72116  0.97336  1
 Cr  Cr1  1  0.50000  0.00000  0.50000  1
 Cr  Cr2  1  -0.00000  0.50000  -0.00000  1
 Li  Li1  1  0.10679  0.89321  0.75000  1
 Li  Li2  1  0.89321  0.10679  0.25000  1
 Li  Li3  1  0.50000  0.50000  -0.00000  1
 Li  Li4  1  0.50000  0.50000  0.50000  1
