CIF file written using JARVIS-Tools package.
data_Li2Ca
_symmetry_space_group_name_H-M  'P6_3/mmc'
_cell_length_a       6.1171
_cell_length_b       6.1171
_cell_length_c       9.94973
_cell_angle_alpha    90
_cell_angle_beta     90
_cell_angle_gamma    120

_symmetry_Int_Tables_number  194
_chemical_formula_structural  Li2Ca
_chemical_formula_sum  Li8Ca4
_cell_volume  322.42730103725256
_cell_formula_units_Z  4
loop_
  _symmetry_equiv_pos_site_id
 _symmetry_equiv_pos_as_xyz
 1  'x, y, z'
loop_
 _atom_site_type_symbol
 _atom_site_label
 _atom_site_symmetry_multiplicity
 _atom_site_fract_x
 _atom_site_fract_y
 _atom_site_fract_z
 _atom_site_fract_occupancy
 Ca  Ca1  1  0.33333  0.66667  0.56211  1
 Ca  Ca2  1  0.66667  0.33333  0.43789  1
 Ca  Ca3  1  0.66667  0.33333  0.06211  1
 Ca  Ca4  1  0.33333  0.66667  0.93789  1
 Li  Li1  1  0.16723  0.83277  0.25000  1
 Li  Li2  1  0.16723  0.33446  0.25000  1
 Li  Li3  1  0.33446  0.16723  0.75000  1
 Li  Li4  1  0.83277  0.16723  0.75000  1
 Li  Li5  1  0.66554  0.83277  0.25000  1
 Li  Li6  1  0.00000  0.00000  0.00000  1
 Li  Li7  1  0.83277  0.66554  0.75000  1
 Li  Li8  1  0.00000  0.00000  0.50000  1
