CIF file written using JARVIS-Tools package.
data_Sn2OF5
_symmetry_space_group_name_H-M  'C2/m'
_cell_length_a       5.71778
_cell_length_b       5.71778
_cell_length_c       8.25224
_cell_angle_alpha    98.6498
_cell_angle_beta     109.31
_cell_angle_gamma    107.8

_symmetry_Int_Tables_number  12
_chemical_formula_structural  Sn2OF5
_chemical_formula_sum  Sn4O2F0
_cell_volume  232.73790207871548
_cell_formula_units_Z  2
loop_
  _symmetry_equiv_pos_site_id
 _symmetry_equiv_pos_as_xyz
 1  'x, y, z'
loop_
 _atom_site_type_symbol
 _atom_site_label
 _atom_site_symmetry_multiplicity
 _atom_site_fract_x
 _atom_site_fract_y
 _atom_site_fract_z
 _atom_site_fract_occupancy
 F  F1  1  0.34085  0.79959  0.14044  1
 F  F2  1  0.65915  0.20041  0.85956  1
 F  F3  1  0.77140  0.72186  0.49325  1
 F  F4  1  0.22860  0.27814  0.50675  1
 F  F5  1  0.15824  0.60623  0.76447  1
 F  F6  1  0.84176  0.39377  0.23553  1
 F  F7  1  0.68207  0.69741  0.80036  1
 F  F8  1  0.89705  0.88171  0.19964  1
 F  F9  1  0.31793  0.30259  0.19964  1
 F  F10  1  0.10295  0.11829  0.80036  1
 O  O1  1  0.69458  0.19458  0.50000  1
 O  O2  1  0.30542  0.80542  0.50000  1
 Sn  Sn1  1  0.50000  0.50000  0.00000  1
 Sn  Sn2  1  0.00000  0.50000  0.50000  1
 Sn  Sn3  1  0.29337  0.02864  0.32200  1
 Sn  Sn4  1  0.70663  0.97136  0.67800  1
