CIF file written using JARVIS-Tools package.
data_LaGaO3
_symmetry_space_group_name_H-M  'R-3c'
_cell_length_a       5.50959
_cell_length_b       5.50959
_cell_length_c       5.50959
_cell_angle_alpha    60.8936
_cell_angle_beta     60.8936
_cell_angle_gamma    60.8936

_symmetry_Int_Tables_number  167
_chemical_formula_structural  LaGaO3
_chemical_formula_sum  La2Ga2O6
_cell_volume  120.64320555601621
_cell_formula_units_Z  2
loop_
  _symmetry_equiv_pos_site_id
 _symmetry_equiv_pos_as_xyz
 1  'x, y, z'
loop_
 _atom_site_type_symbol
 _atom_site_label
 _atom_site_symmetry_multiplicity
 _atom_site_fract_x
 _atom_site_fract_y
 _atom_site_fract_z
 _atom_site_fract_occupancy
 Ga  Ga1  1  0.49518  0.49518  0.49518  1
 Ga  Ga2  1  0.99518  0.99518  0.99518  1
 La  La1  1  0.74527  0.74527  0.74527  1
 La  La2  1  0.24527  0.24527  0.24527  1
 O  O1  1  0.67869  0.24505  0.81161  1
 O  O2  1  0.24505  0.81161  0.67869  1
 O  O3  1  0.81161  0.67869  0.24505  1
 O  O4  1  0.31161  0.74505  0.17869  1
 O  O5  1  0.17869  0.31161  0.74505  1
 O  O6  1  0.74505  0.17869  0.31161  1
