CIF file written using JARVIS-Tools package.
data_MgTiF6
_symmetry_space_group_name_H-M  'R-3'
_cell_length_a       5.40086
_cell_length_b       5.40086
_cell_length_c       5.40086
_cell_angle_alpha    57.0098
_cell_angle_beta     57.0099
_cell_angle_gamma    57.0097

_symmetry_Int_Tables_number  148
_chemical_formula_structural  MgTiF6
_chemical_formula_sum  MgTiF6
_cell_volume  103.71712194978927
_cell_formula_units_Z  1
loop_
  _symmetry_equiv_pos_site_id
 _symmetry_equiv_pos_as_xyz
 1  'x, y, z'
loop_
 _atom_site_type_symbol
 _atom_site_label
 _atom_site_symmetry_multiplicity
 _atom_site_fract_x
 _atom_site_fract_y
 _atom_site_fract_z
 _atom_site_fract_occupancy
 F  F1  1  0.34651  0.13862  0.75744  1
 F  F2  1  0.13862  0.75744  0.34651  1
 F  F3  1  0.24256  0.65349  0.86138  1
 F  F4  1  0.86138  0.24256  0.65349  1
 F  F5  1  0.65349  0.86138  0.24256  1
 F  F6  1  0.75744  0.34651  0.13862  1
 Mg  Mg1  1  0.50000  0.50000  0.50000  1
 Ti  Ti1  1  0.00000  0.00000  0.00000  1
