CIF file written using JARVIS-Tools package.
data_KCrP2S7
_symmetry_space_group_name_H-M  'C2'
_cell_length_a       6.253
_cell_length_b       6.45295
_cell_length_c       6.45295
_cell_angle_alpha    96.4386
_cell_angle_beta     94.9436
_cell_angle_gamma    94.9436

_symmetry_Int_Tables_number  5
_chemical_formula_structural  KCrP2S7
_chemical_formula_sum  KCrP2S7
_cell_volume  256.56255496971744
_cell_formula_units_Z  1
loop_
  _symmetry_equiv_pos_site_id
 _symmetry_equiv_pos_as_xyz
 1  'x, y, z'
loop_
 _atom_site_type_symbol
 _atom_site_label
 _atom_site_symmetry_multiplicity
 _atom_site_fract_x
 _atom_site_fract_y
 _atom_site_fract_z
 _atom_site_fract_occupancy
 Cr  Cr1  1  0.00000  0.49993  0.50007  1
 K  K1  1  0.50000  0.89856  0.10144  1
 P  P1  1  0.91977  0.95153  0.64304  1
 P  P2  1  0.08023  0.35696  0.04847  1
 S  S1  1  0.00000  0.02194  0.97806  1
 S  S2  1  0.23317  0.47420  0.81631  1
 S  S3  1  0.71414  0.68724  0.63318  1
 S  S4  1  0.28586  0.36682  0.31276  1
 S  S5  1  0.81911  0.49154  0.14802  1
 S  S6  1  0.18089  0.85198  0.50846  1
 S  S7  1  0.76683  0.18369  0.52580  1
