CIF file written using JARVIS-Tools package.
data_CaCoSi2O6
_symmetry_space_group_name_H-M  'C2/c'
_cell_length_a       5.23837
_cell_length_b       6.66616
_cell_length_c       6.66617
_cell_angle_alpha    83.8816
_cell_angle_beta     78.9651
_cell_angle_gamma    78.9651

_symmetry_Int_Tables_number  15
_chemical_formula_structural  CaCoSi2O6
_chemical_formula_sum  Ca2Co2Si4O2
_cell_volume  223.66100965438505
_cell_formula_units_Z  2
loop_
  _symmetry_equiv_pos_site_id
 _symmetry_equiv_pos_as_xyz
 1  'x, y, z'
loop_
 _atom_site_type_symbol
 _atom_site_label
 _atom_site_symmetry_multiplicity
 _atom_site_fract_x
 _atom_site_fract_y
 _atom_site_fract_z
 _atom_site_fract_occupancy
 Ca  Ca1  1  0.25000  0.69975  0.30025  1
 Ca  Ca2  1  0.75000  0.30025  0.69975  1
 Co  Co1  1  0.75000  0.91440  0.08559  1
 Co  Co2  1  0.25000  0.08560  0.91441  1
 O  O1  1  0.98595  0.62574  0.67078  1
 O  O2  1  0.48595  0.67078  0.62574  1
 O  O3  1  0.01405  0.37426  0.32922  1
 O  O4  1  0.17465  0.10973  0.61521  1
 O  O5  1  0.32535  0.38479  0.89027  1
 O  O6  1  0.82535  0.89027  0.38479  1
 O  O7  1  0.67465  0.61521  0.10973  1
 O  O8  1  0.35462  0.02752  0.20991  1
 O  O9  1  0.85462  0.20991  0.02752  1
 O  O10  1  0.14538  0.79009  0.97248  1
 O  O11  1  0.51405  0.32922  0.37426  1
 O  O12  1  0.64538  0.97248  0.79009  1
 Si  Si1  1  0.27266  0.19285  0.38342  1
 Si  Si2  1  0.22734  0.61657  0.80715  1
 Si  Si3  1  0.77266  0.38343  0.19285  1
 Si  Si4  1  0.72734  0.80715  0.61658  1
