CIF file written using JARVIS-Tools package.
data_NbAlO4
_symmetry_space_group_name_H-M  'C2/m'
_cell_length_a       3.79496
_cell_length_b       6.39508
_cell_length_c       12.9794
_cell_angle_alpha    97.3631
_cell_angle_beta     98.405
_cell_angle_gamma    107.26

_symmetry_Int_Tables_number  12
_chemical_formula_structural  NbAlO4
_chemical_formula_sum  Nb4Al4O6
_cell_volume  292.6367339263098
_cell_formula_units_Z  4
loop_
  _symmetry_equiv_pos_site_id
 _symmetry_equiv_pos_as_xyz
 1  'x, y, z'
loop_
 _atom_site_type_symbol
 _atom_site_label
 _atom_site_symmetry_multiplicity
 _atom_site_fract_x
 _atom_site_fract_y
 _atom_site_fract_z
 _atom_site_fract_occupancy
 Al  Al1  1  0.99564  0.90408  0.09264  1
 Al  Al2  1  0.78605  0.98280  0.59478  1
 Al  Al3  1  0.49634  0.59302  0.40506  1
 Al  Al4  1  0.70593  0.51430  0.90292  1
 Nb  Nb1  1  0.30904  0.50935  0.11414  1
 Nb  Nb2  1  0.50418  0.39920  0.61461  1
 Nb  Nb3  1  0.18295  0.98775  0.38355  1
 Nb  Nb4  1  0.98781  0.09790  0.88309  1
 O  O1  1  0.10031  0.96572  0.24034  1
 O  O2  1  0.68095  0.93996  0.42736  1
 O  O3  1  0.46376  0.83650  0.09644  1
 O  O4  1  0.30489  0.03764  0.57760  1
 O  O5  1  0.81104  0.55715  0.07034  1
 O  O6  1  0.87717  0.82226  0.93749  1
 O  O7  1  0.02822  0.66060  0.40126  1
 O  O8  1  0.12458  0.18905  0.06549  1
 O  O9  1  0.62330  0.49361  0.75842  1
 O  O10  1  0.36740  0.30805  0.43222  1
 O  O11  1  0.61482  0.67484  0.56021  1
 O  O12  1  0.18709  0.45946  0.92010  1
 O  O13  1  0.94928  0.30191  0.60211  1
 O  O14  1  0.54271  0.19520  0.89559  1
 O  O15  1  0.39166  0.53139  0.25736  1
 O  O16  1  0.86868  0.00350  0.73928  1
