CIF file written using JARVIS-Tools package.
data_Er2TeO2
_symmetry_space_group_name_H-M  'P6_3/mmc'
_cell_length_a       3.86191
_cell_length_b       3.86203
_cell_length_c       14.2705
_cell_angle_alpha    90.0003
_cell_angle_beta     90.0006
_cell_angle_gamma    119.998

_symmetry_Int_Tables_number  194
_chemical_formula_structural  Er2TeO2
_chemical_formula_sum  Er4Te2O4
_cell_volume  184.33164875109566
_cell_formula_units_Z  2
loop_
  _symmetry_equiv_pos_site_id
 _symmetry_equiv_pos_as_xyz
 1  'x, y, z'
loop_
 _atom_site_type_symbol
 _atom_site_label
 _atom_site_symmetry_multiplicity
 _atom_site_fract_x
 _atom_site_fract_y
 _atom_site_fract_z
 _atom_site_fract_occupancy
 Er  Er1  1  0.66667  0.33333  0.90255  1
 Er  Er2  1  0.66667  0.33333  0.59745  1
 Er  Er3  1  0.33333  0.66667  0.40255  1
 Er  Er4  1  0.33333  0.66667  0.09745  1
 O  O1  1  0.66666  0.33332  0.06014  1
 O  O2  1  0.66666  0.33332  0.43986  1
 O  O3  1  0.33334  0.66668  0.93986  1
 O  O4  1  0.33334  0.66668  0.56014  1
 Te  Te1  1  -0.00000  0.00000  0.25000  1
 Te  Te2  1  0.00000  -0.00000  0.75000  1
