CIF file written using JARVIS-Tools package.
data_LiCoPO4
_symmetry_space_group_name_H-M  'Pnma'
_cell_length_a       4.70232
_cell_length_b       5.89931
_cell_length_c       10.1872
_cell_angle_alpha    90
_cell_angle_beta     90
_cell_angle_gamma    90

_symmetry_Int_Tables_number  62
_chemical_formula_structural  LiCoPO4
_chemical_formula_sum  Li4Co4P4O6
_cell_volume  282.59692331849175
_cell_formula_units_Z  4
loop_
  _symmetry_equiv_pos_site_id
 _symmetry_equiv_pos_as_xyz
 1  'x, y, z'
loop_
 _atom_site_type_symbol
 _atom_site_label
 _atom_site_symmetry_multiplicity
 _atom_site_fract_x
 _atom_site_fract_y
 _atom_site_fract_z
 _atom_site_fract_occupancy
 Co  Co1  1  0.48161  0.75000  0.77775  1
 Co  Co2  1  0.98161  0.25000  0.72225  1
 Co  Co3  1  0.01839  0.75000  0.27775  1
 Co  Co4  1  0.51839  0.25000  0.22225  1
 Li  Li1  1  0.00000  0.00000  0.00000  1
 Li  Li2  1  0.50000  0.50000  0.50000  1
 Li  Li3  1  0.50000  0.00000  0.50000  1
 Li  Li4  1  0.00000  0.50000  0.00000  1
 O  O1  1  0.28573  0.45794  0.83226  1
 O  O2  1  0.25242  0.75000  0.09475  1
 O  O3  1  0.29231  0.25000  0.04559  1
 O  O4  1  0.75242  0.25000  0.40525  1
 O  O5  1  0.28573  0.04206  0.83226  1
 O  O6  1  0.78573  0.95794  0.66774  1
 O  O7  1  0.78573  0.54206  0.66774  1
 O  O8  1  0.74758  0.25000  0.90525  1
 O  O9  1  0.21427  0.45794  0.33226  1
 O  O10  1  0.20769  0.25000  0.54559  1
 O  O11  1  0.71427  0.54206  0.16774  1
 O  O12  1  0.79231  0.75000  0.45441  1
 O  O13  1  0.71427  0.95794  0.16774  1
 O  O14  1  0.24758  0.75000  0.59475  1
 O  O15  1  0.21427  0.04206  0.33226  1
 O  O16  1  0.70769  0.75000  0.95441  1
 P  P1  1  0.57780  0.75000  0.09438  1
 P  P2  1  0.07780  0.25000  0.40562  1
 P  P3  1  0.92220  0.75000  0.59438  1
 P  P4  1  0.42220  0.25000  0.90562  1
