CIF file written using JARVIS-Tools package.
data_CaCrO3
_symmetry_space_group_name_H-M  'Pnma'
_cell_length_a       5.28386
_cell_length_b       5.35786
_cell_length_c       7.49201
_cell_angle_alpha    90
_cell_angle_beta     90
_cell_angle_gamma    90

_symmetry_Int_Tables_number  62
_chemical_formula_structural  CaCrO3
_chemical_formula_sum  Ca4Cr4O2
_cell_volume  212.09994002494363
_cell_formula_units_Z  4
loop_
  _symmetry_equiv_pos_site_id
 _symmetry_equiv_pos_as_xyz
 1  'x, y, z'
loop_
 _atom_site_type_symbol
 _atom_site_label
 _atom_site_symmetry_multiplicity
 _atom_site_fract_x
 _atom_site_fract_y
 _atom_site_fract_z
 _atom_site_fract_occupancy
 Ca  Ca1  1  0.00827  0.04180  0.75000  1
 Ca  Ca2  1  0.50827  0.45820  0.25000  1
 Ca  Ca3  1  0.49173  0.54180  0.75000  1
 Ca  Ca4  1  0.99173  0.95820  0.25000  1
 Cr  Cr1  1  0.50000  0.00000  0.00000  1
 Cr  Cr2  1  0.00000  0.50000  0.00000  1
 Cr  Cr3  1  0.00000  0.50000  0.50000  1
 Cr  Cr4  1  0.50000  0.00000  0.50000  1
 O  O1  1  0.07216  0.51398  0.25000  1
 O  O2  1  0.70921  0.71007  0.46229  1
 O  O3  1  0.42784  0.01398  0.25000  1
 O  O4  1  0.92784  0.48602  0.75000  1
 O  O5  1  0.57216  0.98602  0.75000  1
 O  O6  1  0.29079  0.28993  0.96229  1
 O  O7  1  0.20921  0.78993  0.96229  1
 O  O8  1  0.70921  0.71007  0.03771  1
 O  O9  1  0.29079  0.28993  0.53771  1
 O  O10  1  0.79079  0.21007  0.03771  1
 O  O11  1  0.79079  0.21007  0.46229  1
 O  O12  1  0.20921  0.78993  0.53771  1
