CIF file written using JARVIS-Tools package.
data_TiCdO3
_symmetry_space_group_name_H-M  'R-3'
_cell_length_a       5.85416
_cell_length_b       5.85416
_cell_length_c       5.85416
_cell_angle_alpha    53.7736
_cell_angle_beta     53.7736
_cell_angle_gamma    53.7736

_symmetry_Int_Tables_number  148
_chemical_formula_structural  TiCdO3
_chemical_formula_sum  Ti2Cd2O6
_cell_volume  121.21714738804313
_cell_formula_units_Z  2
loop_
  _symmetry_equiv_pos_site_id
 _symmetry_equiv_pos_as_xyz
 1  'x, y, z'
loop_
 _atom_site_type_symbol
 _atom_site_label
 _atom_site_symmetry_multiplicity
 _atom_site_fract_x
 _atom_site_fract_y
 _atom_site_fract_z
 _atom_site_fract_occupancy
 Cd  Cd1  1  0.63612  0.63612  0.63612  1
 Cd  Cd2  1  0.36388  0.36388  0.36388  1
 O  O1  1  0.80436  0.43728  0.03644  1
 O  O2  1  0.43728  0.03644  0.80436  1
 O  O3  1  0.03644  0.80436  0.43728  1
 O  O4  1  0.19564  0.56272  0.96356  1
 O  O5  1  0.96356  0.19564  0.56272  1
 O  O6  1  0.56272  0.96356  0.19564  1
 Ti  Ti1  1  0.85056  0.85056  0.85056  1
 Ti  Ti2  1  0.14944  0.14944  0.14944  1
