CIF file written using JARVIS-Tools package.
data_Al4C3
_symmetry_space_group_name_H-M  'P1'
_cell_length_a       3.18704
_cell_length_b       5.0659
_cell_length_c       5.59653
_cell_angle_alpha    113.623
_cell_angle_beta     86.5486
_cell_angle_gamma    103.672

_symmetry_Int_Tables_number  1
_chemical_formula_structural  Al4C3
_chemical_formula_sum  Al4C3
_cell_volume  80.3792620219419
_cell_formula_units_Z  1
loop_
  _symmetry_equiv_pos_site_id
 _symmetry_equiv_pos_as_xyz
 1  'x, y, z'
loop_
 _atom_site_type_symbol
 _atom_site_label
 _atom_site_symmetry_multiplicity
 _atom_site_fract_x
 _atom_site_fract_y
 _atom_site_fract_z
 _atom_site_fract_occupancy
 Al  Al1  1  0.04136  0.16660  0.75107  1
 Al  Al2  1  0.63879  0.21163  0.20691  1
 Al  Al3  1  0.25851  0.66190  0.69222  1
 Al  Al4  1  0.94129  0.74954  0.22808  1
 C  C1  1  0.07634  0.98439  0.00370  1
 C  C2  1  0.62405  0.34685  0.61526  1
 C  C3  1  0.49125  0.94702  0.48197  1
