CIF file written using JARVIS-Tools package.
data_B6As
_symmetry_space_group_name_H-M  'R-3m'
_cell_length_a       5.32995
_cell_length_b       5.32995
_cell_length_c       5.32995
_cell_angle_alpha    70.6002
_cell_angle_beta     70.6002
_cell_angle_gamma    70.6002

_symmetry_Int_Tables_number  166
_chemical_formula_structural  B6As
_chemical_formula_sum  B2As2
_cell_volume  130.45524128797794
_cell_formula_units_Z  2
loop_
  _symmetry_equiv_pos_site_id
 _symmetry_equiv_pos_as_xyz
 1  'x, y, z'
loop_
 _atom_site_type_symbol
 _atom_site_label
 _atom_site_symmetry_multiplicity
 _atom_site_fract_x
 _atom_site_fract_y
 _atom_site_fract_z
 _atom_site_fract_occupancy
 As  As1  1  0.60123  0.60123  0.60123  1
 As  As2  1  0.39877  0.39877  0.39877  1
 B  B1  1  0.01522  0.01522  0.32512  1
 B  B2  1  0.01522  0.32512  0.01522  1
 B  B3  1  0.82222  0.27172  0.82222  1
 B  B4  1  0.82222  0.82222  0.27172  1
 B  B5  1  0.27172  0.82222  0.82222  1
 B  B6  1  0.72828  0.17778  0.17778  1
 B  B7  1  0.17778  0.72828  0.17778  1
 B  B8  1  0.17778  0.17778  0.72828  1
 B  B9  1  0.98478  0.67488  0.98478  1
 B  B10  1  0.98478  0.98478  0.67488  1
 B  B11  1  0.67488  0.98478  0.98478  1
 B  B12  1  0.32512  0.01522  0.01522  1
