CIF file written using JARVIS-Tools package.
data_Li2CuPO4
_symmetry_space_group_name_H-M  'C2/m'
_cell_length_a       5.27408
_cell_length_b       5.27408
_cell_length_c       6.17622
_cell_angle_alpha    90.3725
_cell_angle_beta     89.6275
_cell_angle_gamma    87.2192

_symmetry_Int_Tables_number  12
_chemical_formula_structural  Li2CuPO4
_chemical_formula_sum  Li4Cu2P2O8
_cell_volume  171.58737138340737
_cell_formula_units_Z  2
loop_
  _symmetry_equiv_pos_site_id
 _symmetry_equiv_pos_as_xyz
 1  'x, y, z'
loop_
 _atom_site_type_symbol
 _atom_site_label
 _atom_site_symmetry_multiplicity
 _atom_site_fract_x
 _atom_site_fract_y
 _atom_site_fract_z
 _atom_site_fract_occupancy
 Cu  Cu1  1  0.18349  0.18349  -0.00000  1
 Cu  Cu2  1  0.81651  0.81651  -0.00000  1
 Li  Li1  1  0.31472  0.68528  0.75084  1
 Li  Li2  1  0.17813  0.17813  0.50000  1
 Li  Li3  1  0.82187  0.82187  0.50000  1
 Li  Li4  1  0.68528  0.31472  0.24916  1
 O  O1  1  0.21710  0.78290  0.04599  1
 O  O2  1  0.19674  0.80326  0.46127  1
 O  O3  1  0.61921  0.70575  0.26713  1
 O  O4  1  0.29425  0.38079  0.26713  1
 O  O5  1  0.38079  0.29425  0.73287  1
 O  O6  1  0.70575  0.61921  0.73287  1
 O  O7  1  0.80326  0.19674  0.53873  1
 O  O8  1  0.78290  0.21710  0.95401  1
 P  P1  1  0.32724  0.67276  0.26143  1
 P  P2  1  0.67276  0.32724  0.73857  1
