CIF file written using JARVIS-Tools package.
data_IClO
_symmetry_space_group_name_H-M  'R-3'
_cell_length_a       9.45495
_cell_length_b       9.45495
_cell_length_c       9.45496
_cell_angle_alpha    115.108
_cell_angle_beta     115.108
_cell_angle_gamma    115.108

_symmetry_Int_Tables_number  148
_chemical_formula_structural  IClO
_chemical_formula_sum  I6Cl6O6
_cell_volume  468.36461867571654
_cell_formula_units_Z  6
loop_
  _symmetry_equiv_pos_site_id
 _symmetry_equiv_pos_as_xyz
 1  'x, y, z'
loop_
 _atom_site_type_symbol
 _atom_site_label
 _atom_site_symmetry_multiplicity
 _atom_site_fract_x
 _atom_site_fract_y
 _atom_site_fract_z
 _atom_site_fract_occupancy
 Cl  Cl1  1  0.87729  0.64689  0.93178  1
 Cl  Cl2  1  0.06822  0.12271  0.35311  1
 Cl  Cl3  1  0.64689  0.93178  0.87729  1
 Cl  Cl4  1  0.12271  0.35311  0.06822  1
 Cl  Cl5  1  0.35311  0.06822  0.12271  1
 Cl  Cl6  1  0.93178  0.87729  0.64689  1
 I  I1  1  0.24867  0.72259  0.58402  1
 I  I2  1  0.72259  0.58402  0.24867  1
 I  I3  1  0.58402  0.24867  0.72259  1
 I  I4  1  0.41598  0.75133  0.27741  1
 I  I5  1  0.27741  0.41598  0.75133  1
 I  I6  1  0.75133  0.27741  0.41598  1
 O  O1  1  0.69865  0.14523  0.52363  1
 O  O2  1  0.14523  0.52363  0.69865  1
 O  O3  1  0.30135  0.85477  0.47637  1
 O  O4  1  0.47637  0.30135  0.85477  1
 O  O5  1  0.52363  0.69865  0.14523  1
 O  O6  1  0.85477  0.47637  0.30135  1
