CIF file written using JARVIS-Tools package.
data_RbNO3
_symmetry_space_group_name_H-M  'Pmmn'
_cell_length_a       4.91222
_cell_length_b       5.29994
_cell_length_c       5.78272
_cell_angle_alpha    90
_cell_angle_beta     90
_cell_angle_gamma    90

_symmetry_Int_Tables_number  59
_chemical_formula_structural  RbNO3
_chemical_formula_sum  Rb2N2O6
_cell_volume  150.55002881916568
_cell_formula_units_Z  2
loop_
  _symmetry_equiv_pos_site_id
 _symmetry_equiv_pos_as_xyz
 1  'x, y, z'
loop_
 _atom_site_type_symbol
 _atom_site_label
 _atom_site_symmetry_multiplicity
 _atom_site_fract_x
 _atom_site_fract_y
 _atom_site_fract_z
 _atom_site_fract_occupancy
 N  N1  1  0.00992  0.00000  0.00000  1
 N  N2  1  0.99008  0.50000  0.50000  1
 O  O1  1  0.88118  0.00000  0.19011  1
 O  O2  1  0.88118  0.00000  0.80989  1
 O  O3  1  0.73102  0.50000  0.50000  1
 O  O4  1  0.26898  0.00000  0.00000  1
 O  O5  1  0.11882  0.50000  0.30989  1
 O  O6  1  0.11882  0.50000  0.69011  1
 Rb  Rb1  1  0.59648  0.50000  0.00000  1
 Rb  Rb2  1  0.40352  0.00000  0.50000  1
