CIF file written using JARVIS-Tools package.
data_TeWO6
_symmetry_space_group_name_H-M  'R-3'
_cell_length_a       5.30984
_cell_length_b       5.30991
_cell_length_c       5.06835
_cell_angle_alpha    90.0024
_cell_angle_beta     118.503
_cell_angle_gamma    122.988

_symmetry_Int_Tables_number  148
_chemical_formula_structural  TeWO6
_chemical_formula_sum  TeWO6
_cell_volume  98.57199933491044
_cell_formula_units_Z  1
loop_
  _symmetry_equiv_pos_site_id
 _symmetry_equiv_pos_as_xyz
 1  'x, y, z'
loop_
 _atom_site_type_symbol
 _atom_site_label
 _atom_site_symmetry_multiplicity
 _atom_site_fract_x
 _atom_site_fract_y
 _atom_site_fract_z
 _atom_site_fract_occupancy
 O  O1  1  0.50035  0.79058  0.63535  1
 O  O2  1  0.49799  0.29177  0.36556  1
 O  O3  1  0.88238  0.67607  0.13418  1
 O  O4  1  0.11378  0.90751  0.74992  1
 O  O5  1  0.88457  0.17486  0.25101  1
 O  O6  1  0.11594  0.40629  0.86675  1
 Te  Te1  1  -0.00083  0.54118  0.50047  1
 W  W1  1  -0.00084  0.04117  0.00046  1
