CIF file written using JARVIS-Tools package.
data_SbTeI
_symmetry_space_group_name_H-M  'C2/m'
_cell_length_a       4.28248
_cell_length_b       7.27044
_cell_length_c       7.71616
_cell_angle_alpha    93.3385
_cell_angle_beta     106.086
_cell_angle_gamma    107.122

_symmetry_Int_Tables_number  12
_chemical_formula_structural  SbTeI
_chemical_formula_sum  Sb2Te2I2
_cell_volume  218.03622020051716
_cell_formula_units_Z  2
loop_
  _symmetry_equiv_pos_site_id
 _symmetry_equiv_pos_as_xyz
 1  'x, y, z'
loop_
 _atom_site_type_symbol
 _atom_site_label
 _atom_site_symmetry_multiplicity
 _atom_site_fract_x
 _atom_site_fract_y
 _atom_site_fract_z
 _atom_site_fract_occupancy
 I  I1  1  0.78358  0.20247  0.36506  1
 I  I2  1  0.21642  0.79753  0.63494  1
 Sb  Sb1  1  0.37834  0.51192  0.24540  1
 Sb  Sb2  1  0.62166  0.48808  0.75460  1
 Te  Te1  1  0.07780  0.25218  0.90315  1
 Te  Te2  1  0.92220  0.74782  0.09685  1
