CIF file written using JARVIS-Tools package.
data_VPO5
_symmetry_space_group_name_H-M  'Fdd2'
_cell_length_a       6.8818
_cell_length_b       6.8818
_cell_length_c       8.70929
_cell_angle_alpha    101.467
_cell_angle_beta     101.467
_cell_angle_gamma    119.79

_symmetry_Int_Tables_number  43
_chemical_formula_structural  VPO5
_chemical_formula_sum  V4P4O20
_cell_volume  328.64381791628
_cell_formula_units_Z  4
loop_
  _symmetry_equiv_pos_site_id
 _symmetry_equiv_pos_as_xyz
 1  'x, y, z'
loop_
 _atom_site_type_symbol
 _atom_site_label
 _atom_site_symmetry_multiplicity
 _atom_site_fract_x
 _atom_site_fract_y
 _atom_site_fract_z
 _atom_site_fract_occupancy
 O  O1  1  0.85319  0.06094  0.44935  1
 O  O2  1  0.61163  0.56723  0.32230  1
 O  O3  1  0.66713  0.66843  0.84293  1
 O  O4  1  0.31094  0.60319  0.94935  1
 O  O5  1  0.81723  0.36163  0.82230  1
 O  O6  1  0.21201  0.24117  0.31578  1
 O  O7  1  0.53934  0.99493  0.17770  1
 O  O8  1  0.07421  0.57550  0.65707  1
 O  O9  1  0.82550  0.82421  0.15707  1
 O  O10  1  0.42360  0.63589  0.54092  1
 O  O11  1  0.14623  0.67539  0.18422  1
 O  O12  1  0.09497  0.88268  0.45908  1
 O  O13  1  0.24493  0.28934  0.67770  1
 O  O14  1  0.61159  0.40383  0.55065  1
 O  O15  1  0.88589  0.17360  0.04092  1
 O  O16  1  0.65383  0.36159  0.05065  1
 O  O17  1  0.13268  0.84497  0.95908  1
 O  O18  1  0.92539  0.89623  0.68422  1
 O  O19  1  0.49117  0.96201  0.81578  1
 O  O20  1  0.91843  0.41713  0.34293  1
 P  P1  1  0.28186  0.77906  0.06964  1
 P  P2  1  0.46222  0.45942  0.43036  1
 P  P3  1  0.70942  0.21222  0.93036  1
 P  P4  1  0.02906  0.03186  0.56964  1
 V  V1  1  0.84856  0.63148  0.76621  1
 V  V2  1  0.86527  0.08235  0.23379  1
 V  V3  1  0.33235  0.61527  0.73379  1
 V  V4  1  0.88148  0.59856  0.26621  1
