CIF file written using JARVIS-Tools package.
data_Cl2O
_symmetry_space_group_name_H-M  'I4_1/amd'
_cell_length_a       6.93394
_cell_length_b       6.9344
_cell_length_c       6.9344
_cell_angle_alpha    99.752
_cell_angle_beta     114.54
_cell_angle_gamma    114.54

_symmetry_Int_Tables_number  141
_chemical_formula_structural  Cl2O
_chemical_formula_sum  Cl8O4
_cell_volume  251.26411327503982
_cell_formula_units_Z  4
loop_
  _symmetry_equiv_pos_site_id
 _symmetry_equiv_pos_as_xyz
 1  'x, y, z'
loop_
 _atom_site_type_symbol
 _atom_site_label
 _atom_site_symmetry_multiplicity
 _atom_site_fract_x
 _atom_site_fract_y
 _atom_site_fract_z
 _atom_site_fract_occupancy
 Cl  Cl1  1  0.44419  0.64631  0.20210  1
 Cl  Cl2  1  0.55580  0.20212  0.25791  1
 Cl  Cl3  1  0.94419  0.20210  0.64631  1
 Cl  Cl4  1  0.94420  0.74209  0.79788  1
 Cl  Cl5  1  0.55581  0.35369  0.79790  1
 Cl  Cl6  1  0.05580  0.25791  0.20212  1
 Cl  Cl7  1  0.05581  0.79790  0.35369  1
 Cl  Cl8  1  0.44420  0.79788  0.74209  1
 O  O1  1  0.25000  0.34505  0.09505  1
 O  O2  1  0.75000  0.09505  0.34505  1
 O  O3  1  0.75000  0.65495  0.90495  1
 O  O4  1  0.25000  0.90495  0.65495  1
