CIF file written using JARVIS-Tools package.
data_NaH2N
_symmetry_space_group_name_H-M  'Fddd'
_cell_length_a       5.98762
_cell_length_b       5.98762
_cell_length_c       6.3957
_cell_angle_alpha    113.455
_cell_angle_beta     113.455
_cell_angle_gamma    98.6086

_symmetry_Int_Tables_number  70
_chemical_formula_structural  NaH2N
_chemical_formula_sum  Na4H8N4
_cell_volume  179.57095906021726
_cell_formula_units_Z  4
loop_
  _symmetry_equiv_pos_site_id
 _symmetry_equiv_pos_as_xyz
 1  'x, y, z'
loop_
 _atom_site_type_symbol
 _atom_site_label
 _atom_site_symmetry_multiplicity
 _atom_site_fract_x
 _atom_site_fract_y
 _atom_site_fract_z
 _atom_site_fract_occupancy
 H  H1  1  0.54188  0.97143  0.35498  1
 H  H2  1  0.61646  0.18691  0.64503  1
 H  H3  1  0.02857  0.45812  0.64503  1
 H  H4  1  0.81309  0.38354  0.35498  1
 H  H5  1  0.70812  0.77857  0.14503  1
 H  H6  1  0.43691  0.36646  0.14503  1
 H  H7  1  0.22143  0.29188  0.85497  1
 H  H8  1  0.63354  0.56309  0.85497  1
 N  N1  1  0.24559  0.24559  -0.00000  1
 N  N2  1  0.00441  0.50441  0.50000  1
 N  N3  1  0.75441  0.75441  0.00000  1
 N  N4  1  0.49559  0.99559  0.50000  1
 Na  Na1  1  0.10210  0.60210  0.20420  1
 Na  Na2  1  0.39790  0.89790  0.79580  1
 Na  Na3  1  0.14790  0.14790  0.29580  1
 Na  Na4  1  0.85210  0.85210  0.70420  1
