CIF file written using JARVIS-Tools package.
data_MoSe2
_symmetry_space_group_name_H-M  'P-6m2'
_cell_length_a       3.32702
_cell_length_b       3.32702
_cell_length_c       28.5157
_cell_angle_alpha    90
_cell_angle_beta     90
_cell_angle_gamma    120

_symmetry_Int_Tables_number  187
_chemical_formula_structural  MoSe2
_chemical_formula_sum  Mo3Se6
_cell_volume  273.3545752510933
_cell_formula_units_Z  3
loop_
  _symmetry_equiv_pos_site_id
 _symmetry_equiv_pos_as_xyz
 1  'x, y, z'
loop_
 _atom_site_type_symbol
 _atom_site_label
 _atom_site_symmetry_multiplicity
 _atom_site_fract_x
 _atom_site_fract_y
 _atom_site_fract_z
 _atom_site_fract_occupancy
 Mo  Mo1  1  0.66667  0.33333  0.34929  1
 Mo  Mo2  1  0.33333  0.66667  0.11845  1
 Mo  Mo3  1  0.33333  0.66667  0.58014  1
 Se  Se1  1  0.33333  0.66667  0.40798  1
 Se  Se2  1  0.66667  0.33333  0.17715  1
 Se  Se3  1  0.66667  0.33333  0.63876  1
 Se  Se4  1  0.33333  0.66667  0.29060  1
 Se  Se5  1  0.66667  0.33333  0.05983  1
 Se  Se6  1  0.66667  0.33333  0.52144  1
