CIF file written using JARVIS-Tools package.
data_H4WNCl6
_symmetry_space_group_name_H-M  'C2/c'
_cell_length_a       6.22976
_cell_length_b       6.77203
_cell_length_c       12.1583
_cell_angle_alpha    80.3025
_cell_angle_beta     90
_cell_angle_gamma    62.6153

_symmetry_Int_Tables_number  15
_chemical_formula_structural  H4WNCl6
_chemical_formula_sum  H8W2N2Cl2
_cell_volume  447.18458486670363
_cell_formula_units_Z  2
loop_
  _symmetry_equiv_pos_site_id
 _symmetry_equiv_pos_as_xyz
 1  'x, y, z'
loop_
 _atom_site_type_symbol
 _atom_site_label
 _atom_site_symmetry_multiplicity
 _atom_site_fract_x
 _atom_site_fract_y
 _atom_site_fract_z
 _atom_site_fract_occupancy
 Cl  Cl1  1  0.52252  0.16489  0.10329  1
 Cl  Cl2  1  0.19730  0.42373  0.33613  1
 Cl  Cl3  1  0.62104  0.57627  0.16387  1
 Cl  Cl4  1  0.90847  0.29979  0.96564  1
 Cl  Cl5  1  0.09153  0.70021  0.03436  1
 Cl  Cl6  1  0.37896  0.42373  0.83613  1
 Cl  Cl7  1  0.80270  0.57627  0.66387  1
 Cl  Cl8  1  0.20826  0.70021  0.53436  1
 Cl  Cl9  1  0.68741  0.83511  0.39671  1
 Cl  Cl10  1  0.47748  0.83511  0.89671  1
 Cl  Cl11  1  0.31259  0.16489  0.60329  1
 Cl  Cl12  1  0.79174  0.29979  0.46564  1
 H  H1  1  0.01341  0.98259  0.82058  1
 H  H2  1  0.98659  0.01741  0.17942  1
 H  H3  1  0.11573  0.14263  0.24565  1
 H  H4  1  0.99600  0.01741  0.67942  1
 H  H5  1  0.74164  0.14263  0.74565  1
 H  H6  1  0.25836  0.85737  0.25435  1
 H  H7  1  0.00400  0.98259  0.32058  1
 H  H8  1  0.88427  0.85737  0.75435  1
 N  N1  1  0.09059  0.00000  0.25000  1
 N  N2  1  0.90941  -0.00000  0.75000  1
 W  W1  1  0.50000  0.50000  0.00000  1
 W  W2  1  0.00000  0.50000  0.50000  1
