CIF file written using JARVIS-Tools package.
data_VO2
_symmetry_space_group_name_H-M  'R-3m'
_cell_length_a       4.82172
_cell_length_b       4.82172
_cell_length_c       4.82172
_cell_angle_alpha    35.094
_cell_angle_beta     35.0941
_cell_angle_gamma    35.094

_symmetry_Int_Tables_number  166
_chemical_formula_structural  VO2
_chemical_formula_sum  VO2
_cell_volume  33.08912073589307
_cell_formula_units_Z  1
loop_
  _symmetry_equiv_pos_site_id
 _symmetry_equiv_pos_as_xyz
 1  'x, y, z'
loop_
 _atom_site_type_symbol
 _atom_site_label
 _atom_site_symmetry_multiplicity
 _atom_site_fract_x
 _atom_site_fract_y
 _atom_site_fract_z
 _atom_site_fract_occupancy
 O  O1  1  0.76083  0.76082  0.76082  1
 O  O2  1  0.23918  0.23917  0.23917  1
 V  V1  1  0.50000  0.50000  0.50000  1
