CIF file written using JARVIS-Tools package.
data_NdTeF
_symmetry_space_group_name_H-M  'P4/nmm'
_cell_length_a       4.21692
_cell_length_b       4.21692
_cell_length_c       7.57234
_cell_angle_alpha    90
_cell_angle_beta     90
_cell_angle_gamma    90

_symmetry_Int_Tables_number  129
_chemical_formula_structural  NdTeF
_chemical_formula_sum  Nd2Te2F2
_cell_volume  134.6545924433584
_cell_formula_units_Z  2
loop_
  _symmetry_equiv_pos_site_id
 _symmetry_equiv_pos_as_xyz
 1  'x, y, z'
loop_
 _atom_site_type_symbol
 _atom_site_label
 _atom_site_symmetry_multiplicity
 _atom_site_fract_x
 _atom_site_fract_y
 _atom_site_fract_z
 _atom_site_fract_occupancy
 F  F1  1  0.50000  0.50000  0.00000  1
 F  F2  1  0.00000  0.00000  0.00000  1
 Nd  Nd1  1  0.50000  0.00000  0.80255  1
 Nd  Nd2  1  0.00000  0.50000  0.19745  1
 Te  Te1  1  0.00000  0.50000  0.64322  1
 Te  Te2  1  0.50000  0.00000  0.35678  1
