CIF file written using JARVIS-Tools package.
data_LiHO2
_symmetry_space_group_name_H-M  'C2/m'
_cell_length_a       4.82811
_cell_length_b       4.82811
_cell_length_c       3.30657
_cell_angle_alpha    73.4526
_cell_angle_beta     106.547
_cell_angle_gamma    78.5455

_symmetry_Int_Tables_number  12
_chemical_formula_structural  LiHO2
_chemical_formula_sum  Li2H2O4
_cell_volume  67.46496305399356
_cell_formula_units_Z  2
loop_
  _symmetry_equiv_pos_site_id
 _symmetry_equiv_pos_as_xyz
 1  'x, y, z'
loop_
 _atom_site_type_symbol
 _atom_site_label
 _atom_site_symmetry_multiplicity
 _atom_site_fract_x
 _atom_site_fract_y
 _atom_site_fract_z
 _atom_site_fract_occupancy
 H  H1  1  0.80910  0.19090  0.27989  1
 H  H2  1  0.19090  0.80910  0.72011  1
 Li  Li1  1  0.31285  0.31285  0.50000  1
 Li  Li2  1  0.68715  0.68715  0.50000  1
 O  O1  1  0.70959  0.29041  0.44629  1
 O  O2  1  0.29041  0.70959  0.55371  1
 O  O3  1  0.17245  0.17245  -0.00000  1
 O  O4  1  0.82755  0.82755  -0.00000  1
