CIF file written using JARVIS-Tools package.
data_Co5BiO12
_symmetry_space_group_name_H-M  'C2/m'
_cell_length_a       5.09347
_cell_length_b       5.09329
_cell_length_c       8.70748
_cell_angle_alpha    84.4256
_cell_angle_beta     78.7982
_cell_angle_gamma    59.9988

_symmetry_Int_Tables_number  12
_chemical_formula_structural  Co5BiO12
_chemical_formula_sum  Co5BiO2
_cell_volume  191.90062996210614
_cell_formula_units_Z  1
loop_
  _symmetry_equiv_pos_site_id
 _symmetry_equiv_pos_as_xyz
 1  'x, y, z'
loop_
 _atom_site_type_symbol
 _atom_site_label
 _atom_site_symmetry_multiplicity
 _atom_site_fract_x
 _atom_site_fract_y
 _atom_site_fract_z
 _atom_site_fract_occupancy
 Bi  Bi1  1  0.00000  0.00000  0.00000  1
 Co  Co1  1  0.16657  0.66687  0.50000  1
 Co  Co2  1  0.66667  0.66666  0.00000  1
 Co  Co3  1  0.33333  0.33334  -0.00000  1
 Co  Co4  1  0.83343  0.33313  0.50000  1
 Co  Co5  1  0.50000  -0.00000  0.50000  1
 O  O1  1  0.96058  0.62170  0.11872  1
 O  O2  1  0.41772  0.62170  0.88128  1
 O  O3  1  0.66110  0.00000  0.88131  1
 O  O4  1  0.53272  0.66733  0.39948  1
 O  O5  1  0.20005  0.33267  0.39948  1
 O  O6  1  0.58228  0.37830  0.11872  1
 O  O7  1  0.79995  0.66733  0.60052  1
 O  O8  1  0.46728  0.33267  0.60052  1
 O  O9  1  0.33890  -0.00000  0.11869  1
 O  O10  1  0.03942  0.37830  0.88128  1
 O  O11  1  0.13092  -0.00000  0.60545  1
 O  O12  1  0.86908  0.00000  0.39455  1
