CIF file written using JARVIS-Tools package.
data_Na4SnO4
_symmetry_space_group_name_H-M  'P-1'
_cell_length_a       5.89991
_cell_length_b       5.91219
_cell_length_c       8.89351
_cell_angle_alpha    82.1838
_cell_angle_beta     71.0776
_cell_angle_gamma    68.608

_symmetry_Int_Tables_number  2
_chemical_formula_structural  Na4SnO4
_chemical_formula_sum  Na8Sn2O8
_cell_volume  273.1807816851427
_cell_formula_units_Z  2
loop_
  _symmetry_equiv_pos_site_id
 _symmetry_equiv_pos_as_xyz
 1  'x, y, z'
loop_
 _atom_site_type_symbol
 _atom_site_label
 _atom_site_symmetry_multiplicity
 _atom_site_fract_x
 _atom_site_fract_y
 _atom_site_fract_z
 _atom_site_fract_occupancy
 Na  Na1  1  0.25437  0.24413  0.00742  1
 Na  Na2  1  0.74563  0.75587  0.99258  1
 Na  Na3  1  0.02031  0.26419  0.43476  1
 Na  Na4  1  0.97969  0.73581  0.56524  1
 Na  Na5  1  0.43841  0.24852  0.59604  1
 Na  Na6  1  0.56159  0.75148  0.40396  1
 Na  Na7  1  0.11250  0.72137  0.19657  1
 Na  Na8  1  0.88750  0.27863  0.80343  1
 O  O1  1  0.67892  0.51930  0.62734  1
 O  O2  1  0.32108  0.48070  0.37266  1
 O  O3  1  0.20052  0.98674  0.61952  1
 O  O4  1  0.79948  0.01326  0.38048  1
 O  O5  1  0.64946  0.15945  0.04126  1
 O  O6  1  0.12305  0.51611  0.80461  1
 O  O7  1  0.35054  0.84055  0.95874  1
 O  O8  1  0.87695  0.48389  0.19539  1
 Sn  Sn1  1  0.34044  0.72155  0.76546  1
 Sn  Sn2  1  0.65956  0.27845  0.23454  1
