CIF file written using JARVIS-Tools package.
data_CuH4Cl2O2
_symmetry_space_group_name_H-M  'Pmna'
_cell_length_a       3.77732
_cell_length_b       7.34168
_cell_length_c       7.97885
_cell_angle_alpha    90
_cell_angle_beta     90
_cell_angle_gamma    90

_symmetry_Int_Tables_number  53
_chemical_formula_structural  CuH4Cl2O2
_chemical_formula_sum  Cu2H8Cl4O4
_cell_volume  221.26840014113412
_cell_formula_units_Z  2
loop_
  _symmetry_equiv_pos_site_id
 _symmetry_equiv_pos_as_xyz
 1  'x, y, z'
loop_
 _atom_site_type_symbol
 _atom_site_label
 _atom_site_symmetry_multiplicity
 _atom_site_fract_x
 _atom_site_fract_y
 _atom_site_fract_z
 _atom_site_fract_occupancy
 Cl  Cl1  1  0.61994  0.75258  0.00000  1
 Cl  Cl2  1  0.38006  0.25258  0.50000  1
 Cl  Cl3  1  0.38006  0.24742  0.00000  1
 Cl  Cl4  1  0.61994  0.74742  0.50000  1
 Cu  Cu1  1  0.00000  0.50000  0.50000  1
 Cu  Cu2  1  0.00000  0.00000  0.00000  1
 H  H1  1  0.86302  0.58569  0.18592  1
 H  H2  1  0.13698  0.08569  0.68592  1
 H  H3  1  0.86302  0.91431  0.31408  1
 H  H4  1  0.86302  0.58569  0.81408  1
 H  H5  1  0.13698  0.41431  0.18592  1
 H  H6  1  0.86302  0.91431  0.68592  1
 H  H7  1  0.13698  0.08569  0.31408  1
 H  H8  1  0.13698  0.41431  0.81408  1
 O  O1  1  0.00000  0.50000  0.25700  1
 O  O2  1  0.00000  0.50000  0.74300  1
 O  O3  1  0.00000  0.00000  0.75700  1
 O  O4  1  0.00000  0.00000  0.24300  1
