CIF file written using JARVIS-Tools package.
data_Y2Si2O7
_symmetry_space_group_name_H-M  'C2/m'
_cell_length_a       4.77024
_cell_length_b       5.6872
_cell_length_c       5.6872
_cell_angle_alpha    105.051
_cell_angle_beta     97.1453
_cell_angle_gamma    97.1454

_symmetry_Int_Tables_number  12
_chemical_formula_structural  Y2Si2O7
_chemical_formula_sum  Y2Si2O7
_cell_volume  145.85008177124345
_cell_formula_units_Z  1
loop_
  _symmetry_equiv_pos_site_id
 _symmetry_equiv_pos_as_xyz
 1  'x, y, z'
loop_
 _atom_site_type_symbol
 _atom_site_label
 _atom_site_symmetry_multiplicity
 _atom_site_fract_x
 _atom_site_fract_y
 _atom_site_fract_z
 _atom_site_fract_occupancy
 O  O1  1  0.77764  0.91359  0.61380  1
 O  O2  1  0.22236  0.38620  0.08641  1
 O  O3  1  0.22236  0.08641  0.38620  1
 O  O4  1  0.77764  0.61380  0.91359  1
 O  O5  1  0.50000  -0.00000  0.00000  1
 O  O6  1  0.28438  0.61892  0.61892  1
 O  O7  1  0.71562  0.38108  0.38108  1
 Si  Si1  1  0.41317  0.21876  0.21876  1
 Si  Si2  1  0.58683  0.78124  0.78124  1
 Y  Y1  1  0.00000  0.30620  0.69380  1
 Y  Y2  1  -0.00000  0.69380  0.30620  1
