CIF file written using JARVIS-Tools package.
data_RbCa2Ta3O10
_symmetry_space_group_name_H-M  'P4/mmm'
_cell_length_a       3.9283
_cell_length_b       3.9283
_cell_length_c       15.1638
_cell_angle_alpha    90
_cell_angle_beta     90
_cell_angle_gamma    90

_symmetry_Int_Tables_number  123
_chemical_formula_structural  RbCa2Ta3O10
_chemical_formula_sum  RbCa2Ta3O0
_cell_volume  234.00090613120696
_cell_formula_units_Z  1
loop_
  _symmetry_equiv_pos_site_id
 _symmetry_equiv_pos_as_xyz
 1  'x, y, z'
loop_
 _atom_site_type_symbol
 _atom_site_label
 _atom_site_symmetry_multiplicity
 _atom_site_fract_x
 _atom_site_fract_y
 _atom_site_fract_z
 _atom_site_fract_occupancy
 Ca  Ca1  1  0.50000  0.50000  0.84987  1
 Ca  Ca2  1  0.50000  0.50000  0.15013  1
 O  O1  1  0.00000  0.00000  0.59983  1
 O  O2  1  0.00000  0.00000  0.40017  1
 O  O3  1  0.50000  0.00000  0.74680  1
 O  O4  1  0.00000  0.50000  0.74680  1
 O  O5  1  0.50000  0.00000  0.25320  1
 O  O6  1  0.00000  0.50000  0.25320  1
 O  O7  1  0.00000  0.50000  0.00000  1
 O  O8  1  0.50000  0.00000  0.00000  1
 O  O9  1  0.00000  0.00000  0.12969  1
 O  O10  1  0.00000  0.00000  0.87031  1
 Rb  Rb1  1  0.50000  0.50000  0.50000  1
 Ta  Ta1  1  0.00000  0.00000  0.00000  1
 Ta  Ta2  1  0.00000  0.00000  0.28156  1
 Ta  Ta3  1  0.00000  0.00000  0.71844  1
