CIF file written using JARVIS-Tools package.
data_Tl2Sn2S5
_symmetry_space_group_name_H-M  'C2/c'
_cell_length_a       6.81826
_cell_length_b       6.81825
_cell_length_c       11.6642
_cell_angle_alpha    75.2062
_cell_angle_beta     75.2061
_cell_angle_gamma    69.2309

_symmetry_Int_Tables_number  15
_chemical_formula_structural  Tl2Sn2S5
_chemical_formula_sum  Tl4Sn4S0
_cell_volume  481.9929534526361
_cell_formula_units_Z  2
loop_
  _symmetry_equiv_pos_site_id
 _symmetry_equiv_pos_as_xyz
 1  'x, y, z'
loop_
 _atom_site_type_symbol
 _atom_site_label
 _atom_site_symmetry_multiplicity
 _atom_site_fract_x
 _atom_site_fract_y
 _atom_site_fract_z
 _atom_site_fract_occupancy
 S  S1  1  0.74378  0.64889  0.46000  1
 S  S2  1  0.32773  0.67227  0.25000  1
 S  S3  1  0.87626  0.15286  0.38278  1
 S  S4  1  0.84714  0.12374  0.11722  1
 S  S5  1  0.12374  0.84714  0.61722  1
 S  S6  1  0.15286  0.87626  0.88278  1
 S  S7  1  0.25622  0.35111  0.54000  1
 S  S8  1  0.67227  0.32773  0.75000  1
 S  S9  1  0.35111  0.25622  0.04000  1
 S  S10  1  0.64889  0.74378  0.96000  1
 Sn  Sn1  1  0.06487  0.74872  0.44069  1
 Sn  Sn2  1  0.25128  0.93513  0.05931  1
 Sn  Sn3  1  0.93513  0.25128  0.55931  1
 Sn  Sn4  1  0.74872  0.06487  0.94069  1
 Tl  Tl1  1  0.10754  0.45130  0.81686  1
 Tl  Tl2  1  0.89246  0.54870  0.18314  1
 Tl  Tl3  1  0.45130  0.10754  0.31686  1
 Tl  Tl4  1  0.54870  0.89246  0.68314  1
