CIF file written using JARVIS-Tools package.
data_HgSeO3
_symmetry_space_group_name_H-M  'Pnma'
_cell_length_a       6.08326
_cell_length_b       6.15898
_cell_length_c       8.32278
_cell_angle_alpha    90
_cell_angle_beta     90
_cell_angle_gamma    90

_symmetry_Int_Tables_number  62
_chemical_formula_structural  HgSeO3
_chemical_formula_sum  Hg4Se4O2
_cell_volume  311.82678416760155
_cell_formula_units_Z  4
loop_
  _symmetry_equiv_pos_site_id
 _symmetry_equiv_pos_as_xyz
 1  'x, y, z'
loop_
 _atom_site_type_symbol
 _atom_site_label
 _atom_site_symmetry_multiplicity
 _atom_site_fract_x
 _atom_site_fract_y
 _atom_site_fract_z
 _atom_site_fract_occupancy
 Hg  Hg1  1  0.00000  0.00000  0.50000  1
 Hg  Hg2  1  0.50000  0.50000  0.50000  1
 Hg  Hg3  1  0.50000  0.50000  0.00000  1
 Hg  Hg4  1  0.00000  0.00000  0.00000  1
 O  O1  1  0.62016  0.19887  0.41322  1
 O  O2  1  0.26158  0.64505  0.25000  1
 O  O3  1  0.87984  0.69887  0.08678  1
 O  O4  1  0.37984  0.80113  0.91322  1
 O  O5  1  0.12016  0.30113  0.58678  1
 O  O6  1  0.87984  0.69887  0.41322  1
 O  O7  1  0.12016  0.30113  0.91322  1
 O  O8  1  0.23842  0.14505  0.25000  1
 O  O9  1  0.37984  0.80113  0.58678  1
 O  O10  1  0.73842  0.35495  0.75000  1
 O  O11  1  0.62016  0.19887  0.08678  1
 O  O12  1  0.76158  0.85495  0.75000  1
 Se  Se1  1  0.50016  0.05643  0.25000  1
 Se  Se2  1  0.00016  0.44357  0.75000  1
 Se  Se3  1  -0.00016  0.55643  0.25000  1
 Se  Se4  1  0.49984  0.94357  0.75000  1
