CIF file written using JARVIS-Tools package.
data_CrCo2O6
_symmetry_space_group_name_H-M  'C2'
_cell_length_a       6.09828
_cell_length_b       2.87742
_cell_length_c       5.56416
_cell_angle_alpha    90.0024
_cell_angle_beta     101.377
_cell_angle_gamma    76.3529

_symmetry_Int_Tables_number  5
_chemical_formula_structural  CrCo2O6
_chemical_formula_sum  CrCo2O6
_cell_volume  92.90426418864078
_cell_formula_units_Z  1
loop_
  _symmetry_equiv_pos_site_id
 _symmetry_equiv_pos_as_xyz
 1  'x, y, z'
loop_
 _atom_site_type_symbol
 _atom_site_label
 _atom_site_symmetry_multiplicity
 _atom_site_fract_x
 _atom_site_fract_y
 _atom_site_fract_z
 _atom_site_fract_occupancy
 Co  Co1  1  0.00510  -0.02189  0.99875  1
 Co  Co2  1  0.66386  0.64872  0.67156  1
 Cr  Cr1  1  0.33448  0.44246  0.33517  1
 O  O1  1  0.03012  0.46101  0.22950  1
 O  O2  1  0.33167  0.83692  0.56980  1
 O  O3  1  0.68672  0.13668  0.89417  1
 O  O4  1  0.33729  0.83404  0.10052  1
 O  O5  1  0.63885  0.15662  0.44081  1
 O  O6  1  0.98224  0.48891  0.77615  1
