CIF file written using JARVIS-Tools package.
data_Nb2SnO6
_symmetry_space_group_name_H-M  'C2/c'
_cell_length_a       4.95795
_cell_length_b       5.657
_cell_length_c       9.00577
_cell_angle_alpha    91.1918
_cell_angle_beta     105.978
_cell_angle_gamma    90

_symmetry_Int_Tables_number  15
_chemical_formula_structural  Nb2SnO6
_chemical_formula_sum  Nb4Sn2O2
_cell_volume  242.77185820210101
_cell_formula_units_Z  2
loop_
  _symmetry_equiv_pos_site_id
 _symmetry_equiv_pos_as_xyz
 1  'x, y, z'
loop_
 _atom_site_type_symbol
 _atom_site_label
 _atom_site_symmetry_multiplicity
 _atom_site_fract_x
 _atom_site_fract_y
 _atom_site_fract_z
 _atom_site_fract_occupancy
 Nb  Nb1  1  0.92927  0.67554  0.33938  1
 Nb  Nb2  1  0.58989  0.82446  0.66062  1
 Nb  Nb3  1  0.07073  0.32446  0.66062  1
 Nb  Nb4  1  0.41011  0.17554  0.33938  1
 O  O1  1  0.15726  0.35194  0.43864  1
 O  O2  1  0.28139  0.85194  0.43864  1
 O  O3  1  0.84274  0.64806  0.56136  1
 O  O4  1  0.60138  0.42994  0.28381  1
 O  O5  1  0.31757  0.07006  0.71619  1
 O  O6  1  0.99162  0.59256  0.14450  1
 O  O7  1  0.15288  0.09256  0.14450  1
 O  O8  1  0.84712  0.90744  0.85550  1
 O  O9  1  0.68243  0.92994  0.28381  1
 O  O10  1  0.39862  0.57006  0.71619  1
 O  O11  1  0.71861  0.14806  0.56136  1
 O  O12  1  0.00838  0.40744  0.85550  1
 Sn  Sn1  1  0.76821  0.25000  -0.00000  1
 Sn  Sn2  1  0.23179  0.75000  0.00000  1
