CIF file written using JARVIS-Tools package.
data_K2P3
_symmetry_space_group_name_H-M  'Fmmm'
_cell_length_a       6.33629
_cell_length_b       6.3363
_cell_length_c       8.26803
_cell_angle_alpha    110.272
_cell_angle_beta     110.272
_cell_angle_gamma    95.497

_symmetry_Int_Tables_number  69
_chemical_formula_structural  K2P3
_chemical_formula_sum  K4P6
_cell_volume  283.1780253207316
_cell_formula_units_Z  2
loop_
  _symmetry_equiv_pos_site_id
 _symmetry_equiv_pos_as_xyz
 1  'x, y, z'
loop_
 _atom_site_type_symbol
 _atom_site_label
 _atom_site_symmetry_multiplicity
 _atom_site_fract_x
 _atom_site_fract_y
 _atom_site_fract_z
 _atom_site_fract_occupancy
 K  K1  1  0.75000  0.25000  0.50000  1
 K  K2  1  0.25000  0.75000  0.50000  1
 K  K3  1  0.72982  0.27018  -0.00000  1
 K  K4  1  0.27018  0.72982  0.00000  1
 P  P1  1  0.70146  0.70146  0.84592  1
 P  P2  1  0.85554  0.85554  0.15408  1
 P  P3  1  0.29854  0.29854  0.15408  1
 P  P4  1  0.14446  0.14446  0.84592  1
 P  P5  1  0.84502  0.84502  0.69004  1
 P  P6  1  0.15498  0.15498  0.30996  1
