CIF file written using JARVIS-Tools package.
data_Sb3ClO4
_symmetry_space_group_name_H-M  'P2/c'
_cell_length_a       5.64496
_cell_length_b       5.4459
_cell_length_c       9.49221
_cell_angle_alpha    90
_cell_angle_beta     93.5878
_cell_angle_gamma    90

_symmetry_Int_Tables_number  13
_chemical_formula_structural  Sb3ClO4
_chemical_formula_sum  Sb6Cl2O8
_cell_volume  291.2367239504171
_cell_formula_units_Z  2
loop_
  _symmetry_equiv_pos_site_id
 _symmetry_equiv_pos_as_xyz
 1  'x, y, z'
loop_
 _atom_site_type_symbol
 _atom_site_label
 _atom_site_symmetry_multiplicity
 _atom_site_fract_x
 _atom_site_fract_y
 _atom_site_fract_z
 _atom_site_fract_occupancy
 Cl  Cl1  1  0.75000  0.72931  -0.00000  1
 Cl  Cl2  1  0.25000  0.27069  0.00000  1
 O  O1  1  0.90211  0.08093  0.37880  1
 O  O2  1  0.59789  0.08093  0.62120  1
 O  O3  1  0.09789  0.91907  0.62120  1
 O  O4  1  0.40211  0.91907  0.37880  1
 O  O5  1  0.53099  0.46369  0.29979  1
 O  O6  1  0.46901  0.53631  0.70021  1
 O  O7  1  0.96901  0.46369  0.70021  1
 O  O8  1  0.03099  0.53631  0.29979  1
 Sb  Sb1  1  0.29673  0.70253  0.20603  1
 Sb  Sb2  1  0.75000  0.81176  0.50000  1
 Sb  Sb3  1  0.25000  0.18824  0.50000  1
 Sb  Sb4  1  0.20327  0.70253  0.79397  1
 Sb  Sb5  1  0.70327  0.29747  0.79397  1
 Sb  Sb6  1  0.79673  0.29747  0.20603  1
