CIF file written using JARVIS-Tools package.
data_CoAs2
_symmetry_space_group_name_H-M  'P2_1/c'
_cell_length_a       5.95868
_cell_length_b       5.90659
_cell_length_c       6.00822
_cell_angle_alpha    90
_cell_angle_beta     115.836
_cell_angle_gamma    90

_symmetry_Int_Tables_number  14
_chemical_formula_structural  CoAs2
_chemical_formula_sum  Co4As8
_cell_volume  190.3261942214714
_cell_formula_units_Z  4
loop_
  _symmetry_equiv_pos_site_id
 _symmetry_equiv_pos_as_xyz
 1  'x, y, z'
loop_
 _atom_site_type_symbol
 _atom_site_label
 _atom_site_symmetry_multiplicity
 _atom_site_fract_x
 _atom_site_fract_y
 _atom_site_fract_z
 _atom_site_fract_occupancy
 As  As1  1  0.34308  0.63556  0.17317  1
 As  As2  1  0.65692  0.13556  0.32683  1
 As  As3  1  0.65692  0.36444  0.82683  1
 As  As4  1  0.34308  0.86444  0.67317  1
 As  As5  1  0.15311  0.36604  0.36654  1
 As  As6  1  0.84689  0.86604  0.13346  1
 As  As7  1  0.84689  0.63396  0.63346  1
 As  As8  1  0.15311  0.13396  0.86654  1
 Co  Co1  1  0.27113  0.99931  0.28404  1
 Co  Co2  1  0.72887  0.49931  0.21596  1
 Co  Co3  1  0.72887  0.00069  0.71596  1
 Co  Co4  1  0.27113  0.50069  0.78404  1
