CIF file written using JARVIS-Tools package.
data_CaCo2O4
_symmetry_space_group_name_H-M  'Pnma'
_cell_length_a       2.93715
_cell_length_b       8.78763
_cell_length_c       10.3155
_cell_angle_alpha    90
_cell_angle_beta     90
_cell_angle_gamma    90

_symmetry_Int_Tables_number  62
_chemical_formula_structural  CaCo2O4
_chemical_formula_sum  Ca4Co8O6
_cell_volume  266.250772576208
_cell_formula_units_Z  4
loop_
  _symmetry_equiv_pos_site_id
 _symmetry_equiv_pos_as_xyz
 1  'x, y, z'
loop_
 _atom_site_type_symbol
 _atom_site_label
 _atom_site_symmetry_multiplicity
 _atom_site_fract_x
 _atom_site_fract_y
 _atom_site_fract_z
 _atom_site_fract_occupancy
 Ca  Ca1  1  0.00000  0.51180  0.66328  1
 Ca  Ca2  1  0.50000  0.98820  0.33672  1
 Ca  Ca3  1  0.00000  0.01180  0.83672  1
 Ca  Ca4  1  0.50000  0.48820  0.16328  1
 Co  Co1  1  0.50000  0.30677  0.38790  1
 Co  Co2  1  0.00000  0.69323  0.88790  1
 Co  Co3  1  0.00000  0.19323  0.61210  1
 Co  Co4  1  0.50000  0.80677  0.11210  1
 Co  Co5  1  0.00000  0.66418  0.40208  1
 Co  Co6  1  0.00000  0.16418  0.09792  1
 Co  Co7  1  0.50000  0.33582  0.90208  1
 Co  Co8  1  0.50000  0.83582  0.59792  1
 O  O1  1  0.50000  0.13550  0.97695  1
 O  O2  1  0.00000  0.44749  0.34350  1
 O  O3  1  0.00000  0.16983  0.42792  1
 O  O4  1  0.00000  0.94749  0.15650  1
 O  O5  1  0.50000  0.55251  0.84350  1
 O  O6  1  0.00000  0.36450  0.02306  1
 O  O7  1  0.50000  0.05251  0.65650  1
 O  O8  1  0.50000  0.83017  0.92792  1
 O  O9  1  0.50000  0.21650  0.21211  1
 O  O10  1  0.00000  0.78350  0.71211  1
 O  O11  1  0.50000  0.71649  0.28789  1
 O  O12  1  0.00000  0.66983  0.07207  1
 O  O13  1  0.00000  0.86450  0.47695  1
 O  O14  1  0.00000  0.28351  0.78789  1
 O  O15  1  0.50000  0.63550  0.52306  1
 O  O16  1  0.50000  0.33017  0.57207  1
