CIF file written using JARVIS-Tools package.
data_RbNa2BO3
_symmetry_space_group_name_H-M  'Pmmn'
_cell_length_a       5.56075
_cell_length_b       5.69535
_cell_length_c       6.10615
_cell_angle_alpha    90
_cell_angle_beta     90
_cell_angle_gamma    90

_symmetry_Int_Tables_number  59
_chemical_formula_structural  RbNa2BO3
_chemical_formula_sum  Rb2Na4B2O6
_cell_volume  193.38436406178076
_cell_formula_units_Z  2
loop_
  _symmetry_equiv_pos_site_id
 _symmetry_equiv_pos_as_xyz
 1  'x, y, z'
loop_
 _atom_site_type_symbol
 _atom_site_label
 _atom_site_symmetry_multiplicity
 _atom_site_fract_x
 _atom_site_fract_y
 _atom_site_fract_z
 _atom_site_fract_occupancy
 B  B1  1  0.78683  0.50000  0.50000  1
 B  B2  1  0.21317  0.00000  0.00000  1
 Na  Na1  1  0.36464  0.50000  0.26841  1
 Na  Na2  1  0.36464  0.50000  0.73159  1
 Na  Na3  1  0.63536  0.00000  0.23159  1
 Na  Na4  1  0.63536  0.00000  0.76841  1
 O  O1  1  0.65509  0.28968  0.50000  1
 O  O2  1  0.34491  0.21032  0.00000  1
 O  O3  1  0.03599  0.50000  0.50000  1
 O  O4  1  0.96401  0.00000  0.00000  1
 O  O5  1  0.34491  0.78968  0.00000  1
 O  O6  1  0.65509  0.71032  0.50000  1
 Rb  Rb1  1  0.88704  0.50000  0.00000  1
 Rb  Rb2  1  0.11296  0.00000  0.50000  1
