CIF file written using JARVIS-Tools package.
data_Ca5P8
_symmetry_space_group_name_H-M  'C2/m'
_cell_length_a       6.87627
_cell_length_b       6.87627
_cell_length_c       7.48932
_cell_angle_alpha    98.9548
_cell_angle_beta     98.9549
_cell_angle_gamma    119.717

_symmetry_Int_Tables_number  12
_chemical_formula_structural  Ca5P8
_chemical_formula_sum  Ca5P8
_cell_volume  292.39594866030376
_cell_formula_units_Z  1
loop_
  _symmetry_equiv_pos_site_id
 _symmetry_equiv_pos_as_xyz
 1  'x, y, z'
loop_
 _atom_site_type_symbol
 _atom_site_label
 _atom_site_symmetry_multiplicity
 _atom_site_fract_x
 _atom_site_fract_y
 _atom_site_fract_z
 _atom_site_fract_occupancy
 Ca  Ca1  1  0.50000  0.50000  0.50000  1
 Ca  Ca2  1  0.82445  0.17555  0.50000  1
 Ca  Ca3  1  0.17555  0.82445  0.50000  1
 Ca  Ca4  1  0.33467  0.66533  0.00000  1
 Ca  Ca5  1  0.66533  0.33467  -0.00000  1
 P  P1  1  0.22486  0.22486  0.75581  1
 P  P2  1  0.77514  0.77514  0.24419  1
 P  P3  1  0.61219  0.92074  0.75922  1
 P  P4  1  0.07926  0.38781  0.24078  1
 P  P5  1  0.38781  0.07926  0.24078  1
 P  P6  1  0.92074  0.61219  0.75922  1
 P  P7  1  0.94712  0.94712  0.83527  1
 P  P8  1  0.05288  0.05288  0.16473  1
