CIF file written using JARVIS-Tools package.
data_CrH6SO7
_symmetry_space_group_name_H-M  'Cc'
_cell_length_a       7.22986
_cell_length_b       7.22986
_cell_length_c       7.46194
_cell_angle_alpha    87.7905
_cell_angle_beta     92.2095
_cell_angle_gamma    45.6112

_symmetry_Int_Tables_number  9
_chemical_formula_structural  CrH6SO7
_chemical_formula_sum  Cr2H2S2O4
_cell_volume  277.34599953003095
_cell_formula_units_Z  2
loop_
  _symmetry_equiv_pos_site_id
 _symmetry_equiv_pos_as_xyz
 1  'x, y, z'
loop_
 _atom_site_type_symbol
 _atom_site_label
 _atom_site_symmetry_multiplicity
 _atom_site_fract_x
 _atom_site_fract_y
 _atom_site_fract_z
 _atom_site_fract_occupancy
 Cr  Cr1  1  0.86525  0.86371  0.50411  1
 Cr  Cr2  1  0.13629  0.13475  0.00411  1
 H  H1  1  0.58474  0.36320  0.52158  1
 H  H2  1  0.63680  0.41526  0.02158  1
 H  H3  1  0.55501  0.28131  0.71429  1
 H  H4  1  0.28815  0.38034  0.47472  1
 H  H5  1  0.61966  0.71185  0.97472  1
 H  H6  1  0.71869  0.44499  0.21429  1
 H  H7  1  0.50769  0.87731  0.77916  1
 H  H8  1  0.56525  0.04033  0.20811  1
 H  H9  1  0.95967  0.43475  0.70811  1
 H  H10  1  0.81352  0.98048  0.14589  1
 H  H11  1  0.01952  0.18648  0.64589  1
 H  H12  1  0.12269  0.49231  0.27916  1
 O  O1  1  0.52153  0.87442  0.55596  1
 O  O2  1  0.49445  0.89071  0.91208  1
 O  O3  1  0.10929  0.50555  0.41208  1
 O  O4  1  0.96500  0.29876  0.74690  1
 O  O5  1  0.70124  0.03500  0.24690  1
 O  O6  1  0.12558  0.47847  0.05596  1
 O  O7  1  0.03221  0.87029  0.99006  1
 O  O8  1  0.76756  0.40729  0.08738  1
 O  O9  1  0.00326  0.66587  0.75133  1
 O  O10  1  0.33413  0.99674  0.25133  1
 O  O11  1  0.42323  0.45958  0.89187  1
 O  O12  1  0.54042  0.57677  0.39187  1
 O  O13  1  0.59271  0.23244  0.58738  1
 O  O14  1  0.12971  0.96779  0.49006  1
 S  S1  1  0.37990  0.85255  0.42504  1
 S  S2  1  0.14745  0.62010  0.92504  1
