CIF file written using JARVIS-Tools package.
data_Te6Mo3WS2
_symmetry_space_group_name_H-M  'P3m1'
_cell_length_a       3.46696
_cell_length_b       3.46698
_cell_length_c       39.2255
_cell_angle_alpha    89.9961
_cell_angle_beta     90
_cell_angle_gamma    120

_symmetry_Int_Tables_number  156
_chemical_formula_structural  Te6Mo3WS2
_chemical_formula_sum  Te6Mo3WS2
_cell_volume  408.31937985452004
_cell_formula_units_Z  1
loop_
  _symmetry_equiv_pos_site_id
 _symmetry_equiv_pos_as_xyz
 1  'x, y, z'
loop_
 _atom_site_type_symbol
 _atom_site_label
 _atom_site_symmetry_multiplicity
 _atom_site_fract_x
 _atom_site_fract_y
 _atom_site_fract_z
 _atom_site_fract_occupancy
 Mo  Mo1  1  0.33326  0.66652  0.09405  1
 Mo  Mo2  1  0.33322  0.66644  0.46957  1
 Mo  Mo3  1  0.66675  0.33349  0.65781  1
 S  S1  1  0.66668  0.33335  0.05612  1
 S  S2  1  0.66651  0.33302  0.13202  1
 Te  Te1  1  0.33340  0.66680  0.32894  1
 Te  Te2  1  0.33338  0.66675  0.70491  1
 Te  Te3  1  0.66651  0.33302  0.42241  1
 Te  Te4  1  0.66660  0.33319  0.51673  1
 Te  Te5  1  0.33347  0.66694  0.23405  1
 Te  Te6  1  0.33346  0.66692  0.61061  1
 W  W1  1  0.66677  0.33354  0.28152  1
