CIF file written using JARVIS-Tools package.
data_CdSeO3
_symmetry_space_group_name_H-M  'Pnma'
_cell_length_a       5.37909
_cell_length_b       6.32149
_cell_length_c       8.18032
_cell_angle_alpha    90
_cell_angle_beta     90
_cell_angle_gamma    90

_symmetry_Int_Tables_number  62
_chemical_formula_structural  CdSeO3
_chemical_formula_sum  Cd4Se4O2
_cell_volume  278.1629026334503
_cell_formula_units_Z  4
loop_
  _symmetry_equiv_pos_site_id
 _symmetry_equiv_pos_as_xyz
 1  'x, y, z'
loop_
 _atom_site_type_symbol
 _atom_site_label
 _atom_site_symmetry_multiplicity
 _atom_site_fract_x
 _atom_site_fract_y
 _atom_site_fract_z
 _atom_site_fract_occupancy
 Cd  Cd1  1  0.00000  0.00000  0.50000  1
 Cd  Cd2  1  0.50000  0.50000  0.50000  1
 Cd  Cd3  1  0.50000  0.50000  0.00000  1
 Cd  Cd4  1  0.00000  0.00000  0.00000  1
 O  O1  1  0.63352  0.17333  0.41323  1
 O  O2  1  0.29657  0.59322  0.25000  1
 O  O3  1  0.86648  0.67333  0.08677  1
 O  O4  1  0.36648  0.82667  0.91323  1
 O  O5  1  0.13352  0.32667  0.58677  1
 O  O6  1  0.86648  0.67333  0.41323  1
 O  O7  1  0.13352  0.32667  0.91323  1
 O  O8  1  0.20343  0.09322  0.25000  1
 O  O9  1  0.36648  0.82667  0.58677  1
 O  O10  1  0.70343  0.40678  0.75000  1
 O  O11  1  0.63352  0.17333  0.08677  1
 O  O12  1  0.79657  0.90678  0.75000  1
 Se  Se1  1  0.51584  0.02494  0.25000  1
 Se  Se2  1  0.01584  0.47506  0.75000  1
 Se  Se3  1  0.98416  0.52494  0.25000  1
 Se  Se4  1  0.48416  0.97506  0.75000  1
