CIF file written using JARVIS-Tools package.
data_TiSi2O6
_symmetry_space_group_name_H-M  'C2/c'
_cell_length_a       6.54034
_cell_length_b       6.54034
_cell_length_c       5.35451
_cell_angle_alpha    75.3386
_cell_angle_beta     104.661
_cell_angle_gamma    95.6024

_symmetry_Int_Tables_number  15
_chemical_formula_structural  TiSi2O6
_chemical_formula_sum  Ti2Si4O2
_cell_volume  214.23368493601586
_cell_formula_units_Z  2
loop_
  _symmetry_equiv_pos_site_id
 _symmetry_equiv_pos_as_xyz
 1  'x, y, z'
loop_
 _atom_site_type_symbol
 _atom_site_label
 _atom_site_symmetry_multiplicity
 _atom_site_fract_x
 _atom_site_fract_y
 _atom_site_fract_z
 _atom_site_fract_occupancy
 O  O1  1  0.89874  0.61913  0.22207  1
 O  O2  1  0.18663  0.95421  0.13461  1
 O  O3  1  0.10126  0.38087  0.77793  1
 O  O4  1  0.36656  0.64985  0.54687  1
 O  O5  1  0.61913  0.89874  0.27793  1
 O  O6  1  0.35015  0.63344  0.04687  1
 O  O7  1  0.64985  0.36656  0.95313  1
 O  O8  1  0.04579  0.81337  0.63461  1
 O  O9  1  0.63344  0.35015  0.45313  1
 O  O10  1  0.81337  0.04579  0.86539  1
 O  O11  1  0.95421  0.18663  0.36539  1
 O  O12  1  0.38087  0.10126  0.72207  1
 Si  Si1  1  0.21431  0.61739  0.75320  1
 Si  Si2  1  0.38261  0.78569  0.25320  1
 Si  Si3  1  0.61739  0.21431  0.74680  1
 Si  Si4  1  0.78569  0.38261  0.24680  1
 Ti  Ti1  1  0.10688  0.10688  0.75000  1
 Ti  Ti2  1  0.89312  0.89312  0.25000  1
