CIF file written using JARVIS-Tools package.
data_K2ZrB2O6
_symmetry_space_group_name_H-M  'R-3m'
_cell_length_a       6.54749
_cell_length_b       6.54749
_cell_length_c       6.54749
_cell_angle_alpha    48.0492
_cell_angle_beta     48.0492
_cell_angle_gamma    48.0491

_symmetry_Int_Tables_number  166
_chemical_formula_structural  K2ZrB2O6
_chemical_formula_sum  K2ZrB2O6
_cell_volume  142.24761475066114
_cell_formula_units_Z  1
loop_
  _symmetry_equiv_pos_site_id
 _symmetry_equiv_pos_as_xyz
 1  'x, y, z'
loop_
 _atom_site_type_symbol
 _atom_site_label
 _atom_site_symmetry_multiplicity
 _atom_site_fract_x
 _atom_site_fract_y
 _atom_site_fract_z
 _atom_site_fract_occupancy
 B  B1  1  0.59511  0.59511  0.59511  1
 B  B2  1  0.40489  0.40489  0.40489  1
 K  K1  1  0.78977  0.78977  0.78977  1
 K  K2  1  0.21023  0.21023  0.21023  1
 O  O1  1  0.74474  0.29503  0.74474  1
 O  O2  1  0.25526  0.25526  0.70497  1
 O  O3  1  0.70497  0.25526  0.25526  1
 O  O4  1  0.25526  0.70497  0.25526  1
 O  O5  1  0.74474  0.74474  0.29503  1
 O  O6  1  0.29503  0.74474  0.74474  1
 Zr  Zr1  1  0.00000  0.00000  0.00000  1
