CIF file written using JARVIS-Tools package.
data_LiVP2O7
_symmetry_space_group_name_H-M  'P2_1'
_cell_length_a       4.84956
_cell_length_b       8.12811
_cell_length_c       7.01907
_cell_angle_alpha    90
_cell_angle_beta     109.29
_cell_angle_gamma    90

_symmetry_Int_Tables_number  4
_chemical_formula_structural  LiVP2O7
_chemical_formula_sum  Li2V2P4O4
_cell_volume  261.14359092577007
_cell_formula_units_Z  2
loop_
  _symmetry_equiv_pos_site_id
 _symmetry_equiv_pos_as_xyz
 1  'x, y, z'
loop_
 _atom_site_type_symbol
 _atom_site_label
 _atom_site_symmetry_multiplicity
 _atom_site_fract_x
 _atom_site_fract_y
 _atom_site_fract_z
 _atom_site_fract_occupancy
 Li  Li1  1  0.82679  0.64027  0.33134  1
 Li  Li2  1  0.17321  0.14027  0.66866  1
 O  O1  1  0.19028  0.96592  0.48196  1
 O  O2  1  0.39801  0.34896  0.24295  1
 O  O3  1  0.12805  0.30180  0.87895  1
 O  O4  1  0.60753  0.56164  0.91474  1
 O  O5  1  0.80972  0.46592  0.51804  1
 O  O6  1  0.39247  0.06164  0.08526  1
 O  O7  1  0.39164  0.32162  0.60177  1
 O  O8  1  0.60836  0.82162  0.39823  1
 O  O9  1  0.06021  0.67547  0.85717  1
 O  O10  1  0.87195  0.80180  0.12105  1
 O  O11  1  0.24909  0.65596  0.51008  1
 O  O12  1  0.75091  0.15596  0.48992  1
 O  O13  1  0.60199  0.84896  0.75705  1
 O  O14  1  0.93979  0.17547  0.14283  1
 P  P1  1  0.20600  0.21458  0.08197  1
 P  P2  1  0.79400  0.71458  0.91803  1
 P  P3  1  0.40459  0.82161  0.52462  1
 P  P4  1  0.59541  0.32161  0.47538  1
 V  V1  1  0.21590  0.50027  0.72896  1
 V  V2  1  0.78410  0.00027  0.27104  1
