CIF file written using JARVIS-Tools package.
data_Ca3Ti2O7
_symmetry_space_group_name_H-M  'Cmc2_1'
_cell_length_a       5.49349
_cell_length_b       5.43335
_cell_length_c       10.1047
_cell_angle_alpha    105.596
_cell_angle_beta     90
_cell_angle_gamma    90

_symmetry_Int_Tables_number  36
_chemical_formula_structural  Ca3Ti2O7
_chemical_formula_sum  Ca6Ti4O4
_cell_volume  290.50116220872235
_cell_formula_units_Z  2
loop_
  _symmetry_equiv_pos_site_id
 _symmetry_equiv_pos_as_xyz
 1  'x, y, z'
loop_
 _atom_site_type_symbol
 _atom_site_label
 _atom_site_symmetry_multiplicity
 _atom_site_fract_x
 _atom_site_fract_y
 _atom_site_fract_z
 _atom_site_fract_occupancy
 Ca  Ca1  1  0.71018  0.75457  0.00000  1
 Ca  Ca2  1  0.21018  0.24543  0.00000  1
 Ca  Ca3  1  0.79213  0.57000  0.62454  1
 Ca  Ca4  1  0.29213  0.43000  0.37546  1
 Ca  Ca5  1  0.79213  0.94546  0.37546  1
 Ca  Ca6  1  0.29213  0.05454  0.62454  1
 O  O1  1  0.72792  0.98527  0.60417  1
 O  O2  1  0.95626  0.04322  0.16720  1
 O  O3  1  0.22792  0.61891  0.60417  1
 O  O4  1  0.72792  0.38109  0.39583  1
 O  O5  1  0.03832  0.34582  0.77427  1
 O  O6  1  0.22792  0.01473  0.39583  1
 O  O7  1  0.53832  0.42846  0.77427  1
 O  O8  1  0.03832  0.57154  0.22573  1
 O  O9  1  0.76586  0.32464  0.00000  1
 O  O10  1  0.45626  0.12398  0.16720  1
 O  O11  1  0.53832  0.65418  0.22573  1
 O  O12  1  0.26586  0.67536  -0.00000  1
 O  O13  1  0.95626  0.87602  0.83280  1
 O  O14  1  0.45626  0.95678  0.83280  1
 Ti  Ti1  1  0.75735  0.14992  0.80058  1
 Ti  Ti2  1  0.25735  0.85008  0.19942  1
 Ti  Ti3  1  0.25735  0.65065  0.80058  1
 Ti  Ti4  1  0.75735  0.34935  0.19942  1
