CIF file written using JARVIS-Tools package.
data_BaCdO2
_symmetry_space_group_name_H-M  'Pnma'
_cell_length_a       3.69701
_cell_length_b       6.2222
_cell_length_c       12.11
_cell_angle_alpha    90
_cell_angle_beta     90
_cell_angle_gamma    90

_symmetry_Int_Tables_number  62
_chemical_formula_structural  BaCdO2
_chemical_formula_sum  Ba4Cd4O8
_cell_volume  278.5729425999975
_cell_formula_units_Z  4
loop_
  _symmetry_equiv_pos_site_id
 _symmetry_equiv_pos_as_xyz
 1  'x, y, z'
loop_
 _atom_site_type_symbol
 _atom_site_label
 _atom_site_symmetry_multiplicity
 _atom_site_fract_x
 _atom_site_fract_y
 _atom_site_fract_z
 _atom_site_fract_occupancy
 Ba  Ba1  1  0.25000  0.39481  0.64253  1
 Ba  Ba2  1  0.75000  0.60519  0.35747  1
 Ba  Ba3  1  0.25000  0.89481  0.85747  1
 Ba  Ba4  1  0.75000  0.10519  0.14253  1
 Cd  Cd1  1  0.75000  0.90439  0.60678  1
 Cd  Cd2  1  0.75000  0.40439  0.89322  1
 Cd  Cd3  1  0.25000  0.09561  0.39322  1
 Cd  Cd4  1  0.25000  0.59561  0.10678  1
 O  O1  1  0.25000  0.27686  0.98221  1
 O  O2  1  0.75000  0.72314  0.01779  1
 O  O3  1  0.25000  0.77686  0.51779  1
 O  O4  1  0.75000  0.22314  0.48221  1
 O  O5  1  0.25000  0.85892  0.25175  1
 O  O6  1  0.75000  0.64108  0.75175  1
 O  O7  1  0.25000  0.35892  0.24825  1
 O  O8  1  0.75000  0.14108  0.74825  1
