CIF file written using JARVIS-Tools package.
data_CuSb2O6
_symmetry_space_group_name_H-M  'P4_2/mnm'
_cell_length_a       4.71193
_cell_length_b       4.71123
_cell_length_c       10.5421
_cell_angle_alpha    90
_cell_angle_beta     116.552
_cell_angle_gamma    90

_symmetry_Int_Tables_number  136
_chemical_formula_structural  CuSb2O6
_chemical_formula_sum  Cu2Sb4O2
_cell_volume  209.34164437895254
_cell_formula_units_Z  2
loop_
  _symmetry_equiv_pos_site_id
 _symmetry_equiv_pos_as_xyz
 1  'x, y, z'
loop_
 _atom_site_type_symbol
 _atom_site_label
 _atom_site_symmetry_multiplicity
 _atom_site_fract_x
 _atom_site_fract_y
 _atom_site_fract_z
 _atom_site_fract_occupancy
 Cu  Cu1  1  0.00000  0.00000  0.00000  1
 Cu  Cu2  1  0.00000  0.50000  0.50000  1
 O  O1  1  0.36797  0.80279  0.17108  1
 O  O2  1  0.63203  0.30279  0.32892  1
 O  O3  1  0.97419  0.30276  0.67109  1
 O  O4  1  0.36797  0.69721  0.67108  1
 O  O5  1  0.63203  0.19721  0.82892  1
 O  O6  1  0.02581  0.69724  0.32891  1
 O  O7  1  0.30858  0.30833  0.00000  1
 O  O8  1  0.69142  0.80833  0.50000  1
 O  O9  1  0.69142  0.69167  -0.00000  1
 O  O10  1  0.30858  0.19167  0.50000  1
 O  O11  1  0.97419  0.19724  0.17109  1
 O  O12  1  0.02581  0.80276  0.82891  1
 Sb  Sb1  1  0.66756  0.50002  0.16756  1
 Sb  Sb2  1  0.33244  0.00002  0.33244  1
 Sb  Sb3  1  0.66756  -0.00002  0.66756  1
 Sb  Sb4  1  0.33244  0.49998  0.83244  1
