CIF file written using JARVIS-Tools package.
data_TcO3F
_symmetry_space_group_name_H-M  'P2_1/c'
_cell_length_a       5.08529
_cell_length_b       5.73427
_cell_length_c       9.31058
_cell_angle_alpha    93.8303
_cell_angle_beta     90
_cell_angle_gamma    90

_symmetry_Int_Tables_number  14
_chemical_formula_structural  TcO3F
_chemical_formula_sum  Tc4O2F4
_cell_volume  270.89392286007666
_cell_formula_units_Z  4
loop_
  _symmetry_equiv_pos_site_id
 _symmetry_equiv_pos_as_xyz
 1  'x, y, z'
loop_
 _atom_site_type_symbol
 _atom_site_label
 _atom_site_symmetry_multiplicity
 _atom_site_fract_x
 _atom_site_fract_y
 _atom_site_fract_z
 _atom_site_fract_occupancy
 F  F1  1  0.86260  0.65963  0.54372  1
 F  F2  1  0.36260  0.34037  0.95628  1
 F  F3  1  0.63740  0.65963  0.04372  1
 F  F4  1  0.13740  0.34037  0.45628  1
 O  O1  1  0.15932  0.78907  0.95304  1
 O  O2  1  0.72541  0.46053  0.29175  1
 O  O3  1  0.27459  0.53947  0.70825  1
 O  O4  1  0.57883  0.90746  0.80370  1
 O  O5  1  0.34068  0.78907  0.45304  1
 O  O6  1  0.22541  0.53947  0.20825  1
 O  O7  1  0.84068  0.21093  0.04696  1
 O  O8  1  0.65932  0.21093  0.54696  1
 O  O9  1  0.92117  0.90746  0.30370  1
 O  O10  1  0.77459  0.46053  0.79175  1
 O  O11  1  0.07883  0.09254  0.69630  1
 O  O12  1  0.42117  0.09254  0.19630  1
 Tc  Tc1  1  0.58244  0.32406  0.13915  1
 Tc  Tc2  1  0.41756  0.67594  0.86085  1
 Tc  Tc3  1  0.91756  0.32406  0.63915  1
 Tc  Tc4  1  0.08244  0.67594  0.36085  1
