CIF file written using JARVIS-Tools package.
data_Hf5CuPb3
_symmetry_space_group_name_H-M  'P6_3/mcm'
_cell_length_a       8.68572
_cell_length_b       8.68572
_cell_length_c       5.86346
_cell_angle_alpha    90
_cell_angle_beta     90
_cell_angle_gamma    120

_symmetry_Int_Tables_number  193
_chemical_formula_structural  Hf5CuPb3
_chemical_formula_sum  Hf0Cu2Pb6
_cell_volume  383.08521554043404
_cell_formula_units_Z  2
loop_
  _symmetry_equiv_pos_site_id
 _symmetry_equiv_pos_as_xyz
 1  'x, y, z'
loop_
 _atom_site_type_symbol
 _atom_site_label
 _atom_site_symmetry_multiplicity
 _atom_site_fract_x
 _atom_site_fract_y
 _atom_site_fract_z
 _atom_site_fract_occupancy
 Cu  Cu1  1  0.00000  0.00000  0.50000  1
 Cu  Cu2  1  0.00000  0.00000  0.00000  1
 Hf  Hf1  1  0.66667  0.33333  0.00000  1
 Hf  Hf2  1  0.33333  0.66667  0.50000  1
 Hf  Hf3  1  0.74156  0.00000  0.75000  1
 Hf  Hf4  1  0.25844  0.25844  0.75000  1
 Hf  Hf5  1  -0.00000  0.25844  0.25000  1
 Hf  Hf6  1  0.33333  0.66667  0.00000  1
 Hf  Hf7  1  0.00000  0.74156  0.75000  1
 Hf  Hf8  1  0.66667  0.33333  0.50000  1
 Hf  Hf9  1  0.25844  -0.00000  0.25000  1
 Hf  Hf10  1  0.74156  0.74156  0.25000  1
 Pb  Pb1  1  0.38675  0.38675  0.25000  1
 Pb  Pb2  1  0.00000  0.38675  0.75000  1
 Pb  Pb3  1  0.61325  0.61325  0.75000  1
 Pb  Pb4  1  0.38675  0.00000  0.75000  1
 Pb  Pb5  1  -0.00000  0.61325  0.25000  1
 Pb  Pb6  1  0.61325  -0.00000  0.25000  1
