CIF file written using JARVIS-Tools package.
data_TlBS3
_symmetry_space_group_name_H-M  'P2_1/c'
_cell_length_a       5.79378
_cell_length_b       11.824
_cell_length_c       6.88781
_cell_angle_alpha    90
_cell_angle_beta     113.556
_cell_angle_gamma    90

_symmetry_Int_Tables_number  14
_chemical_formula_structural  TlBS3
_chemical_formula_sum  Tl4B4S2
_cell_volume  432.53521135502706
_cell_formula_units_Z  4
loop_
  _symmetry_equiv_pos_site_id
 _symmetry_equiv_pos_as_xyz
 1  'x, y, z'
loop_
 _atom_site_type_symbol
 _atom_site_label
 _atom_site_symmetry_multiplicity
 _atom_site_fract_x
 _atom_site_fract_y
 _atom_site_fract_z
 _atom_site_fract_occupancy
 B  B1  1  0.36303  0.77084  0.30199  1
 B  B2  1  0.13697  0.27084  0.69801  1
 B  B3  1  0.63697  0.22916  0.69801  1
 B  B4  1  0.86303  0.72916  0.30199  1
 S  S1  1  0.70878  0.80450  0.46919  1
 S  S2  1  0.83269  0.81800  0.05361  1
 S  S3  1  0.29122  0.19550  0.53081  1
 S  S4  1  0.16731  0.18200  0.94639  1
 S  S5  1  0.33269  0.68200  0.05361  1
 S  S6  1  0.66731  0.31800  0.94639  1
 S  S7  1  0.82569  0.09388  0.80776  1
 S  S8  1  0.20878  0.69550  0.46919  1
 S  S9  1  0.17431  0.90612  0.19224  1
 S  S10  1  0.67431  0.59388  0.19224  1
 S  S11  1  0.79122  0.30450  0.53081  1
 S  S12  1  0.32569  0.40612  0.80776  1
 Tl  Tl1  1  0.77978  0.58169  0.74575  1
 Tl  Tl2  1  0.72022  0.08169  0.25425  1
 Tl  Tl3  1  0.22022  0.41831  0.25425  1
 Tl  Tl4  1  0.27978  0.91831  0.74575  1
