CIF file written using JARVIS-Tools package.
data_MnCoO4
_symmetry_space_group_name_H-M  'P2/m'
_cell_length_a       4.68866
_cell_length_b       2.82458
_cell_length_c       4.89992
_cell_angle_alpha    90
_cell_angle_beta     69.8073
_cell_angle_gamma    90

_symmetry_Int_Tables_number  10
_chemical_formula_structural  MnCoO4
_chemical_formula_sum  MnCoO4
_cell_volume  60.90362196157186
_cell_formula_units_Z  1
loop_
  _symmetry_equiv_pos_site_id
 _symmetry_equiv_pos_as_xyz
 1  'x, y, z'
loop_
 _atom_site_type_symbol
 _atom_site_label
 _atom_site_symmetry_multiplicity
 _atom_site_fract_x
 _atom_site_fract_y
 _atom_site_fract_z
 _atom_site_fract_occupancy
 Co  Co1  1  0.50000  0.00000  0.50000  1
 Mn  Mn1  1  0.50000  0.50000  0.00000  1
 O  O1  1  0.71428  0.00000  0.76356  1
 O  O2  1  0.71120  0.50000  0.25817  1
 O  O3  1  0.28880  0.50000  0.74183  1
 O  O4  1  0.28572  -0.00000  0.23644  1
