CIF file written using JARVIS-Tools package.
data_Rb3GaO3
_symmetry_space_group_name_H-M  'C2/m'
_cell_length_a       6.79767
_cell_length_b       6.83661
_cell_length_c       6.83662
_cell_angle_alpha    113.845
_cell_angle_beta     97.3369
_cell_angle_gamma    97.3369

_symmetry_Int_Tables_number  12
_chemical_formula_structural  Rb3GaO3
_chemical_formula_sum  Rb6Ga2O6
_cell_volume  282.5330838631178
_cell_formula_units_Z  2
loop_
  _symmetry_equiv_pos_site_id
 _symmetry_equiv_pos_as_xyz
 1  'x, y, z'
loop_
 _atom_site_type_symbol
 _atom_site_label
 _atom_site_symmetry_multiplicity
 _atom_site_fract_x
 _atom_site_fract_y
 _atom_site_fract_z
 _atom_site_fract_occupancy
 Ga  Ga1  1  0.85179  0.83344  0.83344  1
 Ga  Ga2  1  0.14821  0.16656  0.16656  1
 O  O1  1  0.14768  0.90417  0.90417  1
 O  O2  1  0.85232  0.09583  0.09583  1
 O  O3  1  0.73345  0.84769  0.58009  1
 O  O4  1  0.26655  0.41991  0.15231  1
 O  O5  1  0.26655  0.15231  0.41991  1
 O  O6  1  0.73345  0.58009  0.84769  1
 Rb  Rb1  1  0.65460  0.37192  0.37192  1
 Rb  Rb2  1  0.34540  0.62808  0.62808  1
 Rb  Rb3  1  0.50000  0.19146  0.80854  1
 Rb  Rb4  1  0.50000  0.80854  0.19146  1
 Rb  Rb5  1  0.00000  0.26317  0.73683  1
 Rb  Rb6  1  -0.00000  0.73683  0.26317  1
