CIF file written using JARVIS-Tools package.
data_Sr3ZnIrO6
_symmetry_space_group_name_H-M  'R-3c'
_cell_length_a       6.73293
_cell_length_b       6.73293
_cell_length_c       6.73292
_cell_angle_alpha    91.35
_cell_angle_beta     91.35
_cell_angle_gamma    91.35

_symmetry_Int_Tables_number  167
_chemical_formula_structural  Sr3ZnIrO6
_chemical_formula_sum  Sr6Zn2Ir2O2
_cell_volume  304.9603204590206
_cell_formula_units_Z  2
loop_
  _symmetry_equiv_pos_site_id
 _symmetry_equiv_pos_as_xyz
 1  'x, y, z'
loop_
 _atom_site_type_symbol
 _atom_site_label
 _atom_site_symmetry_multiplicity
 _atom_site_fract_x
 _atom_site_fract_y
 _atom_site_fract_z
 _atom_site_fract_occupancy
 Ir  Ir1  1  0.50000  0.50000  0.50000  1
 Ir  Ir2  1  0.00000  0.00000  0.00000  1
 O  O1  1  0.09392  0.28620  0.95953  1
 O  O2  1  0.59392  0.45953  0.78620  1
 O  O3  1  0.45953  0.78620  0.59392  1
 O  O4  1  0.04047  0.90608  0.71380  1
 O  O5  1  0.90608  0.71380  0.04047  1
 O  O6  1  0.71380  0.04047  0.90608  1
 O  O7  1  0.21380  0.40608  0.54047  1
 O  O8  1  0.40608  0.54047  0.21380  1
 O  O9  1  0.54047  0.21380  0.40608  1
 O  O10  1  0.28620  0.95953  0.09392  1
 O  O11  1  0.95953  0.09392  0.28620  1
 O  O12  1  0.78620  0.59392  0.45953  1
 Sr  Sr1  1  0.11375  0.75000  0.38625  1
 Sr  Sr2  1  0.75000  0.38625  0.11375  1
 Sr  Sr3  1  0.38625  0.11375  0.75000  1
 Sr  Sr4  1  0.88625  0.25000  0.61375  1
 Sr  Sr5  1  0.25000  0.61375  0.88625  1
 Sr  Sr6  1  0.61375  0.88625  0.25000  1
 Zn  Zn1  1  0.25000  0.25000  0.25000  1
 Zn  Zn2  1  0.75000  0.75000  0.75000  1
