CIF file written using JARVIS-Tools package.
data_CaHoMn2O6
_symmetry_space_group_name_H-M  'Pmn2_1'
_cell_length_a       5.27127
_cell_length_b       5.47141
_cell_length_c       7.5003
_cell_angle_alpha    90
_cell_angle_beta     90
_cell_angle_gamma    90

_symmetry_Int_Tables_number  31
_chemical_formula_structural  CaHoMn2O6
_chemical_formula_sum  Ca2Ho2Mn4O2
_cell_volume  216.31810142217708
_cell_formula_units_Z  2
loop_
  _symmetry_equiv_pos_site_id
 _symmetry_equiv_pos_as_xyz
 1  'x, y, z'
loop_
 _atom_site_type_symbol
 _atom_site_label
 _atom_site_symmetry_multiplicity
 _atom_site_fract_x
 _atom_site_fract_y
 _atom_site_fract_z
 _atom_site_fract_occupancy
 Ca  Ca1  1  0.48850  0.69701  0.00000  1
 Ca  Ca2  1  0.98850  0.30299  0.50000  1
 Ho  Ho1  1  0.01656  0.18482  0.00000  1
 Ho  Ho2  1  0.51656  0.81518  0.50000  1
 Mn  Mn1  1  0.00063  0.74558  0.74988  1
 Mn  Mn2  1  0.00063  0.74558  0.25012  1
 Mn  Mn3  1  0.50063  0.25442  0.24988  1
 Mn  Mn4  1  0.50063  0.25442  0.75012  1
 O  O1  1  0.09881  0.72752  0.50000  1
 O  O2  1  0.79175  0.03964  0.29469  1
 O  O3  1  0.19629  0.44821  0.20114  1
 O  O4  1  0.29175  0.96036  0.79469  1
 O  O5  1  0.19629  0.44821  0.79886  1
 O  O6  1  0.69629  0.55179  0.70114  1
 O  O7  1  0.59881  0.27248  0.00000  1
 O  O8  1  0.69629  0.55179  0.29886  1
 O  O9  1  0.29175  0.96036  0.20531  1
 O  O10  1  0.79175  0.03964  0.70531  1
 O  O11  1  0.41878  0.22339  0.50000  1
 O  O12  1  0.91878  0.77661  0.00000  1
