CIF file written using JARVIS-Tools package.
data_CuClO2
_symmetry_space_group_name_H-M  'C222_1'
_cell_length_a       3.65875
_cell_length_b       6.13715
_cell_length_c       6.13716
_cell_angle_alpha    111.187
_cell_angle_beta     90
_cell_angle_gamma    90

_symmetry_Int_Tables_number  20
_chemical_formula_structural  CuClO2
_chemical_formula_sum  Cu2Cl2O4
_cell_volume  128.49085874534572
_cell_formula_units_Z  2
loop_
  _symmetry_equiv_pos_site_id
 _symmetry_equiv_pos_as_xyz
 1  'x, y, z'
loop_
 _atom_site_type_symbol
 _atom_site_label
 _atom_site_symmetry_multiplicity
 _atom_site_fract_x
 _atom_site_fract_y
 _atom_site_fract_z
 _atom_site_fract_occupancy
 Cl  Cl1  1  0.75000  0.63558  0.36442  1
 Cl  Cl2  1  0.25000  0.36442  0.63558  1
 Cu  Cu1  1  0.50000  0.27166  0.27166  1
 Cu  Cu2  1  0.00000  0.72834  0.72834  1
 O  O1  1  0.28689  0.81003  0.00526  1
 O  O2  1  0.71311  0.00526  0.81003  1
 O  O3  1  0.21311  -0.00526  0.18997  1
 O  O4  1  0.78689  0.18997  -0.00526  1
