CIF file written using JARVIS-Tools package.
data_H4N2O3
_symmetry_space_group_name_H-M  'Pmmn'
_cell_length_a       4.97115
_cell_length_b       5.12346
_cell_length_c       5.74314
_cell_angle_alpha    90
_cell_angle_beta     90
_cell_angle_gamma    90

_symmetry_Int_Tables_number  59
_chemical_formula_structural  H4N2O3
_chemical_formula_sum  H8N4O6
_cell_volume  146.27471889291684
_cell_formula_units_Z  2
loop_
  _symmetry_equiv_pos_site_id
 _symmetry_equiv_pos_as_xyz
 1  'x, y, z'
loop_
 _atom_site_type_symbol
 _atom_site_label
 _atom_site_symmetry_multiplicity
 _atom_site_fract_x
 _atom_site_fract_y
 _atom_site_fract_z
 _atom_site_fract_occupancy
 H  H1  1  0.80925  0.00000  0.14973  1
 H  H2  1  0.80925  0.00000  0.85027  1
 H  H3  1  0.19075  0.50000  0.35027  1
 H  H4  1  0.19075  0.50000  0.64973  1
 H  H5  1  0.04820  0.16465  0.00000  1
 H  H6  1  0.04820  0.83535  0.00000  1
 H  H7  1  0.95180  0.33535  0.50000  1
 H  H8  1  0.95180  0.66465  0.50000  1
 N  N1  1  0.07345  0.50000  0.50000  1
 N  N2  1  0.92655  0.00000  0.00000  1
 N  N3  1  0.50432  0.50000  0.00000  1
 N  N4  1  0.49568  0.00000  0.50000  1
 O  O1  1  0.37339  0.00000  0.69123  1
 O  O2  1  0.62661  0.50000  0.19123  1
 O  O3  1  0.75688  0.00000  0.50000  1
 O  O4  1  0.24312  0.50000  0.00000  1
 O  O5  1  0.37339  0.00000  0.30877  1
 O  O6  1  0.62661  0.50000  0.80877  1
