CIF file written using JARVIS-Tools package.
data_FeSeBr7
_symmetry_space_group_name_H-M  'Pc'
_cell_length_a       6.48972
_cell_length_b       6.53411
_cell_length_c       14.3917
_cell_angle_alpha    100.97
_cell_angle_beta     90
_cell_angle_gamma    90

_symmetry_Int_Tables_number  7
_chemical_formula_structural  FeSeBr7
_chemical_formula_sum  Fe2Se2Br4
_cell_volume  599.1207557436421
_cell_formula_units_Z  2
loop_
  _symmetry_equiv_pos_site_id
 _symmetry_equiv_pos_as_xyz
 1  'x, y, z'
loop_
 _atom_site_type_symbol
 _atom_site_label
 _atom_site_symmetry_multiplicity
 _atom_site_fract_x
 _atom_site_fract_y
 _atom_site_fract_z
 _atom_site_fract_occupancy
 Br  Br1  1  0.87384  0.11851  0.76656  1
 Br  Br2  1  0.14530  0.53348  0.12928  1
 Br  Br3  1  0.86777  0.69906  0.90714  1
 Br  Br4  1  0.31311  0.04189  0.91311  1
 Br  Br5  1  0.68689  0.04189  0.41311  1
 Br  Br6  1  0.13223  0.69906  0.40714  1
 Br  Br7  1  0.37992  0.89862  0.64117  1
 Br  Br8  1  0.62008  0.89862  0.14117  1
 Br  Br9  1  0.85470  0.53348  0.62928  1
 Br  Br10  1  0.65633  0.33317  0.01140  1
 Br  Br11  1  0.62542  0.47241  0.28261  1
 Br  Br12  1  0.34367  0.33317  0.51140  1
 Br  Br13  1  0.12616  0.11851  0.26656  1
 Br  Br14  1  0.37458  0.47241  0.78261  1
 Fe  Fe1  1  0.49583  0.55745  0.63991  1
 Fe  Fe2  1  0.50417  0.55745  0.13991  1
 Se  Se1  1  0.08079  0.84211  0.80162  1
 Se  Se2  1  0.91921  0.84211  0.30162  1
