CIF file written using JARVIS-Tools package.
data_Na2ZnBr4
_symmetry_space_group_name_H-M  'Pnma'
_cell_length_a       6.78379
_cell_length_b       8.42625
_cell_length_c       14.3522
_cell_angle_alpha    90
_cell_angle_beta     90
_cell_angle_gamma    90

_symmetry_Int_Tables_number  62
_chemical_formula_structural  Na2ZnBr4
_chemical_formula_sum  Na8Zn4Br6
_cell_volume  820.4006522412969
_cell_formula_units_Z  4
loop_
  _symmetry_equiv_pos_site_id
 _symmetry_equiv_pos_as_xyz
 1  'x, y, z'
loop_
 _atom_site_type_symbol
 _atom_site_label
 _atom_site_symmetry_multiplicity
 _atom_site_fract_x
 _atom_site_fract_y
 _atom_site_fract_z
 _atom_site_fract_occupancy
 Br  Br1  1  0.25267  0.02047  0.83272  1
 Br  Br2  1  0.24095  0.75000  0.09073  1
 Br  Br3  1  0.74733  0.52047  0.16728  1
 Br  Br4  1  0.75905  0.25000  0.90927  1
 Br  Br5  1  0.25905  0.75000  0.59073  1
 Br  Br6  1  0.76120  0.75000  0.43258  1
 Br  Br7  1  0.26120  0.25000  0.06742  1
 Br  Br8  1  0.74095  0.25000  0.40927  1
 Br  Br9  1  0.73880  0.75000  0.93258  1
 Br  Br10  1  0.74733  0.97953  0.16728  1
 Br  Br11  1  0.24733  0.02047  0.33272  1
 Br  Br12  1  0.25267  0.47953  0.83272  1
 Br  Br13  1  0.75267  0.52047  0.66728  1
 Br  Br14  1  0.24733  0.47953  0.33272  1
 Br  Br15  1  0.75267  0.97953  0.66728  1
 Br  Br16  1  0.23880  0.25000  0.56742  1
 Na  Na1  1  0.48979  0.75000  0.76831  1
 Na  Na2  1  0.98979  0.25000  0.73169  1
 Na  Na3  1  0.51021  0.25000  0.23169  1
 Na  Na4  1  0.01021  0.75000  0.26831  1
 Na  Na5  1  0.50000  0.50000  0.50000  1
 Na  Na6  1  0.00000  0.50000  0.00000  1
 Na  Na7  1  0.50000  0.00000  0.50000  1
 Na  Na8  1  0.00000  0.00000  0.00000  1
 Zn  Zn1  1  0.59543  0.75000  0.09016  1
 Zn  Zn2  1  0.09543  0.25000  0.40984  1
 Zn  Zn3  1  0.40457  0.25000  0.90984  1
 Zn  Zn4  1  0.90457  0.75000  0.59016  1
