CIF file written using JARVIS-Tools package.
data_TiP2S6
_symmetry_space_group_name_H-M  'Fdd2'
_cell_length_a       6.78651
_cell_length_b       6.7865
_cell_length_c       11.2268
_cell_angle_alpha    100.806
_cell_angle_beta     100.806
_cell_angle_gamma    112.314

_symmetry_Int_Tables_number  43
_chemical_formula_structural  TiP2S6
_chemical_formula_sum  Ti2P4S2
_cell_volume  450.4302839534534
_cell_formula_units_Z  2
loop_
  _symmetry_equiv_pos_site_id
 _symmetry_equiv_pos_as_xyz
 1  'x, y, z'
loop_
 _atom_site_type_symbol
 _atom_site_label
 _atom_site_symmetry_multiplicity
 _atom_site_fract_x
 _atom_site_fract_y
 _atom_site_fract_z
 _atom_site_fract_occupancy
 P  P1  1  0.63827  0.51208  0.37662  1
 P  P2  1  0.73835  0.86454  0.37662  1
 P  P3  1  0.61454  0.98835  0.87662  1
 P  P4  1  0.26208  0.88827  0.87662  1
 S  S1  1  0.98523  0.03028  0.54377  1
 S  S2  1  0.45967  0.91819  0.35697  1
 S  S3  1  0.05814  0.62576  0.72479  1
 S  S4  1  0.66665  0.09904  0.72479  1
 S  S5  1  0.84904  0.91665  0.22479  1
 S  S6  1  0.37576  0.30814  0.22479  1
 S  S7  1  0.26348  0.80854  0.04377  1
 S  S8  1  0.55854  0.51348  0.54377  1
 S  S9  1  0.89730  0.43878  0.35697  1
 S  S10  1  0.18878  0.14730  0.85697  1
 S  S11  1  0.66819  0.70967  0.85697  1
 S  S12  1  0.78028  0.23523  0.04377  1
 Ti  Ti1  1  0.85035  0.85035  0.70070  1
 Ti  Ti2  1  0.60035  0.10035  0.20070  1
