CIF file written using JARVIS-Tools package.
data_VZn2O4
_symmetry_space_group_name_H-M  'Imma'
_cell_length_a       6.02579
_cell_length_b       6.0258
_cell_length_c       5.85515
_cell_angle_alpha    60.9325
_cell_angle_beta     60.9325
_cell_angle_gamma    59.3974

_symmetry_Int_Tables_number  74
_chemical_formula_structural  VZn2O4
_chemical_formula_sum  V2Zn4O8
_cell_volume  151.69129108476602
_cell_formula_units_Z  2
loop_
  _symmetry_equiv_pos_site_id
 _symmetry_equiv_pos_as_xyz
 1  'x, y, z'
loop_
 _atom_site_type_symbol
 _atom_site_label
 _atom_site_symmetry_multiplicity
 _atom_site_fract_x
 _atom_site_fract_y
 _atom_site_fract_z
 _atom_site_fract_occupancy
 O  O1  1  0.40428  0.40428  0.35658  1
 O  O2  1  0.40107  0.85392  0.37251  1
 O  O3  1  0.40428  0.40428  0.83485  1
 O  O4  1  0.39608  0.84893  0.87749  1
 O  O5  1  0.85392  0.40107  0.37251  1
 O  O6  1  0.84572  0.84572  0.41515  1
 O  O7  1  0.84893  0.39608  0.87749  1
 O  O8  1  0.84572  0.84572  0.89342  1
 V  V1  1  0.62500  0.62500  0.12500  1
 V  V2  1  0.62500  0.62500  0.62500  1
 Zn  Zn1  1  0.99026  0.99026  0.00974  1
 Zn  Zn2  1  0.25974  0.25974  0.24026  1
 Zn  Zn3  1  0.12500  0.62500  0.62500  1
 Zn  Zn4  1  0.62500  0.12500  0.62500  1
