CIF file written using JARVIS-Tools package.
data_K2NbAgS4
_symmetry_space_group_name_H-M  'Fddd'
_cell_length_a       5.91527
_cell_length_b       7.19418
_cell_length_c       11.619
_cell_angle_alpha    83.993
_cell_angle_beta     75.253
_cell_angle_gamma    65.725

_symmetry_Int_Tables_number  70
_chemical_formula_structural  K2NbAgS4
_chemical_formula_sum  K4Nb2Ag2S8
_cell_volume  435.8871197278447
_cell_formula_units_Z  2
loop_
  _symmetry_equiv_pos_site_id
 _symmetry_equiv_pos_as_xyz
 1  'x, y, z'
loop_
 _atom_site_type_symbol
 _atom_site_label
 _atom_site_symmetry_multiplicity
 _atom_site_fract_x
 _atom_site_fract_y
 _atom_site_fract_z
 _atom_site_fract_occupancy
 Ag  Ag1  1  0.87500  0.25000  0.25000  1
 Ag  Ag2  1  0.12500  0.75000  0.75000  1
 K  K1  1  0.19359  0.25000  0.61283  1
 K  K2  1  0.80641  0.75000  0.38717  1
 K  K3  1  0.55641  0.25000  0.88717  1
 K  K4  1  0.44359  0.75000  0.11283  1
 Nb  Nb1  1  0.37500  0.25000  0.25000  1
 Nb  Nb2  1  0.62500  0.75000  0.75000  1
 S  S1  1  0.88667  0.53850  0.86933  1
 S  S2  1  0.79451  0.96150  0.63067  1
 S  S3  1  0.57483  0.53850  0.63067  1
 S  S4  1  0.24399  0.96150  0.86933  1
 S  S5  1  0.11333  0.46150  0.13067  1
 S  S6  1  0.75601  0.03850  0.13067  1
 S  S7  1  0.42517  0.46150  0.36933  1
 S  S8  1  0.20549  0.03850  0.36933  1
