CIF file written using JARVIS-Tools package.
data_CdP4
_symmetry_space_group_name_H-M  'P2_1/c'
_cell_length_a       5.3167
_cell_length_b       5.20747
_cell_length_c       7.72391
_cell_angle_alpha    90
_cell_angle_beta     99.5845
_cell_angle_gamma    90

_symmetry_Int_Tables_number  14
_chemical_formula_structural  CdP4
_chemical_formula_sum  Cd2P8
_cell_volume  210.86340066220524
_cell_formula_units_Z  2
loop_
  _symmetry_equiv_pos_site_id
 _symmetry_equiv_pos_as_xyz
 1  'x, y, z'
loop_
 _atom_site_type_symbol
 _atom_site_label
 _atom_site_symmetry_multiplicity
 _atom_site_fract_x
 _atom_site_fract_y
 _atom_site_fract_z
 _atom_site_fract_occupancy
 Cd  Cd1  1  0.00000  0.50000  0.50000  1
 Cd  Cd2  1  0.00000  0.00000  0.00000  1
 P  P1  1  0.39752  0.60422  0.09909  1
 P  P2  1  0.60248  0.10422  0.40091  1
 P  P3  1  0.26032  0.29002  0.25187  1
 P  P4  1  0.73968  0.79002  0.24813  1
 P  P5  1  0.73968  0.70998  0.74813  1
 P  P6  1  0.26032  0.20998  0.75187  1
 P  P7  1  0.39752  0.89578  0.59909  1
 P  P8  1  0.60248  0.39578  0.90091  1
