CIF file written using JARVIS-Tools package.
data_Ca6HfO8
_symmetry_space_group_name_H-M  'Fm-3m'
_cell_length_a       6.75853
_cell_length_b       6.75853
_cell_length_c       6.75853
_cell_angle_alpha    60
_cell_angle_beta     60
_cell_angle_gamma    60

_symmetry_Int_Tables_number  225
_chemical_formula_structural  Ca6HfO8
_chemical_formula_sum  Ca6HfO8
_cell_volume  218.2934152425059
_cell_formula_units_Z  1
loop_
  _symmetry_equiv_pos_site_id
 _symmetry_equiv_pos_as_xyz
 1  'x, y, z'
loop_
 _atom_site_type_symbol
 _atom_site_label
 _atom_site_symmetry_multiplicity
 _atom_site_fract_x
 _atom_site_fract_y
 _atom_site_fract_z
 _atom_site_fract_occupancy
 Ca  Ca1  1  0.50000  0.00000  -0.00000  1
 Ca  Ca2  1  0.50000  0.00000  0.50000  1
 Ca  Ca3  1  0.00000  -0.00000  0.50000  1
 Ca  Ca4  1  0.50000  0.50000  -0.00000  1
 Ca  Ca5  1  0.00000  0.50000  -0.00000  1
 Ca  Ca6  1  0.00000  0.50000  0.50000  1
 Hf  Hf1  1  0.00000  0.00000  0.00000  1
 O  O1  1  0.77974  0.22026  0.22026  1
 O  O2  1  0.25000  0.25000  0.25000  1
 O  O3  1  0.22026  0.77974  0.22026  1
 O  O4  1  0.22026  0.22026  0.77974  1
 O  O5  1  0.77974  0.22026  0.77974  1
 O  O6  1  0.77974  0.77974  0.22026  1
 O  O7  1  0.75000  0.75000  0.75000  1
 O  O8  1  0.22026  0.77974  0.77974  1
