CIF file written using JARVIS-Tools package.
data_Ca3Zn
_symmetry_space_group_name_H-M  'Cmcm'
_cell_length_a       4.03893
_cell_length_b       6.90392
_cell_length_c       9.95876
_cell_angle_alpha    90
_cell_angle_beta     90
_cell_angle_gamma    107.008

_symmetry_Int_Tables_number  63
_chemical_formula_structural  Ca3Zn
_chemical_formula_sum  Ca6Zn2
_cell_volume  265.5488983814404
_cell_formula_units_Z  2
loop_
  _symmetry_equiv_pos_site_id
 _symmetry_equiv_pos_as_xyz
 1  'x, y, z'
loop_
 _atom_site_type_symbol
 _atom_site_label
 _atom_site_symmetry_multiplicity
 _atom_site_fract_x
 _atom_site_fract_y
 _atom_site_fract_z
 _atom_site_fract_occupancy
 Ca  Ca1  1  0.43203  0.86407  0.75000  1
 Ca  Ca2  1  0.56797  0.13593  0.25000  1
 Ca  Ca3  1  0.14241  0.28483  0.93814  1
 Ca  Ca4  1  0.85759  0.71517  0.06186  1
 Ca  Ca5  1  0.85759  0.71517  0.43814  1
 Ca  Ca6  1  0.14241  0.28483  0.56186  1
 Zn  Zn1  1  0.75547  0.51094  0.75000  1
 Zn  Zn2  1  0.24453  0.48906  0.25000  1
