CIF file written using JARVIS-Tools package.
data_Na6MnSe4
_symmetry_space_group_name_H-M  'P6_3mc'
_cell_length_a       9.34131
_cell_length_b       9.34131
_cell_length_c       7.19873
_cell_angle_alpha    90
_cell_angle_beta     90
_cell_angle_gamma    120

_symmetry_Int_Tables_number  186
_chemical_formula_structural  Na6MnSe4
_chemical_formula_sum  Na2Mn2Se8
_cell_volume  544.003434002394
_cell_formula_units_Z  2
loop_
  _symmetry_equiv_pos_site_id
 _symmetry_equiv_pos_as_xyz
 1  'x, y, z'
loop_
 _atom_site_type_symbol
 _atom_site_label
 _atom_site_symmetry_multiplicity
 _atom_site_fract_x
 _atom_site_fract_y
 _atom_site_fract_z
 _atom_site_fract_occupancy
 Mn  Mn1  1  0.33333  0.66667  0.24822  1
 Mn  Mn2  1  0.66667  0.33333  0.74822  1
 Na  Na1  1  0.29413  0.14707  0.46022  1
 Na  Na2  1  0.70587  0.85293  0.96022  1
 Na  Na3  1  0.14707  0.29413  0.96022  1
 Na  Na4  1  0.85293  0.70587  0.46022  1
 Na  Na5  1  0.85293  0.14707  0.46022  1
 Na  Na6  1  0.14707  0.85293  0.96022  1
 Na  Na7  1  0.06028  0.53014  0.62978  1
 Na  Na8  1  0.53014  0.46986  0.12978  1
 Na  Na9  1  0.53014  0.06028  0.12978  1
 Na  Na10  1  0.46986  0.93972  0.62978  1
 Na  Na11  1  0.93972  0.46986  0.12978  1
 Na  Na12  1  0.46986  0.53014  0.62978  1
 Se  Se1  1  0.81465  0.62930  0.85743  1
 Se  Se2  1  0.81465  0.18535  0.85743  1
 Se  Se3  1  0.66667  0.33333  0.39721  1
 Se  Se4  1  0.33333  0.66667  0.89721  1
 Se  Se5  1  0.37070  0.18535  0.85743  1
 Se  Se6  1  0.18535  0.81465  0.35743  1
 Se  Se7  1  0.18535  0.37070  0.35743  1
 Se  Se8  1  0.62930  0.81465  0.35743  1
