CIF file written using JARVIS-Tools package.
data_SiSe2
_symmetry_space_group_name_H-M  'Ibam'
_cell_length_a       9.66022
_cell_length_b       5.93834
_cell_length_c       6.3956
_cell_angle_alpha    117.619
_cell_angle_beta     139.045
_cell_angle_gamma    90

_symmetry_Int_Tables_number  72
_chemical_formula_structural  SiSe2
_chemical_formula_sum  Si2Se4
_cell_volume  170.00984641886072
_cell_formula_units_Z  2
loop_
  _symmetry_equiv_pos_site_id
 _symmetry_equiv_pos_as_xyz
 1  'x, y, z'
loop_
 _atom_site_type_symbol
 _atom_site_label
 _atom_site_symmetry_multiplicity
 _atom_site_fract_x
 _atom_site_fract_y
 _atom_site_fract_z
 _atom_site_fract_occupancy
 Se  Se1  1  0.62471  0.28138  0.00058  1
 Se  Se2  1  0.12414  0.21862  -0.00058  1
 Se  Se3  1  0.37529  0.71862  -0.00058  1
 Se  Se4  1  0.87586  0.78138  0.00058  1
 Si  Si1  1  0.24998  0.25000  0.50000  1
 Si  Si2  1  0.75002  0.75000  0.50000  1
