CIF file written using JARVIS-Tools package.
data_Si3CCl8
_symmetry_space_group_name_H-M  'P-1'
_cell_length_a       8.45307
_cell_length_b       8.8819
_cell_length_c       9.02348
_cell_angle_alpha    95.1362
_cell_angle_beta     116.382
_cell_angle_gamma    101.728

_symmetry_Int_Tables_number  2
_chemical_formula_structural  Si3CCl8
_chemical_formula_sum  Si6C2Cl6
_cell_volume  581.6239753346389
_cell_formula_units_Z  2
loop_
  _symmetry_equiv_pos_site_id
 _symmetry_equiv_pos_as_xyz
 1  'x, y, z'
loop_
 _atom_site_type_symbol
 _atom_site_label
 _atom_site_symmetry_multiplicity
 _atom_site_fract_x
 _atom_site_fract_y
 _atom_site_fract_z
 _atom_site_fract_occupancy
 C  C1  1  0.90983  0.35719  0.37775  1
 C  C2  1  0.09017  0.64281  0.62225  1
 Cl  Cl1  1  0.10032  0.10259  0.27533  1
 Cl  Cl2  1  0.35603  0.41807  0.61416  1
 Cl  Cl3  1  0.64397  0.58193  0.38584  1
 Cl  Cl4  1  0.09564  0.31475  0.78494  1
 Cl  Cl5  1  0.16967  0.45214  0.19360  1
 Cl  Cl6  1  0.71642  -0.01908  0.30100  1
 Cl  Cl7  1  0.28358  0.01908  0.69900  1
 Cl  Cl8  1  0.90436  0.68525  0.21506  1
 Cl  Cl9  1  0.53267  0.77718  0.87041  1
 Cl  Cl10  1  0.62751  0.21394  0.53166  1
 Cl  Cl11  1  0.83033  0.54786  0.80640  1
 Cl  Cl12  1  0.46733  0.22282  0.12959  1
 Cl  Cl13  1  0.89968  0.89741  0.72467  1
 Cl  Cl14  1  0.76218  0.20769  0.97918  1
 Cl  Cl15  1  0.23782  0.79231  0.02082  1
 Cl  Cl16  1  0.37249  0.78606  0.46834  1
 Si  Si1  1  0.01718  0.71610  0.78354  1
 Si  Si2  1  0.98282  0.28390  0.21646  1
 Si  Si3  1  0.30826  0.79617  0.66147  1
 Si  Si4  1  0.69174  0.20383  0.33853  1
 Si  Si5  1  0.88764  0.57014  0.39528  1
 Si  Si6  1  0.11236  0.42986  0.60472  1
