CIF file written using JARVIS-Tools package.
data_Y2Ti2S2O5
_symmetry_space_group_name_H-M  'I4/mmm'
_cell_length_a       11.822
_cell_length_b       11.822
_cell_length_c       11.822
_cell_angle_alpha    161.572
_cell_angle_beta     161.573
_cell_angle_gamma    26.1755

_symmetry_Int_Tables_number  139
_chemical_formula_structural  Y2Ti2S2O5
_chemical_formula_sum  Y2Ti2S2O5
_cell_volume  165.04177814686776
_cell_formula_units_Z  1
loop_
  _symmetry_equiv_pos_site_id
 _symmetry_equiv_pos_as_xyz
 1  'x, y, z'
loop_
 _atom_site_type_symbol
 _atom_site_label
 _atom_site_symmetry_multiplicity
 _atom_site_fract_x
 _atom_site_fract_y
 _atom_site_fract_z
 _atom_site_fract_occupancy
 O  O1  1  0.00000  0.00000  0.00000  1
 O  O2  1  0.60013  0.10013  0.50000  1
 O  O3  1  0.89989  0.39989  0.50000  1
 O  O4  1  0.10011  0.60011  0.50000  1
 O  O5  1  0.39987  0.89987  0.50000  1
 S  S1  1  0.20551  0.20551  -0.00000  1
 S  S2  1  0.79449  0.79449  0.00000  1
 Ti  Ti1  1  0.07881  0.07881  0.00000  1
 Ti  Ti2  1  0.92119  0.92119  -0.00000  1
 Y  Y1  1  0.33300  0.33300  0.00000  1
 Y  Y2  1  0.66700  0.66700  -0.00000  1
