CIF file written using JARVIS-Tools package.
data_NdCuSb2
_symmetry_space_group_name_H-M  'P4/nmm'
_cell_length_a       4.3751
_cell_length_b       4.3751
_cell_length_c       10.1649
_cell_angle_alpha    90
_cell_angle_beta     90
_cell_angle_gamma    90

_symmetry_Int_Tables_number  129
_chemical_formula_structural  NdCuSb2
_chemical_formula_sum  Nd2Cu2Sb4
_cell_volume  194.57196111976893
_cell_formula_units_Z  2
loop_
  _symmetry_equiv_pos_site_id
 _symmetry_equiv_pos_as_xyz
 1  'x, y, z'
loop_
 _atom_site_type_symbol
 _atom_site_label
 _atom_site_symmetry_multiplicity
 _atom_site_fract_x
 _atom_site_fract_y
 _atom_site_fract_z
 _atom_site_fract_occupancy
 Cu  Cu1  1  0.50000  0.50000  0.00000  1
 Cu  Cu2  1  0.00000  0.00000  0.00000  1
 Nd  Nd1  1  0.00000  0.50000  0.24980  1
 Nd  Nd2  1  0.50000  0.00000  0.75020  1
 Sb  Sb1  1  0.00000  0.50000  0.84609  1
 Sb  Sb2  1  0.50000  0.00000  0.15391  1
 Sb  Sb3  1  0.50000  0.50000  0.50000  1
 Sb  Sb4  1  0.00000  0.00000  0.50000  1
