CIF file written using JARVIS-Tools package.
data_Sc2Ge2O7
_symmetry_space_group_name_H-M  'Fd-3m'
_cell_length_a       6.8583
_cell_length_b       6.8583
_cell_length_c       6.85829
_cell_angle_alpha    60
_cell_angle_beta     60
_cell_angle_gamma    60

_symmetry_Int_Tables_number  227
_chemical_formula_structural  Sc2Ge2O7
_chemical_formula_sum  Sc4Ge4O4
_cell_volume  228.10476171745086
_cell_formula_units_Z  2
loop_
  _symmetry_equiv_pos_site_id
 _symmetry_equiv_pos_as_xyz
 1  'x, y, z'
loop_
 _atom_site_type_symbol
 _atom_site_label
 _atom_site_symmetry_multiplicity
 _atom_site_fract_x
 _atom_site_fract_y
 _atom_site_fract_z
 _atom_site_fract_occupancy
 Ge  Ge1  1  0.50000  0.00000  0.50000  1
 Ge  Ge2  1  0.50000  0.50000  0.00000  1
 Ge  Ge3  1  0.00000  0.50000  0.50000  1
 Ge  Ge4  1  0.50000  0.50000  0.50000  1
 O  O1  1  0.41642  0.41642  0.83358  1
 O  O2  1  0.12500  0.12500  0.12500  1
 O  O3  1  0.58358  0.16642  0.16642  1
 O  O4  1  0.41642  0.83358  0.83358  1
 O  O5  1  0.16642  0.16642  0.58358  1
 O  O6  1  0.16642  0.58358  0.16642  1
 O  O7  1  0.58358  0.16642  0.58358  1
 O  O8  1  0.83358  0.41642  0.41643  1
 O  O9  1  0.87500  0.87500  0.87500  1
 O  O10  1  0.41642  0.83358  0.41642  1
 O  O11  1  0.58358  0.58358  0.16642  1
 O  O12  1  0.83358  0.83358  0.41642  1
 O  O13  1  0.83358  0.41642  0.83358  1
 O  O14  1  0.16642  0.58357  0.58358  1
 Sc  Sc1  1  0.99999  0.00000  0.50000  1
 Sc  Sc2  1  0.00000  0.50000  1.00000  1
 Sc  Sc3  1  0.50000  1.00000  0.00000  1
 Sc  Sc4  1  0.00000  0.00000  -0.00000  1
