CIF file written using JARVIS-Tools package.
data_TiZnBi2O6
_symmetry_space_group_name_H-M  'P4mm'
_cell_length_a       3.78178
_cell_length_b       3.78173
_cell_length_c       9.70002
_cell_angle_alpha    90
_cell_angle_beta     90
_cell_angle_gamma    90

_symmetry_Int_Tables_number  99
_chemical_formula_structural  TiZnBi2O6
_chemical_formula_sum  TiZnBi2O6
_cell_volume  138.72661050395354
_cell_formula_units_Z  1
loop_
  _symmetry_equiv_pos_site_id
 _symmetry_equiv_pos_as_xyz
 1  'x, y, z'
loop_
 _atom_site_type_symbol
 _atom_site_label
 _atom_site_symmetry_multiplicity
 _atom_site_fract_x
 _atom_site_fract_y
 _atom_site_fract_z
 _atom_site_fract_occupancy
 Bi  Bi1  1  0.00000  0.00000  0.47332  1
 Bi  Bi2  1  0.00000  0.00000  0.00345  1
 O  O1  1  0.50000  0.50000  0.61014  1
 O  O2  1  0.00000  0.50000  0.34789  1
 O  O3  1  0.50000  0.00000  0.84773  1
 O  O4  1  0.50000  0.00000  0.34789  1
 O  O5  1  0.50000  0.50000  0.06123  1
 O  O6  1  0.00000  0.50000  0.84773  1
 Ti  Ti1  1  0.50000  0.50000  0.78756  1
 Zn  Zn1  1  0.50000  0.50000  0.26376  1
