CIF file written using JARVIS-Tools package.
data_BaMnCO3F2
_symmetry_space_group_name_H-M  'P6_3/m'
_cell_length_a       4.9542
_cell_length_b       4.9542
_cell_length_c       9.82043
_cell_angle_alpha    90
_cell_angle_beta     90
_cell_angle_gamma    120

_symmetry_Int_Tables_number  176
_chemical_formula_structural  BaMnCO3F2
_chemical_formula_sum  Ba2Mn2C2O6F4
_cell_volume  208.74106559223912
_cell_formula_units_Z  2
loop_
  _symmetry_equiv_pos_site_id
 _symmetry_equiv_pos_as_xyz
 1  'x, y, z'
loop_
 _atom_site_type_symbol
 _atom_site_label
 _atom_site_symmetry_multiplicity
 _atom_site_fract_x
 _atom_site_fract_y
 _atom_site_fract_z
 _atom_site_fract_occupancy
 Ba  Ba1  1  0.00000  0.00000  0.50000  1
 Ba  Ba2  1  0.00000  0.00000  0.00000  1
 C  C1  1  0.33333  0.66667  0.25000  1
 C  C2  1  0.66667  0.33333  0.75000  1
 F  F1  1  0.33333  0.66667  0.54044  1
 F  F2  1  0.66667  0.33333  0.04044  1
 F  F3  1  0.33333  0.66667  0.95956  1
 F  F4  1  0.66667  0.33333  0.45956  1
 Mn  Mn1  1  0.66667  0.33333  0.25000  1
 Mn  Mn2  1  0.33333  0.66667  0.75000  1
 O  O1  1  0.87948  0.25478  0.75000  1
 O  O2  1  0.25478  0.37531  0.25000  1
 O  O3  1  0.74522  0.62469  0.75000  1
 O  O4  1  0.12052  0.74522  0.25000  1
 O  O5  1  0.37531  0.12052  0.75000  1
 O  O6  1  0.62469  0.87948  0.25000  1
