CIF file written using JARVIS-Tools package.
data_K2Bi8Se13
_symmetry_space_group_name_H-M  'C2/m'
_cell_length_a       4.20607
_cell_length_b       12.2083
_cell_length_c       13.879
_cell_angle_alpha    91.4539
_cell_angle_beta     98.7157
_cell_angle_gamma    89.9988

_symmetry_Int_Tables_number  12
_chemical_formula_structural  K2Bi8Se13
_chemical_formula_sum  K2Bi8Se3
_cell_volume  704.2116976515322
_cell_formula_units_Z  1
loop_
  _symmetry_equiv_pos_site_id
 _symmetry_equiv_pos_as_xyz
 1  'x, y, z'
loop_
 _atom_site_type_symbol
 _atom_site_label
 _atom_site_symmetry_multiplicity
 _atom_site_fract_x
 _atom_site_fract_y
 _atom_site_fract_z
 _atom_site_fract_occupancy
 Bi  Bi1  1  0.55892  0.37791  0.11782  1
 Bi  Bi2  1  0.28112  0.13369  0.56227  1
 Bi  Bi3  1  0.71888  0.86631  0.43773  1
 Bi  Bi4  1  0.07496  0.70558  0.14996  1
 Bi  Bi5  1  0.92504  0.29442  0.85004  1
 Bi  Bi6  1  0.18875  0.45091  0.37750  1
 Bi  Bi7  1  0.81125  0.54909  0.62250  1
 Bi  Bi8  1  0.44108  0.62209  0.88218  1
 K  K1  1  0.58668  0.04995  0.17334  1
 K  K2  1  0.41332  0.95005  0.82666  1
 Se  Se1  1  0.85937  0.11709  0.71875  1
 Se  Se2  1  0.11148  0.26830  0.22295  1
 Se  Se3  1  0.29194  0.91000  0.58386  1
 Se  Se4  1  0.70806  0.09000  0.41614  1
 Se  Se5  1  0.14063  0.88291  0.28125  1
 Se  Se6  1  0.51770  0.80408  0.03547  1
 Se  Se7  1  0.25311  0.64404  0.50625  1
 Se  Se8  1  0.74689  0.35596  0.49375  1
 Se  Se9  1  0.37049  0.43004  0.74095  1
 Se  Se10  1  0.62951  0.56996  0.25905  1
 Se  Se11  1  0.48230  0.19592  0.96453  1
 Se  Se12  1  0.00000  0.50000  0.00000  1
 Se  Se13  1  0.88852  0.73170  0.77705  1
