CIF file written using JARVIS-Tools package.
data_Na2Sm2Ti3O10
_symmetry_space_group_name_H-M  'I4/mmm'
_cell_length_a       3.82485
_cell_length_b       3.82485
_cell_length_c       14.5293
_cell_angle_alpha    97.5635
_cell_angle_beta     97.5635
_cell_angle_gamma    90

_symmetry_Int_Tables_number  139
_chemical_formula_structural  Na2Sm2Ti3O10
_chemical_formula_sum  Na2Sm2Ti3O0
_cell_volume  208.84169938297893
_cell_formula_units_Z  1
loop_
  _symmetry_equiv_pos_site_id
 _symmetry_equiv_pos_as_xyz
 1  'x, y, z'
loop_
 _atom_site_type_symbol
 _atom_site_label
 _atom_site_symmetry_multiplicity
 _atom_site_fract_x
 _atom_site_fract_y
 _atom_site_fract_z
 _atom_site_fract_occupancy
 Na  Na1  1  0.28817  0.28817  0.57634  1
 Na  Na2  1  0.71183  0.71183  0.42366  1
 O  O1  1  0.36924  0.86924  0.73849  1
 O  O2  1  0.13076  0.63076  0.26151  1
 O  O3  1  0.63076  0.13076  0.26151  1
 O  O4  1  0.79190  0.79190  0.58379  1
 O  O5  1  0.20810  0.20810  0.41621  1
 O  O6  1  -0.00000  0.50000  -0.00000  1
 O  O7  1  0.86924  0.36924  0.73849  1
 O  O8  1  0.50000  0.00000  0.00000  1
 O  O9  1  0.06749  0.06749  0.13498  1
 O  O10  1  0.93251  0.93251  0.86502  1
 Sm  Sm1  1  0.57511  0.57511  0.15023  1
 Sm  Sm2  1  0.42489  0.42489  0.84977  1
 Ti  Ti1  1  0.85376  0.85376  0.70753  1
 Ti  Ti2  1  0.14624  0.14624  0.29247  1
 Ti  Ti3  1  0.00000  0.00000  0.00000  1
