CIF file written using JARVIS-Tools package.
data_MgCo2O4
_symmetry_space_group_name_H-M  'Fd-3m'
_cell_length_a       5.76358
_cell_length_b       5.76359
_cell_length_c       5.76499
_cell_angle_alpha    119.992
_cell_angle_beta     119.992
_cell_angle_gamma    90

_symmetry_Int_Tables_number  227
_chemical_formula_structural  MgCo2O4
_chemical_formula_sum  Mg2Co4O8
_cell_volume  135.4485697801432
_cell_formula_units_Z  2
loop_
  _symmetry_equiv_pos_site_id
 _symmetry_equiv_pos_as_xyz
 1  'x, y, z'
loop_
 _atom_site_type_symbol
 _atom_site_label
 _atom_site_symmetry_multiplicity
 _atom_site_fract_x
 _atom_site_fract_y
 _atom_site_fract_z
 _atom_site_fract_occupancy
 Co  Co1  1  -0.00000  0.00000  0.50000  1
 Co  Co2  1  -0.00000  0.50000  0.00000  1
 Co  Co3  1  0.50000  0.00000  0.50000  1
 Co  Co4  1  0.00000  0.00000  0.00000  1
 Mg  Mg1  1  0.37500  0.62500  0.75000  1
 Mg  Mg2  1  0.62500  0.37500  0.25000  1
 O  O1  1  0.76421  0.79244  0.52842  1
 O  O2  1  0.76402  0.23579  0.97158  1
 O  O3  1  0.20756  0.23579  0.97158  1
 O  O4  1  0.23579  0.20756  0.47158  1
 O  O5  1  0.23579  0.76402  0.47158  1
 O  O6  1  0.23598  0.76421  0.02842  1
 O  O7  1  0.76421  0.23598  0.52842  1
 O  O8  1  0.79244  0.76421  0.02842  1
