CIF file written using JARVIS-Tools package.
data_BaAg2GeSe4
_symmetry_space_group_name_H-M  'I222'
_cell_length_a       6.59782
_cell_length_b       6.59782
_cell_length_c       6.59782
_cell_angle_alpha    101.803
_cell_angle_beta     111.721
_cell_angle_gamma    115.174

_symmetry_Int_Tables_number  23
_chemical_formula_structural  BaAg2GeSe4
_chemical_formula_sum  BaAg2GeSe4
_cell_volume  217.95102309336872
_cell_formula_units_Z  1
loop_
  _symmetry_equiv_pos_site_id
 _symmetry_equiv_pos_as_xyz
 1  'x, y, z'
loop_
 _atom_site_type_symbol
 _atom_site_label
 _atom_site_symmetry_multiplicity
 _atom_site_fract_x
 _atom_site_fract_y
 _atom_site_fract_z
 _atom_site_fract_occupancy
 Ag  Ag1  1  0.50000  0.81727  0.31727  1
 Ag  Ag2  1  0.50000  0.18273  0.68273  1
 Ba  Ba1  1  0.00000  0.00000  0.00000  1
 Ge  Ge1  1  0.00000  0.50000  0.50000  1
 Se  Se1  1  0.00357  0.85876  0.47318  1
 Se  Se2  1  0.99643  0.46961  0.85519  1
 Se  Se3  1  0.61442  0.14124  0.14481  1
 Se  Se4  1  0.38558  0.53039  0.52682  1
