CIF file written using JARVIS-Tools package.
data_NaGaO2
_symmetry_space_group_name_H-M  'Pna2_1'
_cell_length_a       5.34195
_cell_length_b       5.56954
_cell_length_c       7.23598
_cell_angle_alpha    90
_cell_angle_beta     90
_cell_angle_gamma    90

_symmetry_Int_Tables_number  33
_chemical_formula_structural  NaGaO2
_chemical_formula_sum  Na4Ga4O8
_cell_volume  215.28619983209273
_cell_formula_units_Z  4
loop_
  _symmetry_equiv_pos_site_id
 _symmetry_equiv_pos_as_xyz
 1  'x, y, z'
loop_
 _atom_site_type_symbol
 _atom_site_label
 _atom_site_symmetry_multiplicity
 _atom_site_fract_x
 _atom_site_fract_y
 _atom_site_fract_z
 _atom_site_fract_occupancy
 Ga  Ga1  1  -0.00005  0.06421  0.12606  1
 Ga  Ga2  1  0.49995  0.93579  0.87394  1
 Ga  Ga3  1  0.49995  0.43579  0.62606  1
 Ga  Ga4  1  -0.00005  0.56421  0.37394  1
 Na  Na1  1  0.01414  0.06803  0.62246  1
 Na  Na2  1  0.51414  0.43197  0.12246  1
 Na  Na3  1  0.51414  0.93197  0.37754  1
 Na  Na4  1  0.01414  0.56803  0.87754  1
 O  O1  1  0.15303  0.45890  0.59046  1
 O  O2  1  0.65303  0.54110  0.40954  1
 O  O3  1  0.65303  0.04110  0.09046  1
 O  O4  1  0.15303  0.95890  0.90954  1
 O  O5  1  0.08238  0.88888  0.33849  1
 O  O6  1  0.08238  0.38888  0.16151  1
 O  O7  1  0.58238  0.61112  0.83849  1
 O  O8  1  0.58238  0.11112  0.66151  1
