CIF file written using JARVIS-Tools package.
data_Sb2TeSe2
_symmetry_space_group_name_H-M  'R3m'
_cell_length_a       10.1167
_cell_length_b       10.1167
_cell_length_c       10.1167
_cell_angle_alpha    23.7868
_cell_angle_beta     23.7869
_cell_angle_gamma    23.7869

_symmetry_Int_Tables_number  160
_chemical_formula_structural  Sb2TeSe2
_chemical_formula_sum  Sb2TeSe2
_cell_volume  147.96768529803174
_cell_formula_units_Z  1
loop_
  _symmetry_equiv_pos_site_id
 _symmetry_equiv_pos_as_xyz
 1  'x, y, z'
loop_
 _atom_site_type_symbol
 _atom_site_label
 _atom_site_symmetry_multiplicity
 _atom_site_fract_x
 _atom_site_fract_y
 _atom_site_fract_z
 _atom_site_fract_occupancy
 Sb  Sb1  1  0.39189  0.39189  0.39189  1
 Sb  Sb2  1  0.59960  0.59960  0.59960  1
 Se  Se1  1  0.99667  0.99667  0.99667  1
 Se  Se2  1  0.77695  0.77695  0.77695  1
 Te  Te1  1  0.20578  0.20578  0.20578  1
