CIF file written using JARVIS-Tools package.
data_Co2P2O7
_symmetry_space_group_name_H-M  'C2/m'
_cell_length_a       4.55019
_cell_length_b       5.25358
_cell_length_c       5.25359
_cell_angle_alpha    103.3
_cell_angle_beta     97.9291
_cell_angle_gamma    97.929

_symmetry_Int_Tables_number  12
_chemical_formula_structural  Co2P2O7
_chemical_formula_sum  Co2P2O7
_cell_volume  119.15873187258337
_cell_formula_units_Z  1
loop_
  _symmetry_equiv_pos_site_id
 _symmetry_equiv_pos_as_xyz
 1  'x, y, z'
loop_
 _atom_site_type_symbol
 _atom_site_label
 _atom_site_symmetry_multiplicity
 _atom_site_fract_x
 _atom_site_fract_y
 _atom_site_fract_z
 _atom_site_fract_occupancy
 Co  Co1  1  0.50000  0.31698  0.68302  1
 Co  Co2  1  0.50000  0.68302  0.31698  1
 O  O1  1  0.00000  0.00000  0.00000  1
 O  O2  1  0.27995  0.61897  0.92827  1
 O  O3  1  0.72005  0.07173  0.38103  1
 O  O4  1  0.72005  0.38103  0.07173  1
 O  O5  1  0.79185  0.62193  0.62193  1
 O  O6  1  0.20815  0.37807  0.37807  1
 O  O7  1  0.27995  0.92827  0.61897  1
 P  P1  1  0.90439  0.21749  0.21749  1
 P  P2  1  0.09561  0.78251  0.78251  1
