CIF file written using JARVIS-Tools package.
data_K2TaAgS4
_symmetry_space_group_name_H-M  'Fddd'
_cell_length_a       5.93488
_cell_length_b       7.19821
_cell_length_c       11.6106
_cell_angle_alpha    83.952
_cell_angle_beta     75.192
_cell_angle_gamma    65.6539

_symmetry_Int_Tables_number  70
_chemical_formula_structural  K2TaAgS4
_chemical_formula_sum  K4Ta2Ag2S8
_cell_volume  436.8923953672141
_cell_formula_units_Z  2
loop_
  _symmetry_equiv_pos_site_id
 _symmetry_equiv_pos_as_xyz
 1  'x, y, z'
loop_
 _atom_site_type_symbol
 _atom_site_label
 _atom_site_symmetry_multiplicity
 _atom_site_fract_x
 _atom_site_fract_y
 _atom_site_fract_z
 _atom_site_fract_occupancy
 Ag  Ag1  1  0.12500  0.75000  0.75000  1
 Ag  Ag2  1  0.87500  0.25000  0.25000  1
 K  K1  1  0.19341  0.25000  0.61317  1
 K  K2  1  0.80659  0.75000  0.38683  1
 K  K3  1  0.55659  0.25000  0.88683  1
 K  K4  1  0.44341  0.75000  0.11317  1
 S  S1  1  0.88393  0.53969  0.86912  1
 S  S2  1  0.79274  0.96031  0.63088  1
 S  S3  1  0.57638  0.53969  0.63088  1
 S  S4  1  0.24694  0.96031  0.86912  1
 S  S5  1  0.11607  0.46031  0.13088  1
 S  S6  1  0.75306  0.03969  0.13088  1
 S  S7  1  0.42362  0.46031  0.36912  1
 S  S8  1  0.20726  0.03969  0.36912  1
 Ta  Ta1  1  0.62500  0.75000  0.75000  1
 Ta  Ta2  1  0.37500  0.25000  0.25000  1
