CIF file written using JARVIS-Tools package.
data_TmZrSb
_symmetry_space_group_name_H-M  'I4/mmm'
_cell_length_a       4.24619
_cell_length_b       4.24619
_cell_length_c       8.73425
_cell_angle_alpha    104.068
_cell_angle_beta     104.068
_cell_angle_gamma    90

_symmetry_Int_Tables_number  139
_chemical_formula_structural  TmZrSb
_chemical_formula_sum  Tm2Zr2Sb2
_cell_volume  147.8824307835011
_cell_formula_units_Z  2
loop_
  _symmetry_equiv_pos_site_id
 _symmetry_equiv_pos_as_xyz
 1  'x, y, z'
loop_
 _atom_site_type_symbol
 _atom_site_label
 _atom_site_symmetry_multiplicity
 _atom_site_fract_x
 _atom_site_fract_y
 _atom_site_fract_z
 _atom_site_fract_occupancy
 Sb  Sb1  1  0.13630  0.13630  0.27261  1
 Sb  Sb2  1  0.86370  0.86370  0.72739  1
 Tm  Tm1  1  0.32447  0.32447  0.64893  1
 Tm  Tm2  1  0.67553  0.67553  0.35107  1
 Zr  Zr1  1  0.50000  -0.00000  0.00000  1
 Zr  Zr2  1  -0.00000  0.50000  0.00000  1
