CIF file written using JARVIS-Tools package.
data_CaNd2S4
_symmetry_space_group_name_H-M  'I-42d'
_cell_length_a       7.41396
_cell_length_b       7.41396
_cell_length_c       7.41396
_cell_angle_alpha    109.66
_cell_angle_beta     109.66
_cell_angle_gamma    109.094

_symmetry_Int_Tables_number  122
_chemical_formula_structural  CaNd2S4
_chemical_formula_sum  Ca2Nd4S8
_cell_volume  313.70013171193455
_cell_formula_units_Z  2
loop_
  _symmetry_equiv_pos_site_id
 _symmetry_equiv_pos_as_xyz
 1  'x, y, z'
loop_
 _atom_site_type_symbol
 _atom_site_label
 _atom_site_symmetry_multiplicity
 _atom_site_fract_x
 _atom_site_fract_y
 _atom_site_fract_z
 _atom_site_fract_occupancy
 Ca  Ca1  1  0.62500  0.37500  0.25000  1
 Ca  Ca2  1  0.87500  0.12500  0.75000  1
 Nd  Nd1  1  0.12159  0.75000  0.87159  1
 Nd  Nd2  1  0.25000  0.62159  0.37159  1
 Nd  Nd3  1  0.37841  0.25000  0.62841  1
 Nd  Nd4  1  0.75000  0.87841  0.12841  1
 S  S1  1  0.00229  0.85752  0.50253  1
 S  S2  1  -0.00023  0.35500  0.49747  1
 S  S3  1  0.14248  0.14500  0.14477  1
 S  S4  1  0.35752  0.50229  0.00253  1
 S  S5  1  0.49771  0.00023  0.85523  1
 S  S6  1  0.64500  0.64248  0.64477  1
 S  S7  1  0.50023  0.99771  0.35523  1
 S  S8  1  0.85500  0.49977  0.99747  1
