CIF file written using JARVIS-Tools package.
data_SrSm2O4
_symmetry_space_group_name_H-M  'Cmcm'
_cell_length_a       3.4523
_cell_length_b       5.99442
_cell_length_c       11.3425
_cell_angle_alpha    90
_cell_angle_beta     90
_cell_angle_gamma    106.736

_symmetry_Int_Tables_number  63
_chemical_formula_structural  SrSm2O4
_chemical_formula_sum  Sr2Sm4O8
_cell_volume  224.78492993000313
_cell_formula_units_Z  2
loop_
  _symmetry_equiv_pos_site_id
 _symmetry_equiv_pos_as_xyz
 1  'x, y, z'
loop_
 _atom_site_type_symbol
 _atom_site_label
 _atom_site_symmetry_multiplicity
 _atom_site_fract_x
 _atom_site_fract_y
 _atom_site_fract_z
 _atom_site_fract_occupancy
 O  O1  1  0.00000  0.00000  0.00000  1
 O  O2  1  0.00000  0.00000  0.50000  1
 O  O3  1  0.46175  0.92351  0.25000  1
 O  O4  1  0.26519  0.53038  0.61110  1
 O  O5  1  0.26519  0.53038  0.88890  1
 O  O6  1  0.53825  0.07649  0.75000  1
 O  O7  1  0.73481  0.46962  0.38890  1
 O  O8  1  0.73481  0.46962  0.11110  1
 Sm  Sm1  1  0.36762  0.73525  0.42619  1
 Sm  Sm2  1  0.36762  0.73525  0.07381  1
 Sm  Sm3  1  0.63238  0.26475  0.57381  1
 Sm  Sm4  1  0.63238  0.26475  0.92619  1
 Sr  Sr1  1  0.11360  0.22719  0.25000  1
 Sr  Sr2  1  0.88640  0.77281  0.75000  1
