CIF file written using JARVIS-Tools package.
data_SbH4NCl6
_symmetry_space_group_name_H-M  'C2/c'
_cell_length_a       6.23985
_cell_length_b       6.77656
_cell_length_c       11.9281
_cell_angle_alpha    81.5936
_cell_angle_beta     90
_cell_angle_gamma    62.5871

_symmetry_Int_Tables_number  15
_chemical_formula_structural  SbH4NCl6
_chemical_formula_sum  Sb2H8N2Cl2
_cell_volume  441.6290287793077
_cell_formula_units_Z  2
loop_
  _symmetry_equiv_pos_site_id
 _symmetry_equiv_pos_as_xyz
 1  'x, y, z'
loop_
 _atom_site_type_symbol
 _atom_site_label
 _atom_site_symmetry_multiplicity
 _atom_site_fract_x
 _atom_site_fract_y
 _atom_site_fract_z
 _atom_site_fract_occupancy
 Cl  Cl1  1  0.53149  0.15531  0.11011  1
 Cl  Cl2  1  0.38496  0.40607  0.82860  1
 Cl  Cl3  1  0.79102  0.59393  0.67140  1
 Cl  Cl4  1  0.21614  0.70584  0.53347  1
 Cl  Cl5  1  0.68681  0.84469  0.38989  1
 Cl  Cl6  1  0.46851  0.84469  0.88989  1
 Cl  Cl7  1  0.31319  0.15531  0.61011  1
 Cl  Cl8  1  0.78386  0.29416  0.46653  1
 Cl  Cl9  1  0.61504  0.59393  0.17140  1
 Cl  Cl10  1  0.92198  0.29416  0.96653  1
 Cl  Cl11  1  0.20898  0.40607  0.32860  1
 Cl  Cl12  1  0.07802  0.70584  0.03347  1
 H  H1  1  0.12274  0.13283  0.26622  1
 H  H2  1  0.97642  0.05274  0.67998  1
 H  H3  1  0.74443  0.13283  0.76622  1
 H  H4  1  0.25557  0.86717  0.23378  1
 H  H5  1  0.02358  0.94726  0.32002  1
 H  H6  1  0.87726  0.86717  0.73378  1
 H  H7  1  0.02916  0.94726  0.82002  1
 H  H8  1  -0.02916  0.05274  0.17998  1
 N  N1  1  0.90629  -0.00000  0.75000  1
 N  N2  1  0.09371  0.00000  0.25000  1
 Sb  Sb1  1  0.50000  0.50000  0.00000  1
 Sb  Sb2  1  0.00000  0.50000  0.50000  1
