CIF file written using JARVIS-Tools package.
data_CdSO4
_symmetry_space_group_name_H-M  'Pmn2_1'
_cell_length_a       4.73114
_cell_length_b       4.77034
_cell_length_c       6.59953
_cell_angle_alpha    90
_cell_angle_beta     90
_cell_angle_gamma    90

_symmetry_Int_Tables_number  31
_chemical_formula_structural  CdSO4
_chemical_formula_sum  Cd2S2O8
_cell_volume  148.94564938804643
_cell_formula_units_Z  2
loop_
  _symmetry_equiv_pos_site_id
 _symmetry_equiv_pos_as_xyz
 1  'x, y, z'
loop_
 _atom_site_type_symbol
 _atom_site_label
 _atom_site_symmetry_multiplicity
 _atom_site_fract_x
 _atom_site_fract_y
 _atom_site_fract_z
 _atom_site_fract_occupancy
 Cd  Cd1  1  0.85982  0.75145  0.50000  1
 Cd  Cd2  1  0.14018  0.25145  0.00000  1
 O  O1  1  0.80234  0.59979  0.82065  1
 O  O2  1  0.19766  0.09979  0.67935  1
 O  O3  1  0.19766  0.09979  0.32065  1
 O  O4  1  0.80234  0.59979  0.17935  1
 O  O5  1  0.35586  0.67369  0.00000  1
 O  O6  1  0.64414  0.17369  0.50000  1
 O  O7  1  0.69898  0.03977  0.00000  1
 O  O8  1  0.30102  0.53977  0.50000  1
 S  S1  1  0.33726  0.23110  0.50000  1
 S  S2  1  0.66274  0.73110  0.00000  1
