CIF file written using JARVIS-Tools package.
data_HoCrO4
_symmetry_space_group_name_H-M  'I4_1/a'
_cell_length_a       5.01581
_cell_length_b       5.0158
_cell_length_c       6.62897
_cell_angle_alpha    112.23
_cell_angle_beta     112.23
_cell_angle_gamma    89.9999

_symmetry_Int_Tables_number  88
_chemical_formula_structural  HoCrO4
_chemical_formula_sum  Ho2Cr2O8
_cell_volume  140.89563356403676
_cell_formula_units_Z  2
loop_
  _symmetry_equiv_pos_site_id
 _symmetry_equiv_pos_as_xyz
 1  'x, y, z'
loop_
 _atom_site_type_symbol
 _atom_site_label
 _atom_site_symmetry_multiplicity
 _atom_site_fract_x
 _atom_site_fract_y
 _atom_site_fract_z
 _atom_site_fract_occupancy
 Cr  Cr1  1  0.87500  0.62500  0.75000  1
 Cr  Cr2  1  0.12500  0.37500  0.25000  1
 Ho  Ho1  1  0.37500  0.12500  0.75000  1
 Ho  Ho2  1  0.62500  0.87500  0.25000  1
 O  O1  1  0.94045  0.28841  0.59245  1
 O  O2  1  0.30404  0.44045  0.09245  1
 O  O3  1  0.78841  0.15200  0.09245  1
 O  O4  1  0.65200  0.80404  0.59245  1
 O  O5  1  0.34800  0.19596  0.40755  1
 O  O6  1  0.21159  0.84800  0.90755  1
 O  O7  1  0.69596  0.55955  0.90755  1
 O  O8  1  0.05955  0.71159  0.40755  1
