CIF file written using JARVIS-Tools package.
data_K2GeAs2
_symmetry_space_group_name_H-M  'Ibam'
_cell_length_a       6.62485
_cell_length_b       6.98684
_cell_length_c       8.23677
_cell_angle_alpha    115.095
_cell_angle_beta     113.713
_cell_angle_gamma    90

_symmetry_Int_Tables_number  72
_chemical_formula_structural  K2GeAs2
_chemical_formula_sum  K4Ge2As4
_cell_volume  309.3541145403073
_cell_formula_units_Z  2
loop_
  _symmetry_equiv_pos_site_id
 _symmetry_equiv_pos_as_xyz
 1  'x, y, z'
loop_
 _atom_site_type_symbol
 _atom_site_label
 _atom_site_symmetry_multiplicity
 _atom_site_fract_x
 _atom_site_fract_y
 _atom_site_fract_z
 _atom_site_fract_occupancy
 As  As1  1  0.89412  0.56860  0.78823  1
 As  As2  1  0.10588  0.43140  0.21177  1
 As  As3  1  0.60588  0.78037  0.21177  1
 As  As4  1  0.39412  0.21963  0.78823  1
 Ge  Ge1  1  0.25000  0.50000  0.00000  1
 Ge  Ge2  1  0.75000  0.50000  0.00000  1
 K  K1  1  0.64192  0.30663  0.28384  1
 K  K2  1  0.35808  0.69337  0.71616  1
 K  K3  1  0.85808  0.02279  0.71616  1
 K  K4  1  0.14192  0.97721  0.28384  1
