CIF file written using JARVIS-Tools package.
data_ZnAg2GeO4
_symmetry_space_group_name_H-M  'Pc'
_cell_length_a       5.64137
_cell_length_b       5.5801
_cell_length_c       9.05439
_cell_angle_alpha    90
_cell_angle_beta     127.739
_cell_angle_gamma    90

_symmetry_Int_Tables_number  7
_chemical_formula_structural  ZnAg2GeO4
_chemical_formula_sum  Zn2Ag4Ge2O8
_cell_volume  225.40114242354673
_cell_formula_units_Z  2
loop_
  _symmetry_equiv_pos_site_id
 _symmetry_equiv_pos_as_xyz
 1  'x, y, z'
loop_
 _atom_site_type_symbol
 _atom_site_label
 _atom_site_symmetry_multiplicity
 _atom_site_fract_x
 _atom_site_fract_y
 _atom_site_fract_z
 _atom_site_fract_occupancy
 Ag  Ag1  1  0.52547  0.19257  0.51343  1
 Ag  Ag2  1  0.52547  0.80743  0.01343  1
 Ag  Ag3  1  0.73427  0.29707  0.23477  1
 Ag  Ag4  1  0.73427  0.70293  0.73477  1
 Ge  Ge1  1  0.24908  0.68002  0.24934  1
 Ge  Ge2  1  0.24908  0.31998  0.74934  1
 O  O1  1  0.59633  0.29751  0.78495  1
 O  O2  1  0.59633  0.70249  0.28495  1
 O  O3  1  0.28921  0.79759  0.44711  1
 O  O4  1  0.28921  0.20241  0.94711  1
 O  O5  1  0.14226  0.62810  0.72363  1
 O  O6  1  0.96688  0.15939  0.54109  1
 O  O7  1  0.14226  0.37190  0.22363  1
 O  O8  1  0.96688  0.84061  0.04109  1
 Zn  Zn1  1  0.99451  0.81539  0.49769  1
 Zn  Zn2  1  0.99451  0.18461  0.99769  1
