CIF file written using JARVIS-Tools package.
data_SrGa2Te4
_symmetry_space_group_name_H-M  'I422'
_cell_length_a       6.76017
_cell_length_b       6.76018
_cell_length_c       6.76018
_cell_angle_alpha    104.427
_cell_angle_beta     104.426
_cell_angle_gamma    120.114

_symmetry_Int_Tables_number  97
_chemical_formula_structural  SrGa2Te4
_chemical_formula_sum  SrGa2Te4
_cell_volume  231.57088158416022
_cell_formula_units_Z  1
loop_
  _symmetry_equiv_pos_site_id
 _symmetry_equiv_pos_as_xyz
 1  'x, y, z'
loop_
 _atom_site_type_symbol
 _atom_site_label
 _atom_site_symmetry_multiplicity
 _atom_site_fract_x
 _atom_site_fract_y
 _atom_site_fract_z
 _atom_site_fract_occupancy
 Ga  Ga1  1  0.25000  0.75000  0.50000  1
 Ga  Ga2  1  0.75000  0.25000  0.50000  1
 Sr  Sr1  1  0.75000  0.75000  0.00000  1
 Te  Te1  1  0.17693  0.32307  0.50000  1
 Te  Te2  1  0.32307  0.82307  0.14614  1
 Te  Te3  1  0.67693  0.17693  0.85386  1
 Te  Te4  1  0.82307  0.67693  0.50000  1
