CIF file written using JARVIS-Tools package.
data_Mg3V2O8
_symmetry_space_group_name_H-M  'Cmce'
_cell_length_a       6.07686
_cell_length_b       6.51627
_cell_length_c       8.3511
_cell_angle_alpha    90
_cell_angle_beta     90
_cell_angle_gamma    117.793

_symmetry_Int_Tables_number  64
_chemical_formula_structural  Mg3V2O8
_chemical_formula_sum  Mg6V4O6
_cell_volume  292.54073733979607
_cell_formula_units_Z  2
loop_
  _symmetry_equiv_pos_site_id
 _symmetry_equiv_pos_as_xyz
 1  'x, y, z'
loop_
 _atom_site_type_symbol
 _atom_site_label
 _atom_site_symmetry_multiplicity
 _atom_site_fract_x
 _atom_site_fract_y
 _atom_site_fract_z
 _atom_site_fract_occupancy
 Mg  Mg1  1  0.11401  0.72801  0.25000  1
 Mg  Mg2  1  0.38599  0.27199  0.75000  1
 Mg  Mg3  1  0.61401  0.72801  0.25000  1
 Mg  Mg4  1  0.88599  0.27199  0.75000  1
 Mg  Mg5  1  0.50000  0.00000  0.50000  1
 Mg  Mg6  1  0.00000  0.00000  0.00000  1
 O  O1  1  0.34771  0.23524  0.49945  1
 O  O2  1  0.38754  0.23524  0.00055  1
 O  O3  1  0.15229  0.76476  -0.00055  1
 O  O4  1  0.88754  0.23524  0.49945  1
 O  O5  1  0.65229  0.76476  0.50055  1
 O  O6  1  0.61246  0.76476  -0.00055  1
 O  O7  1  0.84771  0.23524  0.00055  1
 O  O8  1  0.50309  0.00617  0.74559  1
 O  O9  1  0.49691  0.99383  0.25441  1
 O  O10  1  0.75158  0.50317  0.72763  1
 O  O11  1  0.11246  0.76476  0.50055  1
 O  O12  1  0.74842  0.49683  0.22763  1
 O  O13  1  0.00309  0.00617  0.75441  1
 O  O14  1  0.99691  0.99383  0.24559  1
 O  O15  1  0.25158  0.50317  0.77237  1
 O  O16  1  0.24842  0.49683  0.27237  1
 V  V1  1  0.12011  0.24022  0.37993  1
 V  V2  1  0.37989  0.75978  0.87993  1
 V  V3  1  0.62011  0.24022  0.12007  1
 V  V4  1  0.87989  0.75978  0.62007  1
