CIF file written using JARVIS-Tools package.
data_Ba3P4
_symmetry_space_group_name_H-M  'Fdd2'
_cell_length_a       6.22042
_cell_length_b       8.10576
_cell_length_c       9.67283
_cell_angle_alpha    82.913
_cell_angle_beta     71.2438
_cell_angle_gamma    67.4367

_symmetry_Int_Tables_number  43
_chemical_formula_structural  Ba3P4
_chemical_formula_sum  Ba6P8
_cell_volume  426.46738686269214
_cell_formula_units_Z  2
loop_
  _symmetry_equiv_pos_site_id
 _symmetry_equiv_pos_as_xyz
 1  'x, y, z'
loop_
 _atom_site_type_symbol
 _atom_site_label
 _atom_site_symmetry_multiplicity
 _atom_site_fract_x
 _atom_site_fract_y
 _atom_site_fract_z
 _atom_site_fract_occupancy
 Ba  Ba1  1  0.59466  0.99018  0.33751  1
 Ba  Ba2  1  0.92235  0.00982  0.66249  1
 Ba  Ba3  1  0.33484  0.50982  0.83751  1
 Ba  Ba4  1  0.68216  0.49018  0.16249  1
 Ba  Ba5  1  0.00201  0.50000  0.50000  1
 Ba  Ba6  1  0.25201  0.00000  0.00000  1
 P  P1  1  0.41903  0.65853  0.49371  1
 P  P2  1  0.57128  0.34147  0.50629  1
 P  P3  1  0.82756  0.84147  0.99371  1
 P  P4  1  0.66275  0.15853  0.00629  1
 P  P5  1  0.34626  0.19093  0.65459  1
 P  P6  1  0.19178  0.80907  0.34541  1
 P  P7  1  0.75085  0.69093  0.84541  1
 P  P8  1  0.28719  0.30907  0.15459  1
