CIF file written using JARVIS-Tools package.
data_K3GaO3
_symmetry_space_group_name_H-M  'C2/m'
_cell_length_a       6.47282
_cell_length_b       6.58641
_cell_length_c       6.58641
_cell_angle_alpha    114.163
_cell_angle_beta     96.3714
_cell_angle_gamma    96.3715

_symmetry_Int_Tables_number  12
_chemical_formula_structural  K3GaO3
_chemical_formula_sum  K6Ga2O6
_cell_volume  250.79459393538482
_cell_formula_units_Z  2
loop_
  _symmetry_equiv_pos_site_id
 _symmetry_equiv_pos_as_xyz
 1  'x, y, z'
loop_
 _atom_site_type_symbol
 _atom_site_label
 _atom_site_symmetry_multiplicity
 _atom_site_fract_x
 _atom_site_fract_y
 _atom_site_fract_z
 _atom_site_fract_occupancy
 Ga  Ga1  1  0.85304  0.82725  0.82725  1
 Ga  Ga2  1  0.14696  0.17275  0.17275  1
 K  K1  1  0.35141  0.62668  0.62668  1
 K  K2  1  -0.00000  0.74045  0.25955  1
 K  K3  1  0.50000  0.80958  0.19042  1
 K  K4  1  0.00000  0.25955  0.74045  1
 K  K5  1  0.64859  0.37332  0.37332  1
 K  K6  1  0.50000  0.19042  0.80958  1
 O  O1  1  0.73323  0.84386  0.56706  1
 O  O2  1  0.16014  0.90286  0.90286  1
 O  O3  1  0.83986  0.09714  0.09714  1
 O  O4  1  0.26677  0.15614  0.43294  1
 O  O5  1  0.26677  0.43294  0.15614  1
 O  O6  1  0.73323  0.56706  0.84386  1
