CIF file written using JARVIS-Tools package.
data_Sn2IF3
_symmetry_space_group_name_H-M  'Cmcm'
_cell_length_a       4.3429
_cell_length_b       7.27363
_cell_length_c       9.06298
_cell_angle_alpha    90
_cell_angle_beta     90
_cell_angle_gamma    107.37

_symmetry_Int_Tables_number  63
_chemical_formula_structural  Sn2IF3
_chemical_formula_sum  Sn4I2F6
_cell_volume  273.2320883794084
_cell_formula_units_Z  2
loop_
  _symmetry_equiv_pos_site_id
 _symmetry_equiv_pos_as_xyz
 1  'x, y, z'
loop_
 _atom_site_type_symbol
 _atom_site_label
 _atom_site_symmetry_multiplicity
 _atom_site_fract_x
 _atom_site_fract_y
 _atom_site_fract_z
 _atom_site_fract_occupancy
 F  F1  1  0.70827  0.41653  0.50000  1
 F  F2  1  0.29173  0.58347  0.00000  1
 F  F3  1  0.20804  0.41594  0.70539  1
 F  F4  1  0.79210  0.58406  0.79461  1
 F  F5  1  0.20790  0.41594  0.29461  1
 F  F6  1  0.79196  0.58406  0.20539  1
 I  I1  1  0.01374  0.02747  0.00000  1
 I  I2  1  0.98626  0.97253  0.50000  1
 Sn  Sn1  1  0.63840  0.27685  0.71416  1
 Sn  Sn2  1  0.63846  0.27685  0.28584  1
 Sn  Sn3  1  0.36154  0.72315  0.78584  1
 Sn  Sn4  1  0.36160  0.72315  0.21416  1
