CIF file written using JARVIS-Tools package.
data_Sr2CuTeO6
_symmetry_space_group_name_H-M  'I4/m'
_cell_length_a       5.4582
_cell_length_b       5.4582
_cell_length_c       5.79964
_cell_angle_alpha    118.071
_cell_angle_beta     118.071
_cell_angle_gamma    90.0001

_symmetry_Int_Tables_number  87
_chemical_formula_structural  Sr2CuTeO6
_chemical_formula_sum  Sr2CuTeO6
_cell_volume  128.96816657339477
_cell_formula_units_Z  1
loop_
  _symmetry_equiv_pos_site_id
 _symmetry_equiv_pos_as_xyz
 1  'x, y, z'
loop_
 _atom_site_type_symbol
 _atom_site_label
 _atom_site_symmetry_multiplicity
 _atom_site_fract_x
 _atom_site_fract_y
 _atom_site_fract_z
 _atom_site_fract_occupancy
 Cu  Cu1  1  0.00000  0.00000  0.00000  1
 O  O1  1  0.69197  0.80520  0.00000  1
 O  O2  1  0.19480  0.69197  -0.00000  1
 O  O3  1  0.80520  0.30803  0.00000  1
 O  O4  1  0.30803  0.19480  -0.00000  1
 O  O5  1  0.27491  0.27491  0.54982  1
 O  O6  1  0.72509  0.72509  0.45018  1
 Sr  Sr1  1  0.25000  0.75000  0.50000  1
 Sr  Sr2  1  0.75000  0.25000  0.50000  1
 Te  Te1  1  0.50000  0.50000  0.00000  1
