CIF file written using JARVIS-Tools package.
data_Cr2CoO4
_symmetry_space_group_name_H-M  'Fd-3m'
_cell_length_a       5.7355
_cell_length_b       5.7355
_cell_length_c       5.7355
_cell_angle_alpha    60
_cell_angle_beta     60
_cell_angle_gamma    60

_symmetry_Int_Tables_number  227
_chemical_formula_structural  Cr2CoO4
_chemical_formula_sum  Cr4Co2O8
_cell_volume  133.41329259585146
_cell_formula_units_Z  2
loop_
  _symmetry_equiv_pos_site_id
 _symmetry_equiv_pos_as_xyz
 1  'x, y, z'
loop_
 _atom_site_type_symbol
 _atom_site_label
 _atom_site_symmetry_multiplicity
 _atom_site_fract_x
 _atom_site_fract_y
 _atom_site_fract_z
 _atom_site_fract_occupancy
 Co  Co1  1  0.12500  0.12500  0.12500  1
 Co  Co2  1  0.87500  0.87500  0.87500  1
 Cr  Cr1  1  0.50000  0.00000  0.50000  1
 Cr  Cr2  1  0.00000  0.50000  0.50000  1
 Cr  Cr3  1  0.50000  0.50000  0.00000  1
 Cr  Cr4  1  0.50000  0.50000  0.50000  1
 O  O1  1  0.74268  0.74268  0.74268  1
 O  O2  1  0.25732  0.25732  0.72803  1
 O  O3  1  0.25732  0.72803  0.25732  1
 O  O4  1  0.72803  0.25732  0.25732  1
 O  O5  1  0.74268  0.27197  0.74268  1
 O  O6  1  0.27197  0.74268  0.74268  1
 O  O7  1  0.25732  0.25732  0.25732  1
 O  O8  1  0.74268  0.74268  0.27197  1
