CIF file written using JARVIS-Tools package.
data_Sm3Ge4Ru2
_symmetry_space_group_name_H-M  'C2/m'
_cell_length_a       4.36614
_cell_length_b       5.89578
_cell_length_c       8.30599
_cell_angle_alpha    108.114
_cell_angle_beta     90
_cell_angle_gamma    111.733

_symmetry_Int_Tables_number  12
_chemical_formula_structural  Sm3Ge4Ru2
_chemical_formula_sum  Sm3Ge4Ru2
_cell_volume  187.15930909573072
_cell_formula_units_Z  1
loop_
  _symmetry_equiv_pos_site_id
 _symmetry_equiv_pos_as_xyz
 1  'x, y, z'
loop_
 _atom_site_type_symbol
 _atom_site_label
 _atom_site_symmetry_multiplicity
 _atom_site_fract_x
 _atom_site_fract_y
 _atom_site_fract_z
 _atom_site_fract_occupancy
 Ge  Ge1  1  0.29120  0.58241  0.92017  1
 Ge  Ge2  1  0.70880  0.41759  0.07983  1
 Ge  Ge3  1  0.90330  0.80661  0.59866  1
 Ge  Ge4  1  0.09670  0.19339  0.40134  1
 Ru  Ru1  1  0.31514  0.63028  0.63782  1
 Ru  Ru2  1  0.68486  0.36972  0.36218  1
 Sm  Sm1  1  0.00000  0.00000  0.00000  1
 Sm  Sm2  1  0.62184  0.24369  0.69793  1
 Sm  Sm3  1  0.37816  0.75631  0.30207  1
