CIF file written using JARVIS-Tools package.
data_KNa2BO3
_symmetry_space_group_name_H-M  'Pmmn'
_cell_length_a       5.58235
_cell_length_b       5.6118
_cell_length_c       6.00699
_cell_angle_alpha    90
_cell_angle_beta     90
_cell_angle_gamma    90

_symmetry_Int_Tables_number  59
_chemical_formula_structural  KNa2BO3
_chemical_formula_sum  K2Na4B2O6
_cell_volume  188.18111443101168
_cell_formula_units_Z  2
loop_
  _symmetry_equiv_pos_site_id
 _symmetry_equiv_pos_as_xyz
 1  'x, y, z'
loop_
 _atom_site_type_symbol
 _atom_site_label
 _atom_site_symmetry_multiplicity
 _atom_site_fract_x
 _atom_site_fract_y
 _atom_site_fract_z
 _atom_site_fract_occupancy
 B  B1  1  0.79654  0.50000  0.50000  1
 B  B2  1  0.20346  0.00000  0.00000  1
 K  K1  1  0.91886  0.50000  0.00000  1
 K  K2  1  0.08114  0.00000  0.50000  1
 Na  Na1  1  0.37387  0.50000  0.27024  1
 Na  Na2  1  0.37387  0.50000  0.72976  1
 Na  Na3  1  0.62613  0.00000  0.22976  1
 Na  Na4  1  0.62613  0.00000  0.77024  1
 O  O1  1  0.66546  0.28707  0.50000  1
 O  O2  1  0.33454  0.21293  0.00000  1
 O  O3  1  0.04481  0.50000  0.50000  1
 O  O4  1  0.95519  0.00000  0.00000  1
 O  O5  1  0.33454  0.78707  0.00000  1
 O  O6  1  0.66546  0.71293  0.50000  1
