CIF file written using JARVIS-Tools package.
data_PrTe3
_symmetry_space_group_name_H-M  'Cmcm'
_cell_length_a       4.41628
_cell_length_b       4.41666
_cell_length_c       13.4515
_cell_angle_alpha    90
_cell_angle_beta     99.4483
_cell_angle_gamma    90

_symmetry_Int_Tables_number  63
_chemical_formula_structural  PrTe3
_chemical_formula_sum  Pr2Te6
_cell_volume  258.8154438186163
_cell_formula_units_Z  2
loop_
  _symmetry_equiv_pos_site_id
 _symmetry_equiv_pos_as_xyz
 1  'x, y, z'
loop_
 _atom_site_type_symbol
 _atom_site_label
 _atom_site_symmetry_multiplicity
 _atom_site_fract_x
 _atom_site_fract_y
 _atom_site_fract_z
 _atom_site_fract_occupancy
 Pr  Pr1  1  0.75094  0.25000  0.66197  1
 Pr  Pr2  1  0.08897  0.75000  0.33803  1
 Te  Te1  1  0.49145  0.75000  0.14300  1
 Te  Te2  1  0.34844  0.25000  0.85700  1
 Te  Te3  1  0.21463  0.75000  0.58935  1
 Te  Te4  1  0.62529  0.25000  0.41065  1
 Te  Te5  1  0.99133  0.25000  0.14278  1
 Te  Te6  1  0.84855  0.75000  0.85722  1
