CIF file written using JARVIS-Tools package.
data_ThGe2
_symmetry_space_group_name_H-M  'Cmcm'
_cell_length_a       4.03016
_cell_length_b       4.17964
_cell_length_c       8.73996
_cell_angle_alpha    103.834
_cell_angle_beta     90
_cell_angle_gamma    90

_symmetry_Int_Tables_number  63
_chemical_formula_structural  ThGe2
_chemical_formula_sum  Th2Ge4
_cell_volume  142.95034458985975
_cell_formula_units_Z  2
loop_
  _symmetry_equiv_pos_site_id
 _symmetry_equiv_pos_as_xyz
 1  'x, y, z'
loop_
 _atom_site_type_symbol
 _atom_site_label
 _atom_site_symmetry_multiplicity
 _atom_site_fract_x
 _atom_site_fract_y
 _atom_site_fract_z
 _atom_site_fract_occupancy
 Ge  Ge1  1  0.25000  0.54905  0.09811  1
 Ge  Ge2  1  0.75000  0.45095  0.90189  1
 Ge  Ge3  1  0.75000  0.74896  0.49792  1
 Ge  Ge4  1  0.25000  0.25104  0.50208  1
 Th  Th1  1  0.25000  0.89209  0.78418  1
 Th  Th2  1  0.75000  0.10791  0.21582  1
