CIF file written using JARVIS-Tools package.
data_Hg2As3Br
_symmetry_space_group_name_H-M  'C2/c'
_cell_length_a       6.26811
_cell_length_b       6.26811
_cell_length_c       8.28747
_cell_angle_alpha    95.7976
_cell_angle_beta     95.7976
_cell_angle_gamma    97.188

_symmetry_Int_Tables_number  15
_chemical_formula_structural  Hg2As3Br
_chemical_formula_sum  Hg4As6Br2
_cell_volume  319.2588403856382
_cell_formula_units_Z  2
loop_
  _symmetry_equiv_pos_site_id
 _symmetry_equiv_pos_as_xyz
 1  'x, y, z'
loop_
 _atom_site_type_symbol
 _atom_site_label
 _atom_site_symmetry_multiplicity
 _atom_site_fract_x
 _atom_site_fract_y
 _atom_site_fract_z
 _atom_site_fract_occupancy
 As  As1  1  0.93855  0.80671  0.01092  1
 As  As2  1  0.19329  0.06145  0.48908  1
 As  As3  1  0.06145  0.19329  0.98908  1
 As  As4  1  0.79162  0.20838  0.75000  1
 As  As5  1  0.20838  0.79162  0.25000  1
 As  As6  1  0.80671  0.93855  0.51092  1
 Br  Br1  1  0.36299  0.63701  0.75000  1
 Br  Br2  1  0.63701  0.36299  0.25000  1
 Hg  Hg1  1  0.84360  0.59075  0.64737  1
 Hg  Hg2  1  0.40925  0.15640  0.85263  1
 Hg  Hg3  1  0.59075  0.84360  0.14737  1
 Hg  Hg4  1  0.15640  0.40925  0.35263  1
