CIF file written using JARVIS-Tools package.
data_Rb2TaAgS4
_symmetry_space_group_name_H-M  'Fddd'
_cell_length_a       5.95037
_cell_length_b       7.37669
_cell_length_c       12.0487
_cell_angle_alpha    84.2843
_cell_angle_beta     75.704
_cell_angle_gamma    66.214

_symmetry_Int_Tables_number  70
_chemical_formula_structural  Rb2TaAgS4
_chemical_formula_sum  Rb4Ta2Ag2S8
_cell_volume  468.9558477238009
_cell_formula_units_Z  2
loop_
  _symmetry_equiv_pos_site_id
 _symmetry_equiv_pos_as_xyz
 1  'x, y, z'
loop_
 _atom_site_type_symbol
 _atom_site_label
 _atom_site_symmetry_multiplicity
 _atom_site_fract_x
 _atom_site_fract_y
 _atom_site_fract_z
 _atom_site_fract_occupancy
 Ag  Ag1  1  0.12500  0.75000  0.75000  1
 Ag  Ag2  1  0.87500  0.25000  0.25000  1
 Rb  Rb1  1  0.19436  0.25000  0.61128  1
 Rb  Rb2  1  0.80564  0.75000  0.38872  1
 Rb  Rb3  1  0.55564  0.25000  0.88872  1
 Rb  Rb4  1  0.44436  0.75000  0.11128  1
 S  S1  1  0.88364  0.54699  0.86487  1
 S  S2  1  0.79550  0.95301  0.63513  1
 S  S3  1  0.56937  0.54699  0.63513  1
 S  S4  1  0.25149  0.95301  0.86487  1
 S  S5  1  0.11636  0.45301  0.13513  1
 S  S6  1  0.74851  0.04699  0.13513  1
 S  S7  1  0.43063  0.45301  0.36487  1
 S  S8  1  0.20450  0.04699  0.36487  1
 Ta  Ta1  1  0.62500  0.75000  0.75000  1
 Ta  Ta2  1  0.37500  0.25000  0.25000  1
