CIF file written using JARVIS-Tools package.
data_K2VCuS4
_symmetry_space_group_name_H-M  'Fddd'
_cell_length_a       5.42312
_cell_length_b       6.94088
_cell_length_c       11.5283
_cell_angle_alpha    84.7277
_cell_angle_beta     76.3961
_cell_angle_gamma    67.0041

_symmetry_Int_Tables_number  70
_chemical_formula_structural  K2VCuS4
_chemical_formula_sum  K4V2Cu2S8
_cell_volume  388.24830414091196
_cell_formula_units_Z  2
loop_
  _symmetry_equiv_pos_site_id
 _symmetry_equiv_pos_as_xyz
 1  'x, y, z'
loop_
 _atom_site_type_symbol
 _atom_site_label
 _atom_site_symmetry_multiplicity
 _atom_site_fract_x
 _atom_site_fract_y
 _atom_site_fract_z
 _atom_site_fract_occupancy
 Cu  Cu1  1  0.12500  0.75000  0.75000  1
 Cu  Cu2  1  0.87500  0.25000  0.25000  1
 K  K1  1  0.44561  0.75000  0.10879  1
 K  K2  1  0.19561  0.25000  0.60879  1
 K  K3  1  0.80439  0.75000  0.39121  1
 K  K4  1  0.55439  0.25000  0.89121  1
 S  S1  1  0.10151  0.44938  0.13802  1
 S  S2  1  0.89849  0.55062  0.86198  1
 S  S3  1  0.23952  0.94938  0.86198  1
 S  S4  1  0.55089  0.55062  0.63802  1
 S  S5  1  0.18891  0.05062  0.36198  1
 S  S6  1  0.44911  0.44938  0.36198  1
 S  S7  1  0.76048  0.05062  0.13802  1
 S  S8  1  0.81109  0.94938  0.63802  1
 V  V1  1  0.37500  0.25000  0.25000  1
 V  V2  1  0.62500  0.75000  0.75000  1
