CIF file written using JARVIS-Tools package.
data_Co3C2Se2O10
_symmetry_space_group_name_H-M  'C2/m'
_cell_length_a       5.60879
_cell_length_b       5.60907
_cell_length_c       7.67939
_cell_angle_alpha    96.7406
_cell_angle_beta     111.067
_cell_angle_gamma    110.316

_symmetry_Int_Tables_number  12
_chemical_formula_structural  Co3C2Se2O10
_chemical_formula_sum  Co3C2Se2O0
_cell_volume  203.16563871050028
_cell_formula_units_Z  1
loop_
  _symmetry_equiv_pos_site_id
 _symmetry_equiv_pos_as_xyz
 1  'x, y, z'
loop_
 _atom_site_type_symbol
 _atom_site_label
 _atom_site_symmetry_multiplicity
 _atom_site_fract_x
 _atom_site_fract_y
 _atom_site_fract_z
 _atom_site_fract_occupancy
 C  C1  1  0.10894  0.45776  0.56663  1
 C  C2  1  0.89106  0.54224  0.43337  1
 Co  Co1  1  0.98883  0.19003  0.17885  1
 Co  Co2  1  0.01117  0.80997  0.82115  1
 Co  Co3  1  0.50000  0.50000  0.00000  1
 O  O1  1  0.81882  0.69575  0.51474  1
 O  O2  1  0.19653  0.55260  0.74905  1
 O  O3  1  0.34492  0.11815  0.84597  1
 O  O4  1  0.18328  0.94222  0.12541  1
 O  O5  1  0.81672  0.05778  0.87459  1
 O  O6  1  0.80347  0.44740  0.25095  1
 O  O7  1  0.18118  0.30425  0.48526  1
 O  O8  1  0.72791  0.50104  0.84606  1
 O  O9  1  0.27209  0.49896  0.15394  1
 O  O10  1  0.65508  0.88185  0.15403  1
 Se  Se1  1  0.42507  0.84222  0.26730  1
 Se  Se2  1  0.57493  0.15778  0.73270  1
