CIF file written using JARVIS-Tools package.
data_UGeAu
_symmetry_space_group_name_H-M  'P6_3/mmc'
_cell_length_a       4.42492
_cell_length_b       4.42492
_cell_length_c       15.2717
_cell_angle_alpha    90
_cell_angle_beta     90
_cell_angle_gamma    120

_symmetry_Int_Tables_number  194
_chemical_formula_structural  UGeAu
_chemical_formula_sum  U4Ge4Au4
_cell_volume  258.95694779829154
_cell_formula_units_Z  4
loop_
  _symmetry_equiv_pos_site_id
 _symmetry_equiv_pos_as_xyz
 1  'x, y, z'
loop_
 _atom_site_type_symbol
 _atom_site_label
 _atom_site_symmetry_multiplicity
 _atom_site_fract_x
 _atom_site_fract_y
 _atom_site_fract_z
 _atom_site_fract_occupancy
 Au  Au1  1  0.33333  0.66667  0.85365  1
 Au  Au2  1  0.66667  0.33333  0.35365  1
 Au  Au3  1  0.66667  0.33333  0.14635  1
 Au  Au4  1  0.33333  0.66667  0.64635  1
 Ge  Ge1  1  0.33333  0.66667  0.10726  1
 Ge  Ge2  1  0.66667  0.33333  0.60726  1
 Ge  Ge3  1  0.66667  0.33333  0.89274  1
 Ge  Ge4  1  0.33333  0.66667  0.39274  1
 U  U1  1  0.00000  0.00000  0.25000  1
 U  U2  1  0.00000  0.00000  0.75000  1
 U  U3  1  0.00000  0.00000  0.50000  1
 U  U4  1  0.00000  0.00000  0.00000  1
