CIF file written using JARVIS-Tools package.
data_TiCo3O8
_symmetry_space_group_name_H-M  'R-3m'
_cell_length_a       5.47071
_cell_length_b       5.7136
_cell_length_c       5.7136
_cell_angle_alpha    60
_cell_angle_beta     58.5201
_cell_angle_gamma    90

_symmetry_Int_Tables_number  166
_chemical_formula_structural  TiCo3O8
_chemical_formula_sum  TiCo3O8
_cell_volume  123.38511865356769
_cell_formula_units_Z  1
loop_
  _symmetry_equiv_pos_site_id
 _symmetry_equiv_pos_as_xyz
 1  'x, y, z'
loop_
 _atom_site_type_symbol
 _atom_site_label
 _atom_site_symmetry_multiplicity
 _atom_site_fract_x
 _atom_site_fract_y
 _atom_site_fract_z
 _atom_site_fract_occupancy
 Co  Co1  1  0.00000  0.00000  0.50000  1
 Co  Co2  1  -0.00000  0.50000  0.00000  1
 Co  Co3  1  -0.00000  0.50000  0.50000  1
 O  O1  1  0.22060  0.24669  0.02609  1
 O  O2  1  0.22060  0.24669  0.50661  1
 O  O3  1  0.22060  0.72721  0.02609  1
 O  O4  1  0.21214  0.73738  0.52524  1
 O  O5  1  0.78786  0.26262  0.47476  1
 O  O6  1  0.77940  0.27279  0.97391  1
 O  O7  1  0.77940  0.75331  0.49339  1
 O  O8  1  0.77940  0.75331  0.97391  1
 Ti  Ti1  1  0.00000  0.00000  0.00000  1
