CIF file written using JARVIS-Tools package.
data_Ba2Nd2Co4O11
_symmetry_space_group_name_H-M  'Pmmm'
_cell_length_a       3.83019
_cell_length_b       7.58538
_cell_length_c       7.98402
_cell_angle_alpha    90
_cell_angle_beta     90
_cell_angle_gamma    90

_symmetry_Int_Tables_number  47
_chemical_formula_structural  Ba2Nd2Co4O11
_chemical_formula_sum  Ba2Nd2Co4O
_cell_volume  231.9628131764252
_cell_formula_units_Z  1
loop_
  _symmetry_equiv_pos_site_id
 _symmetry_equiv_pos_as_xyz
 1  'x, y, z'
loop_
 _atom_site_type_symbol
 _atom_site_label
 _atom_site_symmetry_multiplicity
 _atom_site_fract_x
 _atom_site_fract_y
 _atom_site_fract_z
 _atom_site_fract_occupancy
 Ba  Ba1  1  0.50000  0.00000  0.75272  1
 Ba  Ba2  1  0.50000  0.00000  0.24728  1
 Co  Co1  1  0.00000  0.25416  0.00000  1
 Co  Co2  1  0.00000  0.74584  0.00000  1
 Co  Co3  1  0.00000  0.75192  0.50000  1
 Co  Co4  1  0.00000  0.24808  0.50000  1
 Nd  Nd1  1  0.50000  0.50000  0.26845  1
 Nd  Nd2  1  0.50000  0.50000  0.73155  1
 O  O1  1  0.00000  0.28842  0.76473  1
 O  O2  1  0.00000  0.50000  0.50000  1
 O  O3  1  0.00000  0.28842  0.23527  1
 O  O4  1  0.00000  0.71158  0.76473  1
 O  O5  1  0.50000  0.69522  0.00000  1
 O  O6  1  0.50000  0.73292  0.50000  1
 O  O7  1  0.50000  0.30478  0.00000  1
 O  O8  1  0.50000  0.26708  0.50000  1
 O  O9  1  0.00000  0.00000  0.00000  1
 O  O10  1  0.00000  0.71158  0.23527  1
 O  O11  1  0.00000  0.00000  0.50000  1
