CIF file written using JARVIS-Tools package.
data_CaWO3
_symmetry_space_group_name_H-M  'Cm'
_cell_length_a       3.98244
_cell_length_b       3.98245
_cell_length_c       3.98287
_cell_angle_alpha    90.1072
_cell_angle_beta     90.1073
_cell_angle_gamma    87.1471

_symmetry_Int_Tables_number  8
_chemical_formula_structural  CaWO3
_chemical_formula_sum  CaWO3
_cell_volume  63.08940457145609
_cell_formula_units_Z  1
loop_
  _symmetry_equiv_pos_site_id
 _symmetry_equiv_pos_as_xyz
 1  'x, y, z'
loop_
 _atom_site_type_symbol
 _atom_site_label
 _atom_site_symmetry_multiplicity
 _atom_site_fract_x
 _atom_site_fract_y
 _atom_site_fract_z
 _atom_site_fract_occupancy
 Ca  Ca1  1  0.52897  0.52883  0.50856  1
 O  O1  1  0.96178  0.96182  0.51149  1
 O  O2  1  0.96040  0.46704  0.01177  1
 O  O3  1  0.46701  0.96045  0.01176  1
 W  W1  1  0.96851  0.96853  0.01141  1
