CIF file written using JARVIS-Tools package.
data_BaWO4
_symmetry_space_group_name_H-M  'I4_1/a'
_cell_length_a       5.67574
_cell_length_b       5.67593
_cell_length_c       7.54602
_cell_angle_alpha    112.088
_cell_angle_beta     112.089
_cell_angle_gamma    89.9961

_symmetry_Int_Tables_number  88
_chemical_formula_structural  BaWO4
_chemical_formula_sum  Ba2W2O8
_cell_volume  205.8735918198453
_cell_formula_units_Z  2
loop_
  _symmetry_equiv_pos_site_id
 _symmetry_equiv_pos_as_xyz
 1  'x, y, z'
loop_
 _atom_site_type_symbol
 _atom_site_label
 _atom_site_symmetry_multiplicity
 _atom_site_fract_x
 _atom_site_fract_y
 _atom_site_fract_z
 _atom_site_fract_occupancy
 Ba  Ba1  1  0.12499  0.37501  0.75000  1
 Ba  Ba2  1  0.87501  0.62499  0.25000  1
 O  O1  1  0.42259  0.81451  0.09223  1
 O  O2  1  0.31450  0.66967  0.59223  1
 O  O3  1  0.77775  0.92257  0.59224  1
 O  O4  1  0.16967  0.27773  0.09222  1
 O  O5  1  0.83033  0.72227  0.90778  1
 O  O6  1  0.22225  0.07743  0.40776  1
 O  O7  1  0.68550  0.33033  0.40777  1
 O  O8  1  0.57741  0.18549  0.90777  1
 W  W1  1  0.62499  0.87500  0.75000  1
 W  W2  1  0.37501  0.12500  0.25000  1
