CIF file written using JARVIS-Tools package.
data_GaSe
_symmetry_space_group_name_H-M  'P-6m2'
_cell_length_a       3.80801
_cell_length_b       3.80801
_cell_length_c       16.0783
_cell_angle_alpha    90
_cell_angle_beta     90
_cell_angle_gamma    120

_symmetry_Int_Tables_number  187
_chemical_formula_structural  GaSe
_chemical_formula_sum  Ga4Se4
_cell_volume  201.91416206648856
_cell_formula_units_Z  4
loop_
  _symmetry_equiv_pos_site_id
 _symmetry_equiv_pos_as_xyz
 1  'x, y, z'
loop_
 _atom_site_type_symbol
 _atom_site_label
 _atom_site_symmetry_multiplicity
 _atom_site_fract_x
 _atom_site_fract_y
 _atom_site_fract_z
 _atom_site_fract_occupancy
 Ga  Ga1  1  0.00000  0.00000  0.92365  1
 Ga  Ga2  1  0.00000  0.00000  0.07635  1
 Ga  Ga3  1  0.66667  0.33333  0.57635  1
 Ga  Ga4  1  0.66667  0.33333  0.42365  1
 Se  Se1  1  0.66667  0.33333  0.14917  1
 Se  Se2  1  0.66667  0.33333  0.85083  1
 Se  Se3  1  0.33333  0.66667  0.35076  1
 Se  Se4  1  0.33333  0.66667  0.64924  1
