CIF file written using JARVIS-Tools package.
data_CaTi2N2
_symmetry_space_group_name_H-M  'P-4m2'
_cell_length_a       3.22933
_cell_length_b       3.22936
_cell_length_c       8.22939
_cell_angle_alpha    90
_cell_angle_beta     90
_cell_angle_gamma    90

_symmetry_Int_Tables_number  115
_chemical_formula_structural  CaTi2N2
_chemical_formula_sum  CaTi2N2
_cell_volume  85.82157003830429
_cell_formula_units_Z  1
loop_
  _symmetry_equiv_pos_site_id
 _symmetry_equiv_pos_as_xyz
 1  'x, y, z'
loop_
 _atom_site_type_symbol
 _atom_site_label
 _atom_site_symmetry_multiplicity
 _atom_site_fract_x
 _atom_site_fract_y
 _atom_site_fract_z
 _atom_site_fract_occupancy
 Ca  Ca1  1  0.00000  0.00000  0.75000  1
 N  N1  1  0.00000  0.50000  0.54953  1
 N  N2  1  0.50000  0.00000  0.95047  1
 Ti  Ti1  1  0.50000  0.50000  0.07495  1
 Ti  Ti2  1  0.50000  0.50000  0.42505  1
