CIF file written using JARVIS-Tools package.
data_Na2Te2O7
_symmetry_space_group_name_H-M  'Imma'
_cell_length_a       7.34266
_cell_length_b       7.338
_cell_length_c       7.338
_cell_angle_alpha    61.639
_cell_angle_beta     59.979
_cell_angle_gamma    59.9789

_symmetry_Int_Tables_number  74
_chemical_formula_structural  Na2Te2O7
_chemical_formula_sum  Na4Te4O4
_cell_volume  282.7772208565526
_cell_formula_units_Z  2
loop_
  _symmetry_equiv_pos_site_id
 _symmetry_equiv_pos_as_xyz
 1  'x, y, z'
loop_
 _atom_site_type_symbol
 _atom_site_label
 _atom_site_symmetry_multiplicity
 _atom_site_fract_x
 _atom_site_fract_y
 _atom_site_fract_z
 _atom_site_fract_occupancy
 Na  Na1  1  0.00000  0.00000  0.50000  1
 Na  Na2  1  0.50000  -0.00000  0.50000  1
 Na  Na3  1  0.50000  -0.00000  0.00000  1
 Na  Na4  1  0.00000  0.50000  0.50000  1
 O  O1  1  0.91215  0.81275  0.94565  1
 O  O2  1  0.82945  0.44565  0.31275  1
 O  O3  1  0.58785  0.55435  0.68725  1
 O  O4  1  0.32945  0.81275  0.94565  1
 O  O5  1  0.08785  0.18725  0.05435  1
 O  O6  1  0.17055  0.55435  0.68725  1
 O  O7  1  0.41215  0.44565  0.31275  1
 O  O8  1  0.25000  0.40726  0.09274  1
 O  O9  1  0.91833  0.86170  0.30165  1
 O  O10  1  0.75000  0.59274  0.90726  1
 O  O11  1  0.41833  0.80165  0.36170  1
 O  O12  1  0.58167  0.19835  0.63830  1
 O  O13  1  0.67055  0.18725  0.05435  1
 O  O14  1  0.08167  0.13830  0.69835  1
 Te  Te1  1  0.50000  0.50000  0.00000  1
 Te  Te2  1  0.00000  0.00000  0.00000  1
 Te  Te3  1  0.50000  0.50000  0.50000  1
 Te  Te4  1  0.00000  0.50000  0.00000  1
