CIF file written using JARVIS-Tools package.
data_Na2SO4
_symmetry_space_group_name_H-M  'P-3m1'
_cell_length_a       4.93931
_cell_length_b       4.93931
_cell_length_c       8.16777
_cell_angle_alpha    90
_cell_angle_beta     90
_cell_angle_gamma    120

_symmetry_Int_Tables_number  164
_chemical_formula_structural  Na2SO4
_chemical_formula_sum  Na4S2O8
_cell_volume  172.5709222202538
_cell_formula_units_Z  2
loop_
  _symmetry_equiv_pos_site_id
 _symmetry_equiv_pos_as_xyz
 1  'x, y, z'
loop_
 _atom_site_type_symbol
 _atom_site_label
 _atom_site_symmetry_multiplicity
 _atom_site_fract_x
 _atom_site_fract_y
 _atom_site_fract_z
 _atom_site_fract_occupancy
 Na  Na1  1  0.00000  0.00000  0.00000  1
 Na  Na2  1  0.00000  0.00000  0.50000  1
 Na  Na3  1  0.66667  0.33333  0.95916  1
 Na  Na4  1  0.33333  0.66667  0.04084  1
 O  O1  1  0.69064  0.84532  0.22980  1
 O  O2  1  0.15468  0.30936  0.22980  1
 O  O3  1  0.15468  0.84532  0.22980  1
 O  O4  1  0.84532  0.15468  0.77020  1
 O  O5  1  0.84532  0.69064  0.77020  1
 O  O6  1  0.30936  0.15468  0.77020  1
 O  O7  1  0.33333  0.66667  0.53955  1
 O  O8  1  0.66667  0.33333  0.46045  1
 S  S1  1  0.33333  0.66667  0.71584  1
 S  S2  1  0.66667  0.33333  0.28416  1
