CIF file written using JARVIS-Tools package.
data_SrGeH2O4
_symmetry_space_group_name_H-M  'I-42d'
_cell_length_a       6.21875
_cell_length_b       6.21875
_cell_length_c       6.21875
_cell_angle_alpha    107.212
_cell_angle_beta     107.212
_cell_angle_gamma    114.092

_symmetry_Int_Tables_number  122
_chemical_formula_structural  SrGeH2O4
_chemical_formula_sum  Sr2Ge2H4O8
_cell_volume  184.22402432379974
_cell_formula_units_Z  2
loop_
  _symmetry_equiv_pos_site_id
 _symmetry_equiv_pos_as_xyz
 1  'x, y, z'
loop_
 _atom_site_type_symbol
 _atom_site_label
 _atom_site_symmetry_multiplicity
 _atom_site_fract_x
 _atom_site_fract_y
 _atom_site_fract_z
 _atom_site_fract_occupancy
 Ge  Ge1  1  0.00000  0.00000  0.00000  1
 Ge  Ge2  1  0.75000  0.25000  0.50000  1
 H  H1  1  0.69794  0.62500  0.57294  1
 H  H2  1  0.37500  0.94794  0.07294  1
 H  H3  1  0.87500  0.30206  0.92706  1
 H  H4  1  0.05206  0.12500  0.42706  1
 O  O1  1  0.01584  0.92923  0.26057  1
 O  O2  1  0.07077  0.33134  0.08662  1
 O  O3  1  0.24472  0.98416  0.91338  1
 O  O4  1  0.66866  0.75528  0.73943  1
 O  O5  1  0.08134  0.32077  0.58662  1
 O  O6  1  0.73416  0.49472  0.41338  1
 O  O7  1  0.67923  0.26584  0.76057  1
 O  O8  1  0.50528  0.91866  0.23943  1
 Sr  Sr1  1  0.50000  0.50000  0.00000  1
 Sr  Sr2  1  0.25000  0.75000  0.50000  1
