CIF file written using JARVIS-Tools package.
data_BaV2O6
_symmetry_space_group_name_H-M  'C222'
_cell_length_a       7.6668
_cell_length_b       7.66681
_cell_length_c       7.97226
_cell_angle_alpha    90
_cell_angle_beta     90
_cell_angle_gamma    112.121

_symmetry_Int_Tables_number  21
_chemical_formula_structural  BaV2O6
_chemical_formula_sum  Ba3V6O8
_cell_volume  434.11371757942936
_cell_formula_units_Z  3
loop_
  _symmetry_equiv_pos_site_id
 _symmetry_equiv_pos_as_xyz
 1  'x, y, z'
loop_
 _atom_site_type_symbol
 _atom_site_label
 _atom_site_symmetry_multiplicity
 _atom_site_fract_x
 _atom_site_fract_y
 _atom_site_fract_z
 _atom_site_fract_occupancy
 Ba  Ba1  1  0.00000  0.00000  0.00000  1
 Ba  Ba2  1  0.83598  0.16402  0.50000  1
 Ba  Ba3  1  0.16402  0.83598  0.50000  1
 O  O1  1  0.14002  0.40484  0.06197  1
 O  O2  1  0.59516  0.85998  0.93803  1
 O  O3  1  0.40484  0.14003  0.93803  1
 O  O4  1  0.82905  0.51036  0.41548  1
 O  O5  1  0.17095  0.48964  0.41548  1
 O  O6  1  0.51036  0.82905  0.58452  1
 O  O7  1  0.48964  0.17095  0.58452  1
 O  O8  1  0.13520  0.68074  0.81702  1
 O  O9  1  0.50000  0.50000  0.75491  1
 O  O10  1  0.50000  0.50000  0.24509  1
 O  O11  1  0.16251  0.17024  0.69878  1
 O  O12  1  0.85998  0.59516  0.06197  1
 O  O13  1  0.82976  0.83749  0.30122  1
 O  O14  1  0.31926  0.86480  0.18298  1
 O  O15  1  0.68074  0.13520  0.18298  1
 O  O16  1  0.17024  0.16250  0.30122  1
 O  O17  1  0.83749  0.82976  0.69878  1
 O  O18  1  0.86480  0.31926  0.81702  1
 V  V1  1  0.00000  0.50000  0.93444  1
 V  V2  1  0.50000  -0.00000  0.06556  1
 V  V3  1  0.25068  0.39540  0.26068  1
 V  V4  1  0.74932  0.60461  0.26068  1
 V  V5  1  0.60461  0.74932  0.73932  1
 V  V6  1  0.39540  0.25068  0.73932  1
