CIF file written using JARVIS-Tools package.
data_LuH3O3
_symmetry_space_group_name_H-M  'P2_1/c'
_cell_length_a       5.78089
_cell_length_b       10.1761
_cell_length_c       4.9401
_cell_angle_alpha    90
_cell_angle_beta     80.243
_cell_angle_gamma    90

_symmetry_Int_Tables_number  14
_chemical_formula_structural  LuH3O3
_chemical_formula_sum  Lu4H2O2
_cell_volume  286.4080309182857
_cell_formula_units_Z  4
loop_
  _symmetry_equiv_pos_site_id
 _symmetry_equiv_pos_as_xyz
 1  'x, y, z'
loop_
 _atom_site_type_symbol
 _atom_site_label
 _atom_site_symmetry_multiplicity
 _atom_site_fract_x
 _atom_site_fract_y
 _atom_site_fract_z
 _atom_site_fract_occupancy
 H  H1  1  0.15697  0.06930  0.20206  1
 H  H2  1  0.36530  0.30591  0.36927  1
 H  H3  1  0.13470  0.80591  0.63073  1
 H  H4  1  0.19807  0.63486  0.44487  1
 H  H5  1  0.86530  0.19409  0.36927  1
 H  H6  1  0.84303  0.93070  0.79794  1
 H  H7  1  0.69807  0.86514  0.44487  1
 H  H8  1  0.65697  0.43070  0.20206  1
 H  H9  1  0.63470  0.69409  0.63073  1
 H  H10  1  0.80193  0.36514  0.55513  1
 H  H11  1  0.34303  0.56930  0.79794  1
 H  H12  1  0.30193  0.13486  0.55513  1
 Lu  Lu1  1  0.09383  0.34001  0.94724  1
 Lu  Lu2  1  0.59383  0.15999  0.94724  1
 Lu  Lu3  1  0.40617  0.84001  0.05276  1
 Lu  Lu4  1  0.90617  0.65999  0.05276  1
 O  O1  1  0.39310  0.32791  0.17074  1
 O  O2  1  0.66736  0.79470  0.31750  1
 O  O3  1  0.83264  0.29470  0.68250  1
 O  O4  1  0.60690  0.67209  0.82926  1
 O  O5  1  0.68236  0.96295  0.78687  1
 O  O6  1  0.31764  0.03705  0.21313  1
 O  O7  1  0.33264  0.20530  0.68250  1
 O  O8  1  0.16736  0.70530  0.31750  1
 O  O9  1  0.10690  0.82791  0.82926  1
 O  O10  1  0.18236  0.53705  0.78687  1
 O  O11  1  0.89310  0.17209  0.17074  1
 O  O12  1  0.81764  0.46295  0.21313  1
