CIF file written using JARVIS-Tools package.
data_NdFe3B4O12
_symmetry_space_group_name_H-M  'R32'
_cell_length_a       5.97318
_cell_length_b       5.97318
_cell_length_c       5.97318
_cell_angle_alpha    104.393
_cell_angle_beta     104.393
_cell_angle_gamma    104.393

_symmetry_Int_Tables_number  155
_chemical_formula_structural  NdFe3B4O12
_chemical_formula_sum  NdFe3B4O2
_cell_volume  188.6909664431494
_cell_formula_units_Z  1
loop_
  _symmetry_equiv_pos_site_id
 _symmetry_equiv_pos_as_xyz
 1  'x, y, z'
loop_
 _atom_site_type_symbol
 _atom_site_label
 _atom_site_symmetry_multiplicity
 _atom_site_fract_x
 _atom_site_fract_y
 _atom_site_fract_z
 _atom_site_fract_occupancy
 B  B1  1  0.06326  0.50000  0.93674  1
 B  B2  1  0.50000  0.50000  0.50000  1
 B  B3  1  0.93674  0.06326  0.50000  1
 B  B4  1  0.50000  0.93674  0.06326  1
 Fe  Fe1  1  0.00000  0.56114  0.43886  1
 Fe  Fe2  1  0.43886  -0.00000  0.56114  1
 Fe  Fe3  1  0.56114  0.43886  0.00000  1
 Nd  Nd1  1  0.00000  0.00000  0.00000  1
 O  O1  1  0.37544  0.96964  0.22523  1
 O  O2  1  0.96964  0.22523  0.37544  1
 O  O3  1  0.91474  0.50000  0.08526  1
 O  O4  1  0.50000  0.08526  0.91474  1
 O  O5  1  0.08526  0.91474  0.50000  1
 O  O6  1  0.62456  0.77477  0.03036  1
 O  O7  1  0.35228  0.64772  0.50000  1
 O  O8  1  0.03036  0.62456  0.77477  1
 O  O9  1  0.22523  0.37544  0.96964  1
 O  O10  1  0.77477  0.03036  0.62456  1
 O  O11  1  0.64772  0.50000  0.35228  1
 O  O12  1  0.50000  0.35228  0.64772  1
