CIF file written using JARVIS-Tools package.
data_NdInRh
_symmetry_space_group_name_H-M  'P-62m'
_cell_length_a       7.62378
_cell_length_b       7.62378
_cell_length_c       4.04609
_cell_angle_alpha    90
_cell_angle_beta     90
_cell_angle_gamma    120

_symmetry_Int_Tables_number  189
_chemical_formula_structural  NdInRh
_chemical_formula_sum  Nd3In3Rh3
_cell_volume  203.6610072506811
_cell_formula_units_Z  3
loop_
  _symmetry_equiv_pos_site_id
 _symmetry_equiv_pos_as_xyz
 1  'x, y, z'
loop_
 _atom_site_type_symbol
 _atom_site_label
 _atom_site_symmetry_multiplicity
 _atom_site_fract_x
 _atom_site_fract_y
 _atom_site_fract_z
 _atom_site_fract_occupancy
 In  In1  1  0.25233  0.25233  0.00000  1
 In  In2  1  0.74767  -0.00000  0.00000  1
 In  In3  1  -0.00000  0.74767  0.00000  1
 Nd  Nd1  1  0.59064  0.59064  0.50000  1
 Nd  Nd2  1  0.40936  -0.00000  0.50000  1
 Nd  Nd3  1  -0.00000  0.40936  0.50000  1
 Rh  Rh1  1  0.00000  0.00000  0.50000  1
 Rh  Rh2  1  0.33333  0.66667  0.00000  1
 Rh  Rh3  1  0.66667  0.33333  0.00000  1
