CIF file written using JARVIS-Tools package.
data_Rb2VCuS4
_symmetry_space_group_name_H-M  'Fddd'
_cell_length_a       5.44965
_cell_length_b       7.16752
_cell_length_c       11.9387
_cell_angle_alpha    85.0224
_cell_angle_beta     76.8068
_cell_angle_gamma    67.6562

_symmetry_Int_Tables_number  70
_chemical_formula_structural  Rb2VCuS4
_chemical_formula_sum  Rb4V2Cu2S8
_cell_volume  419.9359799550875
_cell_formula_units_Z  2
loop_
  _symmetry_equiv_pos_site_id
 _symmetry_equiv_pos_as_xyz
 1  'x, y, z'
loop_
 _atom_site_type_symbol
 _atom_site_label
 _atom_site_symmetry_multiplicity
 _atom_site_fract_x
 _atom_site_fract_y
 _atom_site_fract_z
 _atom_site_fract_occupancy
 Cu  Cu1  1  0.62500  0.75000  0.75000  1
 Cu  Cu2  1  0.37500  0.25000  0.25000  1
 Rb  Rb1  1  0.05363  0.25000  0.89275  1
 Rb  Rb2  1  0.69637  0.25000  0.60725  1
 Rb  Rb3  1  0.30363  0.75000  0.39275  1
 Rb  Rb4  1  0.94637  0.75000  0.10725  1
 S  S1  1  0.39703  0.55879  0.85803  1
 S  S2  1  0.31385  0.94121  0.64197  1
 S  S3  1  0.04418  0.55879  0.64197  1
 S  S4  1  0.74494  0.94121  0.85803  1
 S  S5  1  0.25506  0.05879  0.14197  1
 S  S6  1  0.68615  0.05879  0.35803  1
 S  S7  1  0.95582  0.44121  0.35803  1
 S  S8  1  0.60297  0.44121  0.14197  1
 V  V1  1  0.87500  0.25000  0.25000  1
 V  V2  1  0.12500  0.75000  0.75000  1
