CIF file written using JARVIS-Tools package.
data_Co2NiO6
_symmetry_space_group_name_H-M  'C2/m'
_cell_length_a       6.1286
_cell_length_b       2.8274
_cell_length_c       5.40498
_cell_angle_alpha    89.9317
_cell_angle_beta     99.3414
_cell_angle_gamma    76.7231

_symmetry_Int_Tables_number  12
_chemical_formula_structural  Co2NiO6
_chemical_formula_sum  Co2NiO6
_cell_volume  89.87319536571886
_cell_formula_units_Z  1
loop_
  _symmetry_equiv_pos_site_id
 _symmetry_equiv_pos_as_xyz
 1  'x, y, z'
loop_
 _atom_site_type_symbol
 _atom_site_label
 _atom_site_symmetry_multiplicity
 _atom_site_fract_x
 _atom_site_fract_y
 _atom_site_fract_z
 _atom_site_fract_occupancy
 Co  Co1  1  -0.00156  0.99790  -0.00004  1
 Co  Co2  1  0.66394  0.66516  0.66253  1
 Ni  Ni1  1  0.33119  0.33150  0.33125  1
 O  O1  1  0.01276  0.49023  0.23037  1
 O  O2  1  0.34723  0.82300  0.56418  1
 O  O3  1  0.68318  0.15507  0.89213  1
 O  O4  1  0.31516  0.84001  0.09831  1
 O  O5  1  0.64962  0.17281  0.43212  1
 O  O6  1  0.97920  0.50800  0.77036  1
