CIF file written using JARVIS-Tools package.
data_V2OF4
_symmetry_space_group_name_H-M  'C2/c'
_cell_length_a       4.8464
_cell_length_b       5.53482
_cell_length_c       6.80165
_cell_angle_alpha    103.449
_cell_angle_beta     110.87
_cell_angle_gamma    89.9996

_symmetry_Int_Tables_number  15
_chemical_formula_structural  V2OF4
_chemical_formula_sum  V4O2F8
_cell_volume  165.11154984842102
_cell_formula_units_Z  2
loop_
  _symmetry_equiv_pos_site_id
 _symmetry_equiv_pos_as_xyz
 1  'x, y, z'
loop_
 _atom_site_type_symbol
 _atom_site_label
 _atom_site_symmetry_multiplicity
 _atom_site_fract_x
 _atom_site_fract_y
 _atom_site_fract_z
 _atom_site_fract_occupancy
 F  F1  1  0.29616  0.05133  0.77254  1
 F  F2  1  0.47917  0.55133  0.77251  1
 F  F3  1  0.71343  0.86755  0.59596  1
 F  F4  1  0.88533  0.36754  0.59597  1
 F  F5  1  0.11655  0.62979  0.40225  1
 F  F6  1  0.28847  0.12978  0.40226  1
 F  F7  1  0.52270  0.44597  0.22568  1
 F  F8  1  0.70574  0.94598  0.22567  1
 O  O1  1  0.14170  0.74865  0.99911  1
 O  O2  1  0.86020  0.24867  0.99911  1
 V  V1  1  0.10953  0.71813  0.72768  1
 V  V2  1  0.62095  0.21813  0.72768  1
 V  V3  1  0.38095  0.77919  0.27054  1
 V  V4  1  0.89236  0.27920  0.27053  1
