CIF file written using JARVIS-Tools package.
data_DyCoSn2
_symmetry_space_group_name_H-M  'Cmcm'
_cell_length_a       4.42646
_cell_length_b       4.33038
_cell_length_c       9.48608
_cell_angle_alpha    103.194
_cell_angle_beta     90
_cell_angle_gamma    90

_symmetry_Int_Tables_number  63
_chemical_formula_structural  DyCoSn2
_chemical_formula_sum  Dy2Co2Sn4
_cell_volume  177.03200803193695
_cell_formula_units_Z  2
loop_
  _symmetry_equiv_pos_site_id
 _symmetry_equiv_pos_as_xyz
 1  'x, y, z'
loop_
 _atom_site_type_symbol
 _atom_site_label
 _atom_site_symmetry_multiplicity
 _atom_site_fract_x
 _atom_site_fract_y
 _atom_site_fract_z
 _atom_site_fract_occupancy
 Co  Co1  1  0.75000  0.32143  0.64286  1
 Co  Co2  1  0.25000  0.67857  0.35714  1
 Dy  Dy1  1  0.25000  0.88452  0.76904  1
 Dy  Dy2  1  0.75000  0.11548  0.23096  1
 Sn  Sn1  1  0.25000  0.25130  0.50261  1
 Sn  Sn2  1  0.75000  0.74870  0.49739  1
 Sn  Sn3  1  0.75000  0.45208  0.90417  1
 Sn  Sn4  1  0.25000  0.54792  0.09583  1
