CIF file written using JARVIS-Tools package.
data_ReNCl4
_symmetry_space_group_name_H-M  'I4'
_cell_length_a       4.02042
_cell_length_b       6.16608
_cell_length_c       6.16608
_cell_angle_alpha    83.8989
_cell_angle_beta     70.9731
_cell_angle_gamma    70.9732

_symmetry_Int_Tables_number  79
_chemical_formula_structural  ReNCl4
_chemical_formula_sum  ReNCl4
_cell_volume  136.61234188732095
_cell_formula_units_Z  1
loop_
  _symmetry_equiv_pos_site_id
 _symmetry_equiv_pos_as_xyz
 1  'x, y, z'
loop_
 _atom_site_type_symbol
 _atom_site_label
 _atom_site_symmetry_multiplicity
 _atom_site_fract_x
 _atom_site_fract_y
 _atom_site_fract_z
 _atom_site_fract_occupancy
 Cl  Cl1  1  0.80631  0.18970  0.34341  1
 Cl  Cl2  1  0.14972  0.65659  0.18970  1
 Cl  Cl3  1  -0.00399  0.34341  0.81030  1
 Cl  Cl4  1  0.33942  0.81030  0.65659  1
 N  N1  1  0.56554  0.00000  -0.00000  1
 Re  Re1  1  0.98792  -0.00000  0.00000  1
