CIF file written using JARVIS-Tools package.
data_P2Se5
_symmetry_space_group_name_H-M  'P2_1/c'
_cell_length_a       5.75922
_cell_length_b       20.3718
_cell_length_c       7.00006
_cell_angle_alpha    90
_cell_angle_beta     113.559
_cell_angle_gamma    90

_symmetry_Int_Tables_number  14
_chemical_formula_structural  P2Se5
_chemical_formula_sum  P8Se20
_cell_volume  752.8284461585042
_cell_formula_units_Z  4
loop_
  _symmetry_equiv_pos_site_id
 _symmetry_equiv_pos_as_xyz
 1  'x, y, z'
loop_
 _atom_site_type_symbol
 _atom_site_label
 _atom_site_symmetry_multiplicity
 _atom_site_fract_x
 _atom_site_fract_y
 _atom_site_fract_z
 _atom_site_fract_occupancy
 P  P1  1  0.72706  0.66611  0.73174  1
 P  P2  1  0.77294  0.16611  0.26826  1
 P  P3  1  0.27294  0.33389  0.26826  1
 P  P4  1  0.22706  0.83389  0.73174  1
 P  P5  1  0.29883  0.54591  0.72393  1
 P  P6  1  0.20117  0.04591  0.27607  1
 P  P7  1  0.70117  0.45409  0.27607  1
 P  P8  1  0.79883  0.95409  0.72393  1
 Se  Se1  1  0.93089  0.39338  0.56537  1
 Se  Se2  1  0.30062  0.44680  0.26773  1
 Se  Se3  1  0.06911  0.60662  0.43463  1
 Se  Se4  1  0.36713  0.69322  0.44530  1
 Se  Se5  1  0.63287  0.30678  0.55470  1
 Se  Se6  1  0.13287  0.19322  0.55470  1
 Se  Se7  1  0.56911  0.89338  0.43463  1
 Se  Se8  1  0.86713  0.80678  0.44530  1
 Se  Se9  1  0.43089  0.10662  0.56537  1
 Se  Se10  1  0.69938  0.55320  0.73227  1
 Se  Se11  1  0.36576  0.30757  0.98757  1
 Se  Se12  1  0.65571  0.39507  0.98498  1
 Se  Se13  1  0.34429  0.60493  0.01502  1
 Se  Se14  1  0.13424  0.80757  0.01243  1
 Se  Se15  1  0.80062  0.05320  0.26773  1
 Se  Se16  1  0.86576  0.19243  0.98757  1
 Se  Se17  1  0.63424  0.69243  0.01243  1
 Se  Se18  1  0.84429  0.89507  0.01502  1
 Se  Se19  1  0.15571  0.10493  0.98498  1
 Se  Se20  1  0.19938  0.94680  0.73227  1
