CIF file written using JARVIS-Tools package.
data_TbBa2NbO6
_symmetry_space_group_name_H-M  'I4/m'
_cell_length_a       6.02217
_cell_length_b       6.02217
_cell_length_c       6.05017
_cell_angle_alpha    119.847
_cell_angle_beta     119.847
_cell_angle_gamma    90

_symmetry_Int_Tables_number  87
_chemical_formula_structural  TbBa2NbO6
_chemical_formula_sum  TbBa2NbO6
_cell_volume  155.8672530733658
_cell_formula_units_Z  1
loop_
  _symmetry_equiv_pos_site_id
 _symmetry_equiv_pos_as_xyz
 1  'x, y, z'
loop_
 _atom_site_type_symbol
 _atom_site_label
 _atom_site_symmetry_multiplicity
 _atom_site_fract_x
 _atom_site_fract_y
 _atom_site_fract_z
 _atom_site_fract_occupancy
 Ba  Ba1  1  0.75000  0.25000  0.50000  1
 Ba  Ba2  1  0.25000  0.75000  0.50000  1
 Nb  Nb1  1  0.50000  0.50000  -0.00000  1
 O  O1  1  0.76891  0.70308  0.00000  1
 O  O2  1  0.29692  0.76891  -0.00000  1
 O  O3  1  0.70308  0.23109  0.00000  1
 O  O4  1  0.23109  0.29692  -0.00000  1
 O  O5  1  0.26357  0.26357  0.52715  1
 O  O6  1  0.73643  0.73643  0.47285  1
 Tb  Tb1  1  0.00000  0.00000  0.00000  1
