CIF file written using JARVIS-Tools package.
data_KHCO3
_symmetry_space_group_name_H-M  'P2_1/c'
_cell_length_a       3.66156
_cell_length_b       5.63256
_cell_length_c       15.0582
_cell_angle_alpha    90
_cell_angle_beta     105.478
_cell_angle_gamma    90

_symmetry_Int_Tables_number  14
_chemical_formula_structural  KHCO3
_chemical_formula_sum  K4H4C4O2
_cell_volume  299.2958994914678
_cell_formula_units_Z  4
loop_
  _symmetry_equiv_pos_site_id
 _symmetry_equiv_pos_as_xyz
 1  'x, y, z'
loop_
 _atom_site_type_symbol
 _atom_site_label
 _atom_site_symmetry_multiplicity
 _atom_site_fract_x
 _atom_site_fract_y
 _atom_site_fract_z
 _atom_site_fract_occupancy
 C  C1  1  0.37608  0.52335  0.11813  1
 C  C2  1  0.62392  0.02335  0.38187  1
 C  C3  1  0.62392  0.47665  0.88187  1
 C  C4  1  0.37608  0.97665  0.61813  1
 H  H1  1  0.51765  0.19462  0.48731  1
 H  H2  1  0.48235  0.69462  0.01269  1
 H  H3  1  0.48235  0.80538  0.51269  1
 H  H4  1  0.51765  0.30538  0.98731  1
 K  K1  1  0.96514  0.53159  0.33470  1
 K  K2  1  0.03486  0.46841  0.66530  1
 K  K3  1  0.03486  0.03159  0.16530  1
 K  K4  1  0.96514  0.96841  0.83470  1
 O  O1  1  0.42124  0.72873  0.07473  1
 O  O2  1  0.42124  0.77127  0.57473  1
 O  O3  1  0.71779  0.04302  0.30747  1
 O  O4  1  0.28221  0.54302  0.19253  1
 O  O5  1  0.28221  0.95698  0.69253  1
 O  O6  1  0.71779  0.45698  0.80747  1
 O  O7  1  0.56865  0.82657  0.41875  1
 O  O8  1  0.43135  0.32657  0.08125  1
 O  O9  1  0.43135  0.17343  0.58125  1
 O  O10  1  0.56865  0.67343  0.91875  1
 O  O11  1  0.57876  0.22873  0.42527  1
 O  O12  1  0.57876  0.27127  0.92527  1
