CIF file written using JARVIS-Tools package.
data_Sr3As4
_symmetry_space_group_name_H-M  'Fdd2'
_cell_length_a       5.99385
_cell_length_b       8.04886
_cell_length_c       9.45349
_cell_angle_alpha    83.2211
_cell_angle_beta     71.5173
_cell_angle_gamma    68.14

_symmetry_Int_Tables_number  43
_chemical_formula_structural  Sr3As4
_chemical_formula_sum  Sr6As8
_cell_volume  401.44459180120776
_cell_formula_units_Z  2
loop_
  _symmetry_equiv_pos_site_id
 _symmetry_equiv_pos_as_xyz
 1  'x, y, z'
loop_
 _atom_site_type_symbol
 _atom_site_label
 _atom_site_symmetry_multiplicity
 _atom_site_fract_x
 _atom_site_fract_y
 _atom_site_fract_z
 _atom_site_fract_occupancy
 As  As1  1  0.41480  0.67469  0.50568  1
 As  As2  1  0.59517  0.32531  0.49432  1
 As  As3  1  0.83950  0.82531  0.00568  1
 As  As4  1  0.67048  0.17469  0.99432  1
 As  As5  1  0.31398  0.16921  0.66093  1
 As  As6  1  0.14412  0.83079  0.33907  1
 As  As7  1  0.72491  0.66921  0.83907  1
 As  As8  1  0.23319  0.33079  0.16093  1
 Sr  Sr1  1  0.55422  0.00565  0.33364  1
 Sr  Sr2  1  0.89350  0.99435  0.66636  1
 Sr  Sr3  1  0.30987  0.49435  0.83364  1
 Sr  Sr4  1  0.63786  0.50565  0.16636  1
 Sr  Sr5  1  0.00340  0.50000  0.50000  1
 Sr  Sr6  1  0.25340  0.00000  -0.00000  1
