CIF file written using JARVIS-Tools package.
data_Hg2P3Br
_symmetry_space_group_name_H-M  'Pbcn'
_cell_length_a       7.9774
_cell_length_b       8.12313
_cell_length_c       9.00257
_cell_angle_alpha    90
_cell_angle_beta     90
_cell_angle_gamma    90

_symmetry_Int_Tables_number  60
_chemical_formula_structural  Hg2P3Br
_chemical_formula_sum  Hg8P2Br4
_cell_volume  583.3797499370512
_cell_formula_units_Z  4
loop_
  _symmetry_equiv_pos_site_id
 _symmetry_equiv_pos_as_xyz
 1  'x, y, z'
loop_
 _atom_site_type_symbol
 _atom_site_label
 _atom_site_symmetry_multiplicity
 _atom_site_fract_x
 _atom_site_fract_y
 _atom_site_fract_z
 _atom_site_fract_occupancy
 Br  Br1  1  0.25000  0.00000  0.61207  1
 Br  Br2  1  0.25000  0.50000  0.11207  1
 Br  Br3  1  0.75000  0.00000  0.38793  1
 Br  Br4  1  0.75000  0.50000  0.88793  1
 Hg  Hg1  1  0.60146  0.71402  0.17214  1
 Hg  Hg2  1  0.10146  0.78598  0.32786  1
 Hg  Hg3  1  0.89854  0.21402  0.67214  1
 Hg  Hg4  1  0.89854  0.28598  0.17214  1
 Hg  Hg5  1  0.60146  0.78598  0.67214  1
 Hg  Hg6  1  0.10146  0.71402  0.82786  1
 Hg  Hg7  1  0.39854  0.28598  0.82786  1
 Hg  Hg8  1  0.39854  0.21402  0.32786  1
 P  P1  1  0.42160  0.61349  0.51186  1
 P  P2  1  0.07840  0.11349  0.01186  1
 P  P3  1  0.57840  0.38651  0.48814  1
 P  P4  1  0.92160  0.61349  0.48814  1
 P  P5  1  0.92160  0.88651  0.98814  1
 P  P6  1  0.07840  0.38651  0.51186  1
 P  P7  1  0.25000  0.00000  0.17817  1
 P  P8  1  0.75000  0.00000  0.82183  1
 P  P9  1  0.75000  0.50000  0.32183  1
 P  P10  1  0.57840  0.11349  0.98814  1
 P  P11  1  0.42160  0.88651  0.01186  1
 P  P12  1  0.25000  0.50000  0.67817  1
