CIF file written using JARVIS-Tools package.
data_CdGeO3
_symmetry_space_group_name_H-M  'R-3'
_cell_length_a       5.86414
_cell_length_b       5.86414
_cell_length_c       5.86414
_cell_angle_alpha    52.5045
_cell_angle_beta     52.5045
_cell_angle_gamma    52.5045

_symmetry_Int_Tables_number  148
_chemical_formula_structural  CdGeO3
_chemical_formula_sum  Cd2Ge2O6
_cell_volume  117.50217243321941
_cell_formula_units_Z  2
loop_
  _symmetry_equiv_pos_site_id
 _symmetry_equiv_pos_as_xyz
 1  'x, y, z'
loop_
 _atom_site_type_symbol
 _atom_site_label
 _atom_site_symmetry_multiplicity
 _atom_site_fract_x
 _atom_site_fract_y
 _atom_site_fract_z
 _atom_site_fract_occupancy
 Cd  Cd1  1  0.63243  0.63243  0.63243  1
 Cd  Cd2  1  0.36757  0.36757  0.36757  1
 Ge  Ge1  1  0.84104  0.84104  0.84104  1
 Ge  Ge2  1  0.15896  0.15896  0.15896  1
 O  O1  1  0.03485  0.81092  0.43948  1
 O  O2  1  0.81092  0.43948  0.03485  1
 O  O3  1  0.43948  0.03485  0.81092  1
 O  O4  1  0.96515  0.18908  0.56052  1
 O  O5  1  0.56052  0.96515  0.18908  1
 O  O6  1  0.18908  0.56052  0.96515  1
