CIF file written using JARVIS-Tools package.
data_Ag3SnP7
_symmetry_space_group_name_H-M  'P2_1/m'
_cell_length_a       6.43315
_cell_length_b       6.59171
_cell_length_c       11.1978
_cell_angle_alpha    90
_cell_angle_beta     90
_cell_angle_gamma    108.298

_symmetry_Int_Tables_number  11
_chemical_formula_structural  Ag3SnP7
_chemical_formula_sum  Ag6Sn2P4
_cell_volume  450.8392963912087
_cell_formula_units_Z  2
loop_
  _symmetry_equiv_pos_site_id
 _symmetry_equiv_pos_as_xyz
 1  'x, y, z'
loop_
 _atom_site_type_symbol
 _atom_site_label
 _atom_site_symmetry_multiplicity
 _atom_site_fract_x
 _atom_site_fract_y
 _atom_site_fract_z
 _atom_site_fract_occupancy
 Ag  Ag1  1  0.07237  0.32534  0.75000  1
 Ag  Ag2  1  0.92763  0.67466  0.25000  1
 Ag  Ag3  1  0.69024  0.31685  0.89769  1
 Ag  Ag4  1  0.30976  0.68315  0.39769  1
 Ag  Ag5  1  0.30976  0.68315  0.10231  1
 Ag  Ag6  1  0.69024  0.31685  0.60231  1
 P  P1  1  0.16658  0.84040  0.91975  1
 P  P2  1  0.83342  0.15960  0.41975  1
 P  P3  1  0.26935  0.72342  0.75000  1
 P  P4  1  0.16658  0.84040  0.58025  1
 P  P5  1  0.27863  0.19562  0.91002  1
 P  P6  1  0.83342  0.15960  0.08025  1
 P  P7  1  0.72137  0.80438  0.08998  1
 P  P8  1  0.19689  0.28410  0.40978  1
 P  P9  1  0.80311  0.71590  0.90978  1
 P  P10  1  0.72137  0.80438  0.41002  1
 P  P11  1  0.19689  0.28410  0.09022  1
 P  P12  1  0.80311  0.71590  0.59022  1
 P  P13  1  0.27863  0.19562  0.58998  1
 P  P14  1  0.73065  0.27658  0.25000  1
 Sn  Sn1  1  0.30812  0.04029  0.25000  1
 Sn  Sn2  1  0.69188  0.95971  0.75000  1
