CIF file written using JARVIS-Tools package.
data_NdSmO2
_symmetry_space_group_name_H-M  'R-3m'
_cell_length_a       3.52184
_cell_length_b       3.52184
_cell_length_c       6.16977
_cell_angle_alpha    73.4166
_cell_angle_beta     90
_cell_angle_gamma    60

_symmetry_Int_Tables_number  166
_chemical_formula_structural  NdSmO2
_chemical_formula_sum  NdSmO2
_cell_volume  62.570807828838234
_cell_formula_units_Z  1
loop_
  _symmetry_equiv_pos_site_id
 _symmetry_equiv_pos_as_xyz
 1  'x, y, z'
loop_
 _atom_site_type_symbol
 _atom_site_label
 _atom_site_symmetry_multiplicity
 _atom_site_fract_x
 _atom_site_fract_y
 _atom_site_fract_z
 _atom_site_fract_occupancy
 Nd  Nd1  1  0.50000  0.00000  0.50000  1
 O  O1  1  0.74244  0.51512  0.22732  1
 O  O2  1  0.25756  0.48488  0.77268  1
 Sm  Sm1  1  0.00000  0.00000  0.00000  1
