CIF file written using JARVIS-Tools package.
data_Na4SiO4
_symmetry_space_group_name_H-M  'P-1'
_cell_length_a       5.59432
_cell_length_b       5.59844
_cell_length_c       8.46797
_cell_angle_alpha    80.8556
_cell_angle_beta     71.6154
_cell_angle_gamma    67.5956

_symmetry_Int_Tables_number  2
_chemical_formula_structural  Na4SiO4
_chemical_formula_sum  Na8Si2O8
_cell_volume  232.45232711793912
_cell_formula_units_Z  2
loop_
  _symmetry_equiv_pos_site_id
 _symmetry_equiv_pos_as_xyz
 1  'x, y, z'
loop_
 _atom_site_type_symbol
 _atom_site_label
 _atom_site_symmetry_multiplicity
 _atom_site_fract_x
 _atom_site_fract_y
 _atom_site_fract_z
 _atom_site_fract_occupancy
 Na  Na1  1  0.98174  0.23205  0.06215  1
 Na  Na2  1  0.45416  0.73310  0.10956  1
 Na  Na3  1  0.89803  0.76782  0.32855  1
 Na  Na4  1  0.26279  0.74159  0.51738  1
 Na  Na5  1  0.73721  0.25841  0.48262  1
 Na  Na6  1  0.54584  0.26690  0.89044  1
 Na  Na7  1  0.01826  0.76795  0.93785  1
 Na  Na8  1  0.10197  0.23218  0.67145  1
 O  O1  1  0.65081  0.65011  0.58598  1
 O  O2  1  0.15220  0.04004  0.30595  1
 O  O3  1  0.84780  0.95996  0.69405  1
 O  O4  1  0.20745  0.46474  0.12710  1
 O  O5  1  0.34919  0.34989  0.41402  1
 O  O6  1  0.34938  0.95888  0.85384  1
 O  O7  1  0.65062  0.04112  0.14616  1
 O  O8  1  0.79255  0.53526  0.87290  1
 Si  Si1  1  0.34292  0.22332  0.25254  1
 Si  Si2  1  0.65708  0.77668  0.74746  1
