CIF file written using JARVIS-Tools package.
data_LiTiPO4F
_symmetry_space_group_name_H-M  'P-1'
_cell_length_a       5.19516
_cell_length_b       5.39995
_cell_length_c       7.3808
_cell_angle_alpha    106.45
_cell_angle_beta     108.742
_cell_angle_gamma    98.0022

_symmetry_Int_Tables_number  2
_chemical_formula_structural  LiTiPO4F
_chemical_formula_sum  Li2Ti2P2O8F2
_cell_volume  181.91146367134482
_cell_formula_units_Z  2
loop_
  _symmetry_equiv_pos_site_id
 _symmetry_equiv_pos_as_xyz
 1  'x, y, z'
loop_
 _atom_site_type_symbol
 _atom_site_label
 _atom_site_symmetry_multiplicity
 _atom_site_fract_x
 _atom_site_fract_y
 _atom_site_fract_z
 _atom_site_fract_occupancy
 F  F1  1  0.13950  0.92852  0.26779  1
 F  F2  1  0.86050  0.07148  0.73221  1
 Li  Li1  1  0.26135  0.61326  0.18274  1
 Li  Li2  1  0.73865  0.38674  0.81726  1
 O  O1  1  0.37077  0.23794  0.08240  1
 O  O2  1  0.68150  0.66052  0.33535  1
 O  O3  1  0.31850  0.33948  0.66465  1
 O  O4  1  0.76314  0.22559  0.38951  1
 O  O5  1  0.62923  0.76206  0.91760  1
 O  O6  1  0.23686  0.77441  0.61049  1
 O  O7  1  0.87401  0.34829  0.10959  1
 O  O8  1  0.12599  0.65171  0.89041  1
 P  P1  1  0.31981  0.63367  0.76573  1
 P  P2  1  0.68019  0.36633  0.23427  1
 Ti  Ti1  1  0.00000  0.00000  0.00000  1
 Ti  Ti2  1  -0.00000  0.00000  0.50000  1
