CIF file written using JARVIS-Tools package.
data_ErAgSe2
_symmetry_space_group_name_H-M  'I4_1/amd'
_cell_length_a       7.99478
_cell_length_b       10.7763
_cell_length_c       7.22549
_cell_angle_alpha    28.8692
_cell_angle_beta     56.4056
_cell_angle_gamma    42.1043

_symmetry_Int_Tables_number  141
_chemical_formula_structural  ErAgSe2
_chemical_formula_sum  Er2Ag2Se4
_cell_volume  192.37079661221193
_cell_formula_units_Z  2
loop_
  _symmetry_equiv_pos_site_id
 _symmetry_equiv_pos_as_xyz
 1  'x, y, z'
loop_
 _atom_site_type_symbol
 _atom_site_label
 _atom_site_symmetry_multiplicity
 _atom_site_fract_x
 _atom_site_fract_y
 _atom_site_fract_z
 _atom_site_fract_occupancy
 Ag  Ag1  1  0.75004  -0.00002  0.50001  1
 Ag  Ag2  1  0.49996  0.50002  0.49999  1
 Er  Er1  1  0.24997  0.00004  0.49995  1
 Er  Er2  1  0.00003  0.49996  0.50005  1
 Se  Se1  1  0.01442  -0.00000  0.97115  1
 Se  Se2  1  0.48560  0.99996  0.02889  1
 Se  Se3  1  0.23558  0.50000  0.02885  1
 Se  Se4  1  0.76440  0.50004  0.97111  1
