CIF file written using JARVIS-Tools package.
data_Y2Bi2O7
_symmetry_space_group_name_H-M  'C2/m'
_cell_length_a       5.97752
_cell_length_b       5.97752
_cell_length_c       5.84227
_cell_angle_alpha    84.7218
_cell_angle_beta     95.2782
_cell_angle_gamma    75.9104

_symmetry_Int_Tables_number  12
_chemical_formula_structural  Y2Bi2O7
_chemical_formula_sum  Y2Bi2O7
_cell_volume  200.1911232702133
_cell_formula_units_Z  1
loop_
  _symmetry_equiv_pos_site_id
 _symmetry_equiv_pos_as_xyz
 1  'x, y, z'
loop_
 _atom_site_type_symbol
 _atom_site_label
 _atom_site_symmetry_multiplicity
 _atom_site_fract_x
 _atom_site_fract_y
 _atom_site_fract_z
 _atom_site_fract_occupancy
 Bi  Bi1  1  0.26209  0.73791  0.40409  1
 Bi  Bi2  1  0.73791  0.26209  0.59591  1
 O  O1  1  0.05343  0.57979  0.18767  1
 O  O2  1  0.42021  0.94657  0.18767  1
 O  O3  1  0.45728  0.54272  0.75040  1
 O  O4  1  0.00000  -0.00000  0.50000  1
 O  O5  1  0.54272  0.45728  0.24960  1
 O  O6  1  0.94657  0.42021  0.81233  1
 O  O7  1  0.57979  0.05343  0.81233  1
 Y  Y1  1  0.69525  0.69525  0.00000  1
 Y  Y2  1  0.30475  0.30475  0.00000  1
