CIF file written using JARVIS-Tools package.
data_Lu2SO2
_symmetry_space_group_name_H-M  'P-3m1'
_cell_length_a       3.68993
_cell_length_b       3.68993
_cell_length_c       6.46205
_cell_angle_alpha    90
_cell_angle_beta     90
_cell_angle_gamma    120

_symmetry_Int_Tables_number  164
_chemical_formula_structural  Lu2SO2
_chemical_formula_sum  Lu2SO2
_cell_volume  76.19692228801884
_cell_formula_units_Z  1
loop_
  _symmetry_equiv_pos_site_id
 _symmetry_equiv_pos_as_xyz
 1  'x, y, z'
loop_
 _atom_site_type_symbol
 _atom_site_label
 _atom_site_symmetry_multiplicity
 _atom_site_fract_x
 _atom_site_fract_y
 _atom_site_fract_z
 _atom_site_fract_occupancy
 Lu  Lu1  1  0.66667  0.33333  0.28342  1
 Lu  Lu2  1  0.33333  0.66667  0.71658  1
 O  O1  1  0.66667  0.33333  0.62946  1
 O  O2  1  0.33333  0.66667  0.37054  1
 S  S1  1  0.00000  0.00000  0.00000  1
