CIF file written using JARVIS-Tools package.
data_W3Se4S2
_symmetry_space_group_name_H-M  'P-6m2'
_cell_length_a       3.28035
_cell_length_b       3.28036
_cell_length_c       27.887
_cell_angle_alpha    90
_cell_angle_beta     90
_cell_angle_gamma    120

_symmetry_Int_Tables_number  187
_chemical_formula_structural  W3Se4S2
_chemical_formula_sum  W3Se4S2
_cell_volume  259.88011575899867
_cell_formula_units_Z  1
loop_
  _symmetry_equiv_pos_site_id
 _symmetry_equiv_pos_as_xyz
 1  'x, y, z'
loop_
 _atom_site_type_symbol
 _atom_site_label
 _atom_site_symmetry_multiplicity
 _atom_site_fract_x
 _atom_site_fract_y
 _atom_site_fract_z
 _atom_site_fract_occupancy
 S  S1  1  0.33334  0.66669  0.40243  1
 S  S2  1  0.33334  0.66669  0.29154  1
 Se  Se1  1  0.66665  0.33330  0.05581  1
 Se  Se2  1  0.66665  0.33330  0.51630  1
 Se  Se3  1  0.66665  0.33330  0.17767  1
 Se  Se4  1  0.66665  0.33330  0.63815  1
 W  W1  1  0.33332  0.66663  0.11671  1
 W  W2  1  0.33332  0.66663  0.57726  1
 W  W3  1  0.66668  0.33335  0.34698  1
