CIF file written using JARVIS-Tools package.
data_Si
_symmetry_space_group_name_H-M  'P6_3/mmc'
_cell_length_a       3.86645
_cell_length_b       3.86645
_cell_length_c       6.40045
_cell_angle_alpha    90
_cell_angle_beta     90
_cell_angle_gamma    119.998

_symmetry_Int_Tables_number  194
_chemical_formula_structural  Si
_chemical_formula_sum  Si4
_cell_volume  82.86650308582226
_cell_formula_units_Z  4
loop_
  _symmetry_equiv_pos_site_id
 _symmetry_equiv_pos_as_xyz
 1  'x, y, z'
loop_
 _atom_site_type_symbol
 _atom_site_label
 _atom_site_symmetry_multiplicity
 _atom_site_fract_x
 _atom_site_fract_y
 _atom_site_fract_z
 _atom_site_fract_occupancy
 Si  Si1  1  0.66668  0.33332  0.50011  1
 Si  Si2  1  0.00002  0.99998  0.00011  1
 Si  Si3  1  0.66668  0.33332  0.87389  1
 Si  Si4  1  0.00002  0.99998  0.37389  1
