CIF file written using JARVIS-Tools package.
data_Tm2S3
_symmetry_space_group_name_H-M  'Pnma'
_cell_length_a       3.79814
_cell_length_b       10.3581
_cell_length_c       10.4777
_cell_angle_alpha    90
_cell_angle_beta     90
_cell_angle_gamma    90

_symmetry_Int_Tables_number  62
_chemical_formula_structural  Tm2S3
_chemical_formula_sum  Tm8S2
_cell_volume  412.20925489511086
_cell_formula_units_Z  4
loop_
  _symmetry_equiv_pos_site_id
 _symmetry_equiv_pos_as_xyz
 1  'x, y, z'
loop_
 _atom_site_type_symbol
 _atom_site_label
 _atom_site_symmetry_multiplicity
 _atom_site_fract_x
 _atom_site_fract_y
 _atom_site_fract_z
 _atom_site_fract_occupancy
 S  S1  1  0.25000  0.30495  0.72672  1
 S  S2  1  0.75000  0.44419  0.11872  1
 S  S3  1  0.75000  0.69505  0.27328  1
 S  S4  1  0.75000  0.05581  0.61872  1
 S  S5  1  0.25000  0.55581  0.88128  1
 S  S6  1  0.25000  0.94419  0.38128  1
 S  S7  1  0.75000  0.37341  0.45407  1
 S  S8  1  0.25000  0.62659  0.54593  1
 S  S9  1  0.25000  0.19505  0.22672  1
 S  S10  1  0.75000  0.12659  0.95407  1
 S  S11  1  0.25000  0.87341  0.04593  1
 S  S12  1  0.75000  0.80495  0.77328  1
 Tm  Tm1  1  0.25000  0.50320  0.30763  1
 Tm  Tm2  1  0.25000  0.18707  0.48880  1
 Tm  Tm3  1  0.75000  0.00320  0.19237  1
 Tm  Tm4  1  0.75000  0.49680  0.69237  1
 Tm  Tm5  1  0.75000  0.81293  0.51120  1
 Tm  Tm6  1  0.25000  0.31293  0.98880  1
 Tm  Tm7  1  0.75000  0.68707  0.01120  1
 Tm  Tm8  1  0.25000  0.99680  0.80763  1
