CIF file written using JARVIS-Tools package.
data_Sr3GaN3
_symmetry_space_group_name_H-M  'P6_3/m'
_cell_length_a       7.58101
_cell_length_b       7.58101
_cell_length_c       5.41813
_cell_angle_alpha    90
_cell_angle_beta     90
_cell_angle_gamma    120

_symmetry_Int_Tables_number  176
_chemical_formula_structural  Sr3GaN3
_chemical_formula_sum  Sr6Ga2N6
_cell_volume  269.67120138435376
_cell_formula_units_Z  2
loop_
  _symmetry_equiv_pos_site_id
 _symmetry_equiv_pos_as_xyz
 1  'x, y, z'
loop_
 _atom_site_type_symbol
 _atom_site_label
 _atom_site_symmetry_multiplicity
 _atom_site_fract_x
 _atom_site_fract_y
 _atom_site_fract_z
 _atom_site_fract_occupancy
 Ga  Ga1  1  0.33333  0.66667  0.75000  1
 Ga  Ga2  1  0.66667  0.33333  0.25000  1
 N  N1  1  0.40014  0.09299  0.25000  1
 N  N2  1  0.09299  0.69285  0.75000  1
 N  N3  1  0.30715  0.40014  0.75000  1
 N  N4  1  0.69285  0.59986  0.25000  1
 N  N5  1  0.90701  0.30715  0.25000  1
 N  N6  1  0.59986  0.90701  0.75000  1
 Sr  Sr1  1  0.28449  0.35745  0.25000  1
 Sr  Sr2  1  0.35745  0.07296  0.75000  1
 Sr  Sr3  1  0.92704  0.28449  0.75000  1
 Sr  Sr4  1  0.07296  0.71551  0.25000  1
 Sr  Sr5  1  0.64255  0.92704  0.25000  1
 Sr  Sr6  1  0.71551  0.64255  0.75000  1
