CIF file written using JARVIS-Tools package.
data_Rb2NbCuS4
_symmetry_space_group_name_H-M  'Fddd'
_cell_length_a       5.60146
_cell_length_b       7.27677
_cell_length_c       12.1542
_cell_angle_alpha    84.9117
_cell_angle_beta     76.6775
_cell_angle_gamma    67.3633

_symmetry_Int_Tables_number  70
_chemical_formula_structural  Rb2NbCuS4
_chemical_formula_sum  Rb4Nb2Cu2S8
_cell_volume  444.9428254080587
_cell_formula_units_Z  2
loop_
  _symmetry_equiv_pos_site_id
 _symmetry_equiv_pos_as_xyz
 1  'x, y, z'
loop_
 _atom_site_type_symbol
 _atom_site_label
 _atom_site_symmetry_multiplicity
 _atom_site_fract_x
 _atom_site_fract_y
 _atom_site_fract_z
 _atom_site_fract_occupancy
 Cu  Cu1  1  0.87500  0.25000  0.25000  1
 Cu  Cu2  1  0.12500  0.75000  0.75000  1
 Nb  Nb1  1  0.37500  0.25000  0.25000  1
 Nb  Nb2  1  0.62500  0.75000  0.75000  1
 Rb  Rb1  1  0.80330  0.75000  0.39340  1
 Rb  Rb2  1  0.44670  0.75000  0.10660  1
 Rb  Rb3  1  0.19670  0.25000  0.60660  1
 Rb  Rb4  1  0.55330  0.25000  0.89340  1
 S  S1  1  0.22753  0.94795  0.86044  1
 S  S2  1  0.53591  0.55205  0.63956  1
 S  S3  1  0.82453  0.94795  0.63956  1
 S  S4  1  0.91203  0.55205  0.86044  1
 S  S5  1  0.08797  0.44795  0.13956  1
 S  S6  1  0.46409  0.44795  0.36044  1
 S  S7  1  0.17547  0.05205  0.36044  1
 S  S8  1  0.77247  0.05205  0.13956  1
