CIF file written using JARVIS-Tools package.
data_LiFeCo2O6
_symmetry_space_group_name_H-M  'C2/m'
_cell_length_a       6.24001
_cell_length_b       2.82277
_cell_length_c       5.79858
_cell_angle_alpha    90.001
_cell_angle_beta     103.821
_cell_angle_gamma    76.9262

_symmetry_Int_Tables_number  12
_chemical_formula_structural  LiFeCo2O6
_chemical_formula_sum  LiFeCo2O6
_cell_volume  96.45077438040505
_cell_formula_units_Z  1
loop_
  _symmetry_equiv_pos_site_id
 _symmetry_equiv_pos_as_xyz
 1  'x, y, z'
loop_
 _atom_site_type_symbol
 _atom_site_label
 _atom_site_symmetry_multiplicity
 _atom_site_fract_x
 _atom_site_fract_y
 _atom_site_fract_z
 _atom_site_fract_occupancy
 Co  Co1  1  0.67510  0.66245  0.65782  1
 Co  Co2  1  0.99156  0.00422  0.00886  1
 Fe  Fe1  1  0.33334  0.33333  0.33332  1
 Li  Li1  1  0.33332  0.33334  0.83331  1
 O  O1  1  0.01637  0.49183  0.22834  1
 O  O2  1  0.35065  0.82468  0.56072  1
 O  O3  1  0.31602  0.84198  0.10593  1
 O  O4  1  0.67693  0.16154  0.87772  1
 O  O5  1  0.65030  0.17484  0.43834  1
 O  O6  1  0.98974  0.50513  0.78897  1
