CIF file written using JARVIS-Tools package.
data_LiFeSiO4
_symmetry_space_group_name_H-M  'Pc'
_cell_length_a       5.02962
_cell_length_b       5.40246
_cell_length_c       8.00133
_cell_angle_alpha    90
_cell_angle_beta     128.181
_cell_angle_gamma    90

_symmetry_Int_Tables_number  7
_chemical_formula_structural  LiFeSiO4
_chemical_formula_sum  Li2Fe2Si2O8
_cell_volume  170.90175510779906
_cell_formula_units_Z  2
loop_
  _symmetry_equiv_pos_site_id
 _symmetry_equiv_pos_as_xyz
 1  'x, y, z'
loop_
 _atom_site_type_symbol
 _atom_site_label
 _atom_site_symmetry_multiplicity
 _atom_site_fract_x
 _atom_site_fract_y
 _atom_site_fract_z
 _atom_site_fract_occupancy
 Fe  Fe1  1  0.99117  0.16790  0.00848  1
 Fe  Fe2  1  0.99117  0.83210  0.50848  1
 Li  Li1  1  0.24048  0.33883  0.75665  1
 Li  Li2  1  0.24048  0.66117  0.25665  1
 O  O1  1  0.02682  0.82865  0.97321  1
 O  O2  1  0.87650  0.38073  0.78542  1
 O  O3  1  0.38531  0.66786  0.73332  1
 O  O4  1  0.65250  0.78230  0.54012  1
 O  O5  1  0.02682  0.17135  0.47321  1
 O  O6  1  0.87650  0.61927  0.28542  1
 O  O7  1  0.38531  0.33214  0.23332  1
 O  O8  1  0.65250  0.21770  0.04012  1
 Si  Si1  1  0.73756  0.66581  0.75963  1
 Si  Si2  1  0.73756  0.33419  0.25963  1
