CIF file written using JARVIS-Tools package.
data_K2VCuSe4
_symmetry_space_group_name_H-M  'Fddd'
_cell_length_a       5.63912
_cell_length_b       7.18141
_cell_length_c       11.9851
_cell_angle_alpha    84.7003
_cell_angle_beta     76.3933
_cell_angle_gamma    66.8825

_symmetry_Int_Tables_number  70
_chemical_formula_structural  K2VCuSe4
_chemical_formula_sum  K4V2Cu2Se8
_cell_volume  433.85491410542517
_cell_formula_units_Z  2
loop_
  _symmetry_equiv_pos_site_id
 _symmetry_equiv_pos_as_xyz
 1  'x, y, z'
loop_
 _atom_site_type_symbol
 _atom_site_label
 _atom_site_symmetry_multiplicity
 _atom_site_fract_x
 _atom_site_fract_y
 _atom_site_fract_z
 _atom_site_fract_occupancy
 Cu  Cu1  1  0.62500  0.75000  0.75000  1
 Cu  Cu2  1  0.37500  0.25000  0.25000  1
 K  K1  1  0.94438  0.75000  0.11123  1
 K  K2  1  0.30562  0.75000  0.38877  1
 K  K3  1  0.05562  0.25000  0.88877  1
 K  K4  1  0.69438  0.25000  0.61123  1
 Se  Se1  1  0.26701  0.04530  0.13462  1
 Se  Se2  1  0.94693  0.45470  0.36538  1
 Se  Se3  1  0.68769  0.04530  0.36538  1
 Se  Se4  1  0.59837  0.45470  0.13462  1
 Se  Se5  1  0.73299  0.95470  0.86538  1
 Se  Se6  1  0.05307  0.54530  0.63462  1
 Se  Se7  1  0.31231  0.95470  0.63462  1
 Se  Se8  1  0.40163  0.54530  0.86538  1
 V  V1  1  0.12500  0.75000  0.75000  1
 V  V2  1  0.87500  0.25000  0.25000  1
