CIF file written using JARVIS-Tools package.
data_Sr3Ti2O7
_symmetry_space_group_name_H-M  'I4/mmm'
_cell_length_a       3.92418
_cell_length_b       3.92418
_cell_length_c       10.5969
_cell_angle_alpha    100.67
_cell_angle_beta     100.67
_cell_angle_gamma    90

_symmetry_Int_Tables_number  139
_chemical_formula_structural  Sr3Ti2O7
_chemical_formula_sum  Sr3Ti2O7
_cell_volume  157.49041283044593
_cell_formula_units_Z  1
loop_
  _symmetry_equiv_pos_site_id
 _symmetry_equiv_pos_as_xyz
 1  'x, y, z'
loop_
 _atom_site_type_symbol
 _atom_site_label
 _atom_site_symmetry_multiplicity
 _atom_site_fract_x
 _atom_site_fract_y
 _atom_site_fract_z
 _atom_site_fract_occupancy
 O  O1  1  0.90388  0.40388  0.80776  1
 O  O2  1  0.80596  0.80596  0.61191  1
 O  O3  1  0.00000  0.00000  0.00000  1
 O  O4  1  0.59612  0.09612  0.19224  1
 O  O5  1  0.09612  0.59612  0.19224  1
 O  O6  1  0.40388  0.90388  0.80776  1
 O  O7  1  0.19404  0.19404  0.38809  1
 Sr  Sr1  1  0.31564  0.31564  0.63128  1
 Sr  Sr2  1  0.50000  0.50000  0.00000  1
 Sr  Sr3  1  0.68436  0.68436  0.36872  1
 Ti  Ti1  1  0.09763  0.09763  0.19526  1
 Ti  Ti2  1  0.90237  0.90237  0.80474  1
