CIF file written using JARVIS-Tools package.
data_YbAs4Rh6
_symmetry_space_group_name_H-M  'P-6m2'
_cell_length_a       7.28306
_cell_length_b       7.28306
_cell_length_c       3.79484
_cell_angle_alpha    90
_cell_angle_beta     90
_cell_angle_gamma    120

_symmetry_Int_Tables_number  187
_chemical_formula_structural  YbAs4Rh6
_chemical_formula_sum  YbAs4Rh6
_cell_volume  174.32158633382807
_cell_formula_units_Z  1
loop_
  _symmetry_equiv_pos_site_id
 _symmetry_equiv_pos_as_xyz
 1  'x, y, z'
loop_
 _atom_site_type_symbol
 _atom_site_label
 _atom_site_symmetry_multiplicity
 _atom_site_fract_x
 _atom_site_fract_y
 _atom_site_fract_z
 _atom_site_fract_occupancy
 As  As1  1  0.37537  0.18769  0.50000  1
 As  As2  1  0.33333  0.66667  0.00000  1
 As  As3  1  0.81231  0.62463  0.50000  1
 As  As4  1  0.81231  0.18769  0.50000  1
 Rh  Rh1  1  0.93009  0.46505  0.00000  1
 Rh  Rh2  1  0.19835  0.39670  0.50000  1
 Rh  Rh3  1  0.60330  0.80165  0.50000  1
 Rh  Rh4  1  0.53495  0.46505  0.00000  1
 Rh  Rh5  1  0.19835  0.80165  0.50000  1
 Rh  Rh6  1  0.53495  0.06991  0.00000  1
 Yb  Yb1  1  0.00000  0.00000  0.00000  1
