CIF file written using JARVIS-Tools package.
data_MnSbO4
_symmetry_space_group_name_H-M  'P2/m'
_cell_length_a       4.72246
_cell_length_b       9.41864
_cell_length_c       8.89572
_cell_angle_alpha    19.1827
_cell_angle_beta     33.3586
_cell_angle_gamma    37.9199

_symmetry_Int_Tables_number  10
_chemical_formula_structural  MnSbO4
_chemical_formula_sum  MnSbO4
_cell_volume  71.4902012363822
_cell_formula_units_Z  1
loop_
  _symmetry_equiv_pos_site_id
 _symmetry_equiv_pos_as_xyz
 1  'x, y, z'
loop_
 _atom_site_type_symbol
 _atom_site_label
 _atom_site_symmetry_multiplicity
 _atom_site_fract_x
 _atom_site_fract_y
 _atom_site_fract_z
 _atom_site_fract_occupancy
 Mn  Mn1  1  0.50000  0.50000  0.50000  1
 O  O1  1  0.26246  -0.00000  0.22418  1
 O  O2  1  0.20515  0.50001  0.25995  1
 O  O3  1  0.73755  0.00000  0.77582  1
 O  O4  1  0.79483  0.49999  0.74005  1
 Sb  Sb1  1  0.50001  -0.00000  0.50000  1
