CIF file written using JARVIS-Tools package.
data_LiSiBi3O7
_symmetry_space_group_name_H-M  'P6_3'
_cell_length_a       8.50054
_cell_length_b       8.50054
_cell_length_c       5.21567
_cell_angle_alpha    90
_cell_angle_beta     90
_cell_angle_gamma    120

_symmetry_Int_Tables_number  173
_chemical_formula_structural  LiSiBi3O7
_chemical_formula_sum  Li2Si2Bi6O4
_cell_volume  326.38800046533106
_cell_formula_units_Z  2
loop_
  _symmetry_equiv_pos_site_id
 _symmetry_equiv_pos_as_xyz
 1  'x, y, z'
loop_
 _atom_site_type_symbol
 _atom_site_label
 _atom_site_symmetry_multiplicity
 _atom_site_fract_x
 _atom_site_fract_y
 _atom_site_fract_z
 _atom_site_fract_occupancy
 Bi  Bi1  1  0.26164  0.35755  0.70414  1
 Bi  Bi2  1  0.64245  0.90408  0.70414  1
 Bi  Bi3  1  0.09592  0.73836  0.70414  1
 Bi  Bi4  1  0.90408  0.26164  0.20414  1
 Bi  Bi5  1  0.35755  0.09592  0.20414  1
 Bi  Bi6  1  0.73836  0.64245  0.20414  1
 Li  Li1  1  0.00000  0.00000  0.01510  1
 Li  Li2  1  0.00000  0.00000  0.51510  1
 O  O1  1  0.14447  0.22703  0.32569  1
 O  O2  1  0.53147  0.40348  0.55081  1
 O  O3  1  0.12799  0.53147  0.05081  1
 O  O4  1  0.33333  0.66667  0.48801  1
 O  O5  1  0.77297  0.91744  0.32569  1
 O  O6  1  0.46853  0.59652  0.05081  1
 O  O7  1  0.91744  0.14447  0.82569  1
 O  O8  1  0.66667  0.33333  0.98801  1
 O  O9  1  0.59652  0.12799  0.55081  1
 O  O10  1  0.22703  0.08256  0.82569  1
 O  O11  1  0.40348  0.87201  0.05081  1
 O  O12  1  0.87201  0.46853  0.55081  1
 O  O13  1  0.08256  0.85553  0.32569  1
 O  O14  1  0.85553  0.77297  0.82569  1
 Si  Si1  1  0.66667  0.33333  0.67278  1
 Si  Si2  1  0.33333  0.66667  0.17278  1
