CIF file written using JARVIS-Tools package.
data_Sm
_symmetry_space_group_name_H-M  'R-3m'
_cell_length_a       8.9263
_cell_length_b       8.92631
_cell_length_c       8.9263
_cell_angle_alpha    23.3213
_cell_angle_beta     23.3212
_cell_angle_gamma    23.3212

_symmetry_Int_Tables_number  166
_chemical_formula_structural  Sm
_chemical_formula_sum  Sm3
_cell_volume  97.86731990168227
_cell_formula_units_Z  3
loop_
  _symmetry_equiv_pos_site_id
 _symmetry_equiv_pos_as_xyz
 1  'x, y, z'
loop_
 _atom_site_type_symbol
 _atom_site_label
 _atom_site_symmetry_multiplicity
 _atom_site_fract_x
 _atom_site_fract_y
 _atom_site_fract_z
 _atom_site_fract_occupancy
 Sm  Sm1  1  0.00000  0.00000  0.00000  1
 Sm  Sm2  1  0.22252  0.22252  0.22252  1
 Sm  Sm3  1  0.77748  0.77748  0.77748  1
