CIF file written using JARVIS-Tools package.
data_Hg2P2S7
_symmetry_space_group_name_H-M  'C2'
_cell_length_a       5.90487
_cell_length_b       6.25829
_cell_length_c       8.18353
_cell_angle_alpha    101.649
_cell_angle_beta     90
_cell_angle_gamma    118.149

_symmetry_Int_Tables_number  5
_chemical_formula_structural  Hg2P2S7
_chemical_formula_sum  Hg2P2S7
_cell_volume  259.5632974387277
_cell_formula_units_Z  1
loop_
  _symmetry_equiv_pos_site_id
 _symmetry_equiv_pos_as_xyz
 1  'x, y, z'
loop_
 _atom_site_type_symbol
 _atom_site_label
 _atom_site_symmetry_multiplicity
 _atom_site_fract_x
 _atom_site_fract_y
 _atom_site_fract_z
 _atom_site_fract_occupancy
 Hg  Hg1  1  0.78985  0.57555  0.79938  1
 Hg  Hg2  1  0.21430  0.42445  0.20062  1
 P  P1  1  0.90956  0.82542  0.29398  1
 P  P2  1  0.08414  0.17458  0.70602  1
 S  S1  1  0.21155  0.94745  0.76194  1
 S  S2  1  0.26411  0.05255  0.23806  1
 S  S3  1  0.88664  0.51625  0.35647  1
 S  S4  1  0.37038  0.48375  0.64353  1
 S  S5  1  0.77929  0.00000  0.50000  1
 S  S6  1  0.62686  0.75116  0.10831  1
 S  S7  1  0.87571  0.24884  0.89169  1
