CIF file written using JARVIS-Tools package.
data_Cu2GeS3
_symmetry_space_group_name_H-M  'Cc'
_cell_length_a       6.53335
_cell_length_b       6.49479
_cell_length_c       6.52847
_cell_angle_alpha    60.1705
_cell_angle_beta     80.5992
_cell_angle_gamma    70.83

_symmetry_Int_Tables_number  9
_chemical_formula_structural  Cu2GeS3
_chemical_formula_sum  Cu4Ge2S6
_cell_volume  226.9920074926937
_cell_formula_units_Z  2
loop_
  _symmetry_equiv_pos_site_id
 _symmetry_equiv_pos_as_xyz
 1  'x, y, z'
loop_
 _atom_site_type_symbol
 _atom_site_label
 _atom_site_symmetry_multiplicity
 _atom_site_fract_x
 _atom_site_fract_y
 _atom_site_fract_z
 _atom_site_fract_occupancy
 Cu  Cu1  1  0.13978  0.03080  0.16802  1
 Cu  Cu2  1  0.14014  0.37321  0.49659  1
 Cu  Cu3  1  0.63978  0.19882  0.83198  1
 Cu  Cu4  1  0.64014  0.86980  0.50341  1
 Ge  Ge1  1  0.12131  0.72346  0.82437  1
 Ge  Ge2  1  0.62131  0.54782  0.17563  1
 S  S1  1  0.51202  0.24892  0.49677  1
 S  S2  1  0.01202  0.74569  0.50323  1
 S  S3  1  0.51372  0.91716  0.16965  1
 S  S4  1  0.01372  0.08681  0.83035  1
 S  S5  1  0.00803  0.41153  0.16644  1
 S  S6  1  0.50803  0.57797  0.83356  1
