CIF file written using JARVIS-Tools package.
data_YCrB4
_symmetry_space_group_name_H-M  'Pbam'
_cell_length_a       3.46413
_cell_length_b       5.92113
_cell_length_c       11.4421
_cell_angle_alpha    90
_cell_angle_beta     90
_cell_angle_gamma    90

_symmetry_Int_Tables_number  55
_chemical_formula_structural  YCrB4
_chemical_formula_sum  Y4Cr4B6
_cell_volume  234.6964409273153
_cell_formula_units_Z  4
loop_
  _symmetry_equiv_pos_site_id
 _symmetry_equiv_pos_as_xyz
 1  'x, y, z'
loop_
 _atom_site_type_symbol
 _atom_site_label
 _atom_site_symmetry_multiplicity
 _atom_site_fract_x
 _atom_site_fract_y
 _atom_site_fract_z
 _atom_site_fract_occupancy
 B  B1  1  0.50000  0.78005  0.18385  1
 B  B2  1  0.50000  0.02523  0.69153  1
 B  B3  1  0.50000  0.97477  0.30847  1
 B  B4  1  0.50000  0.52523  0.80847  1
 B  B5  1  0.50000  0.86247  0.03247  1
 B  B6  1  0.50000  0.11318  0.54676  1
 B  B7  1  0.50000  0.88682  0.45324  1
 B  B8  1  0.50000  0.47477  0.19153  1
 B  B9  1  0.50000  0.38682  0.04676  1
 B  B10  1  0.50000  0.28005  0.31615  1
 B  B11  1  0.50000  0.71995  0.68385  1
 B  B12  1  0.50000  0.13753  0.96753  1
 B  B13  1  0.50000  0.21995  0.81615  1
 B  B14  1  0.50000  0.36247  0.46753  1
 B  B15  1  0.50000  0.63753  0.53247  1
 B  B16  1  0.50000  0.61318  0.95324  1
 Cr  Cr1  1  0.00000  0.12140  0.42097  1
 Cr  Cr2  1  0.00000  0.87860  0.57903  1
 Cr  Cr3  1  0.00000  0.62140  0.07903  1
 Cr  Cr4  1  0.00000  0.37860  0.92097  1
 Y  Y1  1  0.00000  0.12409  0.15071  1
 Y  Y2  1  0.00000  0.87591  0.84929  1
 Y  Y3  1  0.00000  0.62409  0.34929  1
 Y  Y4  1  0.00000  0.37591  0.65071  1
