CIF file written using JARVIS-Tools package.
data_PPbSe3
_symmetry_space_group_name_H-M  'P2_1/c'
_cell_length_a       7.04686
_cell_length_b       7.70072
_cell_length_c       11.8922
_cell_angle_alpha    90
_cell_angle_beta     124.411
_cell_angle_gamma    90

_symmetry_Int_Tables_number  14
_chemical_formula_structural  PPbSe3
_chemical_formula_sum  P4Pb4Se2
_cell_volume  532.4083180431564
_cell_formula_units_Z  4
loop_
  _symmetry_equiv_pos_site_id
 _symmetry_equiv_pos_as_xyz
 1  'x, y, z'
loop_
 _atom_site_type_symbol
 _atom_site_label
 _atom_site_symmetry_multiplicity
 _atom_site_fract_x
 _atom_site_fract_y
 _atom_site_fract_z
 _atom_site_fract_occupancy
 P  P1  1  0.87902  0.14113  0.71540  1
 P  P2  1  0.87902  0.85887  0.21540  1
 P  P3  1  0.12664  0.35885  0.84280  1
 P  P4  1  0.12664  0.64115  0.34280  1
 Pb  Pb1  1  0.78572  0.63996  0.52620  1
 Pb  Pb2  1  0.21995  0.13997  0.53202  1
 Pb  Pb3  1  0.21995  0.86003  0.03202  1
 Pb  Pb4  1  0.78572  0.36004  0.02620  1
 Se  Se1  1  0.27921  0.54396  0.23381  1
 Se  Se2  1  0.38019  0.75213  0.54681  1
 Se  Se3  1  0.89318  0.44062  0.33476  1
 Se  Se4  1  0.72645  0.04395  0.82439  1
 Se  Se5  1  0.89318  0.55938  0.83476  1
 Se  Se6  1  0.38019  0.24787  0.04681  1
 Se  Se7  1  0.11248  0.94061  0.72343  1
 Se  Se8  1  0.72645  0.95605  0.32439  1
 Se  Se9  1  0.62547  0.25212  0.51139  1
 Se  Se10  1  0.11248  0.05939  0.22343  1
 Se  Se11  1  0.62547  0.74788  0.01139  1
 Se  Se12  1  0.27921  0.45604  0.73381  1
