CIF file written using JARVIS-Tools package.
data_FeP2
_symmetry_space_group_name_H-M  'Pnnm'
_cell_length_a       2.75084
_cell_length_b       4.97551
_cell_length_c       5.66911
_cell_angle_alpha    90
_cell_angle_beta     90
_cell_angle_gamma    90

_symmetry_Int_Tables_number  58
_chemical_formula_structural  FeP2
_chemical_formula_sum  Fe2P4
_cell_volume  77.59228063215241
_cell_formula_units_Z  2
loop_
  _symmetry_equiv_pos_site_id
 _symmetry_equiv_pos_as_xyz
 1  'x, y, z'
loop_
 _atom_site_type_symbol
 _atom_site_label
 _atom_site_symmetry_multiplicity
 _atom_site_fract_x
 _atom_site_fract_y
 _atom_site_fract_z
 _atom_site_fract_occupancy
 Fe  Fe1  1  0.50000  0.50000  0.50000  1
 Fe  Fe2  1  0.00000  0.00000  0.00000  1
 P  P1  1  0.50000  0.32873  0.86829  1
 P  P2  1  0.50000  0.67127  0.13171  1
 P  P3  1  0.00000  0.17127  0.36829  1
 P  P4  1  0.00000  0.82873  0.63171  1
