CIF file written using JARVIS-Tools package.
data_Cd4OF6
_symmetry_space_group_name_H-M  'P4_2/nmc'
_cell_length_a       7.58457
_cell_length_b       7.58457
_cell_length_c       5.48251
_cell_angle_alpha    90
_cell_angle_beta     90
_cell_angle_gamma    90

_symmetry_Int_Tables_number  137
_chemical_formula_structural  Cd4OF6
_chemical_formula_sum  Cd8O2F2
_cell_volume  315.38516067219416
_cell_formula_units_Z  2
loop_
  _symmetry_equiv_pos_site_id
 _symmetry_equiv_pos_as_xyz
 1  'x, y, z'
loop_
 _atom_site_type_symbol
 _atom_site_label
 _atom_site_symmetry_multiplicity
 _atom_site_fract_x
 _atom_site_fract_y
 _atom_site_fract_z
 _atom_site_fract_occupancy
 Cd  Cd1  1  0.25123  0.00000  0.30264  1
 Cd  Cd2  1  0.50000  0.24877  0.80264  1
 Cd  Cd3  1  0.50000  0.75123  0.80264  1
 Cd  Cd4  1  0.74877  0.00000  0.30264  1
 Cd  Cd5  1  0.24877  0.50000  0.19736  1
 Cd  Cd6  1  0.75123  0.50000  0.19736  1
 Cd  Cd7  1  0.00000  0.25123  0.69736  1
 Cd  Cd8  1  0.00000  0.74877  0.69736  1
 F  F1  1  0.00000  0.50000  0.92420  1
 F  F2  1  0.28777  0.71223  0.50000  1
 F  F3  1  0.71223  0.28777  0.50000  1
 F  F4  1  0.21223  0.21223  0.00000  1
 F  F5  1  0.78777  0.78777  0.00000  1
 F  F6  1  0.21223  0.78777  0.00000  1
 F  F7  1  0.50000  0.00000  0.07580  1
 F  F8  1  0.28777  0.28777  0.50000  1
 F  F9  1  0.50000  0.00000  0.57580  1
 F  F10  1  0.71223  0.71223  0.50000  1
 F  F11  1  0.78777  0.21223  0.00000  1
 F  F12  1  0.00000  0.50000  0.42420  1
 O  O1  1  0.00000  0.00000  0.50000  1
 O  O2  1  0.50000  0.50000  0.00000  1
