CIF file written using JARVIS-Tools package.
data_Tl3PO4
_symmetry_space_group_name_H-M  'P6_3'
_cell_length_a       8.40532
_cell_length_b       8.40532
_cell_length_c       5.18696
_cell_angle_alpha    90
_cell_angle_beta     90
_cell_angle_gamma    120

_symmetry_Int_Tables_number  173
_chemical_formula_structural  Tl3PO4
_chemical_formula_sum  Tl6P2O8
_cell_volume  317.36031617216196
_cell_formula_units_Z  2
loop_
  _symmetry_equiv_pos_site_id
 _symmetry_equiv_pos_as_xyz
 1  'x, y, z'
loop_
 _atom_site_type_symbol
 _atom_site_label
 _atom_site_symmetry_multiplicity
 _atom_site_fract_x
 _atom_site_fract_y
 _atom_site_fract_z
 _atom_site_fract_occupancy
 O  O1  1  0.47303  0.86398  0.42134  1
 O  O2  1  0.86398  0.39095  0.92134  1
 O  O3  1  0.60905  0.47303  0.92134  1
 O  O4  1  0.39095  0.52697  0.42134  1
 O  O5  1  0.66667  0.33333  0.31942  1
 O  O6  1  0.52697  0.13602  0.92134  1
 O  O7  1  0.33333  0.66667  0.81942  1
 O  O8  1  0.13602  0.60905  0.42134  1
 P  P1  1  0.66667  0.33333  0.01496  1
 P  P2  1  0.33333  0.66667  0.51496  1
 Tl  Tl1  1  0.64704  0.91042  -0.00300  1
 Tl  Tl2  1  0.26337  0.35296  -0.00300  1
 Tl  Tl3  1  0.91042  0.26337  0.49700  1
 Tl  Tl4  1  0.35296  0.08958  0.49700  1
 Tl  Tl5  1  0.73663  0.64704  0.49700  1
 Tl  Tl6  1  0.08958  0.73663  -0.00300  1
