CIF file written using JARVIS-Tools package.
data_NO2
_symmetry_space_group_name_H-M  'I2_13'
_cell_length_a       7.37578
_cell_length_b       7.37578
_cell_length_c       7.37578
_cell_angle_alpha    109.471
_cell_angle_beta     109.471
_cell_angle_gamma    109.471

_symmetry_Int_Tables_number  199
_chemical_formula_structural  NO2
_chemical_formula_sum  N6O2
_cell_volume  308.88819545760026
_cell_formula_units_Z  6
loop_
  _symmetry_equiv_pos_site_id
 _symmetry_equiv_pos_as_xyz
 1  'x, y, z'
loop_
 _atom_site_type_symbol
 _atom_site_label
 _atom_site_symmetry_multiplicity
 _atom_site_fract_x
 _atom_site_fract_y
 _atom_site_fract_z
 _atom_site_fract_occupancy
 N  N1  1  0.25000  0.60927  0.35927  1
 N  N2  1  0.14073  0.75000  0.89073  1
 N  N3  1  0.35927  0.25000  0.60927  1
 N  N4  1  0.75000  0.89073  0.14073  1
 N  N5  1  0.60927  0.35927  0.25000  1
 N  N6  1  0.89073  0.14073  0.75000  1
 O  O1  1  0.51808  0.27132  0.58500  1
 O  O2  1  0.93307  0.91500  0.18632  1
 O  O3  1  0.75325  0.98192  0.56693  1
 O  O4  1  0.98192  0.56693  0.75325  1
 O  O5  1  0.22868  0.74675  0.31368  1
 O  O6  1  0.27132  0.58500  0.51808  1
 O  O7  1  0.91500  0.18632  0.93307  1
 O  O8  1  0.74675  0.31368  0.22868  1
 O  O9  1  0.18632  0.93307  0.91500  1
 O  O10  1  0.58500  0.51808  0.27132  1
 O  O11  1  0.56693  0.75325  0.98192  1
 O  O12  1  0.31368  0.22868  0.74675  1
