CIF file written using JARVIS-Tools package.
data_Th2Al2C3
_symmetry_space_group_name_H-M  'Pnnm'
_cell_length_a       3.52893
_cell_length_b       5.4317
_cell_length_c       11.6242
_cell_angle_alpha    90
_cell_angle_beta     90
_cell_angle_gamma    90

_symmetry_Int_Tables_number  58
_chemical_formula_structural  Th2Al2C3
_chemical_formula_sum  Th4Al4C6
_cell_volume  222.81351349827813
_cell_formula_units_Z  2
loop_
  _symmetry_equiv_pos_site_id
 _symmetry_equiv_pos_as_xyz
 1  'x, y, z'
loop_
 _atom_site_type_symbol
 _atom_site_label
 _atom_site_symmetry_multiplicity
 _atom_site_fract_x
 _atom_site_fract_y
 _atom_site_fract_z
 _atom_site_fract_occupancy
 Al  Al1  1  0.50000  0.81677  0.41516  1
 Al  Al2  1  0.00000  0.31677  0.08484  1
 Al  Al3  1  0.50000  0.18323  0.58484  1
 Al  Al4  1  0.00000  0.68323  0.91516  1
 C  C1  1  0.00000  0.16622  0.68692  1
 C  C2  1  0.50000  0.66622  0.81308  1
 C  C3  1  0.00000  0.83378  0.31308  1
 C  C4  1  0.00000  0.00000  0.00000  1
 C  C5  1  0.50000  0.33378  0.18692  1
 C  C6  1  0.50000  0.50000  0.50000  1
 Th  Th1  1  0.50000  0.82663  0.14953  1
 Th  Th2  1  0.00000  0.32663  0.35047  1
 Th  Th3  1  0.00000  0.67337  0.64953  1
 Th  Th4  1  0.50000  0.17337  0.85047  1
