CIF file written using JARVIS-Tools package.
data_TeMo2Se3
_symmetry_space_group_name_H-M  'P3m1'
_cell_length_a       3.38529
_cell_length_b       3.3853
_cell_length_c       36.1074
_cell_angle_alpha    90.0034
_cell_angle_beta     90
_cell_angle_gamma    120

_symmetry_Int_Tables_number  156
_chemical_formula_structural  TeMo2Se3
_chemical_formula_sum  Te2Mo4Se6
_cell_volume  358.35950168076295
_cell_formula_units_Z  2
loop_
  _symmetry_equiv_pos_site_id
 _symmetry_equiv_pos_as_xyz
 1  'x, y, z'
loop_
 _atom_site_type_symbol
 _atom_site_label
 _atom_site_symmetry_multiplicity
 _atom_site_fract_x
 _atom_site_fract_y
 _atom_site_fract_z
 _atom_site_fract_occupancy
 Mo  Mo1  1  0.33323  0.66646  0.09646  1
 Mo  Mo2  1  0.33336  0.66672  0.46883  1
 Mo  Mo3  1  0.66660  0.33320  0.27726  1
 Mo  Mo4  1  0.66681  0.33362  0.66036  1
 Se  Se1  1  0.33328  0.66657  0.32310  1
 Se  Se2  1  0.33350  0.66700  0.70611  1
 Se  Se3  1  0.66654  0.33309  0.05071  1
 Se  Se4  1  0.66659  0.33318  0.14228  1
 Se  Se5  1  0.33325  0.66649  0.23146  1
 Se  Se6  1  0.33344  0.66688  0.61452  1
 Te  Te1  1  0.66669  0.33338  0.41666  1
 Te  Te2  1  0.66670  0.33340  0.52099  1
