CIF file written using JARVIS-Tools package.
data_KPS3
_symmetry_space_group_name_H-M  'Immm'
_cell_length_a       6.84635
_cell_length_b       7.00828
_cell_length_c       7.00828
_cell_angle_alpha    70.9727
_cell_angle_beta     60.7614
_cell_angle_gamma    60.7613

_symmetry_Int_Tables_number  71
_chemical_formula_structural  KPS3
_chemical_formula_sum  K2P2S6
_cell_volume  254.34465618103502
_cell_formula_units_Z  2
loop_
  _symmetry_equiv_pos_site_id
 _symmetry_equiv_pos_as_xyz
 1  'x, y, z'
loop_
 _atom_site_type_symbol
 _atom_site_label
 _atom_site_symmetry_multiplicity
 _atom_site_fract_x
 _atom_site_fract_y
 _atom_site_fract_z
 _atom_site_fract_occupancy
 K  K1  1  -0.00000  0.25867  0.74133  1
 K  K2  1  0.00000  0.74133  0.25867  1
 P  P1  1  0.66252  0.33748  0.33748  1
 P  P2  1  0.33748  0.66252  0.66252  1
 S  S1  1  0.52520  0.22605  0.22605  1
 S  S2  1  0.97730  0.77395  0.77395  1
 S  S3  1  0.50000  0.30611  0.69389  1
 S  S4  1  0.50000  0.69389  0.30611  1
 S  S5  1  0.47480  0.77395  0.77395  1
 S  S6  1  0.02270  0.22605  0.22605  1
