CIF file written using JARVIS-Tools package.
data_TeW2SeS2
_symmetry_space_group_name_H-M  'P3m1'
_cell_length_a       3.31444
_cell_length_b       3.31443
_cell_length_c       38.8815
_cell_angle_alpha    90.0011
_cell_angle_beta     90
_cell_angle_gamma    120

_symmetry_Int_Tables_number  156
_chemical_formula_structural  TeW2SeS2
_chemical_formula_sum  Te2W4Se2S4
_cell_volume  369.9075794486432
_cell_formula_units_Z  2
loop_
  _symmetry_equiv_pos_site_id
 _symmetry_equiv_pos_as_xyz
 1  'x, y, z'
loop_
 _atom_site_type_symbol
 _atom_site_label
 _atom_site_symmetry_multiplicity
 _atom_site_fract_x
 _atom_site_fract_y
 _atom_site_fract_z
 _atom_site_fract_occupancy
 S  S1  1  0.33337  0.66674  0.32061  1
 S  S2  1  0.66666  0.33331  0.05459  1
 S  S3  1  0.66666  0.33332  0.13340  1
 S  S4  1  0.33335  0.66670  0.24167  1
 Se  Se1  1  0.33329  0.66659  0.70223  1
 Se  Se2  1  0.33328  0.66656  0.61562  1
 Te  Te1  1  0.66669  0.33338  0.41932  1
 Te  Te2  1  0.66670  0.33340  0.51837  1
 W  W1  1  0.33332  0.66664  0.09396  1
 W  W2  1  0.33336  0.66672  0.46887  1
 W  W3  1  0.66670  0.33339  0.28114  1
 W  W4  1  0.66662  0.33325  0.65898  1
