CIF file written using JARVIS-Tools package.
data_Lu2Si2O7
_symmetry_space_group_name_H-M  'C2/m'
_cell_length_a       4.75145
_cell_length_b       5.55673
_cell_length_c       5.55673
_cell_angle_alpha    105.07
_cell_angle_beta     97.3528
_cell_angle_gamma    97.3528

_symmetry_Int_Tables_number  12
_chemical_formula_structural  Lu2Si2O7
_chemical_formula_sum  Lu2Si2O7
_cell_volume  138.49501596326334
_cell_formula_units_Z  1
loop_
  _symmetry_equiv_pos_site_id
 _symmetry_equiv_pos_as_xyz
 1  'x, y, z'
loop_
 _atom_site_type_symbol
 _atom_site_label
 _atom_site_symmetry_multiplicity
 _atom_site_fract_x
 _atom_site_fract_y
 _atom_site_fract_z
 _atom_site_fract_occupancy
 Lu  Lu1  1  0.00000  0.30757  0.69243  1
 Lu  Lu2  1  1.00000  0.69243  0.30757  1
 O  O1  1  0.78128  0.91609  0.60947  1
 O  O2  1  0.21872  0.39053  0.08391  1
 O  O3  1  0.21872  0.08391  0.39053  1
 O  O4  1  0.78128  0.60947  0.91609  1
 O  O5  1  0.50000  -0.00000  -0.00000  1
 O  O6  1  0.28183  0.61313  0.61313  1
 O  O7  1  0.71817  0.38687  0.38687  1
 Si  Si1  1  0.41138  0.22170  0.22170  1
 Si  Si2  1  0.58862  0.77830  0.77830  1
