CIF file written using JARVIS-Tools package.
data_Ca2FeWO6
_symmetry_space_group_name_H-M  'Fm-3m'
_cell_length_a       5.56172
_cell_length_b       5.56172
_cell_length_c       5.56172
_cell_angle_alpha    60
_cell_angle_beta     60
_cell_angle_gamma    60

_symmetry_Int_Tables_number  225
_chemical_formula_structural  Ca2FeWO6
_chemical_formula_sum  Ca2FeWO6
_cell_volume  121.64990749537763
_cell_formula_units_Z  1
loop_
  _symmetry_equiv_pos_site_id
 _symmetry_equiv_pos_as_xyz
 1  'x, y, z'
loop_
 _atom_site_type_symbol
 _atom_site_label
 _atom_site_symmetry_multiplicity
 _atom_site_fract_x
 _atom_site_fract_y
 _atom_site_fract_z
 _atom_site_fract_occupancy
 Ca  Ca1  1  0.25000  0.25000  0.25000  1
 Ca  Ca2  1  0.75000  0.75000  0.75000  1
 Fe  Fe1  1  0.50000  0.50000  0.50000  1
 O  O1  1  0.24572  0.75428  0.75428  1
 O  O2  1  0.24572  0.75428  0.24572  1
 O  O3  1  0.75428  0.24572  0.75428  1
 O  O4  1  0.24572  0.24572  0.75428  1
 O  O5  1  0.75428  0.24572  0.24572  1
 O  O6  1  0.75428  0.75428  0.24572  1
 W  W1  1  0.00000  0.00000  0.00000  1
