CIF file written using JARVIS-Tools package.
data_Ge
_symmetry_space_group_name_H-M  'P4_32_12'
_cell_length_a       6.04263
_cell_length_b       6.04263
_cell_length_c       7.11563
_cell_angle_alpha    90
_cell_angle_beta     90
_cell_angle_gamma    90

_symmetry_Int_Tables_number  96
_chemical_formula_structural  Ge
_chemical_formula_sum  Ge2
_cell_volume  259.81569287858764
_cell_formula_units_Z  12
loop_
  _symmetry_equiv_pos_site_id
 _symmetry_equiv_pos_as_xyz
 1  'x, y, z'
loop_
 _atom_site_type_symbol
 _atom_site_label
 _atom_site_symmetry_multiplicity
 _atom_site_fract_x
 _atom_site_fract_y
 _atom_site_fract_z
 _atom_site_fract_occupancy
 Ge  Ge1  1  0.08854  0.08854  0.00000  1
 Ge  Ge2  1  0.41146  0.58854  0.75000  1
 Ge  Ge3  1  0.58854  0.41146  0.25000  1
 Ge  Ge4  1  0.91146  0.91146  0.50000  1
 Ge  Ge5  1  0.17216  0.37052  0.25387  1
 Ge  Ge6  1  0.12948  0.67216  0.00387  1
 Ge  Ge7  1  0.87052  0.32784  0.50387  1
 Ge  Ge8  1  0.67216  0.12948  0.99613  1
 Ge  Ge9  1  0.32784  0.87052  0.49613  1
 Ge  Ge10  1  0.82784  0.62948  0.75387  1
 Ge  Ge11  1  0.37052  0.17216  0.74613  1
 Ge  Ge12  1  0.62948  0.82784  0.24613  1
