CIF file written using JARVIS-Tools package.
data_KCuO
_symmetry_space_group_name_H-M  'I4/mmm'
_cell_length_a       5.48151
_cell_length_b       7.13419
_cell_length_c       7.1342
_cell_angle_alpha    81.5128
_cell_angle_beta     67.4077
_cell_angle_gamma    67.4077

_symmetry_Int_Tables_number  139
_chemical_formula_structural  KCuO
_chemical_formula_sum  K4Cu4O4
_cell_volume  237.8154447936703
_cell_formula_units_Z  4
loop_
  _symmetry_equiv_pos_site_id
 _symmetry_equiv_pos_as_xyz
 1  'x, y, z'
loop_
 _atom_site_type_symbol
 _atom_site_label
 _atom_site_symmetry_multiplicity
 _atom_site_fract_x
 _atom_site_fract_y
 _atom_site_fract_z
 _atom_site_fract_occupancy
 Cu  Cu1  1  0.89079  0.50000  0.21842  1
 Cu  Cu2  1  0.60921  0.78158  0.50000  1
 Cu  Cu3  1  0.60921  0.50000  0.78158  1
 Cu  Cu4  1  0.89079  0.21842  0.50000  1
 K  K1  1  0.25001  0.18873  0.81127  1
 K  K2  1  0.25001  0.81127  0.18873  1
 K  K3  1  0.93872  0.81127  0.81127  1
 K  K4  1  0.56126  0.18873  0.18873  1
 O  O1  1  0.47007  0.77991  0.77991  1
 O  O2  1  0.75002  0.22009  0.77991  1
 O  O3  1  0.75002  0.77991  0.22009  1
 O  O4  1  0.02989  0.22009  0.22009  1
