CIF file written using JARVIS-Tools package.
data_Ba2ZrS4
_symmetry_space_group_name_H-M  'I4/mmm'
_cell_length_a       4.97712
_cell_length_b       4.97711
_cell_length_c       8.67478
_cell_angle_alpha    106.671
_cell_angle_beta     106.671
_cell_angle_gamma    90

_symmetry_Int_Tables_number  139
_chemical_formula_structural  Ba2ZrS4
_chemical_formula_sum  Ba2ZrS4
_cell_volume  196.40960959154376
_cell_formula_units_Z  1
loop_
  _symmetry_equiv_pos_site_id
 _symmetry_equiv_pos_as_xyz
 1  'x, y, z'
loop_
 _atom_site_type_symbol
 _atom_site_label
 _atom_site_symmetry_multiplicity
 _atom_site_fract_x
 _atom_site_fract_y
 _atom_site_fract_z
 _atom_site_fract_occupancy
 Ba  Ba1  1  0.64187  0.64187  0.28375  1
 Ba  Ba2  1  0.35813  0.35813  0.71625  1
 S  S1  1  0.00000  0.50000  -0.00000  1
 S  S2  1  0.50000  0.00000  -0.00000  1
 S  S3  1  0.83654  0.83654  0.67308  1
 S  S4  1  0.16346  0.16346  0.32692  1
 Zr  Zr1  1  0.00000  0.00000  0.00000  1
