CIF file written using JARVIS-Tools package.
data_Rb2NbCuSe4
_symmetry_space_group_name_H-M  'Fddd'
_cell_length_a       5.79591
_cell_length_b       7.50895
_cell_length_c       12.5855
_cell_angle_alpha    84.9016
_cell_angle_beta     76.6875
_cell_angle_gamma    67.2983

_symmetry_Int_Tables_number  70
_chemical_formula_structural  Rb2NbCuSe4
_chemical_formula_sum  Rb4Nb2Cu2Se8
_cell_volume  491.7249278123249
_cell_formula_units_Z  2
loop_
  _symmetry_equiv_pos_site_id
 _symmetry_equiv_pos_as_xyz
 1  'x, y, z'
loop_
 _atom_site_type_symbol
 _atom_site_label
 _atom_site_symmetry_multiplicity
 _atom_site_fract_x
 _atom_site_fract_y
 _atom_site_fract_z
 _atom_site_fract_occupancy
 Cu  Cu1  1  0.87500  0.25000  0.25000  1
 Cu  Cu2  1  0.12500  0.75000  0.75000  1
 Nb  Nb1  1  0.37500  0.25000  0.25000  1
 Nb  Nb2  1  0.62500  0.75000  0.75000  1
 Rb  Rb1  1  0.80431  0.75000  0.39138  1
 Rb  Rb2  1  0.44569  0.75000  0.10862  1
 Rb  Rb3  1  0.55431  0.25000  0.89138  1
 Rb  Rb4  1  0.19569  0.25000  0.60862  1
 Se  Se1  1  0.91418  0.54700  0.86378  1
 Se  Se2  1  0.82496  0.95300  0.63622  1
 Se  Se3  1  0.53882  0.54700  0.63622  1
 Se  Se4  1  0.22204  0.95300  0.86378  1
 Se  Se5  1  0.46118  0.45300  0.36378  1
 Se  Se6  1  0.77796  0.04700  0.13622  1
 Se  Se7  1  0.17504  0.04700  0.36378  1
 Se  Se8  1  0.08582  0.45300  0.13622  1
