CIF file written using JARVIS-Tools package.
data_MnH10S2N4O8
_symmetry_space_group_name_H-M  'P-1'
_cell_length_a       5.44699
_cell_length_b       5.805
_cell_length_c       7.38703
_cell_angle_alpha    92.6264
_cell_angle_beta     104.689
_cell_angle_gamma    99.1665

_symmetry_Int_Tables_number  2
_chemical_formula_structural  MnH10S2N4O8
_chemical_formula_sum  MnH0S2N4O8
_cell_volume  222.14600483125363
_cell_formula_units_Z  1
loop_
  _symmetry_equiv_pos_site_id
 _symmetry_equiv_pos_as_xyz
 1  'x, y, z'
loop_
 _atom_site_type_symbol
 _atom_site_label
 _atom_site_symmetry_multiplicity
 _atom_site_fract_x
 _atom_site_fract_y
 _atom_site_fract_z
 _atom_site_fract_occupancy
 H  H1  1  0.43902  0.78371  0.28957  1
 H  H2  1  0.78077  0.45180  0.82681  1
 H  H3  1  0.56098  0.21629  0.71043  1
 H  H4  1  0.21923  0.54820  0.17319  1
 H  H5  1  0.90297  0.71160  0.27720  1
 H  H6  1  0.87115  0.06625  0.61348  1
 H  H7  1  0.09703  0.28840  0.72280  1
 H  H8  1  0.71287  0.40734  0.58672  1
 H  H9  1  0.28713  0.59266  0.41328  1
 H  H10  1  0.12885  0.93375  0.38652  1
 Mn  Mn1  1  0.00000  0.00000  0.00000  1
 N  N1  1  0.06929  0.81925  0.26640  1
 N  N2  1  0.26543  0.67309  0.28669  1
 N  N3  1  0.93071  0.18075  0.73360  1
 N  N4  1  0.73457  0.32691  0.71331  1
 O  O1  1  0.62427  0.76760  0.90642  1
 O  O2  1  0.33953  0.95561  0.67011  1
 O  O3  1  0.66047  0.04439  0.32989  1
 O  O4  1  0.37573  0.23240  0.09358  1
 O  O5  1  0.30511  0.53278  0.64675  1
 O  O6  1  0.69489  0.46722  0.35325  1
 O  O7  1  0.16672  0.72468  0.89124  1
 O  O8  1  0.83328  0.27532  0.10876  1
 S  S1  1  0.63924  0.25233  0.22144  1
 S  S2  1  0.36076  0.74767  0.77856  1
