CIF file written using JARVIS-Tools package.
data_NbOF2
_symmetry_space_group_name_H-M  'C2/m'
_cell_length_a       3.88899
_cell_length_b       4.99162
_cell_length_c       3.41448
_cell_angle_alpha    69.9519
_cell_angle_beta     90.0032
_cell_angle_gamma    113.255

_symmetry_Int_Tables_number  12
_chemical_formula_structural  NbOF2
_chemical_formula_sum  NbOF2
_cell_volume  56.500643052129455
_cell_formula_units_Z  1
loop_
  _symmetry_equiv_pos_site_id
 _symmetry_equiv_pos_as_xyz
 1  'x, y, z'
loop_
 _atom_site_type_symbol
 _atom_site_label
 _atom_site_symmetry_multiplicity
 _atom_site_fract_x
 _atom_site_fract_y
 _atom_site_fract_z
 _atom_site_fract_occupancy
 F  F1  1  0.15099  0.29557  0.34272  1
 F  F2  1  0.85083  0.70235  0.63997  1
 Nb  Nb1  1  0.00090  -0.00104  0.99135  1
 O  O1  1  0.50089  -0.00104  0.99135  1
