CIF file written using JARVIS-Tools package.
data_K2HgS2
_symmetry_space_group_name_H-M  'Pbcm'
_cell_length_a       7.00371
_cell_length_b       8.05709
_cell_length_c       10.7659
_cell_angle_alpha    90
_cell_angle_beta     90
_cell_angle_gamma    90

_symmetry_Int_Tables_number  57
_chemical_formula_structural  K2HgS2
_chemical_formula_sum  K8Hg4S8
_cell_volume  607.5119324617856
_cell_formula_units_Z  4
loop_
  _symmetry_equiv_pos_site_id
 _symmetry_equiv_pos_as_xyz
 1  'x, y, z'
loop_
 _atom_site_type_symbol
 _atom_site_label
 _atom_site_symmetry_multiplicity
 _atom_site_fract_x
 _atom_site_fract_y
 _atom_site_fract_z
 _atom_site_fract_occupancy
 Hg  Hg1  1  0.25000  0.66290  0.28513  1
 Hg  Hg2  1  0.75000  0.83710  0.28513  1
 Hg  Hg3  1  0.75000  0.33710  0.71487  1
 Hg  Hg4  1  0.25000  0.16290  0.71487  1
 K  K1  1  0.75000  0.45441  0.11321  1
 K  K2  1  0.25000  0.04559  0.11321  1
 K  K3  1  0.75000  0.95441  0.88679  1
 K  K4  1  0.50000  0.75000  0.60598  1
 K  K5  1  0.00000  0.25000  0.39402  1
 K  K6  1  0.50000  0.25000  0.39402  1
 K  K7  1  0.25000  0.54559  0.88679  1
 K  K8  1  0.00000  0.75000  0.60598  1
 S  S1  1  0.25000  0.92105  0.83750  1
 S  S2  1  0.75000  0.07895  0.16250  1
 S  S3  1  0.25000  0.41627  0.60548  1
 S  S4  1  0.75000  0.58373  0.39452  1
 S  S5  1  0.25000  0.42105  0.16250  1
 S  S6  1  0.25000  0.91627  0.39452  1
 S  S7  1  0.75000  0.57895  0.83750  1
 S  S8  1  0.75000  0.08373  0.60548  1
