CIF file written using JARVIS-Tools package.
data_ZnCoF6
_symmetry_space_group_name_H-M  'R-3'
_cell_length_a       5.22737
_cell_length_b       5.22736
_cell_length_c       5.22736
_cell_angle_alpha    55.1259
_cell_angle_beta     55.1259
_cell_angle_gamma    55.1259

_symmetry_Int_Tables_number  148
_chemical_formula_structural  ZnCoF6
_chemical_formula_sum  ZnCoF6
_cell_volume  89.55458129765057
_cell_formula_units_Z  1
loop_
  _symmetry_equiv_pos_site_id
 _symmetry_equiv_pos_as_xyz
 1  'x, y, z'
loop_
 _atom_site_type_symbol
 _atom_site_label
 _atom_site_symmetry_multiplicity
 _atom_site_fract_x
 _atom_site_fract_y
 _atom_site_fract_z
 _atom_site_fract_occupancy
 Co  Co1  1  0.00000  0.00000  0.00000  1
 F  F1  1  0.38279  0.08315  0.77089  1
 F  F2  1  0.08315  0.77089  0.38279  1
 F  F3  1  0.22911  0.61721  0.91685  1
 F  F4  1  0.91685  0.22911  0.61721  1
 F  F5  1  0.61721  0.91685  0.22911  1
 F  F6  1  0.77089  0.38279  0.08315  1
 Zn  Zn1  1  0.50000  0.50000  0.50000  1
