CIF file written using JARVIS-Tools package.
data_MoWSe3S
_symmetry_space_group_name_H-M  'P3m1'
_cell_length_a       3.29112
_cell_length_b       3.29112
_cell_length_c       34.3889
_cell_angle_alpha    90.0035
_cell_angle_beta     89.9973
_cell_angle_gamma    120

_symmetry_Int_Tables_number  156
_chemical_formula_structural  MoWSe3S
_chemical_formula_sum  Mo2W2Se6S2
_cell_volume  322.5795015230304
_cell_formula_units_Z  2
loop_
  _symmetry_equiv_pos_site_id
 _symmetry_equiv_pos_as_xyz
 1  'x, y, z'
loop_
 _atom_site_type_symbol
 _atom_site_label
 _atom_site_symmetry_multiplicity
 _atom_site_fract_x
 _atom_site_fract_y
 _atom_site_fract_z
 _atom_site_fract_occupancy
 Mo  Mo1  1  0.33332  0.66668  0.09167  1
 Mo  Mo2  1  0.66667  0.33332  0.28418  1
 S  S1  1  0.66670  0.33333  0.42544  1
 S  S2  1  0.66665  0.33334  0.51516  1
 Se  Se1  1  0.33332  0.66669  0.33320  1
 Se  Se2  1  0.33332  0.66668  0.70603  1
 Se  Se3  1  0.66666  0.33331  0.04269  1
 Se  Se4  1  0.66665  0.33338  0.14072  1
 Se  Se5  1  0.33334  0.66662  0.23515  1
 Se  Se6  1  0.33335  0.66663  0.60745  1
 W  W1  1  0.33334  0.66668  0.47030  1
 W  W2  1  0.66667  0.33333  0.65676  1
