CIF file written using JARVIS-Tools package.
data_NaHCN2
_symmetry_space_group_name_H-M  'Pbcm'
_cell_length_a       3.45002
_cell_length_b       6.40854
_cell_length_c       10.4787
_cell_angle_alpha    90
_cell_angle_beta     90
_cell_angle_gamma    90

_symmetry_Int_Tables_number  57
_chemical_formula_structural  NaHCN2
_chemical_formula_sum  Na4H4C4N8
_cell_volume  231.68006089784046
_cell_formula_units_Z  4
loop_
  _symmetry_equiv_pos_site_id
 _symmetry_equiv_pos_as_xyz
 1  'x, y, z'
loop_
 _atom_site_type_symbol
 _atom_site_label
 _atom_site_symmetry_multiplicity
 _atom_site_fract_x
 _atom_site_fract_y
 _atom_site_fract_z
 _atom_site_fract_occupancy
 C  C1  1  0.19434  0.75000  0.45173  1
 C  C2  1  0.80566  0.25000  0.54827  1
 C  C3  1  0.80566  0.75000  0.95173  1
 C  C4  1  0.19434  0.25000  0.04827  1
 H  H1  1  0.82018  0.25000  0.91115  1
 H  H2  1  0.17982  0.75000  0.08885  1
 H  H3  1  0.82018  0.75000  0.58885  1
 H  H4  1  0.17982  0.25000  0.41115  1
 N  N1  1  0.88683  0.75000  0.07045  1
 N  N2  1  0.11317  0.25000  0.92955  1
 N  N3  1  0.70404  0.25000  0.65771  1
 N  N4  1  0.29596  0.75000  0.34229  1
 N  N5  1  0.70404  0.75000  0.84229  1
 N  N6  1  0.88683  0.25000  0.42955  1
 N  N7  1  0.11317  0.75000  0.57045  1
 N  N8  1  0.29596  0.25000  0.15771  1
 Na  Na1  1  0.76692  0.00000  0.25000  1
 Na  Na2  1  0.23308  0.50000  0.75000  1
 Na  Na3  1  0.23308  0.00000  0.75000  1
 Na  Na4  1  0.76692  0.50000  0.25000  1
