CIF file written using JARVIS-Tools package.
data_RbCuC2
_symmetry_space_group_name_H-M  'P4_2/mmc'
_cell_length_a       4.92931
_cell_length_b       4.92931
_cell_length_c       8.15036
_cell_angle_alpha    90
_cell_angle_beta     90
_cell_angle_gamma    90

_symmetry_Int_Tables_number  131
_chemical_formula_structural  RbCuC2
_chemical_formula_sum  Rb2Cu2C4
_cell_volume  198.03817195911427
_cell_formula_units_Z  2
loop_
  _symmetry_equiv_pos_site_id
 _symmetry_equiv_pos_as_xyz
 1  'x, y, z'
loop_
 _atom_site_type_symbol
 _atom_site_label
 _atom_site_symmetry_multiplicity
 _atom_site_fract_x
 _atom_site_fract_y
 _atom_site_fract_z
 _atom_site_fract_occupancy
 C  C1  1  0.87332  0.50000  0.50000  1
 C  C2  1  0.50000  0.87332  0.00000  1
 C  C3  1  0.12668  0.50000  0.50000  1
 C  C4  1  0.50000  0.12668  0.00000  1
 Cu  Cu1  1  0.50000  0.50000  0.00000  1
 Cu  Cu2  1  0.50000  0.50000  0.50000  1
 Rb  Rb1  1  0.00000  0.00000  0.75000  1
 Rb  Rb2  1  0.00000  0.00000  0.25000  1
