data_image0
_chemical_formula_structural       F6PtZn
_chemical_formula_sum              "F6 Pt1 Zn1"
_cell_length_a       4.81127
_cell_length_b       4.81127
_cell_length_c       5.28737
_cell_angle_alpha    62.9365
_cell_angle_beta     117.063
_cell_angle_gamma    120

_space_group_name_H-M_alt    "P 1"
_space_group_IT_number       1

loop_
  _space_group_symop_operation_xyz
  'x, y, z'

loop_
  _atom_site_type_symbol
  _atom_site_label
  _atom_site_symmetry_multiplicity
  _atom_site_fract_x
  _atom_site_fract_y
  _atom_site_fract_z
  _atom_site_occupancy
  F   F1        1.0  0.75500  0.57700  0.24900  1.0000
  F   F2        1.0  0.07090  0.24500  0.24900  1.0000
  F   F3        1.0  0.42300  0.92900  0.24900  1.0000
  F   F4        1.0  0.57700  0.07090  0.75100  1.0000
  F   F5        1.0  0.92900  0.75500  0.75100  1.0000
  F   F6        1.0  0.24500  0.42300  0.75100  1.0000
  Pt  Pt1       1.0  0.00000  0.00000  0.00000  1.0000
  Zn  Zn1       1.0  0.50000  0.50000  0.50000  1.0000
