CIF file written using JARVIS-Tools package.
data_NiO2
_symmetry_space_group_name_H-M  'C2/m'
_cell_length_a       2.82764
_cell_length_b       2.82765
_cell_length_c       9.23479
_cell_angle_alpha    72.5933
_cell_angle_beta     90.0156
_cell_angle_gamma    120.001

_symmetry_Int_Tables_number  12
_chemical_formula_structural  NiO2
_chemical_formula_sum  Ni2O4
_cell_volume  60.011987429371246
_cell_formula_units_Z  2
loop_
  _symmetry_equiv_pos_site_id
 _symmetry_equiv_pos_as_xyz
 1  'x, y, z'
loop_
 _atom_site_type_symbol
 _atom_site_label
 _atom_site_symmetry_multiplicity
 _atom_site_fract_x
 _atom_site_fract_y
 _atom_site_fract_z
 _atom_site_fract_occupancy
 Ni  Ni1  1  -0.00137  0.00013  0.50208  1
 Ni  Ni2  1  -0.00307  -0.00065  0.00206  1
 O  O1  1  0.73591  0.47489  0.39358  1
 O  O2  1  0.59295  0.19117  0.11066  1
 O  O3  1  0.26133  0.52536  0.61059  1
 O  O4  1  0.40094  0.80754  0.89348  1
