CIF file written using JARVIS-Tools package.
data_Ba3NaIrO6
_symmetry_space_group_name_H-M  'R-3c'
_cell_length_a       7.126
_cell_length_b       7.12601
_cell_length_c       7.126
_cell_angle_alpha    91.6022
_cell_angle_beta     91.6022
_cell_angle_gamma    91.6022

_symmetry_Int_Tables_number  167
_chemical_formula_structural  Ba3NaIrO6
_chemical_formula_sum  Ba6Na2Ir2O2
_cell_volume  361.42504085046875
_cell_formula_units_Z  2
loop_
  _symmetry_equiv_pos_site_id
 _symmetry_equiv_pos_as_xyz
 1  'x, y, z'
loop_
 _atom_site_type_symbol
 _atom_site_label
 _atom_site_symmetry_multiplicity
 _atom_site_fract_x
 _atom_site_fract_y
 _atom_site_fract_z
 _atom_site_fract_occupancy
 Ba  Ba1  1  0.89340  0.60660  0.25000  1
 Ba  Ba2  1  0.25000  0.89340  0.60660  1
 Ba  Ba3  1  0.60660  0.25000  0.89340  1
 Ba  Ba4  1  0.10660  0.39340  0.75000  1
 Ba  Ba5  1  0.75000  0.10660  0.39340  1
 Ba  Ba6  1  0.39340  0.75000  0.10660  1
 Ir  Ir1  1  0.50000  0.50000  0.50000  1
 Ir  Ir2  1  0.00000  0.00000  0.00000  1
 Na  Na1  1  0.75000  0.75000  0.75000  1
 Na  Na2  1  0.25000  0.25000  0.25000  1
 O  O1  1  0.44946  0.58324  0.76745  1
 O  O2  1  0.58324  0.76745  0.44946  1
 O  O3  1  0.91676  0.05054  0.73255  1
 O  O4  1  0.05054  0.73255  0.91676  1
 O  O5  1  0.73255  0.91676  0.05054  1
 O  O6  1  0.94946  0.26745  0.08324  1
 O  O7  1  0.55054  0.41676  0.23255  1
 O  O8  1  0.41676  0.23255  0.55054  1
 O  O9  1  0.76745  0.44946  0.58324  1
 O  O10  1  0.08324  0.94946  0.26745  1
 O  O11  1  0.23255  0.55054  0.41676  1
 O  O12  1  0.26745  0.08324  0.94946  1
