CIF file written using JARVIS-Tools package.
data_MnP2
_symmetry_space_group_name_H-M  'Pnnm'
_cell_length_a       2.76086
_cell_length_b       5.08957
_cell_length_c       5.81841
_cell_angle_alpha    90
_cell_angle_beta     90
_cell_angle_gamma    90

_symmetry_Int_Tables_number  58
_chemical_formula_structural  MnP2
_chemical_formula_sum  Mn2P4
_cell_volume  81.7579699513021
_cell_formula_units_Z  2
loop_
  _symmetry_equiv_pos_site_id
 _symmetry_equiv_pos_as_xyz
 1  'x, y, z'
loop_
 _atom_site_type_symbol
 _atom_site_label
 _atom_site_symmetry_multiplicity
 _atom_site_fract_x
 _atom_site_fract_y
 _atom_site_fract_z
 _atom_site_fract_occupancy
 Mn  Mn1  1  0.00000  0.00000  0.00000  1
 Mn  Mn2  1  0.50000  0.50000  0.50000  1
 P  P1  1  0.00000  0.17250  0.37305  1
 P  P2  1  0.50000  0.32750  0.87305  1
 P  P3  1  0.50000  0.67250  0.12695  1
 P  P4  1  0.00000  0.82750  0.62695  1
