CIF file written using JARVIS-Tools package.
data_TiCo2O6
_symmetry_space_group_name_H-M  'C2/m'
_cell_length_a       6.16097
_cell_length_b       2.90019
_cell_length_c       5.56034
_cell_angle_alpha    89.9921
_cell_angle_beta     99.6438
_cell_angle_gamma    76.3917

_symmetry_Int_Tables_number  12
_chemical_formula_structural  TiCo2O6
_chemical_formula_sum  TiCo2O6
_cell_volume  95.11678275517002
_cell_formula_units_Z  1
loop_
  _symmetry_equiv_pos_site_id
 _symmetry_equiv_pos_as_xyz
 1  'x, y, z'
loop_
 _atom_site_type_symbol
 _atom_site_label
 _atom_site_symmetry_multiplicity
 _atom_site_fract_x
 _atom_site_fract_y
 _atom_site_fract_z
 _atom_site_fract_occupancy
 Co  Co1  1  0.99547  0.99840  0.00165  1
 Co  Co2  1  0.67024  0.66106  0.66798  1
 O  O1  1  -0.00161  0.49689  0.22031  1
 O  O2  1  0.34852  0.82183  0.57306  1
 O  O3  1  0.68436  0.15395  0.88943  1
 O  O4  1  0.31717  0.83760  0.09674  1
 O  O5  1  0.66723  0.16261  0.44933  1
 O  O6  1  0.98137  0.50552  0.78019  1
 Ti  Ti1  1  0.33274  0.32978  0.33490  1
