CIF file written using JARVIS-Tools package.
data_Mn3SiIr
_symmetry_space_group_name_H-M  'P2_13'
_cell_length_a       6.35093
_cell_length_b       6.35093
_cell_length_c       6.35093
_cell_angle_alpha    90
_cell_angle_beta     90
_cell_angle_gamma    90

_symmetry_Int_Tables_number  198
_chemical_formula_structural  Mn3SiIr
_chemical_formula_sum  Mn2Si4Ir4
_cell_volume  256.1598272019466
_cell_formula_units_Z  4
loop_
  _symmetry_equiv_pos_site_id
 _symmetry_equiv_pos_as_xyz
 1  'x, y, z'
loop_
 _atom_site_type_symbol
 _atom_site_label
 _atom_site_symmetry_multiplicity
 _atom_site_fract_x
 _atom_site_fract_y
 _atom_site_fract_z
 _atom_site_fract_occupancy
 Ir  Ir1  1  0.68754  0.68754  0.68754  1
 Ir  Ir2  1  0.31246  0.18754  0.81246  1
 Ir  Ir3  1  0.81246  0.31246  0.18754  1
 Ir  Ir4  1  0.18754  0.81246  0.31246  1
 Mn  Mn1  1  0.63046  0.28929  0.54942  1
 Mn  Mn2  1  0.78929  0.95058  0.36954  1
 Mn  Mn3  1  0.86954  0.71071  0.04942  1
 Mn  Mn4  1  0.54942  0.63046  0.28929  1
 Mn  Mn5  1  0.45058  0.13046  0.21071  1
 Mn  Mn6  1  0.13046  0.21071  0.45058  1
 Mn  Mn7  1  0.36954  0.78929  0.95058  1
 Mn  Mn8  1  0.28929  0.54942  0.63046  1
 Mn  Mn9  1  0.21071  0.45058  0.13046  1
 Mn  Mn10  1  0.95058  0.36954  0.78929  1
 Mn  Mn11  1  0.71071  0.04942  0.86954  1
 Mn  Mn12  1  0.04942  0.86954  0.71071  1
 Si  Si1  1  0.94247  0.55753  0.44247  1
 Si  Si2  1  0.55753  0.44247  0.94247  1
 Si  Si3  1  0.44247  0.94247  0.55753  1
 Si  Si4  1  0.05753  0.05753  0.05753  1
