CIF file written using JARVIS-Tools package.
data_LuMg3
_symmetry_space_group_name_H-M  'P6_3/mmc'
_cell_length_a       6.56906
_cell_length_b       6.56906
_cell_length_c       5.1537
_cell_angle_alpha    90
_cell_angle_beta     90
_cell_angle_gamma    120

_symmetry_Int_Tables_number  194
_chemical_formula_structural  LuMg3
_chemical_formula_sum  Lu2Mg6
_cell_volume  192.5998926544276
_cell_formula_units_Z  2
loop_
  _symmetry_equiv_pos_site_id
 _symmetry_equiv_pos_as_xyz
 1  'x, y, z'
loop_
 _atom_site_type_symbol
 _atom_site_label
 _atom_site_symmetry_multiplicity
 _atom_site_fract_x
 _atom_site_fract_y
 _atom_site_fract_z
 _atom_site_fract_occupancy
 Lu  Lu1  1  0.66667  0.33333  0.25000  1
 Lu  Lu2  1  0.33333  0.66667  0.75000  1
 Mg  Mg1  1  0.16500  0.32999  0.25000  1
 Mg  Mg2  1  0.16500  0.83500  0.25000  1
 Mg  Mg3  1  0.67001  0.83500  0.25000  1
 Mg  Mg4  1  0.32999  0.16500  0.75000  1
 Mg  Mg5  1  0.83500  0.16500  0.75000  1
 Mg  Mg6  1  0.83500  0.67001  0.75000  1
