CIF file written using JARVIS-Tools package.
data_FeN3ClO3
_symmetry_space_group_name_H-M  'P6_3mc'
_cell_length_a       7.12511
_cell_length_b       7.12512
_cell_length_c       5.97882
_cell_angle_alpha    90
_cell_angle_beta     90
_cell_angle_gamma    120

_symmetry_Int_Tables_number  186
_chemical_formula_structural  FeN3ClO3
_chemical_formula_sum  Fe2N6Cl2O6
_cell_volume  262.8630386836911
_cell_formula_units_Z  2
loop_
  _symmetry_equiv_pos_site_id
 _symmetry_equiv_pos_as_xyz
 1  'x, y, z'
loop_
 _atom_site_type_symbol
 _atom_site_label
 _atom_site_symmetry_multiplicity
 _atom_site_fract_x
 _atom_site_fract_y
 _atom_site_fract_z
 _atom_site_fract_occupancy
 Cl  Cl1  1  0.33333  0.66667  0.16467  1
 Cl  Cl2  1  0.66667  0.33333  0.66467  1
 Fe  Fe1  1  0.33333  0.66667  0.78871  1
 Fe  Fe2  1  0.66667  0.33333  0.28871  1
 N  N1  1  0.79320  0.20680  0.18393  1
 N  N2  1  0.58640  0.79320  0.68393  1
 N  N3  1  0.20680  0.79320  0.68393  1
 N  N4  1  0.41360  0.20680  0.18393  1
 N  N5  1  0.79320  0.58640  0.18393  1
 N  N6  1  0.20680  0.41360  0.68393  1
 O  O1  1  0.86483  0.13517  0.05666  1
 O  O2  1  0.13517  0.27034  0.55666  1
 O  O3  1  0.13517  0.86483  0.55666  1
 O  O4  1  0.27034  0.13517  0.05666  1
 O  O5  1  0.72966  0.86483  0.55666  1
 O  O6  1  0.86483  0.72966  0.05666  1
