CIF file written using JARVIS-Tools package.
data_Lu2MgS4
_symmetry_space_group_name_H-M  'Fd-3m'
_cell_length_a       7.73734
_cell_length_b       7.73734
_cell_length_c       7.73733
_cell_angle_alpha    60
_cell_angle_beta     60
_cell_angle_gamma    60

_symmetry_Int_Tables_number  227
_chemical_formula_structural  Lu2MgS4
_chemical_formula_sum  Lu4Mg2S8
_cell_volume  327.53601215683307
_cell_formula_units_Z  2
loop_
  _symmetry_equiv_pos_site_id
 _symmetry_equiv_pos_as_xyz
 1  'x, y, z'
loop_
 _atom_site_type_symbol
 _atom_site_label
 _atom_site_symmetry_multiplicity
 _atom_site_fract_x
 _atom_site_fract_y
 _atom_site_fract_z
 _atom_site_fract_occupancy
 Lu  Lu1  1  0.50000  0.50000  0.50000  1
 Lu  Lu2  1  0.50000  0.00000  0.50000  1
 Lu  Lu3  1  0.00000  0.50000  0.50000  1
 Lu  Lu4  1  0.50000  0.50000  0.00000  1
 Mg  Mg1  1  0.87500  0.87500  0.87500  1
 Mg  Mg2  1  0.12500  0.12500  0.12500  1
 S  S1  1  0.25568  0.25568  0.73297  1
 S  S2  1  0.74432  0.74432  0.74432  1
 S  S3  1  0.74432  0.74432  0.26703  1
 S  S4  1  0.25568  0.73297  0.25568  1
 S  S5  1  0.25568  0.25568  0.25568  1
 S  S6  1  0.26703  0.74432  0.74432  1
 S  S7  1  0.74432  0.26703  0.74432  1
 S  S8  1  0.73297  0.25568  0.25568  1
