CIF file written using JARVIS-Tools package.
data_DyP5
_symmetry_space_group_name_H-M  'P2_1/m'
_cell_length_a       4.94761
_cell_length_b       9.45884
_cell_length_c       5.37371
_cell_angle_alpha    90
_cell_angle_beta     102.535
_cell_angle_gamma    90

_symmetry_Int_Tables_number  11
_chemical_formula_structural  DyP5
_chemical_formula_sum  Dy2P0
_cell_volume  245.4878305017167
_cell_formula_units_Z  2
loop_
  _symmetry_equiv_pos_site_id
 _symmetry_equiv_pos_as_xyz
 1  'x, y, z'
loop_
 _atom_site_type_symbol
 _atom_site_label
 _atom_site_symmetry_multiplicity
 _atom_site_fract_x
 _atom_site_fract_y
 _atom_site_fract_z
 _atom_site_fract_occupancy
 Dy  Dy1  1  0.99297  0.25000  0.65114  1
 Dy  Dy2  1  0.00703  0.75000  0.34886  1
 P  P1  1  0.72507  0.25000  0.10514  1
 P  P2  1  0.27493  0.75000  0.89486  1
 P  P3  1  0.38178  0.40764  0.04217  1
 P  P4  1  0.61822  0.90764  0.95783  1
 P  P5  1  0.61822  0.59236  0.95783  1
 P  P6  1  0.38178  0.09236  0.04217  1
 P  P7  1  0.28405  0.47024  0.40380  1
 P  P8  1  0.71595  0.97024  0.59620  1
 P  P9  1  0.71595  0.52976  0.59620  1
 P  P10  1  0.28405  0.02976  0.40380  1
