CIF file written using JARVIS-Tools package.
data_CeB3O6
_symmetry_space_group_name_H-M  'C2/c'
_cell_length_a       6.41014
_cell_length_b       6.41014
_cell_length_c       6.4319
_cell_angle_alpha    62.677
_cell_angle_beta     62.677
_cell_angle_gamma    79.2335

_symmetry_Int_Tables_number  15
_chemical_formula_structural  CeB3O6
_chemical_formula_sum  Ce2B6O2
_cell_volume  208.50887712811857
_cell_formula_units_Z  2
loop_
  _symmetry_equiv_pos_site_id
 _symmetry_equiv_pos_as_xyz
 1  'x, y, z'
loop_
 _atom_site_type_symbol
 _atom_site_label
 _atom_site_symmetry_multiplicity
 _atom_site_fract_x
 _atom_site_fract_y
 _atom_site_fract_z
 _atom_site_fract_occupancy
 B  B1  1  0.79236  0.65745  0.91697  1
 B  B2  1  0.34255  0.20764  0.58303  1
 B  B3  1  0.22063  0.77937  0.75000  1
 B  B4  1  0.65745  0.79236  0.41697  1
 B  B5  1  0.77937  0.22063  0.25000  1
 B  B6  1  0.20764  0.34255  0.08303  1
 Ce  Ce1  1  0.80117  0.19883  0.75000  1
 Ce  Ce2  1  0.19883  0.80117  0.25000  1
 O  O1  1  0.61226  0.78650  0.00027  1
 O  O2  1  0.99438  0.21839  0.28579  1
 O  O3  1  0.78161  0.00562  0.21421  1
 O  O4  1  0.41434  0.78973  0.50908  1
 O  O5  1  0.21027  0.58566  0.99092  1
 O  O6  1  0.78650  0.61226  0.50027  1
 O  O7  1  0.78973  0.41434  0.00908  1
 O  O8  1  0.38774  0.21350  0.99973  1
 O  O9  1  0.00562  0.78161  0.71421  1
 O  O10  1  0.21839  0.99438  0.78579  1
 O  O11  1  0.58566  0.21027  0.49092  1
 O  O12  1  0.21350  0.38774  0.49973  1
