CIF file written using JARVIS-Tools package.
data_BaH4O3
_symmetry_space_group_name_H-M  'Pmc2_1'
_cell_length_a       3.94451
_cell_length_b       6.3221
_cell_length_c       6.90292
_cell_angle_alpha    90
_cell_angle_beta     90
_cell_angle_gamma    90

_symmetry_Int_Tables_number  26
_chemical_formula_structural  BaH4O3
_chemical_formula_sum  Ba2H8O6
_cell_volume  172.1422459764036
_cell_formula_units_Z  2
loop_
  _symmetry_equiv_pos_site_id
 _symmetry_equiv_pos_as_xyz
 1  'x, y, z'
loop_
 _atom_site_type_symbol
 _atom_site_label
 _atom_site_symmetry_multiplicity
 _atom_site_fract_x
 _atom_site_fract_y
 _atom_site_fract_z
 _atom_site_fract_occupancy
 Ba  Ba1  1  0.00000  0.64663  0.75299  1
 Ba  Ba2  1  0.00000  0.35337  0.25299  1
 H  H1  1  0.50000  0.30297  0.61098  1
 H  H2  1  0.50000  0.69703  0.11098  1
 H  H3  1  0.50000  0.98456  0.58236  1
 H  H4  1  0.50000  0.01544  0.08236  1
 H  H5  1  0.20220  0.12498  0.81026  1
 H  H6  1  0.79780  0.87502  0.31026  1
 H  H7  1  0.20220  0.87502  0.31026  1
 H  H8  1  0.79780  0.12498  0.81026  1
 O  O1  1  0.00000  0.20533  0.86480  1
 O  O2  1  0.50000  0.56492  0.03660  1
 O  O3  1  0.50000  0.97164  0.72365  1
 O  O4  1  0.50000  0.02836  0.22365  1
 O  O5  1  0.00000  0.79467  0.36480  1
 O  O6  1  0.50000  0.43508  0.53660  1
