CIF file written using JARVIS-Tools package.
data_SrSeO3
_symmetry_space_group_name_H-M  'P2_1/m'
_cell_length_a       4.46447
_cell_length_b       5.52015
_cell_length_c       6.5904
_cell_angle_alpha    90
_cell_angle_beta     107.444
_cell_angle_gamma    90

_symmetry_Int_Tables_number  11
_chemical_formula_structural  SrSeO3
_chemical_formula_sum  Sr2Se2O6
_cell_volume  154.94777959856506
_cell_formula_units_Z  2
loop_
  _symmetry_equiv_pos_site_id
 _symmetry_equiv_pos_as_xyz
 1  'x, y, z'
loop_
 _atom_site_type_symbol
 _atom_site_label
 _atom_site_symmetry_multiplicity
 _atom_site_fract_x
 _atom_site_fract_y
 _atom_site_fract_z
 _atom_site_fract_occupancy
 O  O1  1  0.17595  0.00883  0.32900  1
 O  O2  1  0.82405  0.50883  0.67100  1
 O  O3  1  0.82405  0.99117  0.67100  1
 O  O4  1  0.17595  0.49117  0.32900  1
 O  O5  1  0.66314  0.25000  0.10707  1
 O  O6  1  0.33686  0.75000  0.89293  1
 Se  Se1  1  0.93516  0.75000  0.84507  1
 Se  Se2  1  0.06484  0.25000  0.15493  1
 Sr  Sr1  1  0.65668  0.75000  0.30283  1
 Sr  Sr2  1  0.34332  0.25000  0.69717  1
