data_image0
_chemical_formula_structural       Ge6V3
_chemical_formula_sum              "Ge6 V3"
_cell_length_a       4.81148
_cell_length_b       4.81148
_cell_length_c       6.61281
_cell_angle_alpha    90
_cell_angle_beta     90
_cell_angle_gamma    120

_space_group_name_H-M_alt    "P 1"
_space_group_IT_number       1

loop_
  _space_group_symop_operation_xyz
  'x, y, z'

loop_
  _atom_site_type_symbol
  _atom_site_label
  _atom_site_symmetry_multiplicity
  _atom_site_fract_x
  _atom_site_fract_y
  _atom_site_fract_z
  _atom_site_occupancy
  Ge  Ge1       1.0  0.33300  0.16600  0.16700  1.0000
  Ge  Ge2       1.0  0.66700  0.83400  0.16700  1.0000
  Ge  Ge3       1.0  0.16600  0.33300  0.50000  1.0000
  Ge  Ge4       1.0  0.83400  0.66700  0.50000  1.0000
  Ge  Ge5       1.0  0.83400  0.16600  0.83300  1.0000
  Ge  Ge6       1.0  0.16600  0.83400  0.83300  1.0000
  V   V1        1.0  0.00000  0.50000  0.16700  1.0000
  V   V2        1.0  0.50000  0.00000  0.50000  1.0000
  V   V3        1.0  0.50000  0.50000  0.83300  1.0000
