CIF file written using JARVIS-Tools package.
data_SrSbSe2F
_symmetry_space_group_name_H-M  'P4/nmm'
_cell_length_a       4.1217
_cell_length_b       4.1217
_cell_length_c       14.4135
_cell_angle_alpha    90
_cell_angle_beta     90
_cell_angle_gamma    90

_symmetry_Int_Tables_number  129
_chemical_formula_structural  SrSbSe2F
_chemical_formula_sum  Sr2Sb2Se4F2
_cell_volume  244.86167481272156
_cell_formula_units_Z  2
loop_
  _symmetry_equiv_pos_site_id
 _symmetry_equiv_pos_as_xyz
 1  'x, y, z'
loop_
 _atom_site_type_symbol
 _atom_site_label
 _atom_site_symmetry_multiplicity
 _atom_site_fract_x
 _atom_site_fract_y
 _atom_site_fract_z
 _atom_site_fract_occupancy
 F  F1  1  0.75000  0.25000  0.50000  1
 F  F2  1  0.25000  0.75000  0.50000  1
 Sb  Sb1  1  0.25000  0.25000  0.13181  1
 Sb  Sb2  1  0.75000  0.75000  0.86819  1
 Se  Se1  1  0.75000  0.75000  0.69054  1
 Se  Se2  1  0.75000  0.75000  0.10813  1
 Se  Se3  1  0.25000  0.25000  0.89187  1
 Se  Se4  1  0.25000  0.25000  0.30946  1
 Sr  Sr1  1  0.25000  0.25000  0.59943  1
 Sr  Sr2  1  0.75000  0.75000  0.40057  1
