CIF file written using JARVIS-Tools package.
data_Ag2PdO2
_symmetry_space_group_name_H-M  'Immm'
_cell_length_a       3.03266
_cell_length_b       4.56025
_cell_length_c       5.7234
_cell_angle_alpha    113.497
_cell_angle_beta     105.363
_cell_angle_gamma    90

_symmetry_Int_Tables_number  71
_chemical_formula_structural  Ag2PdO2
_chemical_formula_sum  Ag2PdO2
_cell_volume  69.49440300148261
_cell_formula_units_Z  1
loop_
  _symmetry_equiv_pos_site_id
 _symmetry_equiv_pos_as_xyz
 1  'x, y, z'
loop_
 _atom_site_type_symbol
 _atom_site_label
 _atom_site_symmetry_multiplicity
 _atom_site_fract_x
 _atom_site_fract_y
 _atom_site_fract_z
 _atom_site_fract_occupancy
 Ag  Ag1  1  0.35868  0.35857  0.71736  1
 Ag  Ag2  1  0.64132  0.64143  0.28264  1
 O  O1  1  0.63892  0.13904  0.27784  1
 O  O2  1  0.36108  0.86096  0.72216  1
 Pd  Pd1  1  0.00000  0.00000  0.00000  1
