CIF file written using JARVIS-Tools package.
data_K2SbF5
_symmetry_space_group_name_H-M  'Cmcm'
_cell_length_a       6.30754
_cell_length_b       6.55754
_cell_length_c       7.29677
_cell_angle_alpha    90
_cell_angle_beta     115.608
_cell_angle_gamma    90

_symmetry_Int_Tables_number  63
_chemical_formula_structural  K2SbF5
_chemical_formula_sum  K4Sb2F0
_cell_volume  272.16241162776464
_cell_formula_units_Z  2
loop_
  _symmetry_equiv_pos_site_id
 _symmetry_equiv_pos_as_xyz
 1  'x, y, z'
loop_
 _atom_site_type_symbol
 _atom_site_label
 _atom_site_symmetry_multiplicity
 _atom_site_fract_x
 _atom_site_fract_y
 _atom_site_fract_z
 _atom_site_fract_occupancy
 F  F1  1  0.35595  0.53008  0.23416  1
 F  F2  1  0.12179  0.46992  0.76584  1
 F  F3  1  0.64405  0.03008  0.76584  1
 F  F4  1  0.87821  0.96992  0.23416  1
 F  F5  1  0.64405  0.46992  0.76584  1
 F  F6  1  0.87821  0.53008  0.23416  1
 F  F7  1  0.76138  0.25000  0.52277  1
 F  F8  1  0.23862  0.75000  0.47723  1
 F  F9  1  0.12179  0.03008  0.76584  1
 F  F10  1  0.35595  0.96992  0.23416  1
 K  K1  1  0.75567  0.75000  0.51134  1
 K  K2  1  0.24433  0.25000  0.48866  1
 K  K3  1  0.55622  0.25000  0.11244  1
 K  K4  1  0.44378  0.75000  0.88756  1
 Sb  Sb1  1  0.08792  0.75000  0.17584  1
 Sb  Sb2  1  0.91208  0.25000  0.82416  1
