CIF file written using JARVIS-Tools package.
data_YAg3Cl6
_symmetry_space_group_name_H-M  'R-3'
_cell_length_a       7.24355
_cell_length_b       7.24356
_cell_length_c       7.24355
_cell_angle_alpha    57.1747
_cell_angle_beta     57.1747
_cell_angle_gamma    57.1747

_symmetry_Int_Tables_number  148
_chemical_formula_structural  YAg3Cl6
_chemical_formula_sum  YAg3Cl6
_cell_volume  251.2532435262383
_cell_formula_units_Z  1
loop_
  _symmetry_equiv_pos_site_id
 _symmetry_equiv_pos_as_xyz
 1  'x, y, z'
loop_
 _atom_site_type_symbol
 _atom_site_label
 _atom_site_symmetry_multiplicity
 _atom_site_fract_x
 _atom_site_fract_y
 _atom_site_fract_z
 _atom_site_fract_occupancy
 Ag  Ag1  1  0.20698  0.20698  0.20698  1
 Ag  Ag2  1  0.50000  0.50000  0.50000  1
 Ag  Ag3  1  0.79302  0.79302  0.79302  1
 Cl  Cl1  1  0.10350  0.38565  0.76390  1
 Cl  Cl2  1  0.38565  0.76390  0.10350  1
 Cl  Cl3  1  0.76390  0.10350  0.38565  1
 Cl  Cl4  1  0.23610  0.89650  0.61435  1
 Cl  Cl5  1  0.61435  0.23610  0.89650  1
 Cl  Cl6  1  0.89650  0.61435  0.23610  1
 Y  Y1  1  0.00000  0.00000  0.00000  1
