CIF file written using JARVIS-Tools package.
data_Yb2S2O
_symmetry_space_group_name_H-M  'P2_1/c'
_cell_length_a       7.63299
_cell_length_b       6.52732
_cell_length_c       7.97584
_cell_angle_alpha    90
_cell_angle_beta     100.7
_cell_angle_gamma    90

_symmetry_Int_Tables_number  14
_chemical_formula_structural  Yb2S2O
_chemical_formula_sum  Yb8S8O4
_cell_volume  390.4712694546418
_cell_formula_units_Z  4
loop_
  _symmetry_equiv_pos_site_id
 _symmetry_equiv_pos_as_xyz
 1  'x, y, z'
loop_
 _atom_site_type_symbol
 _atom_site_label
 _atom_site_symmetry_multiplicity
 _atom_site_fract_x
 _atom_site_fract_y
 _atom_site_fract_z
 _atom_site_fract_occupancy
 O  O1  1  0.65352  0.91379  0.61602  1
 O  O2  1  0.15352  0.58621  0.61602  1
 O  O3  1  0.84648  0.41379  0.38398  1
 O  O4  1  0.34648  0.08621  0.38398  1
 S  S1  1  0.99684  0.66207  0.97225  1
 S  S2  1  0.49684  0.83793  0.97225  1
 S  S3  1  0.50316  0.16207  0.02775  1
 S  S4  1  0.00316  0.33793  0.02775  1
 S  S5  1  0.96144  0.93905  0.37144  1
 S  S6  1  0.53856  0.43905  0.62856  1
 S  S7  1  0.03856  0.06095  0.62856  1
 S  S8  1  0.46144  0.56095  0.37144  1
 Yb  Yb1  1  0.14066  0.35358  0.41406  1
 Yb  Yb2  1  0.35934  0.85358  0.58594  1
 Yb  Yb3  1  0.85934  0.64642  0.58594  1
 Yb  Yb4  1  0.64066  0.14642  0.41406  1
 Yb  Yb5  1  0.27462  0.46914  0.84226  1
 Yb  Yb6  1  0.22538  0.96914  0.15774  1
 Yb  Yb7  1  0.72538  0.53086  0.15774  1
 Yb  Yb8  1  0.77462  0.03086  0.84226  1
