CIF file written using JARVIS-Tools package.
data_AgBiI4
_symmetry_space_group_name_H-M  'Imma'
_cell_length_a       8.69961
_cell_length_b       8.7298
_cell_length_c       8.69961
_cell_angle_alpha    59.8851
_cell_angle_beta     59.2005
_cell_angle_gamma    59.8852

_symmetry_Int_Tables_number  74
_chemical_formula_structural  AgBiI4
_chemical_formula_sum  Ag2Bi2I8
_cell_volume  463.49888547787225
_cell_formula_units_Z  2
loop_
  _symmetry_equiv_pos_site_id
 _symmetry_equiv_pos_as_xyz
 1  'x, y, z'
loop_
 _atom_site_type_symbol
 _atom_site_label
 _atom_site_symmetry_multiplicity
 _atom_site_fract_x
 _atom_site_fract_y
 _atom_site_fract_z
 _atom_site_fract_occupancy
 Ag  Ag1  1  0.00000  0.00000  0.50000  1
 Ag  Ag2  1  0.50000  -0.00000  0.00000  1
 Bi  Bi1  1  0.00000  0.00000  0.00000  1
 Bi  Bi2  1  -0.00000  0.50000  0.00000  1
 I  I1  1  0.25022  0.24005  0.25022  1
 I  I2  1  0.25022  0.75951  0.25022  1
 I  I3  1  0.24785  0.26304  0.72607  1
 I  I4  1  0.72607  0.26304  0.24785  1
 I  I5  1  0.27393  0.73696  0.75215  1
 I  I6  1  0.74978  0.24049  0.74978  1
 I  I7  1  0.75215  0.73696  0.27393  1
 I  I8  1  0.74978  0.75995  0.74978  1
