CIF file written using JARVIS-Tools package.
data_YbH3O3
_symmetry_space_group_name_H-M  'P6_3/m'
_cell_length_a       6.1468
_cell_length_b       3.53219
_cell_length_c       6.1481
_cell_angle_alpha    90
_cell_angle_beta     119.983
_cell_angle_gamma    90

_symmetry_Int_Tables_number  176
_chemical_formula_structural  YbH3O3
_chemical_formula_sum  Yb2H6O6
_cell_volume  115.62180115944703
_cell_formula_units_Z  2
loop_
  _symmetry_equiv_pos_site_id
 _symmetry_equiv_pos_as_xyz
 1  'x, y, z'
loop_
 _atom_site_type_symbol
 _atom_site_label
 _atom_site_symmetry_multiplicity
 _atom_site_fract_x
 _atom_site_fract_y
 _atom_site_fract_z
 _atom_site_fract_occupancy
 H  H1  1  0.88667  0.75000  0.72587  1
 H  H2  1  0.27389  0.75000  0.16070  1
 H  H3  1  0.83944  0.75000  0.11329  1
 H  H4  1  0.11333  0.25000  0.27413  1
 H  H5  1  0.72611  0.25000  0.83930  1
 H  H6  1  0.16056  0.25000  0.88671  1
 O  O1  1  0.70278  0.75000  0.62362  1
 O  O2  1  0.37625  0.75000  0.07914  1
 O  O3  1  0.92094  0.75000  0.29714  1
 O  O4  1  0.29722  0.25000  0.37638  1
 O  O5  1  0.62375  0.25000  0.92086  1
 O  O6  1  0.07906  0.25000  0.70286  1
 Yb  Yb1  1  0.33337  0.75000  0.66673  1
 Yb  Yb2  1  0.66663  0.25000  0.33327  1
