CIF file written using JARVIS-Tools package.
data_Bi2O3
_symmetry_space_group_name_H-M  'P1'
_cell_length_a       3.76859
_cell_length_b       3.98147
_cell_length_c       7.21934
_cell_angle_alpha    74.2556
_cell_angle_beta     104.828
_cell_angle_gamma    117.791

_symmetry_Int_Tables_number  1
_chemical_formula_structural  Bi2O3
_chemical_formula_sum  Bi2O3
_cell_volume  91.16089879772055
_cell_formula_units_Z  1
loop_
  _symmetry_equiv_pos_site_id
 _symmetry_equiv_pos_as_xyz
 1  'x, y, z'
loop_
 _atom_site_type_symbol
 _atom_site_label
 _atom_site_symmetry_multiplicity
 _atom_site_fract_x
 _atom_site_fract_y
 _atom_site_fract_z
 _atom_site_fract_occupancy
 Bi  Bi1  1  0.00664  -0.01851  -0.01336  1
 Bi  Bi2  1  0.56178  0.56332  0.50562  1
 O  O1  1  0.68036  0.46357  0.84356  1
 O  O2  1  0.89724  0.20347  0.53281  1
 O  O3  1  0.45997  0.71015  0.15738  1
