CIF file written using JARVIS-Tools package.
data_ZnMoF6
_symmetry_space_group_name_H-M  'R-3'
_cell_length_a       5.55318
_cell_length_b       5.55318
_cell_length_c       5.55319
_cell_angle_alpha    54.2376
_cell_angle_beta     54.2377
_cell_angle_gamma    54.2377

_symmetry_Int_Tables_number  148
_chemical_formula_structural  ZnMoF6
_chemical_formula_sum  ZnMoF6
_cell_volume  104.80702734951007
_cell_formula_units_Z  1
loop_
  _symmetry_equiv_pos_site_id
 _symmetry_equiv_pos_as_xyz
 1  'x, y, z'
loop_
 _atom_site_type_symbol
 _atom_site_label
 _atom_site_symmetry_multiplicity
 _atom_site_fract_x
 _atom_site_fract_y
 _atom_site_fract_z
 _atom_site_fract_occupancy
 F  F1  1  0.38655  0.10317  0.75635  1
 F  F2  1  0.10317  0.75635  0.38655  1
 F  F3  1  0.24365  0.61345  0.89683  1
 F  F4  1  0.89683  0.24365  0.61345  1
 F  F5  1  0.61345  0.89683  0.24365  1
 F  F6  1  0.75635  0.38655  0.10317  1
 Mo  Mo1  1  0.00000  0.00000  0.00000  1
 Zn  Zn1  1  0.50000  0.50000  0.50000  1
