CIF file written using JARVIS-Tools package.
data_SbKr3F11
_symmetry_space_group_name_H-M  'P-1'
_cell_length_a       7.95383
_cell_length_b       8.50589
_cell_length_c       8.97631
_cell_angle_alpha    69.2397
_cell_angle_beta     64.2197
_cell_angle_gamma    83.5732

_symmetry_Int_Tables_number  2
_chemical_formula_structural  SbKr3F11
_chemical_formula_sum  Sb2Kr6F22
_cell_volume  510.69342968337753
_cell_formula_units_Z  2
loop_
  _symmetry_equiv_pos_site_id
 _symmetry_equiv_pos_as_xyz
 1  'x, y, z'
loop_
 _atom_site_type_symbol
 _atom_site_label
 _atom_site_symmetry_multiplicity
 _atom_site_fract_x
 _atom_site_fract_y
 _atom_site_fract_z
 _atom_site_fract_occupancy
 F  F1  1  0.66904  0.53052  0.06362  1
 F  F2  1  0.97594  0.10687  0.85134  1
 F  F3  1  0.05354  0.20929  0.49568  1
 F  F4  1  0.94646  0.79071  0.50432  1
 F  F5  1  0.32571  0.07220  0.08494  1
 F  F6  1  0.67429  0.92780  0.91506  1
 F  F7  1  0.73834  0.11237  0.38093  1
 F  F8  1  0.26166  0.88763  0.61907  1
 F  F9  1  0.55126  0.68237  0.61916  1
 F  F10  1  0.44874  0.31763  0.38084  1
 F  F11  1  0.36741  0.80170  0.88640  1
 F  F12  1  0.63259  0.19830  0.11360  1
 F  F13  1  0.03667  0.68165  0.93979  1
 F  F14  1  0.02406  0.89313  0.14866  1
 F  F15  1  0.33096  0.46948  0.93638  1
 F  F16  1  0.51573  0.20033  0.68798  1
 F  F17  1  0.48427  0.79967  0.31202  1
 F  F18  1  0.22521  0.55510  0.66933  1
 F  F19  1  0.77479  0.44490  0.33067  1
 F  F20  1  0.87145  0.44479  0.73921  1
 F  F21  1  0.12855  0.55521  0.26079  1
 F  F22  1  0.96333  0.31835  0.06021  1
 Kr  Kr1  1  0.30640  0.66961  0.27325  1
 Kr  Kr2  1  0.69360  0.33039  0.72675  1
 Kr  Kr3  1  0.77285  0.83548  0.22197  1
 Kr  Kr4  1  0.22715  0.16452  0.77803  1
 Kr  Kr5  1  0.19231  0.14531  0.28782  1
 Kr  Kr6  1  0.80769  0.85469  0.71218  1
 Sb  Sb1  1  0.70767  0.32186  0.21950  1
 Sb  Sb2  1  0.29233  0.67814  0.78050  1
