CIF file written using JARVIS-Tools package.
data_TlAgSe
_symmetry_space_group_name_H-M  'Pnma'
_cell_length_a       4.68045
_cell_length_b       7.62913
_cell_length_c       8.37779
_cell_angle_alpha    90
_cell_angle_beta     90
_cell_angle_gamma    90

_symmetry_Int_Tables_number  62
_chemical_formula_structural  TlAgSe
_chemical_formula_sum  Tl4Ag4Se4
_cell_volume  299.151806677324
_cell_formula_units_Z  4
loop_
  _symmetry_equiv_pos_site_id
 _symmetry_equiv_pos_as_xyz
 1  'x, y, z'
loop_
 _atom_site_type_symbol
 _atom_site_label
 _atom_site_symmetry_multiplicity
 _atom_site_fract_x
 _atom_site_fract_y
 _atom_site_fract_z
 _atom_site_fract_occupancy
 Ag  Ag1  1  0.25000  0.08661  0.67668  1
 Ag  Ag2  1  0.75000  0.91339  0.32332  1
 Ag  Ag3  1  0.25000  0.41339  0.17668  1
 Ag  Ag4  1  0.75000  0.58661  0.82332  1
 Se  Se1  1  0.75000  0.59843  0.18230  1
 Se  Se2  1  0.25000  0.40157  0.81770  1
 Se  Se3  1  0.75000  0.90157  0.68230  1
 Se  Se4  1  0.25000  0.09843  0.31770  1
 Tl  Tl1  1  0.75000  0.18058  0.00600  1
 Tl  Tl2  1  0.25000  0.81942  0.99400  1
 Tl  Tl3  1  0.75000  0.31942  0.50600  1
 Tl  Tl4  1  0.25000  0.68058  0.49400  1
