CIF file written using JARVIS-Tools package.
data_Tl2SnHgTe4
_symmetry_space_group_name_H-M  'I-42m'
_cell_length_a       7.06663
_cell_length_b       7.06664
_cell_length_c       7.06664
_cell_angle_alpha    105.466
_cell_angle_beta     105.466
_cell_angle_gamma    117.817

_symmetry_Int_Tables_number  121
_chemical_formula_structural  Tl2SnHgTe4
_chemical_formula_sum  Tl2SnHgTe4
_cell_volume  267.27350125831146
_cell_formula_units_Z  1
loop_
  _symmetry_equiv_pos_site_id
 _symmetry_equiv_pos_as_xyz
 1  'x, y, z'
loop_
 _atom_site_type_symbol
 _atom_site_label
 _atom_site_symmetry_multiplicity
 _atom_site_fract_x
 _atom_site_fract_y
 _atom_site_fract_z
 _atom_site_fract_occupancy
 Hg  Hg1  1  0.50000  0.50000  -0.00000  1
 Sn  Sn1  1  0.00000  0.00000  0.00000  1
 Te  Te1  1  0.42322  0.42322  0.36783  1
 Te  Te2  1  0.57678  0.94461  0.00000  1
 Te  Te3  1  0.94461  0.57678  -0.00000  1
 Te  Te4  1  0.05539  0.05539  0.63217  1
 Tl  Tl1  1  -0.00000  0.50000  0.50000  1
 Tl  Tl2  1  0.50000  0.00000  0.50000  1
