CIF file written using JARVIS-Tools package.
data_Tb6FeBi2
_symmetry_space_group_name_H-M  'P-62m'
_cell_length_a       8.35102
_cell_length_b       8.35102
_cell_length_c       4.12007
_cell_angle_alpha    90
_cell_angle_beta     90
_cell_angle_gamma    120

_symmetry_Int_Tables_number  189
_chemical_formula_structural  Tb6FeBi2
_chemical_formula_sum  Tb6FeBi2
_cell_volume  248.83701847706612
_cell_formula_units_Z  1
loop_
  _symmetry_equiv_pos_site_id
 _symmetry_equiv_pos_as_xyz
 1  'x, y, z'
loop_
 _atom_site_type_symbol
 _atom_site_label
 _atom_site_symmetry_multiplicity
 _atom_site_fract_x
 _atom_site_fract_y
 _atom_site_fract_z
 _atom_site_fract_occupancy
 Bi  Bi1  1  0.66667  0.33333  0.00000  1
 Bi  Bi2  1  0.33333  0.66667  0.00000  1
 Fe  Fe1  1  0.00000  0.00000  0.50000  1
 Tb  Tb1  1  0.22993  -0.00000  0.00000  1
 Tb  Tb2  1  0.39349  0.39349  0.50000  1
 Tb  Tb3  1  0.00000  0.60651  0.50000  1
 Tb  Tb4  1  -0.00000  0.22993  0.00000  1
 Tb  Tb5  1  0.77007  0.77007  0.00000  1
 Tb  Tb6  1  0.60651  0.00000  0.50000  1
