CIF file written using JARVIS-Tools package.
data_Hg2MoO4
_symmetry_space_group_name_H-M  'C2/c'
_cell_length_a       4.96682
_cell_length_b       7.36483
_cell_length_c       7.36483
_cell_angle_alpha    106.04
_cell_angle_beta     104.849
_cell_angle_gamma    104.849

_symmetry_Int_Tables_number  15
_chemical_formula_structural  Hg2MoO4
_chemical_formula_sum  Hg4Mo2O8
_cell_volume  234.24548042957994
_cell_formula_units_Z  2
loop_
  _symmetry_equiv_pos_site_id
 _symmetry_equiv_pos_as_xyz
 1  'x, y, z'
loop_
 _atom_site_type_symbol
 _atom_site_label
 _atom_site_symmetry_multiplicity
 _atom_site_fract_x
 _atom_site_fract_y
 _atom_site_fract_z
 _atom_site_fract_occupancy
 Hg  Hg1  1  0.51690  0.24917  0.46794  1
 Hg  Hg2  1  0.98310  0.53206  0.75083  1
 Hg  Hg3  1  0.48310  0.75083  0.53206  1
 Hg  Hg4  1  0.01690  0.46794  0.24917  1
 Mo  Mo1  1  0.25000  0.10018  0.89982  1
 Mo  Mo2  1  0.75000  0.89982  0.10018  1
 O  O1  1  0.70476  0.94954  0.33516  1
 O  O2  1  0.29524  0.05046  0.66484  1
 O  O3  1  0.85324  0.91590  0.81837  1
 O  O4  1  0.35324  0.81837  0.91590  1
 O  O5  1  0.20476  0.33516  0.94954  1
 O  O6  1  0.64676  0.18163  0.08410  1
 O  O7  1  0.14676  0.08410  0.18163  1
 O  O8  1  0.79524  0.66484  0.05046  1
