CIF file written using JARVIS-Tools package.
data_SrP
_symmetry_space_group_name_H-M  'P-62m'
_cell_length_a       8.06855
_cell_length_b       8.06855
_cell_length_c       6.04607
_cell_angle_alpha    90
_cell_angle_beta     90
_cell_angle_gamma    120

_symmetry_Int_Tables_number  189
_chemical_formula_structural  SrP
_chemical_formula_sum  Sr6P6
_cell_volume  340.87480687404275
_cell_formula_units_Z  6
loop_
  _symmetry_equiv_pos_site_id
 _symmetry_equiv_pos_as_xyz
 1  'x, y, z'
loop_
 _atom_site_type_symbol
 _atom_site_label
 _atom_site_symmetry_multiplicity
 _atom_site_fract_x
 _atom_site_fract_y
 _atom_site_fract_z
 _atom_site_fract_occupancy
 P  P1  1  0.66667  0.33333  0.80556  1
 P  P2  1  0.66667  0.33333  0.19444  1
 P  P3  1  0.33333  0.66667  0.19444  1
 P  P4  1  0.33333  0.66667  0.80556  1
 P  P5  1  0.00000  0.00000  0.31145  1
 P  P6  1  0.00000  0.00000  0.68855  1
 Sr  Sr1  1  0.35954  0.00000  0.50000  1
 Sr  Sr2  1  0.64046  0.64046  0.50000  1
 Sr  Sr3  1  0.00000  0.35954  0.50000  1
 Sr  Sr4  1  0.69441  0.00000  0.00000  1
 Sr  Sr5  1  0.30559  0.30559  0.00000  1
 Sr  Sr6  1  0.00000  0.69441  0.00000  1
