CIF file written using JARVIS-Tools package.
data_Tm3FeSi3
_symmetry_space_group_name_H-M  'C2/m'
_cell_length_a       4.11902
_cell_length_b       5.56333
_cell_length_c       12.6323
_cell_angle_alpha    84.9203
_cell_angle_beta     80.6169
_cell_angle_gamma    68.2725

_symmetry_Int_Tables_number  12
_chemical_formula_structural  Tm3FeSi3
_chemical_formula_sum  Tm6Fe2Si6
_cell_volume  265.186024802666
_cell_formula_units_Z  2
loop_
  _symmetry_equiv_pos_site_id
 _symmetry_equiv_pos_as_xyz
 1  'x, y, z'
loop_
 _atom_site_type_symbol
 _atom_site_label
 _atom_site_symmetry_multiplicity
 _atom_site_fract_x
 _atom_site_fract_y
 _atom_site_fract_z
 _atom_site_fract_occupancy
 Fe  Fe1  1  0.75280  0.07932  0.41508  1
 Fe  Fe2  1  0.24720  0.92068  0.58492  1
 Si  Si1  1  0.14356  0.25675  0.45613  1
 Si  Si2  1  0.85644  0.74325  0.54387  1
 Si  Si3  1  0.11637  0.84251  0.92476  1
 Si  Si4  1  0.88363  0.15749  0.07524  1
 Si  Si5  1  0.05339  0.13532  0.75790  1
 Si  Si6  1  0.94661  0.86468  0.24210  1
 Tm  Tm1  1  0.74867  0.73229  0.77038  1
 Tm  Tm2  1  0.25133  0.26771  0.22962  1
 Tm  Tm3  1  0.52387  0.33198  0.62028  1
 Tm  Tm4  1  0.47613  0.66802  0.37972  1
 Tm  Tm5  1  0.39936  0.28226  0.91901  1
 Tm  Tm6  1  0.60064  0.71774  0.08099  1
