CIF file written using JARVIS-Tools package.
data_ThCN
_symmetry_space_group_name_H-M  'C2/m'
_cell_length_a       3.95924
_cell_length_b       4.04769
_cell_length_c       7.31156
_cell_angle_alpha    94.9257
_cell_angle_beta     90
_cell_angle_gamma    119.28

_symmetry_Int_Tables_number  12
_chemical_formula_structural  ThCN
_chemical_formula_sum  Th2C2N2
_cell_volume  101.70739018427774
_cell_formula_units_Z  2
loop_
  _symmetry_equiv_pos_site_id
 _symmetry_equiv_pos_as_xyz
 1  'x, y, z'
loop_
 _atom_site_type_symbol
 _atom_site_label
 _atom_site_symmetry_multiplicity
 _atom_site_fract_x
 _atom_site_fract_y
 _atom_site_fract_z
 _atom_site_fract_occupancy
 C  C1  1  0.54358  0.08717  0.42905  1
 C  C2  1  0.45642  0.91283  0.57095  1
 N  N1  1  0.15129  0.30258  0.87451  1
 N  N2  1  0.84871  0.69742  0.12549  1
 Th  Th1  1  0.81602  0.63204  0.79744  1
 Th  Th2  1  0.18398  0.36796  0.20256  1
