CIF file written using JARVIS-Tools package.
data_LuI3
_symmetry_space_group_name_H-M  'P6_3/mmc'
_cell_length_a       10.4558
_cell_length_b       10.4559
_cell_length_c       3.91424
_cell_angle_alpha    90
_cell_angle_beta     90.0001
_cell_angle_gamma    120

_symmetry_Int_Tables_number  194
_chemical_formula_structural  LuI3
_chemical_formula_sum  Lu2I6
_cell_volume  370.59336345916915
_cell_formula_units_Z  2
loop_
  _symmetry_equiv_pos_site_id
 _symmetry_equiv_pos_as_xyz
 1  'x, y, z'
loop_
 _atom_site_type_symbol
 _atom_site_label
 _atom_site_symmetry_multiplicity
 _atom_site_fract_x
 _atom_site_fract_y
 _atom_site_fract_z
 _atom_site_fract_occupancy
 I  I1  1  0.20812  0.41623  0.25000  1
 I  I2  1  0.58376  0.79188  0.25000  1
 I  I3  1  0.20812  0.79188  0.25000  1
 I  I4  1  0.79188  0.58376  0.75000  1
 I  I5  1  0.41623  0.20812  0.75000  1
 I  I6  1  0.79188  0.20812  0.75000  1
 Lu  Lu1  1  0.33333  0.66666  0.75000  1
 Lu  Lu2  1  0.66667  0.33333  0.25000  1
