CIF file written using JARVIS-Tools package.
data_Cr3O
_symmetry_space_group_name_H-M  'R-3c'
_cell_length_a       5.08652
_cell_length_b       5.08652
_cell_length_c       5.08652
_cell_angle_alpha    124.719
_cell_angle_beta     124.719
_cell_angle_gamma    55.2809

_symmetry_Int_Tables_number  167
_chemical_formula_structural  Cr3O
_chemical_formula_sum  Cr6O2
_cell_volume  82.85132559651773
_cell_formula_units_Z  2
loop_
  _symmetry_equiv_pos_site_id
 _symmetry_equiv_pos_as_xyz
 1  'x, y, z'
loop_
 _atom_site_type_symbol
 _atom_site_label
 _atom_site_symmetry_multiplicity
 _atom_site_fract_x
 _atom_site_fract_y
 _atom_site_fract_z
 _atom_site_fract_occupancy
 Cr  Cr1  1  0.75000  0.06738  0.56739  1
 Cr  Cr2  1  0.43261  0.75000  0.93262  1
 Cr  Cr3  1  0.06738  0.43261  0.25000  1
 Cr  Cr4  1  0.25000  0.93258  0.43257  1
 Cr  Cr5  1  0.56743  0.25000  0.06742  1
 Cr  Cr6  1  0.93258  0.56743  0.75000  1
 O  O1  1  0.49999  0.49999  0.50001  1
 O  O2  1  0.00001  0.00001  -0.00001  1
