CIF file written using JARVIS-Tools package.
data_LiVF4
_symmetry_space_group_name_H-M  'C2/c'
_cell_length_a       5.10059
_cell_length_b       5.39413
_cell_length_c       6.42589
_cell_angle_alpha    92.1867
_cell_angle_beta     113.386
_cell_angle_gamma    90.002

_symmetry_Int_Tables_number  15
_chemical_formula_structural  LiVF4
_chemical_formula_sum  Li2V2F8
_cell_volume  162.13353070761409
_cell_formula_units_Z  2
loop_
  _symmetry_equiv_pos_site_id
 _symmetry_equiv_pos_as_xyz
 1  'x, y, z'
loop_
 _atom_site_type_symbol
 _atom_site_label
 _atom_site_symmetry_multiplicity
 _atom_site_fract_x
 _atom_site_fract_y
 _atom_site_fract_z
 _atom_site_fract_occupancy
 F  F1  1  0.77575  0.69101  0.92900  1
 F  F2  1  0.05006  -0.00965  0.31518  1
 F  F3  1  0.23485  0.50964  0.68483  1
 F  F4  1  0.34675  0.80900  0.07099  1
 F  F5  1  0.65325  0.19100  -0.07099  1
 F  F6  1  0.76515  0.49036  0.31517  1
 F  F7  1  0.94994  0.00966  0.68482  1
 F  F8  1  0.22425  0.30899  0.07100  1
 Li  Li1  1  0.00158  0.24999  0.50000  1
 Li  Li2  1  -0.00157  0.75001  0.50000  1
 V  V1  1  0.50000  0.50000  -0.00000  1
 V  V2  1  -0.00000  -0.00000  0.00000  1
