CIF file written using JARVIS-Tools package.
data_TlN3
_symmetry_space_group_name_H-M  'I4/mcm'
_cell_length_a       5.70668
_cell_length_b       5.70667
_cell_length_c       5.70668
_cell_angle_alpha    101.666
_cell_angle_beta     113.509
_cell_angle_gamma    113.509

_symmetry_Int_Tables_number  140
_chemical_formula_structural  TlN3
_chemical_formula_sum  Tl2N6
_cell_volume  141.1101905777986
_cell_formula_units_Z  2
loop_
  _symmetry_equiv_pos_site_id
 _symmetry_equiv_pos_as_xyz
 1  'x, y, z'
loop_
 _atom_site_type_symbol
 _atom_site_label
 _atom_site_symmetry_multiplicity
 _atom_site_fract_x
 _atom_site_fract_y
 _atom_site_fract_z
 _atom_site_fract_occupancy
 N  N1  1  0.50000  0.86577  0.63423  1
 N  N2  1  0.76847  0.63423  0.13423  1
 N  N3  1  0.50000  0.00000  0.50000  1
 N  N4  1  0.50000  0.50000  0.00000  1
 N  N5  1  0.50000  0.13423  0.36577  1
 N  N6  1  0.23153  0.36577  0.86577  1
 Tl  Tl1  1  -0.00000  0.75000  0.75000  1
 Tl  Tl2  1  -0.00000  0.25000  0.25000  1
