CIF file written using JARVIS-Tools package.
data_MnF4
_symmetry_space_group_name_H-M  'P2_1/c'
_cell_length_a       5.24505
_cell_length_b       4.73809
_cell_length_c       5.16713
_cell_angle_alpha    90
_cell_angle_beta     116.687
_cell_angle_gamma    90

_symmetry_Int_Tables_number  14
_chemical_formula_structural  MnF4
_chemical_formula_sum  Mn2F8
_cell_volume  114.73201949924956
_cell_formula_units_Z  2
loop_
  _symmetry_equiv_pos_site_id
 _symmetry_equiv_pos_as_xyz
 1  'x, y, z'
loop_
 _atom_site_type_symbol
 _atom_site_label
 _atom_site_symmetry_multiplicity
 _atom_site_fract_x
 _atom_site_fract_y
 _atom_site_fract_z
 _atom_site_fract_occupancy
 F  F1  1  0.11631  0.31663  0.86008  1
 F  F2  1  0.11631  0.18337  0.36008  1
 F  F3  1  0.33942  0.64305  0.62438  1
 F  F4  1  0.33942  0.85695  0.12438  1
 F  F5  1  0.66058  0.14305  0.87562  1
 F  F6  1  0.66058  0.35695  0.37562  1
 F  F7  1  0.88369  0.81663  0.63992  1
 F  F8  1  0.88369  0.68337  0.13992  1
 Mn  Mn1  1  0.00000  0.50000  0.50000  1
 Mn  Mn2  1  0.00000  0.00000  0.00000  1
