CIF file written using JARVIS-Tools package.
data_LiFeAsO4
_symmetry_space_group_name_H-M  'Pnma'
_cell_length_a       4.91572
_cell_length_b       6.05833
_cell_length_c       10.5621
_cell_angle_alpha    90
_cell_angle_beta     90
_cell_angle_gamma    90

_symmetry_Int_Tables_number  62
_chemical_formula_structural  LiFeAsO4
_chemical_formula_sum  Li4Fe4As4O6
_cell_volume  314.5512151856675
_cell_formula_units_Z  4
loop_
  _symmetry_equiv_pos_site_id
 _symmetry_equiv_pos_as_xyz
 1  'x, y, z'
loop_
 _atom_site_type_symbol
 _atom_site_label
 _atom_site_symmetry_multiplicity
 _atom_site_fract_x
 _atom_site_fract_y
 _atom_site_fract_z
 _atom_site_fract_occupancy
 As  As1  1  0.43846  0.25000  0.90745  1
 As  As2  1  0.56154  0.75000  0.09255  1
 As  As3  1  0.06154  0.25000  0.40745  1
 As  As4  1  0.93846  0.75000  0.59255  1
 Fe  Fe1  1  0.01369  0.75000  0.27647  1
 Fe  Fe2  1  0.51369  0.25000  0.22353  1
 Fe  Fe3  1  0.98631  0.25000  0.72353  1
 Fe  Fe4  1  0.48631  0.75000  0.77647  1
 Li  Li1  1  0.00000  0.00000  0.00000  1
 Li  Li2  1  0.00000  0.50000  0.00000  1
 Li  Li3  1  0.50000  0.00000  0.50000  1
 Li  Li4  1  0.50000  0.50000  0.50000  1
 O  O1  1  0.28970  0.25000  0.05666  1
 O  O2  1  0.21243  0.75000  0.09331  1
 O  O3  1  0.71961  0.52832  0.16928  1
 O  O4  1  0.78758  0.25000  0.90669  1
 O  O5  1  0.28757  0.75000  0.59331  1
 O  O6  1  0.78970  0.75000  0.44334  1
 O  O7  1  0.71242  0.25000  0.40669  1
 O  O8  1  0.28039  0.02832  0.83072  1
 O  O9  1  0.71961  0.97168  0.16928  1
 O  O10  1  0.21961  0.02832  0.33072  1
 O  O11  1  0.28039  0.47168  0.83072  1
 O  O12  1  0.78039  0.52832  0.66928  1
 O  O13  1  0.21030  0.25000  0.55666  1
 O  O14  1  0.78039  0.97168  0.66928  1
 O  O15  1  0.71030  0.75000  0.94334  1
 O  O16  1  0.21961  0.47168  0.33072  1
