CIF file written using JARVIS-Tools package.
data_GeP2O7
_symmetry_space_group_name_H-M  'P-1'
_cell_length_a       4.69874
_cell_length_b       6.79377
_cell_length_c       7.81846
_cell_angle_alpha    91.4794
_cell_angle_beta     92.5403
_cell_angle_gamma    106.017

_symmetry_Int_Tables_number  2
_chemical_formula_structural  GeP2O7
_chemical_formula_sum  Ge2P4O4
_cell_volume  239.46906806178157
_cell_formula_units_Z  2
loop_
  _symmetry_equiv_pos_site_id
 _symmetry_equiv_pos_as_xyz
 1  'x, y, z'
loop_
 _atom_site_type_symbol
 _atom_site_label
 _atom_site_symmetry_multiplicity
 _atom_site_fract_x
 _atom_site_fract_y
 _atom_site_fract_z
 _atom_site_fract_occupancy
 Ge  Ge1  1  0.50000  0.50000  0.50000  1
 Ge  Ge2  1  0.00000  0.00000  0.00000  1
 O  O1  1  0.19152  0.92756  0.19558  1
 O  O2  1  0.80848  0.07244  0.80442  1
 O  O3  1  0.15109  0.29037  0.44077  1
 O  O4  1  0.36554  0.16528  0.92429  1
 O  O5  1  0.68725  0.03235  0.36001  1
 O  O6  1  0.84891  0.70963  0.55923  1
 O  O7  1  0.29756  0.59436  0.67599  1
 O  O8  1  0.70244  0.40564  0.32401  1
 O  O9  1  0.62105  0.33280  0.66045  1
 O  O10  1  0.37895  0.66720  0.33955  1
 O  O11  1  0.03512  0.76331  0.87684  1
 O  O12  1  0.96488  0.23669  0.12316  1
 O  O13  1  0.31275  0.96765  0.63999  1
 O  O14  1  0.63446  0.83472  0.07571  1
 P  P1  1  0.53077  0.14175  0.76422  1
 P  P2  1  0.46923  0.85825  0.23578  1
 P  P3  1  0.11165  0.74572  0.68952  1
 P  P4  1  0.88835  0.25428  0.31048  1
