CIF file written using JARVIS-Tools package.
data_FeCo3O8
_symmetry_space_group_name_H-M  'R-3m'
_cell_length_a       5.42832
_cell_length_b       5.64893
_cell_length_c       5.64893
_cell_angle_alpha    60
_cell_angle_beta     58.6462
_cell_angle_gamma    90

_symmetry_Int_Tables_number  166
_chemical_formula_structural  FeCo3O8
_chemical_formula_sum  FeCo3O8
_cell_volume  119.9190414673741
_cell_formula_units_Z  1
loop_
  _symmetry_equiv_pos_site_id
 _symmetry_equiv_pos_as_xyz
 1  'x, y, z'
loop_
 _atom_site_type_symbol
 _atom_site_label
 _atom_site_symmetry_multiplicity
 _atom_site_fract_x
 _atom_site_fract_y
 _atom_site_fract_z
 _atom_site_fract_occupancy
 Co  Co1  1  0.00000  0.00000  0.50000  1
 Co  Co2  1  -0.00000  0.50000  0.00000  1
 Co  Co3  1  0.00000  0.50000  0.50000  1
 Fe  Fe1  1  0.00000  0.00000  0.00000  1
 O  O1  1  0.21302  0.23660  0.02358  1
 O  O2  1  0.21302  0.23660  0.52680  1
 O  O3  1  0.21302  0.73981  0.02358  1
 O  O4  1  0.21305  0.73768  0.52464  1
 O  O5  1  0.78695  0.26232  0.47536  1
 O  O6  1  0.78698  0.26019  0.97642  1
 O  O7  1  0.78698  0.76340  0.47320  1
 O  O8  1  0.78698  0.76340  0.97642  1
