CIF file written using JARVIS-Tools package.
data_BaIn2Te4
_symmetry_space_group_name_H-M  'I422'
_cell_length_a       7.07183
_cell_length_b       7.07183
_cell_length_c       7.07182
_cell_angle_alpha    104.919
_cell_angle_beta     104.919
_cell_angle_gamma    119.018

_symmetry_Int_Tables_number  97
_chemical_formula_structural  BaIn2Te4
_chemical_formula_sum  BaIn2Te4
_cell_volume  266.50088112912505
_cell_formula_units_Z  1
loop_
  _symmetry_equiv_pos_site_id
 _symmetry_equiv_pos_as_xyz
 1  'x, y, z'
loop_
 _atom_site_type_symbol
 _atom_site_label
 _atom_site_symmetry_multiplicity
 _atom_site_fract_x
 _atom_site_fract_y
 _atom_site_fract_z
 _atom_site_fract_occupancy
 Ba  Ba1  1  0.75000  0.75000  0.00000  1
 In  In1  1  0.25000  0.75000  0.50000  1
 In  In2  1  0.75000  0.25000  0.50000  1
 Te  Te1  1  0.18180  0.31820  0.50000  1
 Te  Te2  1  0.31820  0.81820  0.13639  1
 Te  Te3  1  0.68180  0.18180  0.86361  1
 Te  Te4  1  0.81820  0.68180  0.50000  1
