CIF file written using JARVIS-Tools package.
data_CaMnF6
_symmetry_space_group_name_H-M  'R-3'
_cell_length_a       5.62053
_cell_length_b       5.62053
_cell_length_c       5.62052
_cell_angle_alpha    54.1676
_cell_angle_beta     54.1676
_cell_angle_gamma    54.1676

_symmetry_Int_Tables_number  148
_chemical_formula_structural  CaMnF6
_chemical_formula_sum  CaMnF6
_cell_volume  108.45679916600703
_cell_formula_units_Z  1
loop_
  _symmetry_equiv_pos_site_id
 _symmetry_equiv_pos_as_xyz
 1  'x, y, z'
loop_
 _atom_site_type_symbol
 _atom_site_label
 _atom_site_symmetry_multiplicity
 _atom_site_fract_x
 _atom_site_fract_y
 _atom_site_fract_z
 _atom_site_fract_occupancy
 Ca  Ca1  1  0.50000  0.50000  0.50000  1
 F  F1  1  0.36898  0.06538  0.78821  1
 F  F2  1  0.06538  0.78821  0.36898  1
 F  F3  1  0.21179  0.63102  0.93462  1
 F  F4  1  0.93462  0.21179  0.63102  1
 F  F5  1  0.63102  0.93462  0.21179  1
 F  F6  1  0.78821  0.36898  0.06538  1
 Mn  Mn1  1  0.00000  0.00000  0.00000  1
