CIF file written using JARVIS-Tools package.
data_AgHO2
_symmetry_space_group_name_H-M  'P1'
_cell_length_a       3.49085
_cell_length_b       5.551
_cell_length_c       5.55978
_cell_angle_alpha    83.1978
_cell_angle_beta     70.6856
_cell_angle_gamma    71.0894

_symmetry_Int_Tables_number  1
_chemical_formula_structural  AgHO2
_chemical_formula_sum  Ag2H2O4
_cell_volume  96.1768380768575
_cell_formula_units_Z  2
loop_
  _symmetry_equiv_pos_site_id
 _symmetry_equiv_pos_as_xyz
 1  'x, y, z'
loop_
 _atom_site_type_symbol
 _atom_site_label
 _atom_site_symmetry_multiplicity
 _atom_site_fract_x
 _atom_site_fract_y
 _atom_site_fract_z
 _atom_site_fract_occupancy
 Ag  Ag1  1  0.84221  0.17205  0.99797  1
 Ag  Ag2  1  0.84341  0.67376  0.49681  1
 H  H1  1  0.27368  0.70009  0.02401  1
 H  H2  1  0.83158  0.64366  0.96848  1
 O  O1  1  0.96630  0.79655  0.12097  1
 O  O2  1  0.18607  0.23136  0.37541  1
 O  O3  1  0.72623  0.54660  0.87140  1
 O  O4  1  0.18390  0.05098  0.55590  1
