CIF file written using JARVIS-Tools package.
data_FeHO2
_symmetry_space_group_name_H-M  'I4/m'
_cell_length_a       7.15291
_cell_length_b       7.15291
_cell_length_c       7.15291
_cell_angle_alpha    92.3175
_cell_angle_beta     92.3175
_cell_angle_gamma    156.798

_symmetry_Int_Tables_number  87
_chemical_formula_structural  FeHO2
_chemical_formula_sum  Fe4H4O8
_cell_volume  141.23633340534084
_cell_formula_units_Z  4
loop_
  _symmetry_equiv_pos_site_id
 _symmetry_equiv_pos_as_xyz
 1  'x, y, z'
loop_
 _atom_site_type_symbol
 _atom_site_label
 _atom_site_symmetry_multiplicity
 _atom_site_fract_x
 _atom_site_fract_y
 _atom_site_fract_z
 _atom_site_fract_occupancy
 Fe  Fe1  1  0.35559  0.84528  0.20083  1
 Fe  Fe2  1  0.64446  0.15477  0.79917  1
 Fe  Fe3  1  0.15472  0.35554  0.51031  1
 Fe  Fe4  1  0.84523  0.64441  0.48969  1
 H  H1  1  0.07866  0.85974  0.93816  1
 H  H2  1  0.92159  0.14050  0.06184  1
 H  H3  1  0.14026  0.07841  0.21891  1
 H  H4  1  -0.14050  -0.07866  0.78109  1
 O  O1  1  0.15454  0.79616  0.95061  1
 O  O2  1  0.84555  0.20393  0.04939  1
 O  O3  1  0.20384  0.15445  0.35838  1
 O  O4  1  0.79607  0.84546  0.64162  1
 O  O5  1  0.53835  0.83872  0.37710  1
 O  O6  1  0.46161  0.16125  0.62290  1
 O  O7  1  0.16128  0.53839  0.69964  1
 O  O8  1  0.83875  0.46165  0.30036  1
