CIF file written using JARVIS-Tools package.
data_TbCuS2
_symmetry_space_group_name_H-M  'P2_1/c'
_cell_length_a       6.37707
_cell_length_b       7.02998
_cell_length_c       6.76127
_cell_angle_alpha    90
_cell_angle_beta     97.4258
_cell_angle_gamma    90

_symmetry_Int_Tables_number  14
_chemical_formula_structural  TbCuS2
_chemical_formula_sum  Tb4Cu4S8
_cell_volume  300.56983539307555
_cell_formula_units_Z  4
loop_
  _symmetry_equiv_pos_site_id
 _symmetry_equiv_pos_as_xyz
 1  'x, y, z'
loop_
 _atom_site_type_symbol
 _atom_site_label
 _atom_site_symmetry_multiplicity
 _atom_site_fract_x
 _atom_site_fract_y
 _atom_site_fract_z
 _atom_site_fract_occupancy
 Cu  Cu1  1  0.08149  0.84001  0.05116  1
 Cu  Cu2  1  0.91851  0.15999  0.94884  1
 Cu  Cu3  1  0.91851  0.34001  0.44884  1
 Cu  Cu4  1  0.08149  0.65999  0.55116  1
 S  S1  1  0.42618  0.72649  0.50119  1
 S  S2  1  0.57382  0.22649  0.99881  1
 S  S3  1  0.57382  0.27351  0.49881  1
 S  S4  1  0.42618  0.77351  0.00119  1
 S  S5  1  0.09367  0.38677  0.78330  1
 S  S6  1  0.09367  0.11323  0.28330  1
 S  S7  1  0.90633  0.61323  0.21670  1
 S  S8  1  0.90633  0.88677  0.71670  1
 Tb  Tb1  1  0.30659  0.04789  0.69858  1
 Tb  Tb2  1  0.69341  0.54789  0.80142  1
 Tb  Tb3  1  0.69341  0.95211  0.30142  1
 Tb  Tb4  1  0.30659  0.45211  0.19858  1
