CIF file written using JARVIS-Tools package.
data_LiAsO3
_symmetry_space_group_name_H-M  'R-3'
_cell_length_a       5.5058
_cell_length_b       5.5058
_cell_length_c       5.5058
_cell_angle_alpha    52.661
_cell_angle_beta     52.661
_cell_angle_gamma    52.661

_symmetry_Int_Tables_number  148
_chemical_formula_structural  LiAsO3
_chemical_formula_sum  Li2As2O6
_cell_volume  97.69434086710028
_cell_formula_units_Z  2
loop_
  _symmetry_equiv_pos_site_id
 _symmetry_equiv_pos_as_xyz
 1  'x, y, z'
loop_
 _atom_site_type_symbol
 _atom_site_label
 _atom_site_symmetry_multiplicity
 _atom_site_fract_x
 _atom_site_fract_y
 _atom_site_fract_z
 _atom_site_fract_occupancy
 As  As1  1  0.66059  0.66059  0.66059  1
 As  As2  1  0.33941  0.33941  0.33941  1
 Li  Li1  1  0.86644  0.86644  0.86644  1
 Li  Li2  1  0.13356  0.13356  0.13356  1
 O  O1  1  0.06486  0.70763  0.44928  1
 O  O2  1  0.44928  0.06486  0.70763  1
 O  O3  1  0.29237  0.55072  0.93514  1
 O  O4  1  0.93514  0.29237  0.55072  1
 O  O5  1  0.55072  0.93514  0.29237  1
 O  O6  1  0.70763  0.44928  0.06486  1
