CIF file written using JARVIS-Tools package.
data_LiBiB2O5
_symmetry_space_group_name_H-M  'C2'
_cell_length_a       5.34803
_cell_length_b       5.34803
_cell_length_c       3.91203
_cell_angle_alpha    83.7764
_cell_angle_beta     96.2236
_cell_angle_gamma    67.12

_symmetry_Int_Tables_number  5
_chemical_formula_structural  LiBiB2O5
_chemical_formula_sum  LiBiB2O5
_cell_volume  101.08443238583973
_cell_formula_units_Z  1
loop_
  _symmetry_equiv_pos_site_id
 _symmetry_equiv_pos_as_xyz
 1  'x, y, z'
loop_
 _atom_site_type_symbol
 _atom_site_label
 _atom_site_symmetry_multiplicity
 _atom_site_fract_x
 _atom_site_fract_y
 _atom_site_fract_z
 _atom_site_fract_occupancy
 B  B1  1  0.12774  0.48774  0.64240  1
 B  B2  1  0.48774  0.12774  0.35760  1
 Bi  Bi1  1  0.02498  0.02498  0.00000  1
 Li  Li1  1  0.59200  0.59200  0.50000  1
 O  O1  1  0.21388  0.69537  0.58822  1
 O  O2  1  0.49072  0.93094  0.16182  1
 O  O3  1  0.24375  0.24375  0.50000  1
 O  O4  1  0.93094  0.49072  0.83818  1
 O  O5  1  0.69537  0.21388  0.41178  1
