CIF file written using JARVIS-Tools package.
data_Ho6WO12
_symmetry_space_group_name_H-M  'R-3'
_cell_length_a       6.42969
_cell_length_b       6.42969
_cell_length_c       6.42969
_cell_angle_alpha    98.7083
_cell_angle_beta     98.7083
_cell_angle_gamma    98.7083

_symmetry_Int_Tables_number  148
_chemical_formula_structural  Ho6WO12
_chemical_formula_sum  Ho6WO2
_cell_volume  255.54888573663817
_cell_formula_units_Z  1
loop_
  _symmetry_equiv_pos_site_id
 _symmetry_equiv_pos_as_xyz
 1  'x, y, z'
loop_
 _atom_site_type_symbol
 _atom_site_label
 _atom_site_symmetry_multiplicity
 _atom_site_fract_x
 _atom_site_fract_y
 _atom_site_fract_z
 _atom_site_fract_occupancy
 Ho  Ho1  1  0.31442  0.61159  0.14342  1
 Ho  Ho2  1  0.61159  0.14342  0.31442  1
 Ho  Ho3  1  0.38841  0.85658  0.68558  1
 Ho  Ho4  1  0.68558  0.38841  0.85658  1
 Ho  Ho5  1  0.14342  0.31442  0.61159  1
 Ho  Ho6  1  0.85658  0.68558  0.38841  1
 O  O1  1  0.17727  0.58920  0.43195  1
 O  O2  1  0.58920  0.43195  0.17727  1
 O  O3  1  0.56805  0.82273  0.41080  1
 O  O4  1  0.82273  0.41080  0.56805  1
 O  O5  1  0.41080  0.56805  0.82273  1
 O  O6  1  0.43195  0.17727  0.58920  1
 O  O7  1  0.29791  0.96575  0.07573  1
 O  O8  1  0.07573  0.29791  0.96575  1
 O  O9  1  0.70209  0.03425  0.92427  1
 O  O10  1  0.96575  0.07573  0.29791  1
 O  O11  1  0.03425  0.92427  0.70209  1
 O  O12  1  0.92427  0.70209  0.03425  1
 W  W1  1  0.00000  0.00000  0.00000  1
