CIF file written using JARVIS-Tools package.
data_TiMnO3
_symmetry_space_group_name_H-M  'R-3'
_cell_length_a       5.57964
_cell_length_b       5.57964
_cell_length_c       5.57964
_cell_angle_alpha    55.0182
_cell_angle_beta     55.0181
_cell_angle_gamma    55.0182

_symmetry_Int_Tables_number  148
_chemical_formula_structural  TiMnO3
_chemical_formula_sum  Ti2Mn2O6
_cell_volume  108.59337112118226
_cell_formula_units_Z  2
loop_
  _symmetry_equiv_pos_site_id
 _symmetry_equiv_pos_as_xyz
 1  'x, y, z'
loop_
 _atom_site_type_symbol
 _atom_site_label
 _atom_site_symmetry_multiplicity
 _atom_site_fract_x
 _atom_site_fract_y
 _atom_site_fract_z
 _atom_site_fract_occupancy
 Mn  Mn1  1  0.64035  0.64035  0.64035  1
 Mn  Mn2  1  0.35965  0.35965  0.35965  1
 O  O1  1  0.04827  0.77718  0.43798  1
 O  O2  1  0.77718  0.43798  0.04827  1
 O  O3  1  0.43798  0.04827  0.77718  1
 O  O4  1  0.95173  0.22282  0.56202  1
 O  O5  1  0.56202  0.95173  0.22282  1
 O  O6  1  0.22282  0.56202  0.95173  1
 Ti  Ti1  1  0.85324  0.85324  0.85324  1
 Ti  Ti2  1  0.14676  0.14676  0.14676  1
