CIF file written using JARVIS-Tools package.
data_RbW3Cl9
_symmetry_space_group_name_H-M  'P-3'
_cell_length_a       9.30708
_cell_length_b       9.30708
_cell_length_c       8.33043
_cell_angle_alpha    90
_cell_angle_beta     90
_cell_angle_gamma    120

_symmetry_Int_Tables_number  147
_chemical_formula_structural  RbW3Cl9
_chemical_formula_sum  Rb2W6Cl8
_cell_volume  624.9213298513845
_cell_formula_units_Z  2
loop_
  _symmetry_equiv_pos_site_id
 _symmetry_equiv_pos_as_xyz
 1  'x, y, z'
loop_
 _atom_site_type_symbol
 _atom_site_label
 _atom_site_symmetry_multiplicity
 _atom_site_fract_x
 _atom_site_fract_y
 _atom_site_fract_z
 _atom_site_fract_occupancy
 Cl  Cl1  1  0.17291  0.42845  0.99887  1
 Cl  Cl2  1  0.42100  0.04602  0.30637  1
 Cl  Cl3  1  0.57155  0.74446  0.99887  1
 Cl  Cl4  1  0.25554  0.82709  0.99887  1
 Cl  Cl5  1  0.97511  0.19148  0.67852  1
 Cl  Cl6  1  0.95398  0.37498  0.30637  1
 Cl  Cl7  1  0.78363  0.97511  0.32148  1
 Cl  Cl8  1  0.57900  0.95398  0.69363  1
 Cl  Cl9  1  0.19148  0.21637  0.32148  1
 Cl  Cl10  1  0.02489  0.80852  0.32148  1
 Cl  Cl11  1  0.82709  0.57155  0.00113  1
 Cl  Cl12  1  0.04602  0.62502  0.69363  1
 Cl  Cl13  1  0.42845  0.25554  0.00113  1
 Cl  Cl14  1  0.80852  0.78363  0.67852  1
 Cl  Cl15  1  0.74446  0.17291  0.00113  1
 Cl  Cl16  1  0.62502  0.57900  0.30637  1
 Cl  Cl17  1  0.37498  0.42100  0.69363  1
 Cl  Cl18  1  0.21637  0.02489  0.67852  1
 Rb  Rb1  1  0.66667  0.33333  0.57091  1
 Rb  Rb2  1  0.33333  0.66667  0.42909  1
 W  W1  1  0.17230  0.19493  0.87410  1
 W  W2  1  0.97738  0.17230  0.12590  1
 W  W3  1  0.80507  0.97738  0.87410  1
 W  W4  1  0.19493  0.02262  0.12590  1
 W  W5  1  0.82770  0.80507  0.12590  1
 W  W6  1  0.02262  0.82770  0.87410  1
