CIF file written using JARVIS-Tools package.
data_Ho2Ge2O7
_symmetry_space_group_name_H-M  'C2/m'
_cell_length_a       5.76039
_cell_length_b       4.99745
_cell_length_c       5.76039
_cell_angle_alpha    82.6539
_cell_angle_beta     75.0906
_cell_angle_gamma    97.3461

_symmetry_Int_Tables_number  12
_chemical_formula_structural  Ho2Ge2O7
_chemical_formula_sum  Ho2Ge2O7
_cell_volume  156.67631978004638
_cell_formula_units_Z  1
loop_
  _symmetry_equiv_pos_site_id
 _symmetry_equiv_pos_as_xyz
 1  'x, y, z'
loop_
 _atom_site_type_symbol
 _atom_site_label
 _atom_site_symmetry_multiplicity
 _atom_site_fract_x
 _atom_site_fract_y
 _atom_site_fract_z
 _atom_site_fract_occupancy
 Ge  Ge1  1  0.23090  0.91071  0.76910  1
 Ge  Ge2  1  0.76910  0.08929  0.23090  1
 Ho  Ho1  1  0.30539  0.50000  0.30539  1
 Ho  Ho2  1  0.69461  0.50000  0.69461  1
 O  O1  1  0.40164  0.71340  0.91891  1
 O  O2  1  0.08109  0.71340  0.59836  1
 O  O3  1  0.40057  0.22716  0.59943  1
 O  O4  1  0.59943  0.77284  0.40057  1
 O  O5  1  0.00000  0.00000  0.00000  1
 O  O6  1  0.59836  0.28660  0.08109  1
 O  O7  1  0.91891  0.28660  0.40164  1
