CIF file written using JARVIS-Tools package.
data_MgP4
_symmetry_space_group_name_H-M  'P2_1/c'
_cell_length_a       5.17731
_cell_length_b       5.12351
_cell_length_c       7.60249
_cell_angle_alpha    90
_cell_angle_beta     98.9003
_cell_angle_gamma    90

_symmetry_Int_Tables_number  14
_chemical_formula_structural  MgP4
_chemical_formula_sum  Mg2P8
_cell_volume  199.23498283192203
_cell_formula_units_Z  2
loop_
  _symmetry_equiv_pos_site_id
 _symmetry_equiv_pos_as_xyz
 1  'x, y, z'
loop_
 _atom_site_type_symbol
 _atom_site_label
 _atom_site_symmetry_multiplicity
 _atom_site_fract_x
 _atom_site_fract_y
 _atom_site_fract_z
 _atom_site_fract_occupancy
 Mg  Mg1  1  0.00000  0.00000  0.00000  1
 Mg  Mg2  1  -0.00000  0.50000  0.50000  1
 P  P1  1  0.24989  0.29470  0.25345  1
 P  P2  1  0.75011  0.79470  0.24655  1
 P  P3  1  0.75011  0.70530  0.74655  1
 P  P4  1  0.24989  0.20530  0.75345  1
 P  P5  1  0.39541  0.88836  0.59824  1
 P  P6  1  0.60459  0.38836  0.90176  1
 P  P7  1  0.60459  0.11164  0.40176  1
 P  P8  1  0.39541  0.61164  0.09824  1
