CIF file written using JARVIS-Tools package.
data_VF4
_symmetry_space_group_name_H-M  'Pmna'
_cell_length_a       4.63439
_cell_length_b       5.5657
_cell_length_c       4.88583
_cell_angle_alpha    90
_cell_angle_beta     90
_cell_angle_gamma    90.0012

_symmetry_Int_Tables_number  53
_chemical_formula_structural  VF4
_chemical_formula_sum  V2F8
_cell_volume  126.02342422418445
_cell_formula_units_Z  2
loop_
  _symmetry_equiv_pos_site_id
 _symmetry_equiv_pos_as_xyz
 1  'x, y, z'
loop_
 _atom_site_type_symbol
 _atom_site_label
 _atom_site_symmetry_multiplicity
 _atom_site_fract_x
 _atom_site_fract_y
 _atom_site_fract_z
 _atom_site_fract_occupancy
 F  F1  1  0.20405  0.49715  0.69910  1
 F  F2  1  0.24652  0.74721  0.14621  1
 F  F3  1  0.24654  0.24722  0.14621  1
 F  F4  1  0.28906  0.99716  0.69914  1
 F  F5  1  0.70405  0.99715  0.30090  1
 F  F6  1  0.74652  0.24721  0.85379  1
 F  F7  1  0.74654  0.74722  0.85379  1
 F  F8  1  0.78906  0.49716  0.30086  1
 V  V1  1  0.99654  0.49724  -0.00003  1
 V  V2  1  0.49654  0.99724  0.00003  1
