CIF file written using JARVIS-Tools package.
data_SrCo2As2
_symmetry_space_group_name_H-M  'I4/mmm'
_cell_length_a       3.94586
_cell_length_b       3.94586
_cell_length_c       6.50686
_cell_angle_alpha    107.65
_cell_angle_beta     107.65
_cell_angle_gamma    90.0001

_symmetry_Int_Tables_number  139
_chemical_formula_structural  SrCo2As2
_chemical_formula_sum  SrCo2As2
_cell_volume  91.52396820780861
_cell_formula_units_Z  1
loop_
  _symmetry_equiv_pos_site_id
 _symmetry_equiv_pos_as_xyz
 1  'x, y, z'
loop_
 _atom_site_type_symbol
 _atom_site_label
 _atom_site_symmetry_multiplicity
 _atom_site_fract_x
 _atom_site_fract_y
 _atom_site_fract_z
 _atom_site_fract_occupancy
 As  As1  1  0.35586  0.35586  0.71173  1
 As  As2  1  0.64414  0.64414  0.28827  1
 Co  Co1  1  0.25000  0.75000  0.50000  1
 Co  Co2  1  0.75000  0.25000  0.50000  1
 Sr  Sr1  1  0.00000  0.00000  0.00000  1
