CIF file written using JARVIS-Tools package.
data_CuH6N4O4
_symmetry_space_group_name_H-M  'P-1'
_cell_length_a       4.49032
_cell_length_b       5.52018
_cell_length_c       5.97569
_cell_angle_alpha    79.0216
_cell_angle_beta     75.5261
_cell_angle_gamma    80.3825

_symmetry_Int_Tables_number  2
_chemical_formula_structural  CuH6N4O4
_chemical_formula_sum  CuH6N4O4
_cell_volume  139.67916861356102
_cell_formula_units_Z  1
loop_
  _symmetry_equiv_pos_site_id
 _symmetry_equiv_pos_as_xyz
 1  'x, y, z'
loop_
 _atom_site_type_symbol
 _atom_site_label
 _atom_site_symmetry_multiplicity
 _atom_site_fract_x
 _atom_site_fract_y
 _atom_site_fract_z
 _atom_site_fract_occupancy
 Cu  Cu1  1  0.00000  0.00000  0.00000  1
 H  H1  1  0.87816  0.22242  0.61076  1
 H  H2  1  0.12184  0.77758  0.38924  1
 H  H3  1  0.88533  0.43589  0.77092  1
 H  H4  1  0.11467  0.56411  0.22908  1
 H  H5  1  0.78490  0.70739  0.37359  1
 H  H6  1  0.21510  0.29261  0.62641  1
 N  N1  1  0.61012  0.19108  0.18628  1
 N  N2  1  0.38988  0.80892  0.81372  1
 N  N3  1  0.00562  0.73262  0.27724  1
 N  N4  1  0.99438  0.26738  0.72276  1
 O  O1  1  0.63076  0.74551  0.89218  1
 O  O2  1  0.36924  0.25449  0.10782  1
 O  O3  1  0.61668  0.25450  0.37577  1
 O  O4  1  0.38332  0.74550  0.62423  1
