CIF file written using JARVIS-Tools package.
data_Cd2As3Br
_symmetry_space_group_name_H-M  'C2/c'
_cell_length_a       6.35616
_cell_length_b       6.35617
_cell_length_c       8.11646
_cell_angle_alpha    97.7307
_cell_angle_beta     97.7307
_cell_angle_gamma    97.6042

_symmetry_Int_Tables_number  15
_chemical_formula_structural  Cd2As3Br
_chemical_formula_sum  Cd4As6Br2
_cell_volume  318.17774555111754
_cell_formula_units_Z  2
loop_
  _symmetry_equiv_pos_site_id
 _symmetry_equiv_pos_as_xyz
 1  'x, y, z'
loop_
 _atom_site_type_symbol
 _atom_site_label
 _atom_site_symmetry_multiplicity
 _atom_site_fract_x
 _atom_site_fract_y
 _atom_site_fract_z
 _atom_site_fract_occupancy
 As  As1  1  0.91922  0.82174  0.02353  1
 As  As2  1  0.17826  0.08078  0.47647  1
 As  As3  1  0.08078  0.17826  0.97647  1
 As  As4  1  0.78968  0.21032  0.75000  1
 As  As5  1  0.21032  0.78968  0.25000  1
 As  As6  1  0.82174  0.91922  0.52353  1
 Br  Br1  1  0.36503  0.63497  0.75000  1
 Br  Br2  1  0.63497  0.36503  0.25000  1
 Cd  Cd1  1  0.90733  0.60785  0.69758  1
 Cd  Cd2  1  0.39215  0.09267  0.80242  1
 Cd  Cd3  1  0.60785  0.90733  0.19758  1
 Cd  Cd4  1  0.09267  0.39215  0.30242  1
