CIF file written using JARVIS-Tools package.
data_Cd3SiO5
_symmetry_space_group_name_H-M  'P4/nmm'
_cell_length_a       6.8819
_cell_length_b       6.8819
_cell_length_c       5.06361
_cell_angle_alpha    90
_cell_angle_beta     90
_cell_angle_gamma    90

_symmetry_Int_Tables_number  129
_chemical_formula_structural  Cd3SiO5
_chemical_formula_sum  Cd6Si2O0
_cell_volume  239.81554428939867
_cell_formula_units_Z  2
loop_
  _symmetry_equiv_pos_site_id
 _symmetry_equiv_pos_as_xyz
 1  'x, y, z'
loop_
 _atom_site_type_symbol
 _atom_site_label
 _atom_site_symmetry_multiplicity
 _atom_site_fract_x
 _atom_site_fract_y
 _atom_site_fract_z
 _atom_site_fract_occupancy
 Cd  Cd1  1  0.00000  0.50000  0.96845  1
 Cd  Cd2  1  0.50000  0.00000  0.03155  1
 Cd  Cd3  1  0.75000  0.75000  0.50000  1
 Cd  Cd4  1  0.25000  0.75000  0.50000  1
 Cd  Cd5  1  0.75000  0.25000  0.50000  1
 Cd  Cd6  1  0.25000  0.25000  0.50000  1
 O  O1  1  0.18970  0.00000  0.19900  1
 O  O2  1  0.50000  0.00000  0.60587  1
 O  O3  1  0.00000  0.81030  0.80100  1
 O  O4  1  0.00000  0.50000  0.39413  1
 O  O5  1  0.68970  0.50000  0.80100  1
 O  O6  1  0.50000  0.68970  0.19900  1
 O  O7  1  0.81030  0.00000  0.19900  1
 O  O8  1  0.00000  0.18970  0.80100  1
 O  O9  1  0.31030  0.50000  0.80100  1
 O  O10  1  0.50000  0.31030  0.19900  1
 Si  Si1  1  0.00000  0.00000  0.00000  1
 Si  Si2  1  0.50000  0.50000  0.00000  1
