CIF file written using JARVIS-Tools package.
data_NbSe2
_symmetry_space_group_name_H-M  'P-6m2'
_cell_length_a       3.49717
_cell_length_b       3.49717
_cell_length_c       25.4763
_cell_angle_alpha    90
_cell_angle_beta     90
_cell_angle_gamma    120

_symmetry_Int_Tables_number  187
_chemical_formula_structural  NbSe2
_chemical_formula_sum  Nb4Se8
_cell_volume  269.8364152558083
_cell_formula_units_Z  4
loop_
  _symmetry_equiv_pos_site_id
 _symmetry_equiv_pos_as_xyz
 1  'x, y, z'
loop_
 _atom_site_type_symbol
 _atom_site_label
 _atom_site_symmetry_multiplicity
 _atom_site_fract_x
 _atom_site_fract_y
 _atom_site_fract_z
 _atom_site_fract_occupancy
 Nb  Nb1  1  0.00000  0.00000  0.50000  1
 Nb  Nb2  1  0.33334  0.66667  0.00000  1
 Nb  Nb3  1  -0.00001  -0.00002  0.74709  1
 Nb  Nb4  1  -0.00001  -0.00002  0.25291  1
 Se  Se1  1  0.00001  0.00002  0.93409  1
 Se  Se2  1  0.00001  0.00002  0.06591  1
 Se  Se3  1  0.33333  0.66666  0.68146  1
 Se  Se4  1  0.33333  0.66666  0.31854  1
 Se  Se5  1  0.66668  0.33336  0.81302  1
 Se  Se6  1  0.66668  0.33336  0.18698  1
 Se  Se7  1  0.66667  0.33335  0.56581  1
 Se  Se8  1  0.66667  0.33335  0.43419  1
