CIF file written using JARVIS-Tools package.
data_CrO2
_symmetry_space_group_name_H-M  'Cm'
_cell_length_a       2.89691
_cell_length_b       2.89765
_cell_length_c       9.43172
_cell_angle_alpha    89.9299
_cell_angle_beta     107.237
_cell_angle_gamma    60.0054

_symmetry_Int_Tables_number  8
_chemical_formula_structural  CrO2
_chemical_formula_sum  Cr2O4
_cell_volume  64.41264692591916
_cell_formula_units_Z  2
loop_
  _symmetry_equiv_pos_site_id
 _symmetry_equiv_pos_as_xyz
 1  'x, y, z'
loop_
 _atom_site_type_symbol
 _atom_site_label
 _atom_site_symmetry_multiplicity
 _atom_site_fract_x
 _atom_site_fract_y
 _atom_site_fract_z
 _atom_site_fract_occupancy
 Cr  Cr1  1  -0.00194  -0.00127  0.49789  1
 Cr  Cr2  1  0.00142  -0.00266  -0.00205  1
 O  O1  1  0.46931  0.26273  0.60476  1
 O  O2  1  0.19696  0.39999  0.89121  1
 O  O3  1  0.52687  0.73471  0.39104  1
 O  O4  1  0.80581  0.59473  0.10469  1
