CIF file written using JARVIS-Tools package.
data_NaGaH4
_symmetry_space_group_name_H-M  'Cmcm'
_cell_length_a       4.73372
_cell_length_b       4.73371
_cell_length_c       7.05135
_cell_angle_alpha    90
_cell_angle_beta     90
_cell_angle_gamma    95.0313

_symmetry_Int_Tables_number  63
_chemical_formula_structural  NaGaH4
_chemical_formula_sum  Na2Ga2H8
_cell_volume  157.39838016516075
_cell_formula_units_Z  2
loop_
  _symmetry_equiv_pos_site_id
 _symmetry_equiv_pos_as_xyz
 1  'x, y, z'
loop_
 _atom_site_type_symbol
 _atom_site_label
 _atom_site_symmetry_multiplicity
 _atom_site_fract_x
 _atom_site_fract_y
 _atom_site_fract_z
 _atom_site_fract_occupancy
 Ga  Ga1  1  0.84353  0.84353  0.25000  1
 Ga  Ga2  1  0.15647  0.15647  0.75000  1
 H  H1  1  0.19447  0.82425  0.75000  1
 H  H2  1  0.80553  0.17575  0.25000  1
 H  H3  1  0.82425  0.19447  0.75000  1
 H  H4  1  0.17575  0.80553  0.25000  1
 H  H5  1  0.69328  0.69328  0.43098  1
 H  H6  1  0.30672  0.30672  0.93098  1
 H  H7  1  0.69328  0.69328  0.06902  1
 H  H8  1  0.30672  0.30672  0.56902  1
 Na  Na1  1  0.34494  0.34494  0.25000  1
 Na  Na2  1  0.65506  0.65506  0.75000  1
