CIF file written using JARVIS-Tools package.
data_Li6TeO6
_symmetry_space_group_name_H-M  'R-3'
_cell_length_a       5.14332
_cell_length_b       5.14332
_cell_length_c       5.14331
_cell_angle_alpha    100.964
_cell_angle_beta     100.964
_cell_angle_gamma    100.964

_symmetry_Int_Tables_number  148
_chemical_formula_structural  Li6TeO6
_chemical_formula_sum  Li6TeO6
_cell_volume  127.46949814724881
_cell_formula_units_Z  1
loop_
  _symmetry_equiv_pos_site_id
 _symmetry_equiv_pos_as_xyz
 1  'x, y, z'
loop_
 _atom_site_type_symbol
 _atom_site_label
 _atom_site_symmetry_multiplicity
 _atom_site_fract_x
 _atom_site_fract_y
 _atom_site_fract_z
 _atom_site_fract_occupancy
 Li  Li1  1  0.69683  0.91706  0.40256  1
 Li  Li2  1  0.59744  0.30317  0.08294  1
 Li  Li3  1  0.08294  0.59744  0.30317  1
 Li  Li4  1  0.30317  0.08294  0.59744  1
 Li  Li5  1  0.40256  0.69683  0.91706  1
 Li  Li6  1  0.91706  0.40256  0.69683  1
 O  O1  1  0.77350  0.68061  0.06865  1
 O  O2  1  0.93135  0.22650  0.31939  1
 O  O3  1  0.31939  0.93135  0.22650  1
 O  O4  1  0.22650  0.31939  0.93135  1
 O  O5  1  0.06865  0.77350  0.68061  1
 O  O6  1  0.68061  0.06865  0.77350  1
 Te  Te1  1  0.00000  0.00000  0.00000  1
