CIF file written using JARVIS-Tools package.
data_Ca2NiIrO6
_symmetry_space_group_name_H-M  'P2_1/c'
_cell_length_a       5.30936
_cell_length_b       5.55112
_cell_length_c       9.227
_cell_angle_alpha    90
_cell_angle_beta     124.952
_cell_angle_gamma    90

_symmetry_Int_Tables_number  14
_chemical_formula_structural  Ca2NiIrO6
_chemical_formula_sum  Ca4Ni2Ir2O2
_cell_volume  222.89541603740892
_cell_formula_units_Z  2
loop_
  _symmetry_equiv_pos_site_id
 _symmetry_equiv_pos_as_xyz
 1  'x, y, z'
loop_
 _atom_site_type_symbol
 _atom_site_label
 _atom_site_symmetry_multiplicity
 _atom_site_fract_x
 _atom_site_fract_y
 _atom_site_fract_z
 _atom_site_fract_occupancy
 Ca  Ca1  1  0.23172  0.93625  0.24901  1
 Ca  Ca2  1  0.76828  0.43625  0.25099  1
 Ca  Ca3  1  0.23172  0.56375  0.74901  1
 Ca  Ca4  1  0.76828  0.06375  0.75099  1
 Ir  Ir1  1  0.50000  0.50000  0.50000  1
 Ir  Ir2  1  0.50000  0.00000  -0.00000  1
 Ni  Ni1  1  0.00000  0.50000  0.00000  1
 Ni  Ni2  1  0.00000  0.00000  0.50000  1
 O  O1  1  0.65361  0.47061  0.75260  1
 O  O2  1  0.74474  0.80053  0.55014  1
 O  O3  1  0.25526  0.19947  0.44986  1
 O  O4  1  0.74474  0.69947  0.05014  1
 O  O5  1  0.85479  0.20084  0.04998  1
 O  O6  1  0.25526  0.30053  0.94986  1
 O  O7  1  0.65361  0.02939  0.25260  1
 O  O8  1  0.85479  0.29916  0.54998  1
 O  O9  1  0.14521  0.70084  0.45002  1
 O  O10  1  0.14521  0.79916  0.95002  1
 O  O11  1  0.34639  0.97061  0.74740  1
 O  O12  1  0.34639  0.52939  0.24740  1
