CIF file written using JARVIS-Tools package.
data_Li2GeO3
_symmetry_space_group_name_H-M  'Cmc2_1'
_cell_length_a       4.90682
_cell_length_b       5.46922
_cell_length_c       5.53068
_cell_angle_alpha    119.633
_cell_angle_beta     90
_cell_angle_gamma    90

_symmetry_Int_Tables_number  36
_chemical_formula_structural  Li2GeO3
_chemical_formula_sum  Li4Ge2O6
_cell_volume  129.01184211730245
_cell_formula_units_Z  2
loop_
  _symmetry_equiv_pos_site_id
 _symmetry_equiv_pos_as_xyz
 1  'x, y, z'
loop_
 _atom_site_type_symbol
 _atom_site_label
 _atom_site_symmetry_multiplicity
 _atom_site_fract_x
 _atom_site_fract_y
 _atom_site_fract_z
 _atom_site_fract_occupancy
 Ge  Ge1  1  0.50278  0.81903  -0.00000  1
 Ge  Ge2  1  0.00278  0.18097  0.00000  1
 Li  Li1  1  0.01257  0.83435  0.35073  1
 Li  Li2  1  0.51257  0.16565  0.64927  1
 Li  Li3  1  0.51257  0.51638  0.35073  1
 Li  Li4  1  0.01257  0.48362  0.64927  1
 O  O1  1  0.87635  0.86177  -0.00000  1
 O  O2  1  0.40692  0.52424  0.69007  1
 O  O3  1  0.40692  0.83418  0.30993  1
 O  O4  1  0.37635  0.13823  0.00000  1
 O  O5  1  0.90692  0.16582  0.69007  1
 O  O6  1  0.90692  0.47576  0.30993  1
