CIF file written using JARVIS-Tools package.
data_SrGaCu2
_symmetry_space_group_name_H-M  'R-3m'
_cell_length_a       5.82943
_cell_length_b       5.82943
_cell_length_c       5.82943
_cell_angle_alpha    43.0855
_cell_angle_beta     43.0855
_cell_angle_gamma    43.0855

_symmetry_Int_Tables_number  166
_chemical_formula_structural  SrGaCu2
_chemical_formula_sum  SrGaCu2
_cell_volume  83.79711483631195
_cell_formula_units_Z  1
loop_
  _symmetry_equiv_pos_site_id
 _symmetry_equiv_pos_as_xyz
 1  'x, y, z'
loop_
 _atom_site_type_symbol
 _atom_site_label
 _atom_site_symmetry_multiplicity
 _atom_site_fract_x
 _atom_site_fract_y
 _atom_site_fract_z
 _atom_site_fract_occupancy
 Cu  Cu1  1  0.19245  0.19245  0.19245  1
 Cu  Cu2  1  0.80755  0.80755  0.80755  1
 Ga  Ga1  1  0.50000  0.50000  0.50000  1
 Sr  Sr1  1  0.00000  0.00000  0.00000  1
