CIF file written using JARVIS-Tools package.
data_V2OF5
_symmetry_space_group_name_H-M  'P312'
_cell_length_a       4.53995
_cell_length_b       8.35176
_cell_length_c       8.35222
_cell_angle_alpha    120.001
_cell_angle_beta     90.0013
_cell_angle_gamma    89.9999

_symmetry_Int_Tables_number  149
_chemical_formula_structural  V2OF5
_chemical_formula_sum  V6O3F5
_cell_volume  274.2564612587942
_cell_formula_units_Z  3
loop_
  _symmetry_equiv_pos_site_id
 _symmetry_equiv_pos_as_xyz
 1  'x, y, z'
loop_
 _atom_site_type_symbol
 _atom_site_label
 _atom_site_symmetry_multiplicity
 _atom_site_fract_x
 _atom_site_fract_y
 _atom_site_fract_z
 _atom_site_fract_occupancy
 F  F1  1  0.24772  0.44952  0.89906  1
 F  F2  1  0.74769  0.88342  0.76683  1
 F  F3  1  0.74774  0.54331  0.45668  1
 F  F4  1  0.74769  0.21855  0.43713  1
 F  F5  1  0.74774  0.91336  0.45670  1
 F  F6  1  0.74770  0.23317  0.11659  1
 F  F7  1  0.24772  0.43609  0.21805  1
 F  F8  1  0.24771  0.78195  0.56391  1
 F  F9  1  0.74774  0.54334  0.08664  1
 F  F10  1  0.74771  0.88342  0.11659  1
 F  F11  1  0.74769  0.21858  0.78146  1
 F  F12  1  0.24773  0.44953  0.55048  1
 F  F13  1  0.24772  0.10095  0.55048  1
 F  F14  1  0.74769  0.56287  0.78143  1
 F  F15  1  0.24773  0.78195  0.21804  1
 O  O1  1  0.24770  0.12594  0.25188  1
 O  O2  1  0.24770  0.74813  0.87407  1
 O  O3  1  0.24770  0.12593  0.87406  1
 V  V1  1  0.48388  0.32159  0.32825  1
 V  V2  1  0.01155  0.67176  0.67841  1
 V  V3  1  0.01154  0.00664  0.32825  1
 V  V4  1  0.48387  0.67176  0.99334  1
 V  V5  1  0.48387  0.00666  0.67841  1
 V  V6  1  0.01154  0.32160  0.99337  1
