CIF file written using JARVIS-Tools package.
data_MnO2
_symmetry_space_group_name_H-M  'C2/m'
_cell_length_a       2.87248
_cell_length_b       7.06871
_cell_length_c       7.06412
_cell_angle_alpha    87.5624
_cell_angle_beta     78.2676
_cell_angle_gamma    78.2751

_symmetry_Int_Tables_number  12
_chemical_formula_structural  MnO2
_chemical_formula_sum  Mn4O8
_cell_volume  137.50808226255447
_cell_formula_units_Z  4
loop_
  _symmetry_equiv_pos_site_id
 _symmetry_equiv_pos_as_xyz
 1  'x, y, z'
loop_
 _atom_site_type_symbol
 _atom_site_label
 _atom_site_symmetry_multiplicity
 _atom_site_fract_x
 _atom_site_fract_y
 _atom_site_fract_z
 _atom_site_fract_occupancy
 Mn  Mn1  1  0.34848  0.48115  0.81785  1
 Mn  Mn2  1  0.83139  0.81775  0.51545  1
 Mn  Mn3  1  0.16759  0.17914  0.48169  1
 Mn  Mn4  1  0.65049  0.51574  0.17930  1
 O  O1  1  0.16298  0.37759  0.29247  1
 O  O2  1  0.54211  0.29148  0.62028  1
 O  O3  1  0.45686  0.70541  0.37686  1
 O  O4  1  0.83599  0.61930  0.70467  1
 O  O5  1  0.84398  0.35650  0.95152  1
 O  O6  1  0.20238  0.95074  0.64048  1
 O  O7  1  0.15499  0.64038  0.04562  1
 O  O8  1  0.79659  0.04615  0.35665  1
