CIF file written using JARVIS-Tools package.
data_US3
_symmetry_space_group_name_H-M  'P2_1/m'
_cell_length_a       5.39169
_cell_length_b       3.90351
_cell_length_c       9.00019
_cell_angle_alpha    90
_cell_angle_beta     97.2058
_cell_angle_gamma    90

_symmetry_Int_Tables_number  11
_chemical_formula_structural  US3
_chemical_formula_sum  U2S6
_cell_volume  187.9260776855721
_cell_formula_units_Z  2
loop_
  _symmetry_equiv_pos_site_id
 _symmetry_equiv_pos_as_xyz
 1  'x, y, z'
loop_
 _atom_site_type_symbol
 _atom_site_label
 _atom_site_symmetry_multiplicity
 _atom_site_fract_x
 _atom_site_fract_y
 _atom_site_fract_z
 _atom_site_fract_occupancy
 S  S1  1  0.13306  0.25000  0.33795  1
 S  S2  1  0.86694  0.75000  0.66205  1
 S  S3  1  0.48182  0.75000  0.66916  1
 S  S4  1  0.51818  0.25000  0.33084  1
 S  S5  1  0.76511  0.75000  0.06866  1
 S  S6  1  0.23489  0.25000  0.93134  1
 U  U1  1  0.71906  0.25000  0.85195  1
 U  U2  1  0.28094  0.75000  0.14805  1
