CIF file written using JARVIS-Tools package.
data_P4Ru
_symmetry_space_group_name_H-M  'P-1'
_cell_length_a       4.77145
_cell_length_b       7.22478
_cell_length_c       7.61337
_cell_angle_alpha    111.051
_cell_angle_beta     90.3764
_cell_angle_gamma    100.547

_symmetry_Int_Tables_number  2
_chemical_formula_structural  P4Ru
_chemical_formula_sum  P2Ru3
_cell_volume  240.05088429172852
_cell_formula_units_Z  3
loop_
  _symmetry_equiv_pos_site_id
 _symmetry_equiv_pos_as_xyz
 1  'x, y, z'
loop_
 _atom_site_type_symbol
 _atom_site_label
 _atom_site_symmetry_multiplicity
 _atom_site_fract_x
 _atom_site_fract_y
 _atom_site_fract_z
 _atom_site_fract_occupancy
 P  P1  1  0.59916  0.36831  0.90019  1
 P  P2  1  0.40084  0.63169  0.09981  1
 P  P3  1  0.17760  0.16212  0.78500  1
 P  P4  1  0.82240  0.83788  0.21500  1
 P  P5  1  0.27289  0.42665  0.45076  1
 P  P6  1  0.72711  0.57335  0.54924  1
 P  P7  1  0.66027  0.08586  0.43780  1
 P  P8  1  0.33973  0.91414  0.56220  1
 P  P9  1  0.20531  0.70409  0.87601  1
 P  P10  1  0.79469  0.29591  0.12399  1
 P  P11  1  0.39092  0.16839  0.23118  1
 P  P12  1  0.60908  0.83161  0.76882  1
 Ru  Ru1  1  0.00000  0.00000  0.00000  1
 Ru  Ru2  1  0.94182  0.37375  0.67113  1
 Ru  Ru3  1  0.05818  0.62625  0.32887  1
