CIF file written using JARVIS-Tools package.
data_YbCl3
_symmetry_space_group_name_H-M  'Immm'
_cell_length_a       4.86837
_cell_length_b       7.50618
_cell_length_c       8.22959
_cell_angle_alpha    62.8676
_cell_angle_beta     72.8096
_cell_angle_gamma    49.6043

_symmetry_Int_Tables_number  71
_chemical_formula_structural  YbCl3
_chemical_formula_sum  Yb2Cl6
_cell_volume  203.8300084204865
_cell_formula_units_Z  2
loop_
  _symmetry_equiv_pos_site_id
 _symmetry_equiv_pos_as_xyz
 1  'x, y, z'
loop_
 _atom_site_type_symbol
 _atom_site_label
 _atom_site_symmetry_multiplicity
 _atom_site_fract_x
 _atom_site_fract_y
 _atom_site_fract_z
 _atom_site_fract_occupancy
 Cl  Cl1  1  0.24918  0.07952  0.34276  1
 Cl  Cl2  1  0.75082  0.92048  0.65724  1
 Cl  Cl3  1  0.75082  0.57772  0.34276  1
 Cl  Cl4  1  0.24918  0.42228  0.65724  1
 Cl  Cl5  1  0.25220  0.74776  0.00000  1
 Cl  Cl6  1  0.74780  0.25224  -0.00000  1
 Yb  Yb1  1  -0.00000  0.16136  0.67728  1
 Yb  Yb2  1  0.00000  0.83864  0.32272  1
