CIF file written using JARVIS-Tools package.
data_BN
_symmetry_space_group_name_H-M  'Pnma'
_cell_length_a       2.59015
_cell_length_b       4.29662
_cell_length_c       4.8591
_cell_angle_alpha    90
_cell_angle_beta     90
_cell_angle_gamma    90

_symmetry_Int_Tables_number  62
_chemical_formula_structural  BN
_chemical_formula_sum  B4N4
_cell_volume  54.076419938530734
_cell_formula_units_Z  4
loop_
  _symmetry_equiv_pos_site_id
 _symmetry_equiv_pos_as_xyz
 1  'x, y, z'
loop_
 _atom_site_type_symbol
 _atom_site_label
 _atom_site_symmetry_multiplicity
 _atom_site_fract_x
 _atom_site_fract_y
 _atom_site_fract_z
 _atom_site_fract_occupancy
 B  B1  1  0.75000  0.09179  0.66143  1
 B  B2  1  0.25000  0.59179  0.83857  1
 B  B3  1  0.75000  0.40821  0.16143  1
 B  B4  1  0.25000  0.90821  0.33857  1
 N  N1  1  0.75000  0.39306  0.82011  1
 N  N2  1  0.25000  0.60694  0.17989  1
 N  N3  1  0.25000  0.89306  0.67989  1
 N  N4  1  0.75000  0.10694  0.32011  1
