CIF file written using JARVIS-Tools package.
data_FeO2
_symmetry_space_group_name_H-M  'Fd-3m'
_cell_length_a       5.61361
_cell_length_b       5.61361
_cell_length_c       5.6158
_cell_angle_alpha    120.013
_cell_angle_beta     120.013
_cell_angle_gamma    89.9559

_symmetry_Int_Tables_number  227
_chemical_formula_structural  FeO2
_chemical_formula_sum  Fe4O8
_cell_volume  125.13483174918053
_cell_formula_units_Z  4
loop_
  _symmetry_equiv_pos_site_id
 _symmetry_equiv_pos_as_xyz
 1  'x, y, z'
loop_
 _atom_site_type_symbol
 _atom_site_label
 _atom_site_symmetry_multiplicity
 _atom_site_fract_x
 _atom_site_fract_y
 _atom_site_fract_z
 _atom_site_fract_occupancy
 Fe  Fe1  1  0.50000  0.50000  0.00000  1
 Fe  Fe2  1  0.00000  -0.00000  0.50000  1
 Fe  Fe3  1  0.00000  0.50000  0.00000  1
 Fe  Fe4  1  -0.00000  0.50000  0.50000  1
 O  O1  1  0.76276  0.73724  0.02578  1
 O  O2  1  0.21147  0.73698  0.47422  1
 O  O3  1  0.23724  0.26276  0.97422  1
 O  O4  1  0.23698  0.71147  0.97422  1
 O  O5  1  0.78853  0.26302  0.52578  1
 O  O6  1  0.23724  0.26276  0.52578  1
 O  O7  1  0.76302  0.28853  0.02578  1
 O  O8  1  0.76276  0.73724  0.47422  1
