CIF file written using JARVIS-Tools package.
data_BaReH9
_symmetry_space_group_name_H-M  'P6_3/mmc'
_cell_length_a       5.19711
_cell_length_b       5.19711
_cell_length_c       9.72141
_cell_angle_alpha    90
_cell_angle_beta     90
_cell_angle_gamma    120

_symmetry_Int_Tables_number  194
_chemical_formula_structural  BaReH9
_chemical_formula_sum  Ba2Re2H8
_cell_volume  227.39624744691787
_cell_formula_units_Z  2
loop_
  _symmetry_equiv_pos_site_id
 _symmetry_equiv_pos_as_xyz
 1  'x, y, z'
loop_
 _atom_site_type_symbol
 _atom_site_label
 _atom_site_symmetry_multiplicity
 _atom_site_fract_x
 _atom_site_fract_y
 _atom_site_fract_z
 _atom_site_fract_occupancy
 Ba  Ba1  1  0.00000  0.00000  0.00000  1
 Ba  Ba2  1  0.00000  0.00000  0.50000  1
 H  H1  1  0.46926  0.93852  0.62547  1
 H  H2  1  0.46926  0.53074  0.62547  1
 H  H3  1  0.06148  0.53074  0.62547  1
 H  H4  1  0.93852  0.46926  0.12547  1
 H  H5  1  0.14689  0.85311  0.75000  1
 H  H6  1  0.85311  0.70623  0.25000  1
 H  H7  1  0.53074  0.06148  0.12547  1
 H  H8  1  0.29377  0.14689  0.25000  1
 H  H9  1  0.14689  0.29377  0.75000  1
 H  H10  1  0.85311  0.14689  0.25000  1
 H  H11  1  0.46926  0.53074  0.87453  1
 H  H12  1  0.53074  0.06148  0.37453  1
 H  H13  1  0.93852  0.46926  0.37453  1
 H  H14  1  0.06148  0.53074  0.87453  1
 H  H15  1  0.46926  0.93852  0.87453  1
 H  H16  1  0.53074  0.46926  0.12547  1
 H  H17  1  0.70623  0.85311  0.75000  1
 H  H18  1  0.53074  0.46926  0.37453  1
 Re  Re1  1  0.66667  0.33333  0.25000  1
 Re  Re2  1  0.33333  0.66667  0.75000  1
