CIF file written using JARVIS-Tools package.
data_LiMnPH2O5
_symmetry_space_group_name_H-M  'Pmn2_1'
_cell_length_a       4.68552
_cell_length_b       5.74408
_cell_length_c       7.95143
_cell_angle_alpha    90
_cell_angle_beta     90
_cell_angle_gamma    90

_symmetry_Int_Tables_number  31
_chemical_formula_structural  LiMnPH2O5
_chemical_formula_sum  Li2Mn2P2H4O0
_cell_volume  214.00466044212666
_cell_formula_units_Z  2
loop_
  _symmetry_equiv_pos_site_id
 _symmetry_equiv_pos_as_xyz
 1  'x, y, z'
loop_
 _atom_site_type_symbol
 _atom_site_label
 _atom_site_symmetry_multiplicity
 _atom_site_fract_x
 _atom_site_fract_y
 _atom_site_fract_z
 _atom_site_fract_occupancy
 H  H1  1  0.06659  0.36358  0.21292  1
 H  H2  1  0.56659  0.13642  0.78708  1
 H  H3  1  0.56659  0.86358  0.78708  1
 H  H4  1  0.06659  0.63642  0.21292  1
 Li  Li1  1  0.08907  0.00000  0.44881  1
 Li  Li2  1  0.58907  0.50000  0.55119  1
 Mn  Mn1  1  0.52770  0.50000  0.02226  1
 Mn  Mn2  1  0.02770  0.00000  0.97774  1
 O  O1  1  0.76408  0.50000  0.77726  1
 O  O2  1  0.22239  0.71493  0.86080  1
 O  O3  1  0.26408  0.00000  0.22274  1
 O  O4  1  0.68799  0.00000  0.42046  1
 O  O5  1  0.69506  0.00000  0.78514  1
 O  O6  1  0.72239  0.21493  0.13920  1
 O  O7  1  0.22239  0.28507  0.86080  1
 O  O8  1  0.19506  0.50000  0.21486  1
 O  O9  1  0.18799  0.50000  0.57954  1
 O  O10  1  0.72239  0.78507  0.13920  1
 P  P1  1  0.09373  0.50000  0.76370  1
 P  P2  1  0.59373  0.00000  0.23630  1
