CIF file written using JARVIS-Tools package.
data_SrLi2Ta2O7
_symmetry_space_group_name_H-M  'I4/mmm'
_cell_length_a       3.97645
_cell_length_b       3.97645
_cell_length_c       9.53313
_cell_angle_alpha    102.038
_cell_angle_beta     102.038
_cell_angle_gamma    90.0001

_symmetry_Int_Tables_number  139
_chemical_formula_structural  SrLi2Ta2O7
_chemical_formula_sum  SrLi2Ta2O7
_cell_volume  144.0340635379549
_cell_formula_units_Z  1
loop_
  _symmetry_equiv_pos_site_id
 _symmetry_equiv_pos_as_xyz
 1  'x, y, z'
loop_
 _atom_site_type_symbol
 _atom_site_label
 _atom_site_symmetry_multiplicity
 _atom_site_fract_x
 _atom_site_fract_y
 _atom_site_fract_z
 _atom_site_fract_occupancy
 Li  Li1  1  0.25000  0.75000  0.50000  1
 Li  Li2  1  0.75000  0.25000  0.50000  1
 O  O1  1  0.50000  0.50000  -0.00000  1
 O  O2  1  0.60497  0.10497  0.20994  1
 O  O3  1  0.10497  0.60497  0.20994  1
 O  O4  1  0.39503  0.89503  0.79006  1
 O  O5  1  0.89503  0.39503  0.79006  1
 O  O6  1  0.28042  0.28042  0.56084  1
 O  O7  1  0.71958  0.71958  0.43916  1
 Sr  Sr1  1  0.00000  0.00000  0.00000  1
 Ta  Ta1  1  0.61568  0.61568  0.23135  1
 Ta  Ta2  1  0.38432  0.38432  0.76865  1
