CIF file written using JARVIS-Tools package.
data_GeCl4
_symmetry_space_group_name_H-M  'P2_1/c'
_cell_length_a       6.36951
_cell_length_b       9.50643
_cell_length_c       9.57933
_cell_angle_alpha    102.11
_cell_angle_beta     90
_cell_angle_gamma    90

_symmetry_Int_Tables_number  14
_chemical_formula_structural  GeCl4
_chemical_formula_sum  Ge4Cl6
_cell_volume  567.1325164633373
_cell_formula_units_Z  4
loop_
  _symmetry_equiv_pos_site_id
 _symmetry_equiv_pos_as_xyz
 1  'x, y, z'
loop_
 _atom_site_type_symbol
 _atom_site_label
 _atom_site_symmetry_multiplicity
 _atom_site_fract_x
 _atom_site_fract_y
 _atom_site_fract_z
 _atom_site_fract_occupancy
 Cl  Cl1  1  0.57395  0.43382  0.81075  1
 Cl  Cl2  1  0.89356  0.19046  0.57752  1
 Cl  Cl3  1  0.60644  0.19046  0.07752  1
 Cl  Cl4  1  0.10644  0.80954  0.42248  1
 Cl  Cl5  1  0.58207  0.69310  0.54318  1
 Cl  Cl6  1  0.08207  0.30690  0.95682  1
 Cl  Cl7  1  0.41793  0.30690  0.45682  1
 Cl  Cl8  1  0.91793  0.69310  0.04318  1
 Cl  Cl9  1  0.39356  0.80954  0.92248  1
 Cl  Cl10  1  0.92605  0.43382  0.31075  1
 Cl  Cl11  1  0.07395  0.56618  0.68925  1
 Cl  Cl12  1  0.58219  0.92397  0.30379  1
 Cl  Cl13  1  0.08219  0.07603  0.19621  1
 Cl  Cl14  1  0.41781  0.07603  0.69621  1
 Cl  Cl15  1  0.91781  0.92397  0.80379  1
 Cl  Cl16  1  0.42605  0.56618  0.18925  1
 Ge  Ge1  1  0.92328  0.25240  0.13506  1
 Ge  Ge2  1  0.07672  0.74760  0.86494  1
 Ge  Ge3  1  0.57672  0.25240  0.63506  1
 Ge  Ge4  1  0.42328  0.74760  0.36494  1
