CIF file written using JARVIS-Tools package.
data_TlInSe2
_symmetry_space_group_name_H-M  'I4/mcm'
_cell_length_a       6.72122
_cell_length_b       6.72122
_cell_length_c       6.72122
_cell_angle_alpha    105.498
_cell_angle_beta     105.498
_cell_angle_gamma    117.749

_symmetry_Int_Tables_number  140
_chemical_formula_structural  TlInSe2
_chemical_formula_sum  Tl2In2Se4
_cell_volume  230.02670718987625
_cell_formula_units_Z  2
loop_
  _symmetry_equiv_pos_site_id
 _symmetry_equiv_pos_as_xyz
 1  'x, y, z'
loop_
 _atom_site_type_symbol
 _atom_site_label
 _atom_site_symmetry_multiplicity
 _atom_site_fract_x
 _atom_site_fract_y
 _atom_site_fract_z
 _atom_site_fract_occupancy
 In  In1  1  0.25000  0.75000  0.50000  1
 In  In2  1  0.75000  0.25000  0.50000  1
 Se  Se1  1  0.82598  0.67402  0.50000  1
 Se  Se2  1  0.32598  0.82598  0.15196  1
 Se  Se3  1  0.17402  0.32598  0.50000  1
 Se  Se4  1  0.67402  0.17402  0.84804  1
 Tl  Tl1  1  0.25000  0.25000  -0.00000  1
 Tl  Tl2  1  0.75000  0.75000  -0.00000  1
