CIF file written using JARVIS-Tools package.
data_CaN6
_symmetry_space_group_name_H-M  'Fddd'
_cell_length_a       5.9655
_cell_length_b       6.28171
_cell_length_c       6.34729
_cell_angle_alpha    77.1067
_cell_angle_beta     61.9705
_cell_angle_gamma    61.6517

_symmetry_Int_Tables_number  70
_chemical_formula_structural  CaN6
_chemical_formula_sum  Ca2N2
_cell_volume  184.7784480551203
_cell_formula_units_Z  2
loop_
  _symmetry_equiv_pos_site_id
 _symmetry_equiv_pos_as_xyz
 1  'x, y, z'
loop_
 _atom_site_type_symbol
 _atom_site_label
 _atom_site_symmetry_multiplicity
 _atom_site_fract_x
 _atom_site_fract_y
 _atom_site_fract_z
 _atom_site_fract_occupancy
 Ca  Ca1  1  0.62500  0.75000  0.75000  1
 Ca  Ca2  1  0.37500  0.25000  0.25000  1
 N  N1  1  0.83446  0.38694  0.49796  1
 N  N2  1  0.21936  0.11306  0.00204  1
 N  N3  1  0.00117  0.25000  0.99765  1
 N  N4  1  0.74883  0.25000  0.50235  1
 N  N5  1  0.99883  0.75000  0.00235  1
 N  N6  1  0.25117  0.75000  0.49765  1
 N  N7  1  0.33242  0.88694  0.50204  1
 N  N8  1  0.22140  0.61306  0.99796  1
 N  N9  1  0.78064  0.88694  0.99796  1
 N  N10  1  0.16554  0.61306  0.50204  1
 N  N11  1  0.66758  0.11306  0.49796  1
 N  N12  1  0.77860  0.38694  0.00204  1
