CIF file written using JARVIS-Tools package.
data_FeSi
_symmetry_space_group_name_H-M  'P2_13'
_cell_length_a       4.46779
_cell_length_b       4.46779
_cell_length_c       4.46779
_cell_angle_alpha    90
_cell_angle_beta     90
_cell_angle_gamma    90

_symmetry_Int_Tables_number  198
_chemical_formula_structural  FeSi
_chemical_formula_sum  Fe4Si4
_cell_volume  89.18194793050692
_cell_formula_units_Z  4
loop_
  _symmetry_equiv_pos_site_id
 _symmetry_equiv_pos_as_xyz
 1  'x, y, z'
loop_
 _atom_site_type_symbol
 _atom_site_label
 _atom_site_symmetry_multiplicity
 _atom_site_fract_x
 _atom_site_fract_y
 _atom_site_fract_z
 _atom_site_fract_occupancy
 Fe  Fe1  1  0.86461  0.63539  0.36461  1
 Fe  Fe2  1  0.63539  0.36461  0.86461  1
 Fe  Fe3  1  0.36461  0.86461  0.63539  1
 Fe  Fe4  1  0.13539  0.13539  0.13539  1
 Si  Si1  1  0.15963  0.34037  0.65963  1
 Si  Si2  1  0.34037  0.65963  0.15963  1
 Si  Si3  1  0.65963  0.15963  0.34037  1
 Si  Si4  1  0.84037  0.84037  0.84037  1
