CIF file written using JARVIS-Tools package.
data_CdBiClO2
_symmetry_space_group_name_H-M  'P2_1/m'
_cell_length_a       4.22047
_cell_length_b       6.1382
_cell_length_c       7.62613
_cell_angle_alpha    100.333
_cell_angle_beta     90
_cell_angle_gamma    90

_symmetry_Int_Tables_number  11
_chemical_formula_structural  CdBiClO2
_chemical_formula_sum  Cd2Bi2Cl2O4
_cell_volume  194.35894450359484
_cell_formula_units_Z  2
loop_
  _symmetry_equiv_pos_site_id
 _symmetry_equiv_pos_as_xyz
 1  'x, y, z'
loop_
 _atom_site_type_symbol
 _atom_site_label
 _atom_site_symmetry_multiplicity
 _atom_site_fract_x
 _atom_site_fract_y
 _atom_site_fract_z
 _atom_site_fract_occupancy
 Bi  Bi1  1  0.25000  0.30621  0.59577  1
 Bi  Bi2  1  0.75000  0.69378  0.40423  1
 Cd  Cd1  1  0.75000  0.65655  0.90185  1
 Cd  Cd2  1  0.25000  0.34345  0.09815  1
 Cl  Cl1  1  0.25000  0.96560  0.19370  1
 Cl  Cl2  1  0.75000  0.03440  0.80630  1
 O  O1  1  0.25000  0.51271  0.85541  1
 O  O2  1  0.75000  0.48729  0.14459  1
 O  O3  1  0.75000  0.45152  0.59144  1
 O  O4  1  0.25000  0.54848  0.40856  1
