CIF file written using JARVIS-Tools package.
data_Ca2Ni3O8
_symmetry_space_group_name_H-M  'C2/m'
_cell_length_a       4.94522
_cell_length_b       5.82024
_cell_length_c       6.17149
_cell_angle_alpha    118.135
_cell_angle_beta     107.104
_cell_angle_gamma    90

_symmetry_Int_Tables_number  12
_chemical_formula_structural  Ca2Ni3O8
_chemical_formula_sum  Ca2Ni3O8
_cell_volume  147.67353653695915
_cell_formula_units_Z  1
loop_
  _symmetry_equiv_pos_site_id
 _symmetry_equiv_pos_as_xyz
 1  'x, y, z'
loop_
 _atom_site_type_symbol
 _atom_site_label
 _atom_site_symmetry_multiplicity
 _atom_site_fract_x
 _atom_site_fract_y
 _atom_site_fract_z
 _atom_site_fract_occupancy
 Ca  Ca1  1  0.66471  0.72214  0.44428  1
 Ca  Ca2  1  0.33529  0.27786  0.55572  1
 Ni  Ni1  1  0.50000  1.00000  -0.00000  1
 Ni  Ni2  1  1.00000  0.74753  0.00000  1
 Ni  Ni3  1  1.00000  0.25247  -0.00000  1
 O  O1  1  0.03576  0.39727  0.79454  1
 O  O2  1  0.96424  0.60273  0.20546  1
 O  O3  1  0.09934  0.90510  0.81021  1
 O  O4  1  0.90066  0.09490  0.18979  1
 O  O5  1  0.38925  0.32233  0.19957  1
 O  O6  1  0.38925  0.87724  0.19957  1
 O  O7  1  0.61075  0.12276  0.80043  1
 O  O8  1  0.61075  0.67767  0.80043  1
