CIF file written using JARVIS-Tools package.
data_SbO2
_symmetry_space_group_name_H-M  'R-3m'
_cell_length_a       3.43698
_cell_length_b       3.437
_cell_length_c       9.22921
_cell_angle_alpha    111.849
_cell_angle_beta     90.0034
_cell_angle_gamma    119.998

_symmetry_Int_Tables_number  166
_chemical_formula_structural  SbO2
_chemical_formula_sum  Sb2O4
_cell_volume  85.25559012253224
_cell_formula_units_Z  2
loop_
  _symmetry_equiv_pos_site_id
 _symmetry_equiv_pos_as_xyz
 1  'x, y, z'
loop_
 _atom_site_type_symbol
 _atom_site_label
 _atom_site_symmetry_multiplicity
 _atom_site_fract_x
 _atom_site_fract_y
 _atom_site_fract_z
 _atom_site_fract_occupancy
 O  O1  1  0.40933  0.81655  0.60894  1
 O  O2  1  0.25996  0.51706  0.88423  1
 O  O3  1  0.59476  0.18747  0.38695  1
 O  O4  1  0.74478  0.48676  0.11158  1
 Sb  Sb1  1  0.00204  0.00201  0.49794  1
 Sb  Sb2  1  0.00246  0.00191  -0.00209  1
