CIF file written using JARVIS-Tools package.
data_PtS2Cl6
_symmetry_space_group_name_H-M  'P-1'
_cell_length_a       4.90558
_cell_length_b       6.06107
_cell_length_c       8.041
_cell_angle_alpha    101.924
_cell_angle_beta     96.9679
_cell_angle_gamma    100.577

_symmetry_Int_Tables_number  2
_chemical_formula_structural  PtS2Cl6
_chemical_formula_sum  PtS2Cl6
_cell_volume  226.77694044384236
_cell_formula_units_Z  1
loop_
  _symmetry_equiv_pos_site_id
 _symmetry_equiv_pos_as_xyz
 1  'x, y, z'
loop_
 _atom_site_type_symbol
 _atom_site_label
 _atom_site_symmetry_multiplicity
 _atom_site_fract_x
 _atom_site_fract_y
 _atom_site_fract_z
 _atom_site_fract_occupancy
 Cl  Cl1  1  0.56068  0.03494  0.73850  1
 Cl  Cl2  1  0.17454  0.39282  0.67244  1
 Cl  Cl3  1  0.82546  0.60718  0.32756  1
 Cl  Cl4  1  0.21856  0.30832  0.05477  1
 Cl  Cl5  1  0.78144  0.69168  0.94523  1
 Cl  Cl6  1  0.43932  -0.03494  0.26150  1
 Pt  Pt1  1  0.50000  0.50000  0.50000  1
 S  S1  1  0.20795  0.21872  0.28640  1
 S  S2  1  0.79205  0.78128  0.71360  1
