CIF file written using JARVIS-Tools package.
data_Ta3O5F5
_symmetry_space_group_name_H-M  'Immm'
_cell_length_a       12.2201
_cell_length_b       12.2201
_cell_length_c       12.2201
_cell_angle_alpha    161.48
_cell_angle_beta     161.126
_cell_angle_gamma    26.5627

_symmetry_Int_Tables_number  71
_chemical_formula_structural  Ta3O5F5
_chemical_formula_sum  Ta3O5F5
_cell_volume  187.43251413517137
_cell_formula_units_Z  1
loop_
  _symmetry_equiv_pos_site_id
 _symmetry_equiv_pos_as_xyz
 1  'x, y, z'
loop_
 _atom_site_type_symbol
 _atom_site_label
 _atom_site_symmetry_multiplicity
 _atom_site_fract_x
 _atom_site_fract_y
 _atom_site_fract_z
 _atom_site_fract_occupancy
 F  F1  1  0.66370  0.16370  0.50000  1
 F  F2  1  0.24345  0.24345  0.00000  1
 F  F3  1  0.75655  0.75655  -0.00000  1
 F  F4  1  0.00000  0.50000  0.50000  1
 F  F5  1  0.33630  0.83630  0.50000  1
 O  O1  1  0.83819  0.33819  0.50000  1
 O  O2  1  0.50000  0.00000  0.50000  1
 O  O3  1  0.08160  0.08160  -0.00000  1
 O  O4  1  0.91840  0.91840  0.00000  1
 O  O5  1  0.16181  0.66181  0.50000  1
 Ta  Ta1  1  0.00000  0.00000  0.00000  1
 Ta  Ta2  1  0.16290  0.16290  0.00000  1
 Ta  Ta3  1  0.83710  0.83710  0.00000  1
