CIF file written using JARVIS-Tools package.
data_Mn3GeIr
_symmetry_space_group_name_H-M  'P2_13'
_cell_length_a       6.57558
_cell_length_b       6.57558
_cell_length_c       6.57558
_cell_angle_alpha    90
_cell_angle_beta     90
_cell_angle_gamma    90

_symmetry_Int_Tables_number  198
_chemical_formula_structural  Mn3GeIr
_chemical_formula_sum  Mn2Ge4Ir4
_cell_volume  284.3162638905058
_cell_formula_units_Z  4
loop_
  _symmetry_equiv_pos_site_id
 _symmetry_equiv_pos_as_xyz
 1  'x, y, z'
loop_
 _atom_site_type_symbol
 _atom_site_label
 _atom_site_symmetry_multiplicity
 _atom_site_fract_x
 _atom_site_fract_y
 _atom_site_fract_z
 _atom_site_fract_occupancy
 Ge  Ge1  1  0.05871  0.05871  0.05871  1
 Ge  Ge2  1  0.44129  0.94129  0.55871  1
 Ge  Ge3  1  0.55871  0.44129  0.94129  1
 Ge  Ge4  1  0.94129  0.55871  0.44129  1
 Ir  Ir1  1  0.69061  0.69061  0.69061  1
 Ir  Ir2  1  0.30939  0.19061  0.80939  1
 Ir  Ir3  1  0.80939  0.30939  0.19061  1
 Ir  Ir4  1  0.19061  0.80939  0.30939  1
 Mn  Mn1  1  0.79435  0.95281  0.37826  1
 Mn  Mn2  1  0.45281  0.12174  0.20565  1
 Mn  Mn3  1  0.12174  0.20565  0.45281  1
 Mn  Mn4  1  0.95281  0.37826  0.79435  1
 Mn  Mn5  1  0.62174  0.29435  0.54719  1
 Mn  Mn6  1  0.04719  0.87826  0.70565  1
 Mn  Mn7  1  0.54719  0.62174  0.29435  1
 Mn  Mn8  1  0.70565  0.04719  0.87826  1
 Mn  Mn9  1  0.87826  0.70565  0.04719  1
 Mn  Mn10  1  0.37826  0.79435  0.95281  1
 Mn  Mn11  1  0.29435  0.54719  0.62174  1
 Mn  Mn12  1  0.20565  0.45281  0.12174  1
