CIF file written using JARVIS-Tools package.
data_LiNi2O4
_symmetry_space_group_name_H-M  'Fd-3m'
_cell_length_a       5.71916
_cell_length_b       5.71917
_cell_length_c       5.71916
_cell_angle_alpha    60
_cell_angle_beta     60
_cell_angle_gamma    60

_symmetry_Int_Tables_number  227
_chemical_formula_structural  LiNi2O4
_chemical_formula_sum  Li2Ni4O8
_cell_volume  132.27636610248317
_cell_formula_units_Z  2
loop_
  _symmetry_equiv_pos_site_id
 _symmetry_equiv_pos_as_xyz
 1  'x, y, z'
loop_
 _atom_site_type_symbol
 _atom_site_label
 _atom_site_symmetry_multiplicity
 _atom_site_fract_x
 _atom_site_fract_y
 _atom_site_fract_z
 _atom_site_fract_occupancy
 Li  Li1  1  0.12500  0.12500  0.12500  1
 Li  Li2  1  0.87500  0.87500  0.87500  1
 Ni  Ni1  1  0.50000  0.50000  0.50000  1
 Ni  Ni2  1  0.50000  0.00000  0.50000  1
 Ni  Ni3  1  0.00000  0.50000  0.50000  1
 Ni  Ni4  1  0.50000  0.50000  -0.00000  1
 O  O1  1  0.73643  0.73643  0.29071  1
 O  O2  1  0.73643  0.73643  0.73643  1
 O  O3  1  0.26357  0.26357  0.70929  1
 O  O4  1  0.26357  0.70929  0.26357  1
 O  O5  1  0.26357  0.26357  0.26357  1
 O  O6  1  0.70929  0.26357  0.26357  1
 O  O7  1  0.73643  0.29071  0.73643  1
 O  O8  1  0.29071  0.73643  0.73643  1
