CIF file written using JARVIS-Tools package.
data_BaCaI4
_symmetry_space_group_name_H-M  'Imma'
_cell_length_a       8.93372
_cell_length_b       8.93372
_cell_length_c       8.93372
_cell_angle_alpha    106.222
_cell_angle_beta     112.595
_cell_angle_gamma    109.659

_symmetry_Int_Tables_number  74
_chemical_formula_structural  BaCaI4
_chemical_formula_sum  Ba2Ca2I8
_cell_volume  547.1798665981235
_cell_formula_units_Z  2
loop_
  _symmetry_equiv_pos_site_id
 _symmetry_equiv_pos_as_xyz
 1  'x, y, z'
loop_
 _atom_site_type_symbol
 _atom_site_label
 _atom_site_symmetry_multiplicity
 _atom_site_fract_x
 _atom_site_fract_y
 _atom_site_fract_z
 _atom_site_fract_occupancy
 Ba  Ba1  1  0.34970  0.25000  0.09970  1
 Ba  Ba2  1  0.65030  0.75000  0.90030  1
 Ca  Ca1  1  0.50000  0.00000  0.50000  1
 Ca  Ca2  1  -0.00000  0.50000  0.50000  1
 I  I1  1  0.69761  0.07151  0.26912  1
 I  I2  1  0.76197  0.56127  0.20070  1
 I  I3  1  0.86057  0.06127  0.79930  1
 I  I4  1  0.69761  0.42849  0.62609  1
 I  I5  1  0.30239  0.57151  0.37391  1
 I  I6  1  0.23803  0.43873  0.79930  1
 I  I7  1  0.13943  0.93873  0.20070  1
 I  I8  1  0.30239  0.92849  0.73088  1
