CIF file written using JARVIS-Tools package.
data_Rb3Mo2Cl9
_symmetry_space_group_name_H-M  'P6_3/mmc'
_cell_length_a       7.07693
_cell_length_b       7.07693
_cell_length_c       17.2499
_cell_angle_alpha    90
_cell_angle_beta     90
_cell_angle_gamma    120

_symmetry_Int_Tables_number  194
_chemical_formula_structural  Rb3Mo2Cl9
_chemical_formula_sum  Rb6Mo4Cl8
_cell_volume  748.1835704234396
_cell_formula_units_Z  2
loop_
  _symmetry_equiv_pos_site_id
 _symmetry_equiv_pos_as_xyz
 1  'x, y, z'
loop_
 _atom_site_type_symbol
 _atom_site_label
 _atom_site_symmetry_multiplicity
 _atom_site_fract_x
 _atom_site_fract_y
 _atom_site_fract_z
 _atom_site_fract_occupancy
 Cl  Cl1  1  0.00534  0.50267  0.75000  1
 Cl  Cl2  1  0.82802  0.65604  0.59059  1
 Cl  Cl3  1  0.82802  0.17198  0.59059  1
 Cl  Cl4  1  0.34396  0.17198  0.59059  1
 Cl  Cl5  1  0.82802  0.17198  0.90941  1
 Cl  Cl6  1  0.17198  0.82802  0.40941  1
 Cl  Cl7  1  0.17198  0.34396  0.09059  1
 Cl  Cl8  1  0.17198  0.82802  0.09059  1
 Cl  Cl9  1  0.65604  0.82802  0.09059  1
 Cl  Cl10  1  0.34396  0.17198  0.90941  1
 Cl  Cl11  1  0.49733  0.50267  0.75000  1
 Cl  Cl12  1  0.50267  0.00534  0.25000  1
 Cl  Cl13  1  -0.00534  0.49733  0.25000  1
 Cl  Cl14  1  0.17198  0.34396  0.40941  1
 Cl  Cl15  1  0.49733  -0.00534  0.75000  1
 Cl  Cl16  1  0.50267  0.49733  0.25000  1
 Cl  Cl17  1  0.65604  0.82802  0.40941  1
 Cl  Cl18  1  0.82802  0.65604  0.90941  1
 Mo  Mo1  1  0.66667  0.33333  0.66984  1
 Mo  Mo2  1  0.33333  0.66667  0.16984  1
 Mo  Mo3  1  0.66667  0.33333  0.83016  1
 Mo  Mo4  1  0.33333  0.66667  0.33016  1
 Rb  Rb1  1  0.66667  0.33333  0.07157  1
 Rb  Rb2  1  0.33333  0.66667  0.57157  1
 Rb  Rb3  1  0.66667  0.33333  0.42843  1
 Rb  Rb4  1  0.33333  0.66667  0.92843  1
 Rb  Rb5  1  0.00000  0.00000  0.25000  1
 Rb  Rb6  1  0.00000  0.00000  0.75000  1
