CIF file written using JARVIS-Tools package.
data_KLi2H3O3
_symmetry_space_group_name_H-M  'P2_1/m'
_cell_length_a       5.13171
_cell_length_b       5.55322
_cell_length_c       6.9752
_cell_angle_alpha    90
_cell_angle_beta     91.0605
_cell_angle_gamma    90

_symmetry_Int_Tables_number  11
_chemical_formula_structural  KLi2H3O3
_chemical_formula_sum  K2Li4H6O6
_cell_volume  198.74175201086368
_cell_formula_units_Z  2
loop_
  _symmetry_equiv_pos_site_id
 _symmetry_equiv_pos_as_xyz
 1  'x, y, z'
loop_
 _atom_site_type_symbol
 _atom_site_label
 _atom_site_symmetry_multiplicity
 _atom_site_fract_x
 _atom_site_fract_y
 _atom_site_fract_z
 _atom_site_fract_occupancy
 H  H1  1  0.83374  0.75000  0.80524  1
 H  H2  1  0.22395  0.25000  0.29566  1
 H  H3  1  0.77605  0.75000  0.70434  1
 H  H4  1  0.16626  0.25000  0.19476  1
 H  H5  1  0.21205  0.75000  0.06355  1
 H  H6  1  0.78795  0.25000  0.93645  1
 K  K1  1  0.77869  0.25000  0.49952  1
 K  K2  1  0.22131  0.75000  0.50048  1
 Li  Li1  1  0.36277  0.45093  0.86537  1
 Li  Li2  1  0.63723  0.95093  0.13463  1
 Li  Li3  1  0.63723  0.54907  0.13463  1
 Li  Li4  1  0.36277  0.04907  0.86537  1
 O  O1  1  0.29915  0.25000  0.63443  1
 O  O2  1  0.90795  0.75000  0.20807  1
 O  O3  1  0.09205  0.25000  0.79193  1
 O  O4  1  0.70085  0.75000  0.36557  1
 O  O5  1  0.37552  0.75000  0.99151  1
 O  O6  1  0.62448  0.25000  0.00849  1
