CIF file written using JARVIS-Tools package.
data_UH2O4
_symmetry_space_group_name_H-M  'Pbca'
_cell_length_a       5.3479
_cell_length_b       5.96837
_cell_length_c       10.2268
_cell_angle_alpha    90
_cell_angle_beta     90
_cell_angle_gamma    90

_symmetry_Int_Tables_number  61
_chemical_formula_structural  UH2O4
_chemical_formula_sum  U4H8O6
_cell_volume  326.42186314140486
_cell_formula_units_Z  4
loop_
  _symmetry_equiv_pos_site_id
 _symmetry_equiv_pos_as_xyz
 1  'x, y, z'
loop_
 _atom_site_type_symbol
 _atom_site_label
 _atom_site_symmetry_multiplicity
 _atom_site_fract_x
 _atom_site_fract_y
 _atom_site_fract_z
 _atom_site_fract_occupancy
 H  H1  1  0.36008  0.89445  0.23814  1
 H  H2  1  0.13992  0.39445  0.23814  1
 H  H3  1  0.63992  0.10555  0.76186  1
 H  H4  1  0.36008  0.60555  0.73814  1
 H  H5  1  0.86008  0.89445  0.26186  1
 H  H6  1  0.86008  0.60555  0.76186  1
 H  H7  1  0.13992  0.10555  0.73814  1
 H  H8  1  0.63992  0.39445  0.26186  1
 O  O1  1  0.83164  0.97995  0.18008  1
 O  O2  1  0.33164  0.52005  0.81992  1
 O  O3  1  0.83164  0.52005  0.68008  1
 O  O4  1  0.77666  0.79817  0.43683  1
 O  O5  1  0.33164  0.97995  0.31992  1
 O  O6  1  0.72334  0.20183  0.93683  1
 O  O7  1  0.66836  0.47995  0.18008  1
 O  O8  1  0.16836  0.02005  0.81992  1
 O  O9  1  0.16836  0.47995  0.31992  1
 O  O10  1  0.22334  0.29817  0.06317  1
 O  O11  1  0.27666  0.79817  0.06317  1
 O  O12  1  0.77666  0.70183  0.93683  1
 O  O13  1  0.27666  0.70183  0.56317  1
 O  O14  1  0.66836  0.02005  0.68008  1
 O  O15  1  0.72334  0.29817  0.43683  1
 O  O16  1  0.22334  0.20183  0.56317  1
 U  U1  1  0.00000  0.00000  0.00000  1
 U  U2  1  0.50000  0.50000  0.00000  1
 U  U3  1  0.00000  0.50000  0.50000  1
 U  U4  1  0.50000  0.00000  0.50000  1
