CIF file written using JARVIS-Tools package.
data_AgBiO2
_symmetry_space_group_name_H-M  'P2_1/m'
_cell_length_a       3.55573
_cell_length_b       5.95296
_cell_length_c       6.79418
_cell_angle_alpha    101.256
_cell_angle_beta     90
_cell_angle_gamma    90

_symmetry_Int_Tables_number  11
_chemical_formula_structural  AgBiO2
_chemical_formula_sum  Ag2Bi2O4
_cell_volume  141.04679076322083
_cell_formula_units_Z  2
loop_
  _symmetry_equiv_pos_site_id
 _symmetry_equiv_pos_as_xyz
 1  'x, y, z'
loop_
 _atom_site_type_symbol
 _atom_site_label
 _atom_site_symmetry_multiplicity
 _atom_site_fract_x
 _atom_site_fract_y
 _atom_site_fract_z
 _atom_site_fract_occupancy
 Ag  Ag1  1  0.75000  0.19428  0.09495  1
 Ag  Ag2  1  0.25000  0.80572  0.90505  1
 Bi  Bi1  1  0.25000  0.26354  0.61869  1
 Bi  Bi2  1  0.75000  0.73646  0.38131  1
 O  O1  1  0.25000  0.69629  0.17621  1
 O  O2  1  0.75000  0.30371  0.82379  1
 O  O3  1  0.25000  0.89982  0.62348  1
 O  O4  1  0.75000  0.10018  0.37652  1
