CIF file written using JARVIS-Tools package.
data_NdMnSi
_symmetry_space_group_name_H-M  'P4/nmm'
_cell_length_a       4.02028
_cell_length_b       4.02025
_cell_length_c       7.29951
_cell_angle_alpha    90
_cell_angle_beta     90
_cell_angle_gamma    90

_symmetry_Int_Tables_number  129
_chemical_formula_structural  NdMnSi
_chemical_formula_sum  Nd2Mn2Si2
_cell_volume  117.9786213147924
_cell_formula_units_Z  2
loop_
  _symmetry_equiv_pos_site_id
 _symmetry_equiv_pos_as_xyz
 1  'x, y, z'
loop_
 _atom_site_type_symbol
 _atom_site_label
 _atom_site_symmetry_multiplicity
 _atom_site_fract_x
 _atom_site_fract_y
 _atom_site_fract_z
 _atom_site_fract_occupancy
 Mn  Mn1  1  0.00000  0.00000  0.00000  1
 Mn  Mn2  1  0.50000  0.50000  -0.00000  1
 Nd  Nd1  1  0.50000  0.00000  0.67082  1
 Nd  Nd2  1  0.00000  0.50000  0.32918  1
 Si  Si1  1  0.50000  0.00000  0.18603  1
 Si  Si2  1  0.00000  0.50000  0.81397  1
