CIF file written using JARVIS-Tools package.
data_K2RbPdF5
_symmetry_space_group_name_H-M  'P4/mbm'
_cell_length_a       7.17354
_cell_length_b       7.17354
_cell_length_c       6.25473
_cell_angle_alpha    90
_cell_angle_beta     90
_cell_angle_gamma    90

_symmetry_Int_Tables_number  127
_chemical_formula_structural  K2RbPdF5
_chemical_formula_sum  K4Rb2Pd2F0
_cell_volume  321.8667573330374
_cell_formula_units_Z  2
loop_
  _symmetry_equiv_pos_site_id
 _symmetry_equiv_pos_as_xyz
 1  'x, y, z'
loop_
 _atom_site_type_symbol
 _atom_site_label
 _atom_site_symmetry_multiplicity
 _atom_site_fract_x
 _atom_site_fract_y
 _atom_site_fract_z
 _atom_site_fract_occupancy
 F  F1  1  0.86197  0.36197  0.22271  1
 F  F2  1  0.00000  0.00000  0.50000  1
 F  F3  1  0.86197  0.36197  0.77729  1
 F  F4  1  0.36197  0.13803  0.77729  1
 F  F5  1  0.13803  0.63803  0.77729  1
 F  F6  1  0.13803  0.63803  0.22271  1
 F  F7  1  0.63803  0.86197  0.22271  1
 F  F8  1  0.36197  0.13803  0.22271  1
 F  F9  1  0.50000  0.50000  0.50000  1
 F  F10  1  0.63803  0.86197  0.77729  1
 K  K1  1  0.82834  0.67166  0.50000  1
 K  K2  1  0.32834  0.82834  0.50000  1
 K  K3  1  0.67166  0.17166  0.50000  1
 K  K4  1  0.17166  0.32834  0.50000  1
 Pd  Pd1  1  0.00000  0.50000  0.00000  1
 Pd  Pd2  1  0.50000  0.00000  0.00000  1
 Rb  Rb1  1  0.50000  0.50000  0.00000  1
 Rb  Rb2  1  0.00000  0.00000  0.00000  1
