CIF file written using JARVIS-Tools package.
data_Cu3PSe4
_symmetry_space_group_name_H-M  'Pmn2_1'
_cell_length_a       6.45254
_cell_length_b       6.73977
_cell_length_c       7.76149
_cell_angle_alpha    90
_cell_angle_beta     90
_cell_angle_gamma    90

_symmetry_Int_Tables_number  31
_chemical_formula_structural  Cu3PSe4
_chemical_formula_sum  Cu6P2Se8
_cell_volume  337.5362672520367
_cell_formula_units_Z  2
loop_
  _symmetry_equiv_pos_site_id
 _symmetry_equiv_pos_as_xyz
 1  'x, y, z'
loop_
 _atom_site_type_symbol
 _atom_site_label
 _atom_site_symmetry_multiplicity
 _atom_site_fract_x
 _atom_site_fract_y
 _atom_site_fract_z
 _atom_site_fract_occupancy
 Cu  Cu1  1  0.00966  0.82347  0.25382  1
 Cu  Cu2  1  0.50966  0.17653  0.24618  1
 Cu  Cu3  1  0.50966  0.17653  0.75382  1
 Cu  Cu4  1  0.00966  0.82347  0.74618  1
 Cu  Cu5  1  0.99771  0.34574  0.00000  1
 Cu  Cu6  1  0.49771  0.65426  0.50000  1
 P  P1  1  0.49987  0.67222  0.00000  1
 P  P2  1  -0.00013  0.32778  0.50000  1
 Se  Se1  1  0.35766  0.32121  0.50000  1
 Se  Se2  1  0.85766  0.67879  0.00000  1
 Se  Se3  1  0.87462  0.64646  0.50000  1
 Se  Se4  1  0.37462  0.35354  0.00000  1
 Se  Se5  1  0.38205  0.83703  0.24346  1
 Se  Se6  1  0.88205  0.16297  0.25654  1
 Se  Se7  1  0.88205  0.16297  0.74346  1
 Se  Se8  1  0.38205  0.83703  0.75654  1
