CIF file written using JARVIS-Tools package.
data_Pb3I2Cl4O6
_symmetry_space_group_name_H-M  'C2/c'
_cell_length_a       8.54578
_cell_length_b       8.54578
_cell_length_c       11.9492
_cell_angle_alpha    65.0255
_cell_angle_beta     114.975
_cell_angle_gamma    128.465

_symmetry_Int_Tables_number  15
_chemical_formula_structural  Pb3I2Cl4O6
_chemical_formula_sum  Pb6I4Cl8O2
_cell_volume  603.5285810112499
_cell_formula_units_Z  2
loop_
  _symmetry_equiv_pos_site_id
 _symmetry_equiv_pos_as_xyz
 1  'x, y, z'
loop_
 _atom_site_type_symbol
 _atom_site_label
 _atom_site_symmetry_multiplicity
 _atom_site_fract_x
 _atom_site_fract_y
 _atom_site_fract_z
 _atom_site_fract_occupancy
 Cl  Cl1  1  0.67025  0.42656  0.27126  1
 Cl  Cl2  1  0.42656  0.67025  0.22874  1
 Cl  Cl3  1  0.32975  0.57344  0.72874  1
 Cl  Cl4  1  0.57344  0.32975  0.77126  1
 Cl  Cl5  1  0.74599  0.15985  0.60206  1
 Cl  Cl6  1  0.15985  0.74599  0.89794  1
 Cl  Cl7  1  0.25401  0.84015  0.39794  1
 Cl  Cl8  1  0.84015  0.25401  0.10206  1
 I  I1  1  0.76559  0.65807  0.47128  1
 I  I2  1  0.23441  0.34193  0.52872  1
 I  I3  1  0.34193  0.23441  0.97128  1
 I  I4  1  0.65807  0.76558  0.02872  1
 O  O1  1  0.91982  0.90940  0.12091  1
 O  O2  1  0.66117  0.96141  0.88153  1
 O  O3  1  0.96140  0.66117  0.61847  1
 O  O4  1  0.90940  0.91982  0.37909  1
 O  O5  1  0.33883  0.03860  0.11847  1
 O  O6  1  0.03859  0.33883  0.38153  1
 O  O7  1  0.71777  0.63483  0.97742  1
 O  O8  1  0.09060  0.08018  0.62091  1
 O  O9  1  0.36517  0.28223  0.47742  1
 O  O10  1  0.28223  0.36517  0.02258  1
 O  O11  1  0.63483  0.71778  0.52258  1
 O  O12  1  0.08018  0.09060  0.87909  1
 Pb  Pb1  1  0.65856  0.05245  0.32787  1
 Pb  Pb2  1  0.05245  0.65856  0.17214  1
 Pb  Pb3  1  0.34144  0.94755  0.67213  1
 Pb  Pb4  1  0.94755  0.34144  0.82787  1
 Pb  Pb5  1  0.17756  0.17756  0.25000  1
 Pb  Pb6  1  0.82244  0.82244  0.75000  1
