CIF file written using JARVIS-Tools package.
data_Ca3Hg
_symmetry_space_group_name_H-M  'Pm-3m'
_cell_length_a       8.65457
_cell_length_b       8.65457
_cell_length_c       8.65457
_cell_angle_alpha    109.471
_cell_angle_beta     109.471
_cell_angle_gamma    109.471

_symmetry_Int_Tables_number  221
_chemical_formula_structural  Ca3Hg
_chemical_formula_sum  Ca2Hg4
_cell_volume  499.0162215538191
_cell_formula_units_Z  4
loop_
  _symmetry_equiv_pos_site_id
 _symmetry_equiv_pos_as_xyz
 1  'x, y, z'
loop_
 _atom_site_type_symbol
 _atom_site_label
 _atom_site_symmetry_multiplicity
 _atom_site_fract_x
 _atom_site_fract_y
 _atom_site_fract_z
 _atom_site_fract_occupancy
 Ca  Ca1  1  0.25000  0.50000  0.75000  1
 Ca  Ca2  1  0.75000  0.50000  0.25000  1
 Ca  Ca3  1  -0.00000  0.25000  0.25000  1
 Ca  Ca4  1  0.50000  0.25000  0.75000  1
 Ca  Ca5  1  0.75000  0.00000  0.75000  1
 Ca  Ca6  1  -0.00000  0.75000  0.75000  1
 Ca  Ca7  1  0.25000  0.00000  0.25000  1
 Ca  Ca8  1  0.25000  0.25000  0.00000  1
 Ca  Ca9  1  0.25000  0.75000  0.50000  1
 Ca  Ca10  1  0.50000  0.75000  0.25000  1
 Ca  Ca11  1  0.75000  0.25000  0.50000  1
 Ca  Ca12  1  0.75000  0.75000  -0.00000  1
 Hg  Hg1  1  0.50000  0.00000  -0.00000  1
 Hg  Hg2  1  0.00000  0.00000  0.50000  1
 Hg  Hg3  1  -0.00000  0.50000  0.00000  1
 Hg  Hg4  1  0.50000  0.50000  0.50000  1
