CIF file written using JARVIS-Tools package.
data_MnZnF6
_symmetry_space_group_name_H-M  'R-3'
_cell_length_a       5.30832
_cell_length_b       5.30831
_cell_length_c       5.30831
_cell_angle_alpha    55.2313
_cell_angle_beta     55.2314
_cell_angle_gamma    55.2313

_symmetry_Int_Tables_number  148
_chemical_formula_structural  MnZnF6
_chemical_formula_sum  MnZnF6
_cell_volume  94.0442732520973
_cell_formula_units_Z  1
loop_
  _symmetry_equiv_pos_site_id
 _symmetry_equiv_pos_as_xyz
 1  'x, y, z'
loop_
 _atom_site_type_symbol
 _atom_site_label
 _atom_site_symmetry_multiplicity
 _atom_site_fract_x
 _atom_site_fract_y
 _atom_site_fract_z
 _atom_site_fract_occupancy
 F  F1  1  0.37434  0.09444  0.76781  1
 F  F2  1  0.09444  0.76781  0.37434  1
 F  F3  1  0.23219  0.62566  0.90556  1
 F  F4  1  0.90556  0.23219  0.62566  1
 F  F5  1  0.62566  0.90556  0.23219  1
 F  F6  1  0.76781  0.37434  0.09444  1
 Mn  Mn1  1  0.00000  0.00000  0.00000  1
 Zn  Zn1  1  0.50000  0.50000  0.50000  1
