CIF file written using JARVIS-Tools package.
data_HO
_symmetry_space_group_name_H-M  'P4_12_12'
_cell_length_a       3.2808
_cell_length_b       3.2808
_cell_length_c       11.2871
_cell_angle_alpha    90
_cell_angle_beta     90
_cell_angle_gamma    90

_symmetry_Int_Tables_number  92
_chemical_formula_structural  HO
_chemical_formula_sum  H8O8
_cell_volume  121.49099585838782
_cell_formula_units_Z  8
loop_
  _symmetry_equiv_pos_site_id
 _symmetry_equiv_pos_as_xyz
 1  'x, y, z'
loop_
 _atom_site_type_symbol
 _atom_site_label
 _atom_site_symmetry_multiplicity
 _atom_site_fract_x
 _atom_site_fract_y
 _atom_site_fract_z
 _atom_site_fract_occupancy
 H  H1  1  0.64955  0.18421  0.49233  1
 H  H2  1  0.35045  0.81579  0.99233  1
 H  H3  1  0.18421  0.64955  0.50767  1
 H  H4  1  0.68421  0.85045  0.24233  1
 H  H5  1  0.31579  0.14955  0.74233  1
 H  H6  1  0.85045  0.68421  0.75767  1
 H  H7  1  0.14955  0.31579  0.25767  1
 H  H8  1  0.81579  0.35045  0.00767  1
 O  O1  1  0.96443  0.77846  0.21146  1
 O  O2  1  0.03557  0.22154  0.71146  1
 O  O3  1  0.77846  0.96443  0.78854  1
 O  O4  1  0.27846  0.53557  0.96146  1
 O  O5  1  0.72154  0.46443  0.46146  1
 O  O6  1  0.53557  0.27846  0.03854  1
 O  O7  1  0.46443  0.72154  0.53854  1
 O  O8  1  0.22154  0.03557  0.28854  1
