CIF file written using JARVIS-Tools package.
data_Sr3MgIrO6
_symmetry_space_group_name_H-M  'R-3c'
_cell_length_a       6.7186
_cell_length_b       6.71861
_cell_length_c       6.7186
_cell_angle_alpha    92.2382
_cell_angle_beta     92.2382
_cell_angle_gamma    92.2382

_symmetry_Int_Tables_number  167
_chemical_formula_structural  Sr3MgIrO6
_chemical_formula_sum  Sr6Mg2Ir2O2
_cell_volume  302.56236894978446
_cell_formula_units_Z  2
loop_
  _symmetry_equiv_pos_site_id
 _symmetry_equiv_pos_as_xyz
 1  'x, y, z'
loop_
 _atom_site_type_symbol
 _atom_site_label
 _atom_site_symmetry_multiplicity
 _atom_site_fract_x
 _atom_site_fract_y
 _atom_site_fract_z
 _atom_site_fract_occupancy
 Ir  Ir1  1  0.50000  0.50000  0.50000  1
 Ir  Ir2  1  0.00000  0.00000  0.00000  1
 Mg  Mg1  1  0.75000  0.75000  0.75000  1
 Mg  Mg2  1  0.25000  0.25000  0.25000  1
 O  O1  1  0.09555  0.28852  0.96387  1
 O  O2  1  0.59555  0.46387  0.78852  1
 O  O3  1  0.46387  0.78852  0.59555  1
 O  O4  1  0.03613  0.90445  0.71148  1
 O  O5  1  0.90445  0.71148  0.03613  1
 O  O6  1  0.71148  0.03613  0.90445  1
 O  O7  1  0.21148  0.40445  0.53613  1
 O  O8  1  0.40445  0.53613  0.21148  1
 O  O9  1  0.28852  0.96387  0.09555  1
 O  O10  1  0.78852  0.59555  0.46387  1
 O  O11  1  0.96387  0.09555  0.28852  1
 O  O12  1  0.53613  0.21148  0.40445  1
 Sr  Sr1  1  0.25000  0.61555  0.88445  1
 Sr  Sr2  1  0.61555  0.88445  0.25000  1
 Sr  Sr3  1  0.11555  0.75000  0.38445  1
 Sr  Sr4  1  0.75000  0.38445  0.11555  1
 Sr  Sr5  1  0.38445  0.11555  0.75000  1
 Sr  Sr6  1  0.88445  0.25000  0.61555  1
