CIF file written using JARVIS-Tools package.
data_K2P2Pd
_symmetry_space_group_name_H-M  'Cmcm'
_cell_length_a       5.90247
_cell_length_b       6.29297
_cell_length_c       7.71881
_cell_angle_alpha    114.057
_cell_angle_beta     90
_cell_angle_gamma    90

_symmetry_Int_Tables_number  63
_chemical_formula_structural  K2P2Pd
_chemical_formula_sum  K4P4Pd2
_cell_volume  261.80569150797476
_cell_formula_units_Z  2
loop_
  _symmetry_equiv_pos_site_id
 _symmetry_equiv_pos_as_xyz
 1  'x, y, z'
loop_
 _atom_site_type_symbol
 _atom_site_label
 _atom_site_symmetry_multiplicity
 _atom_site_fract_x
 _atom_site_fract_y
 _atom_site_fract_z
 _atom_site_fract_occupancy
 K  K1  1  0.75000  0.79026  0.58052  1
 K  K2  1  0.75000  0.42055  0.84110  1
 K  K3  1  0.25000  0.20974  0.41948  1
 K  K4  1  0.25000  0.57945  0.15890  1
 P  P1  1  0.75000  0.28778  0.22674  1
 P  P2  1  0.25000  0.06103  0.77326  1
 P  P3  1  0.25000  0.71222  0.77326  1
 P  P4  1  0.75000  0.93897  0.22674  1
 Pd  Pd1  1  0.00000  0.00000  0.00000  1
 Pd  Pd2  1  0.50000  0.00000  0.00000  1
