CIF file written using JARVIS-Tools package.
data_LiMnF4
_symmetry_space_group_name_H-M  'P2_1/c'
_cell_length_a       4.51811
_cell_length_b       9.72011
_cell_length_c       7.59929
_cell_angle_alpha    90
_cell_angle_beta     123.858
_cell_angle_gamma    90

_symmetry_Int_Tables_number  14
_chemical_formula_structural  LiMnF4
_chemical_formula_sum  Li4Mn4F6
_cell_volume  277.14081353572334
_cell_formula_units_Z  4
loop_
  _symmetry_equiv_pos_site_id
 _symmetry_equiv_pos_as_xyz
 1  'x, y, z'
loop_
 _atom_site_type_symbol
 _atom_site_label
 _atom_site_symmetry_multiplicity
 _atom_site_fract_x
 _atom_site_fract_y
 _atom_site_fract_z
 _atom_site_fract_occupancy
 F  F1  1  0.98512  0.92140  0.22422  1
 F  F2  1  0.77442  0.15481  0.00578  1
 F  F3  1  0.29228  0.34490  0.02409  1
 F  F4  1  0.51596  0.91119  0.72596  1
 F  F5  1  0.70772  0.65510  0.97591  1
 F  F6  1  0.98512  0.57860  0.72422  1
 F  F7  1  0.01488  0.07860  0.77578  1
 F  F8  1  0.48404  0.41119  0.77404  1
 F  F9  1  0.29228  0.15510  0.52409  1
 F  F10  1  0.70772  0.84490  0.47591  1
 F  F11  1  0.77442  0.34519  0.50578  1
 F  F12  1  0.22558  0.84519  -0.00578  1
 F  F13  1  0.01488  0.42140  0.27578  1
 F  F14  1  0.51596  0.58881  0.22596  1
 F  F15  1  0.48404  0.08881  0.27404  1
 F  F16  1  0.22558  0.65481  0.49422  1
 Li  Li1  1  0.30728  0.27888  0.27425  1
 Li  Li2  1  0.69272  0.77888  0.22575  1
 Li  Li3  1  0.30728  0.22112  0.77425  1
 Li  Li4  1  0.69272  0.72112  0.72575  1
 Mn  Mn1  1  0.00000  0.50000  0.50000  1
 Mn  Mn2  1  0.50000  0.00000  0.50000  1
 Mn  Mn3  1  0.50000  0.50000  0.00000  1
 Mn  Mn4  1  0.00000  0.00000  0.00000  1
