CIF file written using JARVIS-Tools package.
data_MgTi2S5
_symmetry_space_group_name_H-M  'Pmmn'
_cell_length_a       6.06376
_cell_length_b       3.82618
_cell_length_c       14.934
_cell_angle_alpha    90
_cell_angle_beta     90.0016
_cell_angle_gamma    90

_symmetry_Int_Tables_number  59
_chemical_formula_structural  MgTi2S5
_chemical_formula_sum  Mg2Ti4S0
_cell_volume  346.48519983731467
_cell_formula_units_Z  2
loop_
  _symmetry_equiv_pos_site_id
 _symmetry_equiv_pos_as_xyz
 1  'x, y, z'
loop_
 _atom_site_type_symbol
 _atom_site_label
 _atom_site_symmetry_multiplicity
 _atom_site_fract_x
 _atom_site_fract_y
 _atom_site_fract_z
 _atom_site_fract_occupancy
 Mg  Mg1  1  0.04718  0.50000  0.75001  1
 Mg  Mg2  1  0.95282  0.00000  0.25000  1
 S  S1  1  0.61858  0.50000  0.25000  1
 S  S2  1  0.38142  0.00000  0.75000  1
 S  S3  1  0.33752  0.50000  0.93825  1
 S  S4  1  0.66247  0.00000  0.06175  1
 S  S5  1  0.33753  0.50000  0.56174  1
 S  S6  1  0.66248  0.00000  0.43826  1
 S  S7  1  0.88917  0.00000  0.64377  1
 S  S8  1  0.11084  0.50000  0.35624  1
 S  S9  1  0.11083  0.50000  0.14376  1
 S  S10  1  0.88916  0.00000  0.85624  1
 Ti  Ti1  1  0.54072  0.00000  0.89892  1
 Ti  Ti2  1  0.45927  0.50000  0.10108  1
 Ti  Ti3  1  0.45928  0.50000  0.39892  1
 Ti  Ti4  1  0.54073  0.00000  0.60108  1
