CIF file written using JARVIS-Tools package.
data_Te2MoW3Se4S2
_symmetry_space_group_name_H-M  'P3m1'
_cell_length_a       3.3454
_cell_length_b       3.3454
_cell_length_c       35.1578
_cell_angle_alpha    89.9999
_cell_angle_beta     90
_cell_angle_gamma    120

_symmetry_Int_Tables_number  156
_chemical_formula_structural  Te2MoW3Se4S2
_chemical_formula_sum  Te2MoW3Se4S2
_cell_volume  340.7590205529171
_cell_formula_units_Z  1
loop_
  _symmetry_equiv_pos_site_id
 _symmetry_equiv_pos_as_xyz
 1  'x, y, z'
loop_
 _atom_site_type_symbol
 _atom_site_label
 _atom_site_symmetry_multiplicity
 _atom_site_fract_x
 _atom_site_fract_y
 _atom_site_fract_z
 _atom_site_fract_occupancy
 Mo  Mo1  1  0.33330  0.66659  0.08760  1
 S  S1  1  0.33334  0.66669  0.69832  1
 S  S2  1  0.33334  0.66668  0.61157  1
 Se  Se1  1  0.33337  0.66673  0.33408  1
 Se  Se2  1  0.66664  0.33329  0.42627  1
 Se  Se3  1  0.66668  0.33337  0.52158  1
 Se  Se4  1  0.33337  0.66675  0.23873  1
 Te  Te1  1  0.66662  0.33324  0.03361  1
 Te  Te2  1  0.66663  0.33327  0.14171  1
 W  W1  1  0.33333  0.66666  0.47392  1
 W  W2  1  0.66670  0.33339  0.28640  1
 W  W3  1  0.66667  0.33334  0.65497  1
