CIF file written using JARVIS-Tools package.
data_Sr3CaIrO6
_symmetry_space_group_name_H-M  'R-3c'
_cell_length_a       6.82935
_cell_length_b       6.82935
_cell_length_c       6.82935
_cell_angle_alpha    91.3441
_cell_angle_beta     91.3441
_cell_angle_gamma    91.3441

_symmetry_Int_Tables_number  167
_chemical_formula_structural  Sr3CaIrO6
_chemical_formula_sum  Sr6Ca2Ir2O2
_cell_volume  318.253811184181
_cell_formula_units_Z  2
loop_
  _symmetry_equiv_pos_site_id
 _symmetry_equiv_pos_as_xyz
 1  'x, y, z'
loop_
 _atom_site_type_symbol
 _atom_site_label
 _atom_site_symmetry_multiplicity
 _atom_site_fract_x
 _atom_site_fract_y
 _atom_site_fract_z
 _atom_site_fract_occupancy
 Ca  Ca1  1  0.25000  0.25000  0.25000  1
 Ca  Ca2  1  0.75000  0.75000  0.75000  1
 Ir  Ir1  1  0.00000  0.00000  0.00000  1
 Ir  Ir2  1  0.50000  0.50000  0.50000  1
 O  O1  1  0.91759  0.71310  0.05054  1
 O  O2  1  0.71310  0.05054  0.91759  1
 O  O3  1  0.28690  0.94946  0.08241  1
 O  O4  1  0.41759  0.55054  0.21310  1
 O  O5  1  0.44946  0.78690  0.58241  1
 O  O6  1  0.21310  0.41759  0.55054  1
 O  O7  1  0.55054  0.21310  0.41759  1
 O  O8  1  0.94946  0.08241  0.28690  1
 O  O9  1  0.78690  0.58241  0.44946  1
 O  O10  1  0.05054  0.91759  0.71310  1
 O  O11  1  0.58241  0.44946  0.78690  1
 O  O12  1  0.08241  0.28690  0.94946  1
 Sr  Sr1  1  0.25000  0.61445  0.88555  1
 Sr  Sr2  1  0.38555  0.11445  0.75000  1
 Sr  Sr3  1  0.11445  0.75000  0.38555  1
 Sr  Sr4  1  0.88555  0.25000  0.61445  1
 Sr  Sr5  1  0.61445  0.88555  0.25000  1
 Sr  Sr6  1  0.75000  0.38555  0.11445  1
