CIF file written using JARVIS-Tools package.
data_LiSbS2
_symmetry_space_group_name_H-M  'C2/c'
_cell_length_a       7.88563
_cell_length_b       10.3611
_cell_length_c       6.7525
_cell_angle_alpha    29.2513
_cell_angle_beta     54.2743
_cell_angle_gamma    40.4406

_symmetry_Int_Tables_number  15
_chemical_formula_structural  LiSbS2
_chemical_formula_sum  Li2Sb2S4
_cell_volume  169.18912705894596
_cell_formula_units_Z  2
loop_
  _symmetry_equiv_pos_site_id
 _symmetry_equiv_pos_as_xyz
 1  'x, y, z'
loop_
 _atom_site_type_symbol
 _atom_site_label
 _atom_site_symmetry_multiplicity
 _atom_site_fract_x
 _atom_site_fract_y
 _atom_site_fract_z
 _atom_site_fract_occupancy
 Li  Li1  1  0.25288  0.50000  -0.00000  1
 Li  Li2  1  0.49712  0.00000  0.00000  1
 S  S1  1  0.52489  0.47930  0.52861  1
 S  S2  1  0.22511  0.02070  0.47139  1
 S  S3  1  0.01211  0.52070  0.47139  1
 S  S4  1  0.73789  -0.02070  0.52861  1
 Sb  Sb1  1  -0.01769  0.00000  0.00000  1
 Sb  Sb2  1  0.76769  0.50000  -0.00000  1
