CIF file written using JARVIS-Tools package.
data_V12P7
_symmetry_space_group_name_H-M  'P-6'
_cell_length_a       9.34602
_cell_length_b       9.34602
_cell_length_c       3.23615
_cell_angle_alpha    90
_cell_angle_beta     90
_cell_angle_gamma    120

_symmetry_Int_Tables_number  174
_chemical_formula_structural  V12P7
_chemical_formula_sum  V2P7
_cell_volume  244.80061058311546
_cell_formula_units_Z  1
loop_
  _symmetry_equiv_pos_site_id
 _symmetry_equiv_pos_as_xyz
 1  'x, y, z'
loop_
 _atom_site_type_symbol
 _atom_site_label
 _atom_site_symmetry_multiplicity
 _atom_site_fract_x
 _atom_site_fract_y
 _atom_site_fract_z
 _atom_site_fract_occupancy
 P  P1  1  0.70835  0.53822  0.50000  1
 P  P2  1  0.46178  0.17013  0.50000  1
 P  P3  1  0.55820  0.84343  0.00000  1
 P  P4  1  0.15657  0.71477  0.00000  1
 P  P5  1  0.28523  0.44180  0.00000  1
 P  P6  1  0.82987  0.29165  0.50000  1
 P  P7  1  0.00000  0.00000  0.00000  1
 V  V1  1  0.37737  0.86718  0.50000  1
 V  V2  1  0.13282  0.51018  0.50000  1
 V  V3  1  0.19802  0.20250  0.50000  1
 V  V4  1  0.26488  0.01251  0.00000  1
 V  V5  1  0.98749  0.25237  0.00000  1
 V  V6  1  0.79750  0.99552  0.50000  1
 V  V7  1  0.62709  0.13050  0.00000  1
 V  V8  1  0.50340  0.37291  0.00000  1
 V  V9  1  0.86950  0.49660  0.00000  1
 V  V10  1  0.74763  0.73512  0.00000  1
 V  V11  1  0.48982  0.62263  0.50000  1
 V  V12  1  0.00448  0.80198  0.50000  1
