CIF file written using JARVIS-Tools package.
data_AlTlF4
_symmetry_space_group_name_H-M  'P4/mmm'
_cell_length_a       3.67472
_cell_length_b       3.67472
_cell_length_c       6.36042
_cell_angle_alpha    90
_cell_angle_beta     90
_cell_angle_gamma    90

_symmetry_Int_Tables_number  123
_chemical_formula_structural  AlTlF4
_chemical_formula_sum  AlTlF4
_cell_volume  85.88825156156213
_cell_formula_units_Z  1
loop_
  _symmetry_equiv_pos_site_id
 _symmetry_equiv_pos_as_xyz
 1  'x, y, z'
loop_
 _atom_site_type_symbol
 _atom_site_label
 _atom_site_symmetry_multiplicity
 _atom_site_fract_x
 _atom_site_fract_y
 _atom_site_fract_z
 _atom_site_fract_occupancy
 Al  Al1  1  0.00000  0.00000  0.00000  1
 F  F1  1  0.00000  0.00000  0.71801  1
 F  F2  1  0.00000  0.00000  0.28199  1
 F  F3  1  0.50000  0.00000  0.00000  1
 F  F4  1  0.00000  0.50000  0.00000  1
 Tl  Tl1  1  0.50000  0.50000  0.50000  1
