CIF file written using JARVIS-Tools package.
data_AgBrO4
_symmetry_space_group_name_H-M  'I4_1/a'
_cell_length_a       7.23319
_cell_length_b       7.23319
_cell_length_c       7.23319
_cell_angle_alpha    138.523
_cell_angle_beta     138.523
_cell_angle_gamma    60.1024

_symmetry_Int_Tables_number  88
_chemical_formula_structural  AgBrO4
_chemical_formula_sum  Ag2Br2O8
_cell_volume  164.2890255670806
_cell_formula_units_Z  2
loop_
  _symmetry_equiv_pos_site_id
 _symmetry_equiv_pos_as_xyz
 1  'x, y, z'
loop_
 _atom_site_type_symbol
 _atom_site_label
 _atom_site_symmetry_multiplicity
 _atom_site_fract_x
 _atom_site_fract_y
 _atom_site_fract_z
 _atom_site_fract_occupancy
 Ag  Ag1  1  0.00000  0.00000  0.00000  1
 Ag  Ag2  1  0.75000  0.25000  0.50000  1
 Br  Br1  1  0.50000  0.50000  0.00000  1
 Br  Br2  1  0.25000  0.75000  0.50000  1
 O  O1  1  0.66364  0.29265  0.10312  1
 O  O2  1  0.56047  0.68948  0.60312  1
 O  O3  1  0.31052  0.91364  0.87099  1
 O  O4  1  0.70735  0.81047  0.37099  1
 O  O5  1  0.43948  0.33636  0.62901  1
 O  O6  1  0.04265  0.43953  0.12901  1
 O  O7  1  0.08636  0.95735  0.39688  1
 O  O8  1  0.18953  0.56052  0.89688  1
