CIF file written using JARVIS-Tools package.
data_NaHS
_symmetry_space_group_name_H-M  'P2_1/m'
_cell_length_a       3.89852
_cell_length_b       4.46469
_cell_length_c       5.93218
_cell_angle_alpha    90
_cell_angle_beta     99.9314
_cell_angle_gamma    90

_symmetry_Int_Tables_number  11
_chemical_formula_structural  NaHS
_chemical_formula_sum  Na2H2S2
_cell_volume  101.70632689509308
_cell_formula_units_Z  2
loop_
  _symmetry_equiv_pos_site_id
 _symmetry_equiv_pos_as_xyz
 1  'x, y, z'
loop_
 _atom_site_type_symbol
 _atom_site_label
 _atom_site_symmetry_multiplicity
 _atom_site_fract_x
 _atom_site_fract_y
 _atom_site_fract_z
 _atom_site_fract_occupancy
 H  H1  1  0.44666  0.75000  0.60529  1
 H  H2  1  0.55334  0.25000  0.39471  1
 Na  Na1  1  0.76359  0.75000  0.23271  1
 Na  Na2  1  0.23641  0.25000  0.76729  1
 S  S1  1  0.75623  0.75000  0.74921  1
 S  S2  1  0.24377  0.25000  0.25079  1
