CIF file written using JARVIS-Tools package.
data_MoO3
_symmetry_space_group_name_H-M  'Pc'
_cell_length_a       5.30415
_cell_length_b       5.3832
_cell_length_c       7.55427
_cell_angle_alpha    89.9949
_cell_angle_beta     89.5142
_cell_angle_gamma    89.9787

_symmetry_Int_Tables_number  7
_chemical_formula_structural  MoO3
_chemical_formula_sum  Mo4O2
_cell_volume  215.69123450326762
_cell_formula_units_Z  4
loop_
  _symmetry_equiv_pos_site_id
 _symmetry_equiv_pos_as_xyz
 1  'x, y, z'
loop_
 _atom_site_type_symbol
 _atom_site_label
 _atom_site_symmetry_multiplicity
 _atom_site_fract_x
 _atom_site_fract_y
 _atom_site_fract_z
 _atom_site_fract_occupancy
 Mo  Mo1  1  0.47278  0.00501  0.97480  1
 Mo  Mo2  1  0.95705  0.49043  0.99069  1
 Mo  Mo3  1  0.97284  0.49481  0.47480  1
 Mo  Mo4  1  0.45704  0.00948  0.49069  1
 O  O1  1  0.29942  0.29198  0.54422  1
 O  O2  1  0.80088  0.21325  0.46766  1
 O  O3  1  0.22403  0.78885  0.96872  1
 O  O4  1  0.71991  0.71058  0.04373  1
 O  O5  1  0.72413  0.71127  0.46853  1
 O  O6  1  0.21991  0.78948  0.54348  1
 O  O7  1  0.79943  0.20804  0.04398  1
 O  O8  1  0.30089  0.28680  0.96745  1
 O  O9  1  0.93807  0.48941  0.75788  1
 O  O10  1  0.43813  0.01108  0.25787  1
 O  O11  1  0.08780  0.51095  0.25274  1
 O  O12  1  0.58772  0.98858  0.75275  1
