CIF file written using JARVIS-Tools package.
data_K2TaCuSe4
_symmetry_space_group_name_H-M  'Fddd'
_cell_length_a       5.76003
_cell_length_b       7.31925
_cell_length_c       12.2733
_cell_angle_alpha    84.7021
_cell_angle_beta     76.4286
_cell_angle_gamma    66.8285

_symmetry_Int_Tables_number  70
_chemical_formula_structural  K2TaCuSe4
_chemical_formula_sum  K4Ta2Cu2Se8
_cell_volume  462.40896453275155
_cell_formula_units_Z  2
loop_
  _symmetry_equiv_pos_site_id
 _symmetry_equiv_pos_as_xyz
 1  'x, y, z'
loop_
 _atom_site_type_symbol
 _atom_site_label
 _atom_site_symmetry_multiplicity
 _atom_site_fract_x
 _atom_site_fract_y
 _atom_site_fract_z
 _atom_site_fract_occupancy
 Cu  Cu1  1  0.87500  0.25000  0.25000  1
 Cu  Cu2  1  0.12500  0.75000  0.75000  1
 K  K1  1  0.80491  0.75000  0.39018  1
 K  K2  1  0.44509  0.75000  0.10982  1
 K  K3  1  0.19509  0.25000  0.60982  1
 K  K4  1  0.55491  0.25000  0.89018  1
 Se  Se1  1  0.45344  0.45991  0.36650  1
 Se  Se2  1  0.22015  0.95991  0.86650  1
 Se  Se3  1  0.91335  0.54009  0.86650  1
 Se  Se4  1  0.81994  0.95991  0.63350  1
 Se  Se5  1  0.08665  0.45991  0.13350  1
 Se  Se6  1  0.18006  0.04009  0.36650  1
 Se  Se7  1  0.54656  0.54009  0.63350  1
 Se  Se8  1  0.77985  0.04009  0.13350  1
 Ta  Ta1  1  0.62500  0.75000  0.75000  1
 Ta  Ta2  1  0.37500  0.25000  0.25000  1
