CIF file written using JARVIS-Tools package.
data_Sr6Li23
_symmetry_space_group_name_H-M  'Fm-3m'
_cell_length_a       10.3553
_cell_length_b       10.3553
_cell_length_c       10.3553
_cell_angle_alpha    60
_cell_angle_beta     60
_cell_angle_gamma    60

_symmetry_Int_Tables_number  225
_chemical_formula_structural  Sr6Li23
_chemical_formula_sum  Sr6Li23
_cell_volume  785.1903396793109
_cell_formula_units_Z  1
loop_
  _symmetry_equiv_pos_site_id
 _symmetry_equiv_pos_as_xyz
 1  'x, y, z'
loop_
 _atom_site_type_symbol
 _atom_site_label
 _atom_site_symmetry_multiplicity
 _atom_site_fract_x
 _atom_site_fract_y
 _atom_site_fract_z
 _atom_site_fract_occupancy
 Li  Li1  1  0.50000  0.50000  0.50000  1
 Li  Li2  1  0.50000  0.00000  0.00000  1
 Li  Li3  1  0.00000  0.00000  0.50000  1
 Li  Li4  1  0.50000  0.50000  0.00000  1
 Li  Li5  1  -0.00000  0.50000  0.50000  1
 Li  Li6  1  -0.00000  0.50000  0.00000  1
 Li  Li7  1  0.50000  0.00000  0.50000  1
 Li  Li8  1  0.37810  0.37810  0.37810  1
 Li  Li9  1  0.62190  0.62190  0.13429  1
 Li  Li10  1  0.13429  0.62190  0.62190  1
 Li  Li11  1  0.62190  0.13429  0.62190  1
 Li  Li12  1  0.86571  0.37810  0.37810  1
 Li  Li13  1  0.37810  0.86571  0.37810  1
 Li  Li14  1  0.37810  0.37810  0.86571  1
 Li  Li15  1  0.62190  0.62190  0.62190  1
 Li  Li16  1  0.82246  0.82246  0.53262  1
 Li  Li17  1  0.53262  0.82246  0.82246  1
 Li  Li18  1  0.82246  0.53262  0.82246  1
 Li  Li19  1  0.46738  0.17754  0.17754  1
 Li  Li20  1  0.17754  0.46738  0.17754  1
 Li  Li21  1  0.17754  0.17754  0.46738  1
 Li  Li22  1  0.82246  0.82246  0.82246  1
 Li  Li23  1  0.17754  0.17754  0.17754  1
 Sr  Sr1  1  0.20537  0.79463  0.20537  1
 Sr  Sr2  1  0.79463  0.20537  0.20537  1
 Sr  Sr3  1  0.79463  0.79463  0.20537  1
 Sr  Sr4  1  0.20537  0.20537  0.79463  1
 Sr  Sr5  1  0.79463  0.20537  0.79463  1
 Sr  Sr6  1  0.20537  0.79463  0.79463  1
