CIF file written using JARVIS-Tools package.
data_PtF4
_symmetry_space_group_name_H-M  'Fdd2'
_cell_length_a       5.46667
_cell_length_b       5.46668
_cell_length_c       5.61462
_cell_angle_alpha    105.198
_cell_angle_beta     105.198
_cell_angle_gamma    117.484

_symmetry_Int_Tables_number  43
_chemical_formula_structural  PtF4
_chemical_formula_sum  Pt2F8
_cell_volume  128.45907057242752
_cell_formula_units_Z  2
loop_
  _symmetry_equiv_pos_site_id
 _symmetry_equiv_pos_as_xyz
 1  'x, y, z'
loop_
 _atom_site_type_symbol
 _atom_site_label
 _atom_site_symmetry_multiplicity
 _atom_site_fract_x
 _atom_site_fract_y
 _atom_site_fract_z
 _atom_site_fract_occupancy
 F  F1  1  0.98388  0.74127  0.17003  1
 F  F2  1  0.57124  0.81385  0.82997  1
 F  F3  1  0.05465  0.31174  0.32827  1
 F  F4  1  0.98348  0.72638  0.67173  1
 F  F5  1  0.06174  0.30465  0.82827  1
 F  F6  1  0.47638  0.23348  0.17173  1
 F  F7  1  0.56385  0.82124  0.32997  1
 F  F8  1  0.49127  0.23388  0.67003  1
 Pt  Pt1  1  0.75476  0.25476  0.50000  1
 Pt  Pt2  1  0.00476  0.00476  0.00000  1
