CIF file written using JARVIS-Tools package.
data_Ba2ScIrO6
_symmetry_space_group_name_H-M  'Fm-3m'
_cell_length_a       5.80461
_cell_length_b       5.80466
_cell_length_c       10.0537
_cell_angle_alpha    90
_cell_angle_beta     125.263
_cell_angle_gamma    90

_symmetry_Int_Tables_number  225
_chemical_formula_structural  Ba2ScIrO6
_chemical_formula_sum  Ba4Sc2Ir2O2
_cell_volume  276.5904755895482
_cell_formula_units_Z  2
loop_
  _symmetry_equiv_pos_site_id
 _symmetry_equiv_pos_as_xyz
 1  'x, y, z'
loop_
 _atom_site_type_symbol
 _atom_site_label
 _atom_site_symmetry_multiplicity
 _atom_site_fract_x
 _atom_site_fract_y
 _atom_site_fract_z
 _atom_site_fract_occupancy
 Ba  Ba1  1  0.25000  0.50002  0.74999  1
 Ba  Ba2  1  0.75000  0.49998  0.25001  1
 Ba  Ba3  1  0.75000  0.00002  0.75001  1
 Ba  Ba4  1  0.25000  -0.00002  0.24999  1
 Ir  Ir1  1  0.50000  0.00000  0.00000  1
 Ir  Ir2  1  0.50000  0.50000  0.50000  1
 O  O1  1  0.74336  0.49999  0.74339  1
 O  O2  1  0.74341  0.24337  0.00001  1
 O  O3  1  0.25664  0.50001  0.25661  1
 O  O4  1  0.74336  0.00001  0.24339  1
 O  O5  1  0.25664  -0.00001  0.75661  1
 O  O6  1  0.74340  0.75660  0.00003  1
 O  O7  1  0.25659  0.75663  -0.00001  1
 O  O8  1  0.25660  0.24340  0.99997  1
 O  O9  1  0.25660  0.25660  0.49997  1
 O  O10  1  0.74341  0.25663  0.50001  1
 O  O11  1  0.74340  0.74340  0.50003  1
 O  O12  1  0.25659  0.74337  0.49999  1
 Sc  Sc1  1  -0.00000  0.00000  0.50000  1
 Sc  Sc2  1  0.00000  0.50000  0.00000  1
