CIF file written using JARVIS-Tools package.
data_KAuS5
_symmetry_space_group_name_H-M  'Ibam'
_cell_length_a       8.20361
_cell_length_b       10.3662
_cell_length_c       10.3661
_cell_angle_alpha    62.6938
_cell_angle_beta     66.6908
_cell_angle_gamma    66.6908

_symmetry_Int_Tables_number  72
_chemical_formula_structural  KAuS5
_chemical_formula_sum  K4Au4S20
_cell_volume  694.1570332295631
_cell_formula_units_Z  4
loop_
  _symmetry_equiv_pos_site_id
 _symmetry_equiv_pos_as_xyz
 1  'x, y, z'
loop_
 _atom_site_type_symbol
 _atom_site_label
 _atom_site_symmetry_multiplicity
 _atom_site_fract_x
 _atom_site_fract_y
 _atom_site_fract_z
 _atom_site_fract_occupancy
 Au  Au1  1  0.25000  0.38840  0.11160  1
 Au  Au2  1  0.75000  0.61160  0.88840  1
 Au  Au3  1  0.75000  0.88840  0.61160  1
 Au  Au4  1  0.25000  0.11160  0.38840  1
 K  K1  1  0.00000  0.50000  0.50000  1
 K  K2  1  0.50000  0.00000  0.00000  1
 K  K3  1  0.25000  0.75000  0.75000  1
 K  K4  1  0.75000  0.25000  0.25000  1
 S  S1  1  0.39682  0.21953  0.56728  1
 S  S2  1  0.68363  0.28047  0.93272  1
 S  S3  1  0.10318  0.93272  0.28047  1
 S  S4  1  0.89682  0.06728  0.71953  1
 S  S5  1  0.60318  0.78047  0.43272  1
 S  S6  1  0.31637  0.71953  0.06728  1
 S  S7  1  0.44220  0.99408  0.71167  1
 S  S8  1  0.81637  0.56728  0.21953  1
 S  S9  1  0.64795  0.50592  0.78833  1
 S  S10  1  0.94220  0.21167  0.49408  1
 S  S11  1  0.85205  0.71167  0.99408  1
 S  S12  1  0.18363  0.43272  0.78047  1
 S  S13  1  0.55780  0.00592  0.28833  1
 S  S14  1  0.14795  0.28833  0.00592  1
 S  S15  1  0.44052  0.34263  0.65737  1
 S  S16  1  0.94052  0.15737  0.84263  1
 S  S17  1  0.05948  0.84263  0.15737  1
 S  S18  1  0.55948  0.65737  0.34263  1
 S  S19  1  0.05780  0.78833  0.50592  1
 S  S20  1  0.35205  0.49408  0.21167  1
