CIF file written using JARVIS-Tools package.
data_RuF4
_symmetry_space_group_name_H-M  'P2_1/c'
_cell_length_a       5.51152
_cell_length_b       4.95821
_cell_length_c       5.32595
_cell_angle_alpha    90.0026
_cell_angle_beta     119.951
_cell_angle_gamma    89.9973

_symmetry_Int_Tables_number  14
_chemical_formula_structural  RuF4
_chemical_formula_sum  Ru2F8
_cell_volume  126.10731501045916
_cell_formula_units_Z  2
loop_
  _symmetry_equiv_pos_site_id
 _symmetry_equiv_pos_as_xyz
 1  'x, y, z'
loop_
 _atom_site_type_symbol
 _atom_site_label
 _atom_site_symmetry_multiplicity
 _atom_site_fract_x
 _atom_site_fract_y
 _atom_site_fract_z
 _atom_site_fract_occupancy
 F  F1  1  0.12656  0.66505  0.23675  1
 F  F2  1  0.62593  0.63816  0.26038  1
 F  F3  1  0.87407  0.13818  0.23964  1
 F  F4  1  0.37345  0.16503  0.26324  1
 F  F5  1  0.62655  0.83497  0.73676  1
 F  F6  1  0.12593  0.86182  0.76036  1
 F  F7  1  0.37407  0.36184  0.73963  1
 F  F8  1  0.87344  0.33496  0.76325  1
 Ru  Ru1  1  0.00000  0.00000  0.00000  1
 Ru  Ru2  1  0.50000  0.50000  0.50000  1
