CIF file written using JARVIS-Tools package.
data_HoP5
_symmetry_space_group_name_H-M  'P2_1/m'
_cell_length_a       4.93875
_cell_length_b       9.43595
_cell_length_c       5.35991
_cell_angle_alpha    90
_cell_angle_beta     102.544
_cell_angle_gamma    90

_symmetry_Int_Tables_number  11
_chemical_formula_structural  HoP5
_chemical_formula_sum  Ho2P0
_cell_volume  243.81865148610063
_cell_formula_units_Z  2
loop_
  _symmetry_equiv_pos_site_id
 _symmetry_equiv_pos_as_xyz
 1  'x, y, z'
loop_
 _atom_site_type_symbol
 _atom_site_label
 _atom_site_symmetry_multiplicity
 _atom_site_fract_x
 _atom_site_fract_y
 _atom_site_fract_z
 _atom_site_fract_occupancy
 Ho  Ho1  1  0.99380  0.25000  0.65132  1
 Ho  Ho2  1  0.00620  0.75000  0.34868  1
 P  P1  1  0.72642  0.25000  0.10605  1
 P  P2  1  0.27358  0.75000  0.89395  1
 P  P3  1  0.38169  0.40740  0.04185  1
 P  P4  1  0.61831  0.90740  0.95815  1
 P  P5  1  0.61831  0.59260  0.95815  1
 P  P6  1  0.38169  0.09260  0.04185  1
 P  P7  1  0.28331  0.47047  0.40405  1
 P  P8  1  0.71669  0.97047  0.59595  1
 P  P9  1  0.71669  0.52953  0.59595  1
 P  P10  1  0.28331  0.02953  0.40405  1
