CIF file written using JARVIS-Tools package.
data_YbP2Ru2
_symmetry_space_group_name_H-M  'I4/mmm'
_cell_length_a       4.07323
_cell_length_b       4.07323
_cell_length_c       5.59112
_cell_angle_alpha    111.362
_cell_angle_beta     111.362
_cell_angle_gamma    90

_symmetry_Int_Tables_number  139
_chemical_formula_structural  YbP2Ru2
_chemical_formula_sum  YbP2Ru2
_cell_volume  79.50802817177033
_cell_formula_units_Z  1
loop_
  _symmetry_equiv_pos_site_id
 _symmetry_equiv_pos_as_xyz
 1  'x, y, z'
loop_
 _atom_site_type_symbol
 _atom_site_label
 _atom_site_symmetry_multiplicity
 _atom_site_fract_x
 _atom_site_fract_y
 _atom_site_fract_z
 _atom_site_fract_occupancy
 P  P1  1  0.37076  0.37076  0.74153  1
 P  P2  1  0.62924  0.62924  0.25847  1
 Ru  Ru1  1  0.75000  0.25000  0.50000  1
 Ru  Ru2  1  0.25000  0.75000  0.50000  1
 Yb  Yb1  1  0.00000  0.00000  0.00000  1
