CIF file written using JARVIS-Tools package.
data_InBr3
_symmetry_space_group_name_H-M  'C2/m'
_cell_length_a       6.69633
_cell_length_b       6.78475
_cell_length_c       6.78173
_cell_angle_alpha    59.9852
_cell_angle_beta     80.4905
_cell_angle_gamma    70.7145

_symmetry_Int_Tables_number  12
_chemical_formula_structural  InBr3
_chemical_formula_sum  In2Br6
_cell_volume  251.82380236234485
_cell_formula_units_Z  2
loop_
  _symmetry_equiv_pos_site_id
 _symmetry_equiv_pos_as_xyz
 1  'x, y, z'
loop_
 _atom_site_type_symbol
 _atom_site_label
 _atom_site_symmetry_multiplicity
 _atom_site_fract_x
 _atom_site_fract_y
 _atom_site_fract_z
 _atom_site_fract_occupancy
 Br  Br1  1  0.24998  0.76572  -0.00000  1
 Br  Br2  1  0.75362  0.92470  0.65567  1
 Br  Br3  1  0.75002  0.23428  0.00000  1
 Br  Br4  1  0.24638  0.07530  0.34433  1
 Br  Br5  1  0.75362  0.58036  0.34433  1
 Br  Br6  1  0.24638  0.41964  0.65567  1
 In  In1  1  -0.00000  0.83345  0.33309  1
 In  In2  1  0.00000  0.16655  0.66691  1
