CIF file written using JARVIS-Tools package.
data_K3BP2
_symmetry_space_group_name_H-M  'C2/c'
_cell_length_a       6.40217
_cell_length_b       6.40217
_cell_length_c       8.97895
_cell_angle_alpha    74.6873
_cell_angle_beta     74.6873
_cell_angle_gamma    86.9456

_symmetry_Int_Tables_number  15
_chemical_formula_structural  K3BP2
_chemical_formula_sum  K6B2P4
_cell_volume  342.3066952618833
_cell_formula_units_Z  2
loop_
  _symmetry_equiv_pos_site_id
 _symmetry_equiv_pos_as_xyz
 1  'x, y, z'
loop_
 _atom_site_type_symbol
 _atom_site_label
 _atom_site_symmetry_multiplicity
 _atom_site_fract_x
 _atom_site_fract_y
 _atom_site_fract_z
 _atom_site_fract_occupancy
 B  B1  1  0.28378  0.71622  0.25000  1
 B  B2  1  0.71622  0.28378  0.75000  1
 K  K1  1  0.65314  0.34686  0.25000  1
 K  K2  1  0.34686  0.65314  0.75000  1
 K  K3  1  0.25347  0.15254  0.01749  1
 K  K4  1  0.84746  0.74653  0.48251  1
 K  K5  1  0.74653  0.84746  0.98251  1
 K  K6  1  0.15254  0.25347  0.51749  1
 P  P1  1  0.40805  0.85058  0.35469  1
 P  P2  1  0.14942  0.59195  0.14531  1
 P  P3  1  0.85058  0.40805  0.85469  1
 P  P4  1  0.59195  0.14942  0.64531  1
