CIF file written using JARVIS-Tools package.
data_CoO2
_symmetry_space_group_name_H-M  'C2/m'
_cell_length_a       2.84738
_cell_length_b       6.86429
_cell_length_c       6.85105
_cell_angle_alpha    87.3202
_cell_angle_beta     78.0064
_cell_angle_gamma    78.0296

_symmetry_Int_Tables_number  12
_chemical_formula_structural  CoO2
_chemical_formula_sum  Co4O8
_cell_volume  128.1330031636318
_cell_formula_units_Z  4
loop_
  _symmetry_equiv_pos_site_id
 _symmetry_equiv_pos_as_xyz
 1  'x, y, z'
loop_
 _atom_site_type_symbol
 _atom_site_label
 _atom_site_symmetry_multiplicity
 _atom_site_fract_x
 _atom_site_fract_y
 _atom_site_fract_z
 _atom_site_fract_occupancy
 Co  Co1  1  0.83106  0.81642  0.51640  1
 Co  Co2  1  0.64698  0.51638  0.18460  1
 Co  Co3  1  0.34708  0.48325  0.81754  1
 Co  Co4  1  0.16299  0.18322  0.48574  1
 O  O1  1  0.53997  0.29452  0.62047  1
 O  O2  1  0.83691  0.61699  0.70413  1
 O  O3  1  0.15714  0.38265  0.29801  1
 O  O4  1  0.45408  0.70511  0.38166  1
 O  O5  1  0.19976  0.95131  0.64412  1
 O  O6  1  0.15219  0.64294  0.04762  1
 O  O7  1  0.79430  0.04833  0.35801  1
 O  O8  1  0.84186  0.35670  0.95452  1
