CIF file written using JARVIS-Tools package.
data_TlTe3Mo3
_symmetry_space_group_name_H-M  'P6_3/m'
_cell_length_a       9.6303
_cell_length_b       9.6303
_cell_length_c       4.60951
_cell_angle_alpha    90
_cell_angle_beta     90
_cell_angle_gamma    120

_symmetry_Int_Tables_number  176
_chemical_formula_structural  TlTe3Mo3
_chemical_formula_sum  Tl2Te6Mo6
_cell_volume  370.22502507452515
_cell_formula_units_Z  2
loop_
  _symmetry_equiv_pos_site_id
 _symmetry_equiv_pos_as_xyz
 1  'x, y, z'
loop_
 _atom_site_type_symbol
 _atom_site_label
 _atom_site_symmetry_multiplicity
 _atom_site_fract_x
 _atom_site_fract_y
 _atom_site_fract_z
 _atom_site_fract_occupancy
 Mo  Mo1  1  0.85693  0.02808  0.25000  1
 Mo  Mo2  1  0.82885  0.85693  0.75000  1
 Mo  Mo3  1  0.02808  0.17115  0.75000  1
 Mo  Mo4  1  0.97192  0.82885  0.25000  1
 Mo  Mo5  1  0.17115  0.14307  0.25000  1
 Mo  Mo6  1  0.14307  0.97192  0.75000  1
 Te  Te1  1  0.63224  0.69263  0.25000  1
 Te  Te2  1  0.93961  0.63224  0.75000  1
 Te  Te3  1  0.69263  0.06039  0.75000  1
 Te  Te4  1  0.30737  0.93961  0.25000  1
 Te  Te5  1  0.06039  0.36776  0.25000  1
 Te  Te6  1  0.36776  0.30737  0.75000  1
 Tl  Tl1  1  0.66667  0.33333  0.25000  1
 Tl  Tl2  1  0.33333  0.66667  0.75000  1
