CIF file written using JARVIS-Tools package.
data_AlH2PbO2F3
_symmetry_space_group_name_H-M  'P-1'
_cell_length_a       6.3331
_cell_length_b       6.89884
_cell_length_c       5.0388
_cell_angle_alpha    90.5655
_cell_angle_beta     108.097
_cell_angle_gamma    104.768

_symmetry_Int_Tables_number  2
_chemical_formula_structural  AlH2PbO2F3
_chemical_formula_sum  Al2H4Pb2O4F6
_cell_volume  201.3964534333568
_cell_formula_units_Z  2
loop_
  _symmetry_equiv_pos_site_id
 _symmetry_equiv_pos_as_xyz
 1  'x, y, z'
loop_
 _atom_site_type_symbol
 _atom_site_label
 _atom_site_symmetry_multiplicity
 _atom_site_fract_x
 _atom_site_fract_y
 _atom_site_fract_z
 _atom_site_fract_occupancy
 Al  Al1  1  0.18940  0.67275  0.16007  1
 Al  Al2  1  0.81060  0.32725  0.83993  1
 F  F1  1  0.26486  0.51113  0.44582  1
 F  F2  1  0.78436  0.13504  0.56791  1
 F  F3  1  0.21564  0.86496  0.43209  1
 F  F4  1  0.49271  0.76638  0.18988  1
 F  F5  1  0.73514  0.48887  0.55418  1
 F  F6  1  0.50729  0.23362  0.81012  1
 H  H1  1  0.85480  0.14172  0.27635  1
 H  H2  1  0.14520  0.85828  0.72365  1
 H  H3  1  0.81725  0.53115  0.27263  1
 H  H4  1  0.18275  0.46885  0.72737  1
 O  O1  1  0.10459  0.85763  0.89854  1
 O  O2  1  0.13435  0.44762  0.89687  1
 O  O3  1  0.86565  0.55238  0.10313  1
 O  O4  1  0.89541  0.14237  0.10146  1
 Pb  Pb1  1  0.68809  0.80687  0.79599  1
 Pb  Pb2  1  0.31191  0.19313  0.20401  1
