CIF file written using JARVIS-Tools package.
data_ZnB2Ir2
_symmetry_space_group_name_H-M  'I4/mmm'
_cell_length_a       3.01007
_cell_length_b       3.01007
_cell_length_c       6.66437
_cell_angle_alpha    103.052
_cell_angle_beta     103.052
_cell_angle_gamma    90

_symmetry_Int_Tables_number  139
_chemical_formula_structural  ZnB2Ir2
_chemical_formula_sum  ZnB2Ir2
_cell_volume  57.22038265203888
_cell_formula_units_Z  1
loop_
  _symmetry_equiv_pos_site_id
 _symmetry_equiv_pos_as_xyz
 1  'x, y, z'
loop_
 _atom_site_type_symbol
 _atom_site_label
 _atom_site_symmetry_multiplicity
 _atom_site_fract_x
 _atom_site_fract_y
 _atom_site_fract_z
 _atom_site_fract_occupancy
 B  B1  1  0.75000  0.25000  0.50000  1
 B  B2  1  0.25000  0.75000  0.50000  1
 Ir  Ir1  1  0.37263  0.37263  0.74526  1
 Ir  Ir2  1  0.62737  0.62737  0.25474  1
 Zn  Zn1  1  0.00000  0.00000  0.00000  1
