CIF file written using JARVIS-Tools package.
data_CaC2
_symmetry_space_group_name_H-M  'Immm'
_cell_length_a       3.7645
_cell_length_b       4.86918
_cell_length_c       5.32902
_cell_angle_alpha    90
_cell_angle_beta     90
_cell_angle_gamma    90

_symmetry_Int_Tables_number  71
_chemical_formula_structural  CaC2
_chemical_formula_sum  Ca2C4
_cell_volume  97.6810279439003
_cell_formula_units_Z  2
loop_
  _symmetry_equiv_pos_site_id
 _symmetry_equiv_pos_as_xyz
 1  'x, y, z'
loop_
 _atom_site_type_symbol
 _atom_site_label
 _atom_site_symmetry_multiplicity
 _atom_site_fract_x
 _atom_site_fract_y
 _atom_site_fract_z
 _atom_site_fract_occupancy
 C  C1  1  0.00000  0.87131  0.50000  1
 C  C2  1  0.50000  0.62869  0.00000  1
 C  C3  1  0.50000  0.37131  -0.00000  1
 C  C4  1  0.00000  0.12869  0.50000  1
 Ca  Ca1  1  0.00000  0.00000  0.00000  1
 Ca  Ca2  1  0.50000  0.50000  0.50000  1
