CIF file written using JARVIS-Tools package.
data_Yb2S3
_symmetry_space_group_name_H-M  'C2/c'
_cell_length_a       9.83715
_cell_length_b       5.67954
_cell_length_c       7.35197
_cell_angle_alpha    117.663
_cell_angle_beta     131.993
_cell_angle_gamma    46.055

_symmetry_Int_Tables_number  15
_chemical_formula_structural  Yb2S3
_chemical_formula_sum  Yb4S6
_cell_volume  219.8069998715367
_cell_formula_units_Z  2
loop_
  _symmetry_equiv_pos_site_id
 _symmetry_equiv_pos_as_xyz
 1  'x, y, z'
loop_
 _atom_site_type_symbol
 _atom_site_label
 _atom_site_symmetry_multiplicity
 _atom_site_fract_x
 _atom_site_fract_y
 _atom_site_fract_z
 _atom_site_fract_occupancy
 S  S1  1  0.56765  0.82831  0.75737  1
 S  S2  1  0.88434  0.25000  0.76868  1
 S  S3  1  0.18972  0.67169  0.75738  1
 S  S4  1  0.43235  0.17169  0.24263  1
 S  S5  1  0.11566  0.75000  0.23132  1
 S  S6  1  0.81028  0.32831  0.24262  1
 Yb  Yb1  1  0.16573  0.19299  0.73222  1
 Yb  Yb2  1  0.83427  0.80701  0.26778  1
 Yb  Yb3  1  0.43350  0.69300  0.26778  1
 Yb  Yb4  1  0.56650  0.30700  0.73222  1
