CIF file written using JARVIS-Tools package.
data_Ba2UCuO6
_symmetry_space_group_name_H-M  'I4/mmm'
_cell_length_a       7.30065
_cell_length_b       7.29905
_cell_length_c       6.53119
_cell_angle_alpha    124.025
_cell_angle_beta     124.034
_cell_angle_gamma    89.9208

_symmetry_Int_Tables_number  139
_chemical_formula_structural  Ba2UCuO6
_chemical_formula_sum  Ba2UCuO6
_cell_volume  212.9891386994394
_cell_formula_units_Z  1
loop_
  _symmetry_equiv_pos_site_id
 _symmetry_equiv_pos_as_xyz
 1  'x, y, z'
loop_
 _atom_site_type_symbol
 _atom_site_label
 _atom_site_symmetry_multiplicity
 _atom_site_fract_x
 _atom_site_fract_y
 _atom_site_fract_z
 _atom_site_fract_occupancy
 Ba  Ba1  1  0.50000  0.00000  -0.00000  1
 Ba  Ba2  1  0.99999  0.50000  -0.00000  1
 Cu  Cu1  1  0.49999  0.50000  -0.00000  1
 O  O1  1  0.19655  0.19688  0.00000  1
 O  O2  1  0.19714  0.80319  -0.00000  1
 O  O3  1  0.71926  0.71926  0.43851  1
 O  O4  1  0.80345  0.80312  -0.00000  1
 O  O5  1  0.28075  0.28074  0.56149  1
 O  O6  1  0.80286  0.19681  0.00000  1
 U  U1  1  0.00000  -0.00000  0.00000  1
