CIF file written using JARVIS-Tools package.
data_Ba2Ti3O8
_symmetry_space_group_name_H-M  'Pmm2'
_cell_length_a       4.07852
_cell_length_b       3.90106
_cell_length_c       12.1144
_cell_angle_alpha    90
_cell_angle_beta     90
_cell_angle_gamma    90

_symmetry_Int_Tables_number  25
_chemical_formula_structural  Ba2Ti3O8
_chemical_formula_sum  Ba2Ti3O8
_cell_volume  192.74742854497438
_cell_formula_units_Z  1
loop_
  _symmetry_equiv_pos_site_id
 _symmetry_equiv_pos_as_xyz
 1  'x, y, z'
loop_
 _atom_site_type_symbol
 _atom_site_label
 _atom_site_symmetry_multiplicity
 _atom_site_fract_x
 _atom_site_fract_y
 _atom_site_fract_z
 _atom_site_fract_occupancy
 Ba  Ba1  1  0.50510  0.50000  0.82631  1
 Ba  Ba2  1  0.50510  0.50000  0.17369  1
 O  O1  1  0.46863  0.00000  0.66574  1
 O  O2  1  0.97919  0.50000  0.66218  1
 O  O3  1  0.02132  0.50000  0.00000  1
 O  O4  1  0.00387  0.00000  0.83219  1
 O  O5  1  0.46863  0.00000  0.33426  1
 O  O6  1  0.97919  0.50000  0.33782  1
 O  O7  1  0.00387  0.00000  0.16781  1
 O  O8  1  0.52840  0.00000  0.00000  1
 Ti  Ti1  1  0.02881  0.00000  0.67417  1
 Ti  Ti2  1  0.97907  0.00000  0.00000  1
 Ti  Ti3  1  0.02881  0.00000  0.32583  1
