CIF file written using JARVIS-Tools package.
data_Si3N4
_symmetry_space_group_name_H-M  'P31c'
_cell_length_a       7.81712
_cell_length_b       7.81712
_cell_length_c       5.66558
_cell_angle_alpha    90
_cell_angle_beta     90
_cell_angle_gamma    120

_symmetry_Int_Tables_number  159
_chemical_formula_structural  Si3N4
_chemical_formula_sum  Si2N6
_cell_volume  299.82582489100776
_cell_formula_units_Z  4
loop_
  _symmetry_equiv_pos_site_id
 _symmetry_equiv_pos_as_xyz
 1  'x, y, z'
loop_
 _atom_site_type_symbol
 _atom_site_label
 _atom_site_symmetry_multiplicity
 _atom_site_fract_x
 _atom_site_fract_y
 _atom_site_fract_z
 _atom_site_fract_occupancy
 N  N1  1  0.33333  0.66667  0.10464  1
 N  N2  1  0.61003  0.95446  0.43290  1
 N  N3  1  0.00000  0.00000  0.45396  1
 N  N4  1  0.34443  0.38997  0.43290  1
 N  N5  1  0.95446  0.61003  0.93290  1
 N  N6  1  0.65557  0.04554  0.93290  1
 N  N7  1  0.38997  0.34443  0.93290  1
 N  N8  1  0.04554  0.65557  0.43290  1
 N  N9  1  0.99643  0.31490  0.69938  1
 N  N10  1  0.00357  0.31847  0.19938  1
 N  N11  1  0.31490  0.99643  0.19938  1
 N  N12  1  0.68153  0.68510  0.19938  1
 N  N13  1  0.66667  0.33333  0.60464  1
 N  N14  1  0.00000  0.00000  0.95396  1
 N  N15  1  0.68510  0.68153  0.69938  1
 N  N16  1  0.31847  0.00357  0.69938  1
 Si  Si1  1  0.48786  0.91807  0.16008  1
 Si  Si2  1  0.56979  0.08193  0.66008  1
 Si  Si3  1  0.91807  0.48786  0.66008  1
 Si  Si4  1  0.43021  0.51214  0.16008  1
 Si  Si5  1  0.08193  0.56979  0.16008  1
 Si  Si6  1  0.91384  0.16728  0.95314  1
 Si  Si7  1  0.16728  0.91384  0.45314  1
 Si  Si8  1  0.08616  0.25344  0.45314  1
 Si  Si9  1  0.74656  0.83272  0.45314  1
 Si  Si10  1  0.25344  0.08616  0.95314  1
 Si  Si11  1  0.83272  0.74656  0.95314  1
 Si  Si12  1  0.51214  0.43021  0.66008  1
