CIF file written using JARVIS-Tools package.
data_Tb3BWO9
_symmetry_space_group_name_H-M  'P6_3'
_cell_length_a       8.524
_cell_length_b       8.524
_cell_length_c       5.38661
_cell_angle_alpha    90
_cell_angle_beta     90
_cell_angle_gamma    120

_symmetry_Int_Tables_number  173
_chemical_formula_structural  Tb3BWO9
_chemical_formula_sum  Tb6B2W2O8
_cell_volume  338.94729197388085
_cell_formula_units_Z  2
loop_
  _symmetry_equiv_pos_site_id
 _symmetry_equiv_pos_as_xyz
 1  'x, y, z'
loop_
 _atom_site_type_symbol
 _atom_site_label
 _atom_site_symmetry_multiplicity
 _atom_site_fract_x
 _atom_site_fract_y
 _atom_site_fract_z
 _atom_site_fract_occupancy
 B  B1  1  0.00000  0.00000  0.86556  1
 B  B2  1  0.00000  0.00000  0.36556  1
 O  O1  1  0.86741  0.48611  0.47984  1
 O  O2  1  0.46515  0.26791  0.03645  1
 O  O3  1  0.53485  0.73209  0.53645  1
 O  O4  1  0.94666  0.12793  0.35613  1
 O  O5  1  0.80276  0.53485  0.03645  1
 O  O6  1  0.18127  0.05334  0.35613  1
 O  O7  1  0.38130  0.86741  0.97984  1
 O  O8  1  0.87207  0.81873  0.35613  1
 O  O9  1  0.13259  0.51389  0.97984  1
 O  O10  1  0.26791  0.80276  0.53645  1
 O  O11  1  0.12793  0.18127  0.85613  1
 O  O12  1  0.81873  0.94666  0.85613  1
 O  O13  1  0.51389  0.38130  0.47984  1
 O  O14  1  0.61870  0.13259  0.47984  1
 O  O15  1  0.73209  0.19724  0.03645  1
 O  O16  1  0.19724  0.46515  0.53645  1
 O  O17  1  0.48611  0.61870  0.97984  1
 O  O18  1  0.05334  0.87207  0.85613  1
 Tb  Tb1  1  0.27442  0.35817  0.20177  1
 Tb  Tb2  1  0.08374  0.72558  0.20177  1
 Tb  Tb3  1  0.91626  0.27442  0.70177  1
 Tb  Tb4  1  0.64183  0.91626  0.20177  1
 Tb  Tb5  1  0.72558  0.64183  0.70177  1
 Tb  Tb6  1  0.35817  0.08374  0.70177  1
 W  W1  1  0.33333  0.66667  0.74506  1
 W  W2  1  0.66667  0.33333  0.24506  1
