CIF file written using JARVIS-Tools package.
data_Ta3Co3C
_symmetry_space_group_name_H-M  'Fd-3m'
_cell_length_a       7.98402
_cell_length_b       7.98402
_cell_length_c       7.98402
_cell_angle_alpha    60
_cell_angle_beta     60
_cell_angle_gamma    60

_symmetry_Int_Tables_number  227
_chemical_formula_structural  Ta3Co3C
_chemical_formula_sum  Ta2Co2C4
_cell_volume  359.8734045861337
_cell_formula_units_Z  4
loop_
  _symmetry_equiv_pos_site_id
 _symmetry_equiv_pos_as_xyz
 1  'x, y, z'
loop_
 _atom_site_type_symbol
 _atom_site_label
 _atom_site_symmetry_multiplicity
 _atom_site_fract_x
 _atom_site_fract_y
 _atom_site_fract_z
 _atom_site_fract_occupancy
 C  C1  1  -0.00000  0.50000  -0.00000  1
 C  C2  1  0.50000  0.00000  0.00000  1
 C  C3  1  0.00000  0.00000  0.00000  1
 C  C4  1  0.00000  0.00000  0.50000  1
 Co  Co1  1  -0.00000  0.50000  0.50000  1
 Co  Co2  1  0.50000  0.00000  0.50000  1
 Co  Co3  1  0.29587  0.29587  0.61239  1
 Co  Co4  1  0.61239  0.29587  0.29587  1
 Co  Co5  1  0.70413  0.70413  0.70413  1
 Co  Co6  1  0.38761  0.70413  0.70413  1
 Co  Co7  1  0.70413  0.38761  0.70413  1
 Co  Co8  1  0.70413  0.70413  0.38761  1
 Co  Co9  1  0.29587  0.29587  0.29587  1
 Co  Co10  1  0.50000  0.50000  -0.00000  1
 Co  Co11  1  0.50000  0.50000  0.50000  1
 Co  Co12  1  0.29587  0.61239  0.29587  1
 Ta  Ta1  1  0.67569  0.07431  0.07431  1
 Ta  Ta2  1  0.92569  0.32431  0.92569  1
 Ta  Ta3  1  0.32431  0.92569  0.32431  1
 Ta  Ta4  1  0.07431  0.67569  0.07431  1
 Ta  Ta5  1  0.07431  0.07431  0.67569  1
 Ta  Ta6  1  0.67569  0.67569  0.07431  1
 Ta  Ta7  1  0.67569  0.07431  0.67569  1
 Ta  Ta8  1  0.32431  0.92569  0.92569  1
 Ta  Ta9  1  0.07431  0.67569  0.67569  1
 Ta  Ta10  1  0.92569  0.32431  0.32431  1
 Ta  Ta11  1  0.92569  0.92569  0.32431  1
 Ta  Ta12  1  0.32431  0.32431  0.92569  1
