CIF file written using JARVIS-Tools package.
data_Na3OsO5
_symmetry_space_group_name_H-M  'P3_121'
_cell_length_a       5.5612
_cell_length_b       5.5612
_cell_length_c       13.4253
_cell_angle_alpha    90
_cell_angle_beta     90
_cell_angle_gamma    120

_symmetry_Int_Tables_number  152
_chemical_formula_structural  Na3OsO5
_chemical_formula_sum  Na9Os3O5
_cell_volume  359.57831622970446
_cell_formula_units_Z  3
loop_
  _symmetry_equiv_pos_site_id
 _symmetry_equiv_pos_as_xyz
 1  'x, y, z'
loop_
 _atom_site_type_symbol
 _atom_site_label
 _atom_site_symmetry_multiplicity
 _atom_site_fract_x
 _atom_site_fract_y
 _atom_site_fract_z
 _atom_site_fract_occupancy
 Na  Na1  1  0.90512  0.61721  0.91775  1
 Na  Na2  1  0.71209  0.09488  0.58441  1
 Na  Na3  1  0.09488  0.71209  0.41559  1
 Na  Na4  1  0.38279  0.28791  0.25108  1
 Na  Na5  1  0.72958  -0.00000  0.33333  1
 Na  Na6  1  0.61721  0.90512  0.08225  1
 Na  Na7  1  0.27042  0.27042  0.00000  1
 Na  Na8  1  -0.00000  0.72958  0.66667  1
 Na  Na9  1  0.28791  0.38279  0.74892  1
 O  O1  1  -0.00000  0.28766  0.16667  1
 O  O2  1  0.47198  0.65497  0.89928  1
 O  O3  1  0.28766  -0.00000  0.83333  1
 O  O4  1  0.52802  0.18300  0.43405  1
 O  O5  1  0.65497  0.47198  0.10072  1
 O  O6  1  0.84028  0.68109  0.27360  1
 O  O7  1  0.15972  0.84081  0.05973  1
 O  O8  1  0.84081  0.15972  0.94027  1
 O  O9  1  0.34503  0.81700  0.23261  1
 O  O10  1  0.71234  0.71234  0.50000  1
 O  O11  1  0.18300  0.52802  0.56595  1
 O  O12  1  0.81700  0.34503  0.76739  1
 O  O13  1  0.31891  0.15919  0.60694  1
 O  O14  1  0.15919  0.31891  0.39306  1
 O  O15  1  0.68109  0.84028  0.72640  1
 Os  Os1  1  0.61122  0.00000  0.83333  1
 Os  Os2  1  0.00000  0.61122  0.16667  1
 Os  Os3  1  0.38878  0.38878  0.50000  1
