CIF file written using JARVIS-Tools package.
data_Tb2MnNiO6
_symmetry_space_group_name_H-M  'P2_1/c'
_cell_length_a       5.22627
_cell_length_b       5.64666
_cell_length_c       9.0292
_cell_angle_alpha    90
_cell_angle_beta     124.81
_cell_angle_gamma    90

_symmetry_Int_Tables_number  14
_chemical_formula_structural  Tb2MnNiO6
_chemical_formula_sum  Tb4Mn2Ni2O2
_cell_volume  218.77855681849624
_cell_formula_units_Z  2
loop_
  _symmetry_equiv_pos_site_id
 _symmetry_equiv_pos_as_xyz
 1  'x, y, z'
loop_
 _atom_site_type_symbol
 _atom_site_label
 _atom_site_symmetry_multiplicity
 _atom_site_fract_x
 _atom_site_fract_y
 _atom_site_fract_z
 _atom_site_fract_occupancy
 Mn  Mn1  1  0.50000  0.50000  0.50000  1
 Mn  Mn2  1  0.50000  0.00000  0.00000  1
 Ni  Ni1  1  0.00000  0.00000  0.50000  1
 Ni  Ni2  1  0.00000  0.50000  0.00000  1
 O  O1  1  0.15039  0.18519  0.95059  1
 O  O2  1  0.26311  0.70378  0.94859  1
 O  O3  1  0.84961  0.68519  0.54941  1
 O  O4  1  0.26311  0.79622  0.44859  1
 O  O5  1  0.64554  0.53031  0.74777  1
 O  O6  1  0.64554  0.96969  0.24777  1
 O  O7  1  0.35446  0.46969  0.25223  1
 O  O8  1  0.84961  0.81481  0.04941  1
 O  O9  1  0.73689  0.20378  0.55141  1
 O  O10  1  0.73689  0.29622  0.05141  1
 O  O11  1  0.35446  0.03031  0.75223  1
 O  O12  1  0.15039  0.31481  0.45059  1
 Tb  Tb1  1  0.22940  0.42333  0.74980  1
 Tb  Tb2  1  0.22940  0.07667  0.24980  1
 Tb  Tb3  1  0.77060  0.92333  0.75020  1
 Tb  Tb4  1  0.77060  0.57667  0.25020  1
