CIF file written using JARVIS-Tools package.
data_Rb2Na4Co2O5
_symmetry_space_group_name_H-M  'P4_2/mnm'
_cell_length_a       6.48382
_cell_length_b       6.48382
_cell_length_c       10.0677
_cell_angle_alpha    90
_cell_angle_beta     90
_cell_angle_gamma    90

_symmetry_Int_Tables_number  136
_chemical_formula_structural  Rb2Na4Co2O5
_chemical_formula_sum  Rb4Na8Co4O0
_cell_volume  423.24553362364054
_cell_formula_units_Z  2
loop_
  _symmetry_equiv_pos_site_id
 _symmetry_equiv_pos_as_xyz
 1  'x, y, z'
loop_
 _atom_site_type_symbol
 _atom_site_label
 _atom_site_symmetry_multiplicity
 _atom_site_fract_x
 _atom_site_fract_y
 _atom_site_fract_z
 _atom_site_fract_occupancy
 Co  Co1  1  0.28988  0.28988  0.50000  1
 Co  Co2  1  0.78988  0.21012  0.00000  1
 Co  Co3  1  0.71012  0.71012  0.50000  1
 Co  Co4  1  0.21012  0.78988  0.00000  1
 Na  Na1  1  0.50000  0.00000  0.25000  1
 Na  Na2  1  0.00000  0.00000  0.22380  1
 Na  Na3  1  0.50000  0.50000  0.72380  1
 Na  Na4  1  0.50000  0.50000  0.27620  1
 Na  Na5  1  0.00000  0.00000  0.77620  1
 Na  Na6  1  0.50000  0.00000  0.75000  1
 Na  Na7  1  0.00000  0.50000  0.75000  1
 Na  Na8  1  0.00000  0.50000  0.25000  1
 O  O1  1  0.72279  0.27721  0.83085  1
 O  O2  1  0.27721  0.72279  0.83085  1
 O  O3  1  0.22279  0.22279  0.33085  1
 O  O4  1  0.77721  0.77721  0.66915  1
 O  O5  1  0.22279  0.22279  0.66915  1
 O  O6  1  0.00000  0.00000  0.00000  1
 O  O7  1  0.77721  0.77721  0.33085  1
 O  O8  1  0.27721  0.72279  0.16915  1
 O  O9  1  0.72279  0.27721  0.16915  1
 O  O10  1  0.50000  0.50000  0.50000  1
 Rb  Rb1  1  0.69782  0.69782  0.00000  1
 Rb  Rb2  1  0.80218  0.19782  0.50000  1
 Rb  Rb3  1  0.19782  0.80218  0.50000  1
 Rb  Rb4  1  0.30218  0.30218  0.00000  1
