CIF file written using JARVIS-Tools package.
data_BiOF
_symmetry_space_group_name_H-M  'Pbcm'
_cell_length_a       5.36789
_cell_length_b       5.42317
_cell_length_c       6.17092
_cell_angle_alpha    90
_cell_angle_beta     90.0652
_cell_angle_gamma    90

_symmetry_Int_Tables_number  57
_chemical_formula_structural  BiOF
_chemical_formula_sum  Bi4O4F4
_cell_volume  179.641537492055
_cell_formula_units_Z  4
loop_
  _symmetry_equiv_pos_site_id
 _symmetry_equiv_pos_as_xyz
 1  'x, y, z'
loop_
 _atom_site_type_symbol
 _atom_site_label
 _atom_site_symmetry_multiplicity
 _atom_site_fract_x
 _atom_site_fract_y
 _atom_site_fract_z
 _atom_site_fract_occupancy
 Bi  Bi1  1  0.25046  0.51384  0.71008  1
 Bi  Bi2  1  0.75046  0.98616  0.71008  1
 Bi  Bi3  1  0.24954  0.01384  0.28992  1
 Bi  Bi4  1  0.74954  0.48616  0.28992  1
 F  F1  1  0.24962  0.95467  0.85776  1
 F  F2  1  0.74962  0.54533  0.85776  1
 F  F3  1  0.25038  0.45467  0.14224  1
 F  F4  1  0.75038  0.04533  0.14224  1
 O  O1  1  0.00006  0.25005  0.50707  1
 O  O2  1  0.50006  0.24995  0.50707  1
 O  O3  1  0.49994  0.75005  0.49293  1
 O  O4  1  -0.00006  0.74995  0.49293  1
