CIF file written using JARVIS-Tools package.
data_YCuS2
_symmetry_space_group_name_H-M  'Pnma'
_cell_length_a       3.96299
_cell_length_b       6.27216
_cell_length_c       13.4297
_cell_angle_alpha    90
_cell_angle_beta     90
_cell_angle_gamma    90

_symmetry_Int_Tables_number  62
_chemical_formula_structural  YCuS2
_chemical_formula_sum  Y4Cu4S8
_cell_volume  333.81620174709184
_cell_formula_units_Z  4
loop_
  _symmetry_equiv_pos_site_id
 _symmetry_equiv_pos_as_xyz
 1  'x, y, z'
loop_
 _atom_site_type_symbol
 _atom_site_label
 _atom_site_symmetry_multiplicity
 _atom_site_fract_x
 _atom_site_fract_y
 _atom_site_fract_z
 _atom_site_fract_occupancy
 Cu  Cu1  1  0.75050  0.62791  0.04671  1
 Cu  Cu2  1  0.24950  0.12791  0.45329  1
 Cu  Cu3  1  0.25050  0.87209  0.95329  1
 Cu  Cu4  1  0.74950  0.37209  0.54671  1
 S  S1  1  0.74977  0.51138  0.70552  1
 S  S2  1  0.24977  0.98862  0.29448  1
 S  S3  1  0.25023  0.01138  0.79448  1
 S  S4  1  0.75023  0.48862  0.20552  1
 S  S5  1  0.74972  0.99473  0.53998  1
 S  S6  1  0.75028  0.00527  0.03998  1
 S  S7  1  0.25028  0.49473  0.96002  1
 S  S8  1  0.24972  0.50527  0.46002  1
 Y  Y1  1  0.24975  0.75072  0.63377  1
 Y  Y2  1  0.74975  0.74928  0.36623  1
 Y  Y3  1  0.75025  0.25072  0.86623  1
 Y  Y4  1  0.25025  0.24928  0.13377  1
