CIF file written using JARVIS-Tools package.
data_LiMnO2
_symmetry_space_group_name_H-M  'C2/c'
_cell_length_a       5.66573
_cell_length_b       5.66573
_cell_length_c       6.54207
_cell_angle_alpha    119.229
_cell_angle_beta     119.229
_cell_angle_gamma    88.0239

_symmetry_Int_Tables_number  15
_chemical_formula_structural  LiMnO2
_chemical_formula_sum  Li4Mn4O8
_cell_volume  154.08819098856574
_cell_formula_units_Z  4
loop_
  _symmetry_equiv_pos_site_id
 _symmetry_equiv_pos_as_xyz
 1  'x, y, z'
loop_
 _atom_site_type_symbol
 _atom_site_label
 _atom_site_symmetry_multiplicity
 _atom_site_fract_x
 _atom_site_fract_y
 _atom_site_fract_z
 _atom_site_fract_occupancy
 Li  Li1  1  0.00000  0.00000  0.50000  1
 Li  Li2  1  0.00000  0.00000  0.00000  1
 Li  Li3  1  0.19856  0.80144  0.25000  1
 Li  Li4  1  0.80144  0.19856  0.75000  1
 Mn  Mn1  1  0.00000  0.50000  0.50000  1
 Mn  Mn2  1  0.50000  0.50000  0.50000  1
 Mn  Mn3  1  0.50000  0.00000  0.00000  1
 Mn  Mn4  1  0.50000  0.50000  0.00000  1
 O  O1  1  0.26064  0.74526  0.97609  1
 O  O2  1  0.24828  0.25172  0.47809  1
 O  O3  1  0.25474  0.73936  0.52391  1
 O  O4  1  0.25172  0.24828  0.97809  1
 O  O5  1  0.74828  0.75172  0.02191  1
 O  O6  1  0.74526  0.26064  0.47609  1
 O  O7  1  0.75172  0.74828  0.52191  1
 O  O8  1  0.73936  0.25474  0.02391  1
