CIF file written using JARVIS-Tools package.
data_RbSb
_symmetry_space_group_name_H-M  'P2_1/c'
_cell_length_a       7.3918
_cell_length_b       7.20082
_cell_length_c       13.8553
_cell_angle_alpha    90
_cell_angle_beta     114.346
_cell_angle_gamma    90

_symmetry_Int_Tables_number  14
_chemical_formula_structural  RbSb
_chemical_formula_sum  Rb8Sb8
_cell_volume  671.8956622117689
_cell_formula_units_Z  8
loop_
  _symmetry_equiv_pos_site_id
 _symmetry_equiv_pos_as_xyz
 1  'x, y, z'
loop_
 _atom_site_type_symbol
 _atom_site_label
 _atom_site_symmetry_multiplicity
 _atom_site_fract_x
 _atom_site_fract_y
 _atom_site_fract_z
 _atom_site_fract_occupancy
 Rb  Rb1  1  0.74042  0.82986  0.53083  1
 Rb  Rb2  1  0.25958  0.32986  0.96917  1
 Rb  Rb3  1  0.25958  0.17014  0.46917  1
 Rb  Rb4  1  0.74042  0.67014  0.03083  1
 Rb  Rb5  1  0.28304  0.59660  0.66708  1
 Rb  Rb6  1  0.71696  0.09660  0.83292  1
 Rb  Rb7  1  0.71696  0.40340  0.33292  1
 Rb  Rb8  1  0.28304  0.90340  0.16708  1
 Sb  Sb1  1  0.17546  0.82911  0.87409  1
 Sb  Sb2  1  0.82454  0.32911  0.62591  1
 Sb  Sb3  1  0.82454  0.17089  0.12591  1
 Sb  Sb4  1  0.17546  0.67089  0.37409  1
 Sb  Sb5  1  0.17426  0.09602  0.71473  1
 Sb  Sb6  1  0.82574  0.59602  0.78527  1
 Sb  Sb7  1  0.82574  0.90398  0.28527  1
 Sb  Sb8  1  0.17426  0.40398  0.21473  1
