CIF file written using JARVIS-Tools package.
data_B2W
_symmetry_space_group_name_H-M  'P6_3/mmc'
_cell_length_a       3.01896
_cell_length_b       3.01896
_cell_length_c       14.1475
_cell_angle_alpha    90
_cell_angle_beta     90
_cell_angle_gamma    120

_symmetry_Int_Tables_number  194
_chemical_formula_structural  B2W
_chemical_formula_sum  B8W4
_cell_volume  111.66685102865357
_cell_formula_units_Z  4
loop_
  _symmetry_equiv_pos_site_id
 _symmetry_equiv_pos_as_xyz
 1  'x, y, z'
loop_
 _atom_site_type_symbol
 _atom_site_label
 _atom_site_symmetry_multiplicity
 _atom_site_fract_x
 _atom_site_fract_y
 _atom_site_fract_z
 _atom_site_fract_occupancy
 B  B1  1  0.33333  0.66667  0.47739  1
 B  B2  1  0.66667  0.33333  0.52261  1
 B  B3  1  0.00000  0.00000  0.75000  1
 B  B4  1  0.33333  0.66667  0.02261  1
 B  B5  1  0.66667  0.33333  0.75000  1
 B  B6  1  0.66667  0.33333  0.97739  1
 B  B7  1  0.33333  0.66667  0.25000  1
 B  B8  1  0.00000  0.00000  0.25000  1
 W  W1  1  0.33333  0.66667  0.86567  1
 W  W2  1  0.66667  0.33333  0.36567  1
 W  W3  1  0.33333  0.66667  0.63433  1
 W  W4  1  0.66667  0.33333  0.13433  1
