CIF file written using JARVIS-Tools package.
data_LiV2OF5
_symmetry_space_group_name_H-M  'P1'
_cell_length_a       5.45301
_cell_length_b       7.5004
_cell_length_c       8.68852
_cell_angle_alpha    113.449
_cell_angle_beta     105.564
_cell_angle_gamma    95.0395

_symmetry_Int_Tables_number  1
_chemical_formula_structural  LiV2OF5
_chemical_formula_sum  Li3V6O3F5
_cell_volume  306.34874571910876
_cell_formula_units_Z  3
loop_
  _symmetry_equiv_pos_site_id
 _symmetry_equiv_pos_as_xyz
 1  'x, y, z'
loop_
 _atom_site_type_symbol
 _atom_site_label
 _atom_site_symmetry_multiplicity
 _atom_site_fract_x
 _atom_site_fract_y
 _atom_site_fract_z
 _atom_site_fract_occupancy
 F  F1  1  0.71848  0.96143  0.42264  1
 F  F2  1  0.10317  0.33566  0.79663  1
 F  F3  1  0.06111  0.29128  0.09303  1
 F  F4  1  0.27816  0.04201  0.57217  1
 F  F5  1  0.94549  0.69226  0.89631  1
 F  F6  1  0.37476  0.63399  0.76691  1
 F  F7  1  0.03704  0.32092  0.47337  1
 F  F8  1  0.62669  0.37057  0.88571  1
 F  F9  1  0.42487  0.66870  0.47243  1
 F  F10  1  0.94764  0.69623  0.53890  1
 F  F11  1  0.62125  0.36609  0.23327  1
 F  F12  1  0.74750  0.99061  0.12052  1
 F  F13  1  0.69903  0.97637  0.79487  1
 F  F14  1  0.90669  0.67752  0.20850  1
 F  F15  1  0.30423  0.01016  0.19022  1
 Li  Li1  1  0.43987  0.79052  0.01745  1
 Li  Li2  1  0.90121  0.53343  0.64984  1
 Li  Li3  1  0.41417  0.27742  0.99306  1
 O  O1  1  0.36577  0.61683  0.13315  1
 O  O2  1  0.57198  0.32054  0.53107  1
 O  O3  1  0.22838  0.98486  0.86396  1
 V  V1  1  0.32678  0.85164  0.67257  1
 V  V2  1  0.00658  0.99849  0.98941  1
 V  V3  1  0.35767  0.33289  0.65680  1
 V  V4  1  0.01919  0.50632  0.01410  1
 V  V5  1  0.66728  0.17367  0.34469  1
 V  V6  1  0.64684  0.67078  0.32515  1
