CIF file written using JARVIS-Tools package.
data_V2O3F
_symmetry_space_group_name_H-M  'C2/m'
_cell_length_a       4.65298
_cell_length_b       9.77188
_cell_length_c       5.81788
_cell_angle_alpha    72.6733
_cell_angle_beta     90.0094
_cell_angle_gamma    86.8047

_symmetry_Int_Tables_number  12
_chemical_formula_structural  V2O3F
_chemical_formula_sum  V8O2F4
_cell_volume  252.09441410838406
_cell_formula_units_Z  4
loop_
  _symmetry_equiv_pos_site_id
 _symmetry_equiv_pos_as_xyz
 1  'x, y, z'
loop_
 _atom_site_type_symbol
 _atom_site_label
 _atom_site_symmetry_multiplicity
 _atom_site_fract_x
 _atom_site_fract_y
 _atom_site_fract_z
 _atom_site_fract_occupancy
 F  F1  1  0.20053  0.10382  0.19808  1
 F  F2  1  0.79947  0.39618  0.55192  1
 F  F3  1  0.21088  0.59838  0.95082  1
 F  F4  1  0.78912  0.90162  0.79918  1
 O  O1  1  0.70574  0.65022  0.67843  1
 O  O2  1  0.81985  0.40632  0.04689  1
 O  O3  1  0.79189  0.89875  0.30057  1
 O  O4  1  0.70566  0.65021  0.17149  1
 O  O5  1  0.69194  0.15189  0.42302  1
 O  O6  1  0.69201  0.15203  0.92499  1
 O  O7  1  0.29426  0.84978  0.07157  1
 O  O8  1  0.30799  0.34797  0.82501  1
 O  O9  1  0.29434  0.84979  0.57851  1
 O  O10  1  0.18015  0.09368  0.70311  1
 O  O11  1  0.20811  0.60125  0.44943  1
 O  O12  1  0.30806  0.34811  0.32698  1
 V  V1  1  0.00862  0.50284  0.26233  1
 V  V2  1  0.99137  0.99720  0.01504  1
 V  V3  1  0.99138  0.99716  0.48767  1
 V  V4  1  0.00863  0.50280  0.73496  1
 V  V5  1  0.50000  0.75000  0.87500  1
 V  V6  1  0.55231  0.27581  0.11215  1
 V  V7  1  0.50000  0.75000  0.37500  1
 V  V8  1  0.44769  0.22419  0.63785  1
