CIF file written using JARVIS-Tools package.
data_BaNd2Se4
_symmetry_space_group_name_H-M  'I-42d'
_cell_length_a       7.95629
_cell_length_b       7.95629
_cell_length_c       7.95629
_cell_angle_alpha    109.383
_cell_angle_beta     109.383
_cell_angle_gamma    109.647

_symmetry_Int_Tables_number  122
_chemical_formula_structural  BaNd2Se4
_chemical_formula_sum  Ba2Nd4Se8
_cell_volume  387.7091536809528
_cell_formula_units_Z  2
loop_
  _symmetry_equiv_pos_site_id
 _symmetry_equiv_pos_as_xyz
 1  'x, y, z'
loop_
 _atom_site_type_symbol
 _atom_site_label
 _atom_site_symmetry_multiplicity
 _atom_site_fract_x
 _atom_site_fract_y
 _atom_site_fract_z
 _atom_site_fract_occupancy
 Ba  Ba1  1  0.62500  0.37500  0.25000  1
 Ba  Ba2  1  0.87500  0.12500  0.75000  1
 Nd  Nd1  1  0.12596  0.75000  0.87596  1
 Nd  Nd2  1  0.25000  0.62596  0.37596  1
 Nd  Nd3  1  0.37404  0.25000  0.62404  1
 Nd  Nd4  1  0.75000  0.87404  0.12404  1
 Se  Se1  1  0.01578  0.85603  0.49624  1
 Se  Se2  1  0.01953  0.35978  0.50376  1
 Se  Se3  1  0.48047  0.98422  0.34025  1
 Se  Se4  1  0.14397  0.14022  0.15975  1
 Se  Se5  1  0.35603  0.51578  0.99624  1
 Se  Se6  1  0.64022  0.64397  0.65975  1
 Se  Se7  1  0.48422  0.98047  0.84025  1
 Se  Se8  1  0.85978  0.51953  0.00376  1
