CIF file written using JARVIS-Tools package.
data_Rb2SnAs2
_symmetry_space_group_name_H-M  'Ibam'
_cell_length_a       7.0001
_cell_length_b       7.45782
_cell_length_c       8.69869
_cell_angle_alpha    115.383
_cell_angle_beta     113.726
_cell_angle_gamma    90

_symmetry_Int_Tables_number  72
_chemical_formula_structural  Rb2SnAs2
_chemical_formula_sum  Rb4Sn2As4
_cell_volume  367.34310771400203
_cell_formula_units_Z  2
loop_
  _symmetry_equiv_pos_site_id
 _symmetry_equiv_pos_as_xyz
 1  'x, y, z'
loop_
 _atom_site_type_symbol
 _atom_site_label
 _atom_site_symmetry_multiplicity
 _atom_site_fract_x
 _atom_site_fract_y
 _atom_site_fract_z
 _atom_site_fract_occupancy
 As  As1  1  0.39448  0.21066  0.78896  1
 As  As2  1  0.10552  0.42171  0.21104  1
 As  As3  1  0.60552  0.78934  0.21104  1
 As  As4  1  0.89448  0.57829  0.78896  1
 Rb  Rb1  1  0.85529  0.01469  0.71057  1
 Rb  Rb2  1  0.64471  0.30412  0.28943  1
 Rb  Rb3  1  0.14471  0.98531  0.28943  1
 Rb  Rb4  1  0.35529  0.69588  0.71057  1
 Sn  Sn1  1  0.25000  0.50000  -0.00000  1
 Sn  Sn2  1  0.75000  0.50000  -0.00000  1
