CIF file written using JARVIS-Tools package.
data_TlInS2
_symmetry_space_group_name_H-M  'P6_3/mmc'
_cell_length_a       3.89156
_cell_length_b       3.89156
_cell_length_c       14.9242
_cell_angle_alpha    90
_cell_angle_beta     90
_cell_angle_gamma    120

_symmetry_Int_Tables_number  194
_chemical_formula_structural  TlInS2
_chemical_formula_sum  Tl2In2S4
_cell_volume  195.73483243162377
_cell_formula_units_Z  2
loop_
  _symmetry_equiv_pos_site_id
 _symmetry_equiv_pos_as_xyz
 1  'x, y, z'
loop_
 _atom_site_type_symbol
 _atom_site_label
 _atom_site_symmetry_multiplicity
 _atom_site_fract_x
 _atom_site_fract_y
 _atom_site_fract_z
 _atom_site_fract_occupancy
 In  In1  1  0.00000  0.00000  0.50000  1
 In  In2  1  0.00000  0.00000  0.00000  1
 S  S1  1  0.33333  0.66667  0.09738  1
 S  S2  1  0.66667  0.33333  0.59738  1
 S  S3  1  0.33333  0.66667  0.40262  1
 S  S4  1  0.66667  0.33333  0.90262  1
 Tl  Tl1  1  0.66667  0.33333  0.25000  1
 Tl  Tl2  1  0.33333  0.66667  0.75000  1
