CIF file written using JARVIS-Tools package.
data_Li4PbO4
_symmetry_space_group_name_H-M  'Cmcm'
_cell_length_a       5.51919
_cell_length_b       5.51919
_cell_length_c       6.59019
_cell_angle_alpha    90
_cell_angle_beta     90
_cell_angle_gamma    98.7284

_symmetry_Int_Tables_number  63
_chemical_formula_structural  Li4PbO4
_chemical_formula_sum  Li8Pb2O8
_cell_volume  198.42205089980584
_cell_formula_units_Z  2
loop_
  _symmetry_equiv_pos_site_id
 _symmetry_equiv_pos_as_xyz
 1  'x, y, z'
loop_
 _atom_site_type_symbol
 _atom_site_label
 _atom_site_symmetry_multiplicity
 _atom_site_fract_x
 _atom_site_fract_y
 _atom_site_fract_z
 _atom_site_fract_occupancy
 Li  Li1  1  0.15357  0.84643  0.50000  1
 Li  Li2  1  0.84643  0.15357  0.00000  1
 Li  Li3  1  0.88990  0.59724  0.25000  1
 Li  Li4  1  0.11010  0.40276  0.75000  1
 Li  Li5  1  0.59724  0.88990  0.25000  1
 Li  Li6  1  0.40276  0.11010  0.75000  1
 Li  Li7  1  0.15357  0.84643  0.00000  1
 Li  Li8  1  0.84643  0.15357  0.50000  1
 O  O1  1  0.25969  0.71327  0.25000  1
 O  O2  1  0.20681  0.20681  0.97620  1
 O  O3  1  0.79319  0.79319  0.47620  1
 O  O4  1  0.20681  0.20681  0.52380  1
 O  O5  1  0.71327  0.25969  0.25000  1
 O  O6  1  0.28673  0.74031  0.75000  1
 O  O7  1  0.74031  0.28673  0.75000  1
 O  O8  1  0.79319  0.79319  0.02380  1
 Pb  Pb1  1  0.64254  0.64254  0.75000  1
 Pb  Pb2  1  0.35746  0.35746  0.25000  1
