CIF file written using JARVIS-Tools package.
data_MgCoF6
_symmetry_space_group_name_H-M  'R-3'
_cell_length_a       5.20996
_cell_length_b       5.20996
_cell_length_c       5.20996
_cell_angle_alpha    55.592
_cell_angle_beta     55.592
_cell_angle_gamma    55.592

_symmetry_Int_Tables_number  148
_chemical_formula_structural  MgCoF6
_chemical_formula_sum  MgCoF6
_cell_volume  89.76674387347659
_cell_formula_units_Z  1
loop_
  _symmetry_equiv_pos_site_id
 _symmetry_equiv_pos_as_xyz
 1  'x, y, z'
loop_
 _atom_site_type_symbol
 _atom_site_label
 _atom_site_symmetry_multiplicity
 _atom_site_fract_x
 _atom_site_fract_y
 _atom_site_fract_z
 _atom_site_fract_occupancy
 Co  Co1  1  0.00000  0.00000  0.00000  1
 F  F1  1  0.37426  0.09584  0.76788  1
 F  F2  1  0.09584  0.76788  0.37426  1
 F  F3  1  0.23212  0.62574  0.90416  1
 F  F4  1  0.90416  0.23212  0.62574  1
 F  F5  1  0.62574  0.90416  0.23212  1
 F  F6  1  0.76788  0.37426  0.09584  1
 Mg  Mg1  1  0.50000  0.50000  0.50000  1
