CIF file written using JARVIS-Tools package.
data_K3BAs2
_symmetry_space_group_name_H-M  'C2/c'
_cell_length_a       6.56712
_cell_length_b       6.56712
_cell_length_c       9.18983
_cell_angle_alpha    74.3402
_cell_angle_beta     74.3402
_cell_angle_gamma    86.7324

_symmetry_Int_Tables_number  15
_chemical_formula_structural  K3BAs2
_chemical_formula_sum  K6B2As4
_cell_volume  367.400481901554
_cell_formula_units_Z  2
loop_
  _symmetry_equiv_pos_site_id
 _symmetry_equiv_pos_as_xyz
 1  'x, y, z'
loop_
 _atom_site_type_symbol
 _atom_site_label
 _atom_site_symmetry_multiplicity
 _atom_site_fract_x
 _atom_site_fract_y
 _atom_site_fract_z
 _atom_site_fract_occupancy
 As  As1  1  0.41323  0.85518  0.35672  1
 As  As2  1  0.14482  0.58677  0.14328  1
 As  As3  1  0.85518  0.41323  0.85672  1
 As  As4  1  0.58677  0.14482  0.64328  1
 B  B1  1  0.28514  0.71486  0.25000  1
 B  B2  1  0.71486  0.28514  0.75000  1
 K  K1  1  0.74652  0.85274  0.98157  1
 K  K2  1  0.85274  0.74652  0.48157  1
 K  K3  1  0.35184  0.64816  0.75000  1
 K  K4  1  0.64816  0.35184  0.25000  1
 K  K5  1  0.14726  0.25348  0.51843  1
 K  K6  1  0.25348  0.14726  0.01843  1
