CIF file written using JARVIS-Tools package.
data_LiAs
_symmetry_space_group_name_H-M  'P2_1/c'
_cell_length_a       5.80406
_cell_length_b       5.22917
_cell_length_c       10.8098
_cell_angle_alpha    90
_cell_angle_beta     117.991
_cell_angle_gamma    90

_symmetry_Int_Tables_number  14
_chemical_formula_structural  LiAs
_chemical_formula_sum  Li8As8
_cell_volume  289.70334845376055
_cell_formula_units_Z  8
loop_
  _symmetry_equiv_pos_site_id
 _symmetry_equiv_pos_as_xyz
 1  'x, y, z'
loop_
 _atom_site_type_symbol
 _atom_site_label
 _atom_site_symmetry_multiplicity
 _atom_site_fract_x
 _atom_site_fract_y
 _atom_site_fract_z
 _atom_site_fract_occupancy
 As  As1  1  0.28531  0.66859  0.59823  1
 As  As2  1  0.71469  0.16859  0.90177  1
 As  As3  1  0.71469  0.33141  0.40177  1
 As  As4  1  0.28531  0.83141  0.09823  1
 As  As5  1  0.29858  0.42919  0.80230  1
 As  As6  1  0.70142  0.92919  0.69770  1
 As  As7  1  0.70142  0.57081  0.19770  1
 As  As8  1  0.29858  0.07081  0.30230  1
 Li  Li1  1  0.22724  0.16901  0.55610  1
 Li  Li2  1  0.77276  0.66901  0.94390  1
 Li  Li3  1  0.77276  0.83099  0.44390  1
 Li  Li4  1  0.22724  0.33099  0.05610  1
 Li  Li5  1  0.23862  0.91996  0.83336  1
 Li  Li6  1  0.76138  0.41996  0.66664  1
 Li  Li7  1  0.76138  0.08004  0.16664  1
 Li  Li8  1  0.23862  0.58004  0.33336  1
