CIF file written using JARVIS-Tools package.
data_Li2ZrTeO6
_symmetry_space_group_name_H-M  'R3'
_cell_length_a       5.54945
_cell_length_b       5.54945
_cell_length_c       5.54945
_cell_angle_alpha    55.8272
_cell_angle_beta     55.8272
_cell_angle_gamma    55.8271

_symmetry_Int_Tables_number  146
_chemical_formula_structural  Li2ZrTeO6
_chemical_formula_sum  Li2ZrTeO6
_cell_volume  109.15484625642743
_cell_formula_units_Z  1
loop_
  _symmetry_equiv_pos_site_id
 _symmetry_equiv_pos_as_xyz
 1  'x, y, z'
loop_
 _atom_site_type_symbol
 _atom_site_label
 _atom_site_symmetry_multiplicity
 _atom_site_fract_x
 _atom_site_fract_y
 _atom_site_fract_z
 _atom_site_fract_occupancy
 Li  Li1  1  0.27388  0.27388  0.27388  1
 Li  Li2  1  0.78523  0.78523  0.78523  1
 O  O1  1  0.86700  0.60409  0.24182  1
 O  O2  1  0.71784  0.12137  0.39354  1
 O  O3  1  0.12137  0.39354  0.71784  1
 O  O4  1  0.39354  0.71784  0.12137  1
 O  O5  1  0.24182  0.86700  0.60409  1
 O  O6  1  0.60409  0.24182  0.86700  1
 Te  Te1  1  0.49659  0.49659  0.49659  1
 Zr  Zr1  1  0.00065  0.00065  0.00065  1
