CIF file written using JARVIS-Tools package.
data_AgNO2
_symmetry_space_group_name_H-M  'C2'
_cell_length_a       4.43677
_cell_length_b       4.43678
_cell_length_c       6.73053
_cell_angle_alpha    102.83
_cell_angle_beta     101.853
_cell_angle_gamma    110.582

_symmetry_Int_Tables_number  5
_chemical_formula_structural  AgNO2
_chemical_formula_sum  Ag2N2O4
_cell_volume  114.95773047801487
_cell_formula_units_Z  2
loop_
  _symmetry_equiv_pos_site_id
 _symmetry_equiv_pos_as_xyz
 1  'x, y, z'
loop_
 _atom_site_type_symbol
 _atom_site_label
 _atom_site_symmetry_multiplicity
 _atom_site_fract_x
 _atom_site_fract_y
 _atom_site_fract_z
 _atom_site_fract_occupancy
 Ag  Ag1  1  0.75216  0.44298  0.71513  1
 Ag  Ag2  1  0.72785  0.03703  0.28487  1
 N  N1  1  0.37815  0.00196  0.74951  1
 N  N2  1  0.25245  0.62864  0.25049  1
 O  O1  1  0.96856  0.59718  0.14745  1
 O  O2  1  0.25475  0.40762  0.34453  1
 O  O3  1  0.06308  0.91021  0.65547  1
 O  O4  1  0.44974  0.82111  0.85255  1
