CIF file written using JARVIS-Tools package.
data_SiH6N2F4
_symmetry_space_group_name_H-M  'P2_1/c'
_cell_length_a       4.99696
_cell_length_b       7.15927
_cell_length_c       6.55585
_cell_angle_alpha    90
_cell_angle_beta     99.1894
_cell_angle_gamma    90

_symmetry_Int_Tables_number  14
_chemical_formula_structural  SiH6N2F4
_chemical_formula_sum  Si2H2N4F8
_cell_volume  231.52265086245356
_cell_formula_units_Z  2
loop_
  _symmetry_equiv_pos_site_id
 _symmetry_equiv_pos_as_xyz
 1  'x, y, z'
loop_
 _atom_site_type_symbol
 _atom_site_label
 _atom_site_symmetry_multiplicity
 _atom_site_fract_x
 _atom_site_fract_y
 _atom_site_fract_z
 _atom_site_fract_occupancy
 F  F1  1  0.75615  0.07112  0.14139  1
 F  F2  1  0.75615  0.42888  0.64139  1
 F  F3  1  0.11392  0.22520  0.99753  1
 F  F4  1  0.88608  0.72520  0.50247  1
 F  F5  1  0.88608  0.77480  0.00247  1
 F  F6  1  0.11392  0.27480  0.49753  1
 F  F7  1  0.24385  0.57112  0.35861  1
 F  F8  1  0.24385  0.92888  0.85861  1
 H  H1  1  0.79132  0.93959  0.64262  1
 H  H2  1  0.55648  0.01931  0.77671  1
 H  H3  1  0.44352  0.51931  0.72329  1
 H  H4  1  0.44352  0.98069  0.22329  1
 H  H5  1  0.20868  0.43959  0.85738  1
 H  H6  1  0.77017  0.33001  0.18998  1
 H  H7  1  0.79132  0.56041  0.14262  1
 H  H8  1  0.20868  0.06041  0.35738  1
 H  H9  1  0.22983  0.66999  0.81002  1
 H  H10  1  0.77017  0.16999  0.68998  1
 H  H11  1  0.22983  0.83001  0.31002  1
 H  H12  1  0.55648  0.48069  0.27671  1
 N  N1  1  0.24697  0.96212  0.25027  1
 N  N2  1  0.75303  0.46212  0.24973  1
 N  N3  1  0.24697  0.53788  0.75027  1
 N  N4  1  0.75303  0.03788  0.74973  1
 Si  Si1  1  0.00000  0.00000  0.00000  1
 Si  Si2  1  -0.00000  0.50000  0.50000  1
