CIF file written using JARVIS-Tools package.
data_Ag3SI
_symmetry_space_group_name_H-M  'R3'
_cell_length_a       4.90238
_cell_length_b       4.90096
_cell_length_c       4.89958
_cell_angle_alpha    90.2674
_cell_angle_beta     89.7149
_cell_angle_gamma    90.263

_symmetry_Int_Tables_number  146
_chemical_formula_structural  Ag3SI
_chemical_formula_sum  Ag3SI
_cell_volume  117.71520299931895
_cell_formula_units_Z  1
loop_
  _symmetry_equiv_pos_site_id
 _symmetry_equiv_pos_as_xyz
 1  'x, y, z'
loop_
 _atom_site_type_symbol
 _atom_site_label
 _atom_site_symmetry_multiplicity
 _atom_site_fract_x
 _atom_site_fract_y
 _atom_site_fract_z
 _atom_site_fract_occupancy
 Ag  Ag1  1  0.88867  0.08233  0.95717  1
 Ag  Ag2  1  0.02422  0.56324  0.30223  1
 Ag  Ag3  1  0.54361  0.21814  0.43808  1
 I  I1  1  0.49518  0.61168  0.90876  1
 S  S1  1  0.04832  0.05861  0.46176  1
