CIF file written using JARVIS-Tools package.
data_InOF
_symmetry_space_group_name_H-M  'Fddd'
_cell_length_a       5.5402
_cell_length_b       5.5402
_cell_length_c       6.27092
_cell_angle_alpha    111.419
_cell_angle_beta     111.419
_cell_angle_gamma    99.979

_symmetry_Int_Tables_number  70
_chemical_formula_structural  InOF
_chemical_formula_sum  In4O4F4
_cell_volume  156.0174646210139
_cell_formula_units_Z  4
loop_
  _symmetry_equiv_pos_site_id
 _symmetry_equiv_pos_as_xyz
 1  'x, y, z'
loop_
 _atom_site_type_symbol
 _atom_site_label
 _atom_site_symmetry_multiplicity
 _atom_site_fract_x
 _atom_site_fract_y
 _atom_site_fract_z
 _atom_site_fract_occupancy
 F  F1  1  0.50000  -0.00000  0.50000  1
 F  F2  1  0.50000  0.50000  0.50000  1
 F  F3  1  -0.00000  0.50000  -0.00000  1
 F  F4  1  0.50000  0.50000  -0.00000  1
 In  In1  1  0.07533  0.92467  0.25000  1
 In  In2  1  0.67467  0.32533  0.25000  1
 In  In3  1  0.92467  0.07533  0.75000  1
 In  In4  1  0.32533  0.67467  0.75000  1
 O  O1  1  0.01159  0.26159  0.52318  1
 O  O2  1  0.26159  0.01159  0.02318  1
 O  O3  1  0.98841  0.73841  0.47682  1
 O  O4  1  0.73841  0.98841  0.97682  1
