CIF file written using JARVIS-Tools package.
data_TaAlO4
_symmetry_space_group_name_H-M  'C2/m'
_cell_length_a       3.80082
_cell_length_b       6.40999
_cell_length_c       6.51738
_cell_angle_alpha    106.913
_cell_angle_beta     90
_cell_angle_gamma    107.246

_symmetry_Int_Tables_number  12
_chemical_formula_structural  TaAlO4
_chemical_formula_sum  Ta2Al2O8
_cell_volume  144.4387112995695
_cell_formula_units_Z  2
loop_
  _symmetry_equiv_pos_site_id
 _symmetry_equiv_pos_as_xyz
 1  'x, y, z'
loop_
 _atom_site_type_symbol
 _atom_site_label
 _atom_site_symmetry_multiplicity
 _atom_site_fract_x
 _atom_site_fract_y
 _atom_site_fract_z
 _atom_site_fract_occupancy
 Al  Al1  1  0.79953  0.59906  0.17966  1
 Al  Al2  1  0.20047  0.40094  0.82034  1
 O  O1  1  0.35817  0.71634  0.79715  1
 O  O2  1  0.64183  0.28366  0.20285  1
 O  O3  1  0.94231  0.88462  0.13474  1
 O  O4  1  0.05769  0.11538  0.86526  1
 O  O5  1  0.14081  0.28163  0.52606  1
 O  O6  1  0.85919  0.71837  0.47394  1
 O  O7  1  0.26239  0.52479  0.14217  1
 O  O8  1  0.73761  0.47521  0.85783  1
 Ta  Ta1  1  0.89450  0.78901  0.76675  1
 Ta  Ta2  1  0.10550  0.21099  0.23325  1
