CIF file written using JARVIS-Tools package.
data_RbVSe2
_symmetry_space_group_name_H-M  'Fddd'
_cell_length_a       5.75433
_cell_length_b       7.36294
_cell_length_c       12.5827
_cell_angle_alpha    84.8737
_cell_angle_beta     76.7818
_cell_angle_gamma    66.9981

_symmetry_Int_Tables_number  70
_chemical_formula_structural  RbVSe2
_chemical_formula_sum  Rb4V4Se8
_cell_volume  477.72557981448654
_cell_formula_units_Z  4
loop_
  _symmetry_equiv_pos_site_id
 _symmetry_equiv_pos_as_xyz
 1  'x, y, z'
loop_
 _atom_site_type_symbol
 _atom_site_label
 _atom_site_symmetry_multiplicity
 _atom_site_fract_x
 _atom_site_fract_y
 _atom_site_fract_z
 _atom_site_fract_occupancy
 Rb  Rb1  1  0.94859  0.75000  0.10282  1
 Rb  Rb2  1  0.30141  0.75000  0.39718  1
 Rb  Rb3  1  0.05141  0.25000  0.89718  1
 Rb  Rb4  1  0.69859  0.25000  0.60282  1
 Se  Se1  1  0.27792  0.05083  0.14168  1
 Se  Se2  1  0.97043  0.44917  0.35832  1
 Se  Se3  1  0.67124  0.05083  0.35832  1
 Se  Se4  1  0.58040  0.44917  0.14168  1
 Se  Se5  1  0.72208  0.94917  0.85832  1
 Se  Se6  1  0.02957  0.55083  0.64168  1
 Se  Se7  1  0.32876  0.94917  0.64168  1
 Se  Se8  1  0.41960  0.55083  0.85832  1
 V  V1  1  0.12500  0.75000  0.75000  1
 V  V2  1  0.87500  0.25000  0.25000  1
 V  V3  1  0.62500  0.75000  0.75000  1
 V  V4  1  0.37500  0.25000  0.25000  1
