CIF file written using JARVIS-Tools package.
data_Ba2Fe2S2OF2
_symmetry_space_group_name_H-M  'I4/mmm'
_cell_length_a       4.10402
_cell_length_b       4.10398
_cell_length_c       10.0863
_cell_angle_alpha    101.741
_cell_angle_beta     101.739
_cell_angle_gamma    89.999

_symmetry_Int_Tables_number  139
_chemical_formula_structural  Ba2Fe2S2OF2
_chemical_formula_sum  Ba2Fe2S2OF2
_cell_volume  162.69678864702064
_cell_formula_units_Z  1
loop_
  _symmetry_equiv_pos_site_id
 _symmetry_equiv_pos_as_xyz
 1  'x, y, z'
loop_
 _atom_site_type_symbol
 _atom_site_label
 _atom_site_symmetry_multiplicity
 _atom_site_fract_x
 _atom_site_fract_y
 _atom_site_fract_z
 _atom_site_fract_occupancy
 Ba  Ba1  1  0.33510  0.33511  0.67021  1
 Ba  Ba2  1  0.66489  0.66489  0.32979  1
 F  F1  1  0.75000  0.25000  0.50000  1
 F  F2  1  0.24999  0.75000  0.50000  1
 Fe  Fe1  1  0.50004  1.00000  1.00000  1
 Fe  Fe2  1  1.00000  0.50002  0.00000  1
 O  O1  1  0.49999  0.50000  -0.00000  1
 S  S1  1  0.91456  0.91456  0.82909  1
 S  S2  1  0.08543  0.08543  0.17091  1
