CIF file written using JARVIS-Tools package.
data_Ag3SI
_symmetry_space_group_name_H-M  'R3'
_cell_length_a       4.90101
_cell_length_b       4.90101
_cell_length_c       4.90101
_cell_angle_alpha    89.7308
_cell_angle_beta     89.7308
_cell_angle_gamma    89.7308

_symmetry_Int_Tables_number  146
_chemical_formula_structural  Ag3SI
_chemical_formula_sum  Ag3SI
_cell_volume  117.71761893353772
_cell_formula_units_Z  1
loop_
  _symmetry_equiv_pos_site_id
 _symmetry_equiv_pos_as_xyz
 1  'x, y, z'
loop_
 _atom_site_type_symbol
 _atom_site_label
 _atom_site_symmetry_multiplicity
 _atom_site_fract_x
 _atom_site_fract_y
 _atom_site_fract_z
 _atom_site_fract_occupancy
 Ag  Ag1  1  0.03641  0.51721  0.38136  1
 Ag  Ag2  1  0.38136  0.03641  0.51721  1
 Ag  Ag3  1  0.51721  0.38136  0.03641  1
 I  I1  1  0.98796  0.98796  0.98796  1
 S  S1  1  0.54105  0.54105  0.54105  1
