CIF file written using JARVIS-Tools package.
data_BaCoO2
_symmetry_space_group_name_H-M  'P3_121'
_cell_length_a       5.79708
_cell_length_b       5.79708
_cell_length_c       6.83045
_cell_angle_alpha    90
_cell_angle_beta     90
_cell_angle_gamma    120

_symmetry_Int_Tables_number  152
_chemical_formula_structural  BaCoO2
_chemical_formula_sum  Ba3Co3O6
_cell_volume  198.79200876122994
_cell_formula_units_Z  3
loop_
  _symmetry_equiv_pos_site_id
 _symmetry_equiv_pos_as_xyz
 1  'x, y, z'
loop_
 _atom_site_type_symbol
 _atom_site_label
 _atom_site_symmetry_multiplicity
 _atom_site_fract_x
 _atom_site_fract_y
 _atom_site_fract_z
 _atom_site_fract_occupancy
 Ba  Ba1  1  0.65312  0.65312  0.00000  1
 Ba  Ba2  1  0.00000  0.34688  0.66667  1
 Ba  Ba3  1  0.34688  0.00000  0.33333  1
 Co  Co1  1  0.60558  0.60558  0.50000  1
 Co  Co2  1  -0.00000  0.39442  0.16667  1
 Co  Co3  1  0.39442  -0.00000  0.83333  1
 O  O1  1  0.13888  0.69914  0.97075  1
 O  O2  1  0.56025  0.86112  0.63742  1
 O  O3  1  0.30086  0.43975  0.30409  1
 O  O4  1  0.69914  0.13888  0.02925  1
 O  O5  1  0.86112  0.56025  0.36258  1
 O  O6  1  0.43975  0.30086  0.69591  1
