CIF file written using JARVIS-Tools package.
data_Ag3Sb
_symmetry_space_group_name_H-M  'Pmm2'
_cell_length_a       3.28402
_cell_length_b       4.73827
_cell_length_c       5.1489
_cell_angle_alpha    90
_cell_angle_beta     90
_cell_angle_gamma    90

_symmetry_Int_Tables_number  25
_chemical_formula_structural  Ag3Sb
_chemical_formula_sum  Ag3Sb
_cell_volume  80.11979508047479
_cell_formula_units_Z  1
loop_
  _symmetry_equiv_pos_site_id
 _symmetry_equiv_pos_as_xyz
 1  'x, y, z'
loop_
 _atom_site_type_symbol
 _atom_site_label
 _atom_site_symmetry_multiplicity
 _atom_site_fract_x
 _atom_site_fract_y
 _atom_site_fract_z
 _atom_site_fract_occupancy
 Ag  Ag1  1  0.50000  0.50000  0.82827  1
 Ag  Ag2  1  0.00000  0.50000  0.35524  1
 Ag  Ag3  1  0.50000  0.00000  0.49471  1
 Sb  Sb1  1  0.00000  0.00000  0.00177  1
