CIF file written using JARVIS-Tools package.
data_TlInS2
_symmetry_space_group_name_H-M  'P1'
_cell_length_a       4.03297
_cell_length_b       5.01886
_cell_length_c       6.02765
_cell_angle_alpha    99.4386
_cell_angle_beta     100.942
_cell_angle_gamma    105.118

_symmetry_Int_Tables_number  1
_chemical_formula_structural  TlInS2
_chemical_formula_sum  TlInS2
_cell_volume  112.66976472595998
_cell_formula_units_Z  1
loop_
  _symmetry_equiv_pos_site_id
 _symmetry_equiv_pos_as_xyz
 1  'x, y, z'
loop_
 _atom_site_type_symbol
 _atom_site_label
 _atom_site_symmetry_multiplicity
 _atom_site_fract_x
 _atom_site_fract_y
 _atom_site_fract_z
 _atom_site_fract_occupancy
 In  In1  1  0.77882  0.26822  0.20920  1
 S  S1  1  0.34591  0.19751  0.53189  1
 S  S2  1  0.38510  0.78472  0.43871  1
 Tl  Tl1  1  0.99018  0.74955  0.82020  1
