CIF file written using JARVIS-Tools package.
data_Nd2Mg
_symmetry_space_group_name_H-M  'Cmcm'
_cell_length_a       3.8157
_cell_length_b       8.92639
_cell_length_c       5.61635
_cell_angle_alpha    90
_cell_angle_beta     90
_cell_angle_gamma    77.6589

_symmetry_Int_Tables_number  63
_chemical_formula_structural  Nd2Mg
_chemical_formula_sum  Nd4Mg2
_cell_volume  186.87488523308153
_cell_formula_units_Z  2
loop_
  _symmetry_equiv_pos_site_id
 _symmetry_equiv_pos_as_xyz
 1  'x, y, z'
loop_
 _atom_site_type_symbol
 _atom_site_label
 _atom_site_symmetry_multiplicity
 _atom_site_fract_x
 _atom_site_fract_y
 _atom_site_fract_z
 _atom_site_fract_occupancy
 Mg  Mg1  1  0.31982  0.36036  0.00000  1
 Mg  Mg2  1  0.45796  0.08409  0.50000  1
 Nd  Nd1  1  0.97657  0.04686  0.00000  1
 Nd  Nd2  1  0.66050  0.67900  0.00000  1
 Nd  Nd3  1  0.80121  0.39758  0.50000  1
 Nd  Nd4  1  0.11728  0.76545  0.50000  1
