CIF file written using JARVIS-Tools package.
data_Rb2LiAsO4
_symmetry_space_group_name_H-M  'Cmc2_1'
_cell_length_a       5.8323
_cell_length_b       6.54739
_cell_length_c       7.9099
_cell_angle_alpha    90
_cell_angle_beta     90
_cell_angle_gamma    116.448

_symmetry_Int_Tables_number  36
_chemical_formula_structural  Rb2LiAsO4
_chemical_formula_sum  Rb4Li2As2O8
_cell_volume  270.4368869675012
_cell_formula_units_Z  2
loop_
  _symmetry_equiv_pos_site_id
 _symmetry_equiv_pos_as_xyz
 1  'x, y, z'
loop_
 _atom_site_type_symbol
 _atom_site_label
 _atom_site_symmetry_multiplicity
 _atom_site_fract_x
 _atom_site_fract_y
 _atom_site_fract_z
 _atom_site_fract_occupancy
 As  As1  1  0.68894  0.37787  0.05581  1
 As  As2  1  0.31106  0.62213  0.55581  1
 Li  Li1  1  0.79664  0.59328  0.76882  1
 Li  Li2  1  0.20336  0.40672  0.26882  1
 O  O1  1  0.40233  0.28439  0.16167  1
 O  O2  1  0.59767  0.71561  0.66167  1
 O  O3  1  0.63327  0.26655  0.85287  1
 O  O4  1  0.36673  0.73345  0.35287  1
 O  O5  1  0.88206  0.28439  0.16167  1
 O  O6  1  0.11794  0.71561  0.66167  1
 O  O7  1  0.16484  0.32969  0.52350  1
 O  O8  1  0.83516  0.67031  0.02350  1
 Rb  Rb1  1  0.05766  0.11532  0.84845  1
 Rb  Rb2  1  0.94234  0.88468  0.34845  1
 Rb  Rb3  1  0.60351  0.20702  0.49812  1
 Rb  Rb4  1  0.39649  0.79298  0.99812  1
