CIF file written using JARVIS-Tools package.
data_B13C2
_symmetry_space_group_name_H-M  'R-3m'
_cell_length_a       5.19655
_cell_length_b       5.19655
_cell_length_c       5.19655
_cell_angle_alpha    65.943
_cell_angle_beta     65.9429
_cell_angle_gamma    65.9429

_symmetry_Int_Tables_number  166
_chemical_formula_structural  B13C2
_chemical_formula_sum  B3C2
_cell_volume  111.9953875395629
_cell_formula_units_Z  1
loop_
  _symmetry_equiv_pos_site_id
 _symmetry_equiv_pos_as_xyz
 1  'x, y, z'
loop_
 _atom_site_type_symbol
 _atom_site_label
 _atom_site_symmetry_multiplicity
 _atom_site_fract_x
 _atom_site_fract_y
 _atom_site_fract_z
 _atom_site_fract_occupancy
 B  B1  1  0.50000  0.50000  0.50000  1
 B  B2  1  0.80368  0.31826  0.80368  1
 B  B3  1  0.80368  0.80368  0.31826  1
 B  B4  1  0.31826  0.80368  0.80368  1
 B  B5  1  0.68174  0.19632  0.19632  1
 B  B6  1  0.19632  0.68174  0.19632  1
 B  B7  1  0.19632  0.19632  0.68174  1
 B  B8  1  0.00764  0.32462  0.00764  1
 B  B9  1  0.00764  0.00764  0.32462  1
 B  B10  1  0.32462  0.00764  0.00764  1
 B  B11  1  0.67538  0.99236  0.99236  1
 B  B12  1  0.99236  0.67538  0.99236  1
 B  B13  1  0.99236  0.99236  0.67538  1
 C  C1  1  0.61868  0.61868  0.61868  1
 C  C2  1  0.38132  0.38132  0.38132  1
