CIF file written using JARVIS-Tools package.
data_CuH4I2O8
_symmetry_space_group_name_H-M  'P2_1/c'
_cell_length_a       6.64424
_cell_length_b       4.76387
_cell_length_c       11.3062
_cell_angle_alpha    90
_cell_angle_beta     103.633
_cell_angle_gamma    90

_symmetry_Int_Tables_number  14
_chemical_formula_structural  CuH4I2O8
_chemical_formula_sum  Cu2H8I4O6
_cell_volume  347.785134824806
_cell_formula_units_Z  2
loop_
  _symmetry_equiv_pos_site_id
 _symmetry_equiv_pos_as_xyz
 1  'x, y, z'
loop_
 _atom_site_type_symbol
 _atom_site_label
 _atom_site_symmetry_multiplicity
 _atom_site_fract_x
 _atom_site_fract_y
 _atom_site_fract_z
 _atom_site_fract_occupancy
 Cu  Cu1  1  0.00000  0.50000  0.50000  1
 Cu  Cu2  1  0.00000  0.00000  0.00000  1
 H  H1  1  0.18153  0.58703  0.92327  1
 H  H2  1  0.18153  0.91297  0.42327  1
 H  H3  1  0.34497  0.76147  0.53783  1
 H  H4  1  0.65503  0.26147  0.96217  1
 H  H5  1  0.34497  0.73853  0.03783  1
 H  H6  1  0.65503  0.23853  0.46217  1
 H  H7  1  0.81847  0.08703  0.57673  1
 H  H8  1  0.81847  0.41297  0.07673  1
 I  I1  1  0.26137  0.37092  0.26582  1
 I  I2  1  0.26137  0.12908  0.76582  1
 I  I3  1  0.73863  0.87092  0.23418  1
 I  I4  1  0.73863  0.62908  0.73418  1
 O  O1  1  0.48562  0.34419  0.84051  1
 O  O2  1  0.77269  0.22667  0.03649  1
 O  O3  1  0.22731  0.77333  0.96351  1
 O  O4  1  0.07112  0.18002  0.33321  1
 O  O5  1  0.21499  0.28948  0.61310  1
 O  O6  1  0.22731  0.72667  0.46351  1
 O  O7  1  0.07112  0.31998  0.83321  1
 O  O8  1  0.48562  0.15581  0.34051  1
 O  O9  1  0.78501  0.78948  0.88690  1
 O  O10  1  0.51438  0.65581  0.15949  1
 O  O11  1  0.77269  0.27333  0.53649  1
 O  O12  1  0.78501  0.71052  0.38690  1
 O  O13  1  0.92888  0.81998  0.66679  1
 O  O14  1  0.21499  0.21052  0.11310  1
 O  O15  1  0.51438  0.84419  0.65949  1
 O  O16  1  0.92888  0.68002  0.16679  1
