CIF file written using JARVIS-Tools package.
data_LuH2ClO2
_symmetry_space_group_name_H-M  'Pnma'
_cell_length_a       12.6016
_cell_length_b       3.48611
_cell_length_c       6.16193
_cell_angle_alpha    90
_cell_angle_beta     90
_cell_angle_gamma    90

_symmetry_Int_Tables_number  62
_chemical_formula_structural  LuH2ClO2
_chemical_formula_sum  Lu4H8Cl4O8
_cell_volume  270.69869836390257
_cell_formula_units_Z  4
loop_
  _symmetry_equiv_pos_site_id
 _symmetry_equiv_pos_as_xyz
 1  'x, y, z'
loop_
 _atom_site_type_symbol
 _atom_site_label
 _atom_site_symmetry_multiplicity
 _atom_site_fract_x
 _atom_site_fract_y
 _atom_site_fract_z
 _atom_site_fract_occupancy
 Cl  Cl1  1  0.28768  0.75000  0.88412  1
 Cl  Cl2  1  0.78767  0.75000  0.61588  1
 Cl  Cl3  1  0.21232  0.25000  0.38412  1
 Cl  Cl4  1  0.71232  0.25000  0.11588  1
 H  H1  1  0.34535  0.75000  0.45405  1
 H  H2  1  0.62027  0.75000  0.81053  1
 H  H3  1  0.12027  0.75000  0.68947  1
 H  H4  1  0.65465  0.25000  0.54595  1
 H  H5  1  0.15465  0.25000  0.95405  1
 H  H6  1  0.87973  0.25000  0.31053  1
 H  H7  1  0.37973  0.25000  0.18947  1
 H  H8  1  0.84535  0.75000  0.04595  1
 Lu  Lu1  1  0.05166  0.75000  0.24968  1
 Lu  Lu2  1  0.94834  0.25000  0.75032  1
 Lu  Lu3  1  0.44834  0.25000  0.74968  1
 Lu  Lu4  1  0.55166  0.75000  0.25032  1
 O  O1  1  0.54780  0.75000  0.86998  1
 O  O2  1  0.08021  0.25000  0.00139  1
 O  O3  1  0.45220  0.25000  0.13002  1
 O  O4  1  0.95220  0.25000  0.36998  1
 O  O5  1  0.58021  0.25000  0.49861  1
 O  O6  1  0.41979  0.75000  0.50139  1
 O  O7  1  0.04780  0.75000  0.63002  1
 O  O8  1  0.91979  0.75000  0.99861  1
