CIF file written using JARVIS-Tools package.
data_BaP4Pd2
_symmetry_space_group_name_H-M  'I4/mmm'
_cell_length_a       5.73041
_cell_length_b       5.7304
_cell_length_c       5.7304
_cell_angle_alpha    106.15
_cell_angle_beta     106.15
_cell_angle_gamma    116.341

_symmetry_Int_Tables_number  139
_chemical_formula_structural  BaP4Pd2
_chemical_formula_sum  BaP4Pd2
_cell_volume  143.2750794464621
_cell_formula_units_Z  1
loop_
  _symmetry_equiv_pos_site_id
 _symmetry_equiv_pos_as_xyz
 1  'x, y, z'
loop_
 _atom_site_type_symbol
 _atom_site_label
 _atom_site_symmetry_multiplicity
 _atom_site_fract_x
 _atom_site_fract_y
 _atom_site_fract_z
 _atom_site_fract_occupancy
 Ba  Ba1  1  0.00000  0.00000  0.00000  1
 P  P1  1  0.50000  0.27234  0.77234  1
 P  P2  1  0.27234  0.50000  0.77234  1
 P  P3  1  0.72766  0.50000  0.22766  1
 P  P4  1  0.50000  0.72766  0.22766  1
 Pd  Pd1  1  0.75000  0.25000  0.50000  1
 Pd  Pd2  1  0.25000  0.75000  0.50000  1
