CIF file written using JARVIS-Tools package.
data_YFeO3
_symmetry_space_group_name_H-M  'P6_3cm'
_cell_length_a       6.15282
_cell_length_b       6.15282
_cell_length_c       11.4703
_cell_angle_alpha    90
_cell_angle_beta     90
_cell_angle_gamma    120

_symmetry_Int_Tables_number  185
_chemical_formula_structural  YFeO3
_chemical_formula_sum  Y6Fe6O8
_cell_volume  376.05902766638485
_cell_formula_units_Z  6
loop_
  _symmetry_equiv_pos_site_id
 _symmetry_equiv_pos_as_xyz
 1  'x, y, z'
loop_
 _atom_site_type_symbol
 _atom_site_label
 _atom_site_symmetry_multiplicity
 _atom_site_fract_x
 _atom_site_fract_y
 _atom_site_fract_z
 _atom_site_fract_occupancy
 Fe  Fe1  1  0.00000  0.33405  0.49884  1
 Fe  Fe2  1  -0.00000  0.66595  0.99884  1
 Fe  Fe3  1  0.66595  0.66595  0.49884  1
 Fe  Fe4  1  0.33405  0.33405  0.99884  1
 Fe  Fe5  1  0.33405  0.00000  0.49884  1
 Fe  Fe6  1  0.66595  -0.00000  0.99884  1
 O  O1  1  0.66667  0.33333  0.47944  1
 O  O2  1  0.36039  0.36039  0.16186  1
 O  O3  1  0.00000  0.00000  0.52103  1
 O  O4  1  0.00000  0.30562  0.33491  1
 O  O5  1  0.00000  0.00000  0.02103  1
 O  O6  1  0.33333  0.66667  0.97944  1
 O  O7  1  0.69438  -0.00000  0.83491  1
 O  O8  1  0.33333  0.66667  0.47944  1
 O  O9  1  0.66667  0.33333  0.97944  1
 O  O10  1  -0.00000  0.36039  0.66186  1
 O  O11  1  0.63961  0.00000  0.16186  1
 O  O12  1  0.69438  0.69438  0.33491  1
 O  O13  1  0.30562  0.30562  0.83491  1
 O  O14  1  0.30562  0.00000  0.33491  1
 O  O15  1  0.36039  -0.00000  0.66186  1
 O  O16  1  -0.00000  0.69438  0.83491  1
 O  O17  1  0.00000  0.63961  0.16186  1
 O  O18  1  0.63961  0.63961  0.66186  1
 Y  Y1  1  0.00000  0.00000  0.72220  1
 Y  Y2  1  0.00000  0.00000  0.22220  1
 Y  Y3  1  0.33333  0.66667  0.76802  1
 Y  Y4  1  0.66667  0.33333  0.26802  1
 Y  Y5  1  0.33333  0.66667  0.26802  1
 Y  Y6  1  0.66667  0.33333  0.76802  1
