CIF file written using JARVIS-Tools package.
data_YVO3
_symmetry_space_group_name_H-M  'P6_3cm'
_cell_length_a       5.97227
_cell_length_b       5.97227
_cell_length_c       12.1025
_cell_angle_alpha    90
_cell_angle_beta     90
_cell_angle_gamma    120

_symmetry_Int_Tables_number  185
_chemical_formula_structural  YVO3
_chemical_formula_sum  Y6V6O8
_cell_volume  373.8394140214559
_cell_formula_units_Z  6
loop_
  _symmetry_equiv_pos_site_id
 _symmetry_equiv_pos_as_xyz
 1  'x, y, z'
loop_
 _atom_site_type_symbol
 _atom_site_label
 _atom_site_symmetry_multiplicity
 _atom_site_fract_x
 _atom_site_fract_y
 _atom_site_fract_z
 _atom_site_fract_occupancy
 O  O1  1  -0.00000  0.30343  0.33562  1
 O  O2  1  0.66667  0.33333  0.98289  1
 O  O3  1  0.33333  0.66667  0.48289  1
 O  O4  1  0.69657  0.00000  0.83562  1
 O  O5  1  0.33333  0.66667  0.98289  1
 O  O6  1  0.00000  0.00000  0.01899  1
 O  O7  1  0.00000  0.00000  0.51899  1
 O  O8  1  0.36236  0.36236  0.16079  1
 O  O9  1  0.66667  0.33333  0.48289  1
 O  O10  1  0.00000  0.36236  0.66079  1
 O  O11  1  0.63764  -0.00000  0.16079  1
 O  O12  1  0.63764  0.63764  0.66079  1
 O  O13  1  0.30343  0.30343  0.83562  1
 O  O14  1  0.30343  -0.00000  0.33562  1
 O  O15  1  0.69657  0.69657  0.33562  1
 O  O16  1  0.00000  0.69657  0.83562  1
 O  O17  1  -0.00000  0.63764  0.16079  1
 O  O18  1  0.36236  0.00000  0.66079  1
 V  V1  1  0.00000  0.66508  -0.00116  1
 V  V2  1  0.66508  0.66508  0.49884  1
 V  V3  1  0.66508  0.00000  -0.00116  1
 V  V4  1  -0.00000  0.33492  0.49884  1
 V  V5  1  0.33492  -0.00000  0.49884  1
 V  V6  1  0.33492  0.33492  -0.00116  1
 Y  Y1  1  0.00000  0.00000  0.72076  1
 Y  Y2  1  0.00000  0.00000  0.22076  1
 Y  Y3  1  0.33333  0.66667  0.76686  1
 Y  Y4  1  0.66667  0.33333  0.26686  1
 Y  Y5  1  0.33333  0.66667  0.26686  1
 Y  Y6  1  0.66667  0.33333  0.76686  1
