CIF file written using JARVIS-Tools package.
data_BiSeCl
_symmetry_space_group_name_H-M  'Pnma'
_cell_length_a       4.23309
_cell_length_b       8.34789
_cell_length_c       9.25292
_cell_angle_alpha    90
_cell_angle_beta     90
_cell_angle_gamma    90

_symmetry_Int_Tables_number  62
_chemical_formula_structural  BiSeCl
_chemical_formula_sum  Bi4Se4Cl4
_cell_volume  326.9737584706288
_cell_formula_units_Z  4
loop_
  _symmetry_equiv_pos_site_id
 _symmetry_equiv_pos_as_xyz
 1  'x, y, z'
loop_
 _atom_site_type_symbol
 _atom_site_label
 _atom_site_symmetry_multiplicity
 _atom_site_fract_x
 _atom_site_fract_y
 _atom_site_fract_z
 _atom_site_fract_occupancy
 Bi  Bi1  1  0.25000  0.18745  0.09433  1
 Bi  Bi2  1  0.75000  0.31255  0.59433  1
 Bi  Bi3  1  0.75000  0.81255  0.90567  1
 Bi  Bi4  1  0.25000  0.68745  0.40567  1
 Cl  Cl1  1  0.75000  0.35085  0.93398  1
 Cl  Cl2  1  0.75000  0.85085  0.56602  1
 Cl  Cl3  1  0.25000  0.64915  0.06602  1
 Cl  Cl4  1  0.25000  0.14915  0.43398  1
 Se  Se1  1  0.25000  0.53066  0.67182  1
 Se  Se2  1  0.25000  0.03066  0.82818  1
 Se  Se3  1  0.75000  0.46934  0.32818  1
 Se  Se4  1  0.75000  0.96934  0.17182  1
