CIF file written using JARVIS-Tools package.
data_Mg2Bi2O5
_symmetry_space_group_name_H-M  'P2_1/c'
_cell_length_a       4.9196
_cell_length_b       5.32949
_cell_length_c       12.8343
_cell_angle_alpha    90
_cell_angle_beta     123.794
_cell_angle_gamma    90

_symmetry_Int_Tables_number  14
_chemical_formula_structural  Mg2Bi2O5
_chemical_formula_sum  Mg4Bi4O0
_cell_volume  279.6477153557787
_cell_formula_units_Z  2
loop_
  _symmetry_equiv_pos_site_id
 _symmetry_equiv_pos_as_xyz
 1  'x, y, z'
loop_
 _atom_site_type_symbol
 _atom_site_label
 _atom_site_symmetry_multiplicity
 _atom_site_fract_x
 _atom_site_fract_y
 _atom_site_fract_z
 _atom_site_fract_occupancy
 Bi  Bi1  1  -0.15209  0.67513  0.29633  1
 Bi  Bi2  1  0.15209  0.32487  0.70367  1
 Bi  Bi3  1  -0.15209  0.82487  0.79633  1
 Bi  Bi4  1  0.15209  0.17513  0.20367  1
 Mg  Mg1  1  0.64113  0.77156  -0.00336  1
 Mg  Mg2  1  0.35887  0.22844  0.00336  1
 Mg  Mg3  1  0.35887  0.27156  0.50336  1
 Mg  Mg4  1  0.64113  0.72844  0.49664  1
 O  O1  1  0.00000  0.00000  0.00000  1
 O  O2  1  -0.22299  0.03233  0.61317  1
 O  O3  1  0.22299  0.53233  0.88683  1
 O  O4  1  -0.00000  0.50000  0.50000  1
 O  O5  1  0.29885  0.48083  0.36078  1
 O  O6  1  0.70115  -0.01917  0.13922  1
 O  O7  1  0.22299  -0.03233  0.38683  1
 O  O8  1  -0.22299  0.46767  0.11317  1
 O  O9  1  0.29885  0.01917  0.86078  1
 O  O10  1  0.70115  0.51917  0.63922  1
