CIF file written using JARVIS-Tools package.
data_TlFeSe2
_symmetry_space_group_name_H-M  'C2/m'
_cell_length_a       5.2809
_cell_length_b       6.52872
_cell_length_c       7.01018
_cell_angle_alpha    115.201
_cell_angle_beta     90
_cell_angle_gamma    113.856

_symmetry_Int_Tables_number  12
_chemical_formula_structural  TlFeSe2
_chemical_formula_sum  Tl2Fe2Se4
_cell_volume  195.6269245226864
_cell_formula_units_Z  2
loop_
  _symmetry_equiv_pos_site_id
 _symmetry_equiv_pos_as_xyz
 1  'x, y, z'
loop_
 _atom_site_type_symbol
 _atom_site_label
 _atom_site_symmetry_multiplicity
 _atom_site_fract_x
 _atom_site_fract_y
 _atom_site_fract_z
 _atom_site_fract_occupancy
 Fe  Fe1  1  0.24899  0.00000  -0.00000  1
 Fe  Fe2  1  0.75101  -0.00000  0.00000  1
 Se  Se1  1  0.53573  0.07147  0.28506  1
 Se  Se2  1  0.46427  0.92853  0.71494  1
 Se  Se3  1  0.16983  0.33966  0.07661  1
 Se  Se4  1  0.83017  0.66034  0.92339  1
 Tl  Tl1  1  0.82230  0.64460  0.37593  1
 Tl  Tl2  1  0.17770  0.35540  0.62407  1
