CIF file written using JARVIS-Tools package.
data_Ba3TiS5
_symmetry_space_group_name_H-M  'I4/mcm'
_cell_length_a       8.47755
_cell_length_b       8.47755
_cell_length_c       9.18104
_cell_angle_alpha    117.496
_cell_angle_beta     117.496
_cell_angle_gamma    90

_symmetry_Int_Tables_number  140
_chemical_formula_structural  Ba3TiS5
_chemical_formula_sum  Ba6Ti2S0
_cell_volume  499.770912764335
_cell_formula_units_Z  2
loop_
  _symmetry_equiv_pos_site_id
 _symmetry_equiv_pos_as_xyz
 1  'x, y, z'
loop_
 _atom_site_type_symbol
 _atom_site_label
 _atom_site_symmetry_multiplicity
 _atom_site_fract_x
 _atom_site_fract_y
 _atom_site_fract_z
 _atom_site_fract_occupancy
 Ba  Ba1  1  0.25000  0.25000  0.50000  1
 Ba  Ba2  1  0.33883  0.83883  -0.00000  1
 Ba  Ba3  1  0.16117  0.33883  0.00000  1
 Ba  Ba4  1  0.83883  0.66117  -0.00000  1
 Ba  Ba5  1  0.66117  0.16117  0.00000  1
 Ba  Ba6  1  0.75000  0.75000  0.50000  1
 S  S1  1  0.69827  0.19827  0.69518  1
 S  S2  1  0.99691  0.49691  0.69518  1
 S  S3  1  0.19827  0.99691  0.69518  1
 S  S4  1  0.49691  0.69827  0.69518  1
 S  S5  1  0.80173  0.00309  0.30482  1
 S  S6  1  0.50000  0.50000  0.00000  1
 S  S7  1  0.00309  0.50309  0.30482  1
 S  S8  1  0.30173  0.80173  0.30482  1
 S  S9  1  0.50309  0.30173  0.30482  1
 S  S10  1  0.00000  0.00000  0.00000  1
 Ti  Ti1  1  0.75000  0.25000  0.50000  1
 Ti  Ti2  1  0.25000  0.75000  0.50000  1
