CIF file written using JARVIS-Tools package.
data_Ga2Fe2S5
_symmetry_space_group_name_H-M  'R-3m'
_cell_length_a       15.1534
_cell_length_b       15.1534
_cell_length_c       15.1534
_cell_angle_alpha    13.7186
_cell_angle_beta     13.7186
_cell_angle_gamma    13.7186

_symmetry_Int_Tables_number  166
_chemical_formula_structural  Ga2Fe2S5
_chemical_formula_sum  Ga2Fe2S5
_cell_volume  170.28969377888876
_cell_formula_units_Z  1
loop_
  _symmetry_equiv_pos_site_id
 _symmetry_equiv_pos_as_xyz
 1  'x, y, z'
loop_
 _atom_site_type_symbol
 _atom_site_label
 _atom_site_symmetry_multiplicity
 _atom_site_fract_x
 _atom_site_fract_y
 _atom_site_fract_z
 _atom_site_fract_occupancy
 Fe  Fe1  1  0.13664  0.13664  0.13664  1
 Fe  Fe2  1  0.86336  0.86336  0.86336  1
 Ga  Ga1  1  0.72521  0.72521  0.72521  1
 Ga  Ga2  1  0.27479  0.27479  0.27479  1
 S  S1  1  0.63162  0.63162  0.63162  1
 S  S2  1  0.22522  0.22522  0.22522  1
 S  S3  1  0.36838  0.36838  0.36838  1
 S  S4  1  0.77478  0.77478  0.77478  1
 S  S5  1  0.50000  0.50000  0.50000  1
