CIF file written using JARVIS-Tools package.
data_NdCuS2
_symmetry_space_group_name_H-M  'P2_1/c'
_cell_length_a       6.49875
_cell_length_b       7.21837
_cell_length_c       6.89935
_cell_angle_alpha    90
_cell_angle_beta     97.6776
_cell_angle_gamma    90

_symmetry_Int_Tables_number  14
_chemical_formula_structural  NdCuS2
_chemical_formula_sum  Nd4Cu4S8
_cell_volume  320.74936038315263
_cell_formula_units_Z  4
loop_
  _symmetry_equiv_pos_site_id
 _symmetry_equiv_pos_as_xyz
 1  'x, y, z'
loop_
 _atom_site_type_symbol
 _atom_site_label
 _atom_site_symmetry_multiplicity
 _atom_site_fract_x
 _atom_site_fract_y
 _atom_site_fract_z
 _atom_site_fract_occupancy
 Cu  Cu1  1  0.42610  0.66326  0.95093  1
 Cu  Cu2  1  0.57390  0.33674  0.04907  1
 Cu  Cu3  1  0.57390  0.16326  0.54907  1
 Cu  Cu4  1  0.42610  0.83674  0.45093  1
 Nd  Nd1  1  0.80936  0.95005  0.19946  1
 Nd  Nd2  1  0.19064  0.45005  0.30054  1
 Nd  Nd3  1  0.19064  0.04995  0.80054  1
 Nd  Nd4  1  0.80936  0.54995  0.69946  1
 S  S1  1  0.08416  0.72584  0.99977  1
 S  S2  1  0.91584  0.22584  0.50023  1
 S  S3  1  0.91584  0.27416  0.00023  1
 S  S4  1  0.08416  0.77416  0.49977  1
 S  S5  1  0.40743  0.11334  0.22035  1
 S  S6  1  0.40743  0.38666  0.72035  1
 S  S7  1  0.59257  0.88666  0.77965  1
 S  S8  1  0.59257  0.61334  0.27965  1
