CIF file written using JARVIS-Tools package.
data_Li4Ti3O8
_symmetry_space_group_name_H-M  'C2/m'
_cell_length_a       5.98495
_cell_length_b       5.84566
_cell_length_c       5.84566
_cell_angle_alpha    61.0496
_cell_angle_beta     59.5064
_cell_angle_gamma    59.5064

_symmetry_Int_Tables_number  12
_chemical_formula_structural  Li4Ti3O8
_chemical_formula_sum  Li4Ti3O8
_cell_volume  144.61203559191654
_cell_formula_units_Z  1
loop_
  _symmetry_equiv_pos_site_id
 _symmetry_equiv_pos_as_xyz
 1  'x, y, z'
loop_
 _atom_site_type_symbol
 _atom_site_label
 _atom_site_symmetry_multiplicity
 _atom_site_fract_x
 _atom_site_fract_y
 _atom_site_fract_z
 _atom_site_fract_occupancy
 Li  Li1  1  0.12500  0.12500  0.12500  1
 Li  Li2  1  0.12500  0.12500  0.62500  1
 Li  Li3  1  0.12500  0.62500  0.12500  1
 Li  Li4  1  0.62500  0.62500  0.62500  1
 O  O1  1  0.38692  0.38021  0.38021  1
 O  O2  1  0.84382  0.37574  0.37574  1
 O  O3  1  0.36588  0.84467  0.38232  1
 O  O4  1  0.88412  0.86768  0.40533  1
 O  O5  1  0.88412  0.40533  0.86768  1
 O  O6  1  0.36588  0.38232  0.84467  1
 O  O7  1  0.40618  0.87426  0.87426  1
 O  O8  1  0.86308  0.86979  0.86979  1
 Ti  Ti1  1  0.62500  0.12500  0.62500  1
 Ti  Ti2  1  0.62500  0.62500  0.12500  1
 Ti  Ti3  1  0.12500  0.62500  0.62500  1
