CIF file written using JARVIS-Tools package.
data_CaV2O4
_symmetry_space_group_name_H-M  'R3m'
_cell_length_a       6.31559
_cell_length_b       6.08634
_cell_length_c       6.08634
_cell_angle_alpha    59.9999
_cell_angle_beta     61.1937
_cell_angle_gamma    61.1937

_symmetry_Int_Tables_number  160
_chemical_formula_structural  CaV2O4
_chemical_formula_sum  Ca2V4O8
_cell_volume  168.35101175594778
_cell_formula_units_Z  2
loop_
  _symmetry_equiv_pos_site_id
 _symmetry_equiv_pos_as_xyz
 1  'x, y, z'
loop_
 _atom_site_type_symbol
 _atom_site_label
 _atom_site_symmetry_multiplicity
 _atom_site_fract_x
 _atom_site_fract_y
 _atom_site_fract_z
 _atom_site_fract_occupancy
 Ca  Ca1  1  0.00670  -0.00224  -0.00224  1
 Ca  Ca2  1  0.12204  0.62599  0.62599  1
 O  O1  1  0.39799  0.36398  0.36398  1
 O  O2  1  0.39799  0.36398  0.87405  1
 O  O3  1  0.39799  0.87405  0.36398  1
 O  O4  1  0.88460  0.37180  0.37180  1
 O  O5  1  0.42920  0.85693  0.85693  1
 O  O6  1  0.82080  0.42434  0.87743  1
 O  O7  1  0.82080  0.87743  0.42434  1
 O  O8  1  0.82080  0.87743  0.87743  1
 V  V1  1  0.26279  0.24574  0.24574  1
 V  V2  1  0.62943  0.12098  0.62479  1
 V  V3  1  0.62943  0.62479  0.12098  1
 V  V4  1  0.62943  0.62479  0.62479  1
