CIF file written using JARVIS-Tools package.
data_KClO2
_symmetry_space_group_name_H-M  'Cmcm'
_cell_length_a       4.42053
_cell_length_b       4.42053
_cell_length_c       7.24853
_cell_angle_alpha    90
_cell_angle_beta     90
_cell_angle_gamma    91.4706

_symmetry_Int_Tables_number  63
_chemical_formula_structural  KClO2
_chemical_formula_sum  K2Cl2O4
_cell_volume  141.59743748403923
_cell_formula_units_Z  2
loop_
  _symmetry_equiv_pos_site_id
 _symmetry_equiv_pos_as_xyz
 1  'x, y, z'
loop_
 _atom_site_type_symbol
 _atom_site_label
 _atom_site_symmetry_multiplicity
 _atom_site_fract_x
 _atom_site_fract_y
 _atom_site_fract_z
 _atom_site_fract_occupancy
 Cl  Cl1  1  0.46945  0.53055  0.75000  1
 Cl  Cl2  1  0.53055  0.46945  0.25000  1
 K  K1  1  0.00000  0.00000  0.50000  1
 K  K2  1  0.00000  0.00000  0.00000  1
 O  O1  1  0.52977  0.88644  0.75000  1
 O  O2  1  0.47023  0.11356  0.25000  1
 O  O3  1  0.11356  0.47023  0.75000  1
 O  O4  1  0.88644  0.52977  0.25000  1
