CIF file written using JARVIS-Tools package.
data_CaMn2O4
_symmetry_space_group_name_H-M  'R3m'
_cell_length_a       6.32377
_cell_length_b       6.1346
_cell_length_c       6.1346
_cell_angle_alpha    60
_cell_angle_beta     60.9847
_cell_angle_gamma    60.9848

_symmetry_Int_Tables_number  160
_chemical_formula_structural  CaMn2O4
_chemical_formula_sum  Ca2Mn4O8
_cell_volume  170.7417669548146
_cell_formula_units_Z  2
loop_
  _symmetry_equiv_pos_site_id
 _symmetry_equiv_pos_as_xyz
 1  'x, y, z'
loop_
 _atom_site_type_symbol
 _atom_site_label
 _atom_site_symmetry_multiplicity
 _atom_site_fract_x
 _atom_site_fract_y
 _atom_site_fract_z
 _atom_site_fract_occupancy
 Ca  Ca1  1  0.97372  0.00876  0.00876  1
 Ca  Ca2  1  0.12896  0.62368  0.62368  1
 Mn  Mn1  1  0.27057  0.24314  0.24314  1
 Mn  Mn2  1  0.62327  0.12058  0.62808  1
 Mn  Mn3  1  0.62327  0.62808  0.12058  1
 Mn  Mn4  1  0.62327  0.62808  0.62808  1
 O  O1  1  0.43316  0.36686  0.36686  1
 O  O2  1  0.43316  0.36686  0.83313  1
 O  O3  1  0.43316  0.83313  0.36686  1
 O  O4  1  0.87639  0.37454  0.37454  1
 O  O5  1  0.40002  0.86666  0.86666  1
 O  O6  1  0.81036  0.43991  0.87487  1
 O  O7  1  0.81036  0.87487  0.43991  1
 O  O8  1  0.81036  0.87487  0.87487  1
