CIF file written using JARVIS-Tools package.
data_KHS
_symmetry_space_group_name_H-M  'P2_1/m'
_cell_length_a       4.28188
_cell_length_b       4.94303
_cell_length_c       6.54762
_cell_angle_alpha    90
_cell_angle_beta     101.427
_cell_angle_gamma    90

_symmetry_Int_Tables_number  11
_chemical_formula_structural  KHS
_chemical_formula_sum  K2H2S2
_cell_volume  135.83636001042615
_cell_formula_units_Z  2
loop_
  _symmetry_equiv_pos_site_id
 _symmetry_equiv_pos_as_xyz
 1  'x, y, z'
loop_
 _atom_site_type_symbol
 _atom_site_label
 _atom_site_symmetry_multiplicity
 _atom_site_fract_x
 _atom_site_fract_y
 _atom_site_fract_z
 _atom_site_fract_occupancy
 H  H1  1  0.46278  0.75000  0.60611  1
 H  H2  1  0.53722  0.25000  0.39389  1
 K  K1  1  0.76305  0.75000  0.23722  1
 K  K2  1  0.23695  0.25000  0.76278  1
 S  S1  1  0.74468  0.75000  0.74269  1
 S  S2  1  0.25532  0.25000  0.25731  1
