CIF file written using JARVIS-Tools package.
data_Sr3CuPtO6
_symmetry_space_group_name_H-M  'C2/c'
_cell_length_a       6.73431
_cell_length_b       6.78816
_cell_length_c       6.78816
_cell_angle_alpha    92.0288
_cell_angle_beta     90.7839
_cell_angle_gamma    90.7839

_symmetry_Int_Tables_number  15
_chemical_formula_structural  Sr3CuPtO6
_chemical_formula_sum  Sr6Cu2Pt2O2
_cell_volume  310.05615497668674
_cell_formula_units_Z  2
loop_
  _symmetry_equiv_pos_site_id
 _symmetry_equiv_pos_as_xyz
 1  'x, y, z'
loop_
 _atom_site_type_symbol
 _atom_site_label
 _atom_site_symmetry_multiplicity
 _atom_site_fract_x
 _atom_site_fract_y
 _atom_site_fract_z
 _atom_site_fract_occupancy
 Cu  Cu1  1  0.75000  0.30482  0.69518  1
 Cu  Cu2  1  0.25000  0.69518  0.30482  1
 O  O1  1  0.21475  0.89691  0.52472  1
 O  O2  1  0.03772  0.39579  0.71666  1
 O  O3  1  0.53772  0.71666  0.39579  1
 O  O4  1  0.96228  0.60421  0.28334  1
 O  O5  1  0.42878  0.07436  0.21679  1
 O  O6  1  0.07122  0.78321  0.92564  1
 O  O7  1  0.57122  0.92564  0.78321  1
 O  O8  1  0.92878  0.21679  0.07436  1
 O  O9  1  0.78525  0.10309  0.47528  1
 O  O10  1  0.28525  0.47528  0.10309  1
 O  O11  1  0.71475  0.52472  0.89691  1
 O  O12  1  0.46228  0.28334  0.60421  1
 Pt  Pt1  1  0.50000  0.00000  0.50000  1
 Pt  Pt2  1  0.00000  0.50000  0.00000  1
 Sr  Sr1  1  0.25000  0.10057  0.89943  1
 Sr  Sr2  1  0.75000  0.89943  0.10057  1
 Sr  Sr3  1  0.87763  0.75870  0.61164  1
 Sr  Sr4  1  0.62237  0.38836  0.24130  1
 Sr  Sr5  1  0.12237  0.24130  0.38836  1
 Sr  Sr6  1  0.37763  0.61164  0.75870  1
