CIF file written using JARVIS-Tools package.
data_NbCl5
_symmetry_space_group_name_H-M  'C2/m'
_cell_length_a       5.7971
_cell_length_b       12.7761
_cell_length_c       12.7761
_cell_angle_alpha    88.5144
_cell_angle_beta     89.6746
_cell_angle_gamma    89.6747

_symmetry_Int_Tables_number  12
_chemical_formula_structural  NbCl5
_chemical_formula_sum  Nb6Cl30
_cell_volume  945.9087454587816
_cell_formula_units_Z  6
loop_
  _symmetry_equiv_pos_site_id
 _symmetry_equiv_pos_as_xyz
 1  'x, y, z'
loop_
 _atom_site_type_symbol
 _atom_site_label
 _atom_site_symmetry_multiplicity
 _atom_site_fract_x
 _atom_site_fract_y
 _atom_site_fract_z
 _atom_site_fract_occupancy
 Cl  Cl1  1  0.71479  0.38597  0.38597  1
 Cl  Cl2  1  0.75074  0.46589  0.66178  1
 Cl  Cl3  1  0.75074  0.66178  0.46589  1
 Cl  Cl4  1  0.24926  0.53411  0.33822  1
 Cl  Cl5  1  0.73442  0.19708  0.58273  1
 Cl  Cl6  1  0.26558  0.41727  0.80292  1
 Cl  Cl7  1  0.75151  0.24981  0.86370  1
 Cl  Cl8  1  0.23074  0.94733  0.94733  1
 Cl  Cl9  1  0.25927  0.28068  0.28068  1
 Cl  Cl10  1  0.75151  0.86370  0.24981  1
 Cl  Cl11  1  0.23255  0.20070  0.00523  1
 Cl  Cl12  1  0.76745  0.99477  0.79930  1
 Cl  Cl13  1  0.76745  0.79930  0.99477  1
 Cl  Cl14  1  0.23255  0.00523  0.20070  1
 Cl  Cl15  1  0.76926  0.05267  0.05267  1
 Cl  Cl16  1  0.24849  0.13630  0.75019  1
 Cl  Cl17  1  0.24926  0.33822  0.53411  1
 Cl  Cl18  1  0.74073  0.71932  0.71932  1
 Cl  Cl19  1  0.75920  0.91642  0.53054  1
 Cl  Cl20  1  0.26558  0.80292  0.41727  1
 Cl  Cl21  1  0.73442  0.58273  0.19708  1
 Cl  Cl22  1  0.24849  0.75019  0.13630  1
 Cl  Cl23  1  0.24079  0.46946  0.08358  1
 Cl  Cl24  1  0.72475  0.13249  0.32793  1
 Cl  Cl25  1  0.28521  0.61403  0.61403  1
 Cl  Cl26  1  0.27525  0.86751  0.67207  1
 Cl  Cl27  1  0.72475  0.32793  0.13249  1
 Cl  Cl28  1  0.24079  0.08358  0.46946  1
 Cl  Cl29  1  0.75920  0.53054  0.91642  1
 Cl  Cl30  1  0.27525  0.67207  0.86751  1
 Nb  Nb1  1  0.51264  0.77834  0.55518  1
 Nb  Nb2  1  0.48736  0.44482  0.22166  1
 Nb  Nb3  1  -0.00000  0.88848  0.11152  1
 Nb  Nb4  1  0.51264  0.55518  0.77834  1
 Nb  Nb5  1  0.48736  0.22166  0.44482  1
 Nb  Nb6  1  0.00000  0.11152  0.88848  1
