CIF file written using JARVIS-Tools package.
data_SbOF
_symmetry_space_group_name_H-M  'Pnma'
_cell_length_a       12.6416
_cell_length_b       3.56886
_cell_length_c       3.98575
_cell_angle_alpha    90
_cell_angle_beta     90
_cell_angle_gamma    90

_symmetry_Int_Tables_number  62
_chemical_formula_structural  SbOF
_chemical_formula_sum  Sb4O4F4
_cell_volume  179.82155378095078
_cell_formula_units_Z  4
loop_
  _symmetry_equiv_pos_site_id
 _symmetry_equiv_pos_as_xyz
 1  'x, y, z'
loop_
 _atom_site_type_symbol
 _atom_site_label
 _atom_site_symmetry_multiplicity
 _atom_site_fract_x
 _atom_site_fract_y
 _atom_site_fract_z
 _atom_site_fract_occupancy
 F  F1  1  0.08574  0.75000  0.88125  1
 F  F2  1  0.41426  0.25000  0.38125  1
 F  F3  1  0.58574  0.75000  0.61875  1
 F  F4  1  0.91426  0.25000  0.11875  1
 O  O1  1  0.25161  0.75000  0.29181  1
 O  O2  1  0.24839  0.25000  0.79181  1
 O  O3  1  0.75161  0.75000  0.20819  1
 O  O4  1  0.74839  0.25000  0.70819  1
 Sb  Sb1  1  0.15073  0.25000  0.20215  1
 Sb  Sb2  1  0.34927  0.75000  0.70215  1
 Sb  Sb3  1  0.65073  0.25000  0.29785  1
 Sb  Sb4  1  0.84927  0.75000  0.79785  1
