CIF file written using JARVIS-Tools package.
data_SbH3OF6
_symmetry_space_group_name_H-M  'I2_13'
_cell_length_a       8.73901
_cell_length_b       8.73901
_cell_length_c       8.73901
_cell_angle_alpha    109.471
_cell_angle_beta     109.471
_cell_angle_gamma    109.471

_symmetry_Int_Tables_number  199
_chemical_formula_structural  SbH3OF6
_chemical_formula_sum  Sb4H2O4F24
_cell_volume  513.7668617476509
_cell_formula_units_Z  4
loop_
  _symmetry_equiv_pos_site_id
 _symmetry_equiv_pos_as_xyz
 1  'x, y, z'
loop_
 _atom_site_type_symbol
 _atom_site_label
 _atom_site_symmetry_multiplicity
 _atom_site_fract_x
 _atom_site_fract_y
 _atom_site_fract_z
 _atom_site_fract_occupancy
 F  F1  1  0.70224  0.04032  0.94652  1
 F  F2  1  0.55348  0.59380  0.75572  1
 F  F3  1  0.94652  0.70224  0.04032  1
 F  F4  1  0.74428  0.33809  0.79776  1
 F  F5  1  0.90620  0.45968  0.16191  1
 F  F6  1  0.33809  0.79776  0.74428  1
 F  F7  1  0.79776  0.74428  0.33809  1
 F  F8  1  0.41757  0.25098  0.46189  1
 F  F9  1  0.54432  0.83341  0.08243  1
 F  F10  1  0.04032  0.94652  0.70224  1
 F  F11  1  0.46189  0.41757  0.25098  1
 F  F12  1  0.24902  0.66659  0.21091  1
 F  F13  1  0.03811  0.28909  0.95568  1
 F  F14  1  0.21091  0.24902  0.66659  1
 F  F15  1  0.95568  0.03811  0.28909  1
 F  F16  1  0.83341  0.08243  0.54432  1
 F  F17  1  0.28909  0.95568  0.03811  1
 F  F18  1  0.75572  0.55348  0.59380  1
 F  F19  1  0.66659  0.21091  0.24902  1
 F  F20  1  0.08243  0.54432  0.83341  1
 F  F21  1  0.16191  0.90620  0.45968  1
 F  F22  1  0.59380  0.75572  0.55348  1
 F  F23  1  0.45968  0.16191  0.90620  1
 F  F24  1  0.25098  0.46189  0.41757  1
 H  H1  1  0.00170  0.97316  0.87223  1
 H  H2  1  0.97316  0.87223  0.00170  1
 H  H3  1  0.62777  0.60093  0.12946  1
 H  H4  1  0.49830  0.37054  0.97146  1
 H  H5  1  0.52684  0.52854  0.89907  1
 H  H6  1  0.87223  0.00170  0.97316  1
 H  H7  1  0.12946  0.62777  0.60093  1
 H  H8  1  0.89907  0.52684  0.52854  1
 H  H9  1  0.60093  0.12946  0.62777  1
 H  H10  1  0.37054  0.97146  0.49830  1
 H  H11  1  0.97146  0.49830  0.37054  1
 H  H12  1  0.52854  0.89907  0.52684  1
 O  O1  1  0.50000  0.00000  0.52143  1
 O  O2  1  -0.00000  0.52143  0.50000  1
 O  O3  1  0.52143  0.50000  -0.00000  1
 O  O4  1  0.97857  0.97857  0.97857  1
 Sb  Sb1  1  0.49622  0.49622  0.49622  1
 Sb  Sb2  1  0.00378  0.50000  -0.00000  1
 Sb  Sb3  1  -0.00000  0.00378  0.50000  1
 Sb  Sb4  1  0.50000  0.00000  0.00378  1
