CIF file written using JARVIS-Tools package.
data_Mg2Ti2O5
_symmetry_space_group_name_H-M  'Pmc2_1'
_cell_length_a       5.99605
_cell_length_b       3.18457
_cell_length_c       11.0826
_cell_angle_alpha    90
_cell_angle_beta     90.0023
_cell_angle_gamma    90

_symmetry_Int_Tables_number  26
_chemical_formula_structural  Mg2Ti2O5
_chemical_formula_sum  Mg4Ti4O0
_cell_volume  211.6213606976907
_cell_formula_units_Z  2
loop_
  _symmetry_equiv_pos_site_id
 _symmetry_equiv_pos_as_xyz
 1  'x, y, z'
loop_
 _atom_site_type_symbol
 _atom_site_label
 _atom_site_symmetry_multiplicity
 _atom_site_fract_x
 _atom_site_fract_y
 _atom_site_fract_z
 _atom_site_fract_occupancy
 Mg  Mg1  1  0.75698  0.50000  0.09571  1
 Mg  Mg2  1  0.42720  0.50000  0.87816  1
 Mg  Mg3  1  0.07275  0.50000  0.37815  1
 Mg  Mg4  1  0.74304  0.50000  0.59572  1
 O  O1  1  -0.00293  0.00000  0.05959  1
 O  O2  1  0.87434  0.00000  0.69743  1
 O  O3  1  0.28292  0.00000  0.81194  1
 O  O4  1  0.50295  0.00000  0.55962  1
 O  O5  1  0.74634  0.50000  0.90509  1
 O  O6  1  0.38453  0.50000  0.05228  1
 O  O7  1  0.75363  0.50000  0.40510  1
 O  O8  1  0.62571  0.00000  0.19742  1
 O  O9  1  0.21705  0.00000  0.31194  1
 O  O10  1  0.11549  0.50000  0.55227  1
 Ti  Ti1  1  0.28374  0.00000  0.13411  1
 Ti  Ti2  1  0.94585  0.00000  0.86568  1
 Ti  Ti3  1  0.21628  0.00000  0.63411  1
 Ti  Ti4  1  0.55413  0.00000  0.36567  1
