CIF file written using JARVIS-Tools package.
data_CeU5O12
_symmetry_space_group_name_H-M  'C2/m'
_cell_length_a       6.64989
_cell_length_b       6.64836
_cell_length_c       6.64814
_cell_angle_alpha    119.999
_cell_angle_beta     109.462
_cell_angle_gamma    80.4104

_symmetry_Int_Tables_number  12
_chemical_formula_structural  CeU5O12
_chemical_formula_sum  CeU5O2
_cell_volume  240.0003292357389
_cell_formula_units_Z  1
loop_
  _symmetry_equiv_pos_site_id
 _symmetry_equiv_pos_as_xyz
 1  'x, y, z'
loop_
 _atom_site_type_symbol
 _atom_site_label
 _atom_site_symmetry_multiplicity
 _atom_site_fract_x
 _atom_site_fract_y
 _atom_site_fract_z
 _atom_site_fract_occupancy
 Ce  Ce1  1  0.50000  0.66667  0.83333  1
 O  O1  1  0.62927  0.66667  0.21695  1
 O  O2  1  0.87662  0.33178  0.29072  1
 O  O3  1  0.62886  0.00607  0.87561  1
 O  O4  1  0.88335  0.66667  0.96259  1
 O  O5  1  0.12338  0.33178  0.04107  1
 O  O6  1  0.37114  0.00607  0.13046  1
 O  O7  1  0.37073  0.66667  0.44972  1
 O  O8  1  0.62886  0.32726  0.53621  1
 O  O9  1  0.11665  0.66667  0.70408  1
 O  O10  1  0.12337  0.00155  0.37595  1
 O  O11  1  0.87663  0.00155  0.62560  1
 O  O12  1  0.37114  0.32726  0.79106  1
 U  U1  1  0.00000  0.33336  0.66668  1
 U  U2  1  -0.00000  0.66667  0.33333  1
 U  U3  1  -0.00000  -0.00003  -0.00001  1
 U  U4  1  0.50000  0.00012  0.50006  1
 U  U5  1  0.50000  0.33322  0.16661  1
