CIF file written using JARVIS-Tools package.
data_Na5Zr2F13
_symmetry_space_group_name_H-M  'C2/m'
_cell_length_a       5.64868
_cell_length_b       6.53874
_cell_length_c       9.12415
_cell_angle_alpha    92.8294
_cell_angle_beta     90
_cell_angle_gamma    115.591

_symmetry_Int_Tables_number  12
_chemical_formula_structural  Na5Zr2F13
_chemical_formula_sum  Na5Zr2F3
_cell_volume  303.48824100558784
_cell_formula_units_Z  1
loop_
  _symmetry_equiv_pos_site_id
 _symmetry_equiv_pos_as_xyz
 1  'x, y, z'
loop_
 _atom_site_type_symbol
 _atom_site_label
 _atom_site_symmetry_multiplicity
 _atom_site_fract_x
 _atom_site_fract_y
 _atom_site_fract_z
 _atom_site_fract_occupancy
 F  F1  1  0.63850  0.70527  0.60639  1
 F  F2  1  0.72409  0.88908  0.26916  1
 F  F3  1  0.00000  0.00000  0.00000  1
 F  F4  1  0.94268  0.34954  0.11079  1
 F  F5  1  0.59314  0.65046  0.88921  1
 F  F6  1  0.05732  0.65046  0.88921  1
 F  F7  1  0.40686  0.34954  0.11079  1
 F  F8  1  0.93323  0.29473  0.39361  1
 F  F9  1  0.36150  0.29473  0.39361  1
 F  F10  1  0.06677  0.70527  0.60639  1
 F  F11  1  0.16498  0.88908  0.26916  1
 F  F12  1  0.83502  0.11092  0.73084  1
 F  F13  1  0.27591  0.11092  0.73084  1
 Na  Na1  1  0.19073  0.38146  0.88817  1
 Na  Na2  1  0.33741  0.67482  0.42159  1
 Na  Na3  1  0.00000  0.00000  0.50000  1
 Na  Na4  1  0.66259  0.32518  0.57841  1
 Na  Na5  1  0.80927  0.61854  0.11183  1
 Zr  Zr1  1  0.91839  0.83678  0.78049  1
 Zr  Zr2  1  0.08161  0.16322  0.21951  1
