CIF file written using JARVIS-Tools package.
data_Tm2SeO2
_symmetry_space_group_name_H-M  'I4/mmm'
_cell_length_a       3.76501
_cell_length_b       6.50545
_cell_length_c       3.76501
_cell_angle_alpha    73.1795
_cell_angle_beta     90
_cell_angle_gamma    106.82

_symmetry_Int_Tables_number  139
_chemical_formula_structural  Tm2SeO2
_chemical_formula_sum  Tm2SeO2
_cell_volume  84.1412809030178
_cell_formula_units_Z  1
loop_
  _symmetry_equiv_pos_site_id
 _symmetry_equiv_pos_as_xyz
 1  'x, y, z'
loop_
 _atom_site_type_symbol
 _atom_site_label
 _atom_site_symmetry_multiplicity
 _atom_site_fract_x
 _atom_site_fract_y
 _atom_site_fract_z
 _atom_site_fract_occupancy
 O  O1  1  0.25000  0.50000  0.25000  1
 O  O2  1  0.75000  0.50000  0.75000  1
 Se  Se1  1  0.00000  0.00000  0.00000  1
 Tm  Tm1  1  0.65673  0.31345  0.34327  1
 Tm  Tm2  1  0.34327  0.68655  0.65673  1
