CIF file written using JARVIS-Tools package.
data_K2NaGaP2
_symmetry_space_group_name_H-M  'Ibam'
_cell_length_a       6.41279
_cell_length_b       6.55709
_cell_length_c       8.58086
_cell_angle_alpha    112.463
_cell_angle_beta     111.942
_cell_angle_gamma    90

_symmetry_Int_Tables_number  72
_chemical_formula_structural  K2NaGaP2
_chemical_formula_sum  K4Na2Ga2P4
_cell_volume  304.9676412461906
_cell_formula_units_Z  2
loop_
  _symmetry_equiv_pos_site_id
 _symmetry_equiv_pos_as_xyz
 1  'x, y, z'
loop_
 _atom_site_type_symbol
 _atom_site_label
 _atom_site_symmetry_multiplicity
 _atom_site_fract_x
 _atom_site_fract_y
 _atom_site_fract_z
 _atom_site_fract_occupancy
 Ga  Ga1  1  0.25000  0.50000  0.00000  1
 Ga  Ga2  1  0.75000  0.50000  -0.00000  1
 K  K1  1  0.82547  0.06609  0.65094  1
 K  K2  1  0.17453  0.93391  0.34906  1
 K  K3  1  0.67453  0.41515  0.34906  1
 K  K4  1  0.32547  0.58485  0.65094  1
 Na  Na1  1  0.75000  -0.00000  -0.00000  1
 Na  Na2  1  0.25000  0.00000  0.00000  1
 P  P1  1  0.59406  0.79570  0.18811  1
 P  P2  1  0.40594  0.20430  0.81189  1
 P  P3  1  0.90594  0.60759  0.81189  1
 P  P4  1  0.09406  0.39241  0.18811  1
