CIF file written using JARVIS-Tools package.
data_Rb4CO4
_symmetry_space_group_name_H-M  'Amm2'
_cell_length_a       5.91806
_cell_length_b       5.91805
_cell_length_c       5.96318
_cell_angle_alpha    90
_cell_angle_beta     90
_cell_angle_gamma    116.134

_symmetry_Int_Tables_number  38
_chemical_formula_structural  Rb4CO4
_chemical_formula_sum  Rb4CO4
_cell_volume  187.49911268640076
_cell_formula_units_Z  1
loop_
  _symmetry_equiv_pos_site_id
 _symmetry_equiv_pos_as_xyz
 1  'x, y, z'
loop_
 _atom_site_type_symbol
 _atom_site_label
 _atom_site_symmetry_multiplicity
 _atom_site_fract_x
 _atom_site_fract_y
 _atom_site_fract_z
 _atom_site_fract_occupancy
 C  C1  1  0.64093  0.35907  0.50000  1
 O  O1  1  0.56344  0.43656  0.29955  1
 O  O2  1  0.54151  0.08782  0.50000  1
 O  O3  1  0.91218  0.45849  0.50000  1
 O  O4  1  0.56344  0.43656  0.70045  1
 Rb  Rb1  1  -0.06732  0.06732  0.26600  1
 Rb  Rb2  1  0.43461  0.06373  0.00000  1
 Rb  Rb3  1  -0.06373  0.56539  0.00000  1
 Rb  Rb4  1  -0.06732  0.06732  0.73400  1
