CIF file written using JARVIS-Tools package.
data_Tb3SbO7
_symmetry_space_group_name_H-M  'Cmcm'
_cell_length_a       6.48654
_cell_length_b       6.48654
_cell_length_c       7.54056
_cell_angle_alpha    90
_cell_angle_beta     90
_cell_angle_gamma    109.515

_symmetry_Int_Tables_number  63
_chemical_formula_structural  Tb3SbO7
_chemical_formula_sum  Tb6Sb2O4
_cell_volume  299.0447659323733
_cell_formula_units_Z  2
loop_
  _symmetry_equiv_pos_site_id
 _symmetry_equiv_pos_as_xyz
 1  'x, y, z'
loop_
 _atom_site_type_symbol
 _atom_site_label
 _atom_site_symmetry_multiplicity
 _atom_site_fract_x
 _atom_site_fract_y
 _atom_site_fract_z
 _atom_site_fract_occupancy
 O  O1  1  0.63017  0.36983  0.00000  1
 O  O2  1  0.07001  0.92999  0.00000  1
 O  O3  1  0.36353  0.63647  0.00000  1
 O  O4  1  0.63647  0.36353  0.50000  1
 O  O5  1  0.67824  0.92713  0.77996  1
 O  O6  1  0.36983  0.63017  0.50000  1
 O  O7  1  0.07287  0.32176  0.22004  1
 O  O8  1  0.07282  0.32172  0.78000  1
 O  O9  1  0.32172  0.07282  0.72000  1
 O  O10  1  0.92718  0.67828  0.28000  1
 O  O11  1  0.92999  0.07001  0.50000  1
 O  O12  1  0.92713  0.67824  0.72004  1
 O  O13  1  0.32176  0.07287  0.27996  1
 O  O14  1  0.67828  0.92718  0.22000  1
 Sb  Sb1  1  -0.00001  -0.00001  0.75000  1
 Sb  Sb2  1  0.00001  0.00001  0.25000  1
 Tb  Tb1  1  0.46765  0.00008  -0.00002  1
 Tb  Tb2  1  -0.00008  0.53235  0.00002  1
 Tb  Tb3  1  0.49997  0.49997  0.25000  1
 Tb  Tb4  1  0.50003  0.50003  0.75000  1
 Tb  Tb5  1  0.53235  -0.00008  0.49998  1
 Tb  Tb6  1  0.00008  0.46765  0.50002  1
