CIF file written using JARVIS-Tools package.
data_LiCa4B3N6
_symmetry_space_group_name_H-M  'Im-3m'
_cell_length_a       6.14601
_cell_length_b       6.146
_cell_length_c       6.14601
_cell_angle_alpha    109.471
_cell_angle_beta     109.471
_cell_angle_gamma    109.471

_symmetry_Int_Tables_number  229
_chemical_formula_structural  LiCa4B3N6
_chemical_formula_sum  LiCa4B3N6
_cell_volume  178.7134596730922
_cell_formula_units_Z  1
loop_
  _symmetry_equiv_pos_site_id
 _symmetry_equiv_pos_as_xyz
 1  'x, y, z'
loop_
 _atom_site_type_symbol
 _atom_site_label
 _atom_site_symmetry_multiplicity
 _atom_site_fract_x
 _atom_site_fract_y
 _atom_site_fract_z
 _atom_site_fract_occupancy
 B  B1  1  0.50000  0.50000  0.00000  1
 B  B2  1  0.50000  0.00000  0.50000  1
 B  B3  1  -0.00000  0.50000  0.50000  1
 Ca  Ca1  1  0.50000  0.50000  0.50000  1
 Ca  Ca2  1  0.00000  0.00000  0.50000  1
 Ca  Ca3  1  -0.00000  0.50000  0.00000  1
 Ca  Ca4  1  0.50000  0.00000  0.00000  1
 Li  Li1  1  0.00000  0.00000  0.00000  1
 N  N1  1  -0.00000  0.31171  0.31171  1
 N  N2  1  0.00000  0.68829  0.68829  1
 N  N3  1  0.31171  0.31171  -0.00000  1
 N  N4  1  0.68829  0.00000  0.68829  1
 N  N5  1  0.31171  -0.00000  0.31171  1
 N  N6  1  0.68829  0.68829  0.00000  1
