CIF file written using JARVIS-Tools package.
data_Cu2Ag2O3
_symmetry_space_group_name_H-M  'I4_1/amd'
_cell_length_a       5.96208
_cell_length_b       5.96208
_cell_length_c       6.81171
_cell_angle_alpha    115.953
_cell_angle_beta     115.953
_cell_angle_gamma    90

_symmetry_Int_Tables_number  141
_chemical_formula_structural  Cu2Ag2O3
_chemical_formula_sum  Cu4Ag4O6
_cell_volume  190.18533766564667
_cell_formula_units_Z  2
loop_
  _symmetry_equiv_pos_site_id
 _symmetry_equiv_pos_as_xyz
 1  'x, y, z'
loop_
 _atom_site_type_symbol
 _atom_site_label
 _atom_site_symmetry_multiplicity
 _atom_site_fract_x
 _atom_site_fract_y
 _atom_site_fract_z
 _atom_site_fract_occupancy
 Ag  Ag1  1  0.00000  0.50000  -0.00000  1
 Ag  Ag2  1  -0.00000  0.00000  0.50000  1
 Ag  Ag3  1  0.50000  0.00000  0.50000  1
 Ag  Ag4  1  0.00000  0.00000  0.00000  1
 Cu  Cu1  1  0.50000  0.50000  0.50000  1
 Cu  Cu2  1  0.50000  0.00000  -0.00000  1
 Cu  Cu3  1  0.50000  0.50000  -0.00000  1
 Cu  Cu4  1  0.00000  0.50000  0.50000  1
 O  O1  1  0.62500  0.37500  0.25000  1
 O  O2  1  0.37500  0.62500  0.75000  1
 O  O3  1  0.61381  0.86381  0.22762  1
 O  O4  1  0.86381  0.61381  0.72762  1
 O  O5  1  0.13619  0.38619  0.27238  1
 O  O6  1  0.38619  0.13619  0.77238  1
