CIF file written using JARVIS-Tools package.
data_Cr2Te3
_symmetry_space_group_name_H-M  'P-31c'
_cell_length_a       6.87113
_cell_length_b       6.87113
_cell_length_c       12.2879
_cell_angle_alpha    90
_cell_angle_beta     90
_cell_angle_gamma    120

_symmetry_Int_Tables_number  163
_chemical_formula_structural  Cr2Te3
_chemical_formula_sum  Cr8Te2
_cell_volume  502.41579296906434
_cell_formula_units_Z  4
loop_
  _symmetry_equiv_pos_site_id
 _symmetry_equiv_pos_as_xyz
 1  'x, y, z'
loop_
 _atom_site_type_symbol
 _atom_site_label
 _atom_site_symmetry_multiplicity
 _atom_site_fract_x
 _atom_site_fract_y
 _atom_site_fract_z
 _atom_site_fract_occupancy
 Cr  Cr1  1  0.66667  0.33333  0.75000  1
 Cr  Cr2  1  0.33333  0.66667  0.25000  1
 Cr  Cr3  1  0.00000  0.00000  0.00000  1
 Cr  Cr4  1  0.00000  0.00000  0.50000  1
 Cr  Cr5  1  0.66667  0.33333  0.00655  1
 Cr  Cr6  1  0.66667  0.33333  0.49345  1
 Cr  Cr7  1  0.33333  0.66667  0.99345  1
 Cr  Cr8  1  0.33333  0.66667  0.50655  1
 Te  Te1  1  0.33266  0.00260  0.62362  1
 Te  Te2  1  0.33006  0.99740  0.12362  1
 Te  Te3  1  0.99740  0.33006  0.62362  1
 Te  Te4  1  0.33266  0.33006  0.87638  1
 Te  Te5  1  0.66994  0.66734  0.62362  1
 Te  Te6  1  0.00260  0.66994  0.37638  1
 Te  Te7  1  0.66734  0.99740  0.37638  1
 Te  Te8  1  0.33006  0.33266  0.37638  1
 Te  Te9  1  0.66994  0.00260  0.87638  1
 Te  Te10  1  0.66734  0.66994  0.12362  1
 Te  Te11  1  0.99740  0.66734  0.87638  1
 Te  Te12  1  0.00260  0.33266  0.12362  1
