CIF file written using JARVIS-Tools package.
data_BiBr3
_symmetry_space_group_name_H-M  'P2_1/c'
_cell_length_a       6.76508
_cell_length_b       8.05973
_cell_length_c       9.78398
_cell_angle_alpha    90
_cell_angle_beta     90
_cell_angle_gamma    108.419

_symmetry_Int_Tables_number  14
_chemical_formula_structural  BiBr3
_chemical_formula_sum  Bi4Br2
_cell_volume  506.1401741819903
_cell_formula_units_Z  4
loop_
  _symmetry_equiv_pos_site_id
 _symmetry_equiv_pos_as_xyz
 1  'x, y, z'
loop_
 _atom_site_type_symbol
 _atom_site_label
 _atom_site_symmetry_multiplicity
 _atom_site_fract_x
 _atom_site_fract_y
 _atom_site_fract_z
 _atom_site_fract_occupancy
 Bi  Bi1  1  0.01174  0.13964  0.79383  1
 Bi  Bi2  1  0.98826  0.36036  0.29383  1
 Bi  Bi3  1  0.98826  0.86036  0.20617  1
 Bi  Bi4  1  0.01174  0.63964  0.70617  1
 Br  Br1  1  0.33119  0.95816  0.75967  1
 Br  Br2  1  0.66881  0.54184  0.25967  1
 Br  Br3  1  0.66881  0.04184  0.24033  1
 Br  Br4  1  0.77476  0.83210  0.58634  1
 Br  Br5  1  0.77476  0.33210  0.91366  1
 Br  Br6  1  0.33119  0.45816  0.74033  1
 Br  Br7  1  0.22524  0.16790  0.41366  1
 Br  Br8  1  0.21636  0.19342  0.05630  1
 Br  Br9  1  0.78364  0.30658  0.55630  1
 Br  Br10  1  0.21636  0.69342  0.44370  1
 Br  Br11  1  0.22524  0.66790  0.08634  1
 Br  Br12  1  0.78364  0.80658  0.94370  1
