CIF file written using JARVIS-Tools package.
data_Te2Ir
_symmetry_space_group_name_H-M  'Pnma'
_cell_length_a       4.04802
_cell_length_b       5.46345
_cell_length_c       13.581
_cell_angle_alpha    90
_cell_angle_beta     90
_cell_angle_gamma    90

_symmetry_Int_Tables_number  62
_chemical_formula_structural  Te2Ir
_chemical_formula_sum  Te8Ir4
_cell_volume  300.3586529016007
_cell_formula_units_Z  4
loop_
  _symmetry_equiv_pos_site_id
 _symmetry_equiv_pos_as_xyz
 1  'x, y, z'
loop_
 _atom_site_type_symbol
 _atom_site_label
 _atom_site_symmetry_multiplicity
 _atom_site_fract_x
 _atom_site_fract_y
 _atom_site_fract_z
 _atom_site_fract_occupancy
 Ir  Ir1  1  0.75000  0.48554  0.36627  1
 Ir  Ir2  1  0.75000  0.01446  0.86627  1
 Ir  Ir3  1  0.25000  0.98554  0.13373  1
 Ir  Ir4  1  0.25000  0.51446  0.63373  1
 Te  Te1  1  0.25000  0.76199  0.95057  1
 Te  Te2  1  0.25000  0.73801  0.45057  1
 Te  Te3  1  0.25000  0.29380  0.80715  1
 Te  Te4  1  0.75000  0.26199  0.54943  1
 Te  Te5  1  0.75000  0.23801  0.04943  1
 Te  Te6  1  0.75000  0.70620  0.19285  1
 Te  Te7  1  0.25000  0.20620  0.30715  1
 Te  Te8  1  0.75000  0.79380  0.69285  1
