CIF file written using JARVIS-Tools package.
data_PrBrO
_symmetry_space_group_name_H-M  'R-3m'
_cell_length_a       10.351
_cell_length_b       10.351
_cell_length_c       10.351
_cell_angle_alpha    22.5577
_cell_angle_beta     22.5577
_cell_angle_gamma    22.5577

_symmetry_Int_Tables_number  166
_chemical_formula_structural  PrBrO
_chemical_formula_sum  Pr2Br2O2
_cell_volume  143.16491411175429
_cell_formula_units_Z  2
loop_
  _symmetry_equiv_pos_site_id
 _symmetry_equiv_pos_as_xyz
 1  'x, y, z'
loop_
 _atom_site_type_symbol
 _atom_site_label
 _atom_site_symmetry_multiplicity
 _atom_site_fract_x
 _atom_site_fract_y
 _atom_site_fract_z
 _atom_site_fract_occupancy
 Br  Br1  1  0.38510  0.38510  0.38510  1
 Br  Br2  1  0.61490  0.61490  0.61490  1
 O  O1  1  0.13722  0.13722  0.13722  1
 O  O2  1  0.86278  0.86278  0.86278  1
 Pr  Pr1  1  0.21650  0.21650  0.21650  1
 Pr  Pr2  1  0.78350  0.78350  0.78350  1
