CIF file written using JARVIS-Tools package.
data_NaMnCl3
_symmetry_space_group_name_H-M  'R-3'
_cell_length_a       7.23366
_cell_length_b       7.23366
_cell_length_c       7.23367
_cell_angle_alpha    54.0045
_cell_angle_beta     54.0045
_cell_angle_gamma    54.0045

_symmetry_Int_Tables_number  148
_chemical_formula_structural  NaMnCl3
_chemical_formula_sum  Na2Mn2Cl6
_cell_volume  230.16549285393916
_cell_formula_units_Z  2
loop_
  _symmetry_equiv_pos_site_id
 _symmetry_equiv_pos_as_xyz
 1  'x, y, z'
loop_
 _atom_site_type_symbol
 _atom_site_label
 _atom_site_symmetry_multiplicity
 _atom_site_fract_x
 _atom_site_fract_y
 _atom_site_fract_z
 _atom_site_fract_occupancy
 Cl  Cl1  1  0.93196  0.55168  0.28266  1
 Cl  Cl2  1  0.28266  0.93196  0.55168  1
 Cl  Cl3  1  0.44832  0.71734  0.06804  1
 Cl  Cl4  1  0.06804  0.44832  0.71734  1
 Cl  Cl5  1  0.71734  0.06804  0.44832  1
 Cl  Cl6  1  0.55168  0.28266  0.93196  1
 Mn  Mn1  1  0.65903  0.65903  0.65903  1
 Mn  Mn2  1  0.34097  0.34097  0.34097  1
 Na  Na1  1  0.85321  0.85321  0.85321  1
 Na  Na2  1  0.14679  0.14679  0.14679  1
