CIF file written using JARVIS-Tools package.
data_Li4NbO4
_symmetry_space_group_name_H-M  'Cmcm'
_cell_length_a       5.43709
_cell_length_b       5.43709
_cell_length_c       6.48489
_cell_angle_alpha    90
_cell_angle_beta     90
_cell_angle_gamma    100.746

_symmetry_Int_Tables_number  63
_chemical_formula_structural  Li4NbO4
_chemical_formula_sum  Li8Nb2O8
_cell_volume  188.34417679209236
_cell_formula_units_Z  2
loop_
  _symmetry_equiv_pos_site_id
 _symmetry_equiv_pos_as_xyz
 1  'x, y, z'
loop_
 _atom_site_type_symbol
 _atom_site_label
 _atom_site_symmetry_multiplicity
 _atom_site_fract_x
 _atom_site_fract_y
 _atom_site_fract_z
 _atom_site_fract_occupancy
 Li  Li1  1  0.15440  0.84560  0.00000  1
 Li  Li2  1  0.15440  0.84560  0.50000  1
 Li  Li3  1  0.58083  0.86548  0.25000  1
 Li  Li4  1  0.13452  0.41917  0.75000  1
 Li  Li5  1  0.86548  0.58083  0.25000  1
 Li  Li6  1  0.41917  0.13452  0.75000  1
 Li  Li7  1  0.84560  0.15440  0.00000  1
 Li  Li8  1  0.84560  0.15440  0.50000  1
 Nb  Nb1  1  0.65175  0.65175  0.75000  1
 Nb  Nb2  1  0.34825  0.34825  0.25000  1
 O  O1  1  0.23422  0.67220  0.25000  1
 O  O2  1  0.32780  0.76578  0.75000  1
 O  O3  1  0.22022  0.22022  0.51544  1
 O  O4  1  0.22022  0.22022  0.98456  1
 O  O5  1  0.77978  0.77978  0.01544  1
 O  O6  1  0.77978  0.77978  0.48456  1
 O  O7  1  0.67220  0.23422  0.25000  1
 O  O8  1  0.76578  0.32780  0.75000  1
