CIF file written using JARVIS-Tools package.
data_NaSi2N3
_symmetry_space_group_name_H-M  'Cmc2_1'
_cell_length_a       4.91257
_cell_length_b       5.50851
_cell_length_c       5.5085
_cell_angle_alpha    119.761
_cell_angle_beta     90
_cell_angle_gamma    90

_symmetry_Int_Tables_number  36
_chemical_formula_structural  NaSi2N3
_chemical_formula_sum  Na2Si4N6
_cell_volume  129.40341770166617
_cell_formula_units_Z  2
loop_
  _symmetry_equiv_pos_site_id
 _symmetry_equiv_pos_as_xyz
 1  'x, y, z'
loop_
 _atom_site_type_symbol
 _atom_site_label
 _atom_site_symmetry_multiplicity
 _atom_site_fract_x
 _atom_site_fract_y
 _atom_site_fract_z
 _atom_site_fract_occupancy
 N  N1  1  0.96768  0.77104  0.77104  1
 N  N2  1  0.46768  0.22896  0.22896  1
 N  N3  1  0.36002  0.65589  0.09255  1
 N  N4  1  0.36002  0.09255  0.65589  1
 N  N5  1  0.86002  0.90745  0.34411  1
 N  N6  1  0.86002  0.34411  0.90745  1
 Na  Na1  1  0.48537  0.66315  0.66315  1
 Na  Na2  1  0.98537  0.33685  0.33685  1
 Si  Si1  1  0.01195  0.01616  0.67521  1
 Si  Si2  1  0.51195  0.98384  0.32479  1
 Si  Si3  1  0.51195  0.32479  0.98384  1
 Si  Si4  1  0.01195  0.67521  0.01616  1
