CIF file written using JARVIS-Tools package.
data_WCl6
_symmetry_space_group_name_H-M  'P-3m1'
_cell_length_a       10.4591
_cell_length_b       10.4591
_cell_length_c       5.62216
_cell_angle_alpha    90
_cell_angle_beta     90
_cell_angle_gamma    120

_symmetry_Int_Tables_number  164
_chemical_formula_structural  WCl6
_chemical_formula_sum  W3Cl8
_cell_volume  532.6313857994026
_cell_formula_units_Z  3
loop_
  _symmetry_equiv_pos_site_id
 _symmetry_equiv_pos_as_xyz
 1  'x, y, z'
loop_
 _atom_site_type_symbol
 _atom_site_label
 _atom_site_symmetry_multiplicity
 _atom_site_fract_x
 _atom_site_fract_y
 _atom_site_fract_z
 _atom_site_fract_occupancy
 Cl  Cl1  1  0.89599  0.10401  0.76315  1
 Cl  Cl2  1  0.22938  0.77062  0.72618  1
 Cl  Cl3  1  0.22938  0.45876  0.72618  1
 Cl  Cl4  1  0.54124  0.77062  0.72618  1
 Cl  Cl5  1  0.10401  0.89599  0.23685  1
 Cl  Cl6  1  0.10401  0.20802  0.23685  1
 Cl  Cl7  1  0.79198  0.89599  0.23685  1
 Cl  Cl8  1  0.20802  0.10401  0.76315  1
 Cl  Cl9  1  0.89599  0.79198  0.76315  1
 Cl  Cl10  1  0.77062  0.54124  0.27382  1
 Cl  Cl11  1  0.45876  0.22938  0.27382  1
 Cl  Cl12  1  0.43731  0.87461  0.25182  1
 Cl  Cl13  1  0.12539  0.56269  0.25182  1
 Cl  Cl14  1  0.87461  0.43731  0.74818  1
 Cl  Cl15  1  0.56269  0.12539  0.74818  1
 Cl  Cl16  1  0.56269  0.43731  0.74818  1
 Cl  Cl17  1  0.77062  0.22938  0.27382  1
 Cl  Cl18  1  0.43731  0.56269  0.25182  1
 W  W1  1  0.00000  0.00000  0.00000  1
 W  W2  1  0.33333  0.66667  0.48897  1
 W  W3  1  0.66667  0.33333  0.51103  1
