CIF file written using JARVIS-Tools package.
data_NdMn2
_symmetry_space_group_name_H-M  'P6_3/mmc'
_cell_length_a       5.50783
_cell_length_b       5.50783
_cell_length_c       8.13976
_cell_angle_alpha    90
_cell_angle_beta     90
_cell_angle_gamma    120

_symmetry_Int_Tables_number  194
_chemical_formula_structural  NdMn2
_chemical_formula_sum  Nd4Mn8
_cell_volume  213.84693577966655
_cell_formula_units_Z  4
loop_
  _symmetry_equiv_pos_site_id
 _symmetry_equiv_pos_as_xyz
 1  'x, y, z'
loop_
 _atom_site_type_symbol
 _atom_site_label
 _atom_site_symmetry_multiplicity
 _atom_site_fract_x
 _atom_site_fract_y
 _atom_site_fract_z
 _atom_site_fract_occupancy
 Mn  Mn1  1  0.15887  0.31774  0.25000  1
 Mn  Mn2  1  0.15887  0.84113  0.25000  1
 Mn  Mn3  1  0.68226  0.84113  0.25000  1
 Mn  Mn4  1  0.31774  0.15887  0.75000  1
 Mn  Mn5  1  0.00000  0.00000  0.00000  1
 Mn  Mn6  1  0.84113  0.15887  0.75000  1
 Mn  Mn7  1  0.84113  0.68226  0.75000  1
 Mn  Mn8  1  0.00000  0.00000  0.50000  1
 Nd  Nd1  1  0.33333  0.66667  0.94329  1
 Nd  Nd2  1  0.66667  0.33333  0.05671  1
 Nd  Nd3  1  0.33333  0.66667  0.55671  1
 Nd  Nd4  1  0.66667  0.33333  0.44329  1
