CIF file written using JARVIS-Tools package.
data_SbS2
_symmetry_space_group_name_H-M  'I-42d'
_cell_length_a       5.38987
_cell_length_b       5.38988
_cell_length_c       7.04387
_cell_angle_alpha    112.495
_cell_angle_beta     112.494
_cell_angle_gamma    89.9999

_symmetry_Int_Tables_number  122
_chemical_formula_structural  SbS2
_chemical_formula_sum  Sb2S4
_cell_volume  172.0892324121816
_cell_formula_units_Z  2
loop_
  _symmetry_equiv_pos_site_id
 _symmetry_equiv_pos_as_xyz
 1  'x, y, z'
loop_
 _atom_site_type_symbol
 _atom_site_label
 _atom_site_symmetry_multiplicity
 _atom_site_fract_x
 _atom_site_fract_y
 _atom_site_fract_z
 _atom_site_fract_occupancy
 S  S1  1  0.83766  0.87500  0.25000  1
 S  S2  1  0.62500  0.16234  0.75000  1
 S  S3  1  0.41234  0.37500  0.25000  1
 S  S4  1  0.12500  0.58766  0.75000  1
 Sb  Sb1  1  0.25000  0.75000  0.50000  1
 Sb  Sb2  1  0.00000  0.00000  0.00000  1
