CIF file written using JARVIS-Tools package.
data_MgMnF6
_symmetry_space_group_name_H-M  'R-3'
_cell_length_a       5.26932
_cell_length_b       5.26932
_cell_length_c       5.26931
_cell_angle_alpha    55.9318
_cell_angle_beta     55.9318
_cell_angle_gamma    55.9318

_symmetry_Int_Tables_number  148
_chemical_formula_structural  MgMnF6
_chemical_formula_sum  MgMnF6
_cell_volume  93.70091012463608
_cell_formula_units_Z  1
loop_
  _symmetry_equiv_pos_site_id
 _symmetry_equiv_pos_as_xyz
 1  'x, y, z'
loop_
 _atom_site_type_symbol
 _atom_site_label
 _atom_site_symmetry_multiplicity
 _atom_site_fract_x
 _atom_site_fract_y
 _atom_site_fract_z
 _atom_site_fract_occupancy
 F  F1  1  0.36501  0.10941  0.76441  1
 F  F2  1  0.10941  0.76441  0.36501  1
 F  F3  1  0.23559  0.63499  0.89059  1
 F  F4  1  0.89059  0.23559  0.63499  1
 F  F5  1  0.63499  0.89059  0.23559  1
 F  F6  1  0.76441  0.36501  0.10941  1
 Mg  Mg1  1  0.50000  0.50000  0.50000  1
 Mn  Mn1  1  0.00000  0.00000  0.00000  1
