CIF file written using JARVIS-Tools package.
data_SnO2
_symmetry_space_group_name_H-M  'R-3m'
_cell_length_a       3.24705
_cell_length_b       3.24718
_cell_length_c       9.53394
_cell_angle_alpha    109.902
_cell_angle_beta     89.9973
_cell_angle_gamma    119.998

_symmetry_Int_Tables_number  166
_chemical_formula_structural  SnO2
_chemical_formula_sum  Sn2O4
_cell_volume  80.0511515633417
_cell_formula_units_Z  2
loop_
  _symmetry_equiv_pos_site_id
 _symmetry_equiv_pos_as_xyz
 1  'x, y, z'
loop_
 _atom_site_type_symbol
 _atom_site_label
 _atom_site_symmetry_multiplicity
 _atom_site_fract_x
 _atom_site_fract_y
 _atom_site_fract_z
 _atom_site_fract_occupancy
 O  O1  1  0.25991  0.51561  0.38850  1
 O  O2  1  0.41095  0.81777  0.11531  1
 O  O3  1  0.74468  0.48516  0.61578  1
 O  O4  1  0.59333  0.18249  0.88872  1
 Sn  Sn1  1  0.00231  0.00040  0.50214  1
 Sn  Sn2  1  0.00214  0.00014  0.00201  1
