CIF file written using JARVIS-Tools package.
data_MgNiF6
_symmetry_space_group_name_H-M  'R-3'
_cell_length_a       5.20067
_cell_length_b       5.20067
_cell_length_c       5.20066
_cell_angle_alpha    55.2967
_cell_angle_beta     55.2967
_cell_angle_gamma    55.2968

_symmetry_Int_Tables_number  148
_chemical_formula_structural  MgNiF6
_chemical_formula_sum  MgNiF6
_cell_volume  88.59235017940256
_cell_formula_units_Z  1
loop_
  _symmetry_equiv_pos_site_id
 _symmetry_equiv_pos_as_xyz
 1  'x, y, z'
loop_
 _atom_site_type_symbol
 _atom_site_label
 _atom_site_symmetry_multiplicity
 _atom_site_fract_x
 _atom_site_fract_y
 _atom_site_fract_z
 _atom_site_fract_occupancy
 F  F1  1  0.37891  0.08967  0.76988  1
 F  F2  1  0.08967  0.76988  0.37891  1
 F  F3  1  0.23012  0.62109  0.91033  1
 F  F4  1  0.91033  0.23012  0.62109  1
 F  F5  1  0.62109  0.91033  0.23012  1
 F  F6  1  0.76988  0.37891  0.08967  1
 Mg  Mg1  1  0.50000  0.50000  0.50000  1
 Ni  Ni1  1  0.00000  0.00000  0.00000  1
