CIF file written using JARVIS-Tools package.
data_MgCo2S5
_symmetry_space_group_name_H-M  'Pmmn'
_cell_length_a       3.56257
_cell_length_b       6.3926
_cell_length_c       13.2213
_cell_angle_alpha    90.0129
_cell_angle_beta     90
_cell_angle_gamma    89.9987

_symmetry_Int_Tables_number  59
_chemical_formula_structural  MgCo2S5
_chemical_formula_sum  Mg2Co4S0
_cell_volume  301.1031103735409
_cell_formula_units_Z  2
loop_
  _symmetry_equiv_pos_site_id
 _symmetry_equiv_pos_as_xyz
 1  'x, y, z'
loop_
 _atom_site_type_symbol
 _atom_site_label
 _atom_site_symmetry_multiplicity
 _atom_site_fract_x
 _atom_site_fract_y
 _atom_site_fract_z
 _atom_site_fract_occupancy
 Co  Co1  1  0.25000  0.47141  0.10161  1
 Co  Co2  1  0.75000  0.52859  0.89839  1
 Co  Co3  1  0.75000  0.52856  0.60161  1
 Co  Co4  1  0.25000  0.47144  0.39839  1
 Mg  Mg1  1  0.74999  0.90889  0.24991  1
 Mg  Mg2  1  0.25001  0.09111  0.75010  1
 S  S1  1  0.75000  0.36145  0.74999  1
 S  S2  1  0.25000  0.63855  0.25001  1
 S  S3  1  0.74999  0.65539  0.05341  1
 S  S4  1  0.25001  0.34461  0.94659  1
 S  S5  1  0.74999  0.65538  0.44663  1
 S  S6  1  0.25001  0.34462  0.55337  1
 S  S7  1  0.24998  0.16378  0.33185  1
 S  S8  1  0.75002  0.83622  0.66815  1
 S  S9  1  0.75002  0.83623  0.83189  1
 S  S10  1  0.24999  0.16377  0.16810  1
