CIF file written using JARVIS-Tools package.
data_ZnNi2O4
_symmetry_space_group_name_H-M  'R3m'
_cell_length_a       5.85739
_cell_length_b       5.81604
_cell_length_c       5.81604
_cell_angle_alpha    60
_cell_angle_beta     60.2333
_cell_angle_gamma    60.2332

_symmetry_Int_Tables_number  160
_chemical_formula_structural  ZnNi2O4
_chemical_formula_sum  Zn2Ni4O8
_cell_volume  140.5940396342169
_cell_formula_units_Z  2
loop_
  _symmetry_equiv_pos_site_id
 _symmetry_equiv_pos_as_xyz
 1  'x, y, z'
loop_
 _atom_site_type_symbol
 _atom_site_label
 _atom_site_symmetry_multiplicity
 _atom_site_fract_x
 _atom_site_fract_y
 _atom_site_fract_z
 _atom_site_fract_occupancy
 Ni  Ni1  1  0.25534  0.24822  0.24822  1
 Ni  Ni2  1  0.62486  0.12473  0.62521  1
 Ni  Ni3  1  0.62486  0.62521  0.12473  1
 Ni  Ni4  1  0.62486  0.62521  0.62521  1
 O  O1  1  0.41048  0.37382  0.37382  1
 O  O2  1  0.41048  0.37382  0.84189  1
 O  O3  1  0.41048  0.84189  0.37382  1
 O  O4  1  0.85936  0.38021  0.38021  1
 O  O5  1  0.39941  0.86686  0.86686  1
 O  O6  1  0.84072  0.41593  0.87167  1
 O  O7  1  0.84072  0.87167  0.41593  1
 O  O8  1  0.84072  0.87167  0.87167  1
 Zn  Zn1  1  0.98161  0.00613  0.00613  1
 Zn  Zn2  1  0.12609  0.62464  0.62464  1
