CIF file written using JARVIS-Tools package.
data_Li3SbO4
_symmetry_space_group_name_H-M  'P2/c'
_cell_length_a       5.15101
_cell_length_b       6.13152
_cell_length_c       5.1295
_cell_angle_alpha    90
_cell_angle_beta     108.289
_cell_angle_gamma    90

_symmetry_Int_Tables_number  13
_chemical_formula_structural  Li3SbO4
_chemical_formula_sum  Li6Sb2O8
_cell_volume  153.8233890334667
_cell_formula_units_Z  2
loop_
  _symmetry_equiv_pos_site_id
 _symmetry_equiv_pos_as_xyz
 1  'x, y, z'
loop_
 _atom_site_type_symbol
 _atom_site_label
 _atom_site_symmetry_multiplicity
 _atom_site_fract_x
 _atom_site_fract_y
 _atom_site_fract_z
 _atom_site_fract_occupancy
 Li  Li1  1  0.25000  0.43016  0.50000  1
 Li  Li2  1  0.75000  0.56984  0.50000  1
 Li  Li3  1  0.25000  0.61088  0.00000  1
 Li  Li4  1  0.75000  0.38912  0.00000  1
 Li  Li5  1  0.75000  0.14853  0.50000  1
 Li  Li6  1  0.25000  0.85147  0.50000  1
 O  O1  1  0.50760  0.10293  0.77360  1
 O  O2  1  0.52168  0.63651  0.75360  1
 O  O3  1  0.02168  0.36349  0.75360  1
 O  O4  1  0.47832  0.36349  0.24640  1
 O  O5  1  0.49240  0.89707  0.22640  1
 O  O6  1  0.00760  0.89707  0.77360  1
 O  O7  1  0.97832  0.63651  0.24640  1
 O  O8  1  0.99240  0.10293  0.22640  1
 Sb  Sb1  1  0.25000  0.14553  0.00000  1
 Sb  Sb2  1  0.75000  0.85447  0.00000  1
