CIF file written using JARVIS-Tools package.
data_Tl4CrI6
_symmetry_space_group_name_H-M  'P4/mnc'
_cell_length_a       9.11899
_cell_length_b       9.11899
_cell_length_c       9.704
_cell_angle_alpha    90
_cell_angle_beta     90
_cell_angle_gamma    90

_symmetry_Int_Tables_number  128
_chemical_formula_structural  Tl4CrI6
_chemical_formula_sum  Tl8Cr2I2
_cell_volume  806.9447853507565
_cell_formula_units_Z  2
loop_
  _symmetry_equiv_pos_site_id
 _symmetry_equiv_pos_as_xyz
 1  'x, y, z'
loop_
 _atom_site_type_symbol
 _atom_site_label
 _atom_site_symmetry_multiplicity
 _atom_site_fract_x
 _atom_site_fract_y
 _atom_site_fract_z
 _atom_site_fract_occupancy
 Cr  Cr1  1  0.50000  0.50000  0.00000  1
 Cr  Cr2  1  0.00000  0.00000  0.50000  1
 I  I1  1  0.50000  0.50000  0.71544  1
 I  I2  1  0.86154  0.69972  0.50000  1
 I  I3  1  0.80028  0.63846  0.00000  1
 I  I4  1  0.63846  0.19972  0.00000  1
 I  I5  1  0.13846  0.30028  0.50000  1
 I  I6  1  0.30028  0.86154  0.50000  1
 I  I7  1  0.50000  0.50000  0.28456  1
 I  I8  1  0.36154  0.80028  0.00000  1
 I  I9  1  0.00000  0.00000  0.78456  1
 I  I10  1  0.69972  0.13846  0.50000  1
 I  I11  1  0.00000  0.00000  0.21544  1
 I  I12  1  0.19972  0.36154  0.00000  1
 Tl  Tl1  1  0.64429  0.85571  0.25000  1
 Tl  Tl2  1  0.85571  0.35571  0.25000  1
 Tl  Tl3  1  0.14429  0.64429  0.25000  1
 Tl  Tl4  1  0.35571  0.14429  0.75000  1
 Tl  Tl5  1  0.85571  0.35571  0.75000  1
 Tl  Tl6  1  0.64429  0.85571  0.75000  1
 Tl  Tl7  1  0.14429  0.64429  0.75000  1
 Tl  Tl8  1  0.35571  0.14429  0.25000  1
