CIF file written using JARVIS-Tools package.
data_Rb2SnTe5
_symmetry_space_group_name_H-M  'I4/mcm'
_cell_length_a       8.70902
_cell_length_b       8.70902
_cell_length_c       9.96534
_cell_angle_alpha    115.91
_cell_angle_beta     115.91
_cell_angle_gamma    90

_symmetry_Int_Tables_number  140
_chemical_formula_structural  Rb2SnTe5
_chemical_formula_sum  Rb4Sn2Te0
_cell_volume  594.2482613514259
_cell_formula_units_Z  2
loop_
  _symmetry_equiv_pos_site_id
 _symmetry_equiv_pos_as_xyz
 1  'x, y, z'
loop_
 _atom_site_type_symbol
 _atom_site_label
 _atom_site_symmetry_multiplicity
 _atom_site_fract_x
 _atom_site_fract_y
 _atom_site_fract_z
 _atom_site_fract_occupancy
 Rb  Rb1  1  0.24662  0.24662  0.49325  1
 Rb  Rb2  1  0.74662  0.74662  0.49325  1
 Rb  Rb3  1  0.99664  0.99664  0.99328  1
 Rb  Rb4  1  0.49664  0.49664  0.99328  1
 Sn  Sn1  1  0.74666  0.24666  0.49332  1
 Sn  Sn2  1  0.24666  0.74666  0.49332  1
 Te  Te1  1  0.45408  0.95408  0.26639  1
 Te  Te2  1  0.31231  0.45408  0.26639  1
 Te  Te3  1  0.95408  0.81231  0.26639  1
 Te  Te4  1  0.81231  0.31231  0.26639  1
 Te  Te5  1  0.18091  0.68091  0.72014  1
 Te  Te6  1  0.03923  0.18091  0.72014  1
 Te  Te7  1  0.68091  0.53923  0.72014  1
 Te  Te8  1  0.53923  0.03923  0.72014  1
 Te  Te9  1  0.49664  0.99664  0.99328  1
 Te  Te10  1  0.99664  0.49664  0.99328  1
