CIF file written using JARVIS-Tools package.
data_AuClO2
_symmetry_space_group_name_H-M  'C222_1'
_cell_length_a       3.90228
_cell_length_b       6.25683
_cell_length_c       6.25683
_cell_angle_alpha    108.962
_cell_angle_beta     90
_cell_angle_gamma    90

_symmetry_Int_Tables_number  20
_chemical_formula_structural  AuClO2
_chemical_formula_sum  Au2Cl2O4
_cell_volume  144.4762136741212
_cell_formula_units_Z  2
loop_
  _symmetry_equiv_pos_site_id
 _symmetry_equiv_pos_as_xyz
 1  'x, y, z'
loop_
 _atom_site_type_symbol
 _atom_site_label
 _atom_site_symmetry_multiplicity
 _atom_site_fract_x
 _atom_site_fract_y
 _atom_site_fract_z
 _atom_site_fract_occupancy
 Au  Au1  1  0.50000  0.26675  0.26675  1
 Au  Au2  1  0.00000  0.73325  0.73325  1
 Cl  Cl1  1  0.75000  0.63917  0.36083  1
 Cl  Cl2  1  0.25000  0.36083  0.63917  1
 O  O1  1  0.29004  0.79823  0.02313  1
 O  O2  1  0.79004  0.20177  0.97687  1
 O  O3  1  0.70996  0.02313  0.79823  1
 O  O4  1  0.20996  0.97687  0.20177  1
