CIF file written using JARVIS-Tools package.
data_Zn2CuWO6
_symmetry_space_group_name_H-M  'P2_1/c'
_cell_length_a       5.00127
_cell_length_b       5.10719
_cell_length_c       9.86756
_cell_angle_alpha    90
_cell_angle_beta     119.788
_cell_angle_gamma    90

_symmetry_Int_Tables_number  14
_chemical_formula_structural  Zn2CuWO6
_chemical_formula_sum  Zn4Cu2W2O2
_cell_volume  218.73830980752265
_cell_formula_units_Z  2
loop_
  _symmetry_equiv_pos_site_id
 _symmetry_equiv_pos_as_xyz
 1  'x, y, z'
loop_
 _atom_site_type_symbol
 _atom_site_label
 _atom_site_symmetry_multiplicity
 _atom_site_fract_x
 _atom_site_fract_y
 _atom_site_fract_z
 _atom_site_fract_occupancy
 Cu  Cu1  1  0.50000  0.00000  0.00000  1
 Cu  Cu2  1  0.50000  0.50000  0.50000  1
 O  O1  1  0.33833  0.61652  0.19906  1
 O  O2  1  0.08148  0.69896  0.39679  1
 O  O3  1  0.33833  0.88348  0.69906  1
 O  O4  1  0.91852  0.30104  0.60321  1
 O  O5  1  0.08148  0.80104  0.89679  1
 O  O6  1  0.91852  0.19896  0.10321  1
 O  O7  1  0.27418  0.30809  0.95455  1
 O  O8  1  0.27418  0.19191  0.45455  1
 O  O9  1  0.66167  0.38348  0.80094  1
 O  O10  1  0.72582  0.80809  0.54545  1
 O  O11  1  0.66167  0.11652  0.30094  1
 O  O12  1  0.72582  0.69191  0.04545  1
 W  W1  1  0.00000  0.50000  0.00000  1
 W  W2  1  -0.00000  0.00000  0.50000  1
 Zn  Zn1  1  0.25509  0.52666  0.76332  1
 Zn  Zn2  1  0.74491  0.02666  0.73668  1
 Zn  Zn3  1  0.74491  0.47334  0.23668  1
 Zn  Zn4  1  0.25509  0.97334  0.26332  1
