CIF file written using JARVIS-Tools package.
data_Na4CO4
_symmetry_space_group_name_H-M  'I-42m'
_cell_length_a       4.739
_cell_length_b       4.73901
_cell_length_c       5.55121
_cell_angle_alpha    115.169
_cell_angle_beta     115.169
_cell_angle_gamma    90.0691

_symmetry_Int_Tables_number  121
_chemical_formula_structural  Na4CO4
_chemical_formula_sum  Na4CO4
_cell_volume  99.56647332621546
_cell_formula_units_Z  1
loop_
  _symmetry_equiv_pos_site_id
 _symmetry_equiv_pos_as_xyz
 1  'x, y, z'
loop_
 _atom_site_type_symbol
 _atom_site_label
 _atom_site_symmetry_multiplicity
 _atom_site_fract_x
 _atom_site_fract_y
 _atom_site_fract_z
 _atom_site_fract_occupancy
 C  C1  1  -0.00036  -0.00036  0.57010  1
 Na  Na1  1  0.55283  0.55283  0.28242  1
 Na  Na2  1  0.44726  0.84068  0.85750  1
 Na  Na3  1  0.84068  0.44726  0.85750  1
 Na  Na4  1  0.15951  0.15951  0.28253  1
 O  O1  1  0.92241  0.92241  0.76230  1
 O  O2  1  0.07672  0.73082  0.37790  1
 O  O3  1  0.73082  0.07672  0.37790  1
 O  O4  1  0.26873  0.26873  0.76231  1
