CIF file written using JARVIS-Tools package.
data_NbCoTe2
_symmetry_space_group_name_H-M  'Cmce'
_cell_length_a       6.36544
_cell_length_b       7.82266
_cell_length_c       8.35891
_cell_angle_alpha    117.9
_cell_angle_beta     90
_cell_angle_gamma    90

_symmetry_Int_Tables_number  64
_chemical_formula_structural  NbCoTe2
_chemical_formula_sum  Nb4Co4Te8
_cell_volume  367.85046069172694
_cell_formula_units_Z  4
loop_
  _symmetry_equiv_pos_site_id
 _symmetry_equiv_pos_as_xyz
 1  'x, y, z'
loop_
 _atom_site_type_symbol
 _atom_site_label
 _atom_site_symmetry_multiplicity
 _atom_site_fract_x
 _atom_site_fract_y
 _atom_site_fract_z
 _atom_site_fract_occupancy
 Co  Co1  1  0.64324  0.94198  0.88395  1
 Co  Co2  1  0.14324  0.55802  0.11605  1
 Co  Co3  1  0.35676  0.05802  0.11605  1
 Co  Co4  1  0.85676  0.44198  0.88395  1
 Nb  Nb1  1  0.50000  0.70690  0.00000  1
 Nb  Nb2  1  0.00000  0.79310  -0.00000  1
 Nb  Nb3  1  0.50000  0.29310  -0.00000  1
 Nb  Nb4  1  0.00000  0.20690  0.00000  1
 Te  Te1  1  0.75000  0.08988  0.67976  1
 Te  Te2  1  0.25000  0.41012  0.32024  1
 Te  Te3  1  0.25000  0.91012  0.32024  1
 Te  Te4  1  0.75000  0.58988  0.67976  1
 Te  Te5  1  0.74662  0.11252  0.22505  1
 Te  Te6  1  0.24662  0.38748  0.77495  1
 Te  Te7  1  0.25338  0.88748  0.77495  1
 Te  Te8  1  0.75338  0.61252  0.22505  1
