CIF file written using JARVIS-Tools package.
data_NdSBr
_symmetry_space_group_name_H-M  'P2_1/c'
_cell_length_a       6.93453
_cell_length_b       7.1052
_cell_length_c       6.96921
_cell_angle_alpha    90
_cell_angle_beta     99.1003
_cell_angle_gamma    90

_symmetry_Int_Tables_number  14
_chemical_formula_structural  NdSBr
_chemical_formula_sum  Nd4S4Br4
_cell_volume  339.05914920861346
_cell_formula_units_Z  4
loop_
  _symmetry_equiv_pos_site_id
 _symmetry_equiv_pos_as_xyz
 1  'x, y, z'
loop_
 _atom_site_type_symbol
 _atom_site_label
 _atom_site_symmetry_multiplicity
 _atom_site_fract_x
 _atom_site_fract_y
 _atom_site_fract_z
 _atom_site_fract_occupancy
 Br  Br1  1  0.78275  0.61085  0.08716  1
 Br  Br2  1  0.28275  0.88915  0.08716  1
 Br  Br3  1  0.21725  0.38915  0.91284  1
 Br  Br4  1  0.71725  0.11085  0.91284  1
 Nd  Nd1  1  0.28917  0.03582  0.68290  1
 Nd  Nd2  1  0.21083  0.53582  0.31710  1
 Nd  Nd3  1  0.71083  0.96418  0.31710  1
 Nd  Nd4  1  0.78917  0.46418  0.68290  1
 S  S1  1  0.00733  0.75990  0.55511  1
 S  S2  1  0.50733  0.74010  0.55511  1
 S  S3  1  0.99267  0.24010  0.44489  1
 S  S4  1  0.49267  0.25990  0.44489  1
