CIF file written using JARVIS-Tools package.
data_YCrO3
_symmetry_space_group_name_H-M  'P6_3cm'
_cell_length_a       6.02252
_cell_length_b       6.02252
_cell_length_c       11.8865
_cell_angle_alpha    90
_cell_angle_beta     90
_cell_angle_gamma    120

_symmetry_Int_Tables_number  185
_chemical_formula_structural  YCrO3
_chemical_formula_sum  Y6Cr6O8
_cell_volume  373.37183403646156
_cell_formula_units_Z  6
loop_
  _symmetry_equiv_pos_site_id
 _symmetry_equiv_pos_as_xyz
 1  'x, y, z'
loop_
 _atom_site_type_symbol
 _atom_site_label
 _atom_site_symmetry_multiplicity
 _atom_site_fract_x
 _atom_site_fract_y
 _atom_site_fract_z
 _atom_site_fract_occupancy
 Cr  Cr1  1  -0.00000  0.33420  0.49884  1
 Cr  Cr2  1  0.00000  0.66580  0.99884  1
 Cr  Cr3  1  0.66580  0.66580  0.49884  1
 Cr  Cr4  1  0.33420  0.33420  0.99884  1
 Cr  Cr5  1  0.33420  -0.00000  0.49884  1
 Cr  Cr6  1  0.66580  0.00000  0.99884  1
 O  O1  1  0.66667  0.33333  0.48070  1
 O  O2  1  0.36223  0.36223  0.16052  1
 O  O3  1  0.00000  0.00000  0.52067  1
 O  O4  1  -0.00000  0.30383  0.33619  1
 O  O5  1  0.00000  0.00000  0.02067  1
 O  O6  1  0.33333  0.66667  0.98070  1
 O  O7  1  0.69617  0.00000  0.83619  1
 O  O8  1  0.33333  0.66667  0.48070  1
 O  O9  1  0.66667  0.33333  0.98070  1
 O  O10  1  0.00000  0.36223  0.66052  1
 O  O11  1  0.63777  -0.00000  0.16052  1
 O  O12  1  0.69617  0.69617  0.33619  1
 O  O13  1  0.30383  0.30383  0.83619  1
 O  O14  1  0.30383  -0.00000  0.33619  1
 O  O15  1  0.36223  0.00000  0.66052  1
 O  O16  1  0.00000  0.69617  0.83619  1
 O  O17  1  -0.00000  0.63777  0.16052  1
 O  O18  1  0.63777  0.63777  0.66052  1
 Y  Y1  1  0.00000  0.00000  0.72145  1
 Y  Y2  1  0.00000  0.00000  0.22145  1
 Y  Y3  1  0.33333  0.66667  0.76742  1
 Y  Y4  1  0.66667  0.33333  0.26742  1
 Y  Y5  1  0.33333  0.66667  0.26742  1
 Y  Y6  1  0.66667  0.33333  0.76742  1
