CIF file written using JARVIS-Tools package.
data_CuAgS
_symmetry_space_group_name_H-M  'Pnma'
_cell_length_a       4.04498
_cell_length_b       6.59417
_cell_length_c       8.15132
_cell_angle_alpha    90
_cell_angle_beta     90
_cell_angle_gamma    90

_symmetry_Int_Tables_number  62
_chemical_formula_structural  CuAgS
_chemical_formula_sum  Cu4Ag4S4
_cell_volume  217.4220050389994
_cell_formula_units_Z  4
loop_
  _symmetry_equiv_pos_site_id
 _symmetry_equiv_pos_as_xyz
 1  'x, y, z'
loop_
 _atom_site_type_symbol
 _atom_site_label
 _atom_site_symmetry_multiplicity
 _atom_site_fract_x
 _atom_site_fract_y
 _atom_site_fract_z
 _atom_site_fract_occupancy
 Ag  Ag1  1  0.50000  0.57289  0.47525  1
 Ag  Ag2  1  0.50000  0.42711  0.97525  1
 Ag  Ag3  1  0.00000  0.07288  0.99190  1
 Ag  Ag4  1  0.00000  0.92712  0.49190  1
 Cu  Cu1  1  0.00000  0.55497  0.72468  1
 Cu  Cu2  1  0.00000  0.44503  0.22468  1
 Cu  Cu3  1  0.50000  0.05501  0.74264  1
 Cu  Cu4  1  0.50000  0.94499  0.24264  1
 S  S1  1  0.50000  0.29941  0.26283  1
 S  S2  1  0.50000  0.70059  0.76283  1
 S  S3  1  0.00000  0.79942  0.20431  1
 S  S4  1  0.00000  0.20058  0.70431  1
