CIF file written using JARVIS-Tools package.
data_Ca3Mn2Sb2O12
_symmetry_space_group_name_H-M  'Pm'
_cell_length_a       5.35163
_cell_length_b       7.70524
_cell_length_c       5.40878
_cell_angle_alpha    90
_cell_angle_beta     90.3802
_cell_angle_gamma    90

_symmetry_Int_Tables_number  6
_chemical_formula_structural  Ca3Mn2Sb2O12
_chemical_formula_sum  Ca3Mn2Sb2O2
_cell_volume  223.02951328367834
_cell_formula_units_Z  1
loop_
  _symmetry_equiv_pos_site_id
 _symmetry_equiv_pos_as_xyz
 1  'x, y, z'
loop_
 _atom_site_type_symbol
 _atom_site_label
 _atom_site_symmetry_multiplicity
 _atom_site_fract_x
 _atom_site_fract_y
 _atom_site_fract_z
 _atom_site_fract_occupancy
 Ca  Ca1  1  0.55775  0.00000  0.48929  1
 Ca  Ca2  1  0.45005  0.50000  0.50871  1
 Ca  Ca3  1  0.95900  0.50000  0.99249  1
 Mn  Mn1  1  0.99956  0.75753  0.49826  1
 Mn  Mn2  1  0.99956  0.24247  0.49826  1
 O  O1  1  0.70971  0.70957  0.70541  1
 O  O2  1  0.20842  0.30747  0.78148  1
 O  O3  1  0.46288  0.00000  0.90297  1
 O  O4  1  0.79496  0.79391  0.21404  1
 O  O5  1  0.30415  0.21997  0.31709  1
 O  O6  1  0.79496  0.20609  0.21404  1
 O  O7  1  0.70971  0.29043  0.70541  1
 O  O8  1  0.20842  0.69253  0.78148  1
 O  O9  1  0.99029  0.00000  0.57879  1
 O  O10  1  0.30415  0.78003  0.31709  1
 O  O11  1  0.51890  0.50000  0.08097  1
 O  O12  1  0.00628  0.50000  0.41886  1
 Sb  Sb1  1  0.49115  0.24248  0.00090  1
 Sb  Sb2  1  0.49115  0.75752  0.00090  1
