CIF file written using JARVIS-Tools package.
data_SrAs
_symmetry_space_group_name_H-M  'P-62m'
_cell_length_a       8.29537
_cell_length_b       8.29537
_cell_length_c       6.21914
_cell_angle_alpha    90
_cell_angle_beta     90
_cell_angle_gamma    120

_symmetry_Int_Tables_number  189
_chemical_formula_structural  SrAs
_chemical_formula_sum  Sr6As6
_cell_volume  370.62285574130135
_cell_formula_units_Z  6
loop_
  _symmetry_equiv_pos_site_id
 _symmetry_equiv_pos_as_xyz
 1  'x, y, z'
loop_
 _atom_site_type_symbol
 _atom_site_label
 _atom_site_symmetry_multiplicity
 _atom_site_fract_x
 _atom_site_fract_y
 _atom_site_fract_z
 _atom_site_fract_occupancy
 As  As1  1  0.66667  0.33333  0.21116  1
 As  As2  1  0.66667  0.33333  0.78884  1
 As  As3  1  0.33333  0.66667  0.78884  1
 As  As4  1  0.33333  0.66667  0.21116  1
 As  As5  1  0.00000  0.00000  0.70494  1
 As  As6  1  0.00000  0.00000  0.29506  1
 Sr  Sr1  1  0.00000  0.64720  0.50000  1
 Sr  Sr2  1  0.35280  0.35280  0.50000  1
 Sr  Sr3  1  0.64720  0.00000  0.50000  1
 Sr  Sr4  1  0.00000  0.31306  0.00000  1
 Sr  Sr5  1  0.68694  0.68694  0.00000  1
 Sr  Sr6  1  0.31306  0.00000  0.00000  1
