CIF file written using JARVIS-Tools package.
data_Mn3As2
_symmetry_space_group_name_H-M  'C2/m'
_cell_length_a       3.48955
_cell_length_b       6.63949
_cell_length_c       6.73028
_cell_angle_alpha    80.6788
_cell_angle_beta     74.9711
_cell_angle_gamma    74.7654

_symmetry_Int_Tables_number  12
_chemical_formula_structural  Mn3As2
_chemical_formula_sum  Mn6As4
_cell_volume  144.5679910260196
_cell_formula_units_Z  2
loop_
  _symmetry_equiv_pos_site_id
 _symmetry_equiv_pos_as_xyz
 1  'x, y, z'
loop_
 _atom_site_type_symbol
 _atom_site_label
 _atom_site_symmetry_multiplicity
 _atom_site_fract_x
 _atom_site_fract_y
 _atom_site_fract_z
 _atom_site_fract_occupancy
 As  As1  1  0.93850  0.77571  0.34728  1
 As  As2  1  0.06150  0.22429  0.65272  1
 As  As3  1  0.75035  0.32138  0.17792  1
 As  As4  1  0.24965  0.67862  0.82208  1
 Mn  Mn1  1  0.69379  0.93445  0.67799  1
 Mn  Mn2  1  0.30621  0.06555  0.32201  1
 Mn  Mn3  1  0.60451  0.69989  0.09110  1
 Mn  Mn4  1  0.39549  0.30011  0.90890  1
 Mn  Mn5  1  0.50000  0.50000  0.50000  1
 Mn  Mn6  1  0.00000  0.00000  0.00000  1
