CIF file written using JARVIS-Tools package.
data_Ag2HgI4
_symmetry_space_group_name_H-M  'P-42m'
_cell_length_a       6.40321
_cell_length_b       6.40321
_cell_length_c       6.38612
_cell_angle_alpha    90
_cell_angle_beta     90
_cell_angle_gamma    90

_symmetry_Int_Tables_number  111
_chemical_formula_structural  Ag2HgI4
_chemical_formula_sum  Ag2HgI4
_cell_volume  261.83797221643806
_cell_formula_units_Z  1
loop_
  _symmetry_equiv_pos_site_id
 _symmetry_equiv_pos_as_xyz
 1  'x, y, z'
loop_
 _atom_site_type_symbol
 _atom_site_label
 _atom_site_symmetry_multiplicity
 _atom_site_fract_x
 _atom_site_fract_y
 _atom_site_fract_z
 _atom_site_fract_occupancy
 Ag  Ag1  1  0.00000  0.50000  0.50000  1
 Ag  Ag2  1  0.50000  0.00000  0.50000  1
 Hg  Hg1  1  0.00000  0.00000  0.00000  1
 I  I1  1  0.72951  0.72951  0.23352  1
 I  I2  1  0.27049  0.72951  0.76648  1
 I  I3  1  0.27049  0.27049  0.23352  1
 I  I4  1  0.72951  0.27049  0.76648  1
