CIF file written using JARVIS-Tools package.
data_Dy3BWO9
_symmetry_space_group_name_H-M  'P6_3'
_cell_length_a       8.49404
_cell_length_b       8.49404
_cell_length_c       5.36243
_cell_angle_alpha    90
_cell_angle_beta     90
_cell_angle_gamma    120

_symmetry_Int_Tables_number  173
_chemical_formula_structural  Dy3BWO9
_chemical_formula_sum  Dy6B2W2O8
_cell_volume  335.05775113933896
_cell_formula_units_Z  2
loop_
  _symmetry_equiv_pos_site_id
 _symmetry_equiv_pos_as_xyz
 1  'x, y, z'
loop_
 _atom_site_type_symbol
 _atom_site_label
 _atom_site_symmetry_multiplicity
 _atom_site_fract_x
 _atom_site_fract_y
 _atom_site_fract_z
 _atom_site_fract_occupancy
 B  B1  1  0.00000  0.00000  0.86599  1
 B  B2  1  0.00000  0.00000  0.36599  1
 Dy  Dy1  1  0.64186  0.91647  0.70035  1
 Dy  Dy2  1  0.35814  0.08353  0.20035  1
 Dy  Dy3  1  0.91647  0.27461  0.20035  1
 Dy  Dy4  1  0.08353  0.72539  0.70035  1
 Dy  Dy5  1  0.72539  0.64186  0.20035  1
 Dy  Dy6  1  0.27461  0.35814  0.70035  1
 O  O1  1  0.61810  0.13182  0.97946  1
 O  O2  1  0.53571  0.73270  0.03443  1
 O  O3  1  0.87298  0.81779  0.85642  1
 O  O4  1  0.26730  0.80301  0.03443  1
 O  O5  1  0.19699  0.46429  0.03443  1
 O  O6  1  0.73270  0.19699  0.53443  1
 O  O7  1  0.12702  0.18221  0.35642  1
 O  O8  1  0.18221  0.05518  0.85642  1
 O  O9  1  0.05518  0.87298  0.35642  1
 O  O10  1  0.86818  0.48628  0.97946  1
 O  O11  1  0.81779  0.94482  0.35642  1
 O  O12  1  0.51372  0.38190  0.97946  1
 O  O13  1  0.46429  0.26730  0.53443  1
 O  O14  1  0.38190  0.86818  0.47946  1
 O  O15  1  0.48628  0.61810  0.47946  1
 O  O16  1  0.94482  0.12702  0.85642  1
 O  O17  1  0.80301  0.53571  0.53443  1
 O  O18  1  0.13182  0.51372  0.47946  1
 W  W1  1  0.66667  0.33333  0.74364  1
 W  W2  1  0.33333  0.66667  0.24364  1
