CIF file written using JARVIS-Tools package.
data_Rb3Mo2Br9
_symmetry_space_group_name_H-M  'P6_3/mmc'
_cell_length_a       7.46187
_cell_length_b       7.46187
_cell_length_c       18.1031
_cell_angle_alpha    90
_cell_angle_beta     90
_cell_angle_gamma    120

_symmetry_Int_Tables_number  194
_chemical_formula_structural  Rb3Mo2Br9
_chemical_formula_sum  Rb6Mo4Br8
_cell_volume  872.930037633598
_cell_formula_units_Z  2
loop_
  _symmetry_equiv_pos_site_id
 _symmetry_equiv_pos_as_xyz
 1  'x, y, z'
loop_
 _atom_site_type_symbol
 _atom_site_label
 _atom_site_symmetry_multiplicity
 _atom_site_fract_x
 _atom_site_fract_y
 _atom_site_fract_z
 _atom_site_fract_occupancy
 Br  Br1  1  0.49545  -0.00911  0.75000  1
 Br  Br2  1  0.82915  0.17085  0.59017  1
 Br  Br3  1  0.34170  0.17085  0.59017  1
 Br  Br4  1  0.82915  0.65830  0.59017  1
 Br  Br5  1  0.34170  0.17085  0.90983  1
 Br  Br6  1  0.65830  0.82915  0.40983  1
 Br  Br7  1  0.17085  0.82915  0.09017  1
 Br  Br8  1  0.65830  0.82915  0.09017  1
 Br  Br9  1  0.17085  0.34170  0.09017  1
 Br  Br10  1  0.82915  0.65830  0.90983  1
 Br  Br11  1  0.00911  0.50455  0.75000  1
 Br  Br12  1  0.50455  0.49545  0.25000  1
 Br  Br13  1  0.50455  0.00911  0.25000  1
 Br  Br14  1  0.17085  0.82915  0.40983  1
 Br  Br15  1  0.49545  0.50455  0.75000  1
 Br  Br16  1  -0.00911  0.49545  0.25000  1
 Br  Br17  1  0.17085  0.34170  0.40983  1
 Br  Br18  1  0.82915  0.17085  0.90983  1
 Mo  Mo1  1  0.66667  0.33333  0.67170  1
 Mo  Mo2  1  0.33333  0.66667  0.17170  1
 Mo  Mo3  1  0.66667  0.33333  0.82830  1
 Mo  Mo4  1  0.33333  0.66667  0.32830  1
 Rb  Rb1  1  0.66667  0.33333  0.06917  1
 Rb  Rb2  1  0.33333  0.66667  0.56917  1
 Rb  Rb3  1  0.66667  0.33333  0.43083  1
 Rb  Rb4  1  0.33333  0.66667  0.93083  1
 Rb  Rb5  1  0.00000  0.00000  0.25000  1
 Rb  Rb6  1  0.00000  0.00000  0.75000  1
