CIF file written using JARVIS-Tools package.
data_Pb2O3
_symmetry_space_group_name_H-M  'P4/nmm'
_cell_length_a       4.82501
_cell_length_b       4.82606
_cell_length_c       6.76016
_cell_angle_alpha    90
_cell_angle_beta     90.0147
_cell_angle_gamma    90

_symmetry_Int_Tables_number  129
_chemical_formula_structural  Pb2O3
_chemical_formula_sum  Pb4O6
_cell_volume  157.4157720422321
_cell_formula_units_Z  2
loop_
  _symmetry_equiv_pos_site_id
 _symmetry_equiv_pos_as_xyz
 1  'x, y, z'
loop_
 _atom_site_type_symbol
 _atom_site_label
 _atom_site_symmetry_multiplicity
 _atom_site_fract_x
 _atom_site_fract_y
 _atom_site_fract_z
 _atom_site_fract_occupancy
 O  O1  1  0.24990  0.75000  0.69829  1
 O  O2  1  0.25010  0.25000  0.96363  1
 O  O3  1  0.74990  0.75000  0.03637  1
 O  O4  1  0.24993  0.75000  0.30164  1
 O  O5  1  0.75010  0.25000  0.30171  1
 O  O6  1  0.75007  0.25000  0.69836  1
 Pb  Pb1  1  0.24998  0.75000  -0.00003  1
 Pb  Pb2  1  0.75002  0.25000  0.00003  1
 Pb  Pb3  1  0.25001  0.25000  0.57891  1
 Pb  Pb4  1  0.74999  0.75000  0.42109  1
