CIF file written using JARVIS-Tools package.
data_MgCo2O4
_symmetry_space_group_name_H-M  'C2/m'
_cell_length_a       2.85868
_cell_length_b       7.06255
_cell_length_c       7.04656
_cell_angle_alpha    79.3417
_cell_angle_beta     78.2965
_cell_angle_gamma    78.3241

_symmetry_Int_Tables_number  12
_chemical_formula_structural  MgCo2O4
_chemical_formula_sum  Mg2Co4O8
_cell_volume  134.8818562496308
_cell_formula_units_Z  2
loop_
  _symmetry_equiv_pos_site_id
 _symmetry_equiv_pos_as_xyz
 1  'x, y, z'
loop_
 _atom_site_type_symbol
 _atom_site_label
 _atom_site_symmetry_multiplicity
 _atom_site_fract_x
 _atom_site_fract_y
 _atom_site_fract_z
 _atom_site_fract_occupancy
 Co  Co1  1  0.36785  0.43746  0.81971  1
 Co  Co2  1  0.85509  0.79695  0.48575  1
 Co  Co3  1  0.14441  0.17103  0.53302  1
 Co  Co4  1  0.63164  0.53052  0.19906  1
 Mg  Mg1  1  0.67015  0.79916  0.85343  1
 Mg  Mg2  1  0.32934  0.16883  0.16534  1
 O  O1  1  0.13496  0.39254  0.33041  1
 O  O2  1  0.53893  0.22274  0.69226  1
 O  O3  1  0.46056  0.74523  0.32652  1
 O  O4  1  0.86454  0.57544  0.68837  1
 O  O5  1  0.83552  0.31904  0.00278  1
 O  O6  1  0.21734  0.90240  0.65581  1
 O  O7  1  0.16397  0.64894  0.01600  1
 O  O8  1  0.78217  0.06558  0.36295  1
