CIF file written using JARVIS-Tools package.
data_PbO
_symmetry_space_group_name_H-M  'Pbcm'
_cell_length_a       5.96125
_cell_length_b       5.55601
_cell_length_c       4.81389
_cell_angle_alpha    89.9952
_cell_angle_beta     89.9902
_cell_angle_gamma    90.0246

_symmetry_Int_Tables_number  57
_chemical_formula_structural  PbO
_chemical_formula_sum  Pb4O4
_cell_volume  159.43961506805385
_cell_formula_units_Z  4
loop_
  _symmetry_equiv_pos_site_id
 _symmetry_equiv_pos_as_xyz
 1  'x, y, z'
loop_
 _atom_site_type_symbol
 _atom_site_label
 _atom_site_symmetry_multiplicity
 _atom_site_fract_x
 _atom_site_fract_y
 _atom_site_fract_z
 _atom_site_fract_occupancy
 O  O1  1  0.63867  0.91147  0.19033  1
 O  O2  1  0.36132  0.41136  0.19043  1
 O  O3  1  0.63868  0.58863  0.69032  1
 O  O4  1  0.36133  0.08853  0.69043  1
 Pb  Pb1  1  0.72947  0.51077  0.19005  1
 Pb  Pb2  1  0.27053  0.01058  0.19018  1
 Pb  Pb3  1  0.27053  0.48923  0.69019  1
 Pb  Pb4  1  0.72947  0.98942  0.69006  1
