CIF file written using JARVIS-Tools package.
data_NiO2
_symmetry_space_group_name_H-M  'Immm'
_cell_length_a       3.47995
_cell_length_b       3.47994
_cell_length_c       3.47994
_cell_angle_alpha    107.139
_cell_angle_beta     131.9
_cell_angle_gamma    92.1478

_symmetry_Int_Tables_number  71
_chemical_formula_structural  NiO2
_chemical_formula_sum  NiO2
_cell_volume  28.301356757032384
_cell_formula_units_Z  1
loop_
  _symmetry_equiv_pos_site_id
 _symmetry_equiv_pos_as_xyz
 1  'x, y, z'
loop_
 _atom_site_type_symbol
 _atom_site_label
 _atom_site_symmetry_multiplicity
 _atom_site_fract_x
 _atom_site_fract_y
 _atom_site_fract_z
 _atom_site_fract_occupancy
 Ni  Ni1  1  0.00000  0.50000  0.50000  1
 O  O1  1  0.74430  0.74430  -0.00000  1
 O  O2  1  0.25570  0.25570  0.00000  1
