CIF file written using JARVIS-Tools package.
data_Ca3VN3
_symmetry_space_group_name_H-M  'Cmcm'
_cell_length_a       5.05433
_cell_length_b       6.69698
_cell_length_c       6.69698
_cell_angle_alpha    101.158
_cell_angle_beta     90
_cell_angle_gamma    90

_symmetry_Int_Tables_number  63
_chemical_formula_structural  Ca3VN3
_chemical_formula_sum  Ca6V2N6
_cell_volume  222.39924575171568
_cell_formula_units_Z  2
loop_
  _symmetry_equiv_pos_site_id
 _symmetry_equiv_pos_as_xyz
 1  'x, y, z'
loop_
 _atom_site_type_symbol
 _atom_site_label
 _atom_site_symmetry_multiplicity
 _atom_site_fract_x
 _atom_site_fract_y
 _atom_site_fract_z
 _atom_site_fract_occupancy
 Ca  Ca1  1  0.75000  0.82897  0.59803  1
 Ca  Ca2  1  0.25000  0.17103  0.40197  1
 Ca  Ca3  1  0.25000  0.10862  0.89138  1
 Ca  Ca4  1  0.75000  0.89138  0.10862  1
 Ca  Ca5  1  0.25000  0.59803  0.82897  1
 Ca  Ca6  1  0.75000  0.40197  0.17103  1
 N  N1  1  0.75000  0.57107  0.81844  1
 N  N2  1  0.25000  0.42893  0.18156  1
 N  N3  1  0.75000  0.12677  0.87323  1
 N  N4  1  0.25000  0.87323  0.12677  1
 N  N5  1  0.75000  0.18156  0.42893  1
 N  N6  1  0.25000  0.81844  0.57107  1
 V  V1  1  0.25000  0.69676  0.30324  1
 V  V2  1  0.75000  0.30324  0.69676  1
