CIF file written using JARVIS-Tools package.
data_RbPrTe4
_symmetry_space_group_name_H-M  'P4/nbm'
_cell_length_a       6.98951
_cell_length_b       6.98951
_cell_length_c       9.10075
_cell_angle_alpha    90
_cell_angle_beta     90
_cell_angle_gamma    90

_symmetry_Int_Tables_number  125
_chemical_formula_structural  RbPrTe4
_chemical_formula_sum  Rb2Pr2Te8
_cell_volume  444.6017008323922
_cell_formula_units_Z  2
loop_
  _symmetry_equiv_pos_site_id
 _symmetry_equiv_pos_as_xyz
 1  'x, y, z'
loop_
 _atom_site_type_symbol
 _atom_site_label
 _atom_site_symmetry_multiplicity
 _atom_site_fract_x
 _atom_site_fract_y
 _atom_site_fract_z
 _atom_site_fract_occupancy
 Pr  Pr1  1  0.50000  0.50000  0.50000  1
 Pr  Pr2  1  0.00000  0.00000  0.50000  1
 Rb  Rb1  1  0.50000  0.50000  0.00000  1
 Rb  Rb2  1  0.00000  0.00000  0.00000  1
 Te  Te1  1  0.35637  0.85637  0.28833  1
 Te  Te2  1  0.14363  0.35637  0.28833  1
 Te  Te3  1  0.85637  0.64363  0.28833  1
 Te  Te4  1  0.35637  0.14363  0.71167  1
 Te  Te5  1  0.64363  0.85637  0.71167  1
 Te  Te6  1  0.64363  0.14363  0.28833  1
 Te  Te7  1  0.85637  0.35637  0.71167  1
 Te  Te8  1  0.14363  0.64363  0.71167  1
