CIF file written using JARVIS-Tools package.
data_CuHClO
_symmetry_space_group_name_H-M  'P2_1/c'
_cell_length_a       6.13794
_cell_length_b       6.73713
_cell_length_c       5.62108
_cell_angle_alpha    90
_cell_angle_beta     117.378
_cell_angle_gamma    90

_symmetry_Int_Tables_number  14
_chemical_formula_structural  CuHClO
_chemical_formula_sum  Cu4H4Cl4O4
_cell_volume  206.40757498118666
_cell_formula_units_Z  4
loop_
  _symmetry_equiv_pos_site_id
 _symmetry_equiv_pos_as_xyz
 1  'x, y, z'
loop_
 _atom_site_type_symbol
 _atom_site_label
 _atom_site_symmetry_multiplicity
 _atom_site_fract_x
 _atom_site_fract_y
 _atom_site_fract_z
 _atom_site_fract_occupancy
 Cl  Cl1  1  0.32247  0.41463  0.63647  1
 Cl  Cl2  1  0.67753  0.91463  0.86353  1
 Cl  Cl3  1  0.67753  0.58537  0.36353  1
 Cl  Cl4  1  0.32247  0.08537  0.13647  1
 Cu  Cu1  1  0.03050  0.38182  0.77761  1
 Cu  Cu2  1  0.96950  0.88182  0.72239  1
 Cu  Cu3  1  0.96950  0.61818  0.22239  1
 Cu  Cu4  1  0.03050  0.11818  0.27761  1
 H  H1  1  0.70259  0.33972  0.94111  1
 H  H2  1  0.29741  0.83972  0.55889  1
 H  H3  1  0.29741  0.66028  0.05889  1
 H  H4  1  0.70259  0.16028  0.44111  1
 O  O1  1  0.88448  0.35432  0.03853  1
 O  O2  1  0.11552  0.85432  0.46147  1
 O  O3  1  0.11552  0.64568  0.96147  1
 O  O4  1  0.88448  0.14568  0.53853  1
