CIF file written using JARVIS-Tools package.
data_TiOF
_symmetry_space_group_name_H-M  'P2_1/c'
_cell_length_a       5.15287
_cell_length_b       4.71585
_cell_length_c       5.70985
_cell_angle_alpha    90
_cell_angle_beta     91.5862
_cell_angle_gamma    90

_symmetry_Int_Tables_number  14
_chemical_formula_structural  TiOF
_chemical_formula_sum  Ti4O4F4
_cell_volume  138.69695904880476
_cell_formula_units_Z  4
loop_
  _symmetry_equiv_pos_site_id
 _symmetry_equiv_pos_as_xyz
 1  'x, y, z'
loop_
 _atom_site_type_symbol
 _atom_site_label
 _atom_site_symmetry_multiplicity
 _atom_site_fract_x
 _atom_site_fract_y
 _atom_site_fract_z
 _atom_site_fract_occupancy
 F  F1  1  0.41707  0.23162  0.87728  1
 F  F2  1  0.41707  0.26838  0.37728  1
 F  F3  1  0.58293  0.73162  0.62272  1
 F  F4  1  0.58293  0.76838  0.12272  1
 O  O1  1  0.09044  0.76372  0.87301  1
 O  O2  1  0.09044  0.73628  0.37301  1
 O  O3  1  0.90956  0.26372  0.62699  1
 O  O4  1  0.90956  0.23628  0.12699  1
 Ti  Ti1  1  0.21615  0.51448  0.64181  1
 Ti  Ti2  1  0.21615  0.98552  0.14181  1
 Ti  Ti3  1  0.78385  0.01448  0.85819  1
 Ti  Ti4  1  0.78385  0.48552  0.35819  1
