CIF file written using JARVIS-Tools package.
data_Dy2Tc2O7
_symmetry_space_group_name_H-M  'Fd-3m'
_cell_length_a       7.25479
_cell_length_b       7.25479
_cell_length_c       7.25479
_cell_angle_alpha    60
_cell_angle_beta     60
_cell_angle_gamma    60

_symmetry_Int_Tables_number  227
_chemical_formula_structural  Dy2Tc2O7
_chemical_formula_sum  Dy4Tc4O4
_cell_volume  269.9971404019703
_cell_formula_units_Z  2
loop_
  _symmetry_equiv_pos_site_id
 _symmetry_equiv_pos_as_xyz
 1  'x, y, z'
loop_
 _atom_site_type_symbol
 _atom_site_label
 _atom_site_symmetry_multiplicity
 _atom_site_fract_x
 _atom_site_fract_y
 _atom_site_fract_z
 _atom_site_fract_occupancy
 Dy  Dy1  1  0.50000  0.00000  -0.00000  1
 Dy  Dy2  1  0.00000  0.00000  0.00000  1
 Dy  Dy3  1  0.00000  0.00000  0.50000  1
 Dy  Dy4  1  0.00000  0.50000  -0.00000  1
 O  O1  1  0.58771  0.16229  0.58771  1
 O  O2  1  0.83771  0.41229  0.83771  1
 O  O3  1  0.16229  0.58771  0.58771  1
 O  O4  1  0.83771  0.83771  0.41229  1
 O  O5  1  0.58771  0.58771  0.16229  1
 O  O6  1  0.83771  0.41229  0.41229  1
 O  O7  1  0.58771  0.16229  0.16229  1
 O  O8  1  0.12500  0.12500  0.12500  1
 O  O9  1  0.41229  0.83771  0.41229  1
 O  O10  1  0.41229  0.41229  0.83771  1
 O  O11  1  0.16229  0.58771  0.16229  1
 O  O12  1  0.87500  0.87500  0.87500  1
 O  O13  1  0.16229  0.16229  0.58771  1
 O  O14  1  0.41229  0.83771  0.83771  1
 Tc  Tc1  1  0.50000  0.00000  0.50000  1
 Tc  Tc2  1  0.00000  0.50000  0.50000  1
 Tc  Tc3  1  0.50000  0.50000  -0.00000  1
 Tc  Tc4  1  0.50000  0.50000  0.50000  1
