CIF file written using JARVIS-Tools package.
data_YbH3O3
_symmetry_space_group_name_H-M  'P6_3/m'
_cell_length_a       6.14745
_cell_length_b       3.53226
_cell_length_c       6.14757
_cell_angle_alpha    90
_cell_angle_beta     119.984
_cell_angle_gamma    90

_symmetry_Int_Tables_number  176
_chemical_formula_structural  YbH3O3
_chemical_formula_sum  Yb2H6O6
_cell_volume  115.62488402911133
_cell_formula_units_Z  2
loop_
  _symmetry_equiv_pos_site_id
 _symmetry_equiv_pos_as_xyz
 1  'x, y, z'
loop_
 _atom_site_type_symbol
 _atom_site_label
 _atom_site_symmetry_multiplicity
 _atom_site_fract_x
 _atom_site_fract_y
 _atom_site_fract_z
 _atom_site_fract_occupancy
 H  H1  1  0.16077  0.25000  0.27395  1
 H  H2  1  0.11326  0.25000  0.83955  1
 H  H3  1  0.72582  0.25000  0.88668  1
 H  H4  1  0.83923  0.75000  0.72605  1
 H  H5  1  0.88674  0.75000  0.16045  1
 H  H6  1  0.27418  0.75000  0.11332  1
 O  O1  1  0.07917  0.25000  0.37627  1
 O  O2  1  0.29712  0.25000  0.92091  1
 O  O3  1  0.62363  0.25000  0.70280  1
 O  O4  1  0.92083  0.75000  0.62373  1
 O  O5  1  0.70288  0.75000  0.07909  1
 O  O6  1  0.37637  0.75000  0.29720  1
 Yb  Yb1  1  0.66676  0.25000  0.33337  1
 Yb  Yb2  1  0.33324  0.75000  0.66663  1
