CIF file written using JARVIS-Tools package.
data_PBr5
_symmetry_space_group_name_H-M  'Pbcm'
_cell_length_a       5.6306
_cell_length_b       8.13967
_cell_length_c       17.2377
_cell_angle_alpha    90
_cell_angle_beta     90
_cell_angle_gamma    90

_symmetry_Int_Tables_number  57
_chemical_formula_structural  PBr5
_chemical_formula_sum  P4Br20
_cell_volume  790.0262693534876
_cell_formula_units_Z  4
loop_
  _symmetry_equiv_pos_site_id
 _symmetry_equiv_pos_as_xyz
 1  'x, y, z'
loop_
 _atom_site_type_symbol
 _atom_site_label
 _atom_site_symmetry_multiplicity
 _atom_site_fract_x
 _atom_site_fract_y
 _atom_site_fract_z
 _atom_site_fract_occupancy
 Br  Br1  1  0.73267  0.53014  0.12992  1
 Br  Br2  1  0.16533  0.75000  0.24901  1
 Br  Br3  1  0.16533  0.25000  0.25099  1
 Br  Br4  1  0.83467  0.25000  0.75099  1
 Br  Br5  1  0.83467  0.75000  0.74901  1
 Br  Br6  1  0.73267  0.96986  0.12992  1
 Br  Br7  1  0.73267  0.03014  0.37008  1
 Br  Br8  1  0.26733  0.46986  0.87008  1
 Br  Br9  1  0.21095  0.25000  0.45994  1
 Br  Br10  1  0.26733  0.53014  0.62992  1
 Br  Br11  1  0.26733  0.96986  0.62992  1
 Br  Br12  1  0.21095  0.75000  0.04006  1
 Br  Br13  1  0.73267  0.46986  0.37008  1
 Br  Br14  1  0.38935  0.75000  0.40882  1
 Br  Br15  1  0.38935  0.25000  0.09118  1
 Br  Br16  1  0.61065  0.25000  0.59118  1
 Br  Br17  1  0.61065  0.75000  0.90882  1
 Br  Br18  1  0.78905  0.75000  0.54006  1
 Br  Br19  1  0.78905  0.25000  0.95994  1
 Br  Br20  1  0.26733  0.03014  0.87008  1
 P  P1  1  0.96298  0.75000  0.13822  1
 P  P2  1  0.96298  0.25000  0.36178  1
 P  P3  1  0.03702  0.25000  0.86178  1
 P  P4  1  0.03702  0.75000  0.63822  1
