CIF file written using JARVIS-Tools package.
data_Li5NCl2
_symmetry_space_group_name_H-M  'R-3m'
_cell_length_a       9.71122
_cell_length_b       9.71122
_cell_length_c       9.71121
_cell_angle_alpha    21.4465
_cell_angle_beta     21.4465
_cell_angle_gamma    21.4465

_symmetry_Int_Tables_number  166
_chemical_formula_structural  Li5NCl2
_chemical_formula_sum  Li5NCl2
_cell_volume  107.27094902100295
_cell_formula_units_Z  1
loop_
  _symmetry_equiv_pos_site_id
 _symmetry_equiv_pos_as_xyz
 1  'x, y, z'
loop_
 _atom_site_type_symbol
 _atom_site_label
 _atom_site_symmetry_multiplicity
 _atom_site_fract_x
 _atom_site_fract_y
 _atom_site_fract_z
 _atom_site_fract_occupancy
 Cl  Cl1  1  0.21836  0.21836  0.21836  1
 Cl  Cl2  1  0.78164  0.78164  0.78164  1
 Li  Li1  1  0.50000  0.50000  0.50000  1
 Li  Li2  1  0.93328  0.93328  0.93328  1
 Li  Li3  1  0.06672  0.06672  0.06672  1
 Li  Li4  1  0.67445  0.67445  0.67445  1
 Li  Li5  1  0.32555  0.32555  0.32555  1
 N  N1  1  0.00000  0.00000  0.00000  1
