CIF file written using JARVIS-Tools package.
data_SbOF3
_symmetry_space_group_name_H-M  'P-1'
_cell_length_a       8.38862
_cell_length_b       5.50601
_cell_length_c       7.88678
_cell_angle_alpha    100.598
_cell_angle_beta     95.9741
_cell_angle_gamma    115.321

_symmetry_Int_Tables_number  2
_chemical_formula_structural  SbOF3
_chemical_formula_sum  Sb4O4F2
_cell_volume  316.7408450374613
_cell_formula_units_Z  4
loop_
  _symmetry_equiv_pos_site_id
 _symmetry_equiv_pos_as_xyz
 1  'x, y, z'
loop_
 _atom_site_type_symbol
 _atom_site_label
 _atom_site_symmetry_multiplicity
 _atom_site_fract_x
 _atom_site_fract_y
 _atom_site_fract_z
 _atom_site_fract_occupancy
 F  F1  1  0.72637  0.09651  0.37247  1
 F  F2  1  -0.01327  0.43830  0.64243  1
 F  F3  1  0.80477  0.68875  -0.04731  1
 F  F4  1  0.09045  0.15218  0.39236  1
 F  F5  1  0.27363  0.90349  0.62753  1
 F  F6  1  0.19523  0.31125  0.04731  1
 F  F7  1  0.51944  0.73362  0.06012  1
 F  F8  1  0.48056  0.26638  0.93988  1
 F  F9  1  0.34872  0.04672  0.21878  1
 F  F10  1  0.01327  0.56170  0.35757  1
 F  F11  1  0.90955  0.84782  0.60764  1
 F  F12  1  0.65128  -0.04672  0.78122  1
 O  O1  1  0.67803  0.53161  0.26848  1
 O  O2  1  0.60178  0.37219  0.60998  1
 O  O3  1  0.39822  0.62781  0.39002  1
 O  O4  1  0.32197  0.46839  0.73152  1
 Sb  Sb1  1  0.78920  0.47271  0.47363  1
 Sb  Sb2  1  0.57669  0.59278  0.81805  1
 Sb  Sb3  1  0.42331  0.40722  0.18195  1
 Sb  Sb4  1  0.21080  0.52729  0.52637  1
