CIF file written using JARVIS-Tools package.
data_MgCr2O4
_symmetry_space_group_name_H-M  'R3m'
_cell_length_a       5.91653
_cell_length_b       5.91842
_cell_length_c       5.91841
_cell_angle_alpha    60
_cell_angle_beta     59.9894
_cell_angle_gamma    59.9894

_symmetry_Int_Tables_number  160
_chemical_formula_structural  MgCr2O4
_chemical_formula_sum  Mg2Cr4O8
_cell_volume  146.51899783125037
_cell_formula_units_Z  2
loop_
  _symmetry_equiv_pos_site_id
 _symmetry_equiv_pos_as_xyz
 1  'x, y, z'
loop_
 _atom_site_type_symbol
 _atom_site_label
 _atom_site_symmetry_multiplicity
 _atom_site_fract_x
 _atom_site_fract_y
 _atom_site_fract_z
 _atom_site_fract_occupancy
 Cr  Cr1  1  0.26087  0.24638  0.24638  1
 Cr  Cr2  1  0.62807  0.12024  0.62585  1
 Cr  Cr3  1  0.62807  0.62585  0.12024  1
 Cr  Cr4  1  0.62807  0.62585  0.62585  1
 Mg  Mg1  1  0.98992  0.00336  0.00336  1
 Mg  Mg2  1  0.12162  0.62613  0.62613  1
 O  O1  1  0.39156  0.37663  0.37663  1
 O  O2  1  0.39156  0.37663  0.85517  1
 O  O3  1  0.39156  0.85517  0.37663  1
 O  O4  1  0.85207  0.38264  0.38264  1
 O  O5  1  0.40694  0.86435  0.86435  1
 O  O6  1  0.85323  0.40857  0.86910  1
 O  O7  1  0.85323  0.86910  0.40857  1
 O  O8  1  0.85323  0.86910  0.86910  1
