CIF file written using JARVIS-Tools package.
data_Li3MnF6
_symmetry_space_group_name_H-M  'C2/m'
_cell_length_a       4.88246
_cell_length_b       4.93958
_cell_length_c       4.90666
_cell_angle_alpha    90.9262
_cell_angle_beta     88.1255
_cell_angle_gamma    119.618

_symmetry_Int_Tables_number  12
_chemical_formula_structural  Li3MnF6
_chemical_formula_sum  Li3MnF6
_cell_volume  102.81863139265259
_cell_formula_units_Z  1
loop_
  _symmetry_equiv_pos_site_id
 _symmetry_equiv_pos_as_xyz
 1  'x, y, z'
loop_
 _atom_site_type_symbol
 _atom_site_label
 _atom_site_symmetry_multiplicity
 _atom_site_fract_x
 _atom_site_fract_y
 _atom_site_fract_z
 _atom_site_fract_occupancy
 F  F1  1  0.01218  0.69321  0.72453  1
 F  F2  1  0.98780  0.30679  0.27547  1
 F  F3  1  0.31897  0.30679  0.72453  1
 F  F4  1  0.29589  0.00000  0.22724  1
 F  F5  1  0.68101  0.69321  0.27547  1
 F  F6  1  0.70409  -0.00000  0.77277  1
 Li  Li1  1  0.32077  0.64156  0.50000  1
 Li  Li2  1  -0.00001  0.00000  0.50000  1
 Li  Li3  1  0.67921  0.35844  0.50000  1
 Mn  Mn1  1  -0.00002  -0.00000  0.00001  1
