CIF file written using JARVIS-Tools package.
data_As2S3
_symmetry_space_group_name_H-M  'P2_1/c'
_cell_length_a       4.56551
_cell_length_b       10.8881
_cell_length_c       12.2243
_cell_angle_alpha    90
_cell_angle_beta     111.634
_cell_angle_gamma    90

_symmetry_Int_Tables_number  14
_chemical_formula_structural  As2S3
_chemical_formula_sum  As8S2
_cell_volume  564.8633059262039
_cell_formula_units_Z  4
loop_
  _symmetry_equiv_pos_site_id
 _symmetry_equiv_pos_as_xyz
 1  'x, y, z'
loop_
 _atom_site_type_symbol
 _atom_site_label
 _atom_site_symmetry_multiplicity
 _atom_site_fract_x
 _atom_site_fract_y
 _atom_site_fract_z
 _atom_site_fract_occupancy
 As  As1  1  0.13480  0.81906  0.98056  1
 As  As2  1  0.86520  0.31906  0.51944  1
 As  As3  1  0.86520  0.18094  0.01944  1
 As  As4  1  0.13480  0.68094  0.48056  1
 As  As5  1  0.42305  0.68868  0.76945  1
 As  As6  1  0.57695  0.18868  0.73055  1
 As  As7  1  0.57695  0.31132  0.23055  1
 As  As8  1  0.42305  0.81132  0.26945  1
 S  S1  1  0.55819  0.77512  0.62248  1
 S  S2  1  0.09396  0.13656  0.59420  1
 S  S3  1  0.44181  0.22488  0.37752  1
 S  S4  1  0.55819  0.72488  0.12248  1
 S  S5  1  0.44181  0.27512  0.87752  1
 S  S6  1  0.90604  0.86344  0.40580  1
 S  S7  1  0.65759  0.12605  0.15783  1
 S  S8  1  0.34241  0.62605  0.34217  1
 S  S9  1  0.34241  0.87395  0.84217  1
 S  S10  1  0.09396  0.36344  0.09420  1
 S  S11  1  0.65759  0.37395  0.65783  1
 S  S12  1  0.90604  0.63656  0.90580  1
