CIF file written using JARVIS-Tools package.
data_H8PdN2Cl6
_symmetry_space_group_name_H-M  'P1'
_cell_length_a       6.85295
_cell_length_b       6.84683
_cell_length_c       10.0105
_cell_angle_alpha    90
_cell_angle_beta     90.131
_cell_angle_gamma    90

_symmetry_Int_Tables_number  1
_chemical_formula_structural  H8PdN2Cl6
_chemical_formula_sum  H6Pd2N4Cl2
_cell_volume  469.7020961015831
_cell_formula_units_Z  2
loop_
  _symmetry_equiv_pos_site_id
 _symmetry_equiv_pos_as_xyz
 1  'x, y, z'
loop_
 _atom_site_type_symbol
 _atom_site_label
 _atom_site_symmetry_multiplicity
 _atom_site_fract_x
 _atom_site_fract_y
 _atom_site_fract_z
 _atom_site_fract_occupancy
 Cl  Cl1  1  0.99322  0.00495  0.23472  1
 Cl  Cl2  1  0.50678  0.50495  0.26528  1
 Cl  Cl3  1  0.21959  0.73680  0.00486  1
 Cl  Cl4  1  0.71959  0.76320  0.50486  1
 Cl  Cl5  1  0.78041  0.26320  0.99514  1
 Cl  Cl6  1  0.28041  0.23680  0.49514  1
 Cl  Cl7  1  0.26299  0.21984  0.00247  1
 Cl  Cl8  1  0.76299  0.28016  0.50247  1
 Cl  Cl9  1  0.73701  0.78016  0.99753  1
 Cl  Cl10  1  0.23701  0.71984  0.49753  1
 Cl  Cl11  1  0.49322  0.49505  0.73472  1
 Cl  Cl12  1  0.00678  0.99505  0.76528  1
 H  H1  1  0.15079  0.47721  0.75466  1
 H  H2  1  0.65079  0.02279  0.25466  1
 H  H3  1  0.84921  0.52279  0.24534  1
 H  H4  1  0.55593  0.93294  0.83489  1
 H  H5  1  0.00000  0.00000  0.00000  1
 H  H6  1  0.43427  0.05657  0.33417  1
 H  H7  1  0.93427  0.44343  0.83417  1
 H  H8  1  0.56573  0.94343  0.66583  1
 H  H9  1  0.06573  0.55657  0.16583  1
 H  H10  1  0.47665  0.84998  0.24438  1
 H  H11  1  0.97665  0.65002  0.74438  1
 H  H12  1  0.05593  0.56706  0.33489  1
 H  H13  1  0.52335  0.15002  0.75562  1
 H  H14  1  0.44407  0.06706  0.16511  1
 H  H15  1  0.94407  0.43294  0.66511  1
 H  H16  1  0.50000  0.50000  0.50000  1
 N  N1  1  0.49872  0.00067  0.75040  1
 N  N2  1  -0.00128  0.49933  0.25040  1
 N  N3  1  0.50128  -0.00067  0.24960  1
 N  N4  1  0.00128  0.50067  0.74960  1
 Pd  Pd1  1  0.34921  0.97721  0.74534  1
 Pd  Pd2  1  0.02335  0.34998  0.25562  1
