CIF file written using JARVIS-Tools package.
data_Ba3NiIr2O9
_symmetry_space_group_name_H-M  'P6_3/mmc'
_cell_length_a       5.78472
_cell_length_b       5.78472
_cell_length_c       14.3297
_cell_angle_alpha    90
_cell_angle_beta     90
_cell_angle_gamma    120

_symmetry_Int_Tables_number  194
_chemical_formula_structural  Ba3NiIr2O9
_chemical_formula_sum  Ba6Ni2Ir4O8
_cell_volume  415.27169369173055
_cell_formula_units_Z  2
loop_
  _symmetry_equiv_pos_site_id
 _symmetry_equiv_pos_as_xyz
 1  'x, y, z'
loop_
 _atom_site_type_symbol
 _atom_site_label
 _atom_site_symmetry_multiplicity
 _atom_site_fract_x
 _atom_site_fract_y
 _atom_site_fract_z
 _atom_site_fract_occupancy
 Ba  Ba1  1  0.00000  0.00000  0.75000  1
 Ba  Ba2  1  0.00000  0.00000  0.25000  1
 Ba  Ba3  1  0.33333  0.66667  0.08528  1
 Ba  Ba4  1  0.66667  0.33333  0.58528  1
 Ba  Ba5  1  0.66667  0.33333  0.91472  1
 Ba  Ba6  1  0.33333  0.66667  0.41472  1
 Ir  Ir1  1  0.33333  0.66667  0.84357  1
 Ir  Ir2  1  0.66667  0.33333  0.34357  1
 Ir  Ir3  1  0.66667  0.33333  0.15643  1
 Ir  Ir4  1  0.33333  0.66667  0.65643  1
 Ni  Ni1  1  0.00000  0.00000  0.50000  1
 Ni  Ni2  1  0.00000  0.00000  0.00000  1
 O  O1  1  0.16789  0.83211  0.58177  1
 O  O2  1  0.48789  0.51211  0.75000  1
 O  O3  1  0.51211  0.02422  0.25000  1
 O  O4  1  0.16789  0.83211  0.91823  1
 O  O5  1  0.02422  0.51211  0.75000  1
 O  O6  1  0.48789  0.97578  0.75000  1
 O  O7  1  0.51211  0.48789  0.25000  1
 O  O8  1  0.97578  0.48789  0.25000  1
 O  O9  1  0.83211  0.16789  0.08177  1
 O  O10  1  0.66422  0.83211  0.58177  1
 O  O11  1  0.16789  0.33578  0.58177  1
 O  O12  1  0.83211  0.16789  0.41823  1
 O  O13  1  0.83211  0.66422  0.41823  1
 O  O14  1  0.83211  0.66422  0.08177  1
 O  O15  1  0.33578  0.16789  0.41823  1
 O  O16  1  0.66422  0.83211  0.91823  1
 O  O17  1  0.33578  0.16789  0.08177  1
 O  O18  1  0.16789  0.33578  0.91823  1
