CIF file written using JARVIS-Tools package.
data_As2O3
_symmetry_space_group_name_H-M  'P2_1/c'
_cell_length_a       8.09954
_cell_length_b       4.57726
_cell_length_c       10.7612
_cell_angle_alpha    90
_cell_angle_beta     124.588
_cell_angle_gamma    90

_symmetry_Int_Tables_number  14
_chemical_formula_structural  As2O3
_chemical_formula_sum  As8O2
_cell_volume  328.44359063488736
_cell_formula_units_Z  4
loop_
  _symmetry_equiv_pos_site_id
 _symmetry_equiv_pos_as_xyz
 1  'x, y, z'
loop_
 _atom_site_type_symbol
 _atom_site_label
 _atom_site_symmetry_multiplicity
 _atom_site_fract_x
 _atom_site_fract_y
 _atom_site_fract_z
 _atom_site_fract_occupancy
 As  As1  1  0.55944  0.79292  0.87798  1
 As  As2  1  0.44056  0.29292  0.62202  1
 As  As3  1  0.44056  0.20708  0.12202  1
 As  As4  1  0.55944  0.70708  0.37798  1
 As  As5  1  0.91778  0.33001  0.80478  1
 As  As6  1  0.08222  0.83001  0.69522  1
 As  As7  1  0.08222  0.66999  0.19522  1
 As  As8  1  0.91778  0.16999  0.30478  1
 O  O1  1  0.33400  0.86623  0.87268  1
 O  O2  1  0.04255  0.44417  0.71353  1
 O  O3  1  0.66600  0.13377  0.12732  1
 O  O4  1  0.33400  0.63377  0.37268  1
 O  O5  1  0.66600  0.36623  0.62732  1
 O  O6  1  0.95745  0.55583  0.28647  1
 O  O7  1  0.59279  0.35545  0.31736  1
 O  O8  1  0.40721  0.85545  0.18264  1
 O  O9  1  0.40721  0.64455  0.68264  1
 O  O10  1  0.04255  0.05583  0.21353  1
 O  O11  1  0.59279  0.14455  0.81736  1
 O  O12  1  0.95745  0.94417  0.78647  1
