CIF file written using JARVIS-Tools package.
data_K2NaBP2
_symmetry_space_group_name_H-M  'C2/m'
_cell_length_a       4.97583
_cell_length_b       6.7061
_cell_length_c       10.6708
_cell_angle_alpha    84.4545
_cell_angle_beta     76.5168
_cell_angle_gamma    68.2197

_symmetry_Int_Tables_number  12
_chemical_formula_structural  K2NaBP2
_chemical_formula_sum  K4Na2B2P4
_cell_volume  321.5151201218105
_cell_formula_units_Z  2
loop_
  _symmetry_equiv_pos_site_id
 _symmetry_equiv_pos_as_xyz
 1  'x, y, z'
loop_
 _atom_site_type_symbol
 _atom_site_label
 _atom_site_symmetry_multiplicity
 _atom_site_fract_x
 _atom_site_fract_y
 _atom_site_fract_z
 _atom_site_fract_occupancy
 B  B1  1  0.50000  0.50000  0.50000  1
 B  B2  1  0.50000  0.00000  0.00000  1
 K  K1  1  0.98286  0.85581  0.17850  1
 K  K2  1  0.17705  0.23670  0.40919  1
 K  K3  1  0.01714  0.14419  0.82150  1
 K  K4  1  0.82295  0.76330  0.59081  1
 Na  Na1  1  0.29785  0.53733  0.86690  1
 Na  Na2  1  0.70215  0.46267  0.13310  1
 P  P1  1  0.33459  0.24030  0.09061  1
 P  P2  1  0.46677  0.69384  0.37267  1
 P  P3  1  0.66541  0.75970  0.90939  1
 P  P4  1  0.53323  0.30616  0.62733  1
