CIF file written using JARVIS-Tools package.
data_MnSbSe2I
_symmetry_space_group_name_H-M  'C2/m'
_cell_length_a       4.05957
_cell_length_b       6.98122
_cell_length_c       10.0844
_cell_angle_alpha    91.5102
_cell_angle_beta     90
_cell_angle_gamma    106.903

_symmetry_Int_Tables_number  12
_chemical_formula_structural  MnSbSe2I
_chemical_formula_sum  Mn2Sb2Se4I2
_cell_volume  273.34798086956397
_cell_formula_units_Z  2
loop_
  _symmetry_equiv_pos_site_id
 _symmetry_equiv_pos_as_xyz
 1  'x, y, z'
loop_
 _atom_site_type_symbol
 _atom_site_label
 _atom_site_symmetry_multiplicity
 _atom_site_fract_x
 _atom_site_fract_y
 _atom_site_fract_z
 _atom_site_fract_occupancy
 I  I1  1  0.63563  0.27126  0.92617  1
 I  I2  1  0.36437  0.72874  0.07383  1
 Mn  Mn1  1  0.00000  0.00000  0.00000  1
 Mn  Mn2  1  0.00000  0.00000  0.50000  1
 Sb  Sb1  1  0.70830  0.41660  0.31378  1
 Sb  Sb2  1  0.29170  0.58340  0.68622  1
 Se  Se1  1  0.07171  0.14341  0.25787  1
 Se  Se2  1  0.36355  0.72710  0.44306  1
 Se  Se3  1  0.92829  0.85659  0.74213  1
 Se  Se4  1  0.63645  0.27290  0.55694  1
