CIF file written using JARVIS-Tools package.
data_TaP
_symmetry_space_group_name_H-M  'I4_1/amd'
_cell_length_a       3.51544
_cell_length_b       3.51544
_cell_length_c       5.81428
_cell_angle_alpha    107.597
_cell_angle_beta     107.597
_cell_angle_gamma    90

_symmetry_Int_Tables_number  141
_chemical_formula_structural  TaP
_chemical_formula_sum  Ta2P2
_cell_volume  64.95657910010641
_cell_formula_units_Z  2
loop_
  _symmetry_equiv_pos_site_id
 _symmetry_equiv_pos_as_xyz
 1  'x, y, z'
loop_
 _atom_site_type_symbol
 _atom_site_label
 _atom_site_symmetry_multiplicity
 _atom_site_fract_x
 _atom_site_fract_y
 _atom_site_fract_z
 _atom_site_fract_occupancy
 P  P1  1  0.37500  0.12500  0.25000  1
 P  P2  1  0.62500  0.87500  0.75000  1
 Ta  Ta1  1  0.87500  0.62500  0.25000  1
 Ta  Ta2  1  0.12500  0.37500  0.75000  1
