CIF file written using JARVIS-Tools package.
data_Cr2O5
_symmetry_space_group_name_H-M  'Cmcm'
_cell_length_a       11.094
_cell_length_b       5.31311
_cell_length_c       3.55095
_cell_angle_alpha    109.522
_cell_angle_beta     90
_cell_angle_gamma    90

_symmetry_Int_Tables_number  63
_chemical_formula_structural  Cr2O5
_chemical_formula_sum  Cr4O0
_cell_volume  197.27383726219426
_cell_formula_units_Z  2
loop_
  _symmetry_equiv_pos_site_id
 _symmetry_equiv_pos_as_xyz
 1  'x, y, z'
loop_
 _atom_site_type_symbol
 _atom_site_label
 _atom_site_symmetry_multiplicity
 _atom_site_fract_x
 _atom_site_fract_y
 _atom_site_fract_z
 _atom_site_fract_occupancy
 Cr  Cr1  1  0.14809  0.90223  0.95112  1
 Cr  Cr2  1  0.35191  0.09777  0.54888  1
 Cr  Cr3  1  0.64809  0.09777  0.54888  1
 Cr  Cr4  1  0.85191  0.90223  0.95112  1
 O  O1  1  0.00000  0.02349  0.01174  1
 O  O2  1  0.13380  0.59008  0.79504  1
 O  O3  1  0.18262  0.00196  0.50098  1
 O  O4  1  0.31738  0.99804  0.99902  1
 O  O5  1  0.36620  0.40992  0.70496  1
 O  O6  1  0.50000  0.97651  0.48826  1
 O  O7  1  0.63380  0.40992  0.70496  1
 O  O8  1  0.86620  0.59008  0.79504  1
 O  O9  1  0.68262  0.99804  0.99902  1
 O  O10  1  0.81738  0.00196  0.50098  1
