CIF file written using JARVIS-Tools package.
data_PrZr3F15
_symmetry_space_group_name_H-M  'R3m'
_cell_length_a       7.46867
_cell_length_b       7.46867
_cell_length_c       7.46867
_cell_angle_alpha    112.711
_cell_angle_beta     112.711
_cell_angle_gamma    112.711

_symmetry_Int_Tables_number  160
_chemical_formula_structural  PrZr3F15
_chemical_formula_sum  PrZr3F5
_cell_volume  275.6320232923866
_cell_formula_units_Z  1
loop_
  _symmetry_equiv_pos_site_id
 _symmetry_equiv_pos_as_xyz
 1  'x, y, z'
loop_
 _atom_site_type_symbol
 _atom_site_label
 _atom_site_symmetry_multiplicity
 _atom_site_fract_x
 _atom_site_fract_y
 _atom_site_fract_z
 _atom_site_fract_occupancy
 F  F1  1  0.06604  0.85320  0.39679  1
 F  F2  1  0.85320  0.39679  0.06604  1
 F  F3  1  0.39679  0.06604  0.85320  1
 F  F4  1  0.39679  0.85320  0.06604  1
 F  F5  1  0.40722  0.74862  0.40722  1
 F  F6  1  0.40722  0.40722  0.74862  1
 F  F7  1  0.74862  0.40722  0.40722  1
 F  F8  1  0.86604  0.64560  0.86604  1
 F  F9  1  0.86604  0.86604  0.64560  1
 F  F10  1  0.64560  0.86604  0.86604  1
 F  F11  1  0.32588  0.32588  0.08423  1
 F  F12  1  0.08423  0.32588  0.32588  1
 F  F13  1  0.06604  0.39679  0.85320  1
 F  F14  1  0.85320  0.06604  0.39679  1
 F  F15  1  0.32588  0.08423  0.32588  1
 Pr  Pr1  1  0.50623  0.50623  0.50623  1
 Zr  Zr1  1  0.14352  0.71079  0.14352  1
 Zr  Zr2  1  0.71079  0.14352  0.14352  1
 Zr  Zr3  1  0.14352  0.14352  0.71079  1
