CIF file written using JARVIS-Tools package.
data_Yb3S2F4
_symmetry_space_group_name_H-M  'I4/mmm'
_cell_length_a       3.78475
_cell_length_b       3.78475
_cell_length_c       9.72649
_cell_angle_alpha    101.219
_cell_angle_beta     101.219
_cell_angle_gamma    90

_symmetry_Int_Tables_number  139
_chemical_formula_structural  Yb3S2F4
_chemical_formula_sum  Yb3S2F4
_cell_volume  133.94741752507048
_cell_formula_units_Z  1
loop_
  _symmetry_equiv_pos_site_id
 _symmetry_equiv_pos_as_xyz
 1  'x, y, z'
loop_
 _atom_site_type_symbol
 _atom_site_label
 _atom_site_symmetry_multiplicity
 _atom_site_fract_x
 _atom_site_fract_y
 _atom_site_fract_z
 _atom_site_fract_occupancy
 F  F1  1  0.43005  0.93005  0.86011  1
 F  F2  1  0.93005  0.43005  0.86011  1
 F  F3  1  0.56995  0.06995  0.13989  1
 F  F4  1  0.06995  0.56995  0.13989  1
 S  S1  1  0.21572  0.21572  0.43144  1
 S  S2  1  0.78428  0.78428  0.56856  1
 Yb  Yb1  1  0.36223  0.36223  0.72447  1
 Yb  Yb2  1  0.00000  0.00000  0.00000  1
 Yb  Yb3  1  0.63777  0.63777  0.27553  1
