CIF file written using JARVIS-Tools package.
data_Yb2LiCl5
_symmetry_space_group_name_H-M  'C2/c'
_cell_length_a       6.35993
_cell_length_b       7.01551
_cell_length_c       8.14209
_cell_angle_alpha    95.365
_cell_angle_beta     112.989
_cell_angle_gamma    90

_symmetry_Int_Tables_number  15
_chemical_formula_structural  Yb2LiCl5
_chemical_formula_sum  Yb4Li2Cl0
_cell_volume  332.7032838102995
_cell_formula_units_Z  2
loop_
  _symmetry_equiv_pos_site_id
 _symmetry_equiv_pos_as_xyz
 1  'x, y, z'
loop_
 _atom_site_type_symbol
 _atom_site_label
 _atom_site_symmetry_multiplicity
 _atom_site_fract_x
 _atom_site_fract_y
 _atom_site_fract_z
 _atom_site_fract_occupancy
 Cl  Cl1  1  0.47157  0.42542  0.18125  1
 Cl  Cl2  1  0.92993  0.25000  0.00000  1
 Cl  Cl3  1  0.07007  0.75000  -0.00000  1
 Cl  Cl4  1  0.14420  0.31508  0.43807  1
 Cl  Cl5  1  0.85580  0.68492  0.56193  1
 Cl  Cl6  1  0.29387  0.81508  0.43807  1
 Cl  Cl7  1  0.70613  0.18492  0.56193  1
 Cl  Cl8  1  0.52843  0.57458  0.81875  1
 Cl  Cl9  1  0.70967  0.92542  0.18125  1
 Cl  Cl10  1  0.29033  0.07458  0.81875  1
 Li  Li1  1  0.00000  -0.00000  0.50000  1
 Li  Li2  1  0.50000  0.50000  0.50000  1
 Yb  Yb1  1  0.87887  0.57121  0.20728  1
 Yb  Yb2  1  0.32841  0.07121  0.20728  1
 Yb  Yb3  1  0.12113  0.42879  0.79272  1
 Yb  Yb4  1  0.67159  0.92879  0.79272  1
