CIF file written using JARVIS-Tools package.
data_Zn2CuAs2O8
_symmetry_space_group_name_H-M  'P-1'
_cell_length_a       5.14402
_cell_length_b       5.35563
_cell_length_c       6.76355
_cell_angle_alpha    110.793
_cell_angle_beta     86.4085
_cell_angle_gamma    112.062

_symmetry_Int_Tables_number  2
_chemical_formula_structural  Zn2CuAs2O8
_chemical_formula_sum  Zn2CuAs2O8
_cell_volume  160.90343647563154
_cell_formula_units_Z  1
loop_
  _symmetry_equiv_pos_site_id
 _symmetry_equiv_pos_as_xyz
 1  'x, y, z'
loop_
 _atom_site_type_symbol
 _atom_site_label
 _atom_site_symmetry_multiplicity
 _atom_site_fract_x
 _atom_site_fract_y
 _atom_site_fract_z
 _atom_site_fract_occupancy
 As  As1  1  0.13427  0.86066  0.72502  1
 As  As2  1  0.86573  0.13934  0.27498  1
 Cu  Cu1  1  0.50000  0.50000  0.50000  1
 O  O1  1  0.73187  0.29411  0.50960  1
 O  O2  1  0.26813  0.70589  0.49040  1
 O  O3  1  0.63423  0.79760  0.14767  1
 O  O4  1  0.36577  0.20240  0.85233  1
 O  O5  1  0.90961  0.34806  0.12189  1
 O  O6  1  0.81399  0.87338  0.66672  1
 O  O7  1  0.18601  0.12662  0.33328  1
 O  O8  1  0.09039  0.65194  0.87811  1
 Zn  Zn1  1  0.76641  0.26574  0.81586  1
 Zn  Zn2  1  0.23359  0.73426  0.18414  1
