CIF file written using JARVIS-Tools package.
data_TmP5
_symmetry_space_group_name_H-M  'P2_1/m'
_cell_length_a       4.92152
_cell_length_b       9.39055
_cell_length_c       5.33355
_cell_angle_alpha    90
_cell_angle_beta     102.59
_cell_angle_gamma    90

_symmetry_Int_Tables_number  11
_chemical_formula_structural  TmP5
_chemical_formula_sum  Tm2P0
_cell_volume  240.5669774384076
_cell_formula_units_Z  2
loop_
  _symmetry_equiv_pos_site_id
 _symmetry_equiv_pos_as_xyz
 1  'x, y, z'
loop_
 _atom_site_type_symbol
 _atom_site_label
 _atom_site_symmetry_multiplicity
 _atom_site_fract_x
 _atom_site_fract_y
 _atom_site_fract_z
 _atom_site_fract_occupancy
 P  P1  1  0.72904  0.25000  0.10776  1
 P  P2  1  0.27096  0.75000  0.89224  1
 P  P3  1  0.38145  0.40692  0.04115  1
 P  P4  1  0.61855  0.90692  0.95885  1
 P  P5  1  0.61855  0.59308  0.95885  1
 P  P6  1  0.38145  0.09308  0.04115  1
 P  P7  1  0.28184  0.47090  0.40445  1
 P  P8  1  0.71816  0.97090  0.59555  1
 P  P9  1  0.71816  0.52910  0.59555  1
 P  P10  1  0.28184  0.02910  0.40445  1
 Tm  Tm1  1  0.99544  0.25000  0.65157  1
 Tm  Tm2  1  0.00456  0.75000  0.34843  1
