CIF file written using JARVIS-Tools package.
data_SmCr2Si2
_symmetry_space_group_name_H-M  'I4/mmm'
_cell_length_a       3.89975
_cell_length_b       3.89975
_cell_length_c       6.06623
_cell_angle_alpha    108.749
_cell_angle_beta     108.749
_cell_angle_gamma    90.0001

_symmetry_Int_Tables_number  139
_chemical_formula_structural  SmCr2Si2
_chemical_formula_sum  SmCr2Si2
_cell_volume  82.17307250926191
_cell_formula_units_Z  1
loop_
  _symmetry_equiv_pos_site_id
 _symmetry_equiv_pos_as_xyz
 1  'x, y, z'
loop_
 _atom_site_type_symbol
 _atom_site_label
 _atom_site_symmetry_multiplicity
 _atom_site_fract_x
 _atom_site_fract_y
 _atom_site_fract_z
 _atom_site_fract_occupancy
 Cr  Cr1  1  0.25000  0.75000  0.50000  1
 Cr  Cr2  1  0.75000  0.25000  0.50000  1
 Si  Si1  1  0.38165  0.38165  0.76330  1
 Si  Si2  1  0.61835  0.61835  0.23670  1
 Sm  Sm1  1  0.00000  0.00000  0.00000  1
