CIF file written using JARVIS-Tools package.
data_TlCl2
_symmetry_space_group_name_H-M  'I4_1/a'
_cell_length_a       7.02059
_cell_length_b       7.02059
_cell_length_c       9.13569
_cell_angle_alpha    112.597
_cell_angle_beta     112.597
_cell_angle_gamma    90

_symmetry_Int_Tables_number  88
_chemical_formula_structural  TlCl2
_chemical_formula_sum  Tl4Cl8
_cell_volume  378.0048274346637
_cell_formula_units_Z  4
loop_
  _symmetry_equiv_pos_site_id
 _symmetry_equiv_pos_as_xyz
 1  'x, y, z'
loop_
 _atom_site_type_symbol
 _atom_site_label
 _atom_site_symmetry_multiplicity
 _atom_site_fract_x
 _atom_site_fract_y
 _atom_site_fract_z
 _atom_site_fract_occupancy
 Cl  Cl1  1  0.28081  0.45559  0.07288  1
 Cl  Cl2  1  0.61729  0.78081  0.57288  1
 Cl  Cl3  1  0.95559  0.29206  0.57288  1
 Cl  Cl4  1  0.79206  0.11729  0.07288  1
 Cl  Cl5  1  0.20794  0.88271  0.92712  1
 Cl  Cl6  1  0.04441  0.70794  0.42712  1
 Cl  Cl7  1  0.38271  0.21919  0.42712  1
 Cl  Cl8  1  0.71919  0.54441  0.92712  1
 Tl  Tl1  1  0.62500  0.87500  0.25000  1
 Tl  Tl2  1  0.37500  0.12500  0.75000  1
 Tl  Tl3  1  0.12500  0.37500  0.25000  1
 Tl  Tl4  1  0.87500  0.62500  0.75000  1
