CIF file written using JARVIS-Tools package.
data_Li2RhF6
_symmetry_space_group_name_H-M  'P4_2/mnm'
_cell_length_a       4.63584
_cell_length_b       4.64037
_cell_length_c       10.1998
_cell_angle_alpha    90
_cell_angle_beta     117.032
_cell_angle_gamma    90

_symmetry_Int_Tables_number  136
_chemical_formula_structural  Li2RhF6
_chemical_formula_sum  Li4Rh2F2
_cell_volume  195.4475206472803
_cell_formula_units_Z  2
loop_
  _symmetry_equiv_pos_site_id
 _symmetry_equiv_pos_as_xyz
 1  'x, y, z'
loop_
 _atom_site_type_symbol
 _atom_site_label
 _atom_site_symmetry_multiplicity
 _atom_site_fract_x
 _atom_site_fract_y
 _atom_site_fract_z
 _atom_site_fract_occupancy
 F  F1  1  0.96394  0.30468  0.66069  1
 F  F2  1  0.64254  0.30467  0.33931  1
 F  F3  1  0.35746  0.80467  0.16069  1
 F  F4  1  0.64254  0.19533  0.83931  1
 F  F5  1  0.29294  0.20558  0.50000  1
 F  F6  1  0.70706  0.70558  0.00000  1
 F  F7  1  0.70706  0.79442  0.50000  1
 F  F8  1  0.03606  0.80468  0.83931  1
 F  F9  1  0.35746  0.69533  0.66069  1
 F  F10  1  0.96394  0.19532  0.16069  1
 F  F11  1  0.03606  0.69532  0.33931  1
 F  F12  1  0.29294  0.29442  -0.00000  1
 Li  Li1  1  0.33521  0.50003  0.83518  1
 Li  Li2  1  0.33521  0.99997  0.33518  1
 Li  Li3  1  0.66479  0.49997  0.16482  1
 Li  Li4  1  0.66479  0.00003  0.66482  1
 Rh  Rh1  1  0.00000  0.00000  0.00000  1
 Rh  Rh2  1  -0.00000  0.50000  0.50000  1
