CIF file written using JARVIS-Tools package.
data_Ca2Ti2O5
_symmetry_space_group_name_H-M  'Pbam'
_cell_length_a       5.29448
_cell_length_b       3.96606
_cell_length_c       10.4798
_cell_angle_alpha    90
_cell_angle_beta     89.9998
_cell_angle_gamma    90

_symmetry_Int_Tables_number  55
_chemical_formula_structural  Ca2Ti2O5
_chemical_formula_sum  Ca4Ti4O0
_cell_volume  220.05747069495044
_cell_formula_units_Z  2
loop_
  _symmetry_equiv_pos_site_id
 _symmetry_equiv_pos_as_xyz
 1  'x, y, z'
loop_
 _atom_site_type_symbol
 _atom_site_label
 _atom_site_symmetry_multiplicity
 _atom_site_fract_x
 _atom_site_fract_y
 _atom_site_fract_z
 _atom_site_fract_occupancy
 Ca  Ca1  1  0.77133  0.50000  0.11747  1
 Ca  Ca2  1  0.22867  0.50000  0.88253  1
 Ca  Ca3  1  0.27134  0.50000  0.38253  1
 Ca  Ca4  1  0.72866  0.50000  0.61747  1
 O  O1  1  -0.00000  0.00000  0.00000  1
 O  O2  1  0.88861  0.00000  0.70880  1
 O  O3  1  0.38861  0.00000  0.79120  1
 O  O4  1  0.50000  0.00000  0.50000  1
 O  O5  1  0.71139  0.50000  0.88484  1
 O  O6  1  0.28862  0.50000  0.11516  1
 O  O7  1  0.78862  0.50000  0.38485  1
 O  O8  1  0.61139  0.00000  0.20881  1
 O  O9  1  0.11139  0.00000  0.29119  1
 O  O10  1  0.21138  0.50000  0.61516  1
 Ti  Ti1  1  0.27666  0.00000  0.12810  1
 Ti  Ti2  1  0.72334  0.00000  0.87190  1
 Ti  Ti3  1  0.22334  0.00000  0.62810  1
 Ti  Ti4  1  0.77666  0.00000  0.37190  1
