CIF file written using JARVIS-Tools package.
data_As4S5
_symmetry_space_group_name_H-M  'P2_1/m'
_cell_length_a       7.24895
_cell_length_b       8.00289
_cell_length_c       8.03553
_cell_angle_alpha    90
_cell_angle_beta     101.112
_cell_angle_gamma    90

_symmetry_Int_Tables_number  11
_chemical_formula_structural  As4S5
_chemical_formula_sum  As8S0
_cell_volume  457.4222825781165
_cell_formula_units_Z  2
loop_
  _symmetry_equiv_pos_site_id
 _symmetry_equiv_pos_as_xyz
 1  'x, y, z'
loop_
 _atom_site_type_symbol
 _atom_site_label
 _atom_site_symmetry_multiplicity
 _atom_site_fract_x
 _atom_site_fract_y
 _atom_site_fract_z
 _atom_site_fract_occupancy
 As  As1  1  0.25665  0.00177  0.60112  1
 As  As2  1  0.74335  0.50177  0.39888  1
 As  As3  1  0.74335  -0.00177  0.39888  1
 As  As4  1  0.25665  0.49823  0.60112  1
 As  As5  1  0.45871  0.75000  0.04504  1
 As  As6  1  0.54129  0.25000  0.95496  1
 As  As7  1  0.80947  0.75000  0.02271  1
 As  As8  1  0.19053  0.25000  0.97729  1
 S  S1  1  0.08473  0.47395  0.81000  1
 S  S2  1  0.21232  0.25000  0.45254  1
 S  S3  1  0.54836  0.03072  0.77051  1
 S  S4  1  0.78768  0.75000  0.54746  1
 S  S5  1  0.91527  0.52605  0.19000  1
 S  S6  1  0.54836  0.46928  0.77051  1
 S  S7  1  0.08473  0.02605  0.81000  1
 S  S8  1  0.45164  0.53072  0.22949  1
 S  S9  1  0.45164  0.96928  0.22949  1
 S  S10  1  0.91527  0.97395  0.19000  1
