CIF file written using JARVIS-Tools package.
data_FeH2O2
_symmetry_space_group_name_H-M  'P-3m1'
_cell_length_a       3.09018
_cell_length_b       3.0907
_cell_length_c       4.30372
_cell_angle_alpha    90
_cell_angle_beta     89.9711
_cell_angle_gamma    120.005

_symmetry_Int_Tables_number  164
_chemical_formula_structural  FeH2O2
_chemical_formula_sum  FeH2O2
_cell_volume  35.59524054950073
_cell_formula_units_Z  1
loop_
  _symmetry_equiv_pos_site_id
 _symmetry_equiv_pos_as_xyz
 1  'x, y, z'
loop_
 _atom_site_type_symbol
 _atom_site_label
 _atom_site_symmetry_multiplicity
 _atom_site_fract_x
 _atom_site_fract_y
 _atom_site_fract_z
 _atom_site_fract_occupancy
 Fe  Fe1  1  0.00000  0.92823  -0.00000  1
 H  H1  1  0.33362  0.59506  0.55606  1
 H  H2  1  0.66638  0.26144  0.44394  1
 O  O1  1  0.33348  0.59497  0.78381  1
 O  O2  1  0.66652  0.26149  0.21619  1
