CIF file written using JARVIS-Tools package.
data_ZnIn2Se4
_symmetry_space_group_name_H-M  'I-42m'
_cell_length_a       5.81958
_cell_length_b       5.81958
_cell_length_c       7.05252
_cell_angle_alpha    114.37
_cell_angle_beta     114.37
_cell_angle_gamma    89.9984

_symmetry_Int_Tables_number  121
_chemical_formula_structural  ZnIn2Se4
_chemical_formula_sum  ZnIn2Se4
_cell_volume  193.96879770068333
_cell_formula_units_Z  1
loop_
  _symmetry_equiv_pos_site_id
 _symmetry_equiv_pos_as_xyz
 1  'x, y, z'
loop_
 _atom_site_type_symbol
 _atom_site_label
 _atom_site_symmetry_multiplicity
 _atom_site_fract_x
 _atom_site_fract_y
 _atom_site_fract_z
 _atom_site_fract_occupancy
 In  In1  1  0.24997  0.75000  0.49999  1
 In  In2  1  0.75000  0.24997  0.49999  1
 Se  Se1  1  0.15717  0.15717  0.78545  1
 Se  Se2  1  0.37169  0.84286  0.21459  1
 Se  Se3  1  0.62830  0.62830  0.78539  1
 Se  Se4  1  0.84286  0.37169  0.21459  1
 Zn  Zn1  1  0.00002  0.00002  0.00000  1
