CIF file written using JARVIS-Tools package.
data_K2NiP2
_symmetry_space_group_name_H-M  'Cmcm'
_cell_length_a       5.59725
_cell_length_b       6.3635
_cell_length_c       7.50581
_cell_angle_alpha    115.081
_cell_angle_beta     90
_cell_angle_gamma    90

_symmetry_Int_Tables_number  63
_chemical_formula_structural  K2NiP2
_chemical_formula_sum  K4Ni2P4
_cell_volume  242.13444624245793
_cell_formula_units_Z  2
loop_
  _symmetry_equiv_pos_site_id
 _symmetry_equiv_pos_as_xyz
 1  'x, y, z'
loop_
 _atom_site_type_symbol
 _atom_site_label
 _atom_site_symmetry_multiplicity
 _atom_site_fract_x
 _atom_site_fract_y
 _atom_site_fract_z
 _atom_site_fract_occupancy
 K  K1  1  0.75000  0.41290  0.82580  1
 K  K2  1  0.75000  0.78797  0.57594  1
 K  K3  1  0.25000  0.58710  0.17420  1
 K  K4  1  0.25000  0.21203  0.42406  1
 Ni  Ni1  1  0.00000  0.00000  0.00000  1
 Ni  Ni2  1  0.50000  0.00000  0.00000  1
 P  P1  1  0.75000  0.27584  0.20554  1
 P  P2  1  0.25000  0.07031  0.79446  1
 P  P3  1  0.25000  0.72416  0.79446  1
 P  P4  1  0.75000  0.92969  0.20554  1
