CIF file written using JARVIS-Tools package.
data_CrW2O8
_symmetry_space_group_name_H-M  'P-1'
_cell_length_a       4.85754
_cell_length_b       5.07839
_cell_length_c       6.45522
_cell_angle_alpha    110.988
_cell_angle_beta     89.0231
_cell_angle_gamma    104.701

_symmetry_Int_Tables_number  2
_chemical_formula_structural  CrW2O8
_chemical_formula_sum  CrW2O8
_cell_volume  143.32650503876158
_cell_formula_units_Z  1
loop_
  _symmetry_equiv_pos_site_id
 _symmetry_equiv_pos_as_xyz
 1  'x, y, z'
loop_
 _atom_site_type_symbol
 _atom_site_label
 _atom_site_symmetry_multiplicity
 _atom_site_fract_x
 _atom_site_fract_y
 _atom_site_fract_z
 _atom_site_fract_occupancy
 Cr  Cr1  1  0.97499  0.09969  0.22324  1
 O  O1  1  0.62212  0.84512  0.66807  1
 O  O2  1  0.84990  0.35972  0.47816  1
 O  O3  1  0.60699  0.81649  0.18986  1
 O  O4  1  0.88281  0.32456  0.06969  1
 O  O5  1  0.10009  0.83967  0.96832  1
 O  O6  1  0.32787  0.35427  0.77841  1
 O  O7  1  0.34300  0.38290  0.25661  1
 O  O8  1  0.06718  0.87482  0.37678  1
 W  W1  1  0.71098  0.63094  0.41744  1
 W  W2  1  0.23901  0.56845  0.02904  1
