CIF file written using JARVIS-Tools package.
data_Li2Mn3OF6
_symmetry_space_group_name_H-M  'P-1'
_cell_length_a       5.88419
_cell_length_b       6.60467
_cell_length_c       8.07726
_cell_angle_alpha    68.9709
_cell_angle_beta     73.9241
_cell_angle_gamma    84.9167

_symmetry_Int_Tables_number  2
_chemical_formula_structural  Li2Mn3OF6
_chemical_formula_sum  Li4Mn6O2F2
_cell_volume  281.5226067576738
_cell_formula_units_Z  2
loop_
  _symmetry_equiv_pos_site_id
 _symmetry_equiv_pos_as_xyz
 1  'x, y, z'
loop_
 _atom_site_type_symbol
 _atom_site_label
 _atom_site_symmetry_multiplicity
 _atom_site_fract_x
 _atom_site_fract_y
 _atom_site_fract_z
 _atom_site_fract_occupancy
 F  F1  1  0.91959  0.29123  0.55141  1
 F  F2  1  0.23253  0.03170  0.01073  1
 F  F3  1  0.82716  0.12225  0.26726  1
 F  F4  1  0.68211  0.84764  0.71716  1
 F  F5  1  0.31789  0.15236  0.28284  1
 F  F6  1  0.17284  0.87775  0.73274  1
 F  F7  1  0.76747  0.96830  0.98927  1
 F  F8  1  0.58317  0.72404  0.44312  1
 F  F9  1  0.42082  0.44183  0.87001  1
 F  F10  1  0.08041  0.70877  0.44859  1
 F  F11  1  0.57918  0.55817  0.12999  1
 F  F12  1  0.41683  0.27596  0.55688  1
 Li  Li1  1  0.29029  0.87682  0.48490  1
 Li  Li2  1  0.70971  0.12318  0.51510  1
 Li  Li3  1  0.90542  0.68524  0.91478  1
 Li  Li4  1  0.09458  0.31476  0.08522  1
 Mn  Mn1  1  0.25557  0.45113  0.34434  1
 Mn  Mn2  1  0.10215  0.18756  0.77451  1
 Mn  Mn3  1  0.62051  0.24524  0.06231  1
 Mn  Mn4  1  0.37949  0.75476  0.93769  1
 Mn  Mn5  1  0.89785  0.81244  0.22549  1
 Mn  Mn6  1  0.74443  0.54887  0.65566  1
 O  O1  1  0.09103  0.58874  0.13385  1
 O  O2  1  0.90897  0.41126  0.86615  1
