CIF file written using JARVIS-Tools package.
data_LiFeCuS2
_symmetry_space_group_name_H-M  'P3m1'
_cell_length_a       3.80355
_cell_length_b       3.80369
_cell_length_c       6.25869
_cell_angle_alpha    90.0004
_cell_angle_beta     90.0066
_cell_angle_gamma    120.003

_symmetry_Int_Tables_number  156
_chemical_formula_structural  LiFeCuS2
_chemical_formula_sum  LiFeCuS2
_cell_volume  78.41451181867589
_cell_formula_units_Z  1
loop_
  _symmetry_equiv_pos_site_id
 _symmetry_equiv_pos_as_xyz
 1  'x, y, z'
loop_
 _atom_site_type_symbol
 _atom_site_label
 _atom_site_symmetry_multiplicity
 _atom_site_fract_x
 _atom_site_fract_y
 _atom_site_fract_z
 _atom_site_fract_occupancy
 Cu  Cu1  1  0.33333  0.66665  0.36605  1
 Fe  Fe1  1  0.66677  0.33339  0.62173  1
 Li  Li1  1  0.99977  0.99991  0.01107  1
 S  S1  1  0.66662  0.33331  0.24558  1
 S  S2  1  0.33351  0.66675  0.75557  1
