CIF file written using JARVIS-Tools package.
data_Li2Nd2Si3
_symmetry_space_group_name_H-M  'Cmcm'
_cell_length_a       4.4161
_cell_length_b       6.82391
_cell_length_c       9.53424
_cell_angle_alpha    90
_cell_angle_beta     103.391
_cell_angle_gamma    90

_symmetry_Int_Tables_number  63
_chemical_formula_structural  Li2Nd2Si3
_chemical_formula_sum  Li4Nd4Si6
_cell_volume  279.50328259126167
_cell_formula_units_Z  2
loop_
  _symmetry_equiv_pos_site_id
 _symmetry_equiv_pos_as_xyz
 1  'x, y, z'
loop_
 _atom_site_type_symbol
 _atom_site_label
 _atom_site_symmetry_multiplicity
 _atom_site_fract_x
 _atom_site_fract_y
 _atom_site_fract_z
 _atom_site_fract_occupancy
 Li  Li1  1  0.18855  0.06138  0.37711  1
 Li  Li2  1  0.18855  0.43862  0.37711  1
 Li  Li3  1  0.81145  0.93862  0.62289  1
 Li  Li4  1  0.81145  0.56138  0.62289  1
 Nd  Nd1  1  0.34165  0.25000  0.68330  1
 Nd  Nd2  1  0.65835  0.75000  0.31670  1
 Nd  Nd3  1  0.55207  0.25000  0.10414  1
 Nd  Nd4  1  0.44793  0.75000  0.89586  1
 Si  Si1  1  0.71994  0.25000  0.43989  1
 Si  Si2  1  0.28006  0.75000  0.56011  1
 Si  Si3  1  0.05850  0.92646  0.11700  1
 Si  Si4  1  0.94150  0.07354  0.88300  1
 Si  Si5  1  0.94150  0.42646  0.88300  1
 Si  Si6  1  0.05850  0.57354  0.11700  1
