CIF file written using JARVIS-Tools package.
data_YMn2O4
_symmetry_space_group_name_H-M  'C2/c'
_cell_length_a       6.17224
_cell_length_b       6.17224
_cell_length_c       6.37576
_cell_angle_alpha    116.249
_cell_angle_beta     120.172
_cell_angle_gamma    91.3743

_symmetry_Int_Tables_number  15
_chemical_formula_structural  YMn2O4
_chemical_formula_sum  Y2Mn4O8
_cell_volume  178.58278327786593
_cell_formula_units_Z  2
loop_
  _symmetry_equiv_pos_site_id
 _symmetry_equiv_pos_as_xyz
 1  'x, y, z'
loop_
 _atom_site_type_symbol
 _atom_site_label
 _atom_site_symmetry_multiplicity
 _atom_site_fract_x
 _atom_site_fract_y
 _atom_site_fract_z
 _atom_site_fract_occupancy
 Mn  Mn1  1  0.38095  0.63095  0.75000  1
 Mn  Mn2  1  0.61905  0.36905  0.25000  1
 Mn  Mn3  1  0.50000  -0.00000  0.50000  1
 Mn  Mn4  1  0.00000  0.00000  0.00000  1
 O  O1  1  0.69860  0.75941  0.47312  1
 O  O2  1  0.78629  0.22548  0.02688  1
 O  O3  1  0.21637  0.21574  0.98165  1
 O  O4  1  0.30140  0.24059  0.52688  1
 O  O5  1  0.26591  0.76528  0.48165  1
 O  O6  1  0.21371  0.77452  0.97312  1
 O  O7  1  0.73409  0.23472  0.51835  1
 O  O8  1  0.78363  0.78426  0.01835  1
 Y  Y1  1  -0.00000  0.50000  0.00000  1
 Y  Y2  1  0.00000  -0.00000  0.50000  1
