CIF file written using JARVIS-Tools package.
data_NdSe2
_symmetry_space_group_name_H-M  'P2_1/c'
_cell_length_a       8.41528
_cell_length_b       4.19144
_cell_length_c       8.53224
_cell_angle_alpha    90
_cell_angle_beta     90.0921
_cell_angle_gamma    90

_symmetry_Int_Tables_number  14
_chemical_formula_structural  NdSe2
_chemical_formula_sum  Nd4Se8
_cell_volume  300.9502789410171
_cell_formula_units_Z  4
loop_
  _symmetry_equiv_pos_site_id
 _symmetry_equiv_pos_as_xyz
 1  'x, y, z'
loop_
 _atom_site_type_symbol
 _atom_site_label
 _atom_site_symmetry_multiplicity
 _atom_site_fract_x
 _atom_site_fract_y
 _atom_site_fract_z
 _atom_site_fract_occupancy
 Nd  Nd1  1  0.62630  0.27503  0.27476  1
 Nd  Nd2  1  0.37370  0.72497  0.72524  1
 Nd  Nd3  1  0.12630  0.22497  0.27476  1
 Nd  Nd4  1  0.87370  0.77503  0.72524  1
 Se  Se1  1  0.38071  0.18959  0.99834  1
 Se  Se2  1  0.87487  0.75550  0.36802  1
 Se  Se3  1  0.12513  0.24450  0.63198  1
 Se  Se4  1  0.62513  0.25550  0.63198  1
 Se  Se5  1  0.11929  0.68959  0.00166  1
 Se  Se6  1  0.37487  0.74450  0.36802  1
 Se  Se7  1  0.61929  0.81041  0.00166  1
 Se  Se8  1  0.88071  0.31041  0.99834  1
