CIF file written using JARVIS-Tools package.
data_Na2GeO3
_symmetry_space_group_name_H-M  'Cmc2_1'
_cell_length_a       4.94264
_cell_length_b       6.26665
_cell_length_c       6.30202
_cell_angle_alpha    119.814
_cell_angle_beta     90
_cell_angle_gamma    90

_symmetry_Int_Tables_number  36
_chemical_formula_structural  Na2GeO3
_chemical_formula_sum  Na4Ge2O6
_cell_volume  169.36121347611493
_cell_formula_units_Z  2
loop_
  _symmetry_equiv_pos_site_id
 _symmetry_equiv_pos_as_xyz
 1  'x, y, z'
loop_
 _atom_site_type_symbol
 _atom_site_label
 _atom_site_symmetry_multiplicity
 _atom_site_fract_x
 _atom_site_fract_y
 _atom_site_fract_z
 _atom_site_fract_occupancy
 Ge  Ge1  1  0.53464  0.83454  0.00000  1
 Ge  Ge2  1  0.03464  0.16546  -0.00000  1
 Na  Na1  1  0.49954  0.50602  0.33511  1
 Na  Na2  1  0.49954  0.17091  0.66489  1
 Na  Na3  1  -0.00046  0.49398  0.66489  1
 Na  Na4  1  -0.00046  0.82909  0.33511  1
 O  O1  1  0.40251  0.10762  -0.00000  1
 O  O2  1  0.90251  0.89238  0.00000  1
 O  O3  1  0.47418  0.56465  0.72438  1
 O  O4  1  0.97418  0.43535  0.27562  1
 O  O5  1  0.47418  0.84026  0.27562  1
 O  O6  1  0.97418  0.15974  0.72438  1
