CIF file written using JARVIS-Tools package.
data_Te2MoW2S4
_symmetry_space_group_name_H-M  'P3m1'
_cell_length_a       3.30879
_cell_length_b       3.30879
_cell_length_c       30.3345
_cell_angle_alpha    90
_cell_angle_beta     90
_cell_angle_gamma    120

_symmetry_Int_Tables_number  156
_chemical_formula_structural  Te2MoW2S4
_chemical_formula_sum  Te2MoW2S4
_cell_volume  287.6123711119847
_cell_formula_units_Z  1
loop_
  _symmetry_equiv_pos_site_id
 _symmetry_equiv_pos_as_xyz
 1  'x, y, z'
loop_
 _atom_site_type_symbol
 _atom_site_label
 _atom_site_symmetry_multiplicity
 _atom_site_fract_x
 _atom_site_fract_y
 _atom_site_fract_z
 _atom_site_fract_occupancy
 Mo  Mo1  1  0.66669  0.33338  0.34695  1
 S  S1  1  0.33336  0.66671  0.39731  1
 S  S2  1  0.66664  0.33329  0.06523  1
 S  S3  1  0.66664  0.33329  0.16633  1
 S  S4  1  0.33336  0.66671  0.29657  1
 Te  Te1  1  0.66664  0.33329  0.51482  1
 Te  Te2  1  0.66664  0.33329  0.64160  1
 W  W1  1  0.33331  0.66662  0.11574  1
 W  W2  1  0.33331  0.66662  0.57830  1
