CIF file written using JARVIS-Tools package.
data_Cu3Ni4O12
_symmetry_space_group_name_H-M  'Im-3'
_cell_length_a       6.18123
_cell_length_b       6.18118
_cell_length_c       6.18119
_cell_angle_alpha    109.471
_cell_angle_beta     109.474
_cell_angle_gamma    109.47

_symmetry_Int_Tables_number  204
_chemical_formula_structural  Cu3Ni4O12
_chemical_formula_sum  Cu3Ni4O2
_cell_volume  181.79885911688004
_cell_formula_units_Z  1
loop_
  _symmetry_equiv_pos_site_id
 _symmetry_equiv_pos_as_xyz
 1  'x, y, z'
loop_
 _atom_site_type_symbol
 _atom_site_label
 _atom_site_symmetry_multiplicity
 _atom_site_fract_x
 _atom_site_fract_y
 _atom_site_fract_z
 _atom_site_fract_occupancy
 Cu  Cu1  1  0.50000  0.50000  0.00000  1
 Cu  Cu2  1  1.00000  0.50000  0.50000  1
 Cu  Cu3  1  0.50000  0.00000  0.50000  1
 Ni  Ni1  1  1.00000  -0.00000  0.50000  1
 Ni  Ni2  1  -0.00000  0.50000  0.00000  1
 Ni  Ni3  1  0.50000  0.50000  0.50000  1
 Ni  Ni4  1  0.50000  -0.00000  0.00000  1
 O  O1  1  0.81501  0.31718  0.13219  1
 O  O2  1  0.18500  0.68282  0.86781  1
 O  O3  1  0.86780  0.18500  0.68280  1
 O  O4  1  0.31718  0.50216  0.18498  1
 O  O5  1  0.81502  0.68283  0.49786  1
 O  O6  1  0.49791  0.81506  0.68286  1
 O  O7  1  0.68283  0.86780  0.18498  1
 O  O8  1  0.50209  0.18495  0.31714  1
 O  O9  1  0.18498  0.31716  0.50213  1
 O  O10  1  0.68281  0.49783  0.81502  1
 O  O11  1  0.13220  0.81500  0.31719  1
 O  O12  1  0.31718  0.13220  0.81502  1
