CIF file written using JARVIS-Tools package.
data_BaCaI4
_symmetry_space_group_name_H-M  'C2/c'
_cell_length_a       8.82305
_cell_length_b       9.06874
_cell_length_c       9.06874
_cell_angle_alpha    110.494
_cell_angle_beta     66.5634
_cell_angle_gamma    66.5634

_symmetry_Int_Tables_number  15
_chemical_formula_structural  BaCaI4
_chemical_formula_sum  Ba2Ca2I8
_cell_volume  486.90624088111326
_cell_formula_units_Z  2
loop_
  _symmetry_equiv_pos_site_id
 _symmetry_equiv_pos_as_xyz
 1  'x, y, z'
loop_
 _atom_site_type_symbol
 _atom_site_label
 _atom_site_symmetry_multiplicity
 _atom_site_fract_x
 _atom_site_fract_y
 _atom_site_fract_z
 _atom_site_fract_occupancy
 Ba  Ba1  1  0.25000  0.38518  0.11482  1
 Ba  Ba2  1  0.75000  0.61482  0.88518  1
 Ca  Ca1  1  0.75000  0.25255  0.24745  1
 Ca  Ca2  1  0.25000  0.74745  0.75255  1
 I  I1  1  0.21660  0.01213  0.13864  1
 I  I2  1  0.91473  0.79991  0.14605  1
 I  I3  1  0.28340  0.36136  0.48787  1
 I  I4  1  0.58527  0.35395  0.70009  1
 I  I5  1  0.41473  0.64605  0.29991  1
 I  I6  1  0.71660  0.63864  0.51213  1
 I  I7  1  0.08527  0.20009  0.85395  1
 I  I8  1  0.78340  0.98787  0.86136  1
