CIF file written using JARVIS-Tools package.
data_Ca3Mn2Ga2O10
_symmetry_space_group_name_H-M  'P1'
_cell_length_a       5.34235
_cell_length_b       5.62185
_cell_length_c       7.83146
_cell_angle_alpha    109.1
_cell_angle_beta     108.515
_cell_angle_gamma    91.0576

_symmetry_Int_Tables_number  1
_chemical_formula_structural  Ca3Mn2Ga2O10
_chemical_formula_sum  Ca3Mn2Ga2O0
_cell_volume  208.78241372413189
_cell_formula_units_Z  1
loop_
  _symmetry_equiv_pos_site_id
 _symmetry_equiv_pos_as_xyz
 1  'x, y, z'
loop_
 _atom_site_type_symbol
 _atom_site_label
 _atom_site_symmetry_multiplicity
 _atom_site_fract_x
 _atom_site_fract_y
 _atom_site_fract_z
 _atom_site_fract_occupancy
 Ca  Ca1  1  0.39943  0.87562  0.81121  1
 Ca  Ca2  1  0.10204  0.56639  0.21846  1
 Ca  Ca3  1  0.88633  0.42898  0.77035  1
 Ga  Ga1  1  0.29620  0.16941  0.49446  1
 Ga  Ga2  1  0.78059  0.83869  0.48982  1
 Mn  Mn1  1  0.98928  -0.00159  0.01281  1
 Mn  Mn2  1  0.49336  0.48618  0.00999  1
 O  O1  1  0.63782  0.13324  0.49200  1
 O  O2  1  0.71323  0.24494  0.95777  1
 O  O3  1  0.32100  0.43371  0.72082  1
 O  O4  1  0.14262  0.86959  0.50495  1
 O  O5  1  0.22814  0.76285  0.02469  1
 O  O6  1  0.08334  0.19554  0.26740  1
 O  O7  1  0.58384  0.56290  0.27214  1
 O  O8  1  0.19888  0.22995  0.95753  1
 O  O9  1  0.81029  0.80519  0.72594  1
 O  O10  1  0.74876  0.74264  0.03154  1
