CIF file written using JARVIS-Tools package.
data_SmH2ClO2
_symmetry_space_group_name_H-M  'Pnma'
_cell_length_a       12.6232
_cell_length_b       3.75741
_cell_length_c       6.27476
_cell_angle_alpha    90
_cell_angle_beta     90
_cell_angle_gamma    90

_symmetry_Int_Tables_number  62
_chemical_formula_structural  SmH2ClO2
_chemical_formula_sum  Sm4H8Cl4O8
_cell_volume  297.6149643734605
_cell_formula_units_Z  4
loop_
  _symmetry_equiv_pos_site_id
 _symmetry_equiv_pos_as_xyz
 1  'x, y, z'
loop_
 _atom_site_type_symbol
 _atom_site_label
 _atom_site_symmetry_multiplicity
 _atom_site_fract_x
 _atom_site_fract_y
 _atom_site_fract_z
 _atom_site_fract_occupancy
 Cl  Cl1  1  0.72051  0.25000  0.09165  1
 Cl  Cl2  1  0.27949  0.75000  0.90835  1
 Cl  Cl3  1  0.22051  0.25000  0.40835  1
 Cl  Cl4  1  0.77949  0.75000  0.59165  1
 H  H1  1  0.38333  0.25000  0.20015  1
 H  H2  1  0.11667  0.75000  0.70015  1
 H  H3  1  0.15486  0.25000  0.94296  1
 H  H4  1  0.34514  0.75000  0.44296  1
 H  H5  1  0.61667  0.75000  0.79985  1
 H  H6  1  0.65486  0.25000  0.55704  1
 H  H7  1  0.84514  0.75000  0.05704  1
 H  H8  1  0.88333  0.25000  0.29985  1
 O  O1  1  0.08256  0.25000  0.00033  1
 O  O2  1  0.41744  0.75000  0.50033  1
 O  O3  1  0.45386  0.25000  0.13360  1
 O  O4  1  0.54614  0.75000  0.86640  1
 O  O5  1  0.04614  0.75000  0.63360  1
 O  O6  1  0.95386  0.25000  0.36640  1
 O  O7  1  0.58256  0.25000  0.49967  1
 O  O8  1  0.91744  0.75000  -0.00033  1
 Sm  Sm1  1  0.93915  0.25000  0.75177  1
 Sm  Sm2  1  0.56085  0.75000  0.25177  1
 Sm  Sm3  1  0.43915  0.25000  0.74823  1
 Sm  Sm4  1  0.06085  0.75000  0.24823  1
