CIF file written using JARVIS-Tools package.
data_Li2Ag3F6
_symmetry_space_group_name_H-M  'P-1'
_cell_length_a       3.1975
_cell_length_b       4.74976
_cell_length_c       9.34877
_cell_angle_alpha    100.889
_cell_angle_beta     97.1525
_cell_angle_gamma    87.9748

_symmetry_Int_Tables_number  2
_chemical_formula_structural  Li2Ag3F6
_chemical_formula_sum  Li2Ag3F6
_cell_volume  138.3311039291505
_cell_formula_units_Z  1
loop_
  _symmetry_equiv_pos_site_id
 _symmetry_equiv_pos_as_xyz
 1  'x, y, z'
loop_
 _atom_site_type_symbol
 _atom_site_label
 _atom_site_symmetry_multiplicity
 _atom_site_fract_x
 _atom_site_fract_y
 _atom_site_fract_z
 _atom_site_fract_occupancy
 Ag  Ag1  1  -0.00001  0.00001  0.00000  1
 Ag  Ag2  1  0.36988  0.21460  0.40196  1
 Ag  Ag3  1  0.63013  0.78540  0.59803  1
 F  F1  1  0.72643  0.20367  0.21002  1
 F  F2  1  0.03177  0.27000  0.59926  1
 F  F3  1  0.76096  0.32104  0.88067  1
 F  F4  1  0.23903  0.67895  0.11933  1
 F  F5  1  0.96822  0.73000  0.40074  1
 F  F6  1  0.27358  0.79633  0.78998  1
 Li  Li1  1  0.22784  0.39897  0.79625  1
 Li  Li2  1  0.77217  0.60103  0.20375  1
