CIF file written using JARVIS-Tools package.
data_As2O3
_symmetry_space_group_name_H-M  'P2_1/c'
_cell_length_a       4.546
_cell_length_b       12.8988
_cell_length_c       6.76054
_cell_angle_alpha    90
_cell_angle_beta     127.191
_cell_angle_gamma    90

_symmetry_Int_Tables_number  14
_chemical_formula_structural  As2O3
_chemical_formula_sum  As8O2
_cell_volume  315.801521171308
_cell_formula_units_Z  4
loop_
  _symmetry_equiv_pos_site_id
 _symmetry_equiv_pos_as_xyz
 1  'x, y, z'
loop_
 _atom_site_type_symbol
 _atom_site_label
 _atom_site_symmetry_multiplicity
 _atom_site_fract_x
 _atom_site_fract_y
 _atom_site_fract_z
 _atom_site_fract_occupancy
 As  As1  1  0.63957  0.85180  0.13952  1
 As  As2  1  0.36043  0.35180  0.36048  1
 As  As3  1  0.36043  0.14820  0.86048  1
 As  As4  1  0.63957  0.64820  0.63952  1
 As  As5  1  0.77342  0.59658  0.23243  1
 As  As6  1  0.22658  0.09658  0.26757  1
 As  As7  1  0.22658  0.40342  0.76757  1
 As  As8  1  0.77342  0.90342  0.73243  1
 O  O1  1  0.16724  0.63888  0.54275  1
 O  O2  1  0.37511  0.21592  0.44499  1
 O  O3  1  0.83276  0.36112  0.45725  1
 O  O4  1  0.16724  0.86112  0.04275  1
 O  O5  1  0.83276  0.13888  0.95725  1
 O  O6  1  0.62489  0.78408  0.55501  1
 O  O7  1  0.52029  0.09770  0.16728  1
 O  O8  1  0.47971  0.59770  0.33272  1
 O  O9  1  0.47971  0.90230  0.83272  1
 O  O10  1  0.37511  0.28408  0.94499  1
 O  O11  1  0.52029  0.40230  0.66728  1
 O  O12  1  0.62489  0.71592  0.05501  1
