CIF file written using JARVIS-Tools package.
data_CaSiSnO5
_symmetry_space_group_name_H-M  'C2/c'
_cell_length_a       5.61907
_cell_length_b       5.61907
_cell_length_c       7.20507
_cell_angle_alpha    103.722
_cell_angle_beta     103.722
_cell_angle_gamma    106.449

_symmetry_Int_Tables_number  15
_chemical_formula_structural  CaSiSnO5
_chemical_formula_sum  Ca2Si2Sn2O0
_cell_volume  200.32553608795985
_cell_formula_units_Z  2
loop_
  _symmetry_equiv_pos_site_id
 _symmetry_equiv_pos_as_xyz
 1  'x, y, z'
loop_
 _atom_site_type_symbol
 _atom_site_label
 _atom_site_symmetry_multiplicity
 _atom_site_fract_x
 _atom_site_fract_y
 _atom_site_fract_z
 _atom_site_fract_occupancy
 Ca  Ca1  1  0.83809  0.16191  0.25000  1
 Ca  Ca2  1  0.16191  0.83809  0.75000  1
 O  O1  1  0.39924  0.82513  0.12926  1
 O  O2  1  0.17487  0.60076  0.37074  1
 O  O3  1  0.60076  0.17487  0.87074  1
 O  O4  1  0.82513  0.39924  0.62926  1
 O  O5  1  0.75988  0.89336  0.58487  1
 O  O6  1  0.10664  0.24012  0.91513  1
 O  O7  1  0.58984  0.41016  0.25000  1
 O  O8  1  0.41016  0.58984  0.75000  1
 O  O9  1  0.89336  0.75988  0.08487  1
 O  O10  1  0.24012  0.10664  0.41513  1
 Si  Si1  1  0.81851  0.18149  0.75000  1
 Si  Si2  1  0.18149  0.81851  0.25000  1
 Sn  Sn1  1  0.50000  0.50000  0.00000  1
 Sn  Sn2  1  0.50000  0.50000  0.50000  1
