CIF file written using JARVIS-Tools package.
data_AlNi2O4
_symmetry_space_group_name_H-M  'Imma'
_cell_length_a       5.74866
_cell_length_b       5.74864
_cell_length_c       5.74848
_cell_angle_alpha    119.312
_cell_angle_beta     120.113
_cell_angle_gamma    90.5018

_symmetry_Int_Tables_number  74
_chemical_formula_structural  AlNi2O4
_chemical_formula_sum  Al2Ni4O8
_cell_volume  134.89801466589833
_cell_formula_units_Z  2
loop_
  _symmetry_equiv_pos_site_id
 _symmetry_equiv_pos_as_xyz
 1  'x, y, z'
loop_
 _atom_site_type_symbol
 _atom_site_label
 _atom_site_symmetry_multiplicity
 _atom_site_fract_x
 _atom_site_fract_y
 _atom_site_fract_z
 _atom_site_fract_occupancy
 Al  Al1  1  -0.00000  0.50000  -0.00000  1
 Al  Al2  1  0.50000  0.50000  0.50000  1
 Ni  Ni1  1  0.37497  0.12496  0.75000  1
 Ni  Ni2  1  0.62503  0.87504  0.25000  1
 Ni  Ni3  1  0.00000  0.50000  0.50000  1
 Ni  Ni4  1  0.00000  0.00000  0.00000  1
 O  O1  1  0.75514  0.73657  0.51854  1
 O  O2  1  0.21803  0.73661  0.98146  1
 O  O3  1  0.75822  0.72751  0.96931  1
 O  O4  1  0.24486  0.26343  0.48146  1
 O  O5  1  0.24180  0.71109  0.46931  1
 O  O6  1  0.78197  0.26339  0.01854  1
 O  O7  1  0.75820  0.28891  0.53069  1
 O  O8  1  0.24178  0.27249  0.03069  1
