CIF file written using JARVIS-Tools package.
data_Mn2ZnO4
_symmetry_space_group_name_H-M  'Cmcm'
_cell_length_a       2.9108
_cell_length_b       5.0309
_cell_length_c       9.69309
_cell_angle_alpha    90
_cell_angle_beta     90
_cell_angle_gamma    106.816

_symmetry_Int_Tables_number  63
_chemical_formula_structural  Mn2ZnO4
_chemical_formula_sum  Mn4Zn2O8
_cell_volume  135.87571648751546
_cell_formula_units_Z  2
loop_
  _symmetry_equiv_pos_site_id
 _symmetry_equiv_pos_as_xyz
 1  'x, y, z'
loop_
 _atom_site_type_symbol
 _atom_site_label
 _atom_site_symmetry_multiplicity
 _atom_site_fract_x
 _atom_site_fract_y
 _atom_site_fract_z
 _atom_site_fract_occupancy
 Mn  Mn1  1  0.86965  0.73930  0.06991  1
 Mn  Mn2  1  0.13035  0.26070  0.93009  1
 Mn  Mn3  1  0.86965  0.73930  0.43009  1
 Mn  Mn4  1  0.13035  0.26070  0.56991  1
 O  O1  1  0.22411  0.44823  0.38851  1
 O  O2  1  0.77589  0.55177  0.61149  1
 O  O3  1  0.77589  0.55177  0.88851  1
 O  O4  1  0.22411  0.44823  0.11149  1
 O  O5  1  0.95773  0.91547  0.25000  1
 O  O6  1  0.04227  0.08453  0.75000  1
 O  O7  1  0.50000  0.00000  0.00000  1
 O  O8  1  0.50000  0.00000  0.50000  1
 Zn  Zn1  1  0.38664  0.77328  0.75000  1
 Zn  Zn2  1  0.61336  0.22672  0.25000  1
