CIF file written using JARVIS-Tools package.
data_BiOF
_symmetry_space_group_name_H-M  'R-3m'
_cell_length_a       3.97473
_cell_length_b       7.20289
_cell_length_c       3.97473
_cell_angle_alpha    106.016
_cell_angle_beta     60
_cell_angle_gamma    106.016

_symmetry_Int_Tables_number  166
_chemical_formula_structural  BiOF
_chemical_formula_sum  Bi2O2F2
_cell_volume  93.41378337782628
_cell_formula_units_Z  2
loop_
  _symmetry_equiv_pos_site_id
 _symmetry_equiv_pos_as_xyz
 1  'x, y, z'
loop_
 _atom_site_type_symbol
 _atom_site_label
 _atom_site_symmetry_multiplicity
 _atom_site_fract_x
 _atom_site_fract_y
 _atom_site_fract_z
 _atom_site_fract_occupancy
 Bi  Bi1  1  0.59412  0.78236  0.59412  1
 Bi  Bi2  1  0.40588  0.21764  0.40588  1
 F  F1  1  0.11976  0.35928  0.11976  1
 F  F2  1  0.88024  0.64072  0.88024  1
 O  O1  1  0.29637  0.88910  0.29637  1
 O  O2  1  0.70363  0.11090  0.70363  1
