CIF file written using JARVIS-Tools package.
data_Sr2Pb
_symmetry_space_group_name_H-M  'Pnma'
_cell_length_a       5.42935
_cell_length_b       8.34687
_cell_length_c       10.1302
_cell_angle_alpha    90
_cell_angle_beta     90
_cell_angle_gamma    90

_symmetry_Int_Tables_number  62
_chemical_formula_structural  Sr2Pb
_chemical_formula_sum  Sr8Pb4
_cell_volume  459.08337422731614
_cell_formula_units_Z  4
loop_
  _symmetry_equiv_pos_site_id
 _symmetry_equiv_pos_as_xyz
 1  'x, y, z'
loop_
 _atom_site_type_symbol
 _atom_site_label
 _atom_site_symmetry_multiplicity
 _atom_site_fract_x
 _atom_site_fract_y
 _atom_site_fract_z
 _atom_site_fract_occupancy
 Pb  Pb1  1  0.25000  0.75129  0.60446  1
 Pb  Pb2  1  0.75000  0.24871  0.39554  1
 Pb  Pb3  1  0.25000  0.25129  0.89554  1
 Pb  Pb4  1  0.75000  0.74871  0.10446  1
 Sr  Sr1  1  0.25000  0.48008  0.18404  1
 Sr  Sr2  1  0.75000  0.51992  0.81596  1
 Sr  Sr3  1  0.25000  0.98008  0.31596  1
 Sr  Sr4  1  0.75000  0.01992  0.68404  1
 Sr  Sr5  1  0.75000  0.15899  0.07471  1
 Sr  Sr6  1  0.25000  0.84101  0.92529  1
 Sr  Sr7  1  0.75000  0.65899  0.42529  1
 Sr  Sr8  1  0.25000  0.34101  0.57471  1
