CIF file written using JARVIS-Tools package.
data_ErCuS2
_symmetry_space_group_name_H-M  'Pnma'
_cell_length_a       3.92529
_cell_length_b       6.24052
_cell_length_c       13.2517
_cell_angle_alpha    90
_cell_angle_beta     90
_cell_angle_gamma    90

_symmetry_Int_Tables_number  62
_chemical_formula_structural  ErCuS2
_chemical_formula_sum  Er4Cu4S8
_cell_volume  324.61157392192973
_cell_formula_units_Z  4
loop_
  _symmetry_equiv_pos_site_id
 _symmetry_equiv_pos_as_xyz
 1  'x, y, z'
loop_
 _atom_site_type_symbol
 _atom_site_label
 _atom_site_symmetry_multiplicity
 _atom_site_fract_x
 _atom_site_fract_y
 _atom_site_fract_z
 _atom_site_fract_occupancy
 Cu  Cu1  1  0.25082  0.87056  0.95259  1
 Cu  Cu2  1  0.75082  0.62944  0.04741  1
 Cu  Cu3  1  0.74918  0.37056  0.54741  1
 Cu  Cu4  1  0.24918  0.12944  0.45259  1
 Er  Er1  1  0.25031  0.25159  0.13368  1
 Er  Er2  1  0.74969  0.75159  0.36632  1
 Er  Er3  1  0.24969  0.74841  0.63368  1
 Er  Er4  1  0.75031  0.24841  0.86632  1
 S  S1  1  0.74972  0.51395  0.70753  1
 S  S2  1  0.75028  0.48605  0.20753  1
 S  S3  1  0.24972  0.98605  0.29247  1
 S  S4  1  0.25037  0.49234  0.95918  1
 S  S5  1  0.74963  0.99234  0.54082  1
 S  S6  1  0.75037  0.00766  0.04082  1
 S  S7  1  0.24963  0.50766  0.45918  1
 S  S8  1  0.25028  0.01395  0.79247  1
