CIF file written using JARVIS-Tools package.
data_AlWF5
_symmetry_space_group_name_H-M  'Immm'
_cell_length_a       3.69934
_cell_length_b       5.44768
_cell_length_c       5.44767
_cell_angle_alpha    75.3064
_cell_angle_beta     70.1516
_cell_angle_gamma    70.1514

_symmetry_Int_Tables_number  71
_chemical_formula_structural  AlWF5
_chemical_formula_sum  AlWF5
_cell_volume  95.9341150712253
_cell_formula_units_Z  1
loop_
  _symmetry_equiv_pos_site_id
 _symmetry_equiv_pos_as_xyz
 1  'x, y, z'
loop_
 _atom_site_type_symbol
 _atom_site_label
 _atom_site_symmetry_multiplicity
 _atom_site_fract_x
 _atom_site_fract_y
 _atom_site_fract_z
 _atom_site_fract_occupancy
 Al  Al1  1  0.50000  0.50000  0.50000  1
 F  F1  1  0.50000  0.77748  0.22252  1
 F  F2  1  0.50000  0.22252  0.77748  1
 F  F3  1  0.73199  0.26801  0.26801  1
 F  F4  1  0.26801  0.73199  0.73199  1
 F  F5  1  0.00000  0.50000  0.50000  1
 W  W1  1  0.00000  0.00000  0.00000  1
