CIF file written using JARVIS-Tools package.
data_Li2NbO3
_symmetry_space_group_name_H-M  'C2/c'
_cell_length_a       5.14668
_cell_length_b       5.14668
_cell_length_c       5.15597
_cell_angle_alpha    79.2458
_cell_angle_beta     100.754
_cell_angle_gamma    62.0634

_symmetry_Int_Tables_number  15
_chemical_formula_structural  Li2NbO3
_chemical_formula_sum  Li4Nb2O6
_cell_volume  112.47634866526388
_cell_formula_units_Z  2
loop_
  _symmetry_equiv_pos_site_id
 _symmetry_equiv_pos_as_xyz
 1  'x, y, z'
loop_
 _atom_site_type_symbol
 _atom_site_label
 _atom_site_symmetry_multiplicity
 _atom_site_fract_x
 _atom_site_fract_y
 _atom_site_fract_z
 _atom_site_fract_occupancy
 Li  Li1  1  0.26281  0.26281  0.75000  1
 Li  Li2  1  0.57951  0.57951  0.75000  1
 Li  Li3  1  0.42049  0.42049  0.25000  1
 Li  Li4  1  0.73719  0.73719  0.25000  1
 Nb  Nb1  1  0.91510  0.91510  0.75000  1
 Nb  Nb2  1  0.08490  0.08490  0.25000  1
 O  O1  1  0.16282  0.67428  0.50045  1
 O  O2  1  0.32572  0.83718  0.00045  1
 O  O3  1  0.00000  0.50000  -0.00000  1
 O  O4  1  0.67428  0.16282  0.99955  1
 O  O5  1  0.50000  -0.00000  0.50000  1
 O  O6  1  0.83718  0.32572  0.49955  1
