CIF file written using JARVIS-Tools package.
data_LiCoCuO4
_symmetry_space_group_name_H-M  'P2/m'
_cell_length_a       5.47145
_cell_length_b       2.77547
_cell_length_c       8.09761
_cell_angle_alpha    90
_cell_angle_beta     142.568
_cell_angle_gamma    90

_symmetry_Int_Tables_number  10
_chemical_formula_structural  LiCoCuO4
_chemical_formula_sum  LiCoCuO4
_cell_volume  74.7433917577569
_cell_formula_units_Z  1
loop_
  _symmetry_equiv_pos_site_id
 _symmetry_equiv_pos_as_xyz
 1  'x, y, z'
loop_
 _atom_site_type_symbol
 _atom_site_label
 _atom_site_symmetry_multiplicity
 _atom_site_fract_x
 _atom_site_fract_y
 _atom_site_fract_z
 _atom_site_fract_occupancy
 Co  Co1  1  -0.00000  0.50000  0.50000  1
 Cu  Cu1  1  0.50000  0.00000  0.50000  1
 Li  Li1  1  0.50000  0.50000  -0.00000  1
 O  O1  1  0.64377  0.00000  0.26168  1
 O  O2  1  0.13872  0.50000  0.34801  1
 O  O3  1  0.35623  0.00000  0.73832  1
 O  O4  1  0.86128  0.50000  0.65199  1
