CIF file written using JARVIS-Tools package.
data_VPbClO3
_symmetry_space_group_name_H-M  'Pnma'
_cell_length_a       5.30929
_cell_length_b       7.17837
_cell_length_c       10.1325
_cell_angle_alpha    90
_cell_angle_beta     90
_cell_angle_gamma    90

_symmetry_Int_Tables_number  62
_chemical_formula_structural  VPbClO3
_chemical_formula_sum  V4Pb4Cl4O2
_cell_volume  386.1711476907345
_cell_formula_units_Z  4
loop_
  _symmetry_equiv_pos_site_id
 _symmetry_equiv_pos_as_xyz
 1  'x, y, z'
loop_
 _atom_site_type_symbol
 _atom_site_label
 _atom_site_symmetry_multiplicity
 _atom_site_fract_x
 _atom_site_fract_y
 _atom_site_fract_z
 _atom_site_fract_occupancy
 Cl  Cl1  1  0.25000  0.94559  0.10609  1
 Cl  Cl2  1  0.75000  0.44559  0.39391  1
 Cl  Cl3  1  0.75000  0.05441  0.89391  1
 Cl  Cl4  1  0.25000  0.55441  0.60609  1
 O  O1  1  0.50672  0.38768  0.08930  1
 O  O2  1  0.00672  0.88768  0.41070  1
 O  O3  1  0.49328  0.61232  0.91070  1
 O  O4  1  0.99328  0.38768  0.08930  1
 O  O5  1  0.99328  0.11232  0.58930  1
 O  O6  1  0.50672  0.11232  0.58930  1
 O  O7  1  0.75000  0.76593  0.63983  1
 O  O8  1  0.25000  0.23407  0.36017  1
 O  O9  1  0.00672  0.61232  0.91070  1
 O  O10  1  0.25000  0.26593  0.86017  1
 O  O11  1  0.75000  0.73407  0.13983  1
 O  O12  1  0.49328  0.88768  0.41070  1
 Pb  Pb1  1  0.25000  0.60287  0.32729  1
 Pb  Pb2  1  0.25000  0.89713  0.82729  1
 Pb  Pb3  1  0.75000  0.10287  0.17271  1
 Pb  Pb4  1  0.75000  0.39713  0.67271  1
 V  V1  1  0.25000  0.06973  0.47282  1
 V  V2  1  0.75000  0.56973  0.02718  1
 V  V3  1  0.25000  0.43027  0.97282  1
 V  V4  1  0.75000  0.93027  0.52718  1
