CIF file written using JARVIS-Tools package.
data_K2NbCuSe4
_symmetry_space_group_name_H-M  'Fddd'
_cell_length_a       5.76291
_cell_length_b       7.30947
_cell_length_c       12.2638
_cell_angle_alpha    84.6856
_cell_angle_beta     76.4109
_cell_angle_gamma    66.7834

_symmetry_Int_Tables_number  70
_chemical_formula_structural  K2NbCuSe4
_chemical_formula_sum  K4Nb2Cu2Se8
_cell_volume  461.472995425552
_cell_formula_units_Z  2
loop_
  _symmetry_equiv_pos_site_id
 _symmetry_equiv_pos_as_xyz
 1  'x, y, z'
loop_
 _atom_site_type_symbol
 _atom_site_label
 _atom_site_symmetry_multiplicity
 _atom_site_fract_x
 _atom_site_fract_y
 _atom_site_fract_z
 _atom_site_fract_occupancy
 Cu  Cu1  1  0.87500  0.25000  0.25000  1
 Cu  Cu2  1  0.12500  0.75000  0.75000  1
 K  K1  1  0.80482  0.75000  0.39036  1
 K  K2  1  0.44518  0.75000  0.10964  1
 K  K3  1  0.19518  0.25000  0.60964  1
 K  K4  1  0.55482  0.25000  0.89036  1
 Nb  Nb1  1  0.62500  0.75000  0.75000  1
 Nb  Nb2  1  0.37500  0.25000  0.25000  1
 Se  Se1  1  0.45534  0.46079  0.36660  1
 Se  Se2  1  0.17805  0.03921  0.36660  1
 Se  Se3  1  0.54466  0.53921  0.63340  1
 Se  Se4  1  0.21726  0.96079  0.86660  1
 Se  Se5  1  0.91613  0.53921  0.86660  1
 Se  Se6  1  0.82195  0.96079  0.63340  1
 Se  Se7  1  0.08387  0.46079  0.13340  1
 Se  Se8  1  0.78274  0.03921  0.13340  1
