CIF file written using JARVIS-Tools package.
data_K2NiAs2
_symmetry_space_group_name_H-M  'Cmcm'
_cell_length_a       5.74052
_cell_length_b       6.58022
_cell_length_c       7.66443
_cell_angle_alpha    115.421
_cell_angle_beta     90
_cell_angle_gamma    90

_symmetry_Int_Tables_number  63
_chemical_formula_structural  K2NiAs2
_chemical_formula_sum  K4Ni2As4
_cell_volume  261.48347671449903
_cell_formula_units_Z  2
loop_
  _symmetry_equiv_pos_site_id
 _symmetry_equiv_pos_as_xyz
 1  'x, y, z'
loop_
 _atom_site_type_symbol
 _atom_site_label
 _atom_site_symmetry_multiplicity
 _atom_site_fract_x
 _atom_site_fract_y
 _atom_site_fract_z
 _atom_site_fract_occupancy
 As  As1  1  0.75000  0.91557  0.20682  1
 As  As2  1  0.25000  0.08443  0.79318  1
 As  As3  1  0.25000  0.70874  0.79318  1
 As  As4  1  0.75000  0.29126  0.20682  1
 K  K1  1  0.75000  0.79280  0.58560  1
 K  K2  1  0.25000  0.20720  0.41440  1
 K  K3  1  0.75000  0.40787  0.81573  1
 K  K4  1  0.25000  0.59213  0.18427  1
 Ni  Ni1  1  0.00000  0.00000  0.00000  1
 Ni  Ni2  1  0.50000  0.00000  0.00000  1
