CIF file written using JARVIS-Tools package.
data_RbAlF4
_symmetry_space_group_name_H-M  'Pmmn'
_cell_length_a       6.30292
_cell_length_b       7.26819
_cell_length_c       7.27821
_cell_angle_alpha    90
_cell_angle_beta     90
_cell_angle_gamma    90

_symmetry_Int_Tables_number  59
_chemical_formula_structural  RbAlF4
_chemical_formula_sum  Rb4Al4F6
_cell_volume  333.42078877555093
_cell_formula_units_Z  4
loop_
  _symmetry_equiv_pos_site_id
 _symmetry_equiv_pos_as_xyz
 1  'x, y, z'
loop_
 _atom_site_type_symbol
 _atom_site_label
 _atom_site_symmetry_multiplicity
 _atom_site_fract_x
 _atom_site_fract_y
 _atom_site_fract_z
 _atom_site_fract_occupancy
 Al  Al1  1  0.00000  0.75000  0.25000  1
 Al  Al2  1  0.00000  0.25000  0.75000  1
 Al  Al3  1  0.00000  0.25000  0.25000  1
 Al  Al4  1  0.00000  0.75000  0.75000  1
 F  F1  1  0.97854  0.29537  0.00000  1
 F  F2  1  0.71882  0.77246  0.26099  1
 F  F3  1  0.71882  0.22754  0.73901  1
 F  F4  1  0.28118  0.27246  0.23901  1
 F  F5  1  0.02973  0.00000  0.79638  1
 F  F6  1  0.28118  0.72754  0.23901  1
 F  F7  1  0.28118  0.27246  0.76099  1
 F  F8  1  0.28118  0.72754  0.76099  1
 F  F9  1  0.71882  0.77246  0.73901  1
 F  F10  1  0.02973  0.00000  0.20362  1
 F  F11  1  0.02146  0.20463  0.50000  1
 F  F12  1  0.71882  0.22754  0.26099  1
 F  F13  1  0.97854  0.70463  0.00000  1
 F  F14  1  0.97027  0.50000  0.70362  1
 F  F15  1  0.97027  0.50000  0.29638  1
 F  F16  1  0.02146  0.79537  0.50000  1
 Rb  Rb1  1  0.51284  0.50000  0.50000  1
 Rb  Rb2  1  0.48716  0.00000  0.00000  1
 Rb  Rb3  1  0.46740  0.00000  0.50000  1
 Rb  Rb4  1  0.53260  0.50000  0.00000  1
