CIF file written using JARVIS-Tools package.
data_MoW2Se4S2
_symmetry_space_group_name_H-M  'Amm2'
_cell_length_a       3.28159
_cell_length_b       3.28152
_cell_length_c       20.0165
_cell_angle_alpha    90
_cell_angle_beta     90
_cell_angle_gamma    120.001

_symmetry_Int_Tables_number  38
_chemical_formula_structural  MoW2Se4S2
_chemical_formula_sum  MoW2Se4S2
_cell_volume  186.6706718760263
_cell_formula_units_Z  1
loop_
  _symmetry_equiv_pos_site_id
 _symmetry_equiv_pos_as_xyz
 1  'x, y, z'
loop_
 _atom_site_type_symbol
 _atom_site_label
 _atom_site_symmetry_multiplicity
 _atom_site_fract_x
 _atom_site_fract_y
 _atom_site_fract_z
 _atom_site_fract_occupancy
 Mo  Mo1  1  0.66582  0.33164  0.34698  1
 S  S1  1  0.33248  0.66496  0.42387  1
 S  S2  1  0.33248  0.66496  0.27009  1
 Se  Se1  1  0.66709  0.33417  -0.05790  1
 Se  Se2  1  0.66708  0.33416  0.58205  1
 Se  Se3  1  0.66708  0.33416  0.11192  1
 Se  Se4  1  0.66709  0.33417  0.75186  1
 W  W1  1  0.33374  0.66749  0.02701  1
 W  W2  1  0.33374  0.66749  0.66696  1
