CIF file written using JARVIS-Tools package.
data_CaInBr3
_symmetry_space_group_name_H-M  'Cmcm'
_cell_length_a       4.24555
_cell_length_b       7.30155
_cell_length_c       10.8685
_cell_angle_alpha    90
_cell_angle_beta     90
_cell_angle_gamma    106.902

_symmetry_Int_Tables_number  63
_chemical_formula_structural  CaInBr3
_chemical_formula_sum  Ca2In2Br6
_cell_volume  322.3591073714565
_cell_formula_units_Z  2
loop_
  _symmetry_equiv_pos_site_id
 _symmetry_equiv_pos_as_xyz
 1  'x, y, z'
loop_
 _atom_site_type_symbol
 _atom_site_label
 _atom_site_symmetry_multiplicity
 _atom_site_fract_x
 _atom_site_fract_y
 _atom_site_fract_z
 _atom_site_fract_occupancy
 Br  Br1  1  0.86367  0.72733  0.45159  1
 Br  Br2  1  0.13633  0.27267  0.54841  1
 Br  Br3  1  0.13633  0.27267  0.95159  1
 Br  Br4  1  0.86367  0.72733  0.04841  1
 Br  Br5  1  0.43383  0.86766  0.75000  1
 Br  Br6  1  0.56617  0.13234  0.25000  1
 Ca  Ca1  1  0.50000  0.00000  0.00000  1
 Ca  Ca2  1  0.50000  0.00000  0.50000  1
 In  In1  1  0.75887  0.51773  0.75000  1
 In  In2  1  0.24113  0.48227  0.25000  1
