CIF file written using JARVIS-Tools package.
data_UAl4Co
_symmetry_space_group_name_H-M  'P-62m'
_cell_length_a       9.17834
_cell_length_b       9.17834
_cell_length_c       4.1004
_cell_angle_alpha    90
_cell_angle_beta     90
_cell_angle_gamma    120

_symmetry_Int_Tables_number  189
_chemical_formula_structural  UAl4Co
_chemical_formula_sum  U3Al2Co3
_cell_volume  299.14695954814425
_cell_formula_units_Z  3
loop_
  _symmetry_equiv_pos_site_id
 _symmetry_equiv_pos_as_xyz
 1  'x, y, z'
loop_
 _atom_site_type_symbol
 _atom_site_label
 _atom_site_symmetry_multiplicity
 _atom_site_fract_x
 _atom_site_fract_y
 _atom_site_fract_z
 _atom_site_fract_occupancy
 Al  Al1  1  0.81558  0.52038  0.50000  1
 Al  Al2  1  0.25645  0.25645  0.00000  1
 Al  Al3  1  0.18442  0.70480  0.50000  1
 Al  Al4  1  0.52038  0.81558  0.50000  1
 Al  Al5  1  0.29520  0.47962  0.50000  1
 Al  Al6  1  0.70480  0.18442  0.50000  1
 Al  Al7  1  0.47962  0.29520  0.50000  1
 Al  Al8  1  -0.00000  0.74355  0.00000  1
 Al  Al9  1  0.16895  0.00000  0.50000  1
 Al  Al10  1  0.00000  0.16895  0.50000  1
 Al  Al11  1  0.83105  0.83105  0.50000  1
 Al  Al12  1  0.74355  -0.00000  0.00000  1
 Co  Co1  1  0.33333  0.66667  0.00000  1
 Co  Co2  1  0.00000  0.00000  0.00000  1
 Co  Co3  1  0.66667  0.33333  0.00000  1
 U  U1  1  0.41009  0.00000  0.00000  1
 U  U2  1  0.00000  0.41009  0.00000  1
 U  U3  1  0.58991  0.58991  0.00000  1
