CIF file written using JARVIS-Tools package.
data_FeCo5O12
_symmetry_space_group_name_H-M  'C2/m'
_cell_length_a       4.8841
_cell_length_b       4.89769
_cell_length_c       8.72065
_cell_angle_alpha    90.005
_cell_angle_beta     90.0099
_cell_angle_gamma    60.0918

_symmetry_Int_Tables_number  12
_chemical_formula_structural  FeCo5O12
_chemical_formula_sum  FeCo5O2
_cell_volume  180.82370514567566
_cell_formula_units_Z  1
loop_
  _symmetry_equiv_pos_site_id
 _symmetry_equiv_pos_as_xyz
 1  'x, y, z'
loop_
 _atom_site_type_symbol
 _atom_site_label
 _atom_site_symmetry_multiplicity
 _atom_site_fract_x
 _atom_site_fract_y
 _atom_site_fract_z
 _atom_site_fract_occupancy
 Co  Co1  1  0.16672  0.66656  0.50000  1
 Co  Co2  1  0.66668  0.66665  0.00000  1
 Co  Co3  1  0.33332  0.33335  -0.00000  1
 Co  Co4  1  0.83328  0.33344  0.50000  1
 Co  Co5  1  0.50000  -0.00000  0.50000  1
 Fe  Fe1  1  0.00000  0.00000  0.00000  1
 O  O1  1  0.00019  0.66839  0.10721  1
 O  O2  1  0.33142  0.66839  0.89279  1
 O  O3  1  0.66831  -0.00000  0.89275  1
 O  O4  1  0.50012  0.66669  0.39341  1
 O  O5  1  0.16681  0.33331  0.39341  1
 O  O6  1  0.66858  0.33161  0.10721  1
 O  O7  1  0.83319  0.66669  0.60659  1
 O  O8  1  0.49988  0.33331  0.60659  1
 O  O9  1  0.33169  0.00000  0.10725  1
 O  O10  1  -0.00019  0.33161  0.89279  1
 O  O11  1  0.16652  -0.00000  0.60647  1
 O  O12  1  0.83348  0.00000  0.39353  1
