CIF file written using JARVIS-Tools package.
data_YMn3Se2ClO8
_symmetry_space_group_name_H-M  'Pmmn'
_cell_length_a       6.53448
_cell_length_b       6.97008
_cell_length_c       9.36567
_cell_angle_alpha    90
_cell_angle_beta     90
_cell_angle_gamma    90

_symmetry_Int_Tables_number  59
_chemical_formula_structural  YMn3Se2ClO8
_chemical_formula_sum  Y2Mn6Se4Cl2O6
_cell_volume  426.567315524615
_cell_formula_units_Z  2
loop_
  _symmetry_equiv_pos_site_id
 _symmetry_equiv_pos_as_xyz
 1  'x, y, z'
loop_
 _atom_site_type_symbol
 _atom_site_label
 _atom_site_symmetry_multiplicity
 _atom_site_fract_x
 _atom_site_fract_y
 _atom_site_fract_z
 _atom_site_fract_occupancy
 Cl  Cl1  1  0.50000  0.13087  0.00000  1
 Cl  Cl2  1  0.00000  0.86913  0.50000  1
 Mn  Mn1  1  0.25000  0.00000  0.75000  1
 Mn  Mn2  1  0.25000  0.00000  0.25000  1
 Mn  Mn3  1  0.75000  0.00000  0.75000  1
 Mn  Mn4  1  0.50000  0.79917  0.50000  1
 Mn  Mn5  1  0.00000  0.20083  0.00000  1
 Mn  Mn6  1  0.75000  0.00000  0.25000  1
 O  O1  1  0.70970  0.73292  0.15769  1
 O  O2  1  0.00000  -0.00092  0.86290  1
 O  O3  1  0.79030  0.26708  0.34231  1
 O  O4  1  0.00000  0.42093  0.87131  1
 O  O5  1  0.29030  0.73292  0.84231  1
 O  O6  1  0.50000  0.57907  0.37131  1
 O  O7  1  0.70970  0.73292  0.84231  1
 O  O8  1  0.50000  0.57907  0.62869  1
 O  O9  1  0.20970  0.26708  0.34231  1
 O  O10  1  0.79030  0.26708  0.65769  1
 O  O11  1  0.00000  0.42093  0.12869  1
 O  O12  1  0.50000  0.00092  0.36290  1
 O  O13  1  0.20970  0.26708  0.65769  1
 O  O14  1  0.29030  0.73292  0.15769  1
 O  O15  1  0.50000  0.00092  0.63710  1
 O  O16  1  0.00000  -0.00092  0.13710  1
 Se  Se1  1  0.00000  0.42133  0.67813  1
 Se  Se2  1  0.50000  0.57867  0.82187  1
 Se  Se3  1  0.50000  0.57867  0.17813  1
 Se  Se4  1  0.00000  0.42133  0.32187  1
 Y  Y1  1  0.50000  0.28563  0.50000  1
 Y  Y2  1  0.00000  0.71437  0.00000  1
