CIF file written using JARVIS-Tools package.
data_ZrBr2
_symmetry_space_group_name_H-M  'R-3'
_cell_length_a       8.45544
_cell_length_b       8.45545
_cell_length_c       8.45545
_cell_angle_alpha    107.367
_cell_angle_beta     107.367
_cell_angle_gamma    107.367

_symmetry_Int_Tables_number  148
_chemical_formula_structural  ZrBr2
_chemical_formula_sum  Zr6Br2
_cell_volume  498.32486175551804
_cell_formula_units_Z  6
loop_
  _symmetry_equiv_pos_site_id
 _symmetry_equiv_pos_as_xyz
 1  'x, y, z'
loop_
 _atom_site_type_symbol
 _atom_site_label
 _atom_site_symmetry_multiplicity
 _atom_site_fract_x
 _atom_site_fract_y
 _atom_site_fract_z
 _atom_site_fract_occupancy
 Br  Br1  1  0.68650  0.07869  0.23000  1
 Br  Br2  1  0.84991  0.54235  0.62025  1
 Br  Br3  1  0.54235  0.62025  0.84991  1
 Br  Br4  1  0.37975  0.15009  0.45765  1
 Br  Br5  1  0.15009  0.45765  0.37975  1
 Br  Br6  1  0.45765  0.37975  0.15009  1
 Br  Br7  1  0.31350  0.92131  0.77000  1
 Br  Br8  1  0.62025  0.84991  0.54235  1
 Br  Br9  1  0.92131  0.77000  0.31350  1
 Br  Br10  1  0.23000  0.68650  0.07869  1
 Br  Br11  1  0.07869  0.23000  0.68650  1
 Br  Br12  1  0.77000  0.31350  0.92131  1
 Zr  Zr1  1  0.09940  0.29379  0.03329  1
 Zr  Zr2  1  0.96671  0.90060  0.70621  1
 Zr  Zr3  1  0.90060  0.70621  0.96671  1
 Zr  Zr4  1  0.70621  0.96671  0.90060  1
 Zr  Zr5  1  0.03329  0.09940  0.29379  1
 Zr  Zr6  1  0.29379  0.03329  0.09940  1
