CIF file written using JARVIS-Tools package.
data_TcAgO4
_symmetry_space_group_name_H-M  'I4_1/a'
_cell_length_a       5.3081
_cell_length_b       5.30821
_cell_length_c       6.91261
_cell_angle_alpha    112.578
_cell_angle_beta     112.576
_cell_angle_gamma    90.0046

_symmetry_Int_Tables_number  88
_chemical_formula_structural  TcAgO4
_chemical_formula_sum  Tc2Ag2O8
_cell_volume  163.56098946889526
_cell_formula_units_Z  2
loop_
  _symmetry_equiv_pos_site_id
 _symmetry_equiv_pos_as_xyz
 1  'x, y, z'
loop_
 _atom_site_type_symbol
 _atom_site_label
 _atom_site_symmetry_multiplicity
 _atom_site_fract_x
 _atom_site_fract_y
 _atom_site_fract_z
 _atom_site_fract_occupancy
 Ag  Ag1  1  0.87499  0.12501  0.25000  1
 Ag  Ag2  1  0.12501  0.87499  0.75000  1
 O  O1  1  0.15478  0.30667  0.08207  1
 O  O2  1  0.30667  0.42728  0.58207  1
 O  O3  1  0.77538  0.15481  0.58208  1
 O  O4  1  0.42731  0.77540  0.08209  1
 O  O5  1  0.57269  0.22460  0.91791  1
 O  O6  1  0.22462  0.84519  0.41792  1
 O  O7  1  0.69333  0.57272  0.41793  1
 O  O8  1  0.84522  0.69333  0.91793  1
 Tc  Tc1  1  0.37501  0.62500  0.25000  1
 Tc  Tc2  1  0.62499  0.37500  0.75000  1
