CIF file written using JARVIS-Tools package.
data_MgCr2O5
_symmetry_space_group_name_H-M  'Pmmn'
_cell_length_a       3.31329
_cell_length_b       4.74301
_cell_length_c       11.4766
_cell_angle_alpha    90
_cell_angle_beta     90
_cell_angle_gamma    90

_symmetry_Int_Tables_number  59
_chemical_formula_structural  MgCr2O5
_chemical_formula_sum  Mg2Cr4O0
_cell_volume  180.3550431591294
_cell_formula_units_Z  2
loop_
  _symmetry_equiv_pos_site_id
 _symmetry_equiv_pos_as_xyz
 1  'x, y, z'
loop_
 _atom_site_type_symbol
 _atom_site_label
 _atom_site_symmetry_multiplicity
 _atom_site_fract_x
 _atom_site_fract_y
 _atom_site_fract_z
 _atom_site_fract_occupancy
 Cr  Cr1  1  0.25000  0.40633  0.10054  1
 Cr  Cr2  1  0.75000  0.59367  0.89946  1
 Cr  Cr3  1  0.75000  0.59367  0.60054  1
 Cr  Cr4  1  0.25000  0.40633  0.39946  1
 Mg  Mg1  1  0.75000  0.85970  0.25000  1
 Mg  Mg2  1  0.25000  0.14030  0.75000  1
 O  O1  1  0.75000  0.42456  0.75000  1
 O  O2  1  0.25000  0.57544  0.25000  1
 O  O3  1  0.75000  0.56877  0.07122  1
 O  O4  1  0.25000  0.43124  0.92877  1
 O  O5  1  0.75000  0.56877  0.42877  1
 O  O6  1  0.25000  0.43124  0.57123  1
 O  O7  1  0.25000  0.06575  0.36138  1
 O  O8  1  0.75000  0.93425  0.63862  1
 O  O9  1  0.75000  0.93425  0.86138  1
 O  O10  1  0.25000  0.06575  0.13862  1
