CIF file written using JARVIS-Tools package.
data_Mn5SnO12
_symmetry_space_group_name_H-M  'C2/m'
_cell_length_a       5.10692
_cell_length_b       5.10688
_cell_length_c       9.03325
_cell_angle_alpha    84.6019
_cell_angle_beta     79.155
_cell_angle_gamma    59.9998

_symmetry_Int_Tables_number  12
_chemical_formula_structural  Mn5SnO12
_chemical_formula_sum  Mn5SnO2
_cell_volume  200.38352362458255
_cell_formula_units_Z  1
loop_
  _symmetry_equiv_pos_site_id
 _symmetry_equiv_pos_as_xyz
 1  'x, y, z'
loop_
 _atom_site_type_symbol
 _atom_site_label
 _atom_site_symmetry_multiplicity
 _atom_site_fract_x
 _atom_site_fract_y
 _atom_site_fract_z
 _atom_site_fract_occupancy
 Mn  Mn1  1  0.16693  0.66614  0.50000  1
 Mn  Mn2  1  0.66667  0.66667  0.00000  1
 Mn  Mn3  1  0.33333  0.33333  -0.00000  1
 Mn  Mn4  1  0.83307  0.33386  0.50000  1
 Mn  Mn5  1  0.50000  0.00000  0.50000  1
 O  O1  1  0.96270  0.64311  0.11209  1
 O  O2  1  0.39419  0.64311  0.88791  1
 O  O3  1  0.68041  -0.00000  0.88791  1
 O  O4  1  0.53427  0.66686  0.39646  1
 O  O5  1  0.20113  0.33314  0.39646  1
 O  O6  1  0.60581  0.35689  0.11209  1
 O  O7  1  0.79887  0.66686  0.60354  1
 O  O8  1  0.46573  0.33314  0.60354  1
 O  O9  1  0.31959  0.00000  0.11209  1
 O  O10  1  0.03730  0.35689  0.88791  1
 O  O11  1  0.13154  0.00000  0.60498  1
 O  O12  1  0.86846  -0.00000  0.39502  1
 Sn  Sn1  1  0.00000  0.00000  0.00000  1
