CIF file written using JARVIS-Tools package.
data_Ca3P2O8
_symmetry_space_group_name_H-M  'Pm'
_cell_length_a       5.18418
_cell_length_b       5.22144
_cell_length_c       7.19466
_cell_angle_alpha    90.0007
_cell_angle_beta     90.0009
_cell_angle_gamma    115.126

_symmetry_Int_Tables_number  6
_chemical_formula_structural  Ca3P2O8
_chemical_formula_sum  Ca3P2O8
_cell_volume  176.3231589440292
_cell_formula_units_Z  1
loop_
  _symmetry_equiv_pos_site_id
 _symmetry_equiv_pos_as_xyz
 1  'x, y, z'
loop_
 _atom_site_type_symbol
 _atom_site_label
 _atom_site_symmetry_multiplicity
 _atom_site_fract_x
 _atom_site_fract_y
 _atom_site_fract_z
 _atom_site_fract_occupancy
 Ca  Ca1  1  0.34788  0.73550  0.24997  1
 Ca  Ca2  1  0.00632  0.02320  0.97830  1
 Ca  Ca3  1  0.00630  0.02317  0.52167  1
 O  O1  1  0.68173  0.79664  0.74999  1
 O  O2  1  0.25364  0.32080  0.74998  1
 O  O3  1  0.23575  0.72433  0.93091  1
 O  O4  1  0.23578  0.72433  0.56903  1
 O  O5  1  0.70528  0.21078  0.42168  1
 O  O6  1  0.70530  0.21067  0.07845  1
 O  O7  1  0.80302  0.67990  0.25000  1
 O  O8  1  0.31183  0.27007  0.25000  1
 P  P1  1  0.35191  0.64612  0.74998  1
 P  P2  1  0.64374  0.34640  0.25004  1
