CIF file written using JARVIS-Tools package.
data_Ca2MgSi2O7
_symmetry_space_group_name_H-M  'P-42_1m'
_cell_length_a       7.86872
_cell_length_b       7.86872
_cell_length_c       5.01529
_cell_angle_alpha    90
_cell_angle_beta     90
_cell_angle_gamma    90

_symmetry_Int_Tables_number  113
_chemical_formula_structural  Ca2MgSi2O7
_chemical_formula_sum  Ca4Mg2Si4O4
_cell_volume  310.53083813353345
_cell_formula_units_Z  2
loop_
  _symmetry_equiv_pos_site_id
 _symmetry_equiv_pos_as_xyz
 1  'x, y, z'
loop_
 _atom_site_type_symbol
 _atom_site_label
 _atom_site_symmetry_multiplicity
 _atom_site_fract_x
 _atom_site_fract_y
 _atom_site_fract_z
 _atom_site_fract_occupancy
 Ca  Ca1  1  0.16771  0.33229  0.49522  1
 Ca  Ca2  1  0.33229  0.83229  0.50478  1
 Ca  Ca3  1  0.66771  0.16771  0.50478  1
 Ca  Ca4  1  0.83229  0.66771  0.49522  1
 Mg  Mg1  1  0.00000  0.00000  0.00000  1
 Mg  Mg2  1  0.50000  0.50000  0.00000  1
 O  O1  1  0.68388  0.41783  0.78053  1
 O  O2  1  0.14155  0.64155  0.25443  1
 O  O3  1  0.41783  0.31612  0.21947  1
 O  O4  1  0.58217  0.68388  0.21947  1
 O  O5  1  0.91783  0.18388  0.78053  1
 O  O6  1  0.31612  0.58217  0.78053  1
 O  O7  1  0.18388  0.08217  0.21947  1
 O  O8  1  0.08217  0.81612  0.78053  1
 O  O9  1  0.00000  0.50000  0.81335  1
 O  O10  1  0.64155  0.85845  0.74557  1
 O  O11  1  0.81612  0.91783  0.21947  1
 O  O12  1  0.50000  0.00000  0.18665  1
 O  O13  1  0.85845  0.35845  0.25443  1
 O  O14  1  0.35845  0.14155  0.74557  1
 Si  Si1  1  0.85877  0.35877  0.93189  1
 Si  Si2  1  0.35877  0.14123  0.06811  1
 Si  Si3  1  0.14123  0.64123  0.93189  1
 Si  Si4  1  0.64123  0.85877  0.06811  1
