CIF file written using JARVIS-Tools package.
data_TaInO4
_symmetry_space_group_name_H-M  'P2/c'
_cell_length_a       4.87136
_cell_length_b       5.85805
_cell_length_c       5.21523
_cell_angle_alpha    90
_cell_angle_beta     91.2284
_cell_angle_gamma    90

_symmetry_Int_Tables_number  13
_chemical_formula_structural  TaInO4
_chemical_formula_sum  Ta2In2O8
_cell_volume  148.79138142826713
_cell_formula_units_Z  2
loop_
  _symmetry_equiv_pos_site_id
 _symmetry_equiv_pos_as_xyz
 1  'x, y, z'
loop_
 _atom_site_type_symbol
 _atom_site_label
 _atom_site_symmetry_multiplicity
 _atom_site_fract_x
 _atom_site_fract_y
 _atom_site_fract_z
 _atom_site_fract_occupancy
 In  In1  1  0.50000  0.32291  0.75000  1
 In  In2  1  0.50000  0.67709  0.25000  1
 O  O1  1  0.74097  0.62012  0.59926  1
 O  O2  1  0.25903  0.62012  0.90074  1
 O  O3  1  0.25903  0.37988  0.40074  1
 O  O4  1  0.74097  0.37988  0.09926  1
 O  O5  1  0.78549  0.10254  0.56370  1
 O  O6  1  0.21451  0.10254  0.93630  1
 O  O7  1  0.21451  0.89746  0.43630  1
 O  O8  1  0.78549  0.89746  0.06370  1
 Ta  Ta1  1  -0.00000  0.82741  0.75000  1
 Ta  Ta2  1  -0.00000  0.17259  0.25000  1
