CIF file written using JARVIS-Tools package.
data_Li4P2O7
_symmetry_space_group_name_H-M  'P-1'
_cell_length_a       5.19001
_cell_length_b       7.10454
_cell_length_c       8.53689
_cell_angle_alpha    103.215
_cell_angle_beta     89.9618
_cell_angle_gamma    111.109

_symmetry_Int_Tables_number  2
_chemical_formula_structural  Li4P2O7
_chemical_formula_sum  Li8P4O4
_cell_volume  284.72259934264235
_cell_formula_units_Z  2
loop_
  _symmetry_equiv_pos_site_id
 _symmetry_equiv_pos_as_xyz
 1  'x, y, z'
loop_
 _atom_site_type_symbol
 _atom_site_label
 _atom_site_symmetry_multiplicity
 _atom_site_fract_x
 _atom_site_fract_y
 _atom_site_fract_z
 _atom_site_fract_occupancy
 Li  Li1  1  0.25279  0.14508  0.01274  1
 Li  Li2  1  0.74721  0.85492  0.98726  1
 Li  Li3  1  0.60530  0.58330  0.24198  1
 Li  Li4  1  0.39470  0.41670  0.75802  1
 Li  Li5  1  0.97501  0.32521  0.21126  1
 Li  Li6  1  0.02499  0.67479  0.78874  1
 Li  Li7  1  0.94977  0.24619  0.55228  1
 Li  Li8  1  0.05023  0.75381  0.44772  1
 O  O1  1  0.88022  0.15080  0.98441  1
 O  O2  1  0.99161  0.59802  0.20401  1
 O  O3  1  0.00839  0.40198  0.79599  1
 O  O4  1  0.11978  0.84920  0.01559  1
 O  O5  1  0.25980  0.74313  0.62069  1
 O  O6  1  0.48484  0.73742  0.12189  1
 O  O7  1  0.68041  0.72824  0.46790  1
 O  O8  1  0.65968  0.70302  0.76235  1
 O  O9  1  0.31959  0.27176  0.53210  1
 O  O10  1  0.26865  0.95927  0.31786  1
 O  O11  1  0.73135  0.04073  0.68214  1
 O  O12  1  0.74020  0.25687  0.37931  1
 O  O13  1  0.34032  0.29698  0.23765  1
 O  O14  1  0.51516  0.26258  0.87811  1
 P  P1  1  0.56982  0.78617  0.62867  1
 P  P2  1  0.43018  0.21383  0.37133  1
 P  P3  1  0.21721  0.77499  0.15149  1
 P  P4  1  0.78279  0.22501  0.84851  1
