CIF file written using JARVIS-Tools package.
data_KVP2S7
_symmetry_space_group_name_H-M  'C2'
_cell_length_a       6.27988
_cell_length_b       6.4663
_cell_length_c       6.4663
_cell_angle_alpha    96.2515
_cell_angle_beta     95.4059
_cell_angle_gamma    95.406

_symmetry_Int_Tables_number  5
_chemical_formula_structural  KVP2S7
_chemical_formula_sum  KVP2S7
_cell_volume  258.40682552530205
_cell_formula_units_Z  1
loop_
  _symmetry_equiv_pos_site_id
 _symmetry_equiv_pos_as_xyz
 1  'x, y, z'
loop_
 _atom_site_type_symbol
 _atom_site_label
 _atom_site_symmetry_multiplicity
 _atom_site_fract_x
 _atom_site_fract_y
 _atom_site_fract_z
 _atom_site_fract_occupancy
 K  K1  1  0.50000  0.11294  0.88706  1
 P  P1  1  0.08405  0.05133  0.34790  1
 P  P2  1  0.91595  0.65210  0.94867  1
 S  S1  1  0.00000  0.98771  0.01229  1
 S  S2  1  0.76480  0.54130  0.18411  1
 S  S3  1  0.29182  0.31508  0.36908  1
 S  S4  1  0.70818  0.63092  0.68492  1
 S  S5  1  0.81948  0.14318  0.47701  1
 S  S6  1  0.18052  0.52299  0.85682  1
 S  S7  1  0.23520  0.81589  0.45870  1
 V  V1  1  0.00000  0.50016  0.49984  1
