CIF file written using JARVIS-Tools package.
data_Mo3WSe4S4
_symmetry_space_group_name_H-M  'P3m1'
_cell_length_a       3.25885
_cell_length_b       3.25886
_cell_length_c       25.6855
_cell_angle_alpha    89.9927
_cell_angle_beta     90
_cell_angle_gamma    120

_symmetry_Int_Tables_number  156
_chemical_formula_structural  Mo3WSe4S4
_chemical_formula_sum  Mo3WSe4S4
_cell_volume  236.23748243635228
_cell_formula_units_Z  1
loop_
  _symmetry_equiv_pos_site_id
 _symmetry_equiv_pos_as_xyz
 1  'x, y, z'
loop_
 _atom_site_type_symbol
 _atom_site_label
 _atom_site_symmetry_multiplicity
 _atom_site_fract_x
 _atom_site_fract_y
 _atom_site_fract_z
 _atom_site_fract_occupancy
 Mo  Mo1  1  0.33374  0.66748  0.00566  1
 Mo  Mo2  1  0.33290  0.66581  0.49596  1
 Mo  Mo3  1  0.66655  0.33309  0.25529  1
 S  S1  1  0.33316  0.66633  0.31545  1
 S  S2  1  0.66627  0.33255  0.43580  1
 S  S3  1  0.66620  0.33240  0.55615  1
 S  S4  1  0.33326  0.66652  0.19510  1
 Se  Se1  1  0.33344  0.66688  0.81253  1
 Se  Se2  1  0.66713  0.33426  0.93955  1
 Se  Se3  1  0.66702  0.33404  0.07175  1
 Se  Se4  1  0.33351  0.66702  0.67951  1
 W  W1  1  0.66681  0.33362  0.74601  1
