CIF file written using JARVIS-Tools package.
data_BaTm2O4
_symmetry_space_group_name_H-M  'Pnma'
_cell_length_a       3.41364
_cell_length_b       10.3626
_cell_length_c       12.0052
_cell_angle_alpha    90
_cell_angle_beta     90
_cell_angle_gamma    90

_symmetry_Int_Tables_number  62
_chemical_formula_structural  BaTm2O4
_chemical_formula_sum  Ba4Tm8O6
_cell_volume  424.67395627086165
_cell_formula_units_Z  4
loop_
  _symmetry_equiv_pos_site_id
 _symmetry_equiv_pos_as_xyz
 1  'x, y, z'
loop_
 _atom_site_type_symbol
 _atom_site_label
 _atom_site_symmetry_multiplicity
 _atom_site_fract_x
 _atom_site_fract_y
 _atom_site_fract_z
 _atom_site_fract_occupancy
 Ba  Ba1  1  0.25000  0.75318  0.35001  1
 Ba  Ba2  1  0.75000  0.74682  0.85001  1
 Ba  Ba3  1  0.25000  0.25318  0.14999  1
 Ba  Ba4  1  0.75000  0.24682  0.64999  1
 O  O1  1  0.75000  0.98128  0.71751  1
 O  O2  1  0.75000  0.06890  0.07393  1
 O  O3  1  0.75000  0.88654  0.48292  1
 O  O4  1  0.75000  0.79029  0.15496  1
 O  O5  1  0.25000  0.70971  0.65496  1
 O  O6  1  0.25000  0.61346  0.98292  1
 O  O7  1  0.25000  0.93110  0.92607  1
 O  O8  1  0.25000  0.51872  0.21751  1
 O  O9  1  0.25000  0.43110  0.57393  1
 O  O10  1  0.75000  0.38654  0.01708  1
 O  O11  1  0.75000  0.29029  0.34504  1
 O  O12  1  0.25000  0.11346  0.51708  1
 O  O13  1  0.75000  0.56890  0.42607  1
 O  O14  1  0.75000  0.48128  0.78249  1
 O  O15  1  0.25000  0.20971  0.84504  1
 O  O16  1  0.25000  0.01872  0.28249  1
 Tm  Tm1  1  0.75000  0.57772  0.10820  1
 Tm  Tm2  1  0.25000  0.92228  0.60820  1
 Tm  Tm3  1  0.25000  0.92698  0.11035  1
 Tm  Tm4  1  0.75000  0.57302  0.61035  1
 Tm  Tm5  1  0.25000  0.42698  0.38965  1
 Tm  Tm6  1  0.25000  0.42228  0.89180  1
 Tm  Tm7  1  0.75000  0.07302  0.88965  1
 Tm  Tm8  1  0.75000  0.07772  0.39180  1
