CIF file written using JARVIS-Tools package.
data_Te3Pt2
_symmetry_space_group_name_H-M  'R-3m'
_cell_length_a       4.04982
_cell_length_b       4.04977
_cell_length_c       17.7052
_cell_angle_alpha    96.5702
_cell_angle_beta     90
_cell_angle_gamma    120

_symmetry_Int_Tables_number  166
_chemical_formula_structural  Te3Pt2
_chemical_formula_sum  Te6Pt4
_cell_volume  249.27083089481104
_cell_formula_units_Z  2
loop_
  _symmetry_equiv_pos_site_id
 _symmetry_equiv_pos_as_xyz
 1  'x, y, z'
loop_
 _atom_site_type_symbol
 _atom_site_label
 _atom_site_symmetry_multiplicity
 _atom_site_fract_x
 _atom_site_fract_y
 _atom_site_fract_z
 _atom_site_fract_occupancy
 Pt  Pt1  1  0.55143  0.10286  0.65444  1
 Pt  Pt2  1  0.44857  0.89714  0.34556  1
 Pt  Pt3  1  0.34730  0.69461  0.04187  1
 Pt  Pt4  1  0.65270  0.30539  0.95813  1
 Te  Te1  1  0.24490  0.48980  0.73481  1
 Te  Te2  1  0.96249  0.92498  0.88758  1
 Te  Te3  1  0.85852  0.71704  0.57575  1
 Te  Te4  1  0.75510  0.51020  0.26519  1
 Te  Te5  1  0.03751  0.07502  0.11242  1
 Te  Te6  1  0.14148  0.28296  0.42425  1
