CIF file written using JARVIS-Tools package.
data_LiFeF3
_symmetry_space_group_name_H-M  'P1'
_cell_length_a       5.09821
_cell_length_b       5.0928
_cell_length_c       7.57164
_cell_angle_alpha    90.0591
_cell_angle_beta     89.9649
_cell_angle_gamma    60.0513

_symmetry_Int_Tables_number  1
_chemical_formula_structural  LiFeF3
_chemical_formula_sum  Li3Fe3F9
_cell_volume  170.34071537752246
_cell_formula_units_Z  3
loop_
  _symmetry_equiv_pos_site_id
 _symmetry_equiv_pos_as_xyz
 1  'x, y, z'
loop_
 _atom_site_type_symbol
 _atom_site_label
 _atom_site_symmetry_multiplicity
 _atom_site_fract_x
 _atom_site_fract_y
 _atom_site_fract_z
 _atom_site_fract_occupancy
 F  F1  1  0.97820  0.68811  0.49035  1
 F  F2  1  0.30707  0.68643  0.19114  1
 F  F3  1  0.00882  0.30392  0.19044  1
 F  F4  1  0.33377  0.97859  0.49082  1
 F  F5  1  0.31240  0.71214  0.81216  1
 F  F6  1  0.68876  0.00671  0.19092  1
 F  F7  1  0.71424  0.97377  0.81454  1
 F  F8  1  0.68899  0.33333  0.49055  1
 F  F9  1  0.97281  0.31205  0.81425  1
 Fe  Fe1  1  0.33425  0.33260  0.34772  1
 Fe  Fe2  1  0.00389  -0.00395  0.99485  1
 Fe  Fe3  1  0.66750  0.66699  0.67787  1
 Li  Li1  1  0.99962  0.00109  0.65595  1
 Li  Li2  1  0.00055  0.99993  0.34398  1
 Li  Li3  1  0.66873  0.66530  0.26138  1
