CIF file written using JARVIS-Tools package.
data_YNi2O4
_symmetry_space_group_name_H-M  'I4_1/a'
_cell_length_a       5.5882
_cell_length_b       5.58744
_cell_length_c       6.20864
_cell_angle_alpha    116.739
_cell_angle_beta     116.743
_cell_angle_gamma    90.0049

_symmetry_Int_Tables_number  88
_chemical_formula_structural  YNi2O4
_chemical_formula_sum  Y2Ni4O8
_cell_volume  149.5376127880667
_cell_formula_units_Z  2
loop_
  _symmetry_equiv_pos_site_id
 _symmetry_equiv_pos_as_xyz
 1  'x, y, z'
loop_
 _atom_site_type_symbol
 _atom_site_label
 _atom_site_symmetry_multiplicity
 _atom_site_fract_x
 _atom_site_fract_y
 _atom_site_fract_z
 _atom_site_fract_occupancy
 Ni  Ni1  1  0.50000  0.00000  0.00000  1
 Ni  Ni2  1  0.50000  0.50000  0.00000  1
 Ni  Ni3  1  0.00000  0.50000  0.50000  1
 Ni  Ni4  1  0.50000  0.50000  0.50000  1
 O  O1  1  0.71409  0.52693  0.84948  1
 O  O2  1  0.13538  0.82254  0.84948  1
 O  O3  1  0.28591  0.47307  0.15052  1
 O  O4  1  0.86462  0.17746  0.15052  1
 O  O5  1  0.52695  0.13538  0.34948  1
 O  O6  1  0.82253  0.71409  0.34948  1
 O  O7  1  0.17747  0.28591  0.65052  1
 O  O8  1  0.47305  0.86462  0.65052  1
 Y  Y1  1  0.87500  0.12500  0.74999  1
 Y  Y2  1  0.12500  0.87500  0.25001  1
