CIF file written using JARVIS-Tools package.
data_KNO2
_symmetry_space_group_name_H-M  'Cm'
_cell_length_a       4.41599
_cell_length_b       4.41718
_cell_length_c       4.02206
_cell_angle_alpha    107.921
_cell_angle_beta     107.909
_cell_angle_gamma    81.8975

_symmetry_Int_Tables_number  8
_chemical_formula_structural  KNO2
_chemical_formula_sum  KNO2
_cell_volume  70.93854544105194
_cell_formula_units_Z  1
loop_
  _symmetry_equiv_pos_site_id
 _symmetry_equiv_pos_as_xyz
 1  'x, y, z'
loop_
 _atom_site_type_symbol
 _atom_site_label
 _atom_site_symmetry_multiplicity
 _atom_site_fract_x
 _atom_site_fract_y
 _atom_site_fract_z
 _atom_site_fract_occupancy
 K  K1  1  0.00900  0.00905  0.04245  1
 N  N1  1  0.48995  0.48988  0.44754  1
 O  O1  1  0.39909  0.76992  0.60186  1
 O  O2  1  0.76996  0.39915  0.60214  1
