CIF file written using JARVIS-Tools package.
data_LiMnF4
_symmetry_space_group_name_H-M  'Pnma'
_cell_length_a       4.87089
_cell_length_b       5.67934
_cell_length_c       10.7218
_cell_angle_alpha    90
_cell_angle_beta     90
_cell_angle_gamma    90

_symmetry_Int_Tables_number  62
_chemical_formula_structural  LiMnF4
_chemical_formula_sum  Li4Mn4F6
_cell_volume  296.6008519755005
_cell_formula_units_Z  4
loop_
  _symmetry_equiv_pos_site_id
 _symmetry_equiv_pos_as_xyz
 1  'x, y, z'
loop_
 _atom_site_type_symbol
 _atom_site_label
 _atom_site_symmetry_multiplicity
 _atom_site_fract_x
 _atom_site_fract_y
 _atom_site_fract_z
 _atom_site_fract_occupancy
 F  F1  1  0.70470  0.98339  0.67764  1
 F  F2  1  0.36666  0.25000  0.09936  1
 F  F3  1  0.25881  0.75000  0.11134  1
 F  F4  1  0.79530  0.98339  0.17764  1
 F  F5  1  0.74119  0.25000  0.88866  1
 F  F6  1  0.29530  0.48339  0.32236  1
 F  F7  1  0.29530  0.01661  0.32236  1
 F  F8  1  0.79530  0.51661  0.17764  1
 F  F9  1  0.86666  0.75000  0.40064  1
 F  F10  1  0.13334  0.25000  0.59936  1
 F  F11  1  0.24119  0.75000  0.61134  1
 F  F12  1  0.63334  0.75000  0.90064  1
 F  F13  1  0.70470  0.51661  0.67764  1
 F  F14  1  0.20470  0.48339  0.82236  1
 F  F15  1  0.20470  0.01661  0.82236  1
 F  F16  1  0.75881  0.25000  0.38866  1
 Li  Li1  1  0.37326  0.25000  0.93043  1
 Li  Li2  1  0.87326  0.75000  0.56957  1
 Li  Li3  1  0.12674  0.25000  0.43043  1
 Li  Li4  1  0.62674  0.75000  0.06957  1
 Mn  Mn1  1  0.43315  0.75000  0.75696  1
 Mn  Mn2  1  0.93315  0.25000  0.74304  1
 Mn  Mn3  1  0.06685  0.75000  0.25696  1
 Mn  Mn4  1  0.56685  0.25000  0.24304  1
