CIF file written using JARVIS-Tools package.
data_Rb2TeBr6
_symmetry_space_group_name_H-M  'I4/m'
_cell_length_a       7.49596
_cell_length_b       7.49596
_cell_length_c       7.66457
_cell_angle_alpha    119.275
_cell_angle_beta     119.275
_cell_angle_gamma    90

_symmetry_Int_Tables_number  87
_chemical_formula_structural  Rb2TeBr6
_chemical_formula_sum  Rb2TeBr6
_cell_volume  311.0829173640147
_cell_formula_units_Z  1
loop_
  _symmetry_equiv_pos_site_id
 _symmetry_equiv_pos_as_xyz
 1  'x, y, z'
loop_
 _atom_site_type_symbol
 _atom_site_label
 _atom_site_symmetry_multiplicity
 _atom_site_fract_x
 _atom_site_fract_y
 _atom_site_fract_z
 _atom_site_fract_occupancy
 Br  Br1  1  0.29286  0.78274  0.00000  1
 Br  Br2  1  0.75230  0.75230  0.50460  1
 Br  Br3  1  0.78274  0.70714  -0.00000  1
 Br  Br4  1  0.21726  0.29286  0.00000  1
 Br  Br5  1  0.24770  0.24770  0.49540  1
 Br  Br6  1  0.70714  0.21726  -0.00000  1
 Rb  Rb1  1  0.25000  0.75000  0.50000  1
 Rb  Rb2  1  0.75000  0.25000  0.50000  1
 Te  Te1  1  0.00000  0.00000  0.00000  1
