CIF file written using JARVIS-Tools package.
data_SiO2
_symmetry_space_group_name_H-M  'Ccce'
_cell_length_a       5.74932
_cell_length_b       5.74932
_cell_length_c       11.346
_cell_angle_alpha    90
_cell_angle_beta     90
_cell_angle_gamma    94.5769

_symmetry_Int_Tables_number  68
_chemical_formula_structural  SiO2
_chemical_formula_sum  Si8O6
_cell_volume  373.84061253896544
_cell_formula_units_Z  8
loop_
  _symmetry_equiv_pos_site_id
 _symmetry_equiv_pos_as_xyz
 1  'x, y, z'
loop_
 _atom_site_type_symbol
 _atom_site_label
 _atom_site_symmetry_multiplicity
 _atom_site_fract_x
 _atom_site_fract_y
 _atom_site_fract_z
 _atom_site_fract_occupancy
 O  O1  1  0.00000  0.00000  0.00000  1
 O  O2  1  0.54114  0.54114  0.75000  1
 O  O3  1  0.75000  0.25000  0.87328  1
 O  O4  1  0.25000  0.25000  0.86246  1
 O  O5  1  0.25000  0.75000  0.62672  1
 O  O6  1  0.95886  0.95886  0.75000  1
 O  O7  1  0.75000  0.25000  0.37328  1
 O  O8  1  0.50000  0.50000  0.50000  1
 O  O9  1  0.75000  0.75000  0.13754  1
 O  O10  1  0.04114  0.04114  0.25000  1
 O  O11  1  0.50000  0.50000  0.00000  1
 O  O12  1  0.00000  0.00000  0.50000  1
 O  O13  1  0.45886  0.45886  0.25000  1
 O  O14  1  0.75000  0.75000  0.36246  1
 O  O15  1  0.25000  0.25000  0.63754  1
 O  O16  1  0.25000  0.75000  0.12672  1
 Si  Si1  1  0.38312  0.51097  0.62895  1
 Si  Si2  1  0.11688  0.98903  0.62895  1
 Si  Si3  1  0.48903  0.61688  0.12895  1
 Si  Si4  1  0.88312  0.01097  0.37105  1
 Si  Si5  1  0.01097  0.88312  0.12895  1
 Si  Si6  1  0.98903  0.11688  0.87105  1
 Si  Si7  1  0.61688  0.48903  0.37105  1
 Si  Si8  1  0.51097  0.38312  0.87105  1
