CIF file written using JARVIS-Tools package.
data_HoTe3
_symmetry_space_group_name_H-M  'Cmcm'
_cell_length_a       4.03345
_cell_length_b       4.59296
_cell_length_c       14.0689
_cell_angle_alpha    90
_cell_angle_beta     98.2416
_cell_angle_gamma    90

_symmetry_Int_Tables_number  63
_chemical_formula_structural  HoTe3
_chemical_formula_sum  Ho2Te6
_cell_volume  257.94150865330545
_cell_formula_units_Z  2
loop_
  _symmetry_equiv_pos_site_id
 _symmetry_equiv_pos_as_xyz
 1  'x, y, z'
loop_
 _atom_site_type_symbol
 _atom_site_label
 _atom_site_symmetry_multiplicity
 _atom_site_fract_x
 _atom_site_fract_y
 _atom_site_fract_z
 _atom_site_fract_occupancy
 Ho  Ho1  1  0.94889  0.25000  0.89778  1
 Ho  Ho2  1  0.05111  0.75000  0.10222  1
 Te  Te1  1  0.83591  0.25000  0.67182  1
 Te  Te2  1  0.16409  0.75000  0.32818  1
 Te  Te3  1  0.68729  0.25000  0.37459  1
 Te  Te4  1  0.31271  0.75000  0.62541  1
 Te  Te5  1  0.55268  0.25000  0.10536  1
 Te  Te6  1  0.44732  0.75000  0.89464  1
