CIF file written using JARVIS-Tools package.
data_V2HO4
_symmetry_space_group_name_H-M  'Pm'
_cell_length_a       4.48861
_cell_length_b       2.89536
_cell_length_c       4.85436
_cell_angle_alpha    90
_cell_angle_beta     93.0117
_cell_angle_gamma    90

_symmetry_Int_Tables_number  6
_chemical_formula_structural  V2HO4
_chemical_formula_sum  V2HO4
_cell_volume  63.00088739267122
_cell_formula_units_Z  1
loop_
  _symmetry_equiv_pos_site_id
 _symmetry_equiv_pos_as_xyz
 1  'x, y, z'
loop_
 _atom_site_type_symbol
 _atom_site_label
 _atom_site_symmetry_multiplicity
 _atom_site_fract_x
 _atom_site_fract_y
 _atom_site_fract_z
 _atom_site_fract_occupancy
 H  H1  1  0.42806  0.50000  0.96427  1
 O  O1  1  0.24466  0.50000  0.83649  1
 O  O2  1  0.75344  0.50000  0.16433  1
 O  O3  1  0.72580  0.00000  0.67158  1
 O  O4  1  0.26542  0.00000  0.31626  1
 V  V1  1  0.50469  0.50000  0.47814  1
 V  V2  1  0.97568  0.00000  0.00171  1
