CIF file written using JARVIS-Tools package.
data_Tl2TeI6
_symmetry_space_group_name_H-M  'P2_1/c'
_cell_length_a       7.77516
_cell_length_b       8.31633
_cell_length_c       13.6863
_cell_angle_alpha    90
_cell_angle_beta     123.855
_cell_angle_gamma    90

_symmetry_Int_Tables_number  14
_chemical_formula_structural  Tl2TeI6
_chemical_formula_sum  Tl4Te2I2
_cell_volume  734.9232886821246
_cell_formula_units_Z  2
loop_
  _symmetry_equiv_pos_site_id
 _symmetry_equiv_pos_as_xyz
 1  'x, y, z'
loop_
 _atom_site_type_symbol
 _atom_site_label
 _atom_site_symmetry_multiplicity
 _atom_site_fract_x
 _atom_site_fract_y
 _atom_site_fract_z
 _atom_site_fract_occupancy
 I  I1  1  0.16325  0.50404  0.75568  1
 I  I2  1  0.22977  0.19290  0.53865  1
 I  I3  1  0.77023  0.69290  0.96135  1
 I  I4  1  0.63995  0.30345  0.45522  1
 I  I5  1  0.22977  0.30710  0.03865  1
 I  I6  1  0.77023  0.80710  0.46135  1
 I  I7  1  0.83675  0.49596  0.24432  1
 I  I8  1  0.83675  0.00404  0.74432  1
 I  I9  1  0.36005  0.80345  0.04478  1
 I  I10  1  0.36005  0.69655  0.54478  1
 I  I11  1  0.63995  0.19655  0.95522  1
 I  I12  1  0.16325  0.99596  0.25568  1
 Te  Te1  1  0.00000  0.50000  0.50000  1
 Te  Te2  1  0.00000  0.00000  0.00000  1
 Tl  Tl1  1  0.28784  0.59169  0.25420  1
 Tl  Tl2  1  0.71216  0.09169  0.24580  1
 Tl  Tl3  1  0.71216  0.40831  0.74580  1
 Tl  Tl4  1  0.28784  0.90831  0.75420  1
