CIF file written using JARVIS-Tools package.
data_SiS2
_symmetry_space_group_name_H-M  'Ibam'
_cell_length_a       5.59409
_cell_length_b       5.47108
_cell_length_c       6.19092
_cell_angle_alpha    116.223
_cell_angle_beta     116.859
_cell_angle_gamma    90

_symmetry_Int_Tables_number  72
_chemical_formula_structural  SiS2
_chemical_formula_sum  Si2S4
_cell_volume  146.84620830994962
_cell_formula_units_Z  2
loop_
  _symmetry_equiv_pos_site_id
 _symmetry_equiv_pos_as_xyz
 1  'x, y, z'
loop_
 _atom_site_type_symbol
 _atom_site_label
 _atom_site_symmetry_multiplicity
 _atom_site_fract_x
 _atom_site_fract_y
 _atom_site_fract_z
 _atom_site_fract_occupancy
 S  S1  1  0.88145  0.66705  0.76290  1
 S  S2  1  0.11855  0.33295  0.23710  1
 S  S3  1  0.61855  0.90415  0.23710  1
 S  S4  1  0.38145  0.09585  0.76290  1
 Si  Si1  1  0.75000  -0.00000  -0.00000  1
 Si  Si2  1  0.25000  -0.00000  -0.00000  1
