CIF file written using JARVIS-Tools package.
data_Ag5PS4Cl2
_symmetry_space_group_name_H-M  'Amm2'
_cell_length_a       6.23109
_cell_length_b       6.42831
_cell_length_c       7.41623
_cell_angle_alpha    90
_cell_angle_beta     90
_cell_angle_gamma    118.99

_symmetry_Int_Tables_number  38
_chemical_formula_structural  Ag5PS4Cl2
_chemical_formula_sum  Ag5PS4Cl2
_cell_volume  259.8393598720732
_cell_formula_units_Z  1
loop_
  _symmetry_equiv_pos_site_id
 _symmetry_equiv_pos_as_xyz
 1  'x, y, z'
loop_
 _atom_site_type_symbol
 _atom_site_label
 _atom_site_symmetry_multiplicity
 _atom_site_fract_x
 _atom_site_fract_y
 _atom_site_fract_z
 _atom_site_fract_occupancy
 Ag  Ag1  1  0.93967  0.61118  0.21865  1
 Ag  Ag2  1  0.59056  0.00000  0.50000  1
 Ag  Ag3  1  0.93967  0.61118  0.78135  1
 Ag  Ag4  1  0.32849  0.38882  0.78135  1
 Ag  Ag5  1  0.32849  0.38882  0.21865  1
 Cl  Cl1  1  0.05579  0.33663  0.50000  1
 Cl  Cl2  1  0.71917  0.66337  0.50000  1
 P  P1  1  0.53291  0.00000  0.00000  1
 S  S1  1  0.34071  0.00000  0.23046  1
 S  S2  1  0.34071  0.00000  0.76954  1
 S  S3  1  0.59254  0.70743  0.00000  1
 S  S4  1  0.88511  0.29257  0.00000  1
