CIF file written using JARVIS-Tools package.
data_CaCrF5
_symmetry_space_group_name_H-M  'P-1'
_cell_length_a       5.55276
_cell_length_b       5.55488
_cell_length_c       7.56068
_cell_angle_alpha    70.0392
_cell_angle_beta     70.0525
_cell_angle_gamma    71.5552

_symmetry_Int_Tables_number  2
_chemical_formula_structural  CaCrF5
_chemical_formula_sum  Ca2Cr2F0
_cell_volume  200.7036159621587
_cell_formula_units_Z  2
loop_
  _symmetry_equiv_pos_site_id
 _symmetry_equiv_pos_as_xyz
 1  'x, y, z'
loop_
 _atom_site_type_symbol
 _atom_site_label
 _atom_site_symmetry_multiplicity
 _atom_site_fract_x
 _atom_site_fract_y
 _atom_site_fract_z
 _atom_site_fract_occupancy
 Ca  Ca1  1  0.45546  0.54352  0.24979  1
 Ca  Ca2  1  0.54593  0.45317  0.74990  1
 Cr  Cr1  1  0.00070  0.99834  -0.00016  1
 Cr  Cr2  1  0.00069  0.99835  0.49984  1
 F  F1  1  0.92408  0.07679  0.74936  1
 F  F2  1  0.07731  0.91988  0.25033  1
 F  F3  1  0.79756  0.74189  0.62048  1
 F  F4  1  0.25650  0.20234  0.88097  1
 F  F5  1  0.27896  0.69034  0.97096  1
 F  F6  1  0.30976  0.72102  0.52812  1
 F  F7  1  0.72244  0.30633  0.02875  1
 F  F8  1  0.69162  0.27569  0.47156  1
 F  F9  1  0.74489  0.79436  0.11869  1
 F  F10  1  0.20379  0.25482  0.37920  1
