CIF file written using JARVIS-Tools package.
data_Li3TiP2O8
_symmetry_space_group_name_H-M  'C2/m'
_cell_length_a       4.95484
_cell_length_b       4.95499
_cell_length_c       6.1245
_cell_angle_alpha    89.6802
_cell_angle_beta     89.6838
_cell_angle_gamma    67.1066

_symmetry_Int_Tables_number  12
_chemical_formula_structural  Li3TiP2O8
_chemical_formula_sum  Li3TiP2O8
_cell_volume  138.51636492599957
_cell_formula_units_Z  1
loop_
  _symmetry_equiv_pos_site_id
 _symmetry_equiv_pos_as_xyz
 1  'x, y, z'
loop_
 _atom_site_type_symbol
 _atom_site_label
 _atom_site_symmetry_multiplicity
 _atom_site_fract_x
 _atom_site_fract_y
 _atom_site_fract_z
 _atom_site_fract_occupancy
 Li  Li1  1  0.67147  0.16628  0.27415  1
 Li  Li2  1  0.00209  0.49711  0.50160  1
 Li  Li3  1  0.33278  0.82788  0.72909  1
 O  O1  1  0.24700  0.74186  0.44300  1
 O  O2  1  0.24775  0.74256  0.03072  1
 O  O3  1  0.30725  0.25659  0.76805  1
 O  O4  1  0.76173  0.80211  0.76805  1
 O  O5  1  0.24265  0.19192  0.23518  1
 O  O6  1  0.69713  0.73743  0.23521  1
 O  O7  1  0.75664  0.25145  0.97252  1
 O  O8  1  0.75736  0.25219  0.56024  1
 P  P1  1  0.65163  0.14648  0.76248  1
 P  P2  1  0.35274  0.84756  0.24077  1
 Ti  Ti1  1  0.00218  0.49702  0.00162  1
