CIF file written using JARVIS-Tools package.
data_Ca2Sn2O5
_symmetry_space_group_name_H-M  'Pbam'
_cell_length_a       4.14327
_cell_length_b       5.56456
_cell_length_c       10.5991
_cell_angle_alpha    90
_cell_angle_beta     90
_cell_angle_gamma    90

_symmetry_Int_Tables_number  55
_chemical_formula_structural  Ca2Sn2O5
_chemical_formula_sum  Ca4Sn4O0
_cell_volume  244.3687008678569
_cell_formula_units_Z  2
loop_
  _symmetry_equiv_pos_site_id
 _symmetry_equiv_pos_as_xyz
 1  'x, y, z'
loop_
 _atom_site_type_symbol
 _atom_site_label
 _atom_site_symmetry_multiplicity
 _atom_site_fract_x
 _atom_site_fract_y
 _atom_site_fract_z
 _atom_site_fract_occupancy
 Ca  Ca1  1  0.50000  0.14174  0.85302  1
 Ca  Ca2  1  0.50000  0.85826  0.14698  1
 Ca  Ca3  1  0.50000  0.64174  0.64698  1
 Ca  Ca4  1  0.50000  0.35826  0.35302  1
 O  O1  1  0.00000  0.00000  0.00000  1
 O  O2  1  0.00000  0.14606  0.27722  1
 O  O3  1  0.00000  0.64606  0.22278  1
 O  O4  1  0.00000  0.50000  0.50000  1
 O  O5  1  0.50000  0.28581  0.12467  1
 O  O6  1  0.50000  0.71419  0.87533  1
 O  O7  1  0.50000  0.21419  0.62467  1
 O  O8  1  0.00000  0.35394  0.77722  1
 O  O9  1  0.00000  0.85394  0.72278  1
 O  O10  1  0.50000  0.78581  0.37533  1
 Sn  Sn1  1  0.00000  0.66452  0.89598  1
 Sn  Sn2  1  0.00000  0.33548  0.10402  1
 Sn  Sn3  1  0.00000  0.83548  0.39598  1
 Sn  Sn4  1  0.00000  0.16452  0.60402  1
