CIF file written using JARVIS-Tools package.
data_Bi2Se3
_symmetry_space_group_name_H-M  'Pnma'
_cell_length_a       4.16702
_cell_length_b       11.627
_cell_length_c       11.9662
_cell_angle_alpha    90
_cell_angle_beta     90
_cell_angle_gamma    90

_symmetry_Int_Tables_number  62
_chemical_formula_structural  Bi2Se3
_chemical_formula_sum  Bi8Se2
_cell_volume  579.7639157220959
_cell_formula_units_Z  4
loop_
  _symmetry_equiv_pos_site_id
 _symmetry_equiv_pos_as_xyz
 1  'x, y, z'
loop_
 _atom_site_type_symbol
 _atom_site_label
 _atom_site_symmetry_multiplicity
 _atom_site_fract_x
 _atom_site_fract_y
 _atom_site_fract_z
 _atom_site_fract_occupancy
 Bi  Bi1  1  0.25000  0.96145  0.84255  1
 Bi  Bi2  1  0.75000  0.03855  0.15745  1
 Bi  Bi3  1  0.75000  0.46145  0.65745  1
 Bi  Bi4  1  0.25000  0.53855  0.34255  1
 Bi  Bi5  1  0.25000  0.17109  0.50979  1
 Bi  Bi6  1  0.75000  0.82891  0.49021  1
 Bi  Bi7  1  0.75000  0.67109  0.99021  1
 Bi  Bi8  1  0.25000  0.32891  0.00979  1
 Se  Se1  1  0.25000  0.30171  0.71772  1
 Se  Se2  1  0.75000  0.36628  0.44519  1
 Se  Se3  1  0.75000  0.80171  0.78228  1
 Se  Se4  1  0.25000  0.19829  0.21772  1
 Se  Se5  1  0.75000  0.69829  0.28228  1
 Se  Se6  1  0.25000  0.86628  0.05481  1
 Se  Se7  1  0.75000  0.44622  0.12562  1
 Se  Se8  1  0.25000  0.55378  0.87438  1
 Se  Se9  1  0.25000  0.94622  0.37438  1
 Se  Se10  1  0.75000  0.13372  0.94519  1
 Se  Se11  1  0.75000  0.05378  0.62562  1
 Se  Se12  1  0.25000  0.63372  0.55481  1
