CIF file written using JARVIS-Tools package.
data_CaPrMn2O6
_symmetry_space_group_name_H-M  'Pmn2_1'
_cell_length_a       5.40939
_cell_length_b       5.43434
_cell_length_c       7.63636
_cell_angle_alpha    90
_cell_angle_beta     90
_cell_angle_gamma    90

_symmetry_Int_Tables_number  31
_chemical_formula_structural  CaPrMn2O6
_chemical_formula_sum  Ca2Pr2Mn4O2
_cell_volume  224.48208168813295
_cell_formula_units_Z  2
loop_
  _symmetry_equiv_pos_site_id
 _symmetry_equiv_pos_as_xyz
 1  'x, y, z'
loop_
 _atom_site_type_symbol
 _atom_site_label
 _atom_site_symmetry_multiplicity
 _atom_site_fract_x
 _atom_site_fract_y
 _atom_site_fract_z
 _atom_site_fract_occupancy
 Ca  Ca1  1  0.49218  0.71088  0.00000  1
 Ca  Ca2  1  0.99218  0.28912  0.50000  1
 Mn  Mn1  1  0.00038  0.74909  0.75039  1
 Mn  Mn2  1  0.00038  0.74909  0.24961  1
 Mn  Mn3  1  0.50038  0.25091  0.25039  1
 Mn  Mn4  1  0.50038  0.25091  0.74961  1
 O  O1  1  0.06598  0.73625  0.50000  1
 O  O2  1  0.78480  0.03468  0.28910  1
 O  O3  1  0.21904  0.46862  0.21514  1
 O  O4  1  0.28480  0.96532  0.21090  1
 O  O5  1  0.21904  0.46862  0.78486  1
 O  O6  1  0.42657  0.23938  0.50000  1
 O  O7  1  0.71904  0.53138  0.28486  1
 O  O8  1  0.71904  0.53138  0.71514  1
 O  O9  1  0.28480  0.96532  0.78910  1
 O  O10  1  0.78480  0.03468  0.71090  1
 O  O11  1  0.56598  0.26375  0.00000  1
 O  O12  1  0.92657  0.76062  0.00000  1
 Pr  Pr1  1  0.50683  0.78292  0.50000  1
 Pr  Pr2  1  0.00683  0.21708  0.00000  1
