CIF file written using JARVIS-Tools package.
data_K2NaGaAs2
_symmetry_space_group_name_H-M  'Ibam'
_cell_length_a       6.60499
_cell_length_b       6.69623
_cell_length_c       8.80502
_cell_angle_alpha    112.351
_cell_angle_beta     112.029
_cell_angle_gamma    89.9977

_symmetry_Int_Tables_number  72
_chemical_formula_structural  K2NaGaAs2
_chemical_formula_sum  K4Na2Ga2As4
_cell_volume  329.23067447753897
_cell_formula_units_Z  2
loop_
  _symmetry_equiv_pos_site_id
 _symmetry_equiv_pos_as_xyz
 1  'x, y, z'
loop_
 _atom_site_type_symbol
 _atom_site_label
 _atom_site_symmetry_multiplicity
 _atom_site_fract_x
 _atom_site_fract_y
 _atom_site_fract_z
 _atom_site_fract_occupancy
 As  As1  1  0.59696  0.80205  0.19391  1
 As  As2  1  0.40304  0.19795  0.80609  1
 As  As3  1  0.90305  0.60816  0.80610  1
 As  As4  1  0.09695  0.39184  0.19390  1
 Ga  Ga1  1  0.25000  0.50000  -0.00000  1
 Ga  Ga2  1  0.75000  0.50000  0.00000  1
 K  K1  1  0.32686  0.58639  0.65372  1
 K  K2  1  0.82688  0.06735  0.65374  1
 K  K3  1  0.17312  0.93265  0.34626  1
 K  K4  1  0.67314  0.41361  0.34628  1
 Na  Na1  1  0.74999  0.00000  -0.00000  1
 Na  Na2  1  0.25001  -0.00000  0.00000  1
