CIF file written using JARVIS-Tools package.
data_LuTlO3
_symmetry_space_group_name_H-M  'Pnma'
_cell_length_a       5.69258
_cell_length_b       5.79876
_cell_length_c       8.35071
_cell_angle_alpha    90
_cell_angle_beta     90
_cell_angle_gamma    90

_symmetry_Int_Tables_number  62
_chemical_formula_structural  LuTlO3
_chemical_formula_sum  Lu4Tl4O2
_cell_volume  275.65639433196685
_cell_formula_units_Z  4
loop_
  _symmetry_equiv_pos_site_id
 _symmetry_equiv_pos_as_xyz
 1  'x, y, z'
loop_
 _atom_site_type_symbol
 _atom_site_label
 _atom_site_symmetry_multiplicity
 _atom_site_fract_x
 _atom_site_fract_y
 _atom_site_fract_z
 _atom_site_fract_occupancy
 Lu  Lu1  1  0.50000  0.00000  0.00000  1
 Lu  Lu2  1  0.50000  0.00000  0.50000  1
 Lu  Lu3  1  0.00000  0.50000  0.00000  1
 Lu  Lu4  1  0.00000  0.50000  0.50000  1
 O  O1  1  0.62311  0.08517  0.75000  1
 O  O2  1  0.82493  0.82072  0.43084  1
 O  O3  1  0.17507  0.17928  0.93084  1
 O  O4  1  0.67507  0.32072  0.43084  1
 O  O5  1  0.17507  0.17928  0.56916  1
 O  O6  1  0.12311  0.41483  0.25000  1
 O  O7  1  0.87689  0.58517  0.75000  1
 O  O8  1  0.32493  0.67928  0.93084  1
 O  O9  1  0.67507  0.32072  0.06916  1
 O  O10  1  0.82493  0.82072  0.06916  1
 O  O11  1  0.32493  0.67928  0.56916  1
 O  O12  1  0.37689  0.91483  0.25000  1
 Tl  Tl1  1  0.01225  0.95301  0.75000  1
 Tl  Tl2  1  0.51225  0.54699  0.25000  1
 Tl  Tl3  1  0.48775  0.45301  0.75000  1
 Tl  Tl4  1  0.98775  0.04699  0.25000  1
