CIF file written using JARVIS-Tools package.
data_CrO2
_symmetry_space_group_name_H-M  'R-3m'
_cell_length_a       5.14605
_cell_length_b       5.14606
_cell_length_c       5.14606
_cell_angle_alpha    31.1863
_cell_angle_beta     31.1863
_cell_angle_gamma    31.1864

_symmetry_Int_Tables_number  166
_chemical_formula_structural  CrO2
_chemical_formula_sum  CrO2
_cell_volume  32.42572136196989
_cell_formula_units_Z  1
loop_
  _symmetry_equiv_pos_site_id
 _symmetry_equiv_pos_as_xyz
 1  'x, y, z'
loop_
 _atom_site_type_symbol
 _atom_site_label
 _atom_site_symmetry_multiplicity
 _atom_site_fract_x
 _atom_site_fract_y
 _atom_site_fract_z
 _atom_site_fract_occupancy
 Cr  Cr1  1  0.00000  0.00000  0.00000  1
 O  O1  1  0.59530  0.59530  0.59530  1
 O  O2  1  0.40470  0.40470  0.40470  1
