CIF file written using JARVIS-Tools package.
data_SmCuSe2
_symmetry_space_group_name_H-M  'P2_1/c'
_cell_length_a       6.66576
_cell_length_b       7.4277
_cell_length_c       7.16433
_cell_angle_alpha    90
_cell_angle_beta     96.4553
_cell_angle_gamma    90

_symmetry_Int_Tables_number  14
_chemical_formula_structural  SmCuSe2
_chemical_formula_sum  Sm4Cu4Se8
_cell_volume  352.4659654855537
_cell_formula_units_Z  4
loop_
  _symmetry_equiv_pos_site_id
 _symmetry_equiv_pos_as_xyz
 1  'x, y, z'
loop_
 _atom_site_type_symbol
 _atom_site_label
 _atom_site_symmetry_multiplicity
 _atom_site_fract_x
 _atom_site_fract_y
 _atom_site_fract_z
 _atom_site_fract_occupancy
 Cu  Cu1  1  0.93018  0.83978  0.45528  1
 Cu  Cu2  1  0.06982  0.16022  0.54472  1
 Cu  Cu3  1  0.93018  0.66022  0.95528  1
 Cu  Cu4  1  0.06982  0.33978  0.04472  1
 Se  Se1  1  0.57661  0.72419  0.99870  1
 Se  Se2  1  0.57661  0.77581  0.49870  1
 Se  Se3  1  0.42339  0.22419  0.50130  1
 Se  Se4  1  0.42339  0.27581  0.00130  1
 Se  Se5  1  0.10099  0.61058  0.28252  1
 Se  Se6  1  0.89901  0.11058  0.21748  1
 Se  Se7  1  0.89901  0.38942  0.71748  1
 Se  Se8  1  0.10099  0.88942  0.78252  1
 Sm  Sm1  1  0.30603  0.54403  0.70063  1
 Sm  Sm2  1  0.69397  0.04403  0.79937  1
 Sm  Sm3  1  0.69397  0.45597  0.29937  1
 Sm  Sm4  1  0.30603  0.95597  0.20063  1
