CIF file written using JARVIS-Tools package.
data_CaSnB2O6
_symmetry_space_group_name_H-M  'R-3'
_cell_length_a       6.07066
_cell_length_b       6.07066
_cell_length_c       6.07066
_cell_angle_alpha    47.7165
_cell_angle_beta     47.7165
_cell_angle_gamma    47.7165

_symmetry_Int_Tables_number  148
_chemical_formula_structural  CaSnB2O6
_chemical_formula_sum  CaSnB2O6
_cell_volume  112.11101311966927
_cell_formula_units_Z  1
loop_
  _symmetry_equiv_pos_site_id
 _symmetry_equiv_pos_as_xyz
 1  'x, y, z'
loop_
 _atom_site_type_symbol
 _atom_site_label
 _atom_site_symmetry_multiplicity
 _atom_site_fract_x
 _atom_site_fract_y
 _atom_site_fract_z
 _atom_site_fract_occupancy
 B  B1  1  0.75981  0.75981  0.75981  1
 B  B2  1  0.24019  0.24019  0.24019  1
 Ca  Ca1  1  0.00000  0.00000  0.00000  1
 O  O1  1  0.73046  0.49023  0.05178  1
 O  O2  1  0.05178  0.73046  0.49023  1
 O  O3  1  0.50977  0.94822  0.26954  1
 O  O4  1  0.26954  0.50977  0.94822  1
 O  O5  1  0.94822  0.26954  0.50977  1
 O  O6  1  0.49023  0.05178  0.73046  1
 Sn  Sn1  1  0.50000  0.50000  0.50000  1
