CIF file written using JARVIS-Tools package.
data_Tl2O
_symmetry_space_group_name_H-M  'R-3m'
_cell_length_a       3.58703
_cell_length_b       3.58703
_cell_length_c       12.9529
_cell_angle_alpha    82.073
_cell_angle_beta     82.073
_cell_angle_gamma    59.9931

_symmetry_Int_Tables_number  166
_chemical_formula_structural  Tl2O
_chemical_formula_sum  Tl4O2
_cell_volume  142.48181193525525
_cell_formula_units_Z  2
loop_
  _symmetry_equiv_pos_site_id
 _symmetry_equiv_pos_as_xyz
 1  'x, y, z'
loop_
 _atom_site_type_symbol
 _atom_site_label
 _atom_site_symmetry_multiplicity
 _atom_site_fract_x
 _atom_site_fract_y
 _atom_site_fract_z
 _atom_site_fract_occupancy
 O  O1  1  0.58316  0.58316  0.24991  1
 O  O2  1  0.41684  0.41684  0.75009  1
 Tl  Tl1  1  0.12266  0.12266  0.63203  1
 Tl  Tl2  1  0.28923  0.28923  0.13127  1
 Tl  Tl3  1  0.87734  0.87734  0.36797  1
 Tl  Tl4  1  0.71077  0.71077  0.86872  1
