CIF file written using JARVIS-Tools package.
data_CaSm2S4
_symmetry_space_group_name_H-M  'I-42d'
_cell_length_a       7.33911
_cell_length_b       7.3391
_cell_length_c       7.33911
_cell_angle_alpha    109.598
_cell_angle_beta     109.598
_cell_angle_gamma    109.218

_symmetry_Int_Tables_number  122
_chemical_formula_structural  CaSm2S4
_chemical_formula_sum  Ca2Sm4S8
_cell_volume  304.29918540269756
_cell_formula_units_Z  2
loop_
  _symmetry_equiv_pos_site_id
 _symmetry_equiv_pos_as_xyz
 1  'x, y, z'
loop_
 _atom_site_type_symbol
 _atom_site_label
 _atom_site_symmetry_multiplicity
 _atom_site_fract_x
 _atom_site_fract_y
 _atom_site_fract_z
 _atom_site_fract_occupancy
 Ca  Ca1  1  0.62500  0.37500  0.25000  1
 Ca  Ca2  1  0.87500  0.12500  0.75000  1
 S  S1  1  0.00392  0.85910  0.50174  1
 S  S2  1  0.00218  0.35736  0.49826  1
 S  S3  1  0.49608  0.99782  0.85518  1
 S  S4  1  0.14090  0.14264  0.14482  1
 S  S5  1  0.35910  0.50392  0.00174  1
 S  S6  1  0.64264  0.64090  0.64482  1
 S  S7  1  0.49782  0.99608  0.35518  1
 S  S8  1  0.85736  0.50218  0.99826  1
 Sm  Sm1  1  0.12162  0.75000  0.87162  1
 Sm  Sm2  1  0.25000  0.62162  0.37162  1
 Sm  Sm3  1  0.37838  0.25000  0.62838  1
 Sm  Sm4  1  0.75000  0.87838  0.12838  1
