CIF file written using JARVIS-Tools package.
data_TaNO
_symmetry_space_group_name_H-M  'C2/m'
_cell_length_a       3.88371
_cell_length_b       6.77449
_cell_length_c       6.85968
_cell_angle_alpha    106.938
_cell_angle_beta     106.444
_cell_angle_gamma    90.0001

_symmetry_Int_Tables_number  12
_chemical_formula_structural  TaNO
_chemical_formula_sum  Ta4N4O4
_cell_volume  164.9178679613859
_cell_formula_units_Z  4
loop_
  _symmetry_equiv_pos_site_id
 _symmetry_equiv_pos_as_xyz
 1  'x, y, z'
loop_
 _atom_site_type_symbol
 _atom_site_label
 _atom_site_symmetry_multiplicity
 _atom_site_fract_x
 _atom_site_fract_y
 _atom_site_fract_z
 _atom_site_fract_occupancy
 N  N1  1  0.75867  0.14731  0.51733  1
 N  N2  1  0.24133  0.85269  0.48267  1
 N  N3  1  0.44593  0.13715  0.89186  1
 N  N4  1  0.55407  0.86285  0.10814  1
 O  O1  1  0.64055  0.50668  0.28109  1
 O  O2  1  0.35945  0.49332  0.71891  1
 O  O3  1  0.86537  0.79034  0.73073  1
 O  O4  1  0.13463  0.20966  0.26927  1
 Ta  Ta1  1  0.60242  0.20805  0.20484  1
 Ta  Ta2  1  0.39758  0.79195  0.79516  1
 Ta  Ta3  1  0.31157  0.19456  0.62314  1
 Ta  Ta4  1  0.68843  0.80544  0.37686  1
