CIF file written using JARVIS-Tools package.
data_Na2RuO3
_symmetry_space_group_name_H-M  'C2/c'
_cell_length_a       5.44224
_cell_length_b       5.44223
_cell_length_c       10.7462
_cell_angle_alpha    94.9283
_cell_angle_beta     94.9283
_cell_angle_gamma    120.004

_symmetry_Int_Tables_number  15
_chemical_formula_structural  Na2RuO3
_chemical_formula_sum  Na8Ru4O2
_cell_volume  271.52906752762976
_cell_formula_units_Z  4
loop_
  _symmetry_equiv_pos_site_id
 _symmetry_equiv_pos_as_xyz
 1  'x, y, z'
loop_
 _atom_site_type_symbol
 _atom_site_label
 _atom_site_symmetry_multiplicity
 _atom_site_fract_x
 _atom_site_fract_y
 _atom_site_fract_z
 _atom_site_fract_occupancy
 Na  Na1  1  0.91495  0.08505  0.25000  1
 Na  Na2  1  0.84128  0.68231  -0.00004  1
 Na  Na3  1  0.68231  0.84128  0.49996  1
 Na  Na4  1  0.31769  0.15872  0.50004  1
 Na  Na5  1  -0.00000  0.50000  0.50000  1
 Na  Na6  1  0.15872  0.31769  0.00004  1
 Na  Na7  1  0.08505  0.91495  0.75000  1
 Na  Na8  1  0.50000  0.00000  0.00000  1
 O  O1  1  0.87993  0.41780  0.14688  1
 O  O2  1  0.12007  0.58220  0.85312  1
 O  O3  1  0.95070  0.75324  0.35386  1
 O  O4  1  0.41780  0.87993  0.64688  1
 O  O5  1  0.68177  0.51217  0.64710  1
 O  O6  1  0.24676  0.04930  0.14614  1
 O  O7  1  0.51217  0.68177  0.14710  1
 O  O8  1  0.04930  0.24676  0.64614  1
 O  O9  1  0.58220  0.12007  0.35312  1
 O  O10  1  0.31823  0.48783  0.35290  1
 O  O11  1  0.75324  0.95070  0.85386  1
 O  O12  1  0.48783  0.31823  0.85290  1
 Ru  Ru1  1  0.41801  0.58199  0.75000  1
 Ru  Ru2  1  0.75107  0.24893  0.75000  1
 Ru  Ru3  1  0.58199  0.41801  0.25000  1
 Ru  Ru4  1  0.24893  0.75107  0.25000  1
