CIF file written using JARVIS-Tools package.
data_Li5ReO6
_symmetry_space_group_name_H-M  'C2/m'
_cell_length_a       5.02433
_cell_length_b       5.04485
_cell_length_c       5.04485
_cell_angle_alpha    119.86
_cell_angle_beta     99.8218
_cell_angle_gamma    99.8217

_symmetry_Int_Tables_number  12
_chemical_formula_structural  Li5ReO6
_chemical_formula_sum  Li5ReO6
_cell_volume  104.27161168296851
_cell_formula_units_Z  1
loop_
  _symmetry_equiv_pos_site_id
 _symmetry_equiv_pos_as_xyz
 1  'x, y, z'
loop_
 _atom_site_type_symbol
 _atom_site_label
 _atom_site_symmetry_multiplicity
 _atom_site_fract_x
 _atom_site_fract_y
 _atom_site_fract_z
 _atom_site_fract_occupancy
 Li  Li1  1  0.00000  0.33370  0.66630  1
 Li  Li2  1  -0.00000  0.66630  0.33370  1
 Li  Li3  1  0.50000  0.50000  0.50000  1
 Li  Li4  1  0.50000  0.17819  0.82181  1
 Li  Li5  1  0.50000  0.82181  0.17819  1
 O  O1  1  0.23570  0.38694  0.07775  1
 O  O2  1  0.23570  0.07775  0.38694  1
 O  O3  1  0.76430  0.92225  0.61306  1
 O  O4  1  0.76430  0.61306  0.92225  1
 O  O5  1  0.77106  0.23088  0.23088  1
 O  O6  1  0.22894  0.76912  0.76912  1
 Re  Re1  1  0.00000  0.00000  0.00000  1
