CIF file written using JARVIS-Tools package.
data_CuSbS2
_symmetry_space_group_name_H-M  'Pnma'
_cell_length_a       3.82588
_cell_length_b       6.12543
_cell_length_c       14.5244
_cell_angle_alpha    90
_cell_angle_beta     90
_cell_angle_gamma    90

_symmetry_Int_Tables_number  62
_chemical_formula_structural  CuSbS2
_chemical_formula_sum  Cu4Sb4S8
_cell_volume  340.38170472660164
_cell_formula_units_Z  4
loop_
  _symmetry_equiv_pos_site_id
 _symmetry_equiv_pos_as_xyz
 1  'x, y, z'
loop_
 _atom_site_type_symbol
 _atom_site_label
 _atom_site_symmetry_multiplicity
 _atom_site_fract_x
 _atom_site_fract_y
 _atom_site_fract_z
 _atom_site_fract_occupancy
 Cu  Cu1  1  0.25000  0.25028  0.17333  1
 Cu  Cu2  1  0.25000  0.75028  0.32667  1
 Cu  Cu3  1  0.75000  0.74972  0.82667  1
 Cu  Cu4  1  0.75000  0.24972  0.67333  1
 S  S1  1  0.25000  0.12587  0.59752  1
 S  S2  1  0.75000  0.87413  0.40248  1
 S  S3  1  0.25000  0.62587  0.90248  1
 S  S4  1  0.75000  0.37413  0.09752  1
 S  S5  1  0.75000  0.62541  0.67698  1
 S  S6  1  0.25000  0.87459  0.17698  1
 S  S7  1  0.75000  0.12541  0.82302  1
 S  S8  1  0.25000  0.37459  0.32302  1
 Sb  Sb1  1  0.25000  0.72905  0.56221  1
 Sb  Sb2  1  0.75000  0.27095  0.43779  1
 Sb  Sb3  1  0.25000  0.22905  0.93779  1
 Sb  Sb4  1  0.75000  0.77095  0.06221  1
