CIF file written using JARVIS-Tools package.
data_Pb2O
_symmetry_space_group_name_H-M  'Pn-3m'
_cell_length_a       5.45488
_cell_length_b       5.45488
_cell_length_c       5.45488
_cell_angle_alpha    89.9977
_cell_angle_beta     89.9977
_cell_angle_gamma    90.0023

_symmetry_Int_Tables_number  224
_chemical_formula_structural  Pb2O
_chemical_formula_sum  Pb4O2
_cell_volume  162.3135851825079
_cell_formula_units_Z  2
loop_
  _symmetry_equiv_pos_site_id
 _symmetry_equiv_pos_as_xyz
 1  'x, y, z'
loop_
 _atom_site_type_symbol
 _atom_site_label
 _atom_site_symmetry_multiplicity
 _atom_site_fract_x
 _atom_site_fract_y
 _atom_site_fract_z
 _atom_site_fract_occupancy
 O  O1  1  0.00003  0.00003  0.99997  1
 O  O2  1  0.49997  0.49997  0.50003  1
 Pb  Pb1  1  0.75000  0.75000  0.25000  1
 Pb  Pb2  1  0.75000  0.25000  0.75000  1
 Pb  Pb3  1  0.25000  0.75000  0.75000  1
 Pb  Pb4  1  0.25000  0.25000  0.25000  1
