CIF file written using JARVIS-Tools package.
data_YFe2O4
_symmetry_space_group_name_H-M  'R-3m'
_cell_length_a       6.21818
_cell_length_b       6.21818
_cell_length_c       6.21819
_cell_angle_alpha    59.9463
_cell_angle_beta     59.9463
_cell_angle_gamma    59.9464

_symmetry_Int_Tables_number  166
_chemical_formula_structural  YFe2O4
_chemical_formula_sum  Y2Fe4O8
_cell_volume  169.8036259743463
_cell_formula_units_Z  2
loop_
  _symmetry_equiv_pos_site_id
 _symmetry_equiv_pos_as_xyz
 1  'x, y, z'
loop_
 _atom_site_type_symbol
 _atom_site_label
 _atom_site_symmetry_multiplicity
 _atom_site_fract_x
 _atom_site_fract_y
 _atom_site_fract_z
 _atom_site_fract_occupancy
 Fe  Fe1  1  -0.00000  0.50000  -0.00000  1
 Fe  Fe2  1  0.00000  0.00000  0.00000  1
 Fe  Fe3  1  0.50000  0.00000  -0.00000  1
 Fe  Fe4  1  -0.00000  -0.00000  0.50000  1
 O  O1  1  0.20512  0.77423  0.77423  1
 O  O2  1  0.22577  0.22577  0.79488  1
 O  O3  1  0.22577  0.79488  0.22577  1
 O  O4  1  0.23515  0.23515  0.23515  1
 O  O5  1  0.77423  0.77423  0.20512  1
 O  O6  1  0.79488  0.22577  0.22577  1
 O  O7  1  0.77423  0.20512  0.77423  1
 O  O8  1  0.76485  0.76485  0.76485  1
 Y  Y1  1  0.62734  0.62734  0.62734  1
 Y  Y2  1  0.37266  0.37266  0.37266  1
