CIF file written using JARVIS-Tools package.
data_Fe12As5
_symmetry_space_group_name_H-M  'R32'
_cell_length_a       6.65824
_cell_length_b       6.65824
_cell_length_c       6.65823
_cell_angle_alpha    60.7805
_cell_angle_beta     60.7805
_cell_angle_gamma    60.7805

_symmetry_Int_Tables_number  155
_chemical_formula_structural  Fe12As5
_chemical_formula_sum  Fe2As5
_cell_volume  212.39395923366737
_cell_formula_units_Z  1
loop_
  _symmetry_equiv_pos_site_id
 _symmetry_equiv_pos_as_xyz
 1  'x, y, z'
loop_
 _atom_site_type_symbol
 _atom_site_label
 _atom_site_symmetry_multiplicity
 _atom_site_fract_x
 _atom_site_fract_y
 _atom_site_fract_z
 _atom_site_fract_occupancy
 As  As1  1  0.99814  0.99814  0.99814  1
 As  As2  1  0.85405  0.50564  0.20250  1
 As  As3  1  0.20250  0.85405  0.50564  1
 As  As4  1  0.70999  0.70999  0.70999  1
 As  As5  1  0.50564  0.20250  0.85405  1
 Fe  Fe1  1  0.23814  0.23814  0.23814  1
 Fe  Fe2  1  0.58991  0.35404  0.11823  1
 Fe  Fe3  1  0.35404  0.11823  0.58991  1
 Fe  Fe4  1  0.11823  0.58991  0.35404  1
 Fe  Fe5  1  0.33851  0.63069  0.84995  1
 Fe  Fe6  1  0.46998  0.46998  0.46998  1
 Fe  Fe7  1  0.85407  0.85407  0.85407  1
 Fe  Fe8  1  0.84995  0.33851  0.63069  1
 Fe  Fe9  1  0.63069  0.84995  0.33851  1
 Fe  Fe10  1  0.85818  0.07743  0.36964  1
 Fe  Fe11  1  0.36964  0.85818  0.07743  1
 Fe  Fe12  1  0.07743  0.36964  0.85818  1
