CIF file written using JARVIS-Tools package.
data_BaN3Cl
_symmetry_space_group_name_H-M  'P2_1/m'
_cell_length_a       5.6375
_cell_length_b       4.50733
_cell_length_c       7.82749
_cell_angle_alpha    90
_cell_angle_beta     102.047
_cell_angle_gamma    90

_symmetry_Int_Tables_number  11
_chemical_formula_structural  BaN3Cl
_chemical_formula_sum  Ba2N6Cl2
_cell_volume  194.51664816319357
_cell_formula_units_Z  2
loop_
  _symmetry_equiv_pos_site_id
 _symmetry_equiv_pos_as_xyz
 1  'x, y, z'
loop_
 _atom_site_type_symbol
 _atom_site_label
 _atom_site_symmetry_multiplicity
 _atom_site_fract_x
 _atom_site_fract_y
 _atom_site_fract_z
 _atom_site_fract_occupancy
 Ba  Ba1  1  0.68119  0.25000  0.76271  1
 Ba  Ba2  1  0.31881  0.75000  0.23729  1
 Cl  Cl1  1  0.23599  0.25000  0.94507  1
 Cl  Cl2  1  0.76401  0.75000  0.05493  1
 N  N1  1  0.35871  0.75000  0.62180  1
 N  N2  1  0.05445  0.25000  0.35795  1
 N  N3  1  0.15117  0.75000  0.63284  1
 N  N4  1  0.94555  0.75000  0.64205  1
 N  N5  1  0.84883  0.25000  0.36716  1
 N  N6  1  0.64129  0.25000  0.37820  1
