CIF file written using JARVIS-Tools package.
data_SiH3I
_symmetry_space_group_name_H-M  'P2_1/c'
_cell_length_a       4.51354
_cell_length_b       8.33793
_cell_length_c       10.4888
_cell_angle_alpha    90
_cell_angle_beta     102.272
_cell_angle_gamma    90

_symmetry_Int_Tables_number  14
_chemical_formula_structural  SiH3I
_chemical_formula_sum  Si4H2I4
_cell_volume  385.71137523058275
_cell_formula_units_Z  4
loop_
  _symmetry_equiv_pos_site_id
 _symmetry_equiv_pos_as_xyz
 1  'x, y, z'
loop_
 _atom_site_type_symbol
 _atom_site_label
 _atom_site_symmetry_multiplicity
 _atom_site_fract_x
 _atom_site_fract_y
 _atom_site_fract_z
 _atom_site_fract_occupancy
 H  H1  1  0.58804  0.96214  0.62875  1
 H  H2  1  0.33374  0.83269  0.19677  1
 H  H3  1  0.77877  0.01376  0.22703  1
 H  H4  1  0.22123  0.51376  0.27297  1
 H  H5  1  0.22123  0.98624  0.77297  1
 H  H6  1  0.77877  0.48624  0.72703  1
 H  H7  1  0.41196  0.46214  0.87125  1
 H  H8  1  0.66626  0.33269  0.30323  1
 H  H9  1  0.58804  0.53786  0.12875  1
 H  H10  1  0.41196  0.03786  0.37125  1
 H  H11  1  0.33374  0.66731  0.69677  1
 H  H12  1  0.66626  0.16731  0.80323  1
 I  I1  1  0.13619  0.23046  0.05671  1
 I  I2  1  0.86381  0.73046  0.44329  1
 I  I3  1  0.86381  0.76954  0.94329  1
 I  I4  1  0.13619  0.26954  0.55671  1
 Si  Si1  1  0.55871  0.57130  0.79073  1
 Si  Si2  1  0.44129  0.07130  0.70927  1
 Si  Si3  1  0.44129  0.42870  0.20927  1
 Si  Si4  1  0.55871  0.92870  0.29073  1
