CIF file written using JARVIS-Tools package.
data_Zn3Co2O7
_symmetry_space_group_name_H-M  'Cmc2_1'
_cell_length_a       5.07628
_cell_length_b       5.02136
_cell_length_c       9.30523
_cell_angle_alpha    105.653
_cell_angle_beta     90
_cell_angle_gamma    90

_symmetry_Int_Tables_number  36
_chemical_formula_structural  Zn3Co2O7
_chemical_formula_sum  Zn6Co4O4
_cell_volume  228.39186773248485
_cell_formula_units_Z  2
loop_
  _symmetry_equiv_pos_site_id
 _symmetry_equiv_pos_as_xyz
 1  'x, y, z'
loop_
 _atom_site_type_symbol
 _atom_site_label
 _atom_site_symmetry_multiplicity
 _atom_site_fract_x
 _atom_site_fract_y
 _atom_site_fract_z
 _atom_site_fract_occupancy
 Co  Co1  1  0.75192  0.34829  0.20166  1
 Co  Co2  1  0.25192  0.65171  0.79834  1
 Co  Co3  1  0.25192  0.85337  0.20166  1
 Co  Co4  1  0.75192  0.14663  0.79834  1
 O  O1  1  0.81865  0.36968  0.00000  1
 O  O2  1  0.69417  0.93544  0.59772  1
 O  O3  1  0.93787  0.00740  0.15073  1
 O  O4  1  0.19417  0.66228  0.59772  1
 O  O5  1  0.69417  0.33772  0.40228  1
 O  O6  1  0.05453  0.30709  0.73673  1
 O  O7  1  0.19417  0.06456  0.40228  1
 O  O8  1  0.55453  0.42963  0.73673  1
 O  O9  1  0.05453  0.57037  0.26327  1
 O  O10  1  0.43787  0.99260  0.84927  1
 O  O11  1  0.43787  0.14333  0.15073  1
 O  O12  1  0.55453  0.69291  0.26327  1
 O  O13  1  0.31865  0.63032  -0.00000  1
 O  O14  1  0.93787  0.85667  0.84927  1
 Zn  Zn1  1  0.30967  0.04703  0.60516  1
 Zn  Zn2  1  0.80967  0.95297  0.39484  1
 Zn  Zn3  1  0.30967  0.44187  0.39484  1
 Zn  Zn4  1  0.80967  0.55813  0.60516  1
 Zn  Zn5  1  0.20505  0.25025  -0.00000  1
 Zn  Zn6  1  0.70505  0.74975  0.00000  1
