CIF file written using JARVIS-Tools package.
data_BaBePO4F
_symmetry_space_group_name_H-M  'Cc'
_cell_length_a       4.89615
_cell_length_b       4.89665
_cell_length_c       9.11482
_cell_angle_alpha    105.367
_cell_angle_beta     105.368
_cell_angle_gamma    89.965

_symmetry_Int_Tables_number  9
_chemical_formula_structural  BaBePO4F
_chemical_formula_sum  Ba2Be2P2O8F2
_cell_volume  202.6087805624833
_cell_formula_units_Z  2
loop_
  _symmetry_equiv_pos_site_id
 _symmetry_equiv_pos_as_xyz
 1  'x, y, z'
loop_
 _atom_site_type_symbol
 _atom_site_label
 _atom_site_symmetry_multiplicity
 _atom_site_fract_x
 _atom_site_fract_y
 _atom_site_fract_z
 _atom_site_fract_occupancy
 Ba  Ba1  1  0.00354  0.00306  0.00042  1
 Ba  Ba2  1  0.75265  0.25404  0.50048  1
 Be  Be1  1  0.16709  0.65271  0.33609  1
 Be  Be2  1  0.40235  0.41770  0.83608  1
 F  F1  1  0.17550  0.33465  0.34744  1
 F  F2  1  0.08421  0.42599  0.84735  1
 O  O1  1  0.83829  0.73632  0.29870  1
 O  O2  1  0.60474  0.60464  0.00554  1
 O  O3  1  0.99634  0.83431  0.65931  1
 O  O4  1  0.30378  0.68422  0.19684  1
 O  O5  1  0.35413  0.85522  0.50549  1
 O  O6  1  0.58373  0.24668  0.15923  1
 O  O7  1  0.43402  0.55454  0.69692  1
 O  O8  1  0.48603  0.08898  0.79861  1
 P  P1  1  0.58292  0.56134  0.16539  1
 P  P2  1  0.31099  0.83354  0.66539  1
