CIF file written using JARVIS-Tools package.
data_YClO
_symmetry_space_group_name_H-M  'R-3m'
_cell_length_a       9.56296
_cell_length_b       9.56296
_cell_length_c       9.56295
_cell_angle_alpha    22.9245
_cell_angle_beta     22.9246
_cell_angle_gamma    22.9246

_symmetry_Int_Tables_number  166
_chemical_formula_structural  YClO
_chemical_formula_sum  Y2Cl2O2
_cell_volume  116.4443727099891
_cell_formula_units_Z  2
loop_
  _symmetry_equiv_pos_site_id
 _symmetry_equiv_pos_as_xyz
 1  'x, y, z'
loop_
 _atom_site_type_symbol
 _atom_site_label
 _atom_site_symmetry_multiplicity
 _atom_site_fract_x
 _atom_site_fract_y
 _atom_site_fract_z
 _atom_site_fract_occupancy
 Cl  Cl1  1  0.88657  0.88657  0.88657  1
 Cl  Cl2  1  0.11343  0.11343  0.11343  1
 O  O1  1  0.36383  0.36383  0.36383  1
 O  O2  1  0.63617  0.63617  0.63617  1
 Y  Y1  1  0.71809  0.71809  0.71809  1
 Y  Y2  1  0.28191  0.28191  0.28191  1
