CIF file written using JARVIS-Tools package.
data_HgBi2O6
_symmetry_space_group_name_H-M  'P4_2/mnm'
_cell_length_a       5.04058
_cell_length_b       5.04058
_cell_length_c       10.6103
_cell_angle_alpha    90
_cell_angle_beta     90
_cell_angle_gamma    90

_symmetry_Int_Tables_number  136
_chemical_formula_structural  HgBi2O6
_chemical_formula_sum  Hg2Bi4O2
_cell_volume  269.58116389714155
_cell_formula_units_Z  2
loop_
  _symmetry_equiv_pos_site_id
 _symmetry_equiv_pos_as_xyz
 1  'x, y, z'
loop_
 _atom_site_type_symbol
 _atom_site_label
 _atom_site_symmetry_multiplicity
 _atom_site_fract_x
 _atom_site_fract_y
 _atom_site_fract_z
 _atom_site_fract_occupancy
 Bi  Bi1  1  0.00000  0.00000  0.33265  1
 Bi  Bi2  1  0.00000  0.00000  0.66735  1
 Bi  Bi3  1  0.50000  0.50000  0.16735  1
 Bi  Bi4  1  0.50000  0.50000  0.83265  1
 Hg  Hg1  1  0.00000  0.00000  0.00000  1
 Hg  Hg2  1  0.50000  0.50000  0.50000  1
 O  O1  1  0.19766  0.80234  0.82542  1
 O  O2  1  0.19766  0.80234  0.17458  1
 O  O3  1  0.80234  0.19766  0.17458  1
 O  O4  1  0.31245  0.31245  0.00000  1
 O  O5  1  0.18755  0.81245  0.50000  1
 O  O6  1  0.69766  0.69766  0.67458  1
 O  O7  1  0.69766  0.69766  0.32542  1
 O  O8  1  0.30234  0.30234  0.32542  1
 O  O9  1  0.68755  0.68755  0.00000  1
 O  O10  1  0.81245  0.18755  0.50000  1
 O  O11  1  0.30234  0.30234  0.67458  1
 O  O12  1  0.80234  0.19766  0.82542  1
