CIF file written using JARVIS-Tools package.
data_MgCoSiO5
_symmetry_space_group_name_H-M  'P-1'
_cell_length_a       5.00794
_cell_length_b       5.3897
_cell_length_c       6.61196
_cell_angle_alpha    105.904
_cell_angle_beta     99.6099
_cell_angle_gamma    109.472

_symmetry_Int_Tables_number  2
_chemical_formula_structural  MgCoSiO5
_chemical_formula_sum  Mg2Co2Si2O0
_cell_volume  155.11327621692837
_cell_formula_units_Z  2
loop_
  _symmetry_equiv_pos_site_id
 _symmetry_equiv_pos_as_xyz
 1  'x, y, z'
loop_
 _atom_site_type_symbol
 _atom_site_label
 _atom_site_symmetry_multiplicity
 _atom_site_fract_x
 _atom_site_fract_y
 _atom_site_fract_z
 _atom_site_fract_occupancy
 Co  Co1  1  0.00425  0.49492  0.51455  1
 Co  Co2  1  0.00425  0.49492  0.01455  1
 Mg  Mg1  1  0.37027  0.21519  0.77206  1
 Mg  Mg2  1  0.63823  0.77465  0.25704  1
 O  O1  1  0.70263  0.63246  0.92399  1
 O  O2  1  0.99493  0.85181  0.66902  1
 O  O3  1  0.30587  0.35738  0.10512  1
 O  O4  1  0.01357  0.13803  0.36009  1
 O  O5  1  0.59279  0.28936  0.48785  1
 O  O6  1  0.30442  0.86523  0.13207  1
 O  O7  1  0.41571  0.70049  0.54127  1
 O  O8  1  0.70409  0.12462  0.89704  1
 O  O9  1  0.89998  0.55523  0.26634  1
 O  O10  1  0.10852  0.43461  0.76277  1
 Si  Si1  1  0.70354  0.81902  0.76087  1
 Si  Si2  1  0.30496  0.17082  0.26824  1
