CIF file written using JARVIS-Tools package.
data_AgBiO2
_symmetry_space_group_name_H-M  'P2_1/m'
_cell_length_a       3.59896
_cell_length_b       6.62725
_cell_length_c       6.68481
_cell_angle_alpha    114.629
_cell_angle_beta     90
_cell_angle_gamma    90

_symmetry_Int_Tables_number  11
_chemical_formula_structural  AgBiO2
_chemical_formula_sum  Ag2Bi2O4
_cell_volume  144.9355727088259
_cell_formula_units_Z  2
loop_
  _symmetry_equiv_pos_site_id
 _symmetry_equiv_pos_as_xyz
 1  'x, y, z'
loop_
 _atom_site_type_symbol
 _atom_site_label
 _atom_site_symmetry_multiplicity
 _atom_site_fract_x
 _atom_site_fract_y
 _atom_site_fract_z
 _atom_site_fract_occupancy
 Ag  Ag1  1  0.75000  0.97598  0.31654  1
 Ag  Ag2  1  0.25000  0.02402  0.68346  1
 Bi  Bi1  1  0.25000  0.44141  0.23774  1
 Bi  Bi2  1  0.75000  0.55859  0.76226  1
 O  O1  1  0.75000  0.63336  0.19132  1
 O  O2  1  0.25000  0.36664  0.80868  1
 O  O3  1  0.25000  0.68455  0.58672  1
 O  O4  1  0.75000  0.31545  0.41328  1
