CIF file written using JARVIS-Tools package.
data_CoO2
_symmetry_space_group_name_H-M  'R-3m'
_cell_length_a       2.82326
_cell_length_b       2.82307
_cell_length_c       9.17853
_cell_angle_alpha    89.9757
_cell_angle_beta     107.892
_cell_angle_gamma    119.999

_symmetry_Int_Tables_number  166
_chemical_formula_structural  CoO2
_chemical_formula_sum  Co2O4
_cell_volume  59.240086754391605
_cell_formula_units_Z  2
loop_
  _symmetry_equiv_pos_site_id
 _symmetry_equiv_pos_as_xyz
 1  'x, y, z'
loop_
 _atom_site_type_symbol
 _atom_site_label
 _atom_site_symmetry_multiplicity
 _atom_site_fract_x
 _atom_site_fract_y
 _atom_site_fract_z
 _atom_site_fract_occupancy
 Co  Co1  1  0.03690  0.99478  0.99411  1
 Co  Co2  1  0.03717  -0.00428  0.49414  1
 O  O1  1  0.22609  0.58952  0.88577  1
 O  O2  1  0.51456  0.73428  0.60237  1
 O  O3  1  0.84772  0.40005  0.10244  1
 O  O4  1  0.55977  0.25715  0.38590  1
