CIF file written using JARVIS-Tools package.
data_MgAg2O4
_symmetry_space_group_name_H-M  'I4_1/amd'
_cell_length_a       5.8839
_cell_length_b       5.884
_cell_length_c       6.92253
_cell_angle_alpha    115.142
_cell_angle_beta     115.144
_cell_angle_gamma    90.0025

_symmetry_Int_Tables_number  141
_chemical_formula_structural  MgAg2O4
_chemical_formula_sum  Mg2Ag4O8
_cell_volume  191.5714047765145
_cell_formula_units_Z  2
loop_
  _symmetry_equiv_pos_site_id
 _symmetry_equiv_pos_as_xyz
 1  'x, y, z'
loop_
 _atom_site_type_symbol
 _atom_site_label
 _atom_site_symmetry_multiplicity
 _atom_site_fract_x
 _atom_site_fract_y
 _atom_site_fract_z
 _atom_site_fract_occupancy
 Ag  Ag1  1  0.50000  -0.00000  0.50000  1
 Ag  Ag2  1  -0.00000  -0.00000  0.50000  1
 Ag  Ag3  1  0.50000  0.00000  -0.00000  1
 Ag  Ag4  1  0.50000  0.50000  -0.00000  1
 Mg  Mg1  1  0.12499  0.37502  0.25001  1
 Mg  Mg2  1  0.87500  0.62498  0.74999  1
 O  O1  1  0.25245  0.73484  0.96970  1
 O  O2  1  0.76512  0.78273  0.53027  1
 O  O3  1  0.76517  0.24755  0.53032  1
 O  O4  1  0.28275  0.26514  0.03029  1
 O  O5  1  0.23483  0.75245  0.46968  1
 O  O6  1  0.23488  0.21726  0.46973  1
 O  O7  1  0.71725  0.73487  0.96971  1
 O  O8  1  0.74755  0.26516  0.03030  1
