CIF file written using JARVIS-Tools package.
data_YVO3
_symmetry_space_group_name_H-M  'Pnma'
_cell_length_a       5.26807
_cell_length_b       5.63889
_cell_length_c       7.60845
_cell_angle_alpha    90
_cell_angle_beta     90
_cell_angle_gamma    90

_symmetry_Int_Tables_number  62
_chemical_formula_structural  YVO3
_chemical_formula_sum  Y4V4O2
_cell_volume  226.01710520204972
_cell_formula_units_Z  4
loop_
  _symmetry_equiv_pos_site_id
 _symmetry_equiv_pos_as_xyz
 1  'x, y, z'
loop_
 _atom_site_type_symbol
 _atom_site_label
 _atom_site_symmetry_multiplicity
 _atom_site_fract_x
 _atom_site_fract_y
 _atom_site_fract_z
 _atom_site_fract_occupancy
 O  O1  1  0.11208  0.45937  0.25000  1
 O  O2  1  0.69069  0.30360  0.44373  1
 O  O3  1  0.38792  0.95937  0.25000  1
 O  O4  1  0.80931  0.80360  0.05627  1
 O  O5  1  0.30931  0.69640  0.94373  1
 O  O6  1  0.19069  0.19640  0.55627  1
 O  O7  1  0.80931  0.80360  0.44373  1
 O  O8  1  0.19069  0.19640  0.94373  1
 O  O9  1  0.69069  0.30360  0.05627  1
 O  O10  1  0.88792  0.54063  0.75000  1
 O  O11  1  0.61208  0.04063  0.75000  1
 O  O12  1  0.30931  0.69640  0.55627  1
 V  V1  1  0.00000  0.50000  0.00000  1
 V  V2  1  0.50000  0.00000  0.00000  1
 V  V3  1  0.50000  0.00000  0.50000  1
 V  V4  1  0.00000  0.50000  0.50000  1
 Y  Y1  1  0.98038  0.07051  0.25000  1
 Y  Y2  1  0.48038  0.42949  0.75000  1
 Y  Y3  1  0.51962  0.57051  0.25000  1
 Y  Y4  1  0.01962  0.92949  0.75000  1
