CIF file written using JARVIS-Tools package.
data_Na3BO3
_symmetry_space_group_name_H-M  'P2_1/c'
_cell_length_a       5.69261
_cell_length_b       7.4579
_cell_length_c       8.02116
_cell_angle_alpha    90
_cell_angle_beta     92.6938
_cell_angle_gamma    90

_symmetry_Int_Tables_number  14
_chemical_formula_structural  Na3BO3
_chemical_formula_sum  Na2B4O2
_cell_volume  340.16088451286333
_cell_formula_units_Z  4
loop_
  _symmetry_equiv_pos_site_id
 _symmetry_equiv_pos_as_xyz
 1  'x, y, z'
loop_
 _atom_site_type_symbol
 _atom_site_label
 _atom_site_symmetry_multiplicity
 _atom_site_fract_x
 _atom_site_fract_y
 _atom_site_fract_z
 _atom_site_fract_occupancy
 B  B1  1  0.56648  0.83993  0.84638  1
 B  B2  1  0.43352  0.16007  0.15362  1
 B  B3  1  0.06648  0.66007  0.34638  1
 B  B4  1  0.93352  0.33993  0.65362  1
 Na  Na1  1  0.61616  0.65052  0.57038  1
 Na  Na2  1  0.88384  0.15052  0.92962  1
 Na  Na3  1  0.38384  0.34948  0.42962  1
 Na  Na4  1  0.11616  0.84948  0.07038  1
 Na  Na5  1  0.37607  0.22017  0.77629  1
 Na  Na6  1  0.74671  0.52605  0.95486  1
 Na  Na7  1  0.24671  0.97395  0.45486  1
 Na  Na8  1  0.25329  0.47395  0.04514  1
 Na  Na9  1  0.87607  0.27983  0.27629  1
 Na  Na10  1  0.62393  0.77983  0.22371  1
 Na  Na11  1  0.12393  0.72017  0.72371  1
 Na  Na12  1  0.75329  0.02605  0.54514  1
 O  O1  1  0.95347  0.58270  0.20610  1
 O  O2  1  0.54653  0.08270  0.29390  1
 O  O3  1  0.06178  0.23356  0.54700  1
 O  O4  1  0.43822  0.73356  0.95300  1
 O  O5  1  0.93822  0.76644  0.45300  1
 O  O6  1  0.81099  0.85322  0.87005  1
 O  O7  1  0.68901  0.35322  0.62995  1
 O  O8  1  0.31099  0.64678  0.37005  1
 O  O9  1  0.18901  0.14678  0.12995  1
 O  O10  1  0.45347  0.91730  0.70610  1
 O  O11  1  0.56178  0.26644  0.04700  1
 O  O12  1  0.04653  0.41730  0.79390  1
