CIF file written using JARVIS-Tools package.
data_Mo2WSe6
_symmetry_space_group_name_H-M  'P-6m2'
_cell_length_a       3.32701
_cell_length_b       3.32698
_cell_length_c       28.5793
_cell_angle_alpha    90
_cell_angle_beta     90
_cell_angle_gamma    120

_symmetry_Int_Tables_number  187
_chemical_formula_structural  Mo2WSe6
_chemical_formula_sum  Mo2WSe6
_cell_volume  273.9581982644105
_cell_formula_units_Z  1
loop_
  _symmetry_equiv_pos_site_id
 _symmetry_equiv_pos_as_xyz
 1  'x, y, z'
loop_
 _atom_site_type_symbol
 _atom_site_label
 _atom_site_symmetry_multiplicity
 _atom_site_fract_x
 _atom_site_fract_y
 _atom_site_fract_z
 _atom_site_fract_occupancy
 Mo  Mo1  1  0.33333  0.66666  0.11609  1
 Mo  Mo2  1  0.33333  0.66666  0.57788  1
 Se  Se1  1  0.33332  0.66665  0.40586  1
 Se  Se2  1  0.66665  0.33331  0.05759  1
 Se  Se3  1  0.66667  0.33333  0.51931  1
 Se  Se4  1  0.66667  0.33333  0.17465  1
 Se  Se5  1  0.66665  0.33331  0.63637  1
 Se  Se6  1  0.33332  0.66665  0.28810  1
 W  W1  1  0.66666  0.33332  0.34698  1
