CIF file written using JARVIS-Tools package.
data_CrAgSe2
_symmetry_space_group_name_H-M  'R3m'
_cell_length_a       8.47576
_cell_length_b       8.47575
_cell_length_c       8.47575
_cell_angle_alpha    22.0251
_cell_angle_beta     22.0251
_cell_angle_gamma    22.0251

_symmetry_Int_Tables_number  160
_chemical_formula_structural  CrAgSe2
_chemical_formula_sum  CrAgSe2
_cell_volume  75.07072548416546
_cell_formula_units_Z  1
loop_
  _symmetry_equiv_pos_site_id
 _symmetry_equiv_pos_as_xyz
 1  'x, y, z'
loop_
 _atom_site_type_symbol
 _atom_site_label
 _atom_site_symmetry_multiplicity
 _atom_site_fract_x
 _atom_site_fract_y
 _atom_site_fract_z
 _atom_site_fract_occupancy
 Ag  Ag1  1  0.24625  0.24625  0.24625  1
 Cr  Cr1  1  0.74322  0.74322  0.74322  1
 Se  Se1  1  0.13820  0.13820  0.13820  1
 Se  Se2  1  0.01232  0.01232  0.01232  1
