CIF file written using JARVIS-Tools package.
data_BaCaSn4O8
_symmetry_space_group_name_H-M  'P-31m'
_cell_length_a       6.10385
_cell_length_b       6.10385
_cell_length_c       7.03666
_cell_angle_alpha    90
_cell_angle_beta     90
_cell_angle_gamma    120

_symmetry_Int_Tables_number  162
_chemical_formula_structural  BaCaSn4O8
_chemical_formula_sum  BaCaSn4O8
_cell_volume  227.04179942443653
_cell_formula_units_Z  1
loop_
  _symmetry_equiv_pos_site_id
 _symmetry_equiv_pos_as_xyz
 1  'x, y, z'
loop_
 _atom_site_type_symbol
 _atom_site_label
 _atom_site_symmetry_multiplicity
 _atom_site_fract_x
 _atom_site_fract_y
 _atom_site_fract_z
 _atom_site_fract_occupancy
 Ba  Ba1  1  0.00000  0.00000  0.00000  1
 Ca  Ca1  1  0.00000  0.00000  0.50000  1
 O  O1  1  0.30407  0.30407  0.70707  1
 O  O2  1  0.69593  0.00000  0.70707  1
 O  O3  1  0.00000  0.69593  0.70707  1
 O  O4  1  0.69593  0.69593  0.29293  1
 O  O5  1  -0.00000  0.30407  0.29293  1
 O  O6  1  0.30407  -0.00000  0.29293  1
 O  O7  1  0.33333  0.66667  0.00000  1
 O  O8  1  0.66667  0.33333  0.00000  1
 Sn  Sn1  1  0.33333  0.66667  0.71330  1
 Sn  Sn2  1  0.66667  0.33333  0.71330  1
 Sn  Sn3  1  0.33333  0.66667  0.28670  1
 Sn  Sn4  1  0.66667  0.33333  0.28670  1
