CIF file written using JARVIS-Tools package.
data_SrHfO3
_symmetry_space_group_name_H-M  'P4/mbm'
_cell_length_a       5.75944
_cell_length_b       5.75944
_cell_length_c       4.16143
_cell_angle_alpha    90
_cell_angle_beta     90
_cell_angle_gamma    90

_symmetry_Int_Tables_number  127
_chemical_formula_structural  SrHfO3
_chemical_formula_sum  Sr2Hf2O6
_cell_volume  138.0393186541617
_cell_formula_units_Z  2
loop_
  _symmetry_equiv_pos_site_id
 _symmetry_equiv_pos_as_xyz
 1  'x, y, z'
loop_
 _atom_site_type_symbol
 _atom_site_label
 _atom_site_symmetry_multiplicity
 _atom_site_fract_x
 _atom_site_fract_y
 _atom_site_fract_z
 _atom_site_fract_occupancy
 Hf  Hf1  1  0.50000  0.50000  0.50000  1
 Hf  Hf2  1  0.00000  0.00000  0.50000  1
 O  O1  1  0.19880  0.69880  0.50000  1
 O  O2  1  0.30120  0.19880  0.50000  1
 O  O3  1  0.50000  0.50000  0.00000  1
 O  O4  1  0.00000  0.00000  0.00000  1
 O  O5  1  0.69880  0.80120  0.50000  1
 O  O6  1  0.80120  0.30120  0.50000  1
 Sr  Sr1  1  0.50000  0.00000  0.00000  1
 Sr  Sr2  1  0.00000  0.50000  0.00000  1
