CIF file written using JARVIS-Tools package.
data_Sr4CaCr2S2O6
_symmetry_space_group_name_H-M  'P-4m2'
_cell_length_a       3.91375
_cell_length_b       3.91375
_cell_length_c       16.5387
_cell_angle_alpha    90
_cell_angle_beta     90
_cell_angle_gamma    90

_symmetry_Int_Tables_number  115
_chemical_formula_structural  Sr4CaCr2S2O6
_chemical_formula_sum  Sr4CaCr2S2O6
_cell_volume  253.3310371891728
_cell_formula_units_Z  1
loop_
  _symmetry_equiv_pos_site_id
 _symmetry_equiv_pos_as_xyz
 1  'x, y, z'
loop_
 _atom_site_type_symbol
 _atom_site_label
 _atom_site_symmetry_multiplicity
 _atom_site_fract_x
 _atom_site_fract_y
 _atom_site_fract_z
 _atom_site_fract_occupancy
 Ca  Ca1  1  0.00000  0.00000  0.00000  1
 Cr  Cr1  1  0.50000  0.00000  0.31998  1
 Cr  Cr2  1  0.00000  0.50000  0.68002  1
 O  O1  1  0.50000  0.50000  0.30209  1
 O  O2  1  0.00000  0.00000  0.30191  1
 O  O3  1  0.00000  0.00000  0.69809  1
 O  O4  1  0.50000  0.50000  0.69791  1
 O  O5  1  0.50000  0.00000  0.43404  1
 O  O6  1  0.00000  0.50000  0.56596  1
 S  S1  1  0.50000  0.00000  0.11310  1
 S  S2  1  0.00000  0.50000  0.88690  1
 Sr  Sr1  1  0.00000  0.50000  0.20412  1
 Sr  Sr2  1  0.50000  0.00000  0.79588  1
 Sr  Sr3  1  0.00000  0.50000  0.41711  1
 Sr  Sr4  1  0.50000  0.00000  0.58289  1
