CIF file written using JARVIS-Tools package.
data_BaCa2I6
_symmetry_space_group_name_H-M  'P2_1/c'
_cell_length_a       7.18387
_cell_length_b       7.99871
_cell_length_c       14.6184
_cell_angle_alpha    90
_cell_angle_beta     113.77
_cell_angle_gamma    90

_symmetry_Int_Tables_number  14
_chemical_formula_structural  BaCa2I6
_chemical_formula_sum  Ba2Ca4I2
_cell_volume  768.7396188292051
_cell_formula_units_Z  2
loop_
  _symmetry_equiv_pos_site_id
 _symmetry_equiv_pos_as_xyz
 1  'x, y, z'
loop_
 _atom_site_type_symbol
 _atom_site_label
 _atom_site_symmetry_multiplicity
 _atom_site_fract_x
 _atom_site_fract_y
 _atom_site_fract_z
 _atom_site_fract_occupancy
 Ba  Ba1  1  0.00000  0.00000  0.00000  1
 Ba  Ba2  1  0.00000  0.50000  0.50000  1
 Ca  Ca1  1  0.66176  0.61733  0.74419  1
 Ca  Ca2  1  0.33824  0.11733  0.75581  1
 Ca  Ca3  1  0.66176  0.88267  0.24419  1
 Ca  Ca4  1  0.33824  0.38267  0.25581  1
 I  I1  1  0.70055  0.34394  0.90659  1
 I  I2  1  0.53642  0.81751  0.90056  1
 I  I3  1  0.46358  0.18249  0.09944  1
 I  I4  1  0.92223  0.94350  0.75180  1
 I  I5  1  0.07777  0.44350  0.74820  1
 I  I6  1  0.53642  0.68249  0.40056  1
 I  I7  1  0.70055  0.15606  0.40659  1
 I  I8  1  0.46358  0.31751  0.59944  1
 I  I9  1  0.07777  0.05650  0.24820  1
 I  I10  1  0.92223  0.55650  0.25180  1
 I  I11  1  0.29945  0.84394  0.59341  1
 I  I12  1  0.29945  0.65606  0.09341  1
