CIF file written using JARVIS-Tools package.
data_NbNO
_symmetry_space_group_name_H-M  'C2/m'
_cell_length_a       3.99887
_cell_length_b       6.69126
_cell_length_c       6.81813
_cell_angle_alpha    74.6031
_cell_angle_beta     90
_cell_angle_gamma    72.6137

_symmetry_Int_Tables_number  12
_chemical_formula_structural  NbNO
_chemical_formula_sum  Nb4N4O4
_cell_volume  167.22693455771622
_cell_formula_units_Z  4
loop_
  _symmetry_equiv_pos_site_id
 _symmetry_equiv_pos_as_xyz
 1  'x, y, z'
loop_
 _atom_site_type_symbol
 _atom_site_label
 _atom_site_symmetry_multiplicity
 _atom_site_fract_x
 _atom_site_fract_y
 _atom_site_fract_z
 _atom_site_fract_occupancy
 N  N1  1  0.63934  0.72133  0.73597  1
 N  N2  1  0.25769  0.48462  0.64163  1
 N  N3  1  0.74231  0.51538  0.35837  1
 N  N4  1  0.36066  0.27867  0.26403  1
 Nb  Nb1  1  0.10221  0.79559  0.71723  1
 Nb  Nb2  1  0.20846  0.58308  0.29504  1
 Nb  Nb3  1  0.79154  0.41692  0.70496  1
 Nb  Nb4  1  0.89779  0.20441  0.28277  1
 O  O1  1  0.05801  0.88398  0.37882  1
 O  O2  1  0.12342  0.75317  0.01266  1
 O  O3  1  0.87658  0.24683  0.98734  1
 O  O4  1  0.94199  0.11602  0.62118  1
