CIF file written using JARVIS-Tools package.
data_Mg2Sn2O5
_symmetry_space_group_name_H-M  'Pbam'
_cell_length_a       3.94462
_cell_length_b       5.56445
_cell_length_c       10.4742
_cell_angle_alpha    90
_cell_angle_beta     90
_cell_angle_gamma    90

_symmetry_Int_Tables_number  55
_chemical_formula_structural  Mg2Sn2O5
_chemical_formula_sum  Mg4Sn4O0
_cell_volume  229.90505184393854
_cell_formula_units_Z  2
loop_
  _symmetry_equiv_pos_site_id
 _symmetry_equiv_pos_as_xyz
 1  'x, y, z'
loop_
 _atom_site_type_symbol
 _atom_site_label
 _atom_site_symmetry_multiplicity
 _atom_site_fract_x
 _atom_site_fract_y
 _atom_site_fract_z
 _atom_site_fract_occupancy
 Mg  Mg1  1  0.50000  0.13513  0.89202  1
 Mg  Mg2  1  0.50000  0.86487  0.10798  1
 Mg  Mg3  1  0.50000  0.63513  0.60798  1
 Mg  Mg4  1  0.50000  0.36487  0.39202  1
 O  O1  1  0.00000  0.00000  0.00000  1
 O  O2  1  0.00000  0.20886  0.29697  1
 O  O3  1  0.00000  0.70886  0.20303  1
 O  O4  1  0.00000  0.50000  0.50000  1
 O  O5  1  0.50000  0.23335  0.09661  1
 O  O6  1  0.50000  0.76665  0.90339  1
 O  O7  1  0.50000  0.26665  0.59661  1
 O  O8  1  0.00000  0.29114  0.79697  1
 O  O9  1  0.00000  0.79114  0.70303  1
 O  O10  1  0.50000  0.73335  0.40339  1
 Sn  Sn1  1  0.00000  0.65616  0.88876  1
 Sn  Sn2  1  0.00000  0.34384  0.11124  1
 Sn  Sn3  1  0.00000  0.84384  0.38876  1
 Sn  Sn4  1  0.00000  0.15616  0.61124  1
