CIF file written using JARVIS-Tools package.
data_BaBiO3
_symmetry_space_group_name_H-M  'Pm-3m'
_cell_length_a       6.25086
_cell_length_b       6.25086
_cell_length_c       6.25085
_cell_angle_alpha    60
_cell_angle_beta     60
_cell_angle_gamma    60

_symmetry_Int_Tables_number  221
_chemical_formula_structural  BaBiO3
_chemical_formula_sum  Ba2Bi2O6
_cell_volume  172.70400173908436
_cell_formula_units_Z  2
loop_
  _symmetry_equiv_pos_site_id
 _symmetry_equiv_pos_as_xyz
 1  'x, y, z'
loop_
 _atom_site_type_symbol
 _atom_site_label
 _atom_site_symmetry_multiplicity
 _atom_site_fract_x
 _atom_site_fract_y
 _atom_site_fract_z
 _atom_site_fract_occupancy
 Ba  Ba1  1  0.25000  0.25000  0.25000  1
 Ba  Ba2  1  0.75000  0.75000  0.75000  1
 Bi  Bi1  1  0.00000  0.00000  0.00000  1
 Bi  Bi2  1  0.50000  0.50000  0.50000  1
 O  O1  1  0.25007  0.74993  0.74993  1
 O  O2  1  0.25007  0.74993  0.25007  1
 O  O3  1  0.74993  0.25007  0.74993  1
 O  O4  1  0.25007  0.25007  0.74993  1
 O  O5  1  0.74993  0.25007  0.25007  1
 O  O6  1  0.74993  0.74993  0.25007  1
