CIF file written using JARVIS-Tools package.
data_Na2DyMoPO8
_symmetry_space_group_name_H-M  'Ibca'
_cell_length_a       6.89782
_cell_length_b       11.391
_cell_length_c       11.391
_cell_angle_alpha    64.4781
_cell_angle_beta     72.3757
_cell_angle_gamma    72.3757

_symmetry_Int_Tables_number  73
_chemical_formula_structural  Na2DyMoPO8
_chemical_formula_sum  Na8Dy4Mo4P4O32
_cell_volume  754.1714503096754
_cell_formula_units_Z  4
loop_
  _symmetry_equiv_pos_site_id
 _symmetry_equiv_pos_as_xyz
 1  'x, y, z'
loop_
 _atom_site_type_symbol
 _atom_site_label
 _atom_site_symmetry_multiplicity
 _atom_site_fract_x
 _atom_site_fract_y
 _atom_site_fract_z
 _atom_site_fract_occupancy
 Dy  Dy1  1  0.75000  0.82043  0.67957  1
 Dy  Dy2  1  0.25000  0.17957  0.32043  1
 Dy  Dy3  1  0.25000  0.67957  0.82043  1
 Dy  Dy4  1  0.75000  0.32043  0.17957  1
 Mo  Mo1  1  0.32119  0.42881  0.42881  1
 Mo  Mo2  1  0.17881  0.07119  0.07119  1
 Mo  Mo3  1  0.67881  0.57119  0.57119  1
 Mo  Mo4  1  0.82119  0.92881  0.92881  1
 Na  Na1  1  0.83603  0.20577  0.60233  1
 Na  Na2  1  0.16397  0.79423  0.39767  1
 Na  Na3  1  0.64413  0.29423  0.89767  1
 Na  Na4  1  0.14413  0.39767  0.79423  1
 Na  Na5  1  0.85587  0.60233  0.20577  1
 Na  Na6  1  0.35587  0.70577  0.10233  1
 Na  Na7  1  0.33603  0.10233  0.70577  1
 Na  Na8  1  0.66397  0.89767  0.29423  1
 O  O1  1  0.56724  0.65441  0.86005  1
 O  O2  1  0.91830  0.15441  0.36005  1
 O  O3  1  0.73146  0.86179  0.10249  1
 O  O4  1  0.82957  0.92314  0.43930  1
 O  O5  1  0.58863  0.39314  0.35085  1
 O  O6  1  0.91137  0.14915  0.10686  1
 O  O7  1  0.69201  0.56070  0.07686  1
 O  O8  1  0.58170  0.13995  0.34559  1
 O  O9  1  0.30426  0.36179  0.60249  1
 O  O10  1  0.80426  0.10249  0.86179  1
 O  O11  1  0.30799  0.43930  0.92314  1
 O  O12  1  0.16739  0.35085  0.39314  1
 O  O13  1  0.67043  0.06070  0.57686  1
 O  O14  1  0.32957  0.93930  0.42314  1
 O  O15  1  0.08863  0.85085  0.89314  1
 O  O16  1  0.93276  0.63995  0.84559  1
 O  O17  1  0.69574  0.63821  0.39751  1
 O  O18  1  0.26854  0.13821  0.89751  1
 O  O19  1  0.08170  0.84559  0.63995  1
 O  O20  1  0.41830  0.86005  0.65441  1
 O  O21  1  0.66739  0.89314  0.85085  1
 O  O22  1  0.80799  0.42314  0.93930  1
 O  O23  1  0.17043  0.07686  0.56070  1
 O  O24  1  0.33261  0.10686  0.14915  1
 O  O25  1  0.23146  0.60249  0.36179  1
 O  O26  1  0.19574  0.89751  0.13821  1
 O  O27  1  0.19201  0.57686  0.06070  1
 O  O28  1  0.76854  0.39751  0.63821  1
 O  O29  1  0.06724  0.36005  0.15441  1
 O  O30  1  0.41137  0.60686  0.64915  1
 O  O31  1  0.43276  0.34559  0.13995  1
 O  O32  1  0.83261  0.64915  0.60686  1
 P  P1  1  0.75000  0.06776  0.43224  1
 P  P2  1  0.25000  0.93224  0.56776  1
 P  P3  1  0.25000  0.43224  0.06776  1
 P  P4  1  0.75000  0.56776  0.93224  1
