CIF file written using JARVIS-Tools package.
data_Ca2Sb2O5
_symmetry_space_group_name_H-M  'Pbam'
_cell_length_a       4.26372
_cell_length_b       6.4034
_cell_length_c       10.1688
_cell_angle_alpha    90
_cell_angle_beta     90
_cell_angle_gamma    90

_symmetry_Int_Tables_number  55
_chemical_formula_structural  Ca2Sb2O5
_chemical_formula_sum  Ca4Sb4O0
_cell_volume  277.6320422897128
_cell_formula_units_Z  2
loop_
  _symmetry_equiv_pos_site_id
 _symmetry_equiv_pos_as_xyz
 1  'x, y, z'
loop_
 _atom_site_type_symbol
 _atom_site_label
 _atom_site_symmetry_multiplicity
 _atom_site_fract_x
 _atom_site_fract_y
 _atom_site_fract_z
 _atom_site_fract_occupancy
 Ca  Ca1  1  0.50000  0.15482  0.86088  1
 Ca  Ca2  1  0.50000  0.84518  0.13912  1
 Ca  Ca3  1  0.50000  0.65482  0.63912  1
 Ca  Ca4  1  0.50000  0.34518  0.36088  1
 O  O1  1  0.00000  0.00000  0.00000  1
 O  O2  1  0.00000  0.18530  0.29071  1
 O  O3  1  0.00000  0.68530  0.20929  1
 O  O4  1  0.00000  0.50000  0.50000  1
 O  O5  1  0.50000  0.21383  0.11618  1
 O  O6  1  0.50000  0.78617  0.88382  1
 O  O7  1  0.50000  0.28617  0.61618  1
 O  O8  1  0.00000  0.31470  0.79071  1
 O  O9  1  0.00000  0.81470  0.70929  1
 O  O10  1  0.50000  0.71383  0.38382  1
 Sb  Sb1  1  0.00000  0.71634  0.89482  1
 Sb  Sb2  1  0.00000  0.28366  0.10518  1
 Sb  Sb3  1  0.00000  0.78366  0.39482  1
 Sb  Sb4  1  0.00000  0.21634  0.60518  1
