CIF file written using JARVIS-Tools package.
data_SrZrO3
_symmetry_space_group_name_H-M  'I4/mcm'
_cell_length_a       5.79388
_cell_length_b       5.79388
_cell_length_c       5.86838
_cell_angle_alpha    119.581
_cell_angle_beta     119.581
_cell_angle_gamma    90.0001

_symmetry_Int_Tables_number  140
_chemical_formula_structural  SrZrO3
_chemical_formula_sum  Sr2Zr2O6
_cell_volume  141.04354872987756
_cell_formula_units_Z  2
loop_
  _symmetry_equiv_pos_site_id
 _symmetry_equiv_pos_as_xyz
 1  'x, y, z'
loop_
 _atom_site_type_symbol
 _atom_site_label
 _atom_site_symmetry_multiplicity
 _atom_site_fract_x
 _atom_site_fract_y
 _atom_site_fract_z
 _atom_site_fract_occupancy
 O  O1  1  0.69090  0.19090  0.00000  1
 O  O2  1  0.80910  0.69090  0.00000  1
 O  O3  1  0.19090  0.30910  -0.00000  1
 O  O4  1  0.30910  0.80910  -0.00000  1
 O  O5  1  0.25000  0.25000  0.50000  1
 O  O6  1  0.75000  0.75000  0.50000  1
 Sr  Sr1  1  0.25000  0.75000  0.50000  1
 Sr  Sr2  1  0.75000  0.25000  0.50000  1
 Zr  Zr1  1  0.00000  0.00000  0.00000  1
 Zr  Zr2  1  0.50000  0.50000  0.00000  1
