CIF file written using JARVIS-Tools package.
data_ZnSb2O4
_symmetry_space_group_name_H-M  'Imma'
_cell_length_a       6.63162
_cell_length_b       6.63162
_cell_length_c       7.10366
_cell_angle_alpha    57.6161
_cell_angle_beta     57.6161
_cell_angle_gamma    55.6555

_symmetry_Int_Tables_number  74
_chemical_formula_structural  ZnSb2O4
_chemical_formula_sum  Zn2Sb4O8
_cell_volume  205.25701464601678
_cell_formula_units_Z  2
loop_
  _symmetry_equiv_pos_site_id
 _symmetry_equiv_pos_as_xyz
 1  'x, y, z'
loop_
 _atom_site_type_symbol
 _atom_site_label
 _atom_site_symmetry_multiplicity
 _atom_site_fract_x
 _atom_site_fract_y
 _atom_site_fract_z
 _atom_site_fract_occupancy
 O  O1  1  0.38349  0.38349  0.41868  1
 O  O2  1  0.38078  0.88597  0.36662  1
 O  O3  1  0.38349  0.38349  0.81434  1
 O  O4  1  0.88597  0.38078  0.36662  1
 O  O5  1  0.36403  0.86922  0.88338  1
 O  O6  1  0.86922  0.36403  0.88338  1
 O  O7  1  0.86651  0.86651  0.43566  1
 O  O8  1  0.86651  0.86651  0.83132  1
 Sb  Sb1  1  0.97059  0.97059  0.02941  1
 Sb  Sb2  1  0.27941  0.27941  0.22059  1
 Sb  Sb3  1  0.62500  0.62500  0.12500  1
 Sb  Sb4  1  0.62500  0.62500  0.62500  1
 Zn  Zn1  1  0.12500  0.62500  0.62500  1
 Zn  Zn2  1  0.62500  0.12500  0.62500  1
