CIF file written using JARVIS-Tools package.
data_Sb3O7F
_symmetry_space_group_name_H-M  'Cmmm'
_cell_length_a       6.37145
_cell_length_b       6.37145
_cell_length_c       3.82857
_cell_angle_alpha    90
_cell_angle_beta     90
_cell_angle_gamma    61.1391

_symmetry_Int_Tables_number  65
_chemical_formula_structural  Sb3O7F
_chemical_formula_sum  Sb3O7F
_cell_volume  136.118147465338
_cell_formula_units_Z  1
loop_
  _symmetry_equiv_pos_site_id
 _symmetry_equiv_pos_as_xyz
 1  'x, y, z'
loop_
 _atom_site_type_symbol
 _atom_site_label
 _atom_site_symmetry_multiplicity
 _atom_site_fract_x
 _atom_site_fract_y
 _atom_site_fract_z
 _atom_site_fract_occupancy
 F  F1  1  0.50000  0.50000  0.00000  1
 O  O1  1  0.04341  0.66291  0.00000  1
 O  O2  1  0.33709  0.95659  0.00000  1
 O  O3  1  0.00000  0.00000  0.50000  1
 O  O4  1  0.32180  0.32180  0.50000  1
 O  O5  1  0.67820  0.67820  0.50000  1
 O  O6  1  0.66291  0.04341  0.00000  1
 O  O7  1  0.95659  0.33709  0.00000  1
 Sb  Sb1  1  0.00000  0.00000  0.00000  1
 Sb  Sb2  1  0.30452  0.30452  0.00000  1
 Sb  Sb3  1  0.69548  0.69548  0.00000  1
