CIF file written using JARVIS-Tools package.
data_CaCu2O2
_symmetry_space_group_name_H-M  'I4_1/amd'
_cell_length_a       6.07148
_cell_length_b       6.07148
_cell_length_c       6.07148
_cell_angle_alpha    128.449
_cell_angle_beta     128.449
_cell_angle_gamma    75.8982

_symmetry_Int_Tables_number  141
_chemical_formula_structural  CaCu2O2
_chemical_formula_sum  Ca2Cu4O4
_cell_volume  133.48840635541166
_cell_formula_units_Z  2
loop_
  _symmetry_equiv_pos_site_id
 _symmetry_equiv_pos_as_xyz
 1  'x, y, z'
loop_
 _atom_site_type_symbol
 _atom_site_label
 _atom_site_symmetry_multiplicity
 _atom_site_fract_x
 _atom_site_fract_y
 _atom_site_fract_z
 _atom_site_fract_occupancy
 Ca  Ca1  1  0.00000  0.00000  0.00000  1
 Ca  Ca2  1  0.75000  0.25000  0.50000  1
 Cu  Cu1  1  0.87500  0.62500  0.25000  1
 Cu  Cu2  1  0.37500  0.62500  0.25000  1
 Cu  Cu3  1  0.37500  0.12500  0.75000  1
 Cu  Cu4  1  0.37500  0.62500  0.75000  1
 O  O1  1  0.23799  0.23799  -0.00000  1
 O  O2  1  0.51201  0.01201  0.50000  1
 O  O3  1  0.76201  0.76201  -0.00000  1
 O  O4  1  0.98799  0.48799  0.50000  1
