CIF file written using JARVIS-Tools package.
data_CuCSN
_symmetry_space_group_name_H-M  'P6_3mc'
_cell_length_a       3.80978
_cell_length_b       3.80978
_cell_length_c       11.0163
_cell_angle_alpha    90
_cell_angle_beta     90
_cell_angle_gamma    120

_symmetry_Int_Tables_number  186
_chemical_formula_structural  CuCSN
_chemical_formula_sum  Cu2C2S2N2
_cell_volume  138.4738011879241
_cell_formula_units_Z  2
loop_
  _symmetry_equiv_pos_site_id
 _symmetry_equiv_pos_as_xyz
 1  'x, y, z'
loop_
 _atom_site_type_symbol
 _atom_site_label
 _atom_site_symmetry_multiplicity
 _atom_site_fract_x
 _atom_site_fract_y
 _atom_site_fract_z
 _atom_site_fract_occupancy
 C  C1  1  0.33333  0.66667  0.28014  1
 C  C2  1  0.66667  0.33333  0.78014  1
 Cu  Cu1  1  0.66667  0.33333  0.50167  1
 Cu  Cu2  1  0.33333  0.66667  0.00167  1
 N  N1  1  0.66667  0.33333  0.67360  1
 N  N2  1  0.33333  0.66667  0.17360  1
 S  S1  1  0.66667  0.33333  0.93079  1
 S  S2  1  0.33333  0.66667  0.43079  1
