CIF file written using JARVIS-Tools package.
data_Tm2S3
_symmetry_space_group_name_H-M  'P2_1/m'
_cell_length_a       10.8633
_cell_length_b       3.86628
_cell_length_c       11.1267
_cell_angle_alpha    90
_cell_angle_beta     108.939
_cell_angle_gamma    90

_symmetry_Int_Tables_number  11
_chemical_formula_structural  Tm2S3
_chemical_formula_sum  Tm8S2
_cell_volume  442.02770873901795
_cell_formula_units_Z  4
loop_
  _symmetry_equiv_pos_site_id
 _symmetry_equiv_pos_as_xyz
 1  'x, y, z'
loop_
 _atom_site_type_symbol
 _atom_site_label
 _atom_site_symmetry_multiplicity
 _atom_site_fract_x
 _atom_site_fract_y
 _atom_site_fract_z
 _atom_site_fract_occupancy
 S  S1  1  0.75400  0.25000  0.22324  1
 S  S2  1  0.02128  0.25000  0.88572  1
 S  S3  1  0.38931  0.25000  0.03694  1
 S  S4  1  0.69198  0.25000  0.74946  1
 S  S5  1  0.30802  0.75000  0.25054  1
 S  S6  1  0.97872  0.75000  0.11428  1
 S  S7  1  0.89717  0.75000  0.56299  1
 S  S8  1  0.58151  0.25000  0.40112  1
 S  S9  1  0.41849  0.75000  0.59888  1
 S  S10  1  0.61069  0.75000  0.96306  1
 S  S11  1  0.24600  0.75000  0.77676  1
 S  S12  1  0.10283  0.25000  0.43701  1
 Tm  Tm1  1  0.66095  0.75000  0.58332  1
 Tm  Tm2  1  0.33905  0.25000  0.41668  1
 Tm  Tm3  1  0.93227  0.75000  0.33182  1
 Tm  Tm4  1  0.06773  0.25000  0.66818  1
 Tm  Tm5  1  0.54394  0.75000  0.19085  1
 Tm  Tm6  1  0.45606  0.25000  0.80915  1
 Tm  Tm7  1  0.18229  0.75000  0.00308  1
 Tm  Tm8  1  0.81771  0.25000  0.99692  1
