CIF file written using JARVIS-Tools package.
data_GeRh
_symmetry_space_group_name_H-M  'P2_13'
_cell_length_a       4.97455
_cell_length_b       4.97455
_cell_length_c       4.97455
_cell_angle_alpha    90
_cell_angle_beta     90
_cell_angle_gamma    90

_symmetry_Int_Tables_number  198
_chemical_formula_structural  GeRh
_chemical_formula_sum  Ge4Rh4
_cell_volume  123.10104570707969
_cell_formula_units_Z  4
loop_
  _symmetry_equiv_pos_site_id
 _symmetry_equiv_pos_as_xyz
 1  'x, y, z'
loop_
 _atom_site_type_symbol
 _atom_site_label
 _atom_site_symmetry_multiplicity
 _atom_site_fract_x
 _atom_site_fract_y
 _atom_site_fract_z
 _atom_site_fract_occupancy
 Ge  Ge1  1  0.16802  0.33198  0.66802  1
 Ge  Ge2  1  0.33198  0.66802  0.16802  1
 Ge  Ge3  1  0.66802  0.16802  0.33198  1
 Ge  Ge4  1  0.83198  0.83198  0.83198  1
 Rh  Rh1  1  0.88607  0.61393  0.38607  1
 Rh  Rh2  1  0.61393  0.38607  0.88607  1
 Rh  Rh3  1  0.38607  0.88607  0.61393  1
 Rh  Rh4  1  0.11393  0.11393  0.11393  1
