CIF file written using JARVIS-Tools package.
data_Na2CoGeO4
_symmetry_space_group_name_H-M  'Pmn2_1'
_cell_length_a       5.37794
_cell_length_b       6.2345
_cell_length_c       6.44547
_cell_angle_alpha    90
_cell_angle_beta     90
_cell_angle_gamma    90

_symmetry_Int_Tables_number  31
_chemical_formula_structural  Na2CoGeO4
_chemical_formula_sum  Na4Co2Ge2O8
_cell_volume  216.10838001592717
_cell_formula_units_Z  2
loop_
  _symmetry_equiv_pos_site_id
 _symmetry_equiv_pos_as_xyz
 1  'x, y, z'
loop_
 _atom_site_type_symbol
 _atom_site_label
 _atom_site_symmetry_multiplicity
 _atom_site_fract_x
 _atom_site_fract_y
 _atom_site_fract_z
 _atom_site_fract_occupancy
 Co  Co1  1  0.00541  0.15270  0.00000  1
 Co  Co2  1  0.50541  0.84730  0.50000  1
 Ge  Ge1  1  0.49932  0.84789  0.00000  1
 Ge  Ge2  1  -0.00068  0.15211  0.50000  1
 Na  Na1  1  0.01154  0.66448  0.74778  1
 Na  Na2  1  0.51154  0.33552  0.24778  1
 Na  Na3  1  0.51154  0.33552  0.75222  1
 Na  Na4  1  0.01154  0.66448  0.25222  1
 O  O1  1  0.66823  0.12512  0.50000  1
 O  O2  1  0.16823  0.87488  0.00000  1
 O  O3  1  0.14184  0.89419  0.50000  1
 O  O4  1  0.64184  0.10581  0.00000  1
 O  O5  1  0.58106  0.69732  0.76981  1
 O  O6  1  0.58106  0.69732  0.23019  1
 O  O7  1  0.08106  0.30268  0.26981  1
 O  O8  1  0.08106  0.30268  0.73019  1
