data_image0
_chemical_formula_structural       CuHf4Si4
_chemical_formula_sum              "Cu1 Hf4 Si4"
_cell_length_a       3.75331
_cell_length_b       5.20547
_cell_length_c       8.57394
_cell_angle_alpha    97.4072
_cell_angle_beta     102.643
_cell_angle_gamma    111.132

_space_group_name_H-M_alt    "P 1"
_space_group_IT_number       1

loop_
  _space_group_symop_operation_xyz
  'x, y, z'

loop_
  _atom_site_type_symbol
  _atom_site_label
  _atom_site_symmetry_multiplicity
  _atom_site_fract_x
  _atom_site_fract_y
  _atom_site_fract_z
  _atom_site_occupancy
  Cu  Cu1       1.0  0.00000  0.00000  0.00000  1.0000
  Hf  Hf1       1.0  0.40400  0.65000  0.15800  1.0000
  Hf  Hf2       1.0  0.27300  0.16500  0.38100  1.0000
  Hf  Hf3       1.0  0.72700  0.83500  0.61900  1.0000
  Hf  Hf4       1.0  0.59600  0.35000  0.84200  1.0000
  Si  Si1       1.0  0.68800  0.22500  0.15000  1.0000
  Si  Si2       1.0  0.00210  0.61800  0.38700  1.0000
  Si  Si3       1.0  0.99800  0.38200  0.61300  1.0000
  Si  Si4       1.0  0.31200  0.77500  0.85000  1.0000
