CIF file written using JARVIS-Tools package.
data_Sr4MgCr2S2O6
_symmetry_space_group_name_H-M  'P-4m2'
_cell_length_a       3.89641
_cell_length_b       3.89641
_cell_length_c       15.9327
_cell_angle_alpha    90
_cell_angle_beta     90
_cell_angle_gamma    90

_symmetry_Int_Tables_number  115
_chemical_formula_structural  Sr4MgCr2S2O6
_chemical_formula_sum  Sr4MgCr2S2O6
_cell_volume  241.8905929399393
_cell_formula_units_Z  1
loop_
  _symmetry_equiv_pos_site_id
 _symmetry_equiv_pos_as_xyz
 1  'x, y, z'
loop_
 _atom_site_type_symbol
 _atom_site_label
 _atom_site_symmetry_multiplicity
 _atom_site_fract_x
 _atom_site_fract_y
 _atom_site_fract_z
 _atom_site_fract_occupancy
 Cr  Cr1  1  0.50000  0.00000  0.31276  1
 Cr  Cr2  1  0.00000  0.50000  0.68724  1
 Mg  Mg1  1  0.00000  0.00000  0.00000  1
 O  O1  1  0.50000  0.50000  0.29407  1
 O  O2  1  0.00000  0.00000  0.29337  1
 O  O3  1  0.00000  0.00000  0.70663  1
 O  O4  1  0.50000  0.50000  0.70593  1
 O  O5  1  0.50000  0.00000  0.43135  1
 O  O6  1  0.00000  0.50000  0.56865  1
 S  S1  1  0.50000  0.00000  0.09728  1
 S  S2  1  0.00000  0.50000  0.90272  1
 Sr  Sr1  1  0.00000  0.50000  0.19171  1
 Sr  Sr2  1  0.50000  0.00000  0.80829  1
 Sr  Sr3  1  0.00000  0.50000  0.41386  1
 Sr  Sr4  1  0.50000  0.00000  0.58614  1
