CIF file written using JARVIS-Tools package.
data_CrO3
_symmetry_space_group_name_H-M  'P6_3cm'
_cell_length_a       5.60169
_cell_length_b       5.60168
_cell_length_c       10.5417
_cell_angle_alpha    90
_cell_angle_beta     90
_cell_angle_gamma    120

_symmetry_Int_Tables_number  185
_chemical_formula_structural  CrO3
_chemical_formula_sum  Cr6O8
_cell_volume  286.46891163808544
_cell_formula_units_Z  6
loop_
  _symmetry_equiv_pos_site_id
 _symmetry_equiv_pos_as_xyz
 1  'x, y, z'
loop_
 _atom_site_type_symbol
 _atom_site_label
 _atom_site_symmetry_multiplicity
 _atom_site_fract_x
 _atom_site_fract_y
 _atom_site_fract_z
 _atom_site_fract_occupancy
 Cr  Cr1  1  0.65827  0.00000  0.50122  1
 Cr  Cr2  1  0.65827  0.65827  0.00122  1
 Cr  Cr3  1  -0.00000  0.34173  0.00122  1
 Cr  Cr4  1  0.00000  0.65827  0.50122  1
 Cr  Cr5  1  0.34173  0.34173  0.50122  1
 Cr  Cr6  1  0.34173  -0.00000  0.00122  1
 O  O1  1  0.66667  0.33333  0.03586  1
 O  O2  1  0.33333  0.66667  0.53586  1
 O  O3  1  0.66667  0.33333  0.53586  1
 O  O4  1  0.33333  0.66667  0.03586  1
 O  O5  1  0.00000  0.00000  0.94891  1
 O  O6  1  0.78413  0.78413  0.15360  1
 O  O7  1  0.39020  -0.00000  0.84928  1
 O  O8  1  0.00000  0.00000  0.44891  1
 O  O9  1  0.60980  0.60980  0.84928  1
 O  O10  1  -0.00000  0.39020  0.84928  1
 O  O11  1  0.39020  0.39020  0.34928  1
 O  O12  1  0.60980  0.00000  0.34928  1
 O  O13  1  0.21587  0.00000  0.15360  1
 O  O14  1  0.21587  0.21587  0.65360  1
 O  O15  1  -0.00000  0.78413  0.65360  1
 O  O16  1  0.00000  0.21587  0.15360  1
 O  O17  1  0.00000  0.60980  0.34928  1
 O  O18  1  0.78413  -0.00000  0.65360  1
