CIF file written using JARVIS-Tools package.
data_AlCoF5
_symmetry_space_group_name_H-M  'Immm'
_cell_length_a       3.55877
_cell_length_b       5.16727
_cell_length_c       5.16727
_cell_angle_alpha    73.6367
_cell_angle_beta     69.8576
_cell_angle_gamma    69.8575

_symmetry_Int_Tables_number  71
_chemical_formula_structural  AlCoF5
_chemical_formula_sum  AlCoF5
_cell_volume  82.30651492371962
_cell_formula_units_Z  1
loop_
  _symmetry_equiv_pos_site_id
 _symmetry_equiv_pos_as_xyz
 1  'x, y, z'
loop_
 _atom_site_type_symbol
 _atom_site_label
 _atom_site_symmetry_multiplicity
 _atom_site_fract_x
 _atom_site_fract_y
 _atom_site_fract_z
 _atom_site_fract_occupancy
 Al  Al1  1  0.50000  0.50000  0.50000  1
 Co  Co1  1  0.00000  0.00000  0.00000  1
 F  F1  1  0.50000  0.79720  0.20280  1
 F  F2  1  0.50000  0.20280  0.79720  1
 F  F3  1  0.74206  0.25794  0.25794  1
 F  F4  1  0.25794  0.74206  0.74206  1
 F  F5  1  -0.00000  0.50000  0.50000  1
