CIF file written using JARVIS-Tools package.
data_RbAuBr4
_symmetry_space_group_name_H-M  'P2_1/c'
_cell_length_a       7.4509
_cell_length_b       6.08167
_cell_length_c       10.4093
_cell_angle_alpha    90
_cell_angle_beta     122.838
_cell_angle_gamma    90

_symmetry_Int_Tables_number  14
_chemical_formula_structural  RbAuBr4
_chemical_formula_sum  Rb2Au2Br8
_cell_volume  396.31319418082126
_cell_formula_units_Z  2
loop_
  _symmetry_equiv_pos_site_id
 _symmetry_equiv_pos_as_xyz
 1  'x, y, z'
loop_
 _atom_site_type_symbol
 _atom_site_label
 _atom_site_symmetry_multiplicity
 _atom_site_fract_x
 _atom_site_fract_y
 _atom_site_fract_z
 _atom_site_fract_occupancy
 Au  Au1  1  0.00000  0.00000  0.00000  1
 Au  Au2  1  0.00000  0.50000  0.50000  1
 Br  Br1  1  0.60932  0.98975  0.87719  1
 Br  Br2  1  0.39068  0.48975  0.62281  1
 Br  Br3  1  0.39068  0.01025  0.12281  1
 Br  Br4  1  0.60932  0.51025  0.37719  1
 Br  Br5  1  0.95951  0.30740  0.82893  1
 Br  Br6  1  0.04049  0.80740  0.67107  1
 Br  Br7  1  0.04049  0.69260  0.17107  1
 Br  Br8  1  0.95951  0.19260  0.32893  1
 Rb  Rb1  1  0.50000  0.50000  -0.00000  1
 Rb  Rb2  1  0.50000  0.00000  0.50000  1
