CIF file written using JARVIS-Tools package.
data_Li3CuS2
_symmetry_space_group_name_H-M  'I4_132'
_cell_length_a       7.9051
_cell_length_b       7.9051
_cell_length_c       7.9051
_cell_angle_alpha    109.471
_cell_angle_beta     109.471
_cell_angle_gamma    109.471

_symmetry_Int_Tables_number  214
_chemical_formula_structural  Li3CuS2
_chemical_formula_sum  Li2Cu4S8
_cell_volume  380.27693898167234
_cell_formula_units_Z  4
loop_
  _symmetry_equiv_pos_site_id
 _symmetry_equiv_pos_as_xyz
 1  'x, y, z'
loop_
 _atom_site_type_symbol
 _atom_site_label
 _atom_site_symmetry_multiplicity
 _atom_site_fract_x
 _atom_site_fract_y
 _atom_site_fract_z
 _atom_site_fract_occupancy
 Cu  Cu1  1  0.25000  0.50000  -0.00000  1
 Cu  Cu2  1  0.50000  0.00000  0.25000  1
 Cu  Cu3  1  -0.00000  0.25000  0.50000  1
 Cu  Cu4  1  0.25000  0.25000  0.25000  1
 Li  Li1  1  0.86419  0.25000  0.11419  1
 Li  Li2  1  0.86419  0.11419  0.75000  1
 Li  Li3  1  0.63581  0.38581  0.25000  1
 Li  Li4  1  0.75000  0.38581  0.63581  1
 Li  Li5  1  0.63581  0.75000  0.38581  1
 Li  Li6  1  0.11419  0.75000  0.86419  1
 Li  Li7  1  0.38581  0.25000  0.63581  1
 Li  Li8  1  0.25000  0.63581  0.38581  1
 Li  Li9  1  0.25000  0.11419  0.86419  1
 Li  Li10  1  0.11419  0.86419  0.25000  1
 Li  Li11  1  0.38581  0.63581  0.75000  1
 Li  Li12  1  0.75000  0.86419  0.11419  1
 S  S1  1  0.97882  0.97882  0.97882  1
 S  S2  1  0.00000  0.52118  0.50000  1
 S  S3  1  0.97882  0.50000  -0.00000  1
 S  S4  1  0.52118  0.50000  0.00000  1
 S  S5  1  0.50000  0.00000  0.52118  1
 S  S6  1  0.50000  0.00000  0.97882  1
 S  S7  1  0.52118  0.52118  0.52118  1
 S  S8  1  -0.00000  0.97882  0.50000  1
