CIF file written using JARVIS-Tools package.
data_SrLiNb2O6F
_symmetry_space_group_name_H-M  'I-4m2'
_cell_length_a       3.8752
_cell_length_b       10.5236
_cell_length_c       3.8752
_cell_angle_alpha    79.3902
_cell_angle_beta     90
_cell_angle_gamma    100.61

_symmetry_Int_Tables_number  119
_chemical_formula_structural  SrLiNb2O6F
_chemical_formula_sum  SrLiNb2O6F
_cell_volume  152.58370205578478
_cell_formula_units_Z  1
loop_
  _symmetry_equiv_pos_site_id
 _symmetry_equiv_pos_as_xyz
 1  'x, y, z'
loop_
 _atom_site_type_symbol
 _atom_site_label
 _atom_site_symmetry_multiplicity
 _atom_site_fract_x
 _atom_site_fract_y
 _atom_site_fract_z
 _atom_site_fract_occupancy
 F  F1  1  0.50000  0.00000  0.50000  1
 Li  Li1  1  0.25000  0.50000  0.25000  1
 Nb  Nb1  1  0.62007  0.24015  0.37993  1
 Nb  Nb2  1  0.37993  0.75985  0.62007  1
 O  O1  1  0.70888  0.41777  0.29112  1
 O  O2  1  0.09493  0.18987  0.40507  1
 O  O3  1  0.40507  0.81013  0.09493  1
 O  O4  1  0.29112  0.58223  0.70888  1
 O  O5  1  0.59297  0.18594  0.90703  1
 O  O6  1  0.90703  0.81406  0.59297  1
 Sr  Sr1  1  0.00000  0.00000  0.00000  1
