CIF file written using JARVIS-Tools package.
data_MgAl10O16
_symmetry_space_group_name_H-M  'R3m'
_cell_length_a       5.71126
_cell_length_b       5.71125
_cell_length_c       9.68777
_cell_angle_alpha    107.144
_cell_angle_beta     107.144
_cell_angle_gamma    60

_symmetry_Int_Tables_number  160
_chemical_formula_structural  MgAl10O16
_chemical_formula_sum  MgAl0O6
_cell_volume  257.32285105404986
_cell_formula_units_Z  1
loop_
  _symmetry_equiv_pos_site_id
 _symmetry_equiv_pos_as_xyz
 1  'x, y, z'
loop_
 _atom_site_type_symbol
 _atom_site_label
 _atom_site_symmetry_multiplicity
 _atom_site_fract_x
 _atom_site_fract_y
 _atom_site_fract_z
 _atom_site_fract_occupancy
 Al  Al1  1  0.75937  0.74334  0.76204  1
 Al  Al2  1  0.69132  0.19132  0.07398  1
 Al  Al3  1  0.49802  0.99802  0.49407  1
 Al  Al4  1  0.74971  0.74548  0.24070  1
 Al  Al5  1  0.75937  0.25937  0.76205  1
 Al  Al6  1  0.24548  0.24971  0.24070  1
 Al  Al7  1  0.24334  0.25937  0.76204  1
 Al  Al8  1  0.18933  0.68933  0.56798  1
 Al  Al9  1  0.24548  0.74548  0.24070  1
 Al  Al10  1  0.31012  0.81012  0.93032  1
 Mg  Mg1  1  0.80978  0.30978  0.42936  1
 O  O1  1  0.38852  0.88852  0.62782  1
 O  O2  1  0.85078  0.88853  0.62782  1
 O  O3  1  0.16251  0.10163  0.36580  1
 O  O4  1  0.61824  0.62048  0.85917  1
 O  O5  1  0.12048  0.11824  0.85917  1
 O  O6  1  0.37576  0.87576  0.12731  1
 O  O7  1  0.12048  0.62048  0.85916  1
 O  O8  1  0.88211  0.38211  0.14238  1
 O  O9  1  0.38853  0.35078  0.62782  1
 O  O10  1  0.88210  0.87814  0.14238  1
 O  O11  1  0.12261  0.62261  0.36784  1
 O  O12  1  0.60163  0.66251  0.36580  1
 O  O13  1  0.37814  0.38210  0.14238  1
 O  O14  1  0.62271  0.12271  0.86810  1
 O  O15  1  0.88245  0.38245  0.64732  1
 O  O16  1  0.60164  0.10163  0.36580  1
