CIF file written using JARVIS-Tools package.
data_Mo2O5
_symmetry_space_group_name_H-M  'Cmcm'
_cell_length_a       11.906
_cell_length_b       5.37173
_cell_length_c       3.81823
_cell_angle_alpha    110.818
_cell_angle_beta     90
_cell_angle_gamma    90

_symmetry_Int_Tables_number  63
_chemical_formula_structural  Mo2O5
_chemical_formula_sum  Mo4O0
_cell_volume  228.25446356854752
_cell_formula_units_Z  2
loop_
  _symmetry_equiv_pos_site_id
 _symmetry_equiv_pos_as_xyz
 1  'x, y, z'
loop_
 _atom_site_type_symbol
 _atom_site_label
 _atom_site_symmetry_multiplicity
 _atom_site_fract_x
 _atom_site_fract_y
 _atom_site_fract_z
 _atom_site_fract_occupancy
 Mo  Mo1  1  0.14943  0.88218  0.94109  1
 Mo  Mo2  1  0.35057  0.11782  0.55891  1
 Mo  Mo3  1  0.64943  0.11782  0.55891  1
 Mo  Mo4  1  0.85057  0.88218  0.94109  1
 O  O1  1  0.00000  -0.00074  -0.00037  1
 O  O2  1  0.13427  0.54973  0.77486  1
 O  O3  1  0.18601  0.97803  0.48901  1
 O  O4  1  0.31399  0.02197  0.01098  1
 O  O5  1  0.36573  0.45027  0.72514  1
 O  O6  1  0.50000  0.00074  0.50037  1
 O  O7  1  0.63427  0.45027  0.72514  1
 O  O8  1  0.86573  0.54973  0.77486  1
 O  O9  1  0.68601  0.02197  0.01098  1
 O  O10  1  0.81399  0.97803  0.48901  1
