CIF file written using JARVIS-Tools package.
data_KAs2Rh2
_symmetry_space_group_name_H-M  'I4/mmm'
_cell_length_a       4.03317
_cell_length_b       4.03317
_cell_length_c       7.20835
_cell_angle_alpha    106.249
_cell_angle_beta     106.249
_cell_angle_gamma    90.0003

_symmetry_Int_Tables_number  139
_chemical_formula_structural  KAs2Rh2
_chemical_formula_sum  KAs2Rh2
_cell_volume  107.68306849521814
_cell_formula_units_Z  1
loop_
  _symmetry_equiv_pos_site_id
 _symmetry_equiv_pos_as_xyz
 1  'x, y, z'
loop_
 _atom_site_type_symbol
 _atom_site_label
 _atom_site_symmetry_multiplicity
 _atom_site_fract_x
 _atom_site_fract_y
 _atom_site_fract_z
 _atom_site_fract_occupancy
 As  As1  1  0.64432  0.64432  0.28869  1
 As  As2  1  0.35568  0.35568  0.71131  1
 K  K1  1  0.00000  0.00000  0.00000  1
 Rh  Rh1  1  0.25000  0.75000  0.50000  1
 Rh  Rh2  1  0.75000  0.25000  0.50000  1
