CIF file written using JARVIS-Tools package.
data_MnOF
_symmetry_space_group_name_H-M  'C2'
_cell_length_a       4.58424
_cell_length_b       4.58424
_cell_length_c       12.4085
_cell_angle_alpha    89.6641
_cell_angle_beta     89.6641
_cell_angle_gamma    90.0477

_symmetry_Int_Tables_number  5
_chemical_formula_structural  MnOF
_chemical_formula_sum  Mn8O8F8
_cell_volume  260.7592302991187
_cell_formula_units_Z  8
loop_
  _symmetry_equiv_pos_site_id
 _symmetry_equiv_pos_as_xyz
 1  'x, y, z'
loop_
 _atom_site_type_symbol
 _atom_site_label
 _atom_site_symmetry_multiplicity
 _atom_site_fract_x
 _atom_site_fract_y
 _atom_site_fract_z
 _atom_site_fract_occupancy
 F  F1  1  0.79662  0.22273  0.86547  1
 F  F2  1  0.77727  0.20338  0.38453  1
 F  F3  1  0.71704  0.74282  0.75148  1
 F  F4  1  0.73448  0.71279  0.25251  1
 F  F5  1  0.25718  0.28296  0.49852  1
 F  F6  1  0.28721  0.26552  0.99749  1
 F  F7  1  0.23456  0.76544  0.12500  1
 F  F8  1  0.78409  0.21591  0.62500  1
 Mn  Mn1  1  0.97935  0.96103  0.00007  1
 Mn  Mn2  1  0.48030  0.52288  0.87441  1
 Mn  Mn3  1  0.47712  0.51970  0.37559  1
 Mn  Mn4  1  0.53956  0.46044  0.12500  1
 Mn  Mn5  1  0.47548  0.52452  0.62500  1
 Mn  Mn6  1  0.04878  0.01820  0.74947  1
 Mn  Mn7  1  0.98180  0.95122  0.50053  1
 Mn  Mn8  1  0.03897  0.02065  0.24993  1
 O  O1  1  0.66690  0.68812  0.50222  1
 O  O2  1  0.68891  0.66677  -0.00095  1
 O  O3  1  0.33323  0.31109  0.25095  1
 O  O4  1  0.18796  0.81396  0.87548  1
 O  O5  1  0.18421  0.81579  0.62500  1
 O  O6  1  0.18604  0.81204  0.37452  1
 O  O7  1  0.83106  0.16894  0.12500  1
 O  O8  1  0.31188  0.33310  0.74778  1
