CIF file written using JARVIS-Tools package.
data_MnReO4
_symmetry_space_group_name_H-M  'P2/c'
_cell_length_a       4.62497
_cell_length_b       5.6339
_cell_length_c       5.07495
_cell_angle_alpha    90
_cell_angle_beta     91.8518
_cell_angle_gamma    90

_symmetry_Int_Tables_number  13
_chemical_formula_structural  MnReO4
_chemical_formula_sum  Mn2Re2O8
_cell_volume  132.16662083417188
_cell_formula_units_Z  2
loop_
  _symmetry_equiv_pos_site_id
 _symmetry_equiv_pos_as_xyz
 1  'x, y, z'
loop_
 _atom_site_type_symbol
 _atom_site_label
 _atom_site_symmetry_multiplicity
 _atom_site_fract_x
 _atom_site_fract_y
 _atom_site_fract_z
 _atom_site_fract_occupancy
 Mn  Mn1  1  0.50000  0.66193  0.75000  1
 Mn  Mn2  1  0.50000  0.33807  0.25000  1
 O  O1  1  0.26635  0.37872  0.90161  1
 O  O2  1  0.73365  0.37872  0.59839  1
 O  O3  1  0.73365  0.62128  0.09839  1
 O  O4  1  0.26635  0.62128  0.40161  1
 O  O5  1  0.22130  0.89087  0.93302  1
 O  O6  1  0.77870  0.89087  0.56698  1
 O  O7  1  0.22130  0.10913  0.43302  1
 O  O8  1  0.77870  0.10913  0.06698  1
 Re  Re1  1  0.00000  0.16792  0.75000  1
 Re  Re2  1  -0.00000  0.83208  0.25000  1
