CIF file written using JARVIS-Tools package.
data_NiO2
_symmetry_space_group_name_H-M  'C2/m'
_cell_length_a       2.85289
_cell_length_b       6.88248
_cell_length_c       6.86986
_cell_angle_alpha    87.3562
_cell_angle_beta     78.0177
_cell_angle_gamma    78.0384

_symmetry_Int_Tables_number  12
_chemical_formula_structural  NiO2
_chemical_formula_sum  Ni4O8
_cell_volume  129.08485606313747
_cell_formula_units_Z  4
loop_
  _symmetry_equiv_pos_site_id
 _symmetry_equiv_pos_as_xyz
 1  'x, y, z'
loop_
 _atom_site_type_symbol
 _atom_site_label
 _atom_site_symmetry_multiplicity
 _atom_site_fract_x
 _atom_site_fract_y
 _atom_site_fract_z
 _atom_site_fract_occupancy
 Ni  Ni1  1  0.83019  0.81613  0.51841  1
 Ni  Ni2  1  0.64583  0.51843  0.18487  1
 Ni  Ni3  1  0.34824  0.48121  0.81727  1
 Ni  Ni4  1  0.16384  0.18350  0.48372  1
 O  O1  1  0.54156  0.28001  0.63182  1
 O  O2  1  0.82418  0.62810  0.71850  1
 O  O3  1  0.16988  0.37154  0.28364  1
 O  O4  1  0.45249  0.71963  0.37032  1
 O  O5  1  0.19860  0.95169  0.64605  1
 O  O6  1  0.15133  0.64490  0.04739  1
 O  O7  1  0.79544  0.04795  0.35609  1
 O  O8  1  0.84275  0.35473  0.95475  1
