CIF file written using JARVIS-Tools package.
data_Co2O3F
_symmetry_space_group_name_H-M  'Cmcm'
_cell_length_a       4.36976
_cell_length_b       4.36976
_cell_length_c       11.6023
_cell_angle_alpha    90
_cell_angle_beta     90
_cell_angle_gamma    92.9122

_symmetry_Int_Tables_number  63
_chemical_formula_structural  Co2O3F
_chemical_formula_sum  Co8O2F4
_cell_volume  221.25691302650574
_cell_formula_units_Z  4
loop_
  _symmetry_equiv_pos_site_id
 _symmetry_equiv_pos_as_xyz
 1  'x, y, z'
loop_
 _atom_site_type_symbol
 _atom_site_label
 _atom_site_symmetry_multiplicity
 _atom_site_fract_x
 _atom_site_fract_y
 _atom_site_fract_z
 _atom_site_fract_occupancy
 Co  Co1  1  0.00000  0.00000  0.00000  1
 Co  Co2  1  0.98954  0.01046  0.25000  1
 Co  Co3  1  0.00000  0.00000  0.50000  1
 Co  Co4  1  0.01046  0.98954  0.75000  1
 Co  Co5  1  0.52627  0.47373  0.12521  1
 Co  Co6  1  0.47373  0.52627  0.62521  1
 Co  Co7  1  0.52627  0.47373  0.37479  1
 Co  Co8  1  0.47373  0.52627  0.87479  1
 F  F1  1  0.21285  0.78715  0.12872  1
 F  F2  1  0.78715  0.21285  0.62872  1
 F  F3  1  0.21285  0.78715  0.37128  1
 F  F4  1  0.78715  0.21285  0.87128  1
 O  O1  1  0.71156  0.68133  0.25000  1
 O  O2  1  0.69575  0.69575  0.00000  1
 O  O3  1  0.31867  0.28844  0.25000  1
 O  O4  1  0.28844  0.31867  0.75000  1
 O  O5  1  0.30425  0.30425  0.00000  1
 O  O6  1  0.18642  0.81358  0.87473  1
 O  O7  1  0.18642  0.81358  0.62527  1
 O  O8  1  0.30425  0.30425  0.50000  1
 O  O9  1  0.81358  0.18642  0.12527  1
 O  O10  1  0.81358  0.18642  0.37473  1
 O  O11  1  0.68133  0.71156  0.75000  1
 O  O12  1  0.69575  0.69575  0.50000  1
