CIF file written using JARVIS-Tools package.
data_Sr5P3O12F
_symmetry_space_group_name_H-M  'P6_3/m'
_cell_length_a       9.77467
_cell_length_b       9.77467
_cell_length_c       7.30956
_cell_angle_alpha    90
_cell_angle_beta     90
_cell_angle_gamma    120

_symmetry_Int_Tables_number  176
_chemical_formula_structural  Sr5P3O12F
_chemical_formula_sum  Sr0P6O24F2
_cell_volume  604.8199794373334
_cell_formula_units_Z  2
loop_
  _symmetry_equiv_pos_site_id
 _symmetry_equiv_pos_as_xyz
 1  'x, y, z'
loop_
 _atom_site_type_symbol
 _atom_site_label
 _atom_site_symmetry_multiplicity
 _atom_site_fract_x
 _atom_site_fract_y
 _atom_site_fract_z
 _atom_site_fract_occupancy
 F  F1  1  0.00000  0.00000  0.75000  1
 F  F2  1  0.00000  0.00000  0.25000  1
 O  O1  1  0.41618  0.53545  0.25000  1
 O  O2  1  0.34520  0.26044  0.92191  1
 O  O3  1  0.08477  0.34520  0.07809  1
 O  O4  1  0.08477  0.34520  0.42191  1
 O  O5  1  0.46455  0.88073  0.25000  1
 O  O6  1  0.85002  0.33060  0.25000  1
 O  O7  1  0.26044  0.91523  0.42191  1
 O  O8  1  0.65480  0.73956  0.42191  1
 O  O9  1  0.73956  0.08477  0.57809  1
 O  O10  1  0.73956  0.08477  0.92191  1
 O  O11  1  0.53545  0.11927  0.75000  1
 O  O12  1  0.91523  0.65480  0.57809  1
 O  O13  1  0.91523  0.65480  0.92191  1
 O  O14  1  0.65480  0.73956  0.07809  1
 O  O15  1  0.51942  0.85002  0.75000  1
 O  O16  1  0.88073  0.41618  0.75000  1
 O  O17  1  0.66940  0.51942  0.25000  1
 O  O18  1  0.34520  0.26044  0.57809  1
 O  O19  1  0.14998  0.66940  0.75000  1
 O  O20  1  0.48058  0.14998  0.25000  1
 O  O21  1  0.33060  0.48058  0.75000  1
 O  O22  1  0.58382  0.46455  0.75000  1
 O  O23  1  0.26044  0.91523  0.07809  1
 O  O24  1  0.11927  0.58382  0.25000  1
 P  P1  1  0.63173  0.03188  0.75000  1
 P  P2  1  0.59985  0.63173  0.25000  1
 P  P3  1  0.96812  0.59985  0.75000  1
 P  P4  1  0.36827  0.96812  0.25000  1
 P  P5  1  0.03188  0.40015  0.25000  1
 P  P6  1  0.40015  0.36827  0.75000  1
 Sr  Sr1  1  0.75967  0.01433  0.25000  1
 Sr  Sr2  1  0.66667  0.33333  0.50004  1
 Sr  Sr3  1  0.66667  0.33333  0.99996  1
 Sr  Sr4  1  0.01433  0.25466  0.75000  1
 Sr  Sr5  1  0.74534  0.75967  0.75000  1
 Sr  Sr6  1  0.33333  0.66667  0.49996  1
 Sr  Sr7  1  0.33333  0.66667  0.00004  1
 Sr  Sr8  1  0.24033  0.98567  0.75000  1
 Sr  Sr9  1  0.98567  0.74534  0.25000  1
 Sr  Sr10  1  0.25466  0.24033  0.25000  1
