CIF file written using JARVIS-Tools package.
data_KSbF6
_symmetry_space_group_name_H-M  'P4_2/mcm'
_cell_length_a       5.24165
_cell_length_b       5.24165
_cell_length_c       9.72502
_cell_angle_alpha    90
_cell_angle_beta     90
_cell_angle_gamma    90

_symmetry_Int_Tables_number  132
_chemical_formula_structural  KSbF6
_chemical_formula_sum  K2Sb2F2
_cell_volume  267.19334594586485
_cell_formula_units_Z  2
loop_
  _symmetry_equiv_pos_site_id
 _symmetry_equiv_pos_as_xyz
 1  'x, y, z'
loop_
 _atom_site_type_symbol
 _atom_site_label
 _atom_site_symmetry_multiplicity
 _atom_site_fract_x
 _atom_site_fract_y
 _atom_site_fract_z
 _atom_site_fract_occupancy
 F  F1  1  0.81617  0.18383  0.13847  1
 F  F2  1  0.81617  0.81617  0.36153  1
 F  F3  1  0.26026  0.73974  0.50000  1
 F  F4  1  0.18383  0.18383  0.36153  1
 F  F5  1  0.18383  0.81617  0.86153  1
 F  F6  1  0.81617  0.81617  0.63847  1
 F  F7  1  0.26026  0.26026  0.00000  1
 F  F8  1  0.73974  0.26026  0.50000  1
 F  F9  1  0.18383  0.18383  0.63847  1
 F  F10  1  0.18383  0.81617  0.13847  1
 F  F11  1  0.81617  0.18383  0.86153  1
 F  F12  1  0.73974  0.73974  0.00000  1
 K  K1  1  0.50000  0.50000  0.75000  1
 K  K2  1  0.50000  0.50000  0.25000  1
 Sb  Sb1  1  0.00000  0.00000  0.00000  1
 Sb  Sb2  1  0.00000  0.00000  0.50000  1
