CIF file written using JARVIS-Tools package.
data_SmCuS2
_symmetry_space_group_name_H-M  'P2_1/c'
_cell_length_a       6.44034
_cell_length_b       7.1312
_cell_length_c       6.83651
_cell_angle_alpha    90
_cell_angle_beta     97.5594
_cell_angle_gamma    90

_symmetry_Int_Tables_number  14
_chemical_formula_structural  SmCuS2
_chemical_formula_sum  Sm4Cu4S8
_cell_volume  311.25446537062584
_cell_formula_units_Z  4
loop_
  _symmetry_equiv_pos_site_id
 _symmetry_equiv_pos_as_xyz
 1  'x, y, z'
loop_
 _atom_site_type_symbol
 _atom_site_label
 _atom_site_symmetry_multiplicity
 _atom_site_fract_x
 _atom_site_fract_y
 _atom_site_fract_z
 _atom_site_fract_occupancy
 Cu  Cu1  1  0.42287  0.66176  0.94976  1
 Cu  Cu2  1  0.57713  0.33824  0.05024  1
 Cu  Cu3  1  0.57713  0.16176  0.55024  1
 Cu  Cu4  1  0.42287  0.83824  0.44976  1
 S  S1  1  0.07952  0.72604  0.99939  1
 S  S2  1  0.92048  0.22604  0.50061  1
 S  S3  1  0.92048  0.27396  0.00061  1
 S  S4  1  0.07952  0.77396  0.49939  1
 S  S5  1  0.40680  0.11315  0.21881  1
 S  S6  1  0.40680  0.38685  0.71881  1
 S  S7  1  0.59320  0.88685  0.78119  1
 S  S8  1  0.59320  0.61315  0.28119  1
 Sm  Sm1  1  0.80818  0.95104  0.19912  1
 Sm  Sm2  1  0.19182  0.45104  0.30088  1
 Sm  Sm3  1  0.19182  0.04896  0.80088  1
 Sm  Sm4  1  0.80818  0.54896  0.69912  1
