CIF file written using JARVIS-Tools package.
data_Ba7Cl2F12
_symmetry_space_group_name_H-M  'P-6'
_cell_length_a       10.7195
_cell_length_b       10.7195
_cell_length_c       4.18123
_cell_angle_alpha    90
_cell_angle_beta     90
_cell_angle_gamma    120

_symmetry_Int_Tables_number  174
_chemical_formula_structural  Ba7Cl2F12
_chemical_formula_sum  Ba7Cl2F2
_cell_volume  416.08775572481807
_cell_formula_units_Z  1
loop_
  _symmetry_equiv_pos_site_id
 _symmetry_equiv_pos_as_xyz
 1  'x, y, z'
loop_
 _atom_site_type_symbol
 _atom_site_label
 _atom_site_symmetry_multiplicity
 _atom_site_fract_x
 _atom_site_fract_y
 _atom_site_fract_z
 _atom_site_fract_occupancy
 Ba  Ba1  1  0.88917  0.59070  0.00000  1
 Ba  Ba2  1  0.59701  0.71114  0.50000  1
 Ba  Ba3  1  0.11414  0.40299  0.50000  1
 Ba  Ba4  1  0.28886  0.88586  0.50000  1
 Ba  Ba5  1  0.40930  0.29847  0.00000  1
 Ba  Ba6  1  0.70153  0.11083  0.00000  1
 Ba  Ba7  1  0.00000  0.00000  0.00000  1
 Cl  Cl1  1  0.66667  0.33333  0.50000  1
 Cl  Cl2  1  0.33333  0.66667  0.00000  1
 F  F1  1  0.05031  0.61401  0.50000  1
 F  F2  1  0.15521  0.27688  0.00000  1
 F  F3  1  0.56370  0.94969  0.50000  1
 F  F4  1  0.21661  0.09861  0.50000  1
 F  F5  1  0.38599  0.43630  0.50000  1
 F  F6  1  0.43192  0.06256  0.00000  1
 F  F7  1  0.63064  0.56808  0.00000  1
 F  F8  1  0.93744  0.36936  0.00000  1
 F  F9  1  0.90139  0.11799  0.50000  1
 F  F10  1  0.12167  0.84479  0.00000  1
 F  F11  1  0.88201  0.78339  0.50000  1
 F  F12  1  0.72312  0.87833  0.00000  1
