CIF file written using JARVIS-Tools package.
data_DyAlO3
_symmetry_space_group_name_H-M  'Pnma'
_cell_length_a       5.20463
_cell_length_b       5.35994
_cell_length_c       7.42348
_cell_angle_alpha    90
_cell_angle_beta     90
_cell_angle_gamma    90

_symmetry_Int_Tables_number  62
_chemical_formula_structural  DyAlO3
_chemical_formula_sum  Dy4Al4O2
_cell_volume  207.0890902537382
_cell_formula_units_Z  4
loop_
  _symmetry_equiv_pos_site_id
 _symmetry_equiv_pos_as_xyz
 1  'x, y, z'
loop_
 _atom_site_type_symbol
 _atom_site_label
 _atom_site_symmetry_multiplicity
 _atom_site_fract_x
 _atom_site_fract_y
 _atom_site_fract_z
 _atom_site_fract_occupancy
 Al  Al1  1  0.00000  0.50000  0.00000  1
 Al  Al2  1  0.00000  0.50000  0.50000  1
 Al  Al3  1  0.50000  0.00000  0.00000  1
 Al  Al4  1  0.50000  0.00000  0.50000  1
 Dy  Dy1  1  0.01273  0.94643  0.75000  1
 Dy  Dy2  1  0.48727  0.44643  0.75000  1
 Dy  Dy3  1  0.51273  0.55357  0.25000  1
 Dy  Dy4  1  0.98727  0.05357  0.25000  1
 O  O1  1  0.08578  0.47771  0.25000  1
 O  O2  1  0.79406  0.79356  0.45477  1
 O  O3  1  0.20594  0.20644  0.95477  1
 O  O4  1  0.29406  0.70644  0.54523  1
 O  O5  1  0.20594  0.20644  0.54523  1
 O  O6  1  0.70594  0.29356  0.45477  1
 O  O7  1  0.58578  0.02229  0.75000  1
 O  O8  1  0.70594  0.29356  0.04523  1
 O  O9  1  0.29406  0.70644  0.95477  1
 O  O10  1  0.79406  0.79356  0.04523  1
 O  O11  1  0.41422  0.97771  0.25000  1
 O  O12  1  0.91422  0.52229  0.75000  1
