CIF file written using JARVIS-Tools package.
data_C3N4
_symmetry_space_group_name_H-M  'R3m'
_cell_length_a       4.17029
_cell_length_b       4.17029
_cell_length_c       4.17029
_cell_angle_alpha    69.9824
_cell_angle_beta     69.9823
_cell_angle_gamma    69.9824

_symmetry_Int_Tables_number  160
_chemical_formula_structural  C3N4
_chemical_formula_sum  C3N4
_cell_volume  61.91143893726812
_cell_formula_units_Z  1
loop_
  _symmetry_equiv_pos_site_id
 _symmetry_equiv_pos_as_xyz
 1  'x, y, z'
loop_
 _atom_site_type_symbol
 _atom_site_label
 _atom_site_symmetry_multiplicity
 _atom_site_fract_x
 _atom_site_fract_y
 _atom_site_fract_z
 _atom_site_fract_occupancy
 C  C1  1  0.50966  0.50966  0.98121  1
 C  C2  1  0.50966  0.98121  0.50966  1
 C  C3  1  0.98121  0.50966  0.50966  1
 N  N1  1  0.34175  0.82917  0.82917  1
 N  N2  1  0.82917  0.82917  0.34175  1
 N  N3  1  0.33439  0.33439  0.33439  1
 N  N4  1  0.82917  0.34175  0.82917  1
