CIF file written using JARVIS-Tools package.
data_Li2MnF4
_symmetry_space_group_name_H-M  'Pmmn'
_cell_length_a       4.97081
_cell_length_b       5.70228
_cell_length_c       10.3409
_cell_angle_alpha    90
_cell_angle_beta     90
_cell_angle_gamma    90

_symmetry_Int_Tables_number  59
_chemical_formula_structural  Li2MnF4
_chemical_formula_sum  Li8Mn4F6
_cell_volume  293.1123040185597
_cell_formula_units_Z  4
loop_
  _symmetry_equiv_pos_site_id
 _symmetry_equiv_pos_as_xyz
 1  'x, y, z'
loop_
 _atom_site_type_symbol
 _atom_site_label
 _atom_site_symmetry_multiplicity
 _atom_site_fract_x
 _atom_site_fract_y
 _atom_site_fract_z
 _atom_site_fract_occupancy
 F  F1  1  0.19639  0.00000  0.15064  1
 F  F2  1  0.66810  0.25053  0.87010  1
 F  F3  1  0.66810  0.74947  0.12990  1
 F  F4  1  0.15163  0.50000  0.85612  1
 F  F5  1  0.19639  0.00000  0.84936  1
 F  F6  1  0.80361  0.50000  0.65064  1
 F  F7  1  0.84837  0.00000  0.64388  1
 F  F8  1  0.66810  0.74947  0.87010  1
 F  F9  1  0.33190  0.24947  0.62990  1
 F  F10  1  0.33190  0.75053  0.37010  1
 F  F11  1  0.33190  0.24947  0.37010  1
 F  F12  1  0.84837  0.00000  0.35612  1
 F  F13  1  0.80361  0.50000  0.34936  1
 F  F14  1  0.66810  0.25053  0.12990  1
 F  F15  1  0.15163  0.50000  0.14388  1
 F  F16  1  0.33190  0.75053  0.62990  1
 Li  Li1  1  0.48877  0.50000  0.22729  1
 Li  Li2  1  0.00000  0.25000  0.25000  1
 Li  Li3  1  0.00000  0.75000  0.25000  1
 Li  Li4  1  0.51123  0.00000  0.27271  1
 Li  Li5  1  0.51123  0.00000  0.72729  1
 Li  Li6  1  0.00000  0.25000  0.75000  1
 Li  Li7  1  0.00000  0.75000  0.75000  1
 Li  Li8  1  0.48877  0.50000  0.77271  1
 Mn  Mn1  1  0.46573  0.00000  0.00000  1
 Mn  Mn2  1  0.86446  0.50000  0.00000  1
 Mn  Mn3  1  0.13554  0.00000  0.50000  1
 Mn  Mn4  1  0.53427  0.50000  0.50000  1
