CIF file written using JARVIS-Tools package.
data_BaCuB2O5
_symmetry_space_group_name_H-M  'C2'
_cell_length_a       4.01539
_cell_length_b       5.65098
_cell_length_c       5.65099
_cell_angle_alpha    109.561
_cell_angle_beta     93.8348
_cell_angle_gamma    93.8344

_symmetry_Int_Tables_number  5
_chemical_formula_structural  BaCuB2O5
_chemical_formula_sum  BaCuB2O5
_cell_volume  120.01080584549337
_cell_formula_units_Z  1
loop_
  _symmetry_equiv_pos_site_id
 _symmetry_equiv_pos_as_xyz
 1  'x, y, z'
loop_
 _atom_site_type_symbol
 _atom_site_label
 _atom_site_symmetry_multiplicity
 _atom_site_fract_x
 _atom_site_fract_y
 _atom_site_fract_z
 _atom_site_fract_occupancy
 B  B1  1  0.40140  0.87100  0.48550  1
 B  B2  1  0.59860  0.51450  0.12900  1
 Ba  Ba1  1  0.00000  0.99597  0.00403  1
 Cu  Cu1  1  0.50000  0.40722  0.59278  1
 O  O1  1  0.50000  0.76206  0.23794  1
 O  O2  1  0.53517  0.33360  0.23564  1
 O  O3  1  0.46483  0.76436  0.66640  1
 O  O4  1  0.23842  0.08315  0.53866  1
 O  O5  1  0.76158  0.46134  0.91685  1
