CIF file written using JARVIS-Tools package.
data_NaDyO2
_symmetry_space_group_name_H-M  'I4_1/amd'
_cell_length_a       6.07307
_cell_length_b       6.07307
_cell_length_c       6.07307
_cell_angle_alpha    135.294
_cell_angle_beta     135.294
_cell_angle_gamma    65.0734

_symmetry_Int_Tables_number  141
_chemical_formula_structural  NaDyO2
_chemical_formula_sum  Na2Dy2O4
_cell_volume  109.24737080565605
_cell_formula_units_Z  2
loop_
  _symmetry_equiv_pos_site_id
 _symmetry_equiv_pos_as_xyz
 1  'x, y, z'
loop_
 _atom_site_type_symbol
 _atom_site_label
 _atom_site_symmetry_multiplicity
 _atom_site_fract_x
 _atom_site_fract_y
 _atom_site_fract_z
 _atom_site_fract_occupancy
 Dy  Dy1  1  0.50000  0.50000  0.00000  1
 Dy  Dy2  1  0.25000  0.75000  0.50000  1
 Na  Na1  1  0.00000  0.00000  0.00000  1
 Na  Na2  1  0.75000  0.25000  0.50000  1
 O  O1  1  0.47369  0.97369  0.50000  1
 O  O2  1  0.27631  0.27631  -0.00000  1
 O  O3  1  0.72369  0.72369  0.00000  1
 O  O4  1  0.02631  0.52631  0.50000  1
