CIF file written using JARVIS-Tools package.
data_TbCeO4
_symmetry_space_group_name_H-M  'I4_1/amd'
_cell_length_a       5.45779
_cell_length_b       6.67012
_cell_length_c       6.67012
_cell_angle_alpha    109.301
_cell_angle_beta     65.849
_cell_angle_gamma    65.849

_symmetry_Int_Tables_number  141
_chemical_formula_structural  TbCeO4
_chemical_formula_sum  Tb2Ce2O8
_cell_volume  162.03506929354882
_cell_formula_units_Z  2
loop_
  _symmetry_equiv_pos_site_id
 _symmetry_equiv_pos_as_xyz
 1  'x, y, z'
loop_
 _atom_site_type_symbol
 _atom_site_label
 _atom_site_symmetry_multiplicity
 _atom_site_fract_x
 _atom_site_fract_y
 _atom_site_fract_z
 _atom_site_fract_occupancy
 Ce  Ce1  1  0.75000  0.12500  0.37500  1
 Ce  Ce2  1  0.25000  0.87500  0.62500  1
 O  O1  1  0.24654  0.00001  0.00002  1
 O  O2  1  0.25346  0.49998  0.49999  1
 O  O3  1  0.74659  0.75345  0.25343  1
 O  O4  1  0.75341  0.24657  0.74655  1
 O  O5  1  0.24659  0.75343  0.25345  1
 O  O6  1  0.25341  0.24655  0.74657  1
 O  O7  1  0.74654  0.50002  0.50001  1
 O  O8  1  0.75346  -0.00001  -0.00002  1
 Tb  Tb1  1  0.25000  0.37500  0.12500  1
 Tb  Tb2  1  0.75000  0.62500  0.87500  1
