CIF file written using JARVIS-Tools package.
data_W2Se3S
_symmetry_space_group_name_H-M  'P3m1'
_cell_length_a       3.29221
_cell_length_b       3.29221
_cell_length_c       35.093
_cell_angle_alpha    90.0003
_cell_angle_beta     90
_cell_angle_gamma    120

_symmetry_Int_Tables_number  156
_chemical_formula_structural  W2Se3S
_chemical_formula_sum  W4Se6S2
_cell_volume  329.40209190422667
_cell_formula_units_Z  2
loop_
  _symmetry_equiv_pos_site_id
 _symmetry_equiv_pos_as_xyz
 1  'x, y, z'
loop_
 _atom_site_type_symbol
 _atom_site_label
 _atom_site_symmetry_multiplicity
 _atom_site_fract_x
 _atom_site_fract_y
 _atom_site_fract_z
 _atom_site_fract_occupancy
 S  S1  1  0.66665  0.33329  0.05268  1
 S  S2  1  0.66665  0.33330  0.14056  1
 Se  Se1  1  0.33333  0.66666  0.32772  1
 Se  Se2  1  0.33335  0.66670  0.70641  1
 Se  Se3  1  0.66666  0.33332  0.42045  1
 Se  Se4  1  0.66668  0.33335  0.51708  1
 Se  Se5  1  0.33334  0.66668  0.23110  1
 Se  Se6  1  0.33334  0.66669  0.60983  1
 W  W1  1  0.33331  0.66663  0.09660  1
 W  W2  1  0.33333  0.66667  0.46876  1
 W  W3  1  0.66666  0.33333  0.27941  1
 W  W4  1  0.66668  0.33337  0.65815  1
