CIF file written using JARVIS-Tools package.
data_NaAgN2O4
_symmetry_space_group_name_H-M  'F222'
_cell_length_a       6.56935
_cell_length_b       6.56934
_cell_length_c       6.77066
_cell_angle_alpha    109.601
_cell_angle_beta     109.601
_cell_angle_gamma    107.97

_symmetry_Int_Tables_number  22
_chemical_formula_structural  NaAgN2O4
_chemical_formula_sum  Na2Ag2N4O8
_cell_volume  228.2711321464369
_cell_formula_units_Z  2
loop_
  _symmetry_equiv_pos_site_id
 _symmetry_equiv_pos_as_xyz
 1  'x, y, z'
loop_
 _atom_site_type_symbol
 _atom_site_label
 _atom_site_symmetry_multiplicity
 _atom_site_fract_x
 _atom_site_fract_y
 _atom_site_fract_z
 _atom_site_fract_occupancy
 Ag  Ag1  1  0.75000  0.25000  0.50000  1
 Ag  Ag2  1  0.00000  0.00000  0.00000  1
 N  N1  1  0.02060  0.97940  0.50000  1
 N  N2  1  0.47940  0.52060  0.50000  1
 N  N3  1  0.79704  0.20296  0.00000  1
 N  N4  1  0.20296  0.79704  -0.00000  1
 Na  Na1  1  0.25000  0.75000  0.50000  1
 Na  Na2  1  0.50000  0.50000  -0.00000  1
 O  O1  1  0.59407  0.12446  0.82059  1
 O  O2  1  0.82858  0.91685  0.31444  1
 O  O3  1  0.30386  0.77348  0.17941  1
 O  O4  1  0.48586  0.39759  0.31444  1
 O  O5  1  0.60241  0.51414  0.68556  1
 O  O6  1  0.87554  0.40593  0.17941  1
 O  O7  1  0.22652  0.69614  0.82059  1
 O  O8  1  0.08315  0.17142  0.68556  1
