CIF file written using JARVIS-Tools package.
data_Li2SO4
_symmetry_space_group_name_H-M  'Cmcm'
_cell_length_a       4.90893
_cell_length_b       4.90893
_cell_length_c       6.09333
_cell_angle_alpha    90
_cell_angle_beta     90
_cell_angle_gamma    111.93

_symmetry_Int_Tables_number  63
_chemical_formula_structural  Li2SO4
_chemical_formula_sum  Li4S2O8
_cell_volume  136.21020746692187
_cell_formula_units_Z  2
loop_
  _symmetry_equiv_pos_site_id
 _symmetry_equiv_pos_as_xyz
 1  'x, y, z'
loop_
 _atom_site_type_symbol
 _atom_site_label
 _atom_site_symmetry_multiplicity
 _atom_site_fract_x
 _atom_site_fract_y
 _atom_site_fract_z
 _atom_site_fract_occupancy
 Li  Li1  1  0.50000  0.50000  0.00000  1
 Li  Li2  1  0.17379  0.82621  0.75000  1
 Li  Li3  1  0.50000  0.50000  0.50000  1
 Li  Li4  1  0.82621  0.17379  0.25000  1
 O  O1  1  0.74546  0.81827  0.75000  1
 O  O2  1  0.18173  0.25454  0.75000  1
 O  O3  1  0.74840  0.25160  0.94720  1
 O  O4  1  0.25454  0.18173  0.25000  1
 O  O5  1  0.74840  0.25160  0.55280  1
 O  O6  1  0.81827  0.74546  0.25000  1
 O  O7  1  0.25160  0.74840  0.05280  1
 O  O8  1  0.25160  0.74840  0.44720  1
 S  S1  1  0.14663  0.85337  0.25000  1
 S  S2  1  0.85337  0.14663  0.75000  1
