CIF file written using JARVIS-Tools package.
data_LiCrSiO4
_symmetry_space_group_name_H-M  'Pnma'
_cell_length_a       4.70869
_cell_length_b       6.06274
_cell_length_c       10.0433
_cell_angle_alpha    90
_cell_angle_beta     90
_cell_angle_gamma    90

_symmetry_Int_Tables_number  62
_chemical_formula_structural  LiCrSiO4
_chemical_formula_sum  Li4Cr4Si4O6
_cell_volume  286.71193586466956
_cell_formula_units_Z  4
loop_
  _symmetry_equiv_pos_site_id
 _symmetry_equiv_pos_as_xyz
 1  'x, y, z'
loop_
 _atom_site_type_symbol
 _atom_site_label
 _atom_site_symmetry_multiplicity
 _atom_site_fract_x
 _atom_site_fract_y
 _atom_site_fract_z
 _atom_site_fract_occupancy
 Cr  Cr1  1  -0.00000  0.25653  0.50000  1
 Cr  Cr2  1  0.50000  0.25653  -0.00000  1
 Cr  Cr3  1  0.50000  0.75653  0.00000  1
 Cr  Cr4  1  0.00000  0.75653  0.50000  1
 Li  Li1  1  0.02247  0.00653  0.21625  1
 Li  Li2  1  0.47753  0.00653  0.71625  1
 Li  Li3  1  0.52247  0.50653  0.28375  1
 Li  Li4  1  0.97753  0.50653  0.78375  1
 O  O1  1  0.22159  0.28061  0.15118  1
 O  O2  1  0.27841  0.73244  0.65118  1
 O  O3  1  0.27098  0.00653  0.91760  1
 O  O4  1  0.25057  0.50653  0.94162  1
 O  O5  1  0.22159  0.73244  0.15118  1
 O  O6  1  0.77841  0.78061  0.84882  1
 O  O7  1  0.24943  0.50653  0.44162  1
 O  O8  1  0.22902  0.00653  0.41760  1
 O  O9  1  0.75057  0.00653  0.55838  1
 O  O10  1  0.77098  0.50653  0.58240  1
 O  O11  1  0.72159  0.23244  0.34882  1
 O  O12  1  0.72902  0.50653  0.08240  1
 O  O13  1  0.27841  0.28061  0.65118  1
 O  O14  1  0.77841  0.23244  0.84882  1
 O  O15  1  0.72159  0.78061  0.34882  1
 O  O16  1  0.74943  0.00653  0.05838  1
 Si  Si1  1  0.07817  0.50653  0.09233  1
 Si  Si2  1  0.42183  0.50653  0.59233  1
 Si  Si3  1  0.57817  0.00653  0.40767  1
 Si  Si4  1  0.92183  0.00653  0.90767  1
