CIF file written using JARVIS-Tools package.
data_HgC2S2N2
_symmetry_space_group_name_H-M  'C2/m'
_cell_length_a       3.97326
_cell_length_b       5.81292
_cell_length_c       6.38395
_cell_angle_alpha    93.6641
_cell_angle_beta     90.0001
_cell_angle_gamma    109.993

_symmetry_Int_Tables_number  12
_chemical_formula_structural  HgC2S2N2
_chemical_formula_sum  HgC2S2N2
_cell_volume  138.2381101937874
_cell_formula_units_Z  1
loop_
  _symmetry_equiv_pos_site_id
 _symmetry_equiv_pos_as_xyz
 1  'x, y, z'
loop_
 _atom_site_type_symbol
 _atom_site_label
 _atom_site_symmetry_multiplicity
 _atom_site_fract_x
 _atom_site_fract_y
 _atom_site_fract_z
 _atom_site_fract_occupancy
 C  C1  1  0.74030  0.47494  0.77364  1
 C  C2  1  0.26443  0.52290  0.22524  1
 Hg  Hg1  1  0.00217  0.99892  -0.00056  1
 N  N1  1  0.64325  0.28061  0.84318  1
 N  N2  1  0.36145  0.71723  0.15569  1
 S  S1  1  0.87390  0.74252  0.66848  1
 S  S2  1  0.13088  0.25532  0.33040  1
