CIF file written using JARVIS-Tools package.
data_HoIO
_symmetry_space_group_name_H-M  'P4/nmm'
_cell_length_a       3.91083
_cell_length_b       3.91083
_cell_length_c       9.21385
_cell_angle_alpha    90
_cell_angle_beta     90
_cell_angle_gamma    90

_symmetry_Int_Tables_number  129
_chemical_formula_structural  HoIO
_chemical_formula_sum  Ho2I2O2
_cell_volume  140.9222586801229
_cell_formula_units_Z  2
loop_
  _symmetry_equiv_pos_site_id
 _symmetry_equiv_pos_as_xyz
 1  'x, y, z'
loop_
 _atom_site_type_symbol
 _atom_site_label
 _atom_site_symmetry_multiplicity
 _atom_site_fract_x
 _atom_site_fract_y
 _atom_site_fract_z
 _atom_site_fract_occupancy
 Ho  Ho1  1  0.25000  0.25000  0.88131  1
 Ho  Ho2  1  0.75000  0.75000  0.11869  1
 I  I1  1  0.25000  0.25000  0.32348  1
 I  I2  1  0.75000  0.75000  0.67652  1
 O  O1  1  0.25000  0.75000  0.00000  1
 O  O2  1  0.75000  0.25000  0.00000  1
