CIF file written using JARVIS-Tools package.
data_V2ZnO4
_symmetry_space_group_name_H-M  'R3m'
_cell_length_a       6.03588
_cell_length_b       5.92797
_cell_length_c       5.92797
_cell_angle_alpha    60
_cell_angle_beta     60.5896
_cell_angle_gamma    60.5895

_symmetry_Int_Tables_number  160
_chemical_formula_structural  V2ZnO4
_chemical_formula_sum  V4Zn2O8
_cell_volume  151.30431233588405
_cell_formula_units_Z  2
loop_
  _symmetry_equiv_pos_site_id
 _symmetry_equiv_pos_as_xyz
 1  'x, y, z'
loop_
 _atom_site_type_symbol
 _atom_site_label
 _atom_site_symmetry_multiplicity
 _atom_site_fract_x
 _atom_site_fract_y
 _atom_site_fract_z
 _atom_site_fract_occupancy
 O  O1  1  0.39399  0.37295  0.37295  1
 O  O2  1  0.39399  0.37295  0.86012  1
 O  O3  1  0.39399  0.86012  0.37295  1
 O  O4  1  0.85658  0.38114  0.38114  1
 O  O5  1  0.39968  0.86677  0.86677  1
 O  O6  1  0.85611  0.40480  0.86954  1
 O  O7  1  0.85611  0.86954  0.40480  1
 O  O8  1  0.85611  0.86954  0.86954  1
 V  V1  1  0.24825  0.25058  0.25058  1
 V  V2  1  0.62572  0.11989  0.62720  1
 V  V3  1  0.62572  0.62720  0.11989  1
 V  V4  1  0.62572  0.62720  0.62720  1
 Zn  Zn1  1  0.99361  0.00213  0.00213  1
 Zn  Zn2  1  0.12442  0.62519  0.62519  1
