CIF file written using JARVIS-Tools package.
data_PuP3
_symmetry_space_group_name_H-M  'P6_3/mmc'
_cell_length_a       5.6084
_cell_length_b       5.6084
_cell_length_c       5.40953
_cell_angle_alpha    90
_cell_angle_beta     90
_cell_angle_gamma    120

_symmetry_Int_Tables_number  194
_chemical_formula_structural  PuP3
_chemical_formula_sum  Pu2P6
_cell_volume  147.35635755361966
_cell_formula_units_Z  2
loop_
  _symmetry_equiv_pos_site_id
 _symmetry_equiv_pos_as_xyz
 1  'x, y, z'
loop_
 _atom_site_type_symbol
 _atom_site_label
 _atom_site_symmetry_multiplicity
 _atom_site_fract_x
 _atom_site_fract_y
 _atom_site_fract_z
 _atom_site_fract_occupancy
 P  P1  1  0.19437  0.80563  0.75000  1
 P  P2  1  0.61125  0.80563  0.75000  1
 P  P3  1  0.19437  0.38875  0.75000  1
 P  P4  1  0.80563  0.19437  0.25000  1
 P  P5  1  0.38875  0.19437  0.25000  1
 P  P6  1  0.80563  0.61125  0.25000  1
 Pu  Pu1  1  0.33333  0.66667  0.25000  1
 Pu  Pu2  1  0.66667  0.33333  0.75000  1
