CIF file written using JARVIS-Tools package.
data_Li3Mn5OF11
_symmetry_space_group_name_H-M  'P1'
_cell_length_a       5.28356
_cell_length_b       5.63743
_cell_length_c       9.40254
_cell_angle_alpha    71.4081
_cell_angle_beta     105.252
_cell_angle_gamma    117.155

_symmetry_Int_Tables_number  1
_chemical_formula_structural  Li3Mn5OF11
_chemical_formula_sum  Li3Mn5OF
_cell_volume  233.88164715741695
_cell_formula_units_Z  1
loop_
  _symmetry_equiv_pos_site_id
 _symmetry_equiv_pos_as_xyz
 1  'x, y, z'
loop_
 _atom_site_type_symbol
 _atom_site_label
 _atom_site_symmetry_multiplicity
 _atom_site_fract_x
 _atom_site_fract_y
 _atom_site_fract_z
 _atom_site_fract_occupancy
 F  F1  1  0.40231  0.51262  0.68280  1
 F  F2  1  0.91350  0.01287  0.20958  1
 F  F3  1  0.52380  0.38527  0.31007  1
 F  F4  1  0.03142  0.93147  0.79276  1
 F  F5  1  0.43393  0.14770  0.05277  1
 F  F6  1  0.44752  0.83247  0.35082  1
 F  F7  1  0.95663  0.37904  0.84796  1
 F  F8  1  -0.00415  0.57651  0.11082  1
 F  F9  1  0.04837  0.26040  0.44096  1
 F  F10  1  0.49850  0.08953  0.61269  1
 F  F11  1  0.92120  0.65289  0.54237  1
 Li  Li1  1  0.29935  0.80503  0.77560  1
 Li  Li2  1  0.76793  0.25958  0.25630  1
 Li  Li3  1  0.51322  0.53223  0.49701  1
 Mn  Mn1  1  0.66747  0.50457  0.89312  1
 Mn  Mn2  1  0.20996  0.98803  0.41090  1
 Mn  Mn3  1  0.94795  0.26593  0.63768  1
 Mn  Mn4  1  0.98645  0.01469  -0.00022  1
 Mn  Mn5  1  0.44194  0.71048  0.14775  1
 O  O1  1  0.56734  0.76311  0.95313  1
