CIF file written using JARVIS-Tools package.
data_MgTiF4
_symmetry_space_group_name_H-M  'C2/c'
_cell_length_a       5.13588
_cell_length_b       5.14199
_cell_length_c       6.49006
_cell_angle_alpha    118.903
_cell_angle_beta     113.305
_cell_angle_gamma    90.0008

_symmetry_Int_Tables_number  15
_chemical_formula_structural  MgTiF4
_chemical_formula_sum  Mg2Ti2F8
_cell_volume  133.84875787267742
_cell_formula_units_Z  2
loop_
  _symmetry_equiv_pos_site_id
 _symmetry_equiv_pos_as_xyz
 1  'x, y, z'
loop_
 _atom_site_type_symbol
 _atom_site_label
 _atom_site_symmetry_multiplicity
 _atom_site_fract_x
 _atom_site_fract_y
 _atom_site_fract_z
 _atom_site_fract_occupancy
 F  F1  1  0.42533  0.87704  0.26088  1
 F  F2  1  0.17728  0.55391  0.75514  1
 F  F3  1  0.57564  0.12174  0.73750  1
 F  F4  1  0.66371  0.62176  0.73753  1
 F  F5  1  0.82368  0.44491  0.24324  1
 F  F6  1  0.92131  0.94493  0.24332  1
 F  F7  1  0.33729  0.37705  0.26091  1
 F  F8  1  0.07967  0.05388  0.75510  1
 Mg  Mg1  1  0.29146  0.24937  0.49921  1
 Mg  Mg2  1  0.70950  0.74941  0.49919  1
 Ti  Ti1  1  0.00049  0.49940  -0.00080  1
 Ti  Ti2  1  0.50049  -0.00059  -0.00079  1
