CIF file written using JARVIS-Tools package.
data_MnS2
_symmetry_space_group_name_H-M  'R-3m'
_cell_length_a       6.52816
_cell_length_b       6.52817
_cell_length_c       6.52817
_cell_angle_alpha    27.8269
_cell_angle_beta     27.8269
_cell_angle_gamma    27.8269

_symmetry_Int_Tables_number  166
_chemical_formula_structural  MnS2
_chemical_formula_sum  MnS2
_cell_volume  53.532024670854504
_cell_formula_units_Z  1
loop_
  _symmetry_equiv_pos_site_id
 _symmetry_equiv_pos_as_xyz
 1  'x, y, z'
loop_
 _atom_site_type_symbol
 _atom_site_label
 _atom_site_symmetry_multiplicity
 _atom_site_fract_x
 _atom_site_fract_y
 _atom_site_fract_z
 _atom_site_fract_occupancy
 Mn  Mn1  1  0.00000  0.00000  0.00000  1
 S  S1  1  0.59310  0.59310  0.59310  1
 S  S2  1  0.40690  0.40690  0.40690  1
