CIF file written using JARVIS-Tools package.
data_SrTa2Bi2O9
_symmetry_space_group_name_H-M  'I4/mmm'
_cell_length_a       3.93404
_cell_length_b       3.93404
_cell_length_c       12.7247
_cell_angle_alpha    98.8926
_cell_angle_beta     98.8926
_cell_angle_gamma    89.9999

_symmetry_Int_Tables_number  139
_chemical_formula_structural  SrTa2Bi2O9
_chemical_formula_sum  SrTa2Bi2O9
_cell_volume  192.17295284031403
_cell_formula_units_Z  1
loop_
  _symmetry_equiv_pos_site_id
 _symmetry_equiv_pos_as_xyz
 1  'x, y, z'
loop_
 _atom_site_type_symbol
 _atom_site_label
 _atom_site_symmetry_multiplicity
 _atom_site_fract_x
 _atom_site_fract_y
 _atom_site_fract_z
 _atom_site_fract_occupancy
 Bi  Bi1  1  0.19997  0.19997  0.39994  1
 Bi  Bi2  1  0.80003  0.80003  0.60006  1
 O  O1  1  0.07726  0.57726  0.15452  1
 O  O2  1  0.25000  0.75000  0.50000  1
 O  O3  1  0.42274  0.92274  0.84548  1
 O  O4  1  0.50000  0.50000  -0.00000  1
 O  O5  1  0.92274  0.42274  0.84548  1
 O  O6  1  0.33755  0.33755  0.67510  1
 O  O7  1  0.57726  0.07726  0.15452  1
 O  O8  1  0.75000  0.25000  0.50000  1
 O  O9  1  0.66245  0.66245  0.32490  1
 Sr  Sr1  1  0.00000  0.00000  0.00000  1
 Ta  Ta1  1  0.58606  0.58606  0.17213  1
 Ta  Ta2  1  0.41394  0.41394  0.82787  1
