CIF file written using JARVIS-Tools package.
data_Mn2GeS4
_symmetry_space_group_name_H-M  'Pnma'
_cell_length_a       6.06581
_cell_length_b       7.37054
_cell_length_c       12.6559
_cell_angle_alpha    90.0002
_cell_angle_beta     90.0003
_cell_angle_gamma    89.9999

_symmetry_Int_Tables_number  62
_chemical_formula_structural  Mn2GeS4
_chemical_formula_sum  Mn8Ge4S6
_cell_volume  565.8220062229732
_cell_formula_units_Z  4
loop_
  _symmetry_equiv_pos_site_id
 _symmetry_equiv_pos_as_xyz
 1  'x, y, z'
loop_
 _atom_site_type_symbol
 _atom_site_label
 _atom_site_symmetry_multiplicity
 _atom_site_fract_x
 _atom_site_fract_y
 _atom_site_fract_z
 _atom_site_fract_occupancy
 Ge  Ge1  1  0.58270  0.74998  0.91081  1
 Ge  Ge2  1  0.08260  0.25003  0.58919  1
 Ge  Ge3  1  0.91729  0.75002  0.41081  1
 Ge  Ge4  1  0.41741  0.24998  0.08919  1
 Mn  Mn1  1  0.49990  0.50005  0.50002  1
 Mn  Mn2  1  0.00008  0.49997  -0.00001  1
 Mn  Mn3  1  0.49296  0.74999  0.23099  1
 Mn  Mn4  1  0.99289  0.25002  0.26901  1
 Mn  Mn5  1  0.49992  0.00002  0.50000  1
 Mn  Mn6  1  0.50709  0.24998  0.76901  1
 Mn  Mn7  1  0.00706  0.75003  0.73098  1
 Mn  Mn8  1  0.00010  0.99994  0.00002  1
 S  S1  1  0.75378  0.98855  0.83207  1
 S  S2  1  0.25373  0.01148  0.66794  1
 S  S3  1  0.74620  0.98857  0.33206  1
 S  S4  1  0.21327  0.74997  0.90791  1
 S  S5  1  0.28672  0.75002  0.40791  1
 S  S6  1  0.24629  0.01145  0.16795  1
 S  S7  1  0.25376  0.24997  0.92702  1
 S  S8  1  0.74634  0.74996  0.07298  1
 S  S9  1  0.24623  0.25003  0.42702  1
 S  S10  1  0.25373  0.48856  0.66795  1
 S  S11  1  0.78683  0.24997  0.09206  1
 S  S12  1  0.75378  0.51142  0.83207  1
 S  S13  1  0.74620  0.51145  0.33207  1
 S  S14  1  0.24628  0.48854  0.16793  1
 S  S15  1  0.71318  0.25002  0.59206  1
 S  S16  1  0.75367  0.75003  0.57298  1
