CIF file written using JARVIS-Tools package.
data_Rb4CO4
_symmetry_space_group_name_H-M  'Cm'
_cell_length_a       6.64954
_cell_length_b       5.82854
_cell_length_c       5.82854
_cell_angle_alpha    85.5231
_cell_angle_beta     108.052
_cell_angle_gamma    108.052

_symmetry_Int_Tables_number  8
_chemical_formula_structural  Rb4CO4
_chemical_formula_sum  Rb4CO4
_cell_volume  204.16358148202815
_cell_formula_units_Z  1
loop_
  _symmetry_equiv_pos_site_id
 _symmetry_equiv_pos_as_xyz
 1  'x, y, z'
loop_
 _atom_site_type_symbol
 _atom_site_label
 _atom_site_symmetry_multiplicity
 _atom_site_fract_x
 _atom_site_fract_y
 _atom_site_fract_z
 _atom_site_fract_occupancy
 C  C1  1  0.41101  0.98166  0.98166  1
 O  O1  1  0.32487  0.87860  0.17222  1
 O  O2  1  0.32487  0.17222  0.87860  1
 O  O3  1  0.65555  0.07588  0.07588  1
 O  O4  1  0.35239  0.80030  0.80030  1
 Rb  Rb1  1  0.64089  0.05881  0.57524  1
 Rb  Rb2  1  0.09397  0.98779  0.42924  1
 Rb  Rb3  1  0.64089  0.57524  0.05881  1
 Rb  Rb4  1  0.09397  0.42924  0.98779  1
