CIF file written using JARVIS-Tools package.
data_TiOF
_symmetry_space_group_name_H-M  'Pmmn'
_cell_length_a       4.01702
_cell_length_b       5.66043
_cell_length_c       3.05819
_cell_angle_alpha    90.0002
_cell_angle_beta     90
_cell_angle_gamma    90.0005

_symmetry_Int_Tables_number  59
_chemical_formula_structural  TiOF
_chemical_formula_sum  Ti2O2F2
_cell_volume  69.53722899126036
_cell_formula_units_Z  2
loop_
  _symmetry_equiv_pos_site_id
 _symmetry_equiv_pos_as_xyz
 1  'x, y, z'
loop_
 _atom_site_type_symbol
 _atom_site_label
 _atom_site_symmetry_multiplicity
 _atom_site_fract_x
 _atom_site_fract_y
 _atom_site_fract_z
 _atom_site_fract_occupancy
 F  F1  1  0.25000  0.36166  0.25000  1
 F  F2  1  0.74999  0.63834  0.75000  1
 O  O1  1  0.25000  0.88583  0.25000  1
 O  O2  1  0.75000  0.11417  0.75000  1
 Ti  Ti1  1  0.25000  0.13114  0.75000  1
 Ti  Ti2  1  0.75000  0.86886  0.25000  1
