CIF file written using JARVIS-Tools package.
data_SiO2
_symmetry_space_group_name_H-M  'R-3c'
_cell_length_a       9.61132
_cell_length_b       9.61133
_cell_length_c       9.61133
_cell_angle_alpha    117.338
_cell_angle_beta     117.338
_cell_angle_gamma    117.338

_symmetry_Int_Tables_number  167
_chemical_formula_structural  SiO2
_chemical_formula_sum  Si6O2
_cell_volume  369.9027919654805
_cell_formula_units_Z  6
loop_
  _symmetry_equiv_pos_site_id
 _symmetry_equiv_pos_as_xyz
 1  'x, y, z'
loop_
 _atom_site_type_symbol
 _atom_site_label
 _atom_site_symmetry_multiplicity
 _atom_site_fract_x
 _atom_site_fract_y
 _atom_site_fract_z
 _atom_site_fract_occupancy
 O  O1  1  0.51032  0.98968  0.25000  1
 O  O2  1  0.00000  0.50000  0.50000  1
 O  O3  1  0.98968  0.25000  0.51032  1
 O  O4  1  0.00000  0.50000  -0.00000  1
 O  O5  1  0.48968  0.01032  0.75000  1
 O  O6  1  0.01032  0.75000  0.48968  1
 O  O7  1  0.25000  0.51032  0.98968  1
 O  O8  1  0.50000  0.00000  0.00000  1
 O  O9  1  0.50000  0.50000  -0.00000  1
 O  O10  1  0.75000  0.48968  0.01032  1
 O  O11  1  -0.00000  -0.00000  0.50000  1
 O  O12  1  0.50000  -0.00000  0.50000  1
 Si  Si1  1  0.31739  0.75000  0.18261  1
 Si  Si2  1  0.68261  0.25000  0.81739  1
 Si  Si3  1  0.75000  0.18261  0.31739  1
 Si  Si4  1  0.25000  0.81739  0.68261  1
 Si  Si5  1  0.18261  0.31739  0.75000  1
 Si  Si6  1  0.81739  0.68261  0.25000  1
