CIF file written using JARVIS-Tools package.
data_Pr2O3
_symmetry_space_group_name_H-M  'C2/m'
_cell_length_a       3.74536
_cell_length_b       7.52054
_cell_length_c       9.12491
_cell_angle_alpha    99.4986
_cell_angle_beta     90
_cell_angle_gamma    104.419

_symmetry_Int_Tables_number  12
_chemical_formula_structural  Pr2O3
_chemical_formula_sum  Pr6O9
_cell_volume  245.28687369881433
_cell_formula_units_Z  3
loop_
  _symmetry_equiv_pos_site_id
 _symmetry_equiv_pos_as_xyz
 1  'x, y, z'
loop_
 _atom_site_type_symbol
 _atom_site_label
 _atom_site_symmetry_multiplicity
 _atom_site_fract_x
 _atom_site_fract_y
 _atom_site_fract_z
 _atom_site_fract_occupancy
 O  O1  1  0.12980  0.25960  0.28726  1
 O  O2  1  0.17541  0.35082  0.97402  1
 O  O3  1  0.47464  0.94928  0.34461  1
 O  O4  1  0.79928  0.59855  0.37100  1
 O  O5  1  0.87020  0.74040  0.71274  1
 O  O6  1  0.50000  0.00000  0.00000  1
 O  O7  1  0.52536  0.05072  0.65539  1
 O  O8  1  0.82459  0.64918  0.02598  1
 O  O9  1  0.20072  0.40145  0.62900  1
 Pr  Pr1  1  0.96569  0.93139  0.18898  1
 Pr  Pr2  1  0.03431  0.06861  0.81102  1
 Pr  Pr3  1  0.31009  0.62017  0.86192  1
 Pr  Pr4  1  0.63471  0.26942  0.48949  1
 Pr  Pr5  1  0.36529  0.73058  0.51051  1
 Pr  Pr6  1  0.68991  0.37983  0.13808  1
