CIF file written using JARVIS-Tools package.
data_Ca2Bi2O5
_symmetry_space_group_name_H-M  'Pbam'
_cell_length_a       4.43868
_cell_length_b       6.51458
_cell_length_c       10.044
_cell_angle_alpha    90
_cell_angle_beta     90
_cell_angle_gamma    90

_symmetry_Int_Tables_number  55
_chemical_formula_structural  Ca2Bi2O5
_chemical_formula_sum  Ca4Bi4O0
_cell_volume  290.4330169432512
_cell_formula_units_Z  2
loop_
  _symmetry_equiv_pos_site_id
 _symmetry_equiv_pos_as_xyz
 1  'x, y, z'
loop_
 _atom_site_type_symbol
 _atom_site_label
 _atom_site_symmetry_multiplicity
 _atom_site_fract_x
 _atom_site_fract_y
 _atom_site_fract_z
 _atom_site_fract_occupancy
 Bi  Bi1  1  0.00000  0.20378  0.60937  1
 Bi  Bi2  1  0.00000  0.79622  0.39063  1
 Bi  Bi3  1  0.00000  0.29622  0.10937  1
 Bi  Bi4  1  0.00000  0.70378  0.89063  1
 Ca  Ca1  1  0.50000  0.14712  0.86587  1
 Ca  Ca2  1  0.50000  0.85288  0.13413  1
 Ca  Ca3  1  0.50000  0.64712  0.63413  1
 Ca  Ca4  1  0.50000  0.35288  0.36587  1
 O  O1  1  0.00000  0.00000  0.00000  1
 O  O2  1  0.00000  0.17645  0.30924  1
 O  O3  1  0.00000  0.67645  0.19076  1
 O  O4  1  0.00000  0.50000  0.50000  1
 O  O5  1  0.50000  0.28397  0.62060  1
 O  O6  1  0.50000  0.78397  0.87940  1
 O  O7  1  0.00000  0.82355  0.69076  1
 O  O8  1  0.00000  0.32355  0.80924  1
 O  O9  1  0.50000  0.21603  0.12060  1
 O  O10  1  0.50000  0.71603  0.37940  1
