CIF file written using JARVIS-Tools package.
data_Li3BiS3
_symmetry_space_group_name_H-M  'R-3'
_cell_length_a       7.74897
_cell_length_b       7.74897
_cell_length_c       7.74897
_cell_angle_alpha    54.3036
_cell_angle_beta     54.3036
_cell_angle_gamma    54.3036

_symmetry_Int_Tables_number  148
_chemical_formula_structural  Li3BiS3
_chemical_formula_sum  Li6Bi2S6
_cell_volume  285.28872787874025
_cell_formula_units_Z  2
loop_
  _symmetry_equiv_pos_site_id
 _symmetry_equiv_pos_as_xyz
 1  'x, y, z'
loop_
 _atom_site_type_symbol
 _atom_site_label
 _atom_site_symmetry_multiplicity
 _atom_site_fract_x
 _atom_site_fract_y
 _atom_site_fract_z
 _atom_site_fract_occupancy
 Bi  Bi1  1  0.16919  0.16919  0.16919  1
 Bi  Bi2  1  0.83081  0.83081  0.83081  1
 Li  Li1  1  0.08317  0.36866  0.68641  1
 Li  Li2  1  0.31359  0.91683  0.63134  1
 Li  Li3  1  0.36866  0.68641  0.08317  1
 Li  Li4  1  0.63134  0.31359  0.91683  1
 Li  Li5  1  0.68641  0.08317  0.36866  1
 Li  Li6  1  0.91683  0.63134  0.31359  1
 S  S1  1  0.04793  0.76903  0.42028  1
 S  S2  1  0.23097  0.57972  0.95207  1
 S  S3  1  0.42028  0.04793  0.76903  1
 S  S4  1  0.57972  0.95207  0.23097  1
 S  S5  1  0.76903  0.42028  0.04793  1
 S  S6  1  0.95207  0.23097  0.57972  1
