CIF file written using JARVIS-Tools package.
data_TiO2
_symmetry_space_group_name_H-M  'Pmmn'
_cell_length_a       5.1833
_cell_length_b       5.98725
_cell_length_c       9.89318
_cell_angle_alpha    90
_cell_angle_beta     90
_cell_angle_gamma    90

_symmetry_Int_Tables_number  59
_chemical_formula_structural  TiO2
_chemical_formula_sum  Ti8O6
_cell_volume  307.0224354985597
_cell_formula_units_Z  8
loop_
  _symmetry_equiv_pos_site_id
 _symmetry_equiv_pos_as_xyz
 1  'x, y, z'
loop_
 _atom_site_type_symbol
 _atom_site_label
 _atom_site_symmetry_multiplicity
 _atom_site_fract_x
 _atom_site_fract_y
 _atom_site_fract_z
 _atom_site_fract_occupancy
 O  O1  1  0.33305  0.75109  0.65181  1
 O  O2  1  0.83339  0.50000  0.65051  1
 O  O3  1  0.83339  0.50000  0.34949  1
 O  O4  1  0.16661  0.00000  0.84949  1
 O  O5  1  0.66695  0.74891  0.84819  1
 O  O6  1  0.16705  0.50000  0.84553  1
 O  O7  1  0.16705  0.50000  0.15447  1
 O  O8  1  0.16661  0.00000  0.15051  1
 O  O9  1  0.83295  0.00000  0.34553  1
 O  O10  1  0.66695  0.25109  0.84819  1
 O  O11  1  0.66695  0.74891  0.15181  1
 O  O12  1  0.66695  0.25109  0.15181  1
 O  O13  1  0.33305  0.24891  0.34819  1
 O  O14  1  0.33305  0.24891  0.65181  1
 O  O15  1  0.33305  0.75109  0.34819  1
 O  O16  1  0.83295  0.00000  0.65447  1
 Ti  Ti1  1  0.00000  0.25000  0.25000  1
 Ti  Ti2  1  0.00000  0.75000  0.75000  1
 Ti  Ti3  1  0.00000  0.75000  0.25000  1
 Ti  Ti4  1  0.00000  0.25000  0.75000  1
 Ti  Ti5  1  0.50678  0.00000  0.23624  1
 Ti  Ti6  1  0.50678  0.00000  0.76376  1
 Ti  Ti7  1  0.49322  0.50000  0.26376  1
 Ti  Ti8  1  0.49322  0.50000  0.73624  1
