CIF file written using JARVIS-Tools package.
data_Tb2CaO4
_symmetry_space_group_name_H-M  'Fd-3m'
_cell_length_a       6.84565
_cell_length_b       6.84661
_cell_length_c       6.84566
_cell_angle_alpha    60.0046
_cell_angle_beta     90
_cell_angle_gamma    119.995

_symmetry_Int_Tables_number  227
_chemical_formula_structural  Tb2CaO4
_chemical_formula_sum  Tb4Ca2O8
_cell_volume  226.90899426151412
_cell_formula_units_Z  2
loop_
  _symmetry_equiv_pos_site_id
 _symmetry_equiv_pos_as_xyz
 1  'x, y, z'
loop_
 _atom_site_type_symbol
 _atom_site_label
 _atom_site_symmetry_multiplicity
 _atom_site_fract_x
 _atom_site_fract_y
 _atom_site_fract_z
 _atom_site_fract_occupancy
 Ca  Ca1  1  0.00000  0.00000  1.00000  1
 Ca  Ca2  1  0.75000  0.50000  0.75000  1
 O  O1  1  0.13747  0.27494  0.13735  1
 O  O2  1  0.61253  0.22506  0.16230  1
 O  O3  1  0.58771  0.72506  0.13747  1
 O  O4  1  0.13735  0.72506  0.13747  1
 O  O5  1  0.61253  0.22506  0.61265  1
 O  O6  1  0.13747  0.27494  0.58770  1
 O  O7  1  0.16229  0.77494  0.61253  1
 O  O8  1  0.61265  0.77494  0.61253  1
 Tb  Tb1  1  0.37500  0.25000  0.37500  1
 Tb  Tb2  1  0.87500  0.25000  0.37500  1
 Tb  Tb3  1  0.37500  0.75000  0.37500  1
 Tb  Tb4  1  0.37500  0.75000  0.87500  1
