CIF file written using JARVIS-Tools package.
data_Li2TiSiO5
_symmetry_space_group_name_H-M  'P4/nmm'
_cell_length_a       6.48167
_cell_length_b       6.48167
_cell_length_c       4.40046
_cell_angle_alpha    90
_cell_angle_beta     90
_cell_angle_gamma    90

_symmetry_Int_Tables_number  129
_chemical_formula_structural  Li2TiSiO5
_chemical_formula_sum  Li4Ti2Si2O0
_cell_volume  184.8723243485589
_cell_formula_units_Z  2
loop_
  _symmetry_equiv_pos_site_id
 _symmetry_equiv_pos_as_xyz
 1  'x, y, z'
loop_
 _atom_site_type_symbol
 _atom_site_label
 _atom_site_symmetry_multiplicity
 _atom_site_fract_x
 _atom_site_fract_y
 _atom_site_fract_z
 _atom_site_fract_occupancy
 Li  Li1  1  0.25000  0.75000  0.50000  1
 Li  Li2  1  0.75000  0.25000  0.50000  1
 Li  Li3  1  0.75000  0.75000  0.50000  1
 Li  Li4  1  0.25000  0.25000  0.50000  1
 O  O1  1  0.29473  0.50000  0.78006  1
 O  O2  1  0.50000  0.00000  0.70742  1
 O  O3  1  0.00000  0.79473  0.78006  1
 O  O4  1  0.00000  0.50000  0.29258  1
 O  O5  1  0.20527  0.00000  0.21994  1
 O  O6  1  0.50000  0.29473  0.21994  1
 O  O7  1  0.79473  0.00000  0.21994  1
 O  O8  1  0.00000  0.20527  0.78006  1
 O  O9  1  0.50000  0.70527  0.21994  1
 O  O10  1  0.70527  0.50000  0.78006  1
 Si  Si1  1  0.50000  0.50000  0.00000  1
 Si  Si2  1  0.00000  0.00000  0.00000  1
 Ti  Ti1  1  0.50000  0.00000  0.09990  1
 Ti  Ti2  1  0.00000  0.50000  0.90010  1
