CIF file written using JARVIS-Tools package.
data_Mn2OF3
_symmetry_space_group_name_H-M  'Amm2'
_cell_length_a       4.78075
_cell_length_b       4.78075
_cell_length_c       9.48013
_cell_angle_alpha    90
_cell_angle_beta     90
_cell_angle_gamma    93.2217

_symmetry_Int_Tables_number  38
_chemical_formula_structural  Mn2OF3
_chemical_formula_sum  Mn6O3F9
_cell_volume  216.33094533604012
_cell_formula_units_Z  3
loop_
  _symmetry_equiv_pos_site_id
 _symmetry_equiv_pos_as_xyz
 1  'x, y, z'
loop_
 _atom_site_type_symbol
 _atom_site_label
 _atom_site_symmetry_multiplicity
 _atom_site_fract_x
 _atom_site_fract_y
 _atom_site_fract_z
 _atom_site_fract_occupancy
 F  F1  1  0.78987  0.19253  0.83268  1
 F  F2  1  0.71604  0.71604  0.65930  1
 F  F3  1  0.71604  0.71604  0.34070  1
 F  F4  1  0.26841  0.26841  0.00000  1
 F  F5  1  0.19253  0.78987  0.83268  1
 F  F6  1  0.21532  0.82339  0.50000  1
 F  F7  1  0.19253  0.78987  0.16732  1
 F  F8  1  0.82339  0.21532  0.50000  1
 F  F9  1  0.78987  0.19253  0.16732  1
 Mn  Mn1  1  0.95587  0.95587  0.00000  1
 Mn  Mn2  1  0.49242  0.49242  0.50000  1
 Mn  Mn3  1  0.49216  0.49216  0.16650  1
 Mn  Mn4  1  0.49216  0.49216  0.83350  1
 Mn  Mn5  1  0.02894  0.02894  0.66735  1
 Mn  Mn6  1  0.02894  0.02894  0.33265  1
 O  O1  1  0.32085  0.32085  0.66827  1
 O  O2  1  0.66381  0.66381  0.00000  1
 O  O3  1  0.32085  0.32085  0.33173  1
