CIF file written using JARVIS-Tools package.
data_YFeO3
_symmetry_space_group_name_H-M  'Pnma'
_cell_length_a       5.60518
_cell_length_b       5.20936
_cell_length_c       7.45826
_cell_angle_alpha    90
_cell_angle_beta     90.0022
_cell_angle_gamma    90

_symmetry_Int_Tables_number  62
_chemical_formula_structural  YFeO3
_chemical_formula_sum  Y4Fe4O2
_cell_volume  217.7767140876718
_cell_formula_units_Z  4
loop_
  _symmetry_equiv_pos_site_id
 _symmetry_equiv_pos_as_xyz
 1  'x, y, z'
loop_
 _atom_site_type_symbol
 _atom_site_label
 _atom_site_symmetry_multiplicity
 _atom_site_fract_x
 _atom_site_fract_y
 _atom_site_fract_z
 _atom_site_fract_occupancy
 Fe  Fe1  1  0.50000  0.00000  0.50000  1
 Fe  Fe2  1  -0.00000  0.50000  0.50000  1
 Fe  Fe3  1  0.00000  0.50000  0.00000  1
 Fe  Fe4  1  0.50000  0.00000  0.00000  1
 O  O1  1  0.52852  0.89889  0.75000  1
 O  O2  1  0.69566  0.30633  0.55093  1
 O  O3  1  0.02852  0.60111  0.75000  1
 O  O4  1  0.19566  0.19367  0.94907  1
 O  O5  1  0.30434  0.69367  0.05093  1
 O  O6  1  0.80434  0.80633  0.44907  1
 O  O7  1  0.19566  0.19367  0.55093  1
 O  O8  1  0.47148  0.10111  0.25000  1
 O  O9  1  0.69566  0.30633  0.94907  1
 O  O10  1  0.30434  0.69367  0.44907  1
 O  O11  1  0.97148  0.39889  0.25000  1
 O  O12  1  0.80434  0.80633  0.05093  1
 Y  Y1  1  0.92422  0.02052  0.75000  1
 Y  Y2  1  0.57578  0.52052  0.25000  1
 Y  Y3  1  0.42422  0.47948  0.75000  1
 Y  Y4  1  0.07578  0.97948  0.25000  1
