CIF file written using JARVIS-Tools package.
data_Sr4PtO6
_symmetry_space_group_name_H-M  'R-3c'
_cell_length_a       6.92172
_cell_length_b       6.92172
_cell_length_c       6.92172
_cell_angle_alpha    90.0446
_cell_angle_beta     90.0446
_cell_angle_gamma    90.0446

_symmetry_Int_Tables_number  167
_chemical_formula_structural  Sr4PtO6
_chemical_formula_sum  Sr8Pt2O2
_cell_volume  331.62029793138754
_cell_formula_units_Z  2
loop_
  _symmetry_equiv_pos_site_id
 _symmetry_equiv_pos_as_xyz
 1  'x, y, z'
loop_
 _atom_site_type_symbol
 _atom_site_label
 _atom_site_symmetry_multiplicity
 _atom_site_fract_x
 _atom_site_fract_y
 _atom_site_fract_z
 _atom_site_fract_occupancy
 O  O1  1  0.07291  0.28685  0.94186  1
 O  O2  1  0.57291  0.44186  0.78685  1
 O  O3  1  0.44186  0.78685  0.57291  1
 O  O4  1  0.05814  0.92709  0.71315  1
 O  O5  1  0.92709  0.71315  0.05814  1
 O  O6  1  0.71315  0.05814  0.92709  1
 O  O7  1  0.21315  0.42709  0.55814  1
 O  O8  1  0.42709  0.55814  0.21315  1
 O  O9  1  0.55814  0.21315  0.42709  1
 O  O10  1  0.78685  0.57291  0.44186  1
 O  O11  1  0.28685  0.94186  0.07291  1
 O  O12  1  0.94186  0.07291  0.28685  1
 Pt  Pt1  1  0.50000  0.50000  0.50000  1
 Pt  Pt2  1  0.00000  0.00000  0.00000  1
 Sr  Sr1  1  0.11768  0.75000  0.38232  1
 Sr  Sr2  1  0.75000  0.38232  0.11768  1
 Sr  Sr3  1  0.38232  0.11768  0.75000  1
 Sr  Sr4  1  0.88232  0.25000  0.61768  1
 Sr  Sr5  1  0.25000  0.61768  0.88232  1
 Sr  Sr6  1  0.61768  0.88232  0.25000  1
 Sr  Sr7  1  0.75000  0.75000  0.75000  1
 Sr  Sr8  1  0.25000  0.25000  0.25000  1
