CIF file written using JARVIS-Tools package.
data_KLi6TaO6
_symmetry_space_group_name_H-M  'R-3m'
_cell_length_a       5.3237
_cell_length_b       5.32371
_cell_length_c       5.3237
_cell_angle_alpha    101.149
_cell_angle_beta     101.149
_cell_angle_gamma    101.149

_symmetry_Int_Tables_number  166
_chemical_formula_structural  KLi6TaO6
_chemical_formula_sum  KLi6TaO6
_cell_volume  141.0069575561417
_cell_formula_units_Z  1
loop_
  _symmetry_equiv_pos_site_id
 _symmetry_equiv_pos_as_xyz
 1  'x, y, z'
loop_
 _atom_site_type_symbol
 _atom_site_label
 _atom_site_symmetry_multiplicity
 _atom_site_fract_x
 _atom_site_fract_y
 _atom_site_fract_z
 _atom_site_fract_occupancy
 K  K1  1  0.50000  0.50000  0.50000  1
 Li  Li1  1  0.34432  -0.00000  0.65568  1
 Li  Li2  1  0.00000  0.65568  0.34432  1
 Li  Li3  1  0.34432  0.65568  0.00000  1
 Li  Li4  1  -0.00000  0.34432  0.65568  1
 Li  Li5  1  0.65568  0.00000  0.34432  1
 Li  Li6  1  0.65568  0.34432  -0.00000  1
 O  O1  1  0.27267  0.91473  0.27267  1
 O  O2  1  0.27267  0.27267  0.91473  1
 O  O3  1  0.72733  0.08527  0.72733  1
 O  O4  1  0.72733  0.72733  0.08527  1
 O  O5  1  0.08527  0.72733  0.72733  1
 O  O6  1  0.91473  0.27267  0.27267  1
 Ta  Ta1  1  0.00000  0.00000  0.00000  1
