CIF file written using JARVIS-Tools package.
data_TiO2
_symmetry_space_group_name_H-M  'Pbcn'
_cell_length_a       4.57336
_cell_length_b       4.93156
_cell_length_c       5.55821
_cell_angle_alpha    90
_cell_angle_beta     90
_cell_angle_gamma    90

_symmetry_Int_Tables_number  60
_chemical_formula_structural  TiO2
_chemical_formula_sum  Ti4O8
_cell_volume  125.35860630145964
_cell_formula_units_Z  4
loop_
  _symmetry_equiv_pos_site_id
 _symmetry_equiv_pos_as_xyz
 1  'x, y, z'
loop_
 _atom_site_type_symbol
 _atom_site_label
 _atom_site_symmetry_multiplicity
 _atom_site_fract_x
 _atom_site_fract_y
 _atom_site_fract_z
 _atom_site_fract_occupancy
 O  O1  1  0.72918  0.08119  0.61810  1
 O  O2  1  0.22918  0.91881  0.88190  1
 O  O3  1  0.77082  0.58119  0.88190  1
 O  O4  1  0.27082  0.41881  0.61810  1
 O  O5  1  0.72918  0.58119  0.38190  1
 O  O6  1  0.22918  0.41881  0.11810  1
 O  O7  1  0.77082  0.08119  0.11810  1
 O  O8  1  0.27082  0.91881  0.38190  1
 Ti  Ti1  1  0.50000  0.75000  0.67523  1
 Ti  Ti2  1  0.00000  0.25000  0.82477  1
 Ti  Ti3  1  0.50000  0.25000  0.32477  1
 Ti  Ti4  1  0.00000  0.75000  0.17523  1
