CIF file written using JARVIS-Tools package.
data_H2O
_symmetry_space_group_name_H-M  'Cc'
_cell_length_a       4.37957
_cell_length_b       4.37141
_cell_length_c       7.11397
_cell_angle_alpha    90.2975
_cell_angle_beta     89.4063
_cell_angle_gamma    120.062

_symmetry_Int_Tables_number  9
_chemical_formula_structural  H2O
_chemical_formula_sum  H8O4
_cell_volume  117.86934379761672
_cell_formula_units_Z  4
loop_
  _symmetry_equiv_pos_site_id
 _symmetry_equiv_pos_as_xyz
 1  'x, y, z'
loop_
 _atom_site_type_symbol
 _atom_site_label
 _atom_site_symmetry_multiplicity
 _atom_site_fract_x
 _atom_site_fract_y
 _atom_site_fract_z
 _atom_site_fract_occupancy
 H  H1  1  0.29464  0.66047  0.67134  1
 H  H2  1  0.43092  0.92994  0.95193  1
 H  H3  1  0.43050  0.55832  0.95490  1
 H  H4  1  0.41459  0.52720  0.48602  1
 H  H5  1  0.63417  0.33953  0.17134  1
 H  H6  1  0.50098  0.07006  0.45193  1
 H  H7  1  0.87218  0.44168  0.45490  1
 H  H8  1  0.88739  0.47280  -0.01398  1
 O  O1  1  0.28716  0.65351  0.52979  1
 O  O2  1  0.30143  0.67802  0.90603  1
 O  O3  1  0.63365  0.34649  0.02979  1
 O  O4  1  0.62341  0.32198  0.40603  1
