CIF file written using JARVIS-Tools package.
data_TiNbS4
_symmetry_space_group_name_H-M  'C2/m'
_cell_length_a       3.3977
_cell_length_b       6.80703
_cell_length_c       6.75969
_cell_angle_alpha    59.879
_cell_angle_beta     104.556
_cell_angle_gamma    119.944

_symmetry_Int_Tables_number  12
_chemical_formula_structural  TiNbS4
_chemical_formula_sum  TiNbS4
_cell_volume  117.17818966187968
_cell_formula_units_Z  1
loop_
  _symmetry_equiv_pos_site_id
 _symmetry_equiv_pos_as_xyz
 1  'x, y, z'
loop_
 _atom_site_type_symbol
 _atom_site_label
 _atom_site_symmetry_multiplicity
 _atom_site_fract_x
 _atom_site_fract_y
 _atom_site_fract_z
 _atom_site_fract_occupancy
 Nb  Nb1  1  -0.00000  0.50000  -0.00000  1
 S  S1  1  0.67212  0.80093  0.74238  1
 S  S2  1  0.33845  0.71279  0.25133  1
 S  S3  1  0.66155  0.28721  0.74867  1
 S  S4  1  0.32788  0.19907  0.25762  1
 Ti  Ti1  1  0.00000  0.00000  0.00000  1
