CIF file written using JARVIS-Tools package.
data_VSi4O10
_symmetry_space_group_name_H-M  'P4/ncc'
_cell_length_a       7.39611
_cell_length_b       7.39611
_cell_length_c       15.1137
_cell_angle_alpha    90
_cell_angle_beta     90
_cell_angle_gamma    90

_symmetry_Int_Tables_number  130
_chemical_formula_structural  VSi4O10
_chemical_formula_sum  V4Si6O40
_cell_volume  826.7555278783896
_cell_formula_units_Z  4
loop_
  _symmetry_equiv_pos_site_id
 _symmetry_equiv_pos_as_xyz
 1  'x, y, z'
loop_
 _atom_site_type_symbol
 _atom_site_label
 _atom_site_symmetry_multiplicity
 _atom_site_fract_x
 _atom_site_fract_y
 _atom_site_fract_z
 _atom_site_fract_occupancy
 O  O1  1  0.03964  0.96036  0.75000  1
 O  O2  1  0.00009  0.78917  0.12463  1
 O  O3  1  0.21083  0.99991  0.37537  1
 O  O4  1  0.28917  0.50009  0.37537  1
 O  O5  1  0.78917  0.49991  0.12463  1
 O  O6  1  0.78917  0.00009  0.62463  1
 O  O7  1  0.46036  0.53964  0.75000  1
 O  O8  1  0.71083  0.49991  0.62463  1
 O  O9  1  0.53222  0.85971  0.41461  1
 O  O10  1  0.49991  0.78917  0.62463  1
 O  O11  1  0.03222  0.35971  0.58539  1
 O  O12  1  0.46778  0.14029  0.58539  1
 O  O13  1  0.85971  0.53222  0.91461  1
 O  O14  1  0.49991  0.71083  0.12463  1
 O  O15  1  0.35971  0.46778  0.58539  1
 O  O16  1  0.96778  0.85971  0.91461  1
 O  O17  1  0.53222  0.64029  0.91461  1
 O  O18  1  0.64029  0.96778  0.91461  1
 O  O19  1  0.96778  0.64029  0.41461  1
 O  O20  1  0.50009  0.21083  0.37537  1
 O  O21  1  0.14029  0.46778  0.08539  1
 O  O22  1  0.64029  0.53222  0.41461  1
 O  O23  1  0.85971  0.96778  0.41461  1
 O  O24  1  0.03222  0.14029  0.08539  1
 O  O25  1  0.46778  0.35971  0.08539  1
 O  O26  1  0.99991  0.28917  0.37537  1
 O  O27  1  0.35971  0.03222  0.08539  1
 O  O28  1  0.14029  0.03222  0.58539  1
 O  O29  1  0.96036  0.46036  0.75000  1
 O  O30  1  0.00009  0.71083  0.62463  1
 O  O31  1  0.71083  0.00009  0.12463  1
 O  O32  1  0.21083  0.50009  0.87537  1
 O  O33  1  0.50009  0.28917  0.87537  1
 O  O34  1  0.28917  0.99991  0.87537  1
 O  O35  1  0.46036  0.96036  0.25000  1
 O  O36  1  0.99991  0.21083  0.87537  1
 O  O37  1  0.96036  0.03964  0.25000  1
 O  O38  1  0.03964  0.53964  0.25000  1
 O  O39  1  0.53964  0.03964  0.75000  1
 O  O40  1  0.53964  0.46036  0.25000  1
 Si  Si1  1  0.42657  0.00733  0.35381  1
 Si  Si2  1  0.57343  0.50733  0.14619  1
 Si  Si3  1  0.92657  0.99267  0.14619  1
 Si  Si4  1  0.00733  0.07343  0.35381  1
 Si  Si5  1  0.49267  0.42657  0.35381  1
 Si  Si6  1  0.99267  0.57343  0.14619  1
 Si  Si7  1  0.07343  0.49267  0.35381  1
 Si  Si8  1  0.99267  0.92657  0.64619  1
 Si  Si9  1  0.42657  0.49267  0.85381  1
 Si  Si10  1  0.07343  0.00733  0.85381  1
 Si  Si11  1  0.50733  0.57343  0.64619  1
 Si  Si12  1  0.00733  0.42657  0.85381  1
 Si  Si13  1  0.57343  0.99267  0.64619  1
 Si  Si14  1  0.92657  0.50733  0.64619  1
 Si  Si15  1  0.49267  0.07343  0.85381  1
 Si  Si16  1  0.50733  0.92657  0.14619  1
 V  V1  1  0.25000  0.25000  0.06747  1
 V  V2  1  0.75000  0.75000  0.43253  1
 V  V3  1  0.75000  0.75000  0.93253  1
 V  V4  1  0.25000  0.25000  0.56747  1
