CIF file written using JARVIS-Tools package.
data_Al2Si2O7
_symmetry_space_group_name_H-M  'C2/c'
_cell_length_a       5.19779
_cell_length_b       5.19778
_cell_length_c       9.48106
_cell_angle_alpha    75.8604
_cell_angle_beta     104.14
_cell_angle_gamma    83.8705

_symmetry_Int_Tables_number  15
_chemical_formula_structural  Al2Si2O7
_chemical_formula_sum  Al4Si4O4
_cell_volume  237.0605693667442
_cell_formula_units_Z  2
loop_
  _symmetry_equiv_pos_site_id
 _symmetry_equiv_pos_as_xyz
 1  'x, y, z'
loop_
 _atom_site_type_symbol
 _atom_site_label
 _atom_site_symmetry_multiplicity
 _atom_site_fract_x
 _atom_site_fract_y
 _atom_site_fract_z
 _atom_site_fract_occupancy
 Al  Al1  1  0.37575  0.27207  0.97880  1
 Al  Al2  1  0.27207  0.37575  0.52120  1
 Al  Al3  1  0.72793  0.62425  0.47880  1
 Al  Al4  1  0.62425  0.72793  0.02120  1
 O  O1  1  0.02754  0.31516  0.89485  1
 O  O2  1  0.08741  0.59163  0.60541  1
 O  O3  1  0.91259  0.40837  0.39459  1
 O  O4  1  0.31516  0.02754  0.60515  1
 O  O5  1  0.41662  0.62047  0.86605  1
 O  O6  1  0.06650  0.06650  0.25000  1
 O  O7  1  0.37953  0.58338  0.36605  1
 O  O8  1  0.62047  0.41662  0.63395  1
 O  O9  1  0.58338  0.37953  0.13395  1
 O  O10  1  0.59163  0.08741  0.89459  1
 O  O11  1  0.68484  0.97246  0.39485  1
 O  O12  1  0.93350  0.93350  0.75000  1
 O  O13  1  0.40837  0.91259  0.10541  1
 O  O14  1  0.97246  0.68484  0.10515  1
 Si  Si1  1  0.80810  0.19710  0.29558  1
 Si  Si2  1  0.80290  0.19190  0.79558  1
 Si  Si3  1  0.19710  0.80810  0.20442  1
 Si  Si4  1  0.19190  0.80290  0.70442  1
