CIF file written using JARVIS-Tools package.
data_Li2MnF4
_symmetry_space_group_name_H-M  'R-3m'
_cell_length_a       3.28111
_cell_length_b       8.80072
_cell_length_c       3.2811
_cell_angle_alpha    100.743
_cell_angle_beta     60
_cell_angle_gamma    100.743

_symmetry_Int_Tables_number  166
_chemical_formula_structural  Li2MnF4
_chemical_formula_sum  Li2MnF4
_cell_volume  80.12874922614843
_cell_formula_units_Z  1
loop_
  _symmetry_equiv_pos_site_id
 _symmetry_equiv_pos_as_xyz
 1  'x, y, z'
loop_
 _atom_site_type_symbol
 _atom_site_label
 _atom_site_symmetry_multiplicity
 _atom_site_fract_x
 _atom_site_fract_y
 _atom_site_fract_z
 _atom_site_fract_occupancy
 F  F1  1  0.12631  0.37894  0.12631  1
 F  F2  1  0.62888  0.88664  0.62888  1
 F  F3  1  0.37112  0.11336  0.37112  1
 F  F4  1  0.87369  0.62106  0.87369  1
 Li  Li1  1  0.20368  0.61105  0.20368  1
 Li  Li2  1  0.79632  0.38895  0.79632  1
 Mn  Mn1  1  0.00000  0.00000  0.00000  1
