CIF file written using JARVIS-Tools package.
data_In2Sn2O7
_symmetry_space_group_name_H-M  'Fd-3m'
_cell_length_a       7.31875
_cell_length_b       7.31897
_cell_length_c       7.31866
_cell_angle_alpha    60.0014
_cell_angle_beta     60.0007
_cell_angle_gamma    59.9993

_symmetry_Int_Tables_number  227
_chemical_formula_structural  In2Sn2O7
_chemical_formula_sum  In4Sn4O4
_cell_volume  277.2092824833092
_cell_formula_units_Z  2
loop_
  _symmetry_equiv_pos_site_id
 _symmetry_equiv_pos_as_xyz
 1  'x, y, z'
loop_
 _atom_site_type_symbol
 _atom_site_label
 _atom_site_symmetry_multiplicity
 _atom_site_fract_x
 _atom_site_fract_y
 _atom_site_fract_z
 _atom_site_fract_occupancy
 In  In1  1  0.49999  0.50001  1.00000  1
 In  In2  1  0.50000  0.00000  0.50000  1
 In  In3  1  0.00000  0.49999  0.50001  1
 In  In4  1  0.50000  0.50000  0.50000  1
 O  O1  1  0.65818  0.09182  0.09182  1
 O  O2  1  0.90818  0.34181  0.34182  1
 O  O3  1  0.09181  0.65819  0.65818  1
 O  O4  1  0.09183  0.65818  0.09182  1
 O  O5  1  0.65817  0.09182  0.65818  1
 O  O6  1  0.65818  0.65819  0.09182  1
 O  O7  1  0.09181  0.09182  0.65818  1
 O  O8  1  0.34182  0.90818  0.34181  1
 O  O9  1  0.62500  0.62500  0.62500  1
 O  O10  1  0.37500  0.37500  0.37500  1
 O  O11  1  0.90818  0.90818  0.34182  1
 O  O12  1  0.90819  0.34181  0.90818  1
 O  O13  1  0.34183  0.34181  0.90818  1
 O  O14  1  0.34183  0.90817  0.90818  1
 Sn  Sn1  1  -0.00000  0.00000  0.50000  1
 Sn  Sn2  1  0.00000  0.50000  0.00000  1
 Sn  Sn3  1  0.50000  0.00000  0.00000  1
 Sn  Sn4  1  0.00000  -0.00000  0.00000  1
