CIF file written using JARVIS-Tools package.
data_RbC2O2
_symmetry_space_group_name_H-M  'C2/m'
_cell_length_a       4.46457
_cell_length_b       6.28431
_cell_length_c       6.28435
_cell_angle_alpha    66.4106
_cell_angle_beta     85.9468
_cell_angle_gamma    85.9463

_symmetry_Int_Tables_number  12
_chemical_formula_structural  RbC2O2
_chemical_formula_sum  Rb2C4O4
_cell_volume  161.00693658386342
_cell_formula_units_Z  2
loop_
  _symmetry_equiv_pos_site_id
 _symmetry_equiv_pos_as_xyz
 1  'x, y, z'
loop_
 _atom_site_type_symbol
 _atom_site_label
 _atom_site_symmetry_multiplicity
 _atom_site_fract_x
 _atom_site_fract_y
 _atom_site_fract_z
 _atom_site_fract_occupancy
 C  C1  1  0.10485  0.15836  0.94337  1
 C  C2  1  0.89515  0.05663  0.84164  1
 C  C3  1  0.89515  0.84164  0.05663  1
 C  C4  1  0.10485  0.94337  0.15836  1
 O  O1  1  0.22733  0.35100  0.87285  1
 O  O2  1  0.22733  0.87285  0.35100  1
 O  O3  1  0.77267  0.12715  0.64900  1
 O  O4  1  0.77267  0.64900  0.12715  1
 Rb  Rb1  1  0.69762  0.65599  0.65599  1
 Rb  Rb2  1  0.30238  0.34401  0.34401  1
