CIF file written using JARVIS-Tools package.
data_Li3V2O4F2
_symmetry_space_group_name_H-M  'P2_1/m'
_cell_length_a       5.06662
_cell_length_b       5.75323
_cell_length_c       7.24704
_cell_angle_alpha    90
_cell_angle_beta     92.7178
_cell_angle_gamma    90

_symmetry_Int_Tables_number  11
_chemical_formula_structural  Li3V2O4F2
_chemical_formula_sum  Li6V4O8F4
_cell_volume  211.0094788829678
_cell_formula_units_Z  2
loop_
  _symmetry_equiv_pos_site_id
 _symmetry_equiv_pos_as_xyz
 1  'x, y, z'
loop_
 _atom_site_type_symbol
 _atom_site_label
 _atom_site_symmetry_multiplicity
 _atom_site_fract_x
 _atom_site_fract_y
 _atom_site_fract_z
 _atom_site_fract_occupancy
 F  F1  1  0.47566  0.25000  0.51535  1
 F  F2  1  0.00000  0.00000  0.50000  1
 F  F3  1  0.00000  0.50000  0.50000  1
 F  F4  1  0.52434  0.75000  0.48465  1
 Li  Li1  1  0.15104  0.25000  0.63769  1
 Li  Li2  1  0.31060  0.99831  0.37363  1
 Li  Li3  1  0.31060  0.50169  0.37363  1
 Li  Li4  1  0.84896  0.75000  0.36231  1
 Li  Li5  1  0.68940  0.00169  0.62637  1
 Li  Li6  1  0.68940  0.49831  0.62637  1
 O  O1  1  0.82645  0.25000  0.84903  1
 O  O2  1  0.67519  0.50758  0.14326  1
 O  O3  1  0.32481  0.49242  0.85674  1
 O  O4  1  0.32481  0.00758  0.85674  1
 O  O5  1  0.81400  0.75000  0.85266  1
 O  O6  1  0.67519  0.99242  0.14326  1
 O  O7  1  0.17355  0.75000  0.15097  1
 O  O8  1  0.18600  0.25000  0.14734  1
 V  V1  1  0.00000  0.00000  0.00000  1
 V  V2  1  0.48808  0.75000  0.98806  1
 V  V3  1  0.00000  0.50000  0.00000  1
 V  V4  1  0.51192  0.25000  0.01194  1
