CIF file written using JARVIS-Tools package.
data_PdSe6Br2
_symmetry_space_group_name_H-M  'P-1'
_cell_length_a       4.4198
_cell_length_b       7.61337
_cell_length_c       8.02739
_cell_angle_alpha    67.0438
_cell_angle_beta     88.8734
_cell_angle_gamma    79.2392

_symmetry_Int_Tables_number  2
_chemical_formula_structural  PdSe6Br2
_chemical_formula_sum  PdSe6Br2
_cell_volume  243.92956415146858
_cell_formula_units_Z  1
loop_
  _symmetry_equiv_pos_site_id
 _symmetry_equiv_pos_as_xyz
 1  'x, y, z'
loop_
 _atom_site_type_symbol
 _atom_site_label
 _atom_site_symmetry_multiplicity
 _atom_site_fract_x
 _atom_site_fract_y
 _atom_site_fract_z
 _atom_site_fract_occupancy
 Br  Br1  1  0.40208  0.82227  0.87201  1
 Br  Br2  1  0.59792  0.17773  0.12799  1
 Pd  Pd1  1  0.00000  0.00000  0.00000  1
 Se  Se1  1  0.07011  0.52057  0.76383  1
 Se  Se2  1  0.92989  0.47943  0.23617  1
 Se  Se3  1  0.15458  0.72601  0.28914  1
 Se  Se4  1  0.18054  0.20729  0.49005  1
 Se  Se5  1  0.81946  0.79271  0.50995  1
 Se  Se6  1  0.84542  0.27399  0.71086  1
