CIF file written using JARVIS-Tools package.
data_CoSO4
_symmetry_space_group_name_H-M  'P2_1/m'
_cell_length_a       4.61899
_cell_length_b       6.75213
_cell_length_c       7.17678
_cell_angle_alpha    90
_cell_angle_beta     140.619
_cell_angle_gamma    90

_symmetry_Int_Tables_number  11
_chemical_formula_structural  CoSO4
_chemical_formula_sum  Co2S2O8
_cell_volume  142.01282052780942
_cell_formula_units_Z  2
loop_
  _symmetry_equiv_pos_site_id
 _symmetry_equiv_pos_as_xyz
 1  'x, y, z'
loop_
 _atom_site_type_symbol
 _atom_site_label
 _atom_site_symmetry_multiplicity
 _atom_site_fract_x
 _atom_site_fract_y
 _atom_site_fract_z
 _atom_site_fract_occupancy
 Co  Co1  1  0.00000  0.00000  0.00000  1
 Co  Co2  1  0.00000  0.50000  0.00000  1
 O  O1  1  0.58382  0.75000  0.86625  1
 O  O2  1  0.41304  0.75000  0.12387  1
 O  O3  1  0.58696  0.25000  0.87613  1
 O  O4  1  0.94908  0.93498  0.68527  1
 O  O5  1  0.41618  0.25000  0.13375  1
 O  O6  1  0.05092  0.06502  0.31473  1
 O  O7  1  0.05092  0.43498  0.31473  1
 O  O8  1  0.94908  0.56502  0.68527  1
 S  S1  1  0.78517  0.25000  0.17150  1
 S  S2  1  0.21483  0.75000  0.82850  1
