CIF file written using JARVIS-Tools package.
data_CaCu2O4
_symmetry_space_group_name_H-M  'I4_1/a'
_cell_length_a       5.74726
_cell_length_b       5.7472
_cell_length_c       6.25427
_cell_angle_alpha    117.351
_cell_angle_beta     117.352
_cell_angle_gamma    90.001

_symmetry_Int_Tables_number  88
_chemical_formula_structural  CaCu2O4
_chemical_formula_sum  Ca2Cu4O8
_cell_volume  157.03098267768874
_cell_formula_units_Z  2
loop_
  _symmetry_equiv_pos_site_id
 _symmetry_equiv_pos_as_xyz
 1  'x, y, z'
loop_
 _atom_site_type_symbol
 _atom_site_label
 _atom_site_symmetry_multiplicity
 _atom_site_fract_x
 _atom_site_fract_y
 _atom_site_fract_z
 _atom_site_fract_occupancy
 Ca  Ca1  1  0.62500  0.87500  0.74999  1
 Ca  Ca2  1  0.37500  0.12500  0.25000  1
 Cu  Cu1  1  -0.00000  0.50000  0.50000  1
 Cu  Cu2  1  0.00000  0.00000  0.50000  1
 Cu  Cu3  1  -0.00000  0.50000  0.00000  1
 Cu  Cu4  1  0.50000  0.50000  0.00000  1
 O  O1  1  0.03101  0.70197  0.84925  1
 O  O2  1  0.35272  0.46900  0.65076  1
 O  O3  1  0.79804  0.18177  0.65076  1
 O  O4  1  0.68177  0.85273  0.15076  1
 O  O5  1  0.20197  0.81823  0.34924  1
 O  O6  1  0.64727  0.53101  0.34924  1
 O  O7  1  0.31823  0.14728  0.84924  1
 O  O8  1  0.96899  0.29802  0.15075  1
