CIF file written using JARVIS-Tools package.
data_AlCuO3
_symmetry_space_group_name_H-M  'P2_1/c'
_cell_length_a       4.6914
_cell_length_b       6.7501
_cell_length_c       6.2234
_cell_angle_alpha    90
_cell_angle_beta     94.537
_cell_angle_gamma    90

_symmetry_Int_Tables_number  14
_chemical_formula_structural  AlCuO3
_chemical_formula_sum  Al4Cu4O2
_cell_volume  196.46153577416686
_cell_formula_units_Z  4
loop_
  _symmetry_equiv_pos_site_id
 _symmetry_equiv_pos_as_xyz
 1  'x, y, z'
loop_
 _atom_site_type_symbol
 _atom_site_label
 _atom_site_symmetry_multiplicity
 _atom_site_fract_x
 _atom_site_fract_y
 _atom_site_fract_z
 _atom_site_fract_occupancy
 Al  Al1  1  0.48169  0.19903  0.74731  1
 Al  Al2  1  0.51831  0.69903  0.75269  1
 Al  Al3  1  0.48169  0.30097  0.24731  1
 Al  Al4  1  0.51831  0.80097  0.25269  1
 Cu  Cu1  1  -0.00000  0.00000  0.50000  1
 Cu  Cu2  1  -0.00000  0.50000  0.50000  1
 Cu  Cu3  1  0.00000  0.00000  0.00000  1
 Cu  Cu4  1  0.00000  0.50000  0.00000  1
 O  O1  1  0.14967  0.60441  0.75882  1
 O  O2  1  0.85033  0.10441  0.74118  1
 O  O3  1  0.30477  0.18873  0.00163  1
 O  O4  1  0.30477  0.31127  0.50163  1
 O  O5  1  0.14967  0.89559  0.25882  1
 O  O6  1  0.69523  0.68873  0.49837  1
 O  O7  1  0.66072  0.44427  0.83007  1
 O  O8  1  0.66072  0.05573  0.33007  1
 O  O9  1  0.33928  0.94427  0.66993  1
 O  O10  1  0.69523  0.81127  0.99837  1
 O  O11  1  0.33928  0.55573  0.16993  1
 O  O12  1  0.85033  0.39559  0.24118  1
