CIF file written using JARVIS-Tools package.
data_VO2
_symmetry_space_group_name_H-M  'I4/m'
_cell_length_a       2.85955
_cell_length_b       7.26585
_cell_length_c       7.26646
_cell_angle_alpha    87.7707
_cell_angle_beta     78.6534
_cell_angle_gamma    78.6522

_symmetry_Int_Tables_number  87
_chemical_formula_structural  VO2
_chemical_formula_sum  V4O8
_cell_volume  145.1309654602782
_cell_formula_units_Z  4
loop_
  _symmetry_equiv_pos_site_id
 _symmetry_equiv_pos_as_xyz
 1  'x, y, z'
loop_
 _atom_site_type_symbol
 _atom_site_label
 _atom_site_symmetry_multiplicity
 _atom_site_fract_x
 _atom_site_fract_y
 _atom_site_fract_z
 _atom_site_fract_occupancy
 O  O1  1  0.83887  0.70573  0.61652  1
 O  O2  1  0.45539  0.38340  0.70580  1
 O  O3  1  0.54461  0.61660  0.29420  1
 O  O4  1  0.16113  0.29427  0.38348  1
 O  O5  1  0.15668  0.04412  0.64252  1
 O  O6  1  0.79916  0.35748  0.04420  1
 O  O7  1  0.84332  0.95588  0.35748  1
 O  O8  1  0.20084  0.64252  0.95580  1
 V  V1  1  0.63724  0.18413  0.54139  1
 V  V2  1  0.17860  0.45866  0.18413  1
 V  V3  1  0.82140  0.54134  0.81587  1
 V  V4  1  0.36276  0.81587  0.45861  1
