CIF file written using JARVIS-Tools package.
data_NdRhO3
_symmetry_space_group_name_H-M  'Pnma'
_cell_length_a       5.37934
_cell_length_b       5.87953
_cell_length_c       7.81595
_cell_angle_alpha    90
_cell_angle_beta     90
_cell_angle_gamma    90

_symmetry_Int_Tables_number  62
_chemical_formula_structural  NdRhO3
_chemical_formula_sum  Nd4Rh4O2
_cell_volume  247.2026817552822
_cell_formula_units_Z  4
loop_
  _symmetry_equiv_pos_site_id
 _symmetry_equiv_pos_as_xyz
 1  'x, y, z'
loop_
 _atom_site_type_symbol
 _atom_site_label
 _atom_site_symmetry_multiplicity
 _atom_site_fract_x
 _atom_site_fract_y
 _atom_site_fract_z
 _atom_site_fract_occupancy
 Nd  Nd1  1  0.47429  0.57765  0.75000  1
 Nd  Nd2  1  0.97429  0.92235  0.25000  1
 Nd  Nd3  1  0.02571  0.07765  0.75000  1
 Nd  Nd4  1  0.52571  0.42235  0.25000  1
 O  O1  1  0.81657  0.19571  0.44676  1
 O  O2  1  0.11165  0.53544  0.25000  1
 O  O3  1  0.68343  0.69571  0.05324  1
 O  O4  1  0.18343  0.80429  0.94676  1
 O  O5  1  0.31657  0.30429  0.55324  1
 O  O6  1  0.68343  0.69571  0.44676  1
 O  O7  1  0.31657  0.30429  0.94676  1
 O  O8  1  0.38835  0.03544  0.25000  1
 O  O9  1  0.18343  0.80429  0.55324  1
 O  O10  1  0.88835  0.46456  0.75000  1
 O  O11  1  0.81657  0.19571  0.05324  1
 O  O12  1  0.61165  0.96456  0.75000  1
 Rh  Rh1  1  0.50000  0.00000  0.00000  1
 Rh  Rh2  1  0.00000  0.50000  0.00000  1
 Rh  Rh3  1  0.00000  0.50000  0.50000  1
 Rh  Rh4  1  0.50000  0.00000  0.50000  1
