CIF file written using JARVIS-Tools package.
data_Er3Ru2
_symmetry_space_group_name_H-M  'P6_3/m'
_cell_length_a       7.49136
_cell_length_b       7.49136
_cell_length_c       4.67559
_cell_angle_alpha    90
_cell_angle_beta     90
_cell_angle_gamma    120

_symmetry_Int_Tables_number  176
_chemical_formula_structural  Er3Ru2
_chemical_formula_sum  Er6Ru4
_cell_volume  227.2417550086961
_cell_formula_units_Z  2
loop_
  _symmetry_equiv_pos_site_id
 _symmetry_equiv_pos_as_xyz
 1  'x, y, z'
loop_
 _atom_site_type_symbol
 _atom_site_label
 _atom_site_symmetry_multiplicity
 _atom_site_fract_x
 _atom_site_fract_y
 _atom_site_fract_z
 _atom_site_fract_occupancy
 Er  Er1  1  0.38477  0.07855  0.25000  1
 Er  Er2  1  0.07855  0.69377  0.75000  1
 Er  Er3  1  0.69377  0.61523  0.25000  1
 Er  Er4  1  0.30623  0.38477  0.75000  1
 Er  Er5  1  0.61523  0.92145  0.75000  1
 Er  Er6  1  0.92145  0.30623  0.25000  1
 Ru  Ru1  1  0.66667  0.33333  0.75000  1
 Ru  Ru2  1  0.33333  0.66667  0.25000  1
 Ru  Ru3  1  0.00000  0.00000  0.50000  1
 Ru  Ru4  1  0.00000  0.00000  0.00000  1
