CIF file written using JARVIS-Tools package.
data_Cu2Cl2O
_symmetry_space_group_name_H-M  'Fddd'
_cell_length_a       6.1795
_cell_length_b       6.17949
_cell_length_c       6.17941
_cell_angle_alpha    112.521
_cell_angle_beta     112.521
_cell_angle_gamma    103.531

_symmetry_Int_Tables_number  70
_chemical_formula_structural  Cu2Cl2O
_chemical_formula_sum  Cu4Cl4O2
_cell_volume  180.20319527378513
_cell_formula_units_Z  2
loop_
  _symmetry_equiv_pos_site_id
 _symmetry_equiv_pos_as_xyz
 1  'x, y, z'
loop_
 _atom_site_type_symbol
 _atom_site_label
 _atom_site_symmetry_multiplicity
 _atom_site_fract_x
 _atom_site_fract_y
 _atom_site_fract_z
 _atom_site_fract_occupancy
 Cl  Cl1  1  0.67218  0.92218  0.84435  1
 Cl  Cl2  1  0.07782  0.32782  0.65565  1
 Cl  Cl3  1  0.92218  0.67218  0.34435  1
 Cl  Cl4  1  0.32782  0.07782  0.15565  1
 Cu  Cu1  1  0.00000  0.50000  -0.00000  1
 Cu  Cu2  1  0.50000  0.50000  0.50000  1
 Cu  Cu3  1  0.50000  -0.00000  0.50000  1
 Cu  Cu4  1  0.50000  0.50000  -0.00000  1
 O  O1  1  0.37500  0.62500  0.25000  1
 O  O2  1  0.62500  0.37500  0.75000  1
