CIF file written using JARVIS-Tools package.
data_K2GeSe3
_symmetry_space_group_name_H-M  'P-1'
_cell_length_a       6.80541
_cell_length_b       7.3891
_cell_length_c       8.58199
_cell_angle_alpha    74.668
_cell_angle_beta     73.3514
_cell_angle_gamma    67.0227

_symmetry_Int_Tables_number  2
_chemical_formula_structural  K2GeSe3
_chemical_formula_sum  K4Ge2Se6
_cell_volume  374.9198754174432
_cell_formula_units_Z  2
loop_
  _symmetry_equiv_pos_site_id
 _symmetry_equiv_pos_as_xyz
 1  'x, y, z'
loop_
 _atom_site_type_symbol
 _atom_site_label
 _atom_site_symmetry_multiplicity
 _atom_site_fract_x
 _atom_site_fract_y
 _atom_site_fract_z
 _atom_site_fract_occupancy
 Ge  Ge1  1  0.85687  0.05992  0.68713  1
 Ge  Ge2  1  0.14313  0.94008  0.31287  1
 K  K1  1  0.39232  0.79659  0.88783  1
 K  K2  1  0.60768  0.20341  0.11217  1
 K  K3  1  0.14336  0.46527  0.68383  1
 K  K4  1  0.85664  0.53473  0.31617  1
 Se  Se1  1  0.65530  0.39163  0.71423  1
 Se  Se2  1  0.34470  0.60837  0.28577  1
 Se  Se3  1  0.86722  0.81030  0.92100  1
 Se  Se4  1  0.13278  0.18970  0.07900  1
 Se  Se5  1  0.22584  0.04483  0.53363  1
 Se  Se6  1  0.77416  0.95517  0.46637  1
