CIF file written using JARVIS-Tools package.
data_ThSiO4
_symmetry_space_group_name_H-M  'I4_1/amd'
_cell_length_a       5.99314
_cell_length_b       5.99314
_cell_length_c       5.99313
_cell_angle_alpha    106.485
_cell_angle_beta     106.485
_cell_angle_gamma    115.624

_symmetry_Int_Tables_number  141
_chemical_formula_structural  ThSiO4
_chemical_formula_sum  Th2Si2O8
_cell_volume  164.25864767974392
_cell_formula_units_Z  2
loop_
  _symmetry_equiv_pos_site_id
 _symmetry_equiv_pos_as_xyz
 1  'x, y, z'
loop_
 _atom_site_type_symbol
 _atom_site_label
 _atom_site_symmetry_multiplicity
 _atom_site_fract_x
 _atom_site_fract_y
 _atom_site_fract_z
 _atom_site_fract_occupancy
 O  O1  1  0.13618  0.70916  0.42702  1
 O  O2  1  0.70916  0.78214  0.57298  1
 O  O3  1  0.70916  0.13618  0.92702  1
 O  O4  1  0.78214  0.70916  0.07298  1
 O  O5  1  0.29084  0.86382  0.07298  1
 O  O6  1  0.21786  0.29084  0.92702  1
 O  O7  1  0.86382  0.29084  0.57298  1
 O  O8  1  0.29084  0.21786  0.42702  1
 Si  Si1  1  0.12500  0.87500  0.25000  1
 Si  Si2  1  0.87500  0.12500  0.75000  1
 Th  Th1  1  0.62500  0.37500  0.25000  1
 Th  Th2  1  0.37500  0.62500  0.75000  1
