CIF file written using JARVIS-Tools package.
data_V7O3
_symmetry_space_group_name_H-M  'C2/m'
_cell_length_a       2.90184
_cell_length_b       4.97663
_cell_length_c       7.77685
_cell_angle_alpha    88.726
_cell_angle_beta     90
_cell_angle_gamma    106.951

_symmetry_Int_Tables_number  12
_chemical_formula_structural  V7O3
_chemical_formula_sum  V7O3
_cell_volume  107.40040230563606
_cell_formula_units_Z  1
loop_
  _symmetry_equiv_pos_site_id
 _symmetry_equiv_pos_as_xyz
 1  'x, y, z'
loop_
 _atom_site_type_symbol
 _atom_site_label
 _atom_site_symmetry_multiplicity
 _atom_site_fract_x
 _atom_site_fract_y
 _atom_site_fract_z
 _atom_site_fract_occupancy
 O  O1  1  0.00000  0.00000  0.00000  1
 O  O2  1  0.27609  0.55217  0.14059  1
 O  O3  1  0.72391  0.44783  0.85941  1
 V  V1  1  0.50000  0.00000  0.50000  1
 V  V2  1  0.62346  0.24691  0.12133  1
 V  V3  1  0.37654  0.75309  0.87867  1
 V  V4  1  0.80228  0.60456  0.61235  1
 V  V5  1  0.19772  0.39544  0.38765  1
 V  V6  1  0.90865  0.81730  0.25069  1
 V  V7  1  0.09135  0.18270  0.74931  1
