CIF file written using JARVIS-Tools package.
data_LiBO2
_symmetry_space_group_name_H-M  'P2_1/c'
_cell_length_a       4.39156
_cell_length_b       5.85571
_cell_length_c       6.35536
_cell_angle_alpha    115.679
_cell_angle_beta     90
_cell_angle_gamma    90

_symmetry_Int_Tables_number  14
_chemical_formula_structural  LiBO2
_chemical_formula_sum  Li4B4O8
_cell_volume  147.29108965442524
_cell_formula_units_Z  4
loop_
  _symmetry_equiv_pos_site_id
 _symmetry_equiv_pos_as_xyz
 1  'x, y, z'
loop_
 _atom_site_type_symbol
 _atom_site_label
 _atom_site_symmetry_multiplicity
 _atom_site_fract_x
 _atom_site_fract_y
 _atom_site_fract_z
 _atom_site_fract_occupancy
 B  B1  1  0.32472  0.87536  0.72830  1
 B  B2  1  0.82472  0.12464  0.77170  1
 B  B3  1  0.67528  0.12464  0.27170  1
 B  B4  1  0.17528  0.87536  0.22830  1
 Li  Li1  1  0.79136  0.56810  0.65774  1
 Li  Li2  1  0.29136  0.43190  0.84226  1
 Li  Li3  1  0.20864  0.43190  0.34226  1
 Li  Li4  1  0.70864  0.56810  0.15774  1
 O  O1  1  0.64365  0.91550  0.74181  1
 O  O2  1  0.14365  0.08450  0.75819  1
 O  O3  1  0.35635  0.08450  0.25819  1
 O  O4  1  0.85635  0.91550  0.24181  1
 O  O5  1  0.22354  0.64486  0.68521  1
 O  O6  1  0.72354  0.35514  0.81479  1
 O  O7  1  0.77646  0.35514  0.31479  1
 O  O8  1  0.27646  0.64486  0.18521  1
