CIF file written using JARVIS-Tools package.
data_ZnBi2O4
_symmetry_space_group_name_H-M  'Imma'
_cell_length_a       6.78404
_cell_length_b       6.78403
_cell_length_c       7.11964
_cell_angle_alpha    58.3496
_cell_angle_beta     58.3496
_cell_angle_gamma    56.8629

_symmetry_Int_Tables_number  74
_chemical_formula_structural  ZnBi2O4
_chemical_formula_sum  Zn2Bi4O8
_cell_volume  220.17746233512082
_cell_formula_units_Z  2
loop_
  _symmetry_equiv_pos_site_id
 _symmetry_equiv_pos_as_xyz
 1  'x, y, z'
loop_
 _atom_site_type_symbol
 _atom_site_label
 _atom_site_symmetry_multiplicity
 _atom_site_fract_x
 _atom_site_fract_y
 _atom_site_fract_z
 _atom_site_fract_occupancy
 Bi  Bi1  1  0.97913  0.97913  0.02087  1
 Bi  Bi2  1  0.27087  0.27087  0.22913  1
 Bi  Bi3  1  0.62500  0.62500  0.12500  1
 Bi  Bi4  1  0.62500  0.62500  0.62500  1
 O  O1  1  0.37969  0.37969  0.42150  1
 O  O2  1  0.37421  0.86755  0.37912  1
 O  O3  1  0.37969  0.37969  0.81911  1
 O  O4  1  0.86755  0.37421  0.37912  1
 O  O5  1  0.38245  0.87579  0.87088  1
 O  O6  1  0.87579  0.38245  0.87088  1
 O  O7  1  0.87031  0.87031  0.43089  1
 O  O8  1  0.87031  0.87031  0.82850  1
 Zn  Zn1  1  0.12500  0.62500  0.62500  1
 Zn  Zn2  1  0.62500  0.12500  0.62500  1
