CIF file written using JARVIS-Tools package.
data_Ba3In2Br2O5
_symmetry_space_group_name_H-M  'I4/mmm'
_cell_length_a       4.3104
_cell_length_b       4.3104
_cell_length_c       13.3981
_cell_angle_alpha    99.2568
_cell_angle_beta     99.2568
_cell_angle_gamma    90

_symmetry_Int_Tables_number  139
_chemical_formula_structural  Ba3In2Br2O5
_chemical_formula_sum  Ba3In2Br2O5
_cell_volume  242.404590176212
_cell_formula_units_Z  1
loop_
  _symmetry_equiv_pos_site_id
 _symmetry_equiv_pos_as_xyz
 1  'x, y, z'
loop_
 _atom_site_type_symbol
 _atom_site_label
 _atom_site_symmetry_multiplicity
 _atom_site_fract_x
 _atom_site_fract_y
 _atom_site_fract_z
 _atom_site_fract_occupancy
 Ba  Ba1  1  0.65536  0.65536  0.31073  1
 Ba  Ba2  1  0.34464  0.34464  0.68927  1
 Ba  Ba3  1  0.50000  0.50000  0.00000  1
 Br  Br1  1  0.79455  0.79455  0.58910  1
 Br  Br2  1  0.20545  0.20545  0.41090  1
 In  In1  1  0.92027  0.92027  0.84053  1
 In  In2  1  0.07973  0.07973  0.15947  1
 O  O1  1  0.90984  0.40984  0.81968  1
 O  O2  1  0.59016  0.09016  0.18032  1
 O  O3  1  0.40984  0.90984  0.81968  1
 O  O4  1  0.09016  0.59016  0.18032  1
 O  O5  1  0.00000  0.00000  0.00000  1
