CIF file written using JARVIS-Tools package.
data_Sb3O4F
_symmetry_space_group_name_H-M  'P2/c'
_cell_length_a       5.51048
_cell_length_b       5.13426
_cell_length_c       9.35092
_cell_angle_alpha    90
_cell_angle_beta     86.9314
_cell_angle_gamma    90

_symmetry_Int_Tables_number  13
_chemical_formula_structural  Sb3O4F
_chemical_formula_sum  Sb6O8F2
_cell_volume  264.1791033334325
_cell_formula_units_Z  2
loop_
  _symmetry_equiv_pos_site_id
 _symmetry_equiv_pos_as_xyz
 1  'x, y, z'
loop_
 _atom_site_type_symbol
 _atom_site_label
 _atom_site_symmetry_multiplicity
 _atom_site_fract_x
 _atom_site_fract_y
 _atom_site_fract_z
 _atom_site_fract_occupancy
 F  F1  1  0.25000  0.41585  -0.00000  1
 F  F2  1  0.75000  0.58415  0.00000  1
 O  O1  1  0.46210  0.57478  0.73424  1
 O  O2  1  0.96210  0.42522  0.73424  1
 O  O3  1  0.07882  0.90433  0.61958  1
 O  O4  1  0.57882  0.09567  0.61958  1
 O  O5  1  0.42118  0.90433  0.38042  1
 O  O6  1  0.92118  0.09567  0.38042  1
 O  O7  1  0.03790  0.57478  0.26576  1
 O  O8  1  0.53790  0.42522  0.26576  1
 Sb  Sb1  1  0.14605  0.72043  0.81498  1
 Sb  Sb2  1  0.64605  0.27957  0.81498  1
 Sb  Sb3  1  0.25000  0.19716  0.50000  1
 Sb  Sb4  1  0.75000  0.80284  0.50000  1
 Sb  Sb5  1  0.35395  0.72043  0.18502  1
 Sb  Sb6  1  0.85395  0.27957  0.18502  1
