CIF file written using JARVIS-Tools package.
data_BaBiO3
_symmetry_space_group_name_H-M  'R-3'
_cell_length_a       6.19846
_cell_length_b       6.19846
_cell_length_c       6.19846
_cell_angle_alpha    60.7894
_cell_angle_beta     60.7894
_cell_angle_gamma    60.7894

_symmetry_Int_Tables_number  148
_chemical_formula_structural  BaBiO3
_chemical_formula_sum  Ba2Bi2O6
_cell_volume  171.39622099805536
_cell_formula_units_Z  2
loop_
  _symmetry_equiv_pos_site_id
 _symmetry_equiv_pos_as_xyz
 1  'x, y, z'
loop_
 _atom_site_type_symbol
 _atom_site_label
 _atom_site_symmetry_multiplicity
 _atom_site_fract_x
 _atom_site_fract_y
 _atom_site_fract_z
 _atom_site_fract_occupancy
 Ba  Ba1  1  0.24877  0.24877  0.24877  1
 Ba  Ba2  1  0.75123  0.75123  0.75123  1
 Bi  Bi1  1  0.00000  0.00000  0.00000  1
 Bi  Bi2  1  0.50000  0.50000  0.50000  1
 O  O1  1  0.23984  0.69321  0.81993  1
 O  O2  1  0.69321  0.81993  0.23984  1
 O  O3  1  0.81993  0.23984  0.69321  1
 O  O4  1  0.76016  0.30679  0.18007  1
 O  O5  1  0.18007  0.76016  0.30679  1
 O  O6  1  0.30679  0.18007  0.76016  1
