CIF file written using JARVIS-Tools package.
data_CsTaN2
_symmetry_space_group_name_H-M  'I-42d'
_cell_length_a       6.23629
_cell_length_b       6.21463
_cell_length_c       6.23628
_cell_angle_alpha    60.1148
_cell_angle_beta     59.7704
_cell_angle_gamma    60.1148

_symmetry_Int_Tables_number  122
_chemical_formula_structural  CsTaN2
_chemical_formula_sum  Cs2Ta2N4
_cell_volume  170.89986504985475
_cell_formula_units_Z  2
loop_
  _symmetry_equiv_pos_site_id
 _symmetry_equiv_pos_as_xyz
 1  'x, y, z'
loop_
 _atom_site_type_symbol
 _atom_site_label
 _atom_site_symmetry_multiplicity
 _atom_site_fract_x
 _atom_site_fract_y
 _atom_site_fract_z
 _atom_site_fract_occupancy
 Cs  Cs1  1  0.50000  0.50000  0.50000  1
 Cs  Cs2  1  0.75000  0.75000  0.75000  1
 N  N1  1  0.62500  0.18551  0.12500  1
 N  N2  1  0.18551  0.12500  0.06449  1
 N  N3  1  0.12500  0.06449  0.62500  1
 N  N4  1  0.06449  0.62500  0.18551  1
 Ta  Ta1  1  0.00000  0.00000  0.00000  1
 Ta  Ta2  1  0.25000  0.25000  0.25000  1
