CIF file written using JARVIS-Tools package.
data_Te2Mo3WSe4S2
_symmetry_space_group_name_H-M  'P3m1'
_cell_length_a       3.3507
_cell_length_b       3.35066
_cell_length_c       34.8392
_cell_angle_alpha    89.9888
_cell_angle_beta     90
_cell_angle_gamma    120

_symmetry_Int_Tables_number  156
_chemical_formula_structural  Te2Mo3WSe4S2
_chemical_formula_sum  Te2Mo3WSe4S2
_cell_volume  338.73782218807224
_cell_formula_units_Z  1
loop_
  _symmetry_equiv_pos_site_id
 _symmetry_equiv_pos_as_xyz
 1  'x, y, z'
loop_
 _atom_site_type_symbol
 _atom_site_label
 _atom_site_symmetry_multiplicity
 _atom_site_fract_x
 _atom_site_fract_y
 _atom_site_fract_z
 _atom_site_fract_occupancy
 Mo  Mo1  1  0.33344  0.66687  0.09527  1
 Mo  Mo2  1  0.33324  0.66647  0.46532  1
 Mo  Mo3  1  0.66672  0.33344  0.27745  1
 S  S1  1  0.66684  0.33368  0.05173  1
 S  S2  1  0.66666  0.33332  0.13883  1
 Se  Se1  1  0.33333  0.66667  0.32523  1
 Se  Se2  1  0.66662  0.33325  0.41750  1
 Se  Se3  1  0.66654  0.33308  0.51313  1
 Se  Se4  1  0.33342  0.66685  0.22963  1
 Te  Te1  1  0.33317  0.66633  0.71966  1
 Te  Te2  1  0.33340  0.66679  0.61007  1
 W  W1  1  0.66662  0.33323  0.66493  1
