CIF file written using JARVIS-Tools package.
data_HoH2ClO2
_symmetry_space_group_name_H-M  'P2_1/m'
_cell_length_a       6.21086
_cell_length_b       3.58574
_cell_length_c       6.57561
_cell_angle_alpha    90
_cell_angle_beta     105.633
_cell_angle_gamma    90

_symmetry_Int_Tables_number  11
_chemical_formula_structural  HoH2ClO2
_chemical_formula_sum  Ho2H4Cl2O4
_cell_volume  141.02541506024122
_cell_formula_units_Z  2
loop_
  _symmetry_equiv_pos_site_id
 _symmetry_equiv_pos_as_xyz
 1  'x, y, z'
loop_
 _atom_site_type_symbol
 _atom_site_label
 _atom_site_symmetry_multiplicity
 _atom_site_fract_x
 _atom_site_fract_y
 _atom_site_fract_z
 _atom_site_fract_occupancy
 Cl  Cl1  1  0.22926  0.75000  0.42916  1
 Cl  Cl2  1  0.77074  0.25000  0.57084  1
 H  H1  1  0.87527  0.25000  0.23744  1
 H  H2  1  0.63804  0.75000  0.30899  1
 H  H3  1  0.36196  0.25000  0.69101  1
 H  H4  1  0.12473  0.75000  0.76256  1
 Ho  Ho1  1  0.28222  0.25000  0.10996  1
 Ho  Ho2  1  0.71778  0.75000  0.89004  1
 O  O1  1  0.89568  0.25000  0.09436  1
 O  O2  1  0.54548  0.75000  0.16208  1
 O  O3  1  0.45452  0.25000  0.83792  1
 O  O4  1  0.10432  0.75000  0.90564  1
