CIF file written using JARVIS-Tools package.
data_H4CN2O
_symmetry_space_group_name_H-M  'P4/nmm'
_cell_length_a       5.02909
_cell_length_b       5.02909
_cell_length_c       5.62389
_cell_angle_alpha    90
_cell_angle_beta     90
_cell_angle_gamma    90

_symmetry_Int_Tables_number  129
_chemical_formula_structural  H4CN2O
_chemical_formula_sum  H8C2N4O2
_cell_volume  142.23809777638738
_cell_formula_units_Z  2
loop_
  _symmetry_equiv_pos_site_id
 _symmetry_equiv_pos_as_xyz
 1  'x, y, z'
loop_
 _atom_site_type_symbol
 _atom_site_label
 _atom_site_symmetry_multiplicity
 _atom_site_fract_x
 _atom_site_fract_y
 _atom_site_fract_z
 _atom_site_fract_occupancy
 C  C1  1  0.50000  0.00000  0.49500  1
 C  C2  1  0.00000  0.50000  0.50500  1
 H  H1  1  0.83040  0.00000  0.10746  1
 H  H2  1  0.50000  0.66960  0.10746  1
 H  H3  1  0.66960  0.50000  0.89254  1
 H  H4  1  0.00000  0.16960  0.89254  1
 H  H5  1  0.33040  0.50000  0.89254  1
 H  H6  1  0.16960  0.00000  0.10746  1
 H  H7  1  0.50000  0.33040  0.10746  1
 H  H8  1  0.00000  0.83040  0.89254  1
 N  N1  1  0.00000  0.50000  0.71918  1
 N  N2  1  0.50000  0.00000  0.28082  1
 N  N3  1  0.00000  0.00000  0.00000  1
 N  N4  1  0.50000  0.50000  0.00000  1
 O  O1  1  0.00000  0.50000  0.29014  1
 O  O2  1  0.50000  0.00000  0.70986  1
