CIF file written using JARVIS-Tools package.
data_RbLiO
_symmetry_space_group_name_H-M  'Pnma'
_cell_length_a       3.49652
_cell_length_b       6.53623
_cell_length_c       8.88453
_cell_angle_alpha    90
_cell_angle_beta     90
_cell_angle_gamma    90

_symmetry_Int_Tables_number  62
_chemical_formula_structural  RbLiO
_chemical_formula_sum  Rb4Li4O4
_cell_volume  203.04742271529753
_cell_formula_units_Z  4
loop_
  _symmetry_equiv_pos_site_id
 _symmetry_equiv_pos_as_xyz
 1  'x, y, z'
loop_
 _atom_site_type_symbol
 _atom_site_label
 _atom_site_symmetry_multiplicity
 _atom_site_fract_x
 _atom_site_fract_y
 _atom_site_fract_z
 _atom_site_fract_occupancy
 Li  Li1  1  0.75000  0.39710  0.00211  1
 Li  Li2  1  0.25000  0.10290  0.50211  1
 Li  Li3  1  0.75000  0.89710  0.49789  1
 Li  Li4  1  0.25000  0.60290  0.99789  1
 O  O1  1  0.25000  0.31312  0.04855  1
 O  O2  1  0.75000  0.18688  0.54855  1
 O  O3  1  0.25000  0.81312  0.45145  1
 O  O4  1  0.75000  0.68688  0.95145  1
 Rb  Rb1  1  0.25000  0.49938  0.67952  1
 Rb  Rb2  1  0.75000  0.50062  0.32048  1
 Rb  Rb3  1  0.25000  0.99938  0.82048  1
 Rb  Rb4  1  0.75000  0.00062  0.17952  1
