CIF file written using JARVIS-Tools package.
data_YbCl3
_symmetry_space_group_name_H-M  'Cmcm'
_cell_length_a       4.19327
_cell_length_b       5.23754
_cell_length_c       8.73486
_cell_angle_alpha    90
_cell_angle_beta     90
_cell_angle_gamma    113.597

_symmetry_Int_Tables_number  63
_chemical_formula_structural  YbCl3
_chemical_formula_sum  Yb2Cl6
_cell_volume  175.79712948927357
_cell_formula_units_Z  2
loop_
  _symmetry_equiv_pos_site_id
 _symmetry_equiv_pos_as_xyz
 1  'x, y, z'
loop_
 _atom_site_type_symbol
 _atom_site_label
 _atom_site_symmetry_multiplicity
 _atom_site_fract_x
 _atom_site_fract_y
 _atom_site_fract_z
 _atom_site_fract_occupancy
 Cl  Cl1  1  0.36532  0.73064  0.05068  1
 Cl  Cl2  1  0.63468  0.26936  0.94932  1
 Cl  Cl3  1  0.63468  0.26936  0.55068  1
 Cl  Cl4  1  0.36532  0.73064  0.44932  1
 Cl  Cl5  1  0.08898  0.17796  0.25000  1
 Cl  Cl6  1  0.91102  0.82204  0.75000  1
 Yb  Yb1  1  0.78207  0.56413  0.25000  1
 Yb  Yb2  1  0.21793  0.43587  0.75000  1
