CIF file written using JARVIS-Tools package.
data_CaGe2O5
_symmetry_space_group_name_H-M  'P-1'
_cell_length_a       5.45666
_cell_length_b       5.61978
_cell_length_c       6.93957
_cell_angle_alpha    105.614
_cell_angle_beta     101.197
_cell_angle_gamma    107.197

_symmetry_Int_Tables_number  2
_chemical_formula_structural  CaGe2O5
_chemical_formula_sum  Ca2Ge4O0
_cell_volume  186.91977526613113
_cell_formula_units_Z  2
loop_
  _symmetry_equiv_pos_site_id
 _symmetry_equiv_pos_as_xyz
 1  'x, y, z'
loop_
 _atom_site_type_symbol
 _atom_site_label
 _atom_site_symmetry_multiplicity
 _atom_site_fract_x
 _atom_site_fract_y
 _atom_site_fract_z
 _atom_site_fract_occupancy
 Ca  Ca1  1  0.65518  0.30965  0.27620  1
 Ca  Ca2  1  0.34070  0.67609  0.72554  1
 Ge  Ge1  1  0.30876  0.67161  0.23985  1
 Ge  Ge2  1  0.99793  0.99288  0.50088  1
 Ge  Ge3  1  0.68711  0.31413  0.76189  1
 Ge  Ge4  1  0.99794  0.99287  0.00088  1
 O  O1  1  0.92797  0.06634  0.25672  1
 O  O2  1  0.38074  0.22618  0.56043  1
 O  O3  1  0.06791  0.91941  0.74503  1
 O  O4  1  0.61513  0.75959  0.44133  1
 O  O5  1  0.29830  0.87608  0.08569  1
 O  O6  1  0.69758  0.10966  0.91606  1
 O  O7  1  0.26555  0.34778  0.08130  1
 O  O8  1  0.92754  0.31281  0.62114  1
 O  O9  1  0.06832  0.67294  0.38061  1
 O  O10  1  0.73033  0.63797  0.92046  1
