CIF file written using JARVIS-Tools package.
data_AlF3
_symmetry_space_group_name_H-M  'Cmcm'
_cell_length_a       6.96435
_cell_length_b       6.96435
_cell_length_c       7.1385
_cell_angle_alpha    90
_cell_angle_beta     90
_cell_angle_gamma    119.714

_symmetry_Int_Tables_number  63
_chemical_formula_structural  AlF3
_chemical_formula_sum  Al6F8
_cell_volume  300.70663053299097
_cell_formula_units_Z  6
loop_
  _symmetry_equiv_pos_site_id
 _symmetry_equiv_pos_as_xyz
 1  'x, y, z'
loop_
 _atom_site_type_symbol
 _atom_site_label
 _atom_site_symmetry_multiplicity
 _atom_site_fract_x
 _atom_site_fract_y
 _atom_site_fract_z
 _atom_site_fract_occupancy
 Al  Al1  1  0.50000  0.50000  0.00000  1
 Al  Al2  1  0.00000  0.50000  0.00000  1
 Al  Al3  1  0.50000  0.50000  0.50000  1
 Al  Al4  1  0.50000  0.00000  0.50000  1
 Al  Al5  1  0.50000  0.00000  0.00000  1
 Al  Al6  1  0.00000  0.50000  0.50000  1
 F  F1  1  0.44528  0.99483  0.75000  1
 F  F2  1  0.47064  0.52936  0.25000  1
 F  F3  1  0.21074  0.42070  0.96627  1
 F  F4  1  0.57930  0.78926  0.96627  1
 F  F5  1  0.99483  0.44528  0.25000  1
 F  F6  1  0.52936  0.47064  0.75000  1
 F  F7  1  0.42070  0.21074  0.03373  1
 F  F8  1  0.00517  0.55472  0.75000  1
 F  F9  1  0.55472  0.00517  0.25000  1
 F  F10  1  0.78562  0.21438  0.53823  1
 F  F11  1  0.57930  0.78926  0.53373  1
 F  F12  1  0.78562  0.21438  0.96177  1
 F  F13  1  0.21438  0.78562  0.03823  1
 F  F14  1  0.78926  0.57930  0.03373  1
 F  F15  1  0.21438  0.78562  0.46177  1
 F  F16  1  0.42070  0.21074  0.46627  1
 F  F17  1  0.78926  0.57930  0.46627  1
 F  F18  1  0.21074  0.42070  0.53373  1
