CIF file written using JARVIS-Tools package.
data_LiCuS
_symmetry_space_group_name_H-M  'Pnma'
_cell_length_a       3.97136
_cell_length_b       6.61902
_cell_length_c       7.78861
_cell_angle_alpha    90
_cell_angle_beta     90
_cell_angle_gamma    90

_symmetry_Int_Tables_number  62
_chemical_formula_structural  LiCuS
_chemical_formula_sum  Li4Cu4S4
_cell_volume  204.73539311284262
_cell_formula_units_Z  4
loop_
  _symmetry_equiv_pos_site_id
 _symmetry_equiv_pos_as_xyz
 1  'x, y, z'
loop_
 _atom_site_type_symbol
 _atom_site_label
 _atom_site_symmetry_multiplicity
 _atom_site_fract_x
 _atom_site_fract_y
 _atom_site_fract_z
 _atom_site_fract_occupancy
 Cu  Cu1  1  0.00000  0.48726  0.20411  1
 Cu  Cu2  1  0.00000  0.51274  0.70411  1
 Cu  Cu3  1  0.50000  0.98731  0.27135  1
 Cu  Cu4  1  0.50000  0.01269  0.77135  1
 Li  Li1  1  0.00000  0.11173  0.07624  1
 Li  Li2  1  0.00000  0.88827  0.57624  1
 Li  Li3  1  0.50000  0.38823  0.89900  1
 Li  Li4  1  0.50000  0.61177  0.39900  1
 S  S1  1  0.00000  0.82084  0.27353  1
 S  S2  1  0.00000  0.17916  0.77353  1
 S  S3  1  0.50000  0.32083  0.20175  1
 S  S4  1  0.50000  0.67917  0.70175  1
