CIF file written using JARVIS-Tools package.
data_K2Cd2O3
_symmetry_space_group_name_H-M  'P2_1/c'
_cell_length_a       6.4779
_cell_length_b       6.60463
_cell_length_c       6.86438
_cell_angle_alpha    90
_cell_angle_beta     118.148
_cell_angle_gamma    90

_symmetry_Int_Tables_number  14
_chemical_formula_structural  K2Cd2O3
_chemical_formula_sum  K4Cd4O6
_cell_volume  258.9513371994881
_cell_formula_units_Z  2
loop_
  _symmetry_equiv_pos_site_id
 _symmetry_equiv_pos_as_xyz
 1  'x, y, z'
loop_
 _atom_site_type_symbol
 _atom_site_label
 _atom_site_symmetry_multiplicity
 _atom_site_fract_x
 _atom_site_fract_y
 _atom_site_fract_z
 _atom_site_fract_occupancy
 Cd  Cd1  1  0.34127  0.12891  0.08136  1
 Cd  Cd2  1  0.34127  0.37109  0.58136  1
 Cd  Cd3  1  0.65873  0.87109  0.91864  1
 Cd  Cd4  1  0.65873  0.62891  0.41864  1
 K  K1  1  0.84722  0.34414  0.09451  1
 K  K2  1  0.84722  0.15586  0.59451  1
 K  K3  1  0.15278  0.65586  0.90549  1
 K  K4  1  0.15278  0.84414  0.40549  1
 O  O1  1  -0.00000  0.50000  0.50000  1
 O  O2  1  0.64145  0.59097  0.74017  1
 O  O3  1  0.35855  0.09097  0.75983  1
 O  O4  1  0.35855  0.40903  0.25983  1
 O  O5  1  0.00000  0.00000  0.00000  1
 O  O6  1  0.64145  0.90903  0.24017  1
