CIF file written using JARVIS-Tools package.
data_LiTiV2O6
_symmetry_space_group_name_H-M  'Cm'
_cell_length_a       2.95435
_cell_length_b       5.8178
_cell_length_c       6.36938
_cell_angle_alpha    101.737
_cell_angle_beta     103.412
_cell_angle_gamma    89.9963

_symmetry_Int_Tables_number  8
_chemical_formula_structural  LiTiV2O6
_chemical_formula_sum  LiTiV2O6
_cell_volume  104.13563226411911
_cell_formula_units_Z  1
loop_
  _symmetry_equiv_pos_site_id
 _symmetry_equiv_pos_as_xyz
 1  'x, y, z'
loop_
 _atom_site_type_symbol
 _atom_site_label
 _atom_site_symmetry_multiplicity
 _atom_site_fract_x
 _atom_site_fract_y
 _atom_site_fract_z
 _atom_site_fract_occupancy
 Li  Li1  1  0.67037  0.83615  0.34016  1
 O  O1  1  0.49992  0.79654  -0.00015  1
 O  O2  1  0.82748  0.41589  0.65500  1
 O  O3  1  0.15227  0.09737  0.30457  1
 O  O4  1  0.83848  0.86928  0.67705  1
 O  O5  1  0.17931  0.56841  0.35872  1
 O  O6  1  0.49719  0.25160  -0.00552  1
 Ti  Ti1  1  0.35151  0.63213  0.70307  1
 V  V1  1  0.98977  0.03648  0.97963  1
 V  V2  1  0.65976  0.33414  0.31961  1
