CIF file written using JARVIS-Tools package.
data_Rb4CO4
_symmetry_space_group_name_H-M  'C2'
_cell_length_a       5.99275
_cell_length_b       6.60658
_cell_length_c       5.87595
_cell_angle_alpha    116.056
_cell_angle_beta     120.655
_cell_angle_gamma    89.9718

_symmetry_Int_Tables_number  5
_chemical_formula_structural  Rb4CO4
_chemical_formula_sum  Rb4CO4
_cell_volume  172.10746511040207
_cell_formula_units_Z  1
loop_
  _symmetry_equiv_pos_site_id
 _symmetry_equiv_pos_as_xyz
 1  'x, y, z'
loop_
 _atom_site_type_symbol
 _atom_site_label
 _atom_site_symmetry_multiplicity
 _atom_site_fract_x
 _atom_site_fract_y
 _atom_site_fract_z
 _atom_site_fract_occupancy
 C  C1  1  0.87293  0.00007  0.00005  1
 O  O1  1  0.13594  0.16764  0.24489  1
 O  O2  1  0.79336  0.87992  0.10939  1
 O  O3  1  0.68445  0.12052  0.89049  1
 O  O4  1  0.89138  0.83221  0.75542  1
 Rb  Rb1  1  0.01855  0.58326  0.37437  1
 Rb  Rb2  1  0.18387  0.16408  0.75994  1
 Rb  Rb3  1  0.42406  0.83568  0.24016  1
 Rb  Rb4  1  0.64396  0.41663  0.62529  1
