CIF file written using JARVIS-Tools package.
data_LuP5
_symmetry_space_group_name_H-M  'P2_1/m'
_cell_length_a       4.90736
_cell_length_b       9.35089
_cell_length_c       5.31109
_cell_angle_alpha    90
_cell_angle_beta     102.653
_cell_angle_gamma    90

_symmetry_Int_Tables_number  11
_chemical_formula_structural  LuP5
_chemical_formula_sum  Lu2P0
_cell_volume  237.7987130067588
_cell_formula_units_Z  2
loop_
  _symmetry_equiv_pos_site_id
 _symmetry_equiv_pos_as_xyz
 1  'x, y, z'
loop_
 _atom_site_type_symbol
 _atom_site_label
 _atom_site_symmetry_multiplicity
 _atom_site_fract_x
 _atom_site_fract_y
 _atom_site_fract_z
 _atom_site_fract_occupancy
 Lu  Lu1  1  0.99663  0.25000  0.65160  1
 Lu  Lu2  1  0.00337  0.75000  0.34840  1
 P  P1  1  0.73119  0.25000  0.10915  1
 P  P2  1  0.26881  0.75000  0.89085  1
 P  P3  1  0.38121  0.40652  0.04048  1
 P  P4  1  0.61879  0.90652  0.95952  1
 P  P5  1  0.61879  0.59348  0.95952  1
 P  P6  1  0.38121  0.09348  0.04048  1
 P  P7  1  0.28065  0.47125  0.40474  1
 P  P8  1  0.71935  0.97125  0.59526  1
 P  P9  1  0.71935  0.52875  0.59526  1
 P  P10  1  0.28065  0.02875  0.40474  1
