CIF file written using JARVIS-Tools package.
data_B12S
_symmetry_space_group_name_H-M  'R-3m'
_cell_length_a       5.12277
_cell_length_b       5.12277
_cell_length_c       5.12277
_cell_angle_alpha    69.7589
_cell_angle_beta     69.7588
_cell_angle_gamma    69.7589

_symmetry_Int_Tables_number  166
_chemical_formula_structural  B12S
_chemical_formula_sum  B2S
_cell_volume  114.36780745073638
_cell_formula_units_Z  1
loop_
  _symmetry_equiv_pos_site_id
 _symmetry_equiv_pos_as_xyz
 1  'x, y, z'
loop_
 _atom_site_type_symbol
 _atom_site_label
 _atom_site_symmetry_multiplicity
 _atom_site_fract_x
 _atom_site_fract_y
 _atom_site_fract_z
 _atom_site_fract_occupancy
 B  B1  1  0.18703  0.18703  0.71548  1
 B  B2  1  0.67020  0.99010  0.99010  1
 B  B3  1  0.81297  0.81297  0.28452  1
 B  B4  1  0.99010  0.67020  0.99010  1
 B  B5  1  0.28452  0.81297  0.81297  1
 B  B6  1  0.00990  0.32980  0.00990  1
 B  B7  1  0.81297  0.28452  0.81297  1
 B  B8  1  0.18703  0.71548  0.18703  1
 B  B9  1  0.71548  0.18703  0.18703  1
 B  B10  1  0.32980  0.00990  0.00990  1
 B  B11  1  0.00990  0.00990  0.32980  1
 B  B12  1  0.99010  0.99010  0.67020  1
 S  S1  1  0.50000  0.50000  0.50000  1
