CIF file written using JARVIS-Tools package.
data_AsNO2F6
_symmetry_space_group_name_H-M  'C2/m'
_cell_length_a       5.20485
_cell_length_b       5.20485
_cell_length_c       4.74006
_cell_angle_alpha    88.3536
_cell_angle_beta     88.3536
_cell_angle_gamma    87.4325

_symmetry_Int_Tables_number  12
_chemical_formula_structural  AsNO2F6
_chemical_formula_sum  AsNO2F6
_cell_volume  128.17985120782876
_cell_formula_units_Z  1
loop_
  _symmetry_equiv_pos_site_id
 _symmetry_equiv_pos_as_xyz
 1  'x, y, z'
loop_
 _atom_site_type_symbol
 _atom_site_label
 _atom_site_symmetry_multiplicity
 _atom_site_fract_x
 _atom_site_fract_y
 _atom_site_fract_z
 _atom_site_fract_occupancy
 As  As1  1  0.00000  0.00000  0.00000  1
 F  F1  1  0.19946  0.19946  0.78783  1
 F  F2  1  0.08420  0.73540  0.78319  1
 F  F3  1  0.73540  0.08420  0.78319  1
 F  F4  1  0.26460  0.91580  0.21681  1
 F  F5  1  0.91580  0.26460  0.21681  1
 F  F6  1  0.80054  0.80054  0.21217  1
 N  N1  1  0.50000  0.50000  0.50000  1
 O  O1  1  0.58671  0.58671  0.69071  1
 O  O2  1  0.41329  0.41329  0.30929  1
