CIF file written using JARVIS-Tools package.
data_LiAg3O2
_symmetry_space_group_name_H-M  'Ibam'
_cell_length_a       5.69001
_cell_length_b       5.99557
_cell_length_c       6.46914
_cell_angle_alpha    117.607
_cell_angle_beta     116.09
_cell_angle_gamma    90

_symmetry_Int_Tables_number  72
_chemical_formula_structural  LiAg3O2
_chemical_formula_sum  Li2Ag6O4
_cell_volume  169.78422587701604
_cell_formula_units_Z  2
loop_
  _symmetry_equiv_pos_site_id
 _symmetry_equiv_pos_as_xyz
 1  'x, y, z'
loop_
 _atom_site_type_symbol
 _atom_site_label
 _atom_site_symmetry_multiplicity
 _atom_site_fract_x
 _atom_site_fract_y
 _atom_site_fract_z
 _atom_site_fract_occupancy
 Ag  Ag1  1  -0.00000  0.50000  0.50000  1
 Ag  Ag2  1  0.50000  -0.00000  0.50000  1
 Ag  Ag3  1  0.50000  0.50000  0.50000  1
 Ag  Ag4  1  0.50000  -0.00000  -0.00000  1
 Ag  Ag5  1  0.00000  0.00000  0.00000  1
 Ag  Ag6  1  0.00000  -0.00000  0.50000  1
 Li  Li1  1  0.25000  0.50000  -0.00000  1
 Li  Li2  1  0.75000  0.50000  -0.00000  1
 O  O1  1  0.90461  0.58536  0.80921  1
 O  O2  1  0.40461  0.22386  0.80921  1
 O  O3  1  0.09539  0.41464  0.19079  1
 O  O4  1  0.59539  0.77614  0.19079  1
