CIF file written using JARVIS-Tools package.
data_TiPO4
_symmetry_space_group_name_H-M  'Cmcm'
_cell_length_a       4.86639
_cell_length_b       4.86639
_cell_length_c       5.9046
_cell_angle_alpha    90
_cell_angle_beta     90
_cell_angle_gamma    111.25

_symmetry_Int_Tables_number  63
_chemical_formula_structural  TiPO4
_chemical_formula_sum  Ti2P2O8
_cell_volume  130.32396312841453
_cell_formula_units_Z  2
loop_
  _symmetry_equiv_pos_site_id
 _symmetry_equiv_pos_as_xyz
 1  'x, y, z'
loop_
 _atom_site_type_symbol
 _atom_site_label
 _atom_site_symmetry_multiplicity
 _atom_site_fract_x
 _atom_site_fract_y
 _atom_site_fract_z
 _atom_site_fract_occupancy
 O  O1  1  0.24379  0.75621  0.53651  1
 O  O2  1  0.75621  0.24379  0.03651  1
 O  O3  1  0.75621  0.24379  0.46349  1
 O  O4  1  0.24379  0.75621  0.96349  1
 O  O5  1  0.69806  0.76580  0.75000  1
 O  O6  1  0.30194  0.23420  0.25000  1
 O  O7  1  0.76580  0.69806  0.25000  1
 O  O8  1  0.23420  0.30194  0.75000  1
 P  P1  1  0.64861  0.35139  0.25000  1
 P  P2  1  0.35139  0.64861  0.75000  1
 Ti  Ti1  1  0.00000  0.00000  0.50000  1
 Ti  Ti2  1  0.00000  0.00000  0.00000  1
