CIF file written using JARVIS-Tools package.
data_ZnS
_symmetry_space_group_name_H-M  'P3m1'
_cell_length_a       3.83882
_cell_length_b       3.83882
_cell_length_c       25.1569
_cell_angle_alpha    90
_cell_angle_beta     90
_cell_angle_gamma    120

_symmetry_Int_Tables_number  156
_chemical_formula_structural  ZnS
_chemical_formula_sum  Zn8S8
_cell_volume  321.0578737269267
_cell_formula_units_Z  8
loop_
  _symmetry_equiv_pos_site_id
 _symmetry_equiv_pos_as_xyz
 1  'x, y, z'
loop_
 _atom_site_type_symbol
 _atom_site_label
 _atom_site_symmetry_multiplicity
 _atom_site_fract_x
 _atom_site_fract_y
 _atom_site_fract_z
 _atom_site_fract_occupancy
 S  S1  1  0.33333  0.66667  0.34379  1
 S  S2  1  0.33333  0.66667  0.96902  1
 S  S3  1  0.66667  0.33333  0.21861  1
 S  S4  1  0.00000  0.00000  0.59337  1
 S  S5  1  0.00000  0.00000  0.09386  1
 S  S6  1  0.00000  0.00000  0.84377  1
 S  S7  1  0.66667  0.33333  0.46862  1
 S  S8  1  0.33333  0.66667  0.71854  1
 Zn  Zn1  1  0.66667  0.33333  0.12509  1
 Zn  Zn2  1  0.00000  0.00000  0.00037  1
 Zn  Zn3  1  0.33333  0.66667  0.62483  1
 Zn  Zn4  1  0.33333  0.66667  0.87534  1
 Zn  Zn5  1  0.00000  0.00000  0.75010  1
 Zn  Zn6  1  0.66667  0.33333  0.37514  1
 Zn  Zn7  1  0.00000  0.00000  0.49986  1
 Zn  Zn8  1  0.33333  0.66667  0.25007  1
