CIF file written using JARVIS-Tools package.
data_ZrI3
_symmetry_space_group_name_H-M  'P6_3/mcm'
_cell_length_a       7.32855
_cell_length_b       7.32855
_cell_length_c       6.55464
_cell_angle_alpha    90
_cell_angle_beta     90
_cell_angle_gamma    120

_symmetry_Int_Tables_number  193
_chemical_formula_structural  ZrI3
_chemical_formula_sum  Zr2I6
_cell_volume  304.87089775669017
_cell_formula_units_Z  2
loop_
  _symmetry_equiv_pos_site_id
 _symmetry_equiv_pos_as_xyz
 1  'x, y, z'
loop_
 _atom_site_type_symbol
 _atom_site_label
 _atom_site_symmetry_multiplicity
 _atom_site_fract_x
 _atom_site_fract_y
 _atom_site_fract_z
 _atom_site_fract_occupancy
 I  I1  1  0.33009  0.00000  0.75000  1
 I  I2  1  -0.00000  0.66991  0.25000  1
 I  I3  1  0.33009  0.33009  0.25000  1
 I  I4  1  0.66991  0.66991  0.75000  1
 I  I5  1  0.00000  0.33009  0.75000  1
 I  I6  1  0.66991  -0.00000  0.25000  1
 Zr  Zr1  1  0.00000  0.00000  0.00000  1
 Zr  Zr2  1  0.00000  0.00000  0.50000  1
