CIF file written using JARVIS-Tools package.
data_Na2TiCl4
_symmetry_space_group_name_H-M  'Pbam'
_cell_length_a       3.71485
_cell_length_b       6.9244
_cell_length_c       12.0403
_cell_angle_alpha    90
_cell_angle_beta     90
_cell_angle_gamma    90

_symmetry_Int_Tables_number  55
_chemical_formula_structural  Na2TiCl4
_chemical_formula_sum  Na4Ti2Cl8
_cell_volume  309.7136537015017
_cell_formula_units_Z  2
loop_
  _symmetry_equiv_pos_site_id
 _symmetry_equiv_pos_as_xyz
 1  'x, y, z'
loop_
 _atom_site_type_symbol
 _atom_site_label
 _atom_site_symmetry_multiplicity
 _atom_site_fract_x
 _atom_site_fract_y
 _atom_site_fract_z
 _atom_site_fract_occupancy
 Cl  Cl1  1  0.00000  0.25609  0.04267  1
 Cl  Cl2  1  0.50000  0.88067  0.69848  1
 Cl  Cl3  1  0.50000  0.11933  0.30152  1
 Cl  Cl4  1  0.50000  0.38067  0.80152  1
 Cl  Cl5  1  0.50000  0.61933  0.19848  1
 Cl  Cl6  1  0.00000  0.75609  0.45733  1
 Cl  Cl7  1  0.00000  0.24391  0.54267  1
 Cl  Cl8  1  0.00000  0.74391  0.95733  1
 Na  Na1  1  0.00000  0.41350  0.32095  1
 Na  Na2  1  0.00000  0.58650  0.67905  1
 Na  Na3  1  0.00000  0.91350  0.17905  1
 Na  Na4  1  0.00000  0.08650  0.82095  1
 Ti  Ti1  1  0.50000  0.00000  0.50000  1
 Ti  Ti2  1  0.50000  0.50000  0.00000  1
