CIF file written using JARVIS-Tools package.
data_AsF3
_symmetry_space_group_name_H-M  'Pna2_1'
_cell_length_a       5.08112
_cell_length_b       6.67534
_cell_length_c       7.18412
_cell_angle_alpha    90
_cell_angle_beta     90
_cell_angle_gamma    90

_symmetry_Int_Tables_number  33
_chemical_formula_structural  AsF3
_chemical_formula_sum  As4F2
_cell_volume  243.67232017243407
_cell_formula_units_Z  4
loop_
  _symmetry_equiv_pos_site_id
 _symmetry_equiv_pos_as_xyz
 1  'x, y, z'
loop_
 _atom_site_type_symbol
 _atom_site_label
 _atom_site_symmetry_multiplicity
 _atom_site_fract_x
 _atom_site_fract_y
 _atom_site_fract_z
 _atom_site_fract_occupancy
 As  As1  1  0.46348  0.20669  0.75669  1
 As  As2  1  0.53652  0.79331  0.25669  1
 As  As3  1  0.03652  0.70669  0.75669  1
 As  As4  1  0.96348  0.29331  0.25669  1
 F  F1  1  0.18534  0.32208  0.64453  1
 F  F2  1  0.81466  0.67792  0.14453  1
 F  F3  1  0.31466  0.82208  0.64453  1
 F  F4  1  0.68534  0.17792  0.14453  1
 F  F5  1  0.10318  0.05538  0.31393  1
 F  F6  1  0.89682  0.94462  0.81393  1
 F  F7  1  0.39682  0.55538  0.31393  1
 F  F8  1  0.60318  0.44462  0.81393  1
 F  F9  1  0.13571  0.31036  0.03964  1
 F  F10  1  0.86429  0.68964  0.53964  1
 F  F11  1  0.36429  0.81036  0.03964  1
 F  F12  1  0.63571  0.18964  0.53964  1
