CIF file written using JARVIS-Tools package.
data_ZnCrSiO5
_symmetry_space_group_name_H-M  'P-1'
_cell_length_a       5.16412
_cell_length_b       5.41622
_cell_length_c       6.98732
_cell_angle_alpha    105.824
_cell_angle_beta     105.415
_cell_angle_gamma    103.781

_symmetry_Int_Tables_number  2
_chemical_formula_structural  ZnCrSiO5
_chemical_formula_sum  Zn2Cr2Si2O0
_cell_volume  170.79251052389134
_cell_formula_units_Z  2
loop_
  _symmetry_equiv_pos_site_id
 _symmetry_equiv_pos_as_xyz
 1  'x, y, z'
loop_
 _atom_site_type_symbol
 _atom_site_label
 _atom_site_symmetry_multiplicity
 _atom_site_fract_x
 _atom_site_fract_y
 _atom_site_fract_z
 _atom_site_fract_occupancy
 Cr  Cr1  1  0.00425  0.49492  0.51456  1
 Cr  Cr2  1  0.00425  0.49492  0.01456  1
 O  O1  1  0.74214  0.68927  0.93310  1
 O  O2  1  0.94797  0.84262  0.65253  1
 O  O3  1  0.26635  0.30058  0.09601  1
 O  O4  1  0.06055  0.14721  0.37659  1
 O  O5  1  0.62911  0.30488  0.46691  1
 O  O6  1  0.32309  0.84622  0.16507  1
 O  O7  1  0.37940  0.68494  0.56220  1
 O  O8  1  0.68539  0.14362  0.86403  1
 O  O9  1  0.89668  0.54388  0.25417  1
 O  O10  1  0.11180  0.44596  0.77494  1
 Si  Si1  1  0.69024  0.83157  0.75249  1
 Si  Si2  1  0.31827  0.15828  0.27662  1
 Zn  Zn1  1  0.30631  0.17437  0.79412  1
 Zn  Zn2  1  0.70218  0.81549  0.23496  1
