CIF file written using JARVIS-Tools package.
data_HgPS3
_symmetry_space_group_name_H-M  'P-1'
_cell_length_a       6.34904
_cell_length_b       6.30449
_cell_length_c       7.18719
_cell_angle_alpha    96.1601
_cell_angle_beta     106.28
_cell_angle_gamma    119.381

_symmetry_Int_Tables_number  2
_chemical_formula_structural  HgPS3
_chemical_formula_sum  Hg2P2S6
_cell_volume  230.09227350041547
_cell_formula_units_Z  2
loop_
  _symmetry_equiv_pos_site_id
 _symmetry_equiv_pos_as_xyz
 1  'x, y, z'
loop_
 _atom_site_type_symbol
 _atom_site_label
 _atom_site_symmetry_multiplicity
 _atom_site_fract_x
 _atom_site_fract_y
 _atom_site_fract_z
 _atom_site_fract_occupancy
 Hg  Hg1  1  0.11516  0.74371  0.33329  1
 Hg  Hg2  1  0.88484  0.25629  0.66671  1
 P  P1  1  0.54633  0.56399  0.67039  1
 P  P2  1  0.45367  0.43601  0.32961  1
 S  S1  1  0.50577  0.14089  0.28074  1
 S  S2  1  0.49423  0.85911  0.71926  1
 S  S3  1  0.07634  0.32618  0.18571  1
 S  S4  1  0.92366  0.67382  0.81429  1
 S  S5  1  0.29351  0.25369  0.73842  1
 S  S6  1  0.70649  0.74631  0.26158  1
