CIF file written using JARVIS-Tools package.
data_K2SnSe3
_symmetry_space_group_name_H-M  'P-1'
_cell_length_a       6.82693
_cell_length_b       7.55005
_cell_length_c       8.67816
_cell_angle_alpha    75.6691
_cell_angle_beta     75.9245
_cell_angle_gamma    67.9826

_symmetry_Int_Tables_number  2
_chemical_formula_structural  K2SnSe3
_chemical_formula_sum  K4Sn2Se6
_cell_volume  396.10473045677367
_cell_formula_units_Z  2
loop_
  _symmetry_equiv_pos_site_id
 _symmetry_equiv_pos_as_xyz
 1  'x, y, z'
loop_
 _atom_site_type_symbol
 _atom_site_label
 _atom_site_symmetry_multiplicity
 _atom_site_fract_x
 _atom_site_fract_y
 _atom_site_fract_z
 _atom_site_fract_occupancy
 K  K1  1  0.38355  0.78999  0.89832  1
 K  K2  1  0.61645  0.21001  0.10168  1
 K  K3  1  0.13329  0.47607  0.68636  1
 K  K4  1  0.86671  0.52393  0.31364  1
 Se  Se1  1  0.64350  0.41456  0.71018  1
 Se  Se2  1  0.76743  0.94640  0.45373  1
 Se  Se3  1  0.85884  0.80313  0.93450  1
 Se  Se4  1  0.35650  0.58544  0.28982  1
 Se  Se5  1  0.14116  0.19687  0.06550  1
 Se  Se6  1  0.23257  0.05360  0.54627  1
 Sn  Sn1  1  0.84316  0.06529  0.69017  1
 Sn  Sn2  1  0.15684  0.93471  0.30983  1
