CIF file written using JARVIS-Tools package.
data_Sr3BPO3
_symmetry_space_group_name_H-M  'P6_3/mmc'
_cell_length_a       5.2867
_cell_length_b       5.2867
_cell_length_c       12.6706
_cell_angle_alpha    90
_cell_angle_beta     90
_cell_angle_gamma    120

_symmetry_Int_Tables_number  194
_chemical_formula_structural  Sr3BPO3
_chemical_formula_sum  Sr6B2P2O6
_cell_volume  306.68883194787907
_cell_formula_units_Z  2
loop_
  _symmetry_equiv_pos_site_id
 _symmetry_equiv_pos_as_xyz
 1  'x, y, z'
loop_
 _atom_site_type_symbol
 _atom_site_label
 _atom_site_symmetry_multiplicity
 _atom_site_fract_x
 _atom_site_fract_y
 _atom_site_fract_z
 _atom_site_fract_occupancy
 B  B1  1  0.33333  0.66667  0.75000  1
 B  B2  1  0.66667  0.33333  0.25000  1
 O  O1  1  0.51539  0.48461  0.25000  1
 O  O2  1  0.96923  0.48461  0.25000  1
 O  O3  1  0.48461  0.96923  0.75000  1
 O  O4  1  0.51539  0.03077  0.25000  1
 O  O5  1  0.03077  0.51539  0.75000  1
 O  O6  1  0.48461  0.51539  0.75000  1
 P  P1  1  0.00000  0.00000  0.00000  1
 P  P2  1  0.00000  0.00000  0.50000  1
 Sr  Sr1  1  0.33333  0.66667  0.40027  1
 Sr  Sr2  1  0.00000  0.00000  0.25000  1
 Sr  Sr3  1  0.00000  0.00000  0.75000  1
 Sr  Sr4  1  0.66667  0.33333  0.90027  1
 Sr  Sr5  1  0.66667  0.33333  0.59973  1
 Sr  Sr6  1  0.33333  0.66667  0.09973  1
