CIF file written using JARVIS-Tools package.
data_FeBiO3
_symmetry_space_group_name_H-M  'R3c'
_cell_length_a       5.52322
_cell_length_b       5.52321
_cell_length_c       5.52322
_cell_angle_alpha    60.039
_cell_angle_beta     60.039
_cell_angle_gamma    60.039

_symmetry_Int_Tables_number  161
_chemical_formula_structural  FeBiO3
_chemical_formula_sum  Fe2Bi2O6
_cell_volume  119.24628010564506
_cell_formula_units_Z  2
loop_
  _symmetry_equiv_pos_site_id
 _symmetry_equiv_pos_as_xyz
 1  'x, y, z'
loop_
 _atom_site_type_symbol
 _atom_site_label
 _atom_site_symmetry_multiplicity
 _atom_site_fract_x
 _atom_site_fract_y
 _atom_site_fract_z
 _atom_site_fract_occupancy
 Bi  Bi1  1  0.48881  0.48881  0.48881  1
 Bi  Bi2  1  0.98881  0.98881  0.98881  1
 Fe  Fe1  1  0.71473  0.71473  0.71473  1
 Fe  Fe2  1  0.21473  0.21473  0.21473  1
 O  O1  1  0.89682  0.44389  0.02675  1
 O  O2  1  0.44389  0.02675  0.89682  1
 O  O3  1  0.02675  0.89682  0.44389  1
 O  O4  1  0.52675  0.94389  0.39682  1
 O  O5  1  0.39682  0.52675  0.94389  1
 O  O6  1  0.94389  0.39682  0.52675  1
