CIF file written using JARVIS-Tools package.
data_Sr2LiSiO4F
_symmetry_space_group_name_H-M  'P2_1/m'
_cell_length_a       6.57615
_cell_length_b       5.42962
_cell_length_c       6.97868
_cell_angle_alpha    90
_cell_angle_beta     112.521
_cell_angle_gamma    90

_symmetry_Int_Tables_number  11
_chemical_formula_structural  Sr2LiSiO4F
_chemical_formula_sum  Sr4Li2Si2O8F2
_cell_volume  230.1781175832019
_cell_formula_units_Z  2
loop_
  _symmetry_equiv_pos_site_id
 _symmetry_equiv_pos_as_xyz
 1  'x, y, z'
loop_
 _atom_site_type_symbol
 _atom_site_label
 _atom_site_symmetry_multiplicity
 _atom_site_fract_x
 _atom_site_fract_y
 _atom_site_fract_z
 _atom_site_fract_occupancy
 F  F1  1  0.00000  0.50000  0.00000  1
 F  F2  1  0.00000  0.00000  0.00000  1
 Li  Li1  1  0.85186  0.25000  0.11961  1
 Li  Li2  1  0.14814  0.75000  0.88039  1
 O  O1  1  0.65822  0.75000  0.56977  1
 O  O2  1  0.34178  0.25000  0.43023  1
 O  O3  1  0.40318  0.75000  0.15441  1
 O  O4  1  0.77850  0.50594  0.28932  1
 O  O5  1  0.59682  0.25000  0.84559  1
 O  O6  1  0.22150  0.00594  0.71068  1
 O  O7  1  0.22150  0.49406  0.71068  1
 O  O8  1  0.77850  0.99406  0.28932  1
 Si  Si1  1  0.34481  0.25000  0.66483  1
 Si  Si2  1  0.65519  0.75000  0.33517  1
 Sr  Sr1  1  0.36453  0.25000  0.09991  1
 Sr  Sr2  1  0.16065  0.75000  0.37269  1
 Sr  Sr3  1  0.63547  0.75000  0.90009  1
 Sr  Sr4  1  0.83935  0.25000  0.62731  1
