CIF file written using JARVIS-Tools package.
data_ScMn4Al8
_symmetry_space_group_name_H-M  'I4/mmm'
_cell_length_a       4.93196
_cell_length_b       6.62775
_cell_length_c       6.62775
_cell_angle_alpha    82.0427
_cell_angle_beta     68.1567
_cell_angle_gamma    68.1567

_symmetry_Int_Tables_number  139
_chemical_formula_structural  ScMn4Al8
_chemical_formula_sum  ScMn4Al8
_cell_volume  186.65483419447713
_cell_formula_units_Z  1
loop_
  _symmetry_equiv_pos_site_id
 _symmetry_equiv_pos_as_xyz
 1  'x, y, z'
loop_
 _atom_site_type_symbol
 _atom_site_label
 _atom_site_symmetry_multiplicity
 _atom_site_fract_x
 _atom_site_fract_y
 _atom_site_fract_z
 _atom_site_fract_occupancy
 Al  Al1  1  0.33611  0.66389  0.66389  1
 Al  Al2  1  0.00000  0.33611  0.66389  1
 Al  Al3  1  -0.00000  0.66389  0.33611  1
 Al  Al4  1  0.66389  0.33611  0.33611  1
 Al  Al5  1  0.28433  0.21567  0.21567  1
 Al  Al6  1  0.50000  0.78433  0.21567  1
 Al  Al7  1  0.50000  0.21567  0.78433  1
 Al  Al8  1  0.71567  0.78433  0.78433  1
 Mn  Mn1  1  0.50000  0.00000  0.50000  1
 Mn  Mn2  1  0.00000  0.50000  0.00000  1
 Mn  Mn3  1  0.50000  0.50000  0.00000  1
 Mn  Mn4  1  0.00000  0.00000  0.50000  1
 Sc  Sc1  1  0.00000  0.00000  0.00000  1
