CIF file written using JARVIS-Tools package.
data_K3Na2LiTeO6
_symmetry_space_group_name_H-M  'Cc'
_cell_length_a       6.81168
_cell_length_b       7.57337
_cell_length_c       7.57337
_cell_angle_alpha    104.276
_cell_angle_beta     92.2601
_cell_angle_gamma    92.2602

_symmetry_Int_Tables_number  9
_chemical_formula_structural  K3Na2LiTeO6
_chemical_formula_sum  K6Na4Li2Te2O2
_cell_volume  377.842016223375
_cell_formula_units_Z  2
loop_
  _symmetry_equiv_pos_site_id
 _symmetry_equiv_pos_as_xyz
 1  'x, y, z'
loop_
 _atom_site_type_symbol
 _atom_site_label
 _atom_site_symmetry_multiplicity
 _atom_site_fract_x
 _atom_site_fract_y
 _atom_site_fract_z
 _atom_site_fract_occupancy
 K  K1  1  0.77695  0.37225  0.40465  1
 K  K2  1  0.43567  0.01108  0.10912  1
 K  K3  1  0.24409  0.78273  0.70135  1
 K  K4  1  0.27695  0.40465  0.37225  1
 K  K5  1  0.93567  0.10912  0.01108  1
 K  K6  1  0.74409  0.70135  0.78273  1
 Li  Li1  1  0.74643  0.47190  0.03363  1
 Li  Li2  1  0.24643  0.03363  0.47190  1
 Na  Na1  1  0.09273  0.43195  0.85773  1
 Na  Na2  1  0.59273  0.85773  0.43195  1
 Na  Na3  1  0.39573  0.61303  0.07132  1
 Na  Na4  1  0.89573  0.07132  0.61303  1
 O  O1  1  0.27289  0.76994  0.34588  1
 O  O2  1  0.99597  0.48650  0.16155  1
 O  O3  1  0.49597  0.16155  0.48650  1
 O  O4  1  0.00972  0.03194  0.32441  1
 O  O5  1  0.72136  0.74315  0.14171  1
 O  O6  1  0.09898  0.76830  0.00549  1
 O  O7  1  0.77289  0.34588  0.76994  1
 O  O8  1  0.89980  0.74424  0.48183  1
 O  O9  1  0.59898  0.00549  0.76830  1
 O  O10  1  0.50972  0.32441  0.03194  1
 O  O11  1  0.39980  0.48183  0.74424  1
 O  O12  1  0.22136  0.14171  0.74315  1
 Te  Te1  1  -0.00254  0.75812  0.24299  1
 Te  Te2  1  0.49746  0.24299  0.75812  1
