CIF file written using JARVIS-Tools package.
data_KTeHOF4
_symmetry_space_group_name_H-M  'P2_1'
_cell_length_a       4.96427
_cell_length_b       6.66659
_cell_length_c       7.58683
_cell_angle_alpha    90
_cell_angle_beta     105.497
_cell_angle_gamma    90

_symmetry_Int_Tables_number  4
_chemical_formula_structural  KTeHOF4
_chemical_formula_sum  K2Te2H2O2F8
_cell_volume  241.9560684123822
_cell_formula_units_Z  2
loop_
  _symmetry_equiv_pos_site_id
 _symmetry_equiv_pos_as_xyz
 1  'x, y, z'
loop_
 _atom_site_type_symbol
 _atom_site_label
 _atom_site_symmetry_multiplicity
 _atom_site_fract_x
 _atom_site_fract_y
 _atom_site_fract_z
 _atom_site_fract_occupancy
 F  F1  1  0.89816  0.64865  0.16184  1
 F  F2  1  0.66648  0.26822  0.03841  1
 F  F3  1  0.42124  0.46854  0.36128  1
 F  F4  1  0.57876  0.96854  0.63872  1
 F  F5  1  0.84475  0.57174  0.77584  1
 F  F6  1  0.10184  0.14865  0.83816  1
 F  F7  1  0.15525  0.07174  0.22416  1
 F  F8  1  0.33352  0.76822  0.96159  1
 H  H1  1  0.74452  0.40153  0.37248  1
 H  H2  1  0.25548  0.90153  0.62752  1
 K  K1  1  0.65672  0.92335  0.29903  1
 K  K2  1  0.34328  0.42335  0.70097  1
 O  O1  1  0.93013  0.33550  0.38607  1
 O  O2  1  0.06987  0.83550  0.61393  1
 Te  Te1  1  0.94550  0.86747  0.83242  1
 Te  Te2  1  0.05450  0.36747  0.16758  1
