CIF file written using JARVIS-Tools package.
data_Fe2OF3
_symmetry_space_group_name_H-M  'C2'
_cell_length_a       7.6146
_cell_length_b       5.70378
_cell_length_c       5.70378
_cell_angle_alpha    70.765
_cell_angle_beta     70.2125
_cell_angle_gamma    70.2125

_symmetry_Int_Tables_number  5
_chemical_formula_structural  Fe2OF3
_chemical_formula_sum  Fe6O3F9
_cell_volume  212.78169877526665
_cell_formula_units_Z  3
loop_
  _symmetry_equiv_pos_site_id
 _symmetry_equiv_pos_as_xyz
 1  'x, y, z'
loop_
 _atom_site_type_symbol
 _atom_site_label
 _atom_site_symmetry_multiplicity
 _atom_site_fract_x
 _atom_site_fract_y
 _atom_site_fract_z
 _atom_site_fract_occupancy
 F  F1  1  -0.00000  0.27853  0.72147  1
 F  F2  1  0.03680  0.76231  0.77168  1
 F  F3  1  0.63346  0.56389  0.56866  1
 F  F4  1  0.29965  0.90409  0.89623  1
 F  F5  1  0.96320  0.22832  0.23769  1
 F  F6  1  0.33740  0.37706  0.95103  1
 F  F7  1  0.66260  0.04897  0.62294  1
 F  F8  1  0.36654  0.43134  0.43611  1
 F  F9  1  0.70035  0.10377  0.09591  1
 Fe  Fe1  1  0.83524  0.66541  0.66776  1
 Fe  Fe2  1  -0.00000  0.96538  0.03462  1
 Fe  Fe3  1  0.50000  0.98065  0.01935  1
 Fe  Fe4  1  0.16476  0.33224  0.33459  1
 Fe  Fe5  1  0.66416  0.36072  0.30867  1
 Fe  Fe6  1  0.33584  0.69133  0.63928  1
 O  O1  1  0.32860  0.98291  0.35724  1
 O  O2  1  -0.00000  0.68033  0.31967  1
 O  O3  1  0.67140  0.64276  0.01709  1
