CIF file written using JARVIS-Tools package.
data_AgBiO3
_symmetry_space_group_name_H-M  'R-3'
_cell_length_a       6.11462
_cell_length_b       6.11463
_cell_length_c       6.11463
_cell_angle_alpha    56.7326
_cell_angle_beta     56.7326
_cell_angle_gamma    56.7325

_symmetry_Int_Tables_number  148
_chemical_formula_structural  AgBiO3
_chemical_formula_sum  Ag2Bi2O6
_cell_volume  149.46185547269715
_cell_formula_units_Z  2
loop_
  _symmetry_equiv_pos_site_id
 _symmetry_equiv_pos_as_xyz
 1  'x, y, z'
loop_
 _atom_site_type_symbol
 _atom_site_label
 _atom_site_symmetry_multiplicity
 _atom_site_fract_x
 _atom_site_fract_y
 _atom_site_fract_z
 _atom_site_fract_occupancy
 Ag  Ag1  1  0.13117  0.13117  0.13117  1
 Ag  Ag2  1  0.86883  0.86883  0.86883  1
 Bi  Bi1  1  0.34686  0.34686  0.34686  1
 Bi  Bi2  1  0.65314  0.65314  0.65314  1
 O  O1  1  0.05675  0.71793  0.46271  1
 O  O2  1  0.71793  0.46271  0.05675  1
 O  O3  1  0.46271  0.05675  0.71793  1
 O  O4  1  0.94325  0.28207  0.53729  1
 O  O5  1  0.53729  0.94325  0.28207  1
 O  O6  1  0.28207  0.53729  0.94325  1
