CIF file written using JARVIS-Tools package.
data_LiFeF3
_symmetry_space_group_name_H-M  'R-3'
_cell_length_a       5.05115
_cell_length_b       5.623
_cell_length_c       5.05116
_cell_angle_alpha    116.689
_cell_angle_beta     60
_cell_angle_gamma    116.689

_symmetry_Int_Tables_number  148
_chemical_formula_structural  LiFeF3
_chemical_formula_sum  Li2Fe2F6
_cell_volume  106.22898555622885
_cell_formula_units_Z  2
loop_
  _symmetry_equiv_pos_site_id
 _symmetry_equiv_pos_as_xyz
 1  'x, y, z'
loop_
 _atom_site_type_symbol
 _atom_site_label
 _atom_site_symmetry_multiplicity
 _atom_site_fract_x
 _atom_site_fract_y
 _atom_site_fract_z
 _atom_site_fract_occupancy
 F  F1  1  0.24044  0.74589  0.56603  1
 F  F2  1  0.06058  0.25411  0.75956  1
 F  F3  1  0.43397  0.25411  0.06058  1
 F  F4  1  0.56603  0.74589  0.93942  1
 F  F5  1  0.93942  0.74589  0.24044  1
 F  F6  1  0.75956  0.25411  0.43397  1
 Fe  Fe1  1  0.34525  0.03576  0.34525  1
 Fe  Fe2  1  0.65475  0.96424  0.65475  1
 Li  Li1  1  0.14628  0.43886  0.14628  1
 Li  Li2  1  0.85372  0.56114  0.85372  1
