CIF file written using JARVIS-Tools package.
data_LiLuO2
_symmetry_space_group_name_H-M  'I4_1/amd'
_cell_length_a       4.34868
_cell_length_b       5.83753
_cell_length_c       4.34868
_cell_angle_alpha    68.1316
_cell_angle_beta     90
_cell_angle_gamma    111.868

_symmetry_Int_Tables_number  141
_chemical_formula_structural  LiLuO2
_chemical_formula_sum  Li2Lu2O4
_cell_volume  93.83636485410949
_cell_formula_units_Z  2
loop_
  _symmetry_equiv_pos_site_id
 _symmetry_equiv_pos_as_xyz
 1  'x, y, z'
loop_
 _atom_site_type_symbol
 _atom_site_label
 _atom_site_symmetry_multiplicity
 _atom_site_fract_x
 _atom_site_fract_y
 _atom_site_fract_z
 _atom_site_fract_occupancy
 Li  Li1  1  0.25000  0.50000  0.25000  1
 Li  Li2  1  0.50000  0.00000  0.50000  1
 Lu  Lu1  1  0.00000  0.00000  0.00000  1
 Lu  Lu2  1  0.75000  0.50000  0.75000  1
 O  O1  1  0.77437  0.54875  0.22563  1
 O  O2  1  0.22563  0.45125  0.77437  1
 O  O3  1  0.52437  0.04875  0.97563  1
 O  O4  1  0.97563  0.95125  0.52437  1
