CIF file written using JARVIS-Tools package.
data_InBiO3
_symmetry_space_group_name_H-M  'Pna2_1'
_cell_length_a       5.70225
_cell_length_b       6.02587
_cell_length_c       8.34154
_cell_angle_alpha    90
_cell_angle_beta     90
_cell_angle_gamma    90

_symmetry_Int_Tables_number  33
_chemical_formula_structural  InBiO3
_chemical_formula_sum  In4Bi4O2
_cell_volume  286.6235180336598
_cell_formula_units_Z  4
loop_
  _symmetry_equiv_pos_site_id
 _symmetry_equiv_pos_as_xyz
 1  'x, y, z'
loop_
 _atom_site_type_symbol
 _atom_site_label
 _atom_site_symmetry_multiplicity
 _atom_site_fract_x
 _atom_site_fract_y
 _atom_site_fract_z
 _atom_site_fract_occupancy
 Bi  Bi1  1  0.00115  0.94429  0.78820  1
 Bi  Bi2  1  0.49885  0.44429  0.78820  1
 Bi  Bi3  1  0.50115  0.55571  0.28820  1
 Bi  Bi4  1  -0.00115  0.05571  0.28820  1
 In  In1  1  0.00067  0.49709  0.51537  1
 In  In2  1  -0.00067  0.50291  0.01537  1
 In  In3  1  0.50067  0.00291  0.01537  1
 In  In4  1  0.49933  -0.00291  0.51537  1
 O  O1  1  0.80304  0.78952  0.43540  1
 O  O2  1  0.38357  0.94891  0.25805  1
 O  O3  1  0.88357  0.55109  0.75805  1
 O  O4  1  0.15870  0.15970  0.53268  1
 O  O5  1  0.11643  0.44891  0.25805  1
 O  O6  1  0.19696  0.21048  0.93540  1
 O  O7  1  0.84130  0.84030  0.03268  1
 O  O8  1  0.61643  0.05109  0.75805  1
 O  O9  1  0.65870  0.34030  0.03268  1
 O  O10  1  0.69696  0.28952  0.43540  1
 O  O11  1  0.34130  0.65970  0.53268  1
 O  O12  1  0.30304  0.71048  0.93540  1
