CIF file written using JARVIS-Tools package.
data_YP5
_symmetry_space_group_name_H-M  'P2_1/m'
_cell_length_a       4.95135
_cell_length_b       9.47101
_cell_length_c       5.38187
_cell_angle_alpha    90
_cell_angle_beta     102.48
_cell_angle_gamma    90

_symmetry_Int_Tables_number  11
_chemical_formula_structural  YP5
_chemical_formula_sum  Y2P0
_cell_volume  246.41596741271852
_cell_formula_units_Z  2
loop_
  _symmetry_equiv_pos_site_id
 _symmetry_equiv_pos_as_xyz
 1  'x, y, z'
loop_
 _atom_site_type_symbol
 _atom_site_label
 _atom_site_symmetry_multiplicity
 _atom_site_fract_x
 _atom_site_fract_y
 _atom_site_fract_z
 _atom_site_fract_occupancy
 P  P1  1  0.72436  0.25000  0.10554  1
 P  P2  1  0.27564  0.75000  0.89446  1
 P  P3  1  0.38189  0.40778  0.04263  1
 P  P4  1  0.61811  0.90778  0.95737  1
 P  P5  1  0.61811  0.59222  0.95737  1
 P  P6  1  0.38189  0.09222  0.04263  1
 P  P7  1  0.28426  0.47053  0.40372  1
 P  P8  1  0.71574  0.97053  0.59628  1
 P  P9  1  0.71574  0.52947  0.59628  1
 P  P10  1  0.28426  0.02947  0.40372  1
 Y  Y1  1  0.99367  0.25000  0.65137  1
 Y  Y2  1  0.00633  0.75000  0.34863  1
