CIF file written using JARVIS-Tools package.
data_KClO3
_symmetry_space_group_name_H-M  'Pnma'
_cell_length_a       4.62812
_cell_length_b       5.5856
_cell_length_c       13.0711
_cell_angle_alpha    90
_cell_angle_beta     90
_cell_angle_gamma    90

_symmetry_Int_Tables_number  62
_chemical_formula_structural  KClO3
_chemical_formula_sum  K4Cl4O2
_cell_volume  337.8997758163469
_cell_formula_units_Z  4
loop_
  _symmetry_equiv_pos_site_id
 _symmetry_equiv_pos_as_xyz
 1  'x, y, z'
loop_
 _atom_site_type_symbol
 _atom_site_label
 _atom_site_symmetry_multiplicity
 _atom_site_fract_x
 _atom_site_fract_y
 _atom_site_fract_z
 _atom_site_fract_occupancy
 Cl  Cl1  1  0.52771  0.75000  0.41420  1
 Cl  Cl2  1  0.97229  0.75000  0.91420  1
 Cl  Cl3  1  0.02771  0.25000  0.08580  1
 Cl  Cl4  1  0.47229  0.25000  0.58580  1
 K  K1  1  0.98256  0.25000  0.35404  1
 K  K2  1  0.01744  0.75000  0.64596  1
 K  K3  1  0.48256  0.75000  0.14596  1
 K  K4  1  0.51744  0.25000  0.85404  1
 O  O1  1  0.02135  0.53414  0.84785  1
 O  O2  1  0.47865  0.96586  0.34785  1
 O  O3  1  0.15670  0.25000  0.55861  1
 O  O4  1  0.02135  0.96586  0.84785  1
 O  O5  1  0.47865  0.53414  0.34785  1
 O  O6  1  0.65670  0.75000  0.94139  1
 O  O7  1  0.34330  0.25000  0.05861  1
 O  O8  1  0.97865  0.03414  0.15215  1
 O  O9  1  0.84330  0.75000  0.44139  1
 O  O10  1  0.52135  0.46586  0.65215  1
 O  O11  1  0.52135  0.03414  0.65215  1
 O  O12  1  0.97865  0.46586  0.15215  1
