CIF file written using JARVIS-Tools package.
data_KLiMnO2
_symmetry_space_group_name_H-M  'C2/m'
_cell_length_a       3.4238
_cell_length_b       5.73535
_cell_length_c       7.53433
_cell_angle_alpha    76.7772
_cell_angle_beta     76.8837
_cell_angle_gamma    72.6402

_symmetry_Int_Tables_number  12
_chemical_formula_structural  KLiMnO2
_chemical_formula_sum  K2Li2Mn2O4
_cell_volume  135.44711473638424
_cell_formula_units_Z  2
loop_
  _symmetry_equiv_pos_site_id
 _symmetry_equiv_pos_as_xyz
 1  'x, y, z'
loop_
 _atom_site_type_symbol
 _atom_site_label
 _atom_site_symmetry_multiplicity
 _atom_site_fract_x
 _atom_site_fract_y
 _atom_site_fract_z
 _atom_site_fract_occupancy
 K  K1  1  0.16056  0.31251  0.36711  1
 K  K2  1  0.83944  0.68749  0.63289  1
 Li  Li1  1  0.33924  0.37554  0.94586  1
 Li  Li2  1  0.66076  0.62446  0.05414  1
 Mn  Mn1  1  0.95181  0.90625  0.19059  1
 Mn  Mn2  1  0.04819  0.09375  0.80941  1
 O  O1  1  0.52867  0.24739  0.69485  1
 O  O2  1  0.15913  0.73664  0.94512  1
 O  O3  1  0.84087  0.26336  0.05488  1
 O  O4  1  0.47133  0.75261  0.30515  1
