CIF file written using JARVIS-Tools package.
data_SbCl5
_symmetry_space_group_name_H-M  'P6_3/mmc'
_cell_length_a       7.36832
_cell_length_b       7.36832
_cell_length_c       7.89494
_cell_angle_alpha    90
_cell_angle_beta     90
_cell_angle_gamma    120

_symmetry_Int_Tables_number  194
_chemical_formula_structural  SbCl5
_chemical_formula_sum  Sb2Cl0
_cell_volume  371.2067361037065
_cell_formula_units_Z  2
loop_
  _symmetry_equiv_pos_site_id
 _symmetry_equiv_pos_as_xyz
 1  'x, y, z'
loop_
 _atom_site_type_symbol
 _atom_site_label
 _atom_site_symmetry_multiplicity
 _atom_site_fract_x
 _atom_site_fract_y
 _atom_site_fract_z
 _atom_site_fract_occupancy
 Cl  Cl1  1  0.30071  0.15035  0.25000  1
 Cl  Cl2  1  0.15035  0.84965  0.75000  1
 Cl  Cl3  1  0.33333  0.66667  0.05222  1
 Cl  Cl4  1  0.66667  0.33333  0.55222  1
 Cl  Cl5  1  0.66667  0.33333  0.94778  1
 Cl  Cl6  1  0.33333  0.66667  0.44778  1
 Cl  Cl7  1  0.69929  0.84965  0.75000  1
 Cl  Cl8  1  0.84965  0.15035  0.25000  1
 Cl  Cl9  1  0.84965  0.69929  0.25000  1
 Cl  Cl10  1  0.15035  0.30071  0.75000  1
 Sb  Sb1  1  0.66667  0.33333  0.25000  1
 Sb  Sb2  1  0.33333  0.66667  0.75000  1
