CIF file written using JARVIS-Tools package.
data_CuH2O2
_symmetry_space_group_name_H-M  'Cmc2_1'
_cell_length_a       5.4343
_cell_length_b       5.43639
_cell_length_c       5.32709
_cell_angle_alpha    90
_cell_angle_beta     90
_cell_angle_gamma    32.0861

_symmetry_Int_Tables_number  36
_chemical_formula_structural  CuH2O2
_chemical_formula_sum  Cu2H4O4
_cell_volume  83.59797621644049
_cell_formula_units_Z  2
loop_
  _symmetry_equiv_pos_site_id
 _symmetry_equiv_pos_as_xyz
 1  'x, y, z'
loop_
 _atom_site_type_symbol
 _atom_site_label
 _atom_site_symmetry_multiplicity
 _atom_site_fract_x
 _atom_site_fract_y
 _atom_site_fract_z
 _atom_site_fract_occupancy
 Cu  Cu1  1  0.17895  0.17934  0.23939  1
 Cu  Cu2  1  0.82105  0.82066  0.73939  1
 H  H1  1  0.51046  0.51129  0.41141  1
 H  H2  1  0.48954  0.48871  0.91141  1
 H  H3  1  0.88399  0.88297  0.22552  1
 H  H4  1  0.11601  0.11703  0.72552  1
 O  O1  1  0.55264  0.55376  0.24397  1
 O  O2  1  0.44736  0.44624  0.74397  1
 O  O3  1  0.79697  0.79675  0.29824  1
 O  O4  1  0.20303  0.20325  0.79824  1
