CIF file written using JARVIS-Tools package.
data_NaGe2N3
_symmetry_space_group_name_H-M  'Cmc2_1'
_cell_length_a       5.18518
_cell_length_b       5.76975
_cell_length_c       5.76975
_cell_angle_alpha    119.206
_cell_angle_beta     90
_cell_angle_gamma    90

_symmetry_Int_Tables_number  36
_chemical_formula_structural  NaGe2N3
_chemical_formula_sum  Na2Ge4N6
_cell_volume  150.67094604635037
_cell_formula_units_Z  2
loop_
  _symmetry_equiv_pos_site_id
 _symmetry_equiv_pos_as_xyz
 1  'x, y, z'
loop_
 _atom_site_type_symbol
 _atom_site_label
 _atom_site_symmetry_multiplicity
 _atom_site_fract_x
 _atom_site_fract_y
 _atom_site_fract_z
 _atom_site_fract_occupancy
 Ge  Ge1  1  0.02494  0.01064  0.67537  1
 Ge  Ge2  1  0.52494  0.98936  0.32463  1
 Ge  Ge3  1  0.52494  0.32463  0.98936  1
 Ge  Ge4  1  0.02494  0.67537  0.01064  1
 N  N1  1  0.95124  0.73862  0.73862  1
 N  N2  1  0.45124  0.26138  0.26138  1
 N  N3  1  0.38140  0.65921  0.07338  1
 N  N4  1  0.38140  0.07338  0.65921  1
 N  N5  1  0.88140  0.92662  0.34079  1
 N  N6  1  0.88140  0.34079  0.92662  1
 Na  Na1  1  0.49409  0.66194  0.66194  1
 Na  Na2  1  0.99409  0.33806  0.33806  1
