CIF file written using JARVIS-Tools package.
data_SiO2
_symmetry_space_group_name_H-M  'Ima2'
_cell_length_a       5.11609
_cell_length_b       7.04979
_cell_length_c       7.04979
_cell_angle_alpha    74.8821
_cell_angle_beta     68.7245
_cell_angle_gamma    68.7244

_symmetry_Int_Tables_number  46
_chemical_formula_structural  SiO2
_chemical_formula_sum  Si4O8
_cell_volume  218.33401147473776
_cell_formula_units_Z  4
loop_
  _symmetry_equiv_pos_site_id
 _symmetry_equiv_pos_as_xyz
 1  'x, y, z'
loop_
 _atom_site_type_symbol
 _atom_site_label
 _atom_site_symmetry_multiplicity
 _atom_site_fract_x
 _atom_site_fract_y
 _atom_site_fract_z
 _atom_site_fract_occupancy
 O  O1  1  0.76561  0.14858  0.72980  1
 O  O2  1  0.06830  -0.00000  0.00000  1
 O  O3  1  0.26561  0.22980  0.64858  1
 O  O4  1  0.64398  0.85142  0.27020  1
 O  O5  1  0.27686  0.84807  0.65193  1
 O  O6  1  0.77686  0.15193  0.34807  1
 O  O7  1  0.56830  0.50000  0.50000  1
 O  O8  1  0.14398  0.77020  0.35142  1
 Si  Si1  1  0.59310  0.25795  0.55652  1
 Si  Si2  1  0.40757  0.74205  0.44348  1
 Si  Si3  1  0.90757  0.94348  0.24205  1
 Si  Si4  1  0.09310  0.05652  0.75795  1
