CIF file written using JARVIS-Tools package.
data_KNaB2H8
_symmetry_space_group_name_H-M  'R-3m'
_cell_length_a       7.21853
_cell_length_b       7.21853
_cell_length_c       7.21852
_cell_angle_alpha    37.1134
_cell_angle_beta     37.1134
_cell_angle_gamma    37.1135

_symmetry_Int_Tables_number  166
_chemical_formula_structural  KNaB2H8
_chemical_formula_sum  KNaB2H8
_cell_volume  122.73039746776209
_cell_formula_units_Z  1
loop_
  _symmetry_equiv_pos_site_id
 _symmetry_equiv_pos_as_xyz
 1  'x, y, z'
loop_
 _atom_site_type_symbol
 _atom_site_label
 _atom_site_symmetry_multiplicity
 _atom_site_fract_x
 _atom_site_fract_y
 _atom_site_fract_z
 _atom_site_fract_occupancy
 B  B1  1  0.73844  0.73844  0.73844  1
 B  B2  1  0.26156  0.26156  0.26156  1
 H  H1  1  0.67765  0.67765  0.67765  1
 H  H2  1  0.32235  0.32235  0.32235  1
 H  H3  1  0.46883  0.90485  0.90485  1
 H  H4  1  0.90485  0.46883  0.90485  1
 H  H5  1  0.90485  0.90485  0.46883  1
 H  H6  1  0.09515  0.53117  0.09515  1
 H  H7  1  0.09515  0.09515  0.53117  1
 H  H8  1  0.53117  0.09515  0.09515  1
 K  K1  1  0.50000  0.50000  0.50000  1
 Na  Na1  1  0.00000  0.00000  0.00000  1
