CIF file written using JARVIS-Tools package.
data_TlCr5Se8
_symmetry_space_group_name_H-M  'C2/m'
_cell_length_a       3.66637
_cell_length_b       8.98459
_cell_length_c       9.59573
_cell_angle_alpha    104.308
_cell_angle_beta     101.014
_cell_angle_gamma    90

_symmetry_Int_Tables_number  12
_chemical_formula_structural  TlCr5Se8
_chemical_formula_sum  TlCr5Se8
_cell_volume  300.27350714021077
_cell_formula_units_Z  1
loop_
  _symmetry_equiv_pos_site_id
 _symmetry_equiv_pos_as_xyz
 1  'x, y, z'
loop_
 _atom_site_type_symbol
 _atom_site_label
 _atom_site_symmetry_multiplicity
 _atom_site_fract_x
 _atom_site_fract_y
 _atom_site_fract_z
 _atom_site_fract_occupancy
 Cr  Cr1  1  0.50000  0.50000  0.00000  1
 Cr  Cr2  1  0.15738  0.47483  0.31475  1
 Cr  Cr3  1  0.20395  0.83559  0.40790  1
 Cr  Cr4  1  0.79605  0.16441  0.59210  1
 Cr  Cr5  1  0.84262  0.52517  0.68525  1
 Se  Se1  1  0.92533  0.34318  0.85066  1
 Se  Se2  1  0.33083  0.00718  0.66166  1
 Se  Se3  1  0.66917  0.99282  0.33834  1
 Se  Se4  1  0.41504  0.67881  0.83009  1
 Se  Se5  1  0.58496  0.32119  0.16991  1
 Se  Se6  1  0.73786  0.65656  0.47572  1
 Se  Se7  1  0.26214  0.34344  0.52428  1
 Se  Se8  1  0.07467  0.65682  0.14934  1
 Tl  Tl1  1  0.00000  0.00000  0.00000  1
