CIF file written using JARVIS-Tools package.
data_KCuF3
_symmetry_space_group_name_H-M  'I4/mcm'
_cell_length_a       6.2399
_cell_length_b       6.2399
_cell_length_c       6.2399
_cell_angle_alpha    104.444
_cell_angle_beta     112.042
_cell_angle_gamma    112.042

_symmetry_Int_Tables_number  140
_chemical_formula_structural  KCuF3
_chemical_formula_sum  K2Cu2F6
_cell_volume  185.9622006709847
_cell_formula_units_Z  2
loop_
  _symmetry_equiv_pos_site_id
 _symmetry_equiv_pos_as_xyz
 1  'x, y, z'
loop_
 _atom_site_type_symbol
 _atom_site_label
 _atom_site_symmetry_multiplicity
 _atom_site_fract_x
 _atom_site_fract_y
 _atom_site_fract_z
 _atom_site_fract_occupancy
 Cu  Cu1  1  0.50000  0.00000  0.50000  1
 Cu  Cu2  1  0.50000  0.50000  -0.00000  1
 F  F1  1  0.50000  0.25000  0.75000  1
 F  F2  1  0.87882  0.68941  0.18941  1
 F  F3  1  0.50000  0.81059  0.68941  1
 F  F4  1  0.50000  0.75000  0.25000  1
 F  F5  1  0.12118  0.31059  0.81059  1
 F  F6  1  0.50000  0.18941  0.31059  1
 K  K1  1  0.00000  0.50000  0.50000  1
 K  K2  1  0.00000  0.00000  0.00000  1
