CIF file written using JARVIS-Tools package.
data_LiC2O2
_symmetry_space_group_name_H-M  'C2/m'
_cell_length_a       3.27973
_cell_length_b       5.9475
_cell_length_c       5.94749
_cell_angle_alpha    106.888
_cell_angle_beta     95.8367
_cell_angle_gamma    95.8367

_symmetry_Int_Tables_number  12
_chemical_formula_structural  LiC2O2
_chemical_formula_sum  Li2C4O4
_cell_volume  109.37989472700555
_cell_formula_units_Z  2
loop_
  _symmetry_equiv_pos_site_id
 _symmetry_equiv_pos_as_xyz
 1  'x, y, z'
loop_
 _atom_site_type_symbol
 _atom_site_label
 _atom_site_symmetry_multiplicity
 _atom_site_fract_x
 _atom_site_fract_y
 _atom_site_fract_z
 _atom_site_fract_occupancy
 C  C1  1  0.00000  0.10871  0.89129  1
 C  C2  1  0.16710  0.13894  0.13894  1
 C  C3  1  0.00000  0.89129  0.10871  1
 C  C4  1  0.83289  0.86106  0.86106  1
 Li  Li1  1  0.50000  0.35514  0.64486  1
 Li  Li2  1  0.50000  0.64486  0.35514  1
 O  O1  1  0.63112  0.69328  0.69328  1
 O  O2  1  0.00000  0.75893  0.24107  1
 O  O3  1  -0.00000  0.24107  0.75893  1
 O  O4  1  0.36888  0.30672  0.30672  1
