CIF file written using JARVIS-Tools package.
data_CoAsS
_symmetry_space_group_name_H-M  'Pca2_1'
_cell_length_a       4.88015
_cell_length_b       6.06166
_cell_length_c       7.04963
_cell_angle_alpha    90.0428
_cell_angle_beta     89.9999
_cell_angle_gamma    90.0007

_symmetry_Int_Tables_number  29
_chemical_formula_structural  CoAsS
_chemical_formula_sum  Co4As4S4
_cell_volume  208.54097100084633
_cell_formula_units_Z  4
loop_
  _symmetry_equiv_pos_site_id
 _symmetry_equiv_pos_as_xyz
 1  'x, y, z'
loop_
 _atom_site_type_symbol
 _atom_site_label
 _atom_site_symmetry_multiplicity
 _atom_site_fract_x
 _atom_site_fract_y
 _atom_site_fract_z
 _atom_site_fract_occupancy
 As  As1  1  0.69459  0.77863  0.85535  1
 As  As2  1  0.30540  0.22137  0.35563  1
 As  As3  1  0.19461  0.22137  0.85564  1
 As  As4  1  0.80540  0.77863  0.35535  1
 Co  Co1  1  0.01222  0.05399  0.57648  1
 Co  Co2  1  0.98779  0.94602  0.07640  1
 Co  Co3  1  0.48779  0.05399  0.07648  1
 Co  Co4  1  0.51221  0.94601  0.57640  1
 S  S1  1  0.82167  0.28428  0.08026  1
 S  S2  1  0.67835  0.28427  0.58026  1
 S  S3  1  0.32166  0.71572  0.07988  1
 S  S4  1  0.17832  0.71572  0.57988  1
