CIF file written using JARVIS-Tools package.
data_H2CO
_symmetry_space_group_name_H-M  'R3c'
_cell_length_a       5.94518
_cell_length_b       5.94518
_cell_length_c       5.94518
_cell_angle_alpha    101.41
_cell_angle_beta     101.41
_cell_angle_gamma    101.41

_symmetry_Int_Tables_number  161
_chemical_formula_structural  H2CO
_chemical_formula_sum  H2C6O6
_cell_volume  195.67335018720706
_cell_formula_units_Z  6
loop_
  _symmetry_equiv_pos_site_id
 _symmetry_equiv_pos_as_xyz
 1  'x, y, z'
loop_
 _atom_site_type_symbol
 _atom_site_label
 _atom_site_symmetry_multiplicity
 _atom_site_fract_x
 _atom_site_fract_y
 _atom_site_fract_z
 _atom_site_fract_occupancy
 C  C1  1  0.49421  0.61073  0.32010  1
 C  C2  1  0.11073  0.99421  0.82010  1
 C  C3  1  0.32010  0.49421  0.61073  1
 C  C4  1  0.99421  0.82010  0.11073  1
 C  C5  1  0.82010  0.11073  0.99421  1
 C  C6  1  0.61073  0.32010  0.49421  1
 H  H1  1  0.76561  0.25702  0.56130  1
 H  H2  1  0.25702  0.56130  0.76561  1
 H  H3  1  0.56130  0.76561  0.25702  1
 H  H4  1  0.26561  0.06130  0.75702  1
 H  H5  1  0.75702  0.26561  0.06130  1
 H  H6  1  0.35583  0.47414  0.17979  1
 H  H7  1  0.47414  0.17979  0.35583  1
 H  H8  1  0.17979  0.35583  0.47414  1
 H  H9  1  0.97414  0.85583  0.67979  1
 H  H10  1  0.85583  0.67979  0.97414  1
 H  H11  1  0.67979  0.97414  0.85583  1
 H  H12  1  0.06130  0.75702  0.26561  1
 O  O1  1  0.89715  0.01424  0.18887  1
 O  O2  1  0.01424  0.18887  0.89715  1
 O  O3  1  0.68887  0.51424  0.39715  1
 O  O4  1  0.51424  0.39715  0.68887  1
 O  O5  1  0.39715  0.68887  0.51424  1
 O  O6  1  0.18887  0.89715  0.01424  1
