CIF file written using JARVIS-Tools package.
data_NaTeF5
_symmetry_space_group_name_H-M  'Pnma'
_cell_length_a       5.89294
_cell_length_b       7.07953
_cell_length_c       10.3499
_cell_angle_alpha    90
_cell_angle_beta     90
_cell_angle_gamma    90

_symmetry_Int_Tables_number  62
_chemical_formula_structural  NaTeF5
_chemical_formula_sum  Na4Te4F20
_cell_volume  431.7911382702034
_cell_formula_units_Z  4
loop_
  _symmetry_equiv_pos_site_id
 _symmetry_equiv_pos_as_xyz
 1  'x, y, z'
loop_
 _atom_site_type_symbol
 _atom_site_label
 _atom_site_symmetry_multiplicity
 _atom_site_fract_x
 _atom_site_fract_y
 _atom_site_fract_z
 _atom_site_fract_occupancy
 F  F1  1  0.97878  0.45275  0.86526  1
 F  F2  1  0.25000  0.38205  0.30539  1
 F  F3  1  0.75000  0.61795  0.69461  1
 F  F4  1  0.75000  0.88205  0.19461  1
 F  F5  1  0.25000  0.11795  0.80539  1
 F  F6  1  0.01396  0.64068  0.40111  1
 F  F7  1  0.02122  0.95275  0.63474  1
 F  F8  1  0.98604  0.14068  0.09889  1
 F  F9  1  0.48604  0.85932  0.90111  1
 F  F10  1  0.51396  0.35932  0.59889  1
 F  F11  1  0.48604  0.64068  0.40111  1
 F  F12  1  0.97878  0.04725  0.36526  1
 F  F13  1  0.01396  0.85932  0.90111  1
 F  F14  1  0.52122  0.04725  0.36526  1
 F  F15  1  0.47878  0.95275  0.63474  1
 F  F16  1  0.47878  0.54725  0.13474  1
 F  F17  1  0.52122  0.45275  0.86526  1
 F  F18  1  0.02122  0.54725  0.13474  1
 F  F19  1  0.51396  0.14068  0.09889  1
 F  F20  1  0.98604  0.35932  0.59889  1
 Na  Na1  1  0.25000  0.18110  0.49724  1
 Na  Na2  1  0.75000  0.81890  0.50276  1
 Na  Na3  1  0.75000  0.68110  0.00276  1
 Na  Na4  1  0.25000  0.31890  0.99724  1
 Te  Te1  1  0.25000  0.85157  0.76524  1
 Te  Te2  1  0.75000  0.14843  0.23476  1
 Te  Te3  1  0.75000  0.35157  0.73476  1
 Te  Te4  1  0.25000  0.64843  0.26524  1
