CIF file written using JARVIS-Tools package.
data_MnZnSi2O6
_symmetry_space_group_name_H-M  'C2/c'
_cell_length_a       5.38708
_cell_length_b       6.83552
_cell_length_c       6.83551
_cell_angle_alpha    87.2775
_cell_angle_beta     75.046
_cell_angle_gamma    75.046

_symmetry_Int_Tables_number  15
_chemical_formula_structural  MnZnSi2O6
_chemical_formula_sum  Mn2Zn2Si4O2
_cell_volume  234.89850123316998
_cell_formula_units_Z  2
loop_
  _symmetry_equiv_pos_site_id
 _symmetry_equiv_pos_as_xyz
 1  'x, y, z'
loop_
 _atom_site_type_symbol
 _atom_site_label
 _atom_site_symmetry_multiplicity
 _atom_site_fract_x
 _atom_site_fract_y
 _atom_site_fract_z
 _atom_site_fract_occupancy
 Mn  Mn1  1  0.25000  0.10659  0.89341  1
 Mn  Mn2  1  0.75000  0.89341  0.10659  1
 O  O1  1  0.46660  0.32943  0.38242  1
 O  O2  1  0.34264  0.04010  0.21235  1
 O  O3  1  0.53340  0.67057  0.61759  1
 O  O4  1  0.96660  0.38242  0.32943  1
 O  O5  1  0.03340  0.61759  0.67057  1
 O  O6  1  0.38124  0.38279  0.85370  1
 O  O7  1  0.88124  0.85371  0.38279  1
 O  O8  1  0.61875  0.61721  0.14630  1
 O  O9  1  0.84264  0.21235  0.04010  1
 O  O10  1  0.65736  0.95989  0.78765  1
 O  O11  1  0.11875  0.14630  0.61721  1
 O  O12  1  0.15736  0.78765  0.95989  1
 Si  Si1  1  0.77632  0.77857  0.61248  1
 Si  Si2  1  0.72368  0.38752  0.22143  1
 Si  Si3  1  0.27632  0.61248  0.77857  1
 Si  Si4  1  0.22368  0.22143  0.38752  1
 Zn  Zn1  1  0.25000  0.76445  0.23555  1
 Zn  Zn2  1  0.75000  0.23555  0.76445  1
