CIF file written using JARVIS-Tools package.
data_AlCuCl4
_symmetry_space_group_name_H-M  'P-42c'
_cell_length_a       5.31274
_cell_length_b       5.31274
_cell_length_c       10.1904
_cell_angle_alpha    90
_cell_angle_beta     90
_cell_angle_gamma    90

_symmetry_Int_Tables_number  112
_chemical_formula_structural  AlCuCl4
_chemical_formula_sum  Al2Cu2Cl8
_cell_volume  287.6273003983036
_cell_formula_units_Z  2
loop_
  _symmetry_equiv_pos_site_id
 _symmetry_equiv_pos_as_xyz
 1  'x, y, z'
loop_
 _atom_site_type_symbol
 _atom_site_label
 _atom_site_symmetry_multiplicity
 _atom_site_fract_x
 _atom_site_fract_y
 _atom_site_fract_z
 _atom_site_fract_occupancy
 Al  Al1  1  0.50000  0.00000  0.25000  1
 Al  Al2  1  0.00000  0.50000  0.75000  1
 Cl  Cl1  1  0.75523  0.26905  0.87050  1
 Cl  Cl2  1  0.24477  0.73095  0.87050  1
 Cl  Cl3  1  0.73095  0.24477  0.37050  1
 Cl  Cl4  1  0.24477  0.26905  0.62950  1
 Cl  Cl5  1  0.75523  0.73095  0.62950  1
 Cl  Cl6  1  0.26905  0.24477  0.12950  1
 Cl  Cl7  1  0.73095  0.75523  0.12950  1
 Cl  Cl8  1  0.26905  0.75523  0.37050  1
 Cu  Cu1  1  0.00000  0.00000  0.00000  1
 Cu  Cu2  1  0.00000  0.00000  0.50000  1
