CIF file written using JARVIS-Tools package.
data_Ca2VN3
_symmetry_space_group_name_H-M  'Amm2'
_cell_length_a       4.93948
_cell_length_b       6.78079
_cell_length_c       6.78079
_cell_angle_alpha    107.741
_cell_angle_beta     90
_cell_angle_gamma    90

_symmetry_Int_Tables_number  38
_chemical_formula_structural  Ca2VN3
_chemical_formula_sum  Ca4V2N6
_cell_volume  216.31189320768476
_cell_formula_units_Z  2
loop_
  _symmetry_equiv_pos_site_id
 _symmetry_equiv_pos_as_xyz
 1  'x, y, z'
loop_
 _atom_site_type_symbol
 _atom_site_label
 _atom_site_symmetry_multiplicity
 _atom_site_fract_x
 _atom_site_fract_y
 _atom_site_fract_z
 _atom_site_fract_occupancy
 Ca  Ca1  1  0.75000  0.80127  0.61560  1
 Ca  Ca2  1  0.25000  0.09617  0.90383  1
 Ca  Ca3  1  0.75000  0.89247  0.10753  1
 Ca  Ca4  1  0.75000  0.38440  0.19873  1
 N  N1  1  0.75000  0.56578  0.81010  1
 N  N2  1  0.25000  0.44464  0.16899  1
 N  N3  1  0.75000  0.12628  0.87372  1
 N  N4  1  0.25000  0.88004  0.11996  1
 N  N5  1  0.75000  0.18990  0.43422  1
 N  N6  1  0.25000  0.83101  0.55536  1
 V  V1  1  0.25000  0.71792  0.28208  1
 V  V2  1  0.75000  0.30021  0.69979  1
