CIF file written using JARVIS-Tools package.
data_TlCu3S2
_symmetry_space_group_name_H-M  'C2/m'
_cell_length_a       3.86463
_cell_length_b       7.56358
_cell_length_c       8.42859
_cell_angle_alpha    111.145
_cell_angle_beta     90
_cell_angle_gamma    104.802

_symmetry_Int_Tables_number  12
_chemical_formula_structural  TlCu3S2
_chemical_formula_sum  Tl2Cu6S4
_cell_volume  220.995300726747
_cell_formula_units_Z  2
loop_
  _symmetry_equiv_pos_site_id
 _symmetry_equiv_pos_as_xyz
 1  'x, y, z'
loop_
 _atom_site_type_symbol
 _atom_site_label
 _atom_site_symmetry_multiplicity
 _atom_site_fract_x
 _atom_site_fract_y
 _atom_site_fract_z
 _atom_site_fract_occupancy
 Cu  Cu1  1  0.40923  0.81846  0.35854  1
 Cu  Cu2  1  0.31175  0.62350  0.58806  1
 Cu  Cu3  1  0.06185  0.12369  0.40608  1
 Cu  Cu4  1  0.93815  0.87631  0.59392  1
 Cu  Cu5  1  0.68825  0.37650  0.41194  1
 Cu  Cu6  1  0.59077  0.18154  0.64146  1
 S  S1  1  0.47643  0.95285  0.76796  1
 S  S2  1  0.52357  0.04715  0.23204  1
 S  S3  1  0.81285  0.62571  0.32051  1
 S  S4  1  0.18715  0.37429  0.67949  1
 Tl  Tl1  1  0.86100  0.72201  0.95286  1
 Tl  Tl2  1  0.13900  0.27799  0.04714  1
