CIF file written using JARVIS-Tools package.
data_HfGeTe4
_symmetry_space_group_name_H-M  'Cmc2_1'
_cell_length_a       4.02001
_cell_length_b       8.36565
_cell_length_c       11.1076
_cell_angle_alpha    90
_cell_angle_beta     90
_cell_angle_gamma    103.902

_symmetry_Int_Tables_number  36
_chemical_formula_structural  HfGeTe4
_chemical_formula_sum  Hf2Ge2Te8
_cell_volume  362.60508090454596
_cell_formula_units_Z  2
loop_
  _symmetry_equiv_pos_site_id
 _symmetry_equiv_pos_as_xyz
 1  'x, y, z'
loop_
 _atom_site_type_symbol
 _atom_site_label
 _atom_site_symmetry_multiplicity
 _atom_site_fract_x
 _atom_site_fract_y
 _atom_site_fract_z
 _atom_site_fract_occupancy
 Ge  Ge1  1  0.22789  0.45577  0.46060  1
 Ge  Ge2  1  0.77211  0.54423  0.96060  1
 Hf  Hf1  1  0.34800  0.69601  0.27186  1
 Hf  Hf2  1  0.65200  0.30399  0.77186  1
 Te  Te1  1  0.27602  0.55205  0.69801  1
 Te  Te2  1  0.38117  0.76235  0.00064  1
 Te  Te3  1  0.72398  0.44795  0.19801  1
 Te  Te4  1  0.98149  0.96298  0.24111  1
 Te  Te5  1  0.10181  0.20361  0.95995  1
 Te  Te6  1  0.89819  0.79639  0.45995  1
 Te  Te7  1  0.01851  0.03702  0.74111  1
 Te  Te8  1  0.61883  0.23765  0.50064  1
