CIF file written using JARVIS-Tools package.
data_CuHO2
_symmetry_space_group_name_H-M  'Cmc2_1'
_cell_length_a       2.98728
_cell_length_b       3.96961
_cell_length_c       6.14841
_cell_angle_alpha    90
_cell_angle_beta     75.9404
_cell_angle_gamma    90

_symmetry_Int_Tables_number  36
_chemical_formula_structural  CuHO2
_chemical_formula_sum  Cu2H2O4
_cell_volume  70.72601383359611
_cell_formula_units_Z  2
loop_
  _symmetry_equiv_pos_site_id
 _symmetry_equiv_pos_as_xyz
 1  'x, y, z'
loop_
 _atom_site_type_symbol
 _atom_site_label
 _atom_site_symmetry_multiplicity
 _atom_site_fract_x
 _atom_site_fract_y
 _atom_site_fract_z
 _atom_site_fract_occupancy
 Cu  Cu1  1  0.17729  0.45980  0.64542  1
 Cu  Cu2  1  0.82271  0.95980  0.35458  1
 H  H1  1  0.51769  0.26084  0.96462  1
 H  H2  1  0.48231  0.76084  0.03538  1
 O  O1  1  0.43036  0.96707  0.13927  1
 O  O2  1  0.56964  0.46707  0.86073  1
 O  O3  1  0.78982  0.46150  0.42035  1
 O  O4  1  0.21018  0.96150  0.57965  1
