CIF file written using JARVIS-Tools package.
data_ScF3
_symmetry_space_group_name_H-M  'C2'
_cell_length_a       4.32333
_cell_length_b       4.33098
_cell_length_c       3.83893
_cell_angle_alpha    107.785
_cell_angle_beta     124.27
_cell_angle_gamma    57.15

_symmetry_Int_Tables_number  5
_chemical_formula_structural  ScF3
_chemical_formula_sum  ScF3
_cell_volume  49.903444886782125
_cell_formula_units_Z  1
loop_
  _symmetry_equiv_pos_site_id
 _symmetry_equiv_pos_as_xyz
 1  'x, y, z'
loop_
 _atom_site_type_symbol
 _atom_site_label
 _atom_site_symmetry_multiplicity
 _atom_site_fract_x
 _atom_site_fract_y
 _atom_site_fract_z
 _atom_site_fract_occupancy
 F  F1  1  0.39597  0.15986  0.44835  1
 F  F2  1  0.05238  0.84014  0.44835  1
 F  F3  1  0.56320  0.50000  0.12640  1
 Sc  Sc1  1  -0.01155  0.00000  -0.02310  1
