CIF file written using JARVIS-Tools package.
data_FeO2
_symmetry_space_group_name_H-M  'R3m'
_cell_length_a       5.64434
_cell_length_b       5.56283
_cell_length_c       5.56283
_cell_angle_alpha    60
_cell_angle_beta     60.4767
_cell_angle_gamma    60.4767

_symmetry_Int_Tables_number  160
_chemical_formula_structural  FeO2
_chemical_formula_sum  Fe4O8
_cell_volume  124.38869497063631
_cell_formula_units_Z  4
loop_
  _symmetry_equiv_pos_site_id
 _symmetry_equiv_pos_as_xyz
 1  'x, y, z'
loop_
 _atom_site_type_symbol
 _atom_site_label
 _atom_site_symmetry_multiplicity
 _atom_site_fract_x
 _atom_site_fract_y
 _atom_site_fract_z
 _atom_site_fract_occupancy
 Fe  Fe1  1  0.26493  0.24502  0.24502  1
 Fe  Fe2  1  0.63372  0.11426  0.62601  1
 Fe  Fe3  1  0.63372  0.62601  0.11425  1
 Fe  Fe4  1  0.63372  0.62601  0.62601  1
 O  O1  1  0.39580  0.37161  0.37161  1
 O  O2  1  0.39580  0.37161  0.86097  1
 O  O3  1  0.39580  0.86097  0.37161  1
 O  O4  1  0.86305  0.37898  0.37898  1
 O  O5  1  0.41405  0.86198  0.86198  1
 O  O6  1  0.83392  0.40896  0.87856  1
 O  O7  1  0.83392  0.87856  0.40896  1
 O  O8  1  0.83392  0.87856  0.87856  1
