CIF file written using JARVIS-Tools package.
data_Hf2Ag3F14
_symmetry_space_group_name_H-M  'C2/m'
_cell_length_a       5.74979
_cell_length_b       5.74979
_cell_length_c       9.19892
_cell_angle_alpha    88.0229
_cell_angle_beta     88.0229
_cell_angle_gamma    72.1316

_symmetry_Int_Tables_number  12
_chemical_formula_structural  Hf2Ag3F14
_chemical_formula_sum  Hf2Ag3F4
_cell_volume  289.1843509338895
_cell_formula_units_Z  1
loop_
  _symmetry_equiv_pos_site_id
 _symmetry_equiv_pos_as_xyz
 1  'x, y, z'
loop_
 _atom_site_type_symbol
 _atom_site_label
 _atom_site_symmetry_multiplicity
 _atom_site_fract_x
 _atom_site_fract_y
 _atom_site_fract_z
 _atom_site_fract_occupancy
 Ag  Ag1  1  0.81355  0.81355  0.39477  1
 Ag  Ag2  1  0.18645  0.18645  0.60523  1
 Ag  Ag3  1  0.00000  0.00000  0.00000  1
 F  F1  1  0.86030  0.26989  0.83840  1
 F  F2  1  0.73011  0.13970  0.16160  1
 F  F3  1  0.13970  0.73011  0.16160  1
 F  F4  1  0.26989  0.86030  0.83840  1
 F  F5  1  0.84279  0.48940  0.60992  1
 F  F6  1  0.50000  0.50000  0.00000  1
 F  F7  1  -0.00000  -0.00000  0.50000  1
 F  F8  1  0.77822  0.77822  0.86892  1
 F  F9  1  0.61463  0.61463  0.28551  1
 F  F10  1  0.22178  0.22178  0.13108  1
 F  F11  1  0.48940  0.84279  0.60992  1
 F  F12  1  0.15721  0.51060  0.39008  1
 F  F13  1  0.51060  0.15721  0.39008  1
 F  F14  1  0.38537  0.38537  0.71449  1
 Hf  Hf1  1  0.40964  0.40964  0.21704  1
 Hf  Hf2  1  0.59036  0.59036  0.78296  1
