CIF file written using JARVIS-Tools package.
data_TiBi2O6
_symmetry_space_group_name_H-M  'I4mm'
_cell_length_a       5.35814
_cell_length_b       5.35814
_cell_length_c       9.40289
_cell_angle_alpha    90
_cell_angle_beta     90
_cell_angle_gamma    90

_symmetry_Int_Tables_number  107
_chemical_formula_structural  TiBi2O6
_chemical_formula_sum  Ti2Bi4O2
_cell_volume  269.9540281352021
_cell_formula_units_Z  2
loop_
  _symmetry_equiv_pos_site_id
 _symmetry_equiv_pos_as_xyz
 1  'x, y, z'
loop_
 _atom_site_type_symbol
 _atom_site_label
 _atom_site_symmetry_multiplicity
 _atom_site_fract_x
 _atom_site_fract_y
 _atom_site_fract_z
 _atom_site_fract_occupancy
 Bi  Bi1  1  0.00000  0.50000  0.99875  1
 Bi  Bi2  1  0.00000  0.50000  0.49875  1
 Bi  Bi3  1  0.50000  0.00000  0.99875  1
 Bi  Bi4  1  0.50000  0.00000  0.49875  1
 O  O1  1  0.25873  0.74127  0.36638  1
 O  O2  1  0.50000  0.50000  0.57802  1
 O  O3  1  0.50000  0.50000  0.10637  1
 O  O4  1  0.00000  0.00000  0.60638  1
 O  O5  1  0.75873  0.75873  0.86639  1
 O  O6  1  0.75873  0.24127  0.86639  1
 O  O7  1  0.25873  0.25873  0.36638  1
 O  O8  1  0.00000  0.00000  0.07803  1
 O  O9  1  0.74127  0.25873  0.36638  1
 O  O10  1  0.24127  0.75873  0.86639  1
 O  O11  1  0.74127  0.74127  0.36638  1
 O  O12  1  0.24127  0.24127  0.86639  1
 Ti  Ti1  1  0.00000  0.00000  0.79681  1
 Ti  Ti2  1  0.50000  0.50000  0.29680  1
