CIF file written using JARVIS-Tools package.
data_BaPr2S4
_symmetry_space_group_name_H-M  'I-42d'
_cell_length_a       7.69307
_cell_length_b       7.69296
_cell_length_c       7.69307
_cell_angle_alpha    109.428
_cell_angle_beta     109.431
_cell_angle_gamma    109.555

_symmetry_Int_Tables_number  122
_chemical_formula_structural  BaPr2S4
_chemical_formula_sum  Ba2Pr4S8
_cell_volume  350.4834247751097
_cell_formula_units_Z  2
loop_
  _symmetry_equiv_pos_site_id
 _symmetry_equiv_pos_as_xyz
 1  'x, y, z'
loop_
 _atom_site_type_symbol
 _atom_site_label
 _atom_site_symmetry_multiplicity
 _atom_site_fract_x
 _atom_site_fract_y
 _atom_site_fract_z
 _atom_site_fract_occupancy
 Ba  Ba1  1  0.62500  0.37500  0.25000  1
 Ba  Ba2  1  0.87500  0.12500  0.75000  1
 Pr  Pr1  1  0.12550  0.75000  0.87550  1
 Pr  Pr2  1  0.25000  0.62550  0.37550  1
 Pr  Pr3  1  0.37450  0.25000  0.62450  1
 Pr  Pr4  1  0.75000  0.87450  0.12450  1
 S  S1  1  0.14415  0.14043  0.16009  1
 S  S2  1  0.35585  0.51593  0.99627  1
 S  S3  1  0.64043  0.64415  0.66009  1
 S  S4  1  0.48406  0.98033  0.83991  1
 S  S5  1  0.48033  0.98407  0.33991  1
 S  S6  1  0.01594  0.85585  0.49627  1
 S  S7  1  0.85958  0.51967  0.00373  1
 S  S8  1  0.01966  0.35957  0.50373  1
