CIF file written using JARVIS-Tools package.
data_Sb2Te4Pb
_symmetry_space_group_name_H-M  'R-3m'
_cell_length_a       14.2671
_cell_length_b       14.2671
_cell_length_c       14.2671
_cell_angle_alpha    17.8267
_cell_angle_beta     17.8267
_cell_angle_gamma    17.8267

_symmetry_Int_Tables_number  166
_chemical_formula_structural  Sb2Te4Pb
_chemical_formula_sum  Sb2Te4Pb
_cell_volume  237.60821314518398
_cell_formula_units_Z  1
loop_
  _symmetry_equiv_pos_site_id
 _symmetry_equiv_pos_as_xyz
 1  'x, y, z'
loop_
 _atom_site_type_symbol
 _atom_site_label
 _atom_site_symmetry_multiplicity
 _atom_site_fract_x
 _atom_site_fract_y
 _atom_site_fract_z
 _atom_site_fract_occupancy
 Pb  Pb1  1  0.00000  0.00000  0.00000  1
 Sb  Sb1  1  0.57236  0.57236  0.57236  1
 Sb  Sb2  1  0.42764  0.42764  0.42764  1
 Te  Te1  1  0.71417  0.71417  0.71417  1
 Te  Te2  1  0.13374  0.13374  0.13374  1
 Te  Te3  1  0.86626  0.86626  0.86626  1
 Te  Te4  1  0.28583  0.28583  0.28583  1
