CIF file written using JARVIS-Tools package.
data_NbSbO4
_symmetry_space_group_name_H-M  'Pnna'
_cell_length_a       5.03376
_cell_length_b       5.66024
_cell_length_c       11.9266
_cell_angle_alpha    90
_cell_angle_beta     90
_cell_angle_gamma    90

_symmetry_Int_Tables_number  52
_chemical_formula_structural  NbSbO4
_chemical_formula_sum  Nb4Sb4O6
_cell_volume  339.8169440092496
_cell_formula_units_Z  4
loop_
  _symmetry_equiv_pos_site_id
 _symmetry_equiv_pos_as_xyz
 1  'x, y, z'
loop_
 _atom_site_type_symbol
 _atom_site_label
 _atom_site_symmetry_multiplicity
 _atom_site_fract_x
 _atom_site_fract_y
 _atom_site_fract_z
 _atom_site_fract_occupancy
 Nb  Nb1  1  0.75000  0.13677  0.25000  1
 Nb  Nb2  1  0.75000  0.36323  0.75000  1
 Nb  Nb3  1  0.25000  0.86323  0.75000  1
 Nb  Nb4  1  0.25000  0.63677  0.25000  1
 O  O1  1  0.50931  0.84768  0.19568  1
 O  O2  1  0.50931  0.65232  0.80432  1
 O  O3  1  0.99069  0.84768  0.30432  1
 O  O4  1  0.58037  0.42216  0.59514  1
 O  O5  1  0.49069  0.15232  0.80432  1
 O  O6  1  0.49069  0.34768  0.19568  1
 O  O7  1  0.99069  0.65232  0.69568  1
 O  O8  1  0.00931  0.34768  0.30432  1
 O  O9  1  0.08037  0.57784  0.09514  1
 O  O10  1  0.41963  0.57784  0.40486  1
 O  O11  1  0.00931  0.15232  0.69568  1
 O  O12  1  0.41963  0.92216  0.59514  1
 O  O13  1  0.91963  0.42216  0.90486  1
 O  O14  1  0.91963  0.07784  0.09514  1
 O  O15  1  0.08037  0.92216  0.90486  1
 O  O16  1  0.58037  0.07784  0.40486  1
 Sb  Sb1  1  0.30201  0.25000  0.50000  1
 Sb  Sb2  1  0.19799  0.25000  0.00000  1
 Sb  Sb3  1  0.69799  0.75000  0.50000  1
 Sb  Sb4  1  0.80201  0.75000  0.00000  1
