CIF file written using JARVIS-Tools package.
data_LiTiSiO4
_symmetry_space_group_name_H-M  'Pnma'
_cell_length_a       4.7749
_cell_length_b       10.3068
_cell_length_c       5.88762
_cell_angle_alpha    90
_cell_angle_beta     89.9976
_cell_angle_gamma    90

_symmetry_Int_Tables_number  62
_chemical_formula_structural  LiTiSiO4
_chemical_formula_sum  Li4Ti4Si4O6
_cell_volume  289.75350898237434
_cell_formula_units_Z  4
loop_
  _symmetry_equiv_pos_site_id
 _symmetry_equiv_pos_as_xyz
 1  'x, y, z'
loop_
 _atom_site_type_symbol
 _atom_site_label
 _atom_site_symmetry_multiplicity
 _atom_site_fract_x
 _atom_site_fract_y
 _atom_site_fract_z
 _atom_site_fract_occupancy
 Li  Li1  1  0.75001  0.70301  0.25009  1
 Li  Li2  1  0.25003  0.20290  0.24996  1
 Li  Li3  1  0.74997  0.70290  0.75004  1
 Li  Li4  1  0.24999  0.20301  0.74991  1
 O  O1  1  0.05539  0.64986  0.00001  1
 O  O2  1  0.46894  0.30025  -0.00000  1
 O  O3  1  0.96089  0.37548  0.21489  1
 O  O4  1  0.03909  0.87547  0.21488  1
 O  O5  1  0.53910  0.03039  0.28511  1
 O  O6  1  0.44461  0.75600  0.49999  1
 O  O7  1  0.53106  0.80025  0.00000  1
 O  O8  1  0.46088  0.53037  0.28513  1
 O  O9  1  0.53912  0.03037  0.71487  1
 O  O10  1  0.96893  0.60563  0.50004  1
 O  O11  1  0.55539  0.25600  0.50001  1
 O  O12  1  0.96091  0.37547  0.78512  1
 O  O13  1  0.03107  0.10563  0.49996  1
 O  O14  1  0.03911  0.87548  0.78511  1
 O  O15  1  0.46090  0.53039  0.71489  1
 O  O16  1  0.94461  0.14986  -0.00001  1
 Si  Si1  1  0.19204  0.79567  -0.00001  1
 Si  Si2  1  0.69204  0.11018  0.49999  1
 Si  Si3  1  0.30796  0.61018  0.50001  1
 Si  Si4  1  0.80796  0.29567  0.00001  1
 Ti  Ti1  1  0.25315  0.47646  0.00002  1
 Ti  Ti2  1  0.75316  0.42941  0.50001  1
 Ti  Ti3  1  0.24684  0.92941  0.49999  1
 Ti  Ti4  1  0.74685  0.97646  0.99998  1
