CIF file written using JARVIS-Tools package.
data_Te2MoW3Se2S4
_symmetry_space_group_name_H-M  'P3m1'
_cell_length_a       3.32308
_cell_length_b       3.32303
_cell_length_c       36.7085
_cell_angle_alpha    89.9487
_cell_angle_beta     90
_cell_angle_gamma    120.001

_symmetry_Int_Tables_number  156
_chemical_formula_structural  Te2MoW3Se2S4
_chemical_formula_sum  Te2MoW3Se2S4
_cell_volume  351.04915049679886
_cell_formula_units_Z  1
loop_
  _symmetry_equiv_pos_site_id
 _symmetry_equiv_pos_as_xyz
 1  'x, y, z'
loop_
 _atom_site_type_symbol
 _atom_site_label
 _atom_site_symmetry_multiplicity
 _atom_site_fract_x
 _atom_site_fract_y
 _atom_site_fract_z
 _atom_site_fract_occupancy
 Mo  Mo1  1  0.33330  0.66661  0.09394  1
 S  S1  1  0.66689  0.33377  0.05266  1
 S  S2  1  0.66684  0.33368  0.42765  1
 S  S3  1  0.66644  0.33288  0.13553  1
 S  S4  1  0.66639  0.33278  0.51128  1
 Se  Se1  1  0.33312  0.66624  0.32764  1
 Se  Se2  1  0.33361  0.66723  0.23589  1
 Te  Te1  1  0.33308  0.66615  0.70969  1
 Te  Te2  1  0.33365  0.66730  0.60536  1
 W  W1  1  0.33327  0.66655  0.46955  1
 W  W2  1  0.66671  0.33342  0.28180  1
 W  W3  1  0.66669  0.33339  0.65776  1
