CIF file written using JARVIS-Tools package.
data_CO2
_symmetry_space_group_name_H-M  'Pbcn'
_cell_length_a       4.77165
_cell_length_b       5.77669
_cell_length_c       6.23075
_cell_angle_alpha    90
_cell_angle_beta     90
_cell_angle_gamma    90

_symmetry_Int_Tables_number  60
_chemical_formula_structural  CO2
_chemical_formula_sum  C4O8
_cell_volume  171.74645569497702
_cell_formula_units_Z  4
loop_
  _symmetry_equiv_pos_site_id
 _symmetry_equiv_pos_as_xyz
 1  'x, y, z'
loop_
 _atom_site_type_symbol
 _atom_site_label
 _atom_site_symmetry_multiplicity
 _atom_site_fract_x
 _atom_site_fract_y
 _atom_site_fract_z
 _atom_site_fract_occupancy
 C  C1  1  0.50000  0.75000  0.85269  1
 C  C2  1  0.00000  0.75000  0.35269  1
 C  C3  1  0.00000  0.25000  0.64731  1
 C  C4  1  0.50000  0.25000  0.14731  1
 O  O1  1  0.70453  0.13748  0.14631  1
 O  O2  1  0.29547  0.36252  0.14631  1
 O  O3  1  0.79547  0.13748  0.64631  1
 O  O4  1  0.20453  0.86252  0.35369  1
 O  O5  1  0.20453  0.36252  0.64631  1
 O  O6  1  0.79547  0.63748  0.35369  1
 O  O7  1  0.70453  0.63748  0.85369  1
 O  O8  1  0.29547  0.86252  0.85369  1
