CIF file written using JARVIS-Tools package.
data_Mg3TeO6
_symmetry_space_group_name_H-M  'R-3'
_cell_length_a       6.08959
_cell_length_b       6.0896
_cell_length_c       6.08959
_cell_angle_alpha    90.7295
_cell_angle_beta     90.7295
_cell_angle_gamma    90.7294

_symmetry_Int_Tables_number  148
_chemical_formula_structural  Mg3TeO6
_chemical_formula_sum  Mg6Te2O2
_cell_volume  225.76574879941217
_cell_formula_units_Z  2
loop_
  _symmetry_equiv_pos_site_id
 _symmetry_equiv_pos_as_xyz
 1  'x, y, z'
loop_
 _atom_site_type_symbol
 _atom_site_label
 _atom_site_symmetry_multiplicity
 _atom_site_fract_x
 _atom_site_fract_y
 _atom_site_fract_z
 _atom_site_fract_occupancy
 Mg  Mg1  1  0.75157  0.93605  0.44635  1
 Mg  Mg2  1  0.55365  0.24843  0.06395  1
 Mg  Mg3  1  0.06395  0.55365  0.24843  1
 Mg  Mg4  1  0.24843  0.06395  0.55365  1
 Mg  Mg5  1  0.93605  0.44635  0.75157  1
 Mg  Mg6  1  0.44635  0.75157  0.93605  1
 O  O1  1  0.54431  0.19707  0.40815  1
 O  O2  1  0.19707  0.40815  0.54431  1
 O  O3  1  0.59185  0.45569  0.80293  1
 O  O4  1  0.45569  0.80293  0.59185  1
 O  O5  1  0.80293  0.59185  0.45569  1
 O  O6  1  0.92921  0.07515  0.69760  1
 O  O7  1  0.07079  0.92485  0.30240  1
 O  O8  1  0.40815  0.54431  0.19707  1
 O  O9  1  0.30240  0.07079  0.92485  1
 O  O10  1  0.69760  0.92921  0.07515  1
 O  O11  1  0.07515  0.69760  0.92921  1
 O  O12  1  0.92485  0.30240  0.07079  1
 Te  Te1  1  0.00000  0.00000  0.00000  1
 Te  Te2  1  0.50000  0.50000  0.50000  1
