CIF file written using JARVIS-Tools package.
data_LiFeF3
_symmetry_space_group_name_H-M  'Pnma'
_cell_length_a       5.25944
_cell_length_b       5.22168
_cell_length_c       7.79684
_cell_angle_alpha    90
_cell_angle_beta     90
_cell_angle_gamma    90

_symmetry_Int_Tables_number  62
_chemical_formula_structural  LiFeF3
_chemical_formula_sum  Li4Fe4F2
_cell_volume  214.12554229886106
_cell_formula_units_Z  4
loop_
  _symmetry_equiv_pos_site_id
 _symmetry_equiv_pos_as_xyz
 1  'x, y, z'
loop_
 _atom_site_type_symbol
 _atom_site_label
 _atom_site_symmetry_multiplicity
 _atom_site_fract_x
 _atom_site_fract_y
 _atom_site_fract_z
 _atom_site_fract_occupancy
 F  F1  1  0.33116  0.65754  0.92379  1
 F  F2  1  0.88484  0.36421  0.75000  1
 F  F3  1  0.16884  0.15754  0.42379  1
 F  F4  1  0.83116  0.84246  0.57621  1
 F  F5  1  0.66884  0.34246  0.07621  1
 F  F6  1  0.83116  0.84246  0.92379  1
 F  F7  1  0.61516  0.86421  0.25000  1
 F  F8  1  0.38484  0.13579  0.75000  1
 F  F9  1  0.33116  0.65754  0.57621  1
 F  F10  1  0.11516  0.63579  0.25000  1
 F  F11  1  0.16884  0.15754  0.07621  1
 F  F12  1  0.66884  0.34246  0.42379  1
 Fe  Fe1  1  0.50000  0.00000  0.00000  1
 Fe  Fe2  1  0.50000  0.00000  0.50000  1
 Fe  Fe3  1  0.00000  0.50000  0.50000  1
 Fe  Fe4  1  0.00000  0.50000  0.00000  1
 Li  Li1  1  0.02092  0.02069  0.75000  1
 Li  Li2  1  0.47908  0.52069  0.25000  1
 Li  Li3  1  0.52092  0.47931  0.75000  1
 Li  Li4  1  0.97908  0.97931  0.25000  1
