CIF file written using JARVIS-Tools package.
data_As2SO6
_symmetry_space_group_name_H-M  'P2_12_12'
_cell_length_a       4.73568
_cell_length_b       4.75309
_cell_length_c       11.4214
_cell_angle_alpha    90
_cell_angle_beta     90
_cell_angle_gamma    90

_symmetry_Int_Tables_number  18
_chemical_formula_structural  As2SO6
_chemical_formula_sum  As4S2O2
_cell_volume  257.08463369281594
_cell_formula_units_Z  2
loop_
  _symmetry_equiv_pos_site_id
 _symmetry_equiv_pos_as_xyz
 1  'x, y, z'
loop_
 _atom_site_type_symbol
 _atom_site_label
 _atom_site_symmetry_multiplicity
 _atom_site_fract_x
 _atom_site_fract_y
 _atom_site_fract_z
 _atom_site_fract_occupancy
 As  As1  1  0.78395  0.81087  0.30789  1
 As  As2  1  0.21605  0.81087  0.69211  1
 As  As3  1  0.28395  0.18913  0.19211  1
 As  As4  1  0.71605  0.18913  0.80789  1
 O  O1  1  0.89268  0.63197  0.09685  1
 O  O2  1  0.10732  0.63197  0.90315  1
 O  O3  1  0.07004  0.13217  0.75668  1
 O  O4  1  0.60732  0.36803  0.59685  1
 O  O5  1  0.39268  0.36803  0.40315  1
 O  O6  1  0.57004  0.86783  0.74332  1
 O  O7  1  0.73489  0.00409  0.45928  1
 O  O8  1  0.42996  0.86783  0.25668  1
 O  O9  1  0.76511  0.99591  0.95928  1
 O  O10  1  0.23489  0.99591  0.04072  1
 O  O11  1  0.26511  0.00409  0.54072  1
 O  O12  1  0.92996  0.13217  0.24332  1
 S  S1  1  0.50000  0.20048  0.50000  1
 S  S2  1  0.00000  0.79952  0.00000  1
