CIF file written using JARVIS-Tools package.
data_CaSiO3
_symmetry_space_group_name_H-M  'I4/mcm'
_cell_length_a       7.17011
_cell_length_b       7.17011
_cell_length_c       7.26194
_cell_angle_alpha    90
_cell_angle_beta     90
_cell_angle_gamma    90

_symmetry_Int_Tables_number  140
_chemical_formula_structural  CaSiO3
_chemical_formula_sum  Ca8Si8O24
_cell_volume  373.3401396539584
_cell_formula_units_Z  8
loop_
  _symmetry_equiv_pos_site_id
 _symmetry_equiv_pos_as_xyz
 1  'x, y, z'
loop_
 _atom_site_type_symbol
 _atom_site_label
 _atom_site_symmetry_multiplicity
 _atom_site_fract_x
 _atom_site_fract_y
 _atom_site_fract_z
 _atom_site_fract_occupancy
 Ca  Ca1  1  0.50000  0.00000  0.99997  1
 Ca  Ca2  1  0.00000  0.50000  0.50003  1
 Ca  Ca3  1  0.00000  0.00000  0.50000  1
 Ca  Ca4  1  0.50000  0.00000  0.49997  1
 Ca  Ca5  1  0.00000  0.00000  0.00000  1
 Ca  Ca6  1  0.00000  0.50000  0.00003  1
 Ca  Ca7  1  0.50000  0.50000  0.50000  1
 Ca  Ca8  1  0.50000  0.50000  0.00000  1
 O  O1  1  0.72379  0.50000  0.24996  1
 O  O2  1  0.50000  0.27621  0.75004  1
 O  O3  1  0.00000  0.72379  0.25004  1
 O  O4  1  0.74995  0.25005  0.50000  1
 O  O5  1  0.00000  0.77621  0.74996  1
 O  O6  1  0.27621  0.00000  0.74996  1
 O  O7  1  0.24995  0.24995  0.00000  1
 O  O8  1  0.74995  0.74995  0.50000  1
 O  O9  1  0.00000  0.27621  0.25004  1
 O  O10  1  0.25005  0.74995  0.50000  1
 O  O11  1  0.22379  0.50000  0.75004  1
 O  O12  1  0.77621  0.00000  0.25004  1
 O  O13  1  0.25005  0.25005  0.50000  1
 O  O14  1  0.24995  0.75005  0.00000  1
 O  O15  1  0.75005  0.24995  0.00000  1
 O  O16  1  0.00000  0.22379  0.74996  1
 O  O17  1  0.77621  0.50000  0.75004  1
 O  O18  1  0.50000  0.22379  0.24996  1
 O  O19  1  0.27621  0.50000  0.24996  1
 O  O20  1  0.72379  0.00000  0.74996  1
 O  O21  1  0.50000  0.72379  0.75004  1
 O  O22  1  0.75005  0.75005  0.00000  1
 O  O23  1  0.50000  0.77621  0.24996  1
 O  O24  1  0.22379  0.00000  0.25004  1
 Si  Si1  1  0.75000  0.75000  0.75000  1
 Si  Si2  1  0.25000  0.25000  0.75000  1
 Si  Si3  1  0.25000  0.75000  0.25000  1
 Si  Si4  1  0.25000  0.75000  0.75000  1
 Si  Si5  1  0.75000  0.75000  0.25000  1
 Si  Si6  1  0.75000  0.25000  0.25000  1
 Si  Si7  1  0.25000  0.25000  0.25000  1
 Si  Si8  1  0.75000  0.25000  0.75000  1
