CIF file written using JARVIS-Tools package.
data_YSi2
_symmetry_space_group_name_H-M  'I4_1/amd'
_cell_length_a       3.94804
_cell_length_b       3.94804
_cell_length_c       8.0416
_cell_angle_alpha    104.21
_cell_angle_beta     104.21
_cell_angle_gamma    90

_symmetry_Int_Tables_number  141
_chemical_formula_structural  YSi2
_chemical_formula_sum  Y2Si4
_cell_volume  117.54914430947304
_cell_formula_units_Z  2
loop_
  _symmetry_equiv_pos_site_id
 _symmetry_equiv_pos_as_xyz
 1  'x, y, z'
loop_
 _atom_site_type_symbol
 _atom_site_label
 _atom_site_symmetry_multiplicity
 _atom_site_fract_x
 _atom_site_fract_y
 _atom_site_fract_z
 _atom_site_fract_occupancy
 Si  Si1  1  0.70606  0.95606  0.91212  1
 Si  Si2  1  0.45606  0.20606  0.41212  1
 Si  Si3  1  0.54394  0.79394  0.58788  1
 Si  Si4  1  0.29394  0.04394  0.08788  1
 Y  Y1  1  0.87500  0.62500  0.25000  1
 Y  Y2  1  0.12500  0.37500  0.75000  1
