CIF file written using JARVIS-Tools package.
data_Ba2CaI6
_symmetry_space_group_name_H-M  'P4_2/mnm'
_cell_length_a       7.78718
_cell_length_b       7.78718
_cell_length_c       15.0972
_cell_angle_alpha    90
_cell_angle_beta     90
_cell_angle_gamma    90

_symmetry_Int_Tables_number  136
_chemical_formula_structural  Ba2CaI6
_chemical_formula_sum  Ba4Ca2I2
_cell_volume  915.4941915911121
_cell_formula_units_Z  2
loop_
  _symmetry_equiv_pos_site_id
 _symmetry_equiv_pos_as_xyz
 1  'x, y, z'
loop_
 _atom_site_type_symbol
 _atom_site_label
 _atom_site_symmetry_multiplicity
 _atom_site_fract_x
 _atom_site_fract_y
 _atom_site_fract_z
 _atom_site_fract_occupancy
 Ba  Ba1  1  0.00000  0.00000  0.33326  1
 Ba  Ba2  1  0.00000  0.00000  0.66674  1
 Ba  Ba3  1  0.50000  0.50000  0.16674  1
 Ba  Ba4  1  0.50000  0.50000  0.83326  1
 Ca  Ca1  1  0.00000  0.00000  0.00000  1
 Ca  Ca2  1  0.50000  0.50000  0.50000  1
 I  I1  1  0.19101  0.80899  0.15294  1
 I  I2  1  0.19101  0.80899  0.84706  1
 I  I3  1  0.80899  0.19101  0.15294  1
 I  I4  1  0.28579  0.28579  0.00000  1
 I  I5  1  0.21421  0.78579  0.50000  1
 I  I6  1  0.69101  0.69101  0.65294  1
 I  I7  1  0.69101  0.69101  0.34706  1
 I  I8  1  0.30899  0.30899  0.34706  1
 I  I9  1  0.71421  0.71421  0.00000  1
 I  I10  1  0.78579  0.21421  0.50000  1
 I  I11  1  0.30899  0.30899  0.65294  1
 I  I12  1  0.80899  0.19101  0.84706  1
