CIF file written using JARVIS-Tools package.
data_Ba2AlCu3O7
_symmetry_space_group_name_H-M  'Pmmm'
_cell_length_a       3.69155
_cell_length_b       3.84718
_cell_length_c       11.6836
_cell_angle_alpha    90
_cell_angle_beta     90
_cell_angle_gamma    90

_symmetry_Int_Tables_number  47
_chemical_formula_structural  Ba2AlCu3O7
_chemical_formula_sum  Ba2AlCu3O7
_cell_volume  165.93159657011495
_cell_formula_units_Z  1
loop_
  _symmetry_equiv_pos_site_id
 _symmetry_equiv_pos_as_xyz
 1  'x, y, z'
loop_
 _atom_site_type_symbol
 _atom_site_label
 _atom_site_symmetry_multiplicity
 _atom_site_fract_x
 _atom_site_fract_y
 _atom_site_fract_z
 _atom_site_fract_occupancy
 Al  Al1  1  0.50000  0.50000  0.49999  1
 Ba  Ba1  1  0.50000  0.50000  0.81471  1
 Ba  Ba2  1  0.50000  0.50000  0.18528  1
 Cu  Cu1  1  0.00000  0.00000  0.63625  1
 Cu  Cu2  1  0.00000  0.00000  0.36376  1
 Cu  Cu3  1  0.00000  0.00000  -0.00000  1
 O  O1  1  0.00000  0.50000  -0.00000  1
 O  O2  1  0.50000  0.00000  0.60440  1
 O  O3  1  0.50000  0.00000  0.39572  1
 O  O4  1  0.00000  0.50000  0.60510  1
 O  O5  1  0.00000  0.50000  0.39479  1
 O  O6  1  0.00000  0.00000  0.83765  1
 O  O7  1  0.00000  0.00000  0.16235  1
