CIF file written using JARVIS-Tools package.
data_GeO2
_symmetry_space_group_name_H-M  'P3_121'
_cell_length_a       4.93598
_cell_length_b       4.93598
_cell_length_c       5.40175
_cell_angle_alpha    90
_cell_angle_beta     90
_cell_angle_gamma    120

_symmetry_Int_Tables_number  152
_chemical_formula_structural  GeO2
_chemical_formula_sum  Ge3O6
_cell_volume  113.97587069253575
_cell_formula_units_Z  3
loop_
  _symmetry_equiv_pos_site_id
 _symmetry_equiv_pos_as_xyz
 1  'x, y, z'
loop_
 _atom_site_type_symbol
 _atom_site_label
 _atom_site_symmetry_multiplicity
 _atom_site_fract_x
 _atom_site_fract_y
 _atom_site_fract_z
 _atom_site_fract_occupancy
 Ge  Ge1  1  0.21914  0.21914  0.00000  1
 Ge  Ge2  1  -0.00000  0.78086  0.66667  1
 Ge  Ge3  1  0.78086  -0.00000  0.33333  1
 O  O1  1  0.95530  0.37967  0.80552  1
 O  O2  1  0.62033  0.57563  0.13885  1
 O  O3  1  0.42437  0.04470  0.47218  1
 O  O4  1  0.37967  0.95530  0.19448  1
 O  O5  1  0.04470  0.42437  0.52782  1
 O  O6  1  0.57563  0.62033  0.86115  1
