CIF file written using JARVIS-Tools package.
data_K2CO3
_symmetry_space_group_name_H-M  'C2/c'
_cell_length_a       5.60816
_cell_length_b       5.77123
_cell_length_c       6.71443
_cell_angle_alpha    84.4328
_cell_angle_beta     78.4824
_cell_angle_gamma    60.9304

_symmetry_Int_Tables_number  15
_chemical_formula_structural  K2CO3
_chemical_formula_sum  K4C2O6
_cell_volume  186.11874992543076
_cell_formula_units_Z  2
loop_
  _symmetry_equiv_pos_site_id
 _symmetry_equiv_pos_as_xyz
 1  'x, y, z'
loop_
 _atom_site_type_symbol
 _atom_site_label
 _atom_site_symmetry_multiplicity
 _atom_site_fract_x
 _atom_site_fract_y
 _atom_site_fract_z
 _atom_site_fract_occupancy
 C  C1  1  0.66804  0.66393  0.25000  1
 C  C2  1  0.33196  0.33607  0.75000  1
 K  K1  1  0.66613  0.66774  0.75000  1
 K  K2  1  0.33387  0.33226  0.25000  1
 K  K3  1  0.00000  0.00000  0.50000  1
 K  K4  1  0.00000  0.00000  0.00000  1
 O  O1  1  0.22560  0.20783  0.68440  1
 O  O2  1  0.20292  0.59416  0.75000  1
 O  O3  1  0.79708  0.40584  0.25000  1
 O  O4  1  0.77440  0.79217  0.31560  1
 O  O5  1  0.56656  0.20783  0.81560  1
 O  O6  1  0.43344  0.79217  0.18440  1
