CIF file written using JARVIS-Tools package.
data_Ni5P4O16
_symmetry_space_group_name_H-M  'P-1'
_cell_length_a       5.0019
_cell_length_b       7.77759
_cell_length_c       8.0439
_cell_angle_alpha    111.629
_cell_angle_beta     91.1841
_cell_angle_gamma    100.434

_symmetry_Int_Tables_number  2
_chemical_formula_structural  Ni5P4O16
_chemical_formula_sum  Ni5P4O6
_cell_volume  284.7749154647892
_cell_formula_units_Z  1
loop_
  _symmetry_equiv_pos_site_id
 _symmetry_equiv_pos_as_xyz
 1  'x, y, z'
loop_
 _atom_site_type_symbol
 _atom_site_label
 _atom_site_symmetry_multiplicity
 _atom_site_fract_x
 _atom_site_fract_y
 _atom_site_fract_z
 _atom_site_fract_occupancy
 Ni  Ni1  1  0.89476  0.76190  0.23429  1
 Ni  Ni2  1  0.34740  0.59515  0.32222  1
 Ni  Ni3  1  0.65260  0.40485  0.67778  1
 Ni  Ni4  1  0.00000  0.00000  -0.00000  1
 Ni  Ni5  1  0.10524  0.23810  0.76571  1
 O  O1  1  0.25915  0.37567  0.37740  1
 O  O2  1  0.22694  0.67285  0.12708  1
 O  O3  1  0.64141  0.82062  0.43804  1
 O  O4  1  0.65200  0.49801  0.18310  1
 O  O5  1  0.69301  0.77924  0.02898  1
 O  O6  1  0.30699  0.22076  0.97102  1
 O  O7  1  0.08802  0.75890  0.44969  1
 O  O8  1  0.77306  0.32715  0.87292  1
 O  O9  1  0.35859  0.17938  0.56196  1
 O  O10  1  0.74750  0.16906  0.09768  1
 O  O11  1  0.08254  0.02513  0.25797  1
 O  O12  1  0.34800  0.50199  0.81690  1
 O  O13  1  0.91746  0.97487  0.74203  1
 O  O14  1  0.74085  0.62433  0.62260  1
 O  O15  1  0.25250  0.83094  0.90232  1
 O  O16  1  0.91199  0.24110  0.55031  1
 P  P1  1  0.84754  0.79044  0.57286  1
 P  P2  1  0.38006  0.70260  0.96904  1
 P  P3  1  0.61994  0.29740  0.03096  1
 P  P4  1  0.15246  0.20956  0.42714  1
