CIF file written using JARVIS-Tools package.
data_Sr2UZnO6
_symmetry_space_group_name_H-M  'P2_1/c'
_cell_length_a       5.83053
_cell_length_b       5.8853
_cell_length_c       10.0633
_cell_angle_alpha    90
_cell_angle_beta     125.12
_cell_angle_gamma    90

_symmetry_Int_Tables_number  14
_chemical_formula_structural  Sr2UZnO6
_chemical_formula_sum  Sr4U2Zn2O2
_cell_volume  282.4485189903353
_cell_formula_units_Z  2
loop_
  _symmetry_equiv_pos_site_id
 _symmetry_equiv_pos_as_xyz
 1  'x, y, z'
loop_
 _atom_site_type_symbol
 _atom_site_label
 _atom_site_symmetry_multiplicity
 _atom_site_fract_x
 _atom_site_fract_y
 _atom_site_fract_z
 _atom_site_fract_occupancy
 O  O1  1  0.67402  0.79296  0.46040  1
 O  O2  1  0.83136  0.52115  0.75230  1
 O  O3  1  0.24919  0.71517  0.54283  1
 O  O4  1  0.32598  0.29296  0.03960  1
 O  O5  1  0.75081  0.21517  0.95717  1
 O  O6  1  0.24919  0.78483  0.04283  1
 O  O7  1  0.16864  0.47885  0.24770  1
 O  O8  1  0.16864  0.02115  0.74770  1
 O  O9  1  0.75081  0.28483  0.45717  1
 O  O10  1  0.32598  0.20704  0.53960  1
 O  O11  1  0.83136  0.97885  0.25230  1
 O  O12  1  0.67402  0.70704  0.96040  1
 Sr  Sr1  1  0.25992  0.46196  0.75165  1
 Sr  Sr2  1  0.74008  0.96196  0.74835  1
 Sr  Sr3  1  0.74008  0.53804  0.24835  1
 Sr  Sr4  1  0.25992  0.03804  0.25165  1
 U  U1  1  0.00000  0.00000  0.50000  1
 U  U2  1  0.00000  0.50000  0.00000  1
 Zn  Zn1  1  0.50000  0.50000  0.50000  1
 Zn  Zn2  1  0.50000  0.00000  0.00000  1
