CIF file written using JARVIS-Tools package.
data_LiAlAs2O7
_symmetry_space_group_name_H-M  'C2'
_cell_length_a       4.69911
_cell_length_b       5.22474
_cell_length_c       5.22474
_cell_angle_alpha    101.02
_cell_angle_beta     99.074
_cell_angle_gamma    99.0738

_symmetry_Int_Tables_number  5
_chemical_formula_structural  LiAlAs2O7
_chemical_formula_sum  LiAlAs2O7
_cell_volume  121.97721450473612
_cell_formula_units_Z  1
loop_
  _symmetry_equiv_pos_site_id
 _symmetry_equiv_pos_as_xyz
 1  'x, y, z'
loop_
 _atom_site_type_symbol
 _atom_site_label
 _atom_site_symmetry_multiplicity
 _atom_site_fract_x
 _atom_site_fract_y
 _atom_site_fract_z
 _atom_site_fract_occupancy
 Al  Al1  1  0.50000  0.62136  0.37864  1
 As  As1  1  0.90528  0.17956  0.25041  1
 As  As2  1  0.09472  0.74959  0.82044  1
 Li  Li1  1  0.50000  0.24608  0.75392  1
 O  O1  1  0.65166  0.35776  0.14609  1
 O  O2  1  0.76935  0.54481  0.65958  1
 O  O3  1  0.23188  0.62838  0.07907  1
 O  O4  1  0.00000  0.06238  0.93762  1
 O  O5  1  0.23065  0.34042  0.45519  1
 O  O6  1  0.76812  0.92093  0.37162  1
 O  O7  1  0.34834  0.85391  0.64224  1
