CIF file written using JARVIS-Tools package.
data_ZnFe2O4
_symmetry_space_group_name_H-M  'Fd-3m'
_cell_length_a       5.77687
_cell_length_b       5.77606
_cell_length_c       5.77622
_cell_angle_alpha    90.0025
_cell_angle_beta     119.996
_cell_angle_gamma    119.994

_symmetry_Int_Tables_number  227
_chemical_formula_structural  ZnFe2O4
_chemical_formula_sum  Zn2Fe4O8
_cell_volume  136.3034254665814
_cell_formula_units_Z  2
loop_
  _symmetry_equiv_pos_site_id
 _symmetry_equiv_pos_as_xyz
 1  'x, y, z'
loop_
 _atom_site_type_symbol
 _atom_site_label
 _atom_site_symmetry_multiplicity
 _atom_site_fract_x
 _atom_site_fract_y
 _atom_site_fract_z
 _atom_site_fract_occupancy
 Fe  Fe1  1  0.50000  -0.00000  0.50000  1
 Fe  Fe2  1  0.00000  0.50000  0.00000  1
 Fe  Fe3  1  0.50000  0.50000  0.50000  1
 Fe  Fe4  1  -0.00000  0.50000  0.50000  1
 O  O1  1  0.52679  0.26339  0.29009  1
 O  O2  1  0.97321  0.26331  0.73659  1
 O  O3  1  0.52680  0.26341  0.73670  1
 O  O4  1  0.02680  0.29010  0.26339  1
 O  O5  1  0.47320  0.73659  0.26330  1
 O  O6  1  0.02679  0.73669  0.26341  1
 O  O7  1  0.97320  0.70990  0.73661  1
 O  O8  1  0.47321  0.73661  0.70991  1
 Zn  Zn1  1  0.75000  0.87500  0.12500  1
 Zn  Zn2  1  0.25000  0.12500  0.87500  1
