CIF file written using JARVIS-Tools package.
data_YbPt
_symmetry_space_group_name_H-M  'Pnma'
_cell_length_a       4.37932
_cell_length_b       5.52137
_cell_length_c       7.05703
_cell_angle_alpha    90
_cell_angle_beta     90
_cell_angle_gamma    90

_symmetry_Int_Tables_number  62
_chemical_formula_structural  YbPt
_chemical_formula_sum  Yb4Pt4
_cell_volume  170.63755745303447
_cell_formula_units_Z  4
loop_
  _symmetry_equiv_pos_site_id
 _symmetry_equiv_pos_as_xyz
 1  'x, y, z'
loop_
 _atom_site_type_symbol
 _atom_site_label
 _atom_site_symmetry_multiplicity
 _atom_site_fract_x
 _atom_site_fract_y
 _atom_site_fract_z
 _atom_site_fract_occupancy
 Pt  Pt1  1  0.75000  0.15519  0.45886  1
 Pt  Pt2  1  0.25000  0.84481  0.54114  1
 Pt  Pt3  1  0.25000  0.65519  0.04114  1
 Pt  Pt4  1  0.75000  0.34481  0.95886  1
 Yb  Yb1  1  0.25000  0.14213  0.18428  1
 Yb  Yb2  1  0.75000  0.64213  0.31572  1
 Yb  Yb3  1  0.75000  0.85787  0.81572  1
 Yb  Yb4  1  0.25000  0.35787  0.68428  1
