CIF file written using JARVIS-Tools package.
data_Mn6O5F7
_symmetry_space_group_name_H-M  'P1'
_cell_length_a       5.53181
_cell_length_b       5.65572
_cell_length_c       7.19688
_cell_angle_alpha    74.0598
_cell_angle_beta     74.542
_cell_angle_gamma    72.4139

_symmetry_Int_Tables_number  1
_chemical_formula_structural  Mn6O5F7
_chemical_formula_sum  Mn6O5F7
_cell_volume  202.20712839036466
_cell_formula_units_Z  1
loop_
  _symmetry_equiv_pos_site_id
 _symmetry_equiv_pos_as_xyz
 1  'x, y, z'
loop_
 _atom_site_type_symbol
 _atom_site_label
 _atom_site_symmetry_multiplicity
 _atom_site_fract_x
 _atom_site_fract_y
 _atom_site_fract_z
 _atom_site_fract_occupancy
 F  F1  1  0.67715  0.29585  0.02057  1
 F  F2  1  0.60576  0.05623  0.66619  1
 F  F3  1  0.06897  0.12092  0.69720  1
 F  F4  1  0.59529  0.56956  0.63846  1
 F  F5  1  0.90999  0.86531  0.30655  1
 F  F6  1  0.38828  0.93638  0.33090  1
 F  F7  1  0.33382  0.71531  0.98616  1
 Mn  Mn1  1  0.70829  0.67300  0.83769  1
 Mn  Mn2  1  0.00718  0.00747  0.00099  1
 Mn  Mn3  1  0.99633  0.99663  0.49554  1
 Mn  Mn4  1  0.30261  0.33662  0.17304  1
 Mn  Mn5  1  0.67263  0.61617  0.31050  1
 Mn  Mn6  1  0.31084  0.36697  0.66910  1
 O  O1  1  0.96375  0.33040  0.32885  1
 O  O2  1  0.21638  0.24809  0.95848  1
 O  O3  1  0.03372  0.66680  0.66761  1
 O  O4  1  0.41148  0.43078  0.37917  1
 O  O5  1  0.79754  0.76750  0.03297  1
