CIF file written using JARVIS-Tools package.
data_BaHgS2
_symmetry_space_group_name_H-M  'Pmc2_1'
_cell_length_a       4.251
_cell_length_b       7.39657
_cell_length_c       14.5141
_cell_angle_alpha    90
_cell_angle_beta     90
_cell_angle_gamma    90

_symmetry_Int_Tables_number  26
_chemical_formula_structural  BaHgS2
_chemical_formula_sum  Ba4Hg4S8
_cell_volume  456.36521390511933
_cell_formula_units_Z  4
loop_
  _symmetry_equiv_pos_site_id
 _symmetry_equiv_pos_as_xyz
 1  'x, y, z'
loop_
 _atom_site_type_symbol
 _atom_site_label
 _atom_site_symmetry_multiplicity
 _atom_site_fract_x
 _atom_site_fract_y
 _atom_site_fract_z
 _atom_site_fract_occupancy
 Ba  Ba1  1  0.00000  0.00599  0.89835  1
 Ba  Ba2  1  0.00000  0.68107  0.60901  1
 Ba  Ba3  1  0.00000  0.50599  0.10165  1
 Ba  Ba4  1  0.00000  0.18107  0.39099  1
 Hg  Hg1  1  0.50000  0.66270  0.35312  1
 Hg  Hg2  1  0.50000  0.16270  0.64688  1
 Hg  Hg3  1  0.50000  0.00363  0.14323  1
 Hg  Hg4  1  0.50000  0.50363  0.85677  1
 S  S1  1  0.50000  0.38951  0.53033  1
 S  S2  1  0.50000  0.88951  0.46967  1
 S  S3  1  0.00000  0.88688  0.22477  1
 S  S4  1  0.00000  0.38688  0.77523  1
 S  S5  1  0.50000  0.39539  0.26167  1
 S  S6  1  0.50000  0.73122  0.98386  1
 S  S7  1  0.50000  0.23122  0.01614  1
 S  S8  1  0.50000  0.89539  0.73833  1
