CIF file written using JARVIS-Tools package.
data_CdI2
_symmetry_space_group_name_H-M  'P3m1'
_cell_length_a       4.28585
_cell_length_b       4.28584
_cell_length_c       41.2403
_cell_angle_alpha    90
_cell_angle_beta     90
_cell_angle_gamma    120

_symmetry_Int_Tables_number  156
_chemical_formula_structural  CdI2
_chemical_formula_sum  Cd6I2
_cell_volume  656.033150042162
_cell_formula_units_Z  6
loop_
  _symmetry_equiv_pos_site_id
 _symmetry_equiv_pos_as_xyz
 1  'x, y, z'
loop_
 _atom_site_type_symbol
 _atom_site_label
 _atom_site_symmetry_multiplicity
 _atom_site_fract_x
 _atom_site_fract_y
 _atom_site_fract_z
 _atom_site_fract_occupancy
 Cd  Cd1  1  0.00000  0.00000  0.54203  1
 Cd  Cd2  1  0.66667  0.33333  0.04183  1
 Cd  Cd3  1  0.00000  0.00000  0.70863  1
 Cd  Cd4  1  0.66667  0.33333  0.37532  1
 Cd  Cd5  1  0.00000  0.00000  0.20858  1
 Cd  Cd6  1  0.00000  0.00000  0.87520  1
 I  I1  1  0.33333  0.66667  0.08391  1
 I  I2  1  0.33333  0.66667  0.41739  1
 I  I3  1  0.33333  0.66667  0.25065  1
 I  I4  1  0.33333  0.66667  0.75068  1
 I  I5  1  0.66667  0.33333  0.66660  1
 I  I6  1  0.66667  0.33333  0.83317  1
 I  I7  1  0.00000  0.00000  0.99981  1
 I  I8  1  0.33333  0.66667  0.91726  1
 I  I9  1  0.66667  0.33333  0.50000  1
 I  I10  1  0.33333  0.66667  0.58409  1
 I  I11  1  0.00000  0.00000  0.33329  1
 I  I12  1  0.66667  0.33333  0.16655  1
