CIF file written using JARVIS-Tools package.
data_Ta3Br7
_symmetry_space_group_name_H-M  'Cmce'
_cell_length_a       9.72188
_cell_length_b       9.72188
_cell_length_c       11.6366
_cell_angle_alpha    90
_cell_angle_beta     90
_cell_angle_gamma    93.5595

_symmetry_Int_Tables_number  64
_chemical_formula_structural  Ta3Br7
_chemical_formula_sum  Ta2Br28
_cell_volume  1097.7159326568947
_cell_formula_units_Z  4
loop_
  _symmetry_equiv_pos_site_id
 _symmetry_equiv_pos_as_xyz
 1  'x, y, z'
loop_
 _atom_site_type_symbol
 _atom_site_label
 _atom_site_symmetry_multiplicity
 _atom_site_fract_x
 _atom_site_fract_y
 _atom_site_fract_z
 _atom_site_fract_occupancy
 Br  Br1  1  0.78022  0.02988  0.74777  1
 Br  Br2  1  0.39324  0.89324  0.75000  1
 Br  Br3  1  0.89324  0.39324  0.75000  1
 Br  Br4  1  0.60676  0.10676  0.25000  1
 Br  Br5  1  0.13797  0.38873  0.01350  1
 Br  Br6  1  0.36203  0.11127  0.51350  1
 Br  Br7  1  0.88873  0.63797  0.48650  1
 Br  Br8  1  0.61127  0.86203  0.98650  1
 Br  Br9  1  0.74379  0.25621  0.50000  1
 Br  Br10  1  0.24379  0.75621  0.00000  1
 Br  Br11  1  0.11127  0.36203  0.51350  1
 Br  Br12  1  0.38873  0.13797  0.01350  1
 Br  Br13  1  0.35890  0.35890  0.27039  1
 Br  Br14  1  0.14110  0.14110  0.77039  1
 Br  Br15  1  0.85890  0.85890  0.22961  1
 Br  Br16  1  0.64110  0.64110  0.72961  1
 Br  Br17  1  0.75621  0.24379  0.00000  1
 Br  Br18  1  0.86203  0.61127  0.98650  1
 Br  Br19  1  0.10676  0.60676  0.25000  1
 Br  Br20  1  0.25621  0.74379  0.50000  1
 Br  Br21  1  0.97012  0.21978  0.25223  1
 Br  Br22  1  0.52988  0.28022  0.75223  1
 Br  Br23  1  0.28022  0.52988  0.75223  1
 Br  Br24  1  0.21978  0.97012  0.25223  1
 Br  Br25  1  0.02988  0.78022  0.74777  1
 Br  Br26  1  0.47012  0.71978  0.24777  1
 Br  Br27  1  0.71978  0.47012  0.24777  1
 Br  Br28  1  0.63797  0.88873  0.48650  1
 Ta  Ta1  1  0.37409  0.37409  0.91104  1
 Ta  Ta2  1  0.87409  0.87409  0.58896  1
 Ta  Ta3  1  0.62591  0.62591  0.08896  1
 Ta  Ta4  1  0.33731  0.54662  0.10786  1
 Ta  Ta5  1  0.12591  0.12591  0.41104  1
 Ta  Ta6  1  0.83731  0.04662  0.39214  1
 Ta  Ta7  1  0.45338  0.66269  0.89214  1
 Ta  Ta8  1  0.66269  0.45338  0.89214  1
 Ta  Ta9  1  0.16269  0.95338  0.60786  1
 Ta  Ta10  1  0.95338  0.16269  0.60786  1
 Ta  Ta11  1  0.04662  0.83731  0.39214  1
 Ta  Ta12  1  0.54662  0.33731  0.10786  1
