CIF file written using JARVIS-Tools package.
data_YV2O4
_symmetry_space_group_name_H-M  'Imma'
_cell_length_a       6.27137
_cell_length_b       6.27137
_cell_length_c       6.27199
_cell_angle_alpha    117.2
_cell_angle_beta     123.252
_cell_angle_gamma    89.6842

_symmetry_Int_Tables_number  74
_chemical_formula_structural  YV2O4
_chemical_formula_sum  Y2V4O8
_cell_volume  173.22775349319122
_cell_formula_units_Z  2
loop_
  _symmetry_equiv_pos_site_id
 _symmetry_equiv_pos_as_xyz
 1  'x, y, z'
loop_
 _atom_site_type_symbol
 _atom_site_label
 _atom_site_symmetry_multiplicity
 _atom_site_fract_x
 _atom_site_fract_y
 _atom_site_fract_z
 _atom_site_fract_occupancy
 O  O1  1  0.74414  0.76230  0.51826  1
 O  O2  1  0.74404  0.22588  0.98174  1
 O  O3  1  0.24118  0.23545  0.00564  1
 O  O4  1  0.25586  0.23770  0.48174  1
 O  O5  1  0.27018  0.76446  0.50564  1
 O  O6  1  0.25596  0.77412  0.01826  1
 O  O7  1  0.72981  0.23554  0.49436  1
 O  O8  1  0.75882  0.76455  -0.00564  1
 V  V1  1  0.36278  0.61278  0.75000  1
 V  V2  1  0.63722  0.38722  0.25000  1
 V  V3  1  0.50000  0.00000  0.50000  1
 V  V4  1  0.00000  0.00000  0.00000  1
 Y  Y1  1  0.00000  0.50000  0.00000  1
 Y  Y2  1  0.00000  0.00000  0.50000  1
