CIF file written using JARVIS-Tools package.
data_Na3AlP2
_symmetry_space_group_name_H-M  'Ibam'
_cell_length_a       6.04934
_cell_length_b       6.72788
_cell_length_c       8.04166
_cell_angle_alpha    114.729
_cell_angle_beta     112.094
_cell_angle_gamma    90

_symmetry_Int_Tables_number  72
_chemical_formula_structural  Na3AlP2
_chemical_formula_sum  Na6Al2P4
_cell_volume  270.5896401239999
_cell_formula_units_Z  2
loop_
  _symmetry_equiv_pos_site_id
 _symmetry_equiv_pos_as_xyz
 1  'x, y, z'
loop_
 _atom_site_type_symbol
 _atom_site_label
 _atom_site_symmetry_multiplicity
 _atom_site_fract_x
 _atom_site_fract_y
 _atom_site_fract_z
 _atom_site_fract_occupancy
 Al  Al1  1  0.25000  -0.00000  -0.00000  1
 Al  Al2  1  0.75000  0.00000  0.00000  1
 Na  Na1  1  0.74999  0.50000  0.00000  1
 Na  Na2  1  0.25001  0.50000  -0.00000  1
 Na  Na3  1  0.80897  0.00109  0.61794  1
 Na  Na4  1  0.30896  0.61684  0.61792  1
 Na  Na5  1  0.69104  0.38316  0.38208  1
 Na  Na6  1  0.19103  -0.00109  0.38206  1
 P  P1  1  0.39779  0.09634  0.79558  1
 P  P2  1  0.60221  0.90366  0.20442  1
 P  P3  1  0.89779  0.69925  0.79558  1
 P  P4  1  0.10221  0.30075  0.20442  1
