CIF file written using JARVIS-Tools package.
data_Cr2HgO4
_symmetry_space_group_name_H-M  'Fd-3m'
_cell_length_a       6.18737
_cell_length_b       6.18738
_cell_length_c       6.18737
_cell_angle_alpha    60
_cell_angle_beta     60
_cell_angle_gamma    60

_symmetry_Int_Tables_number  227
_chemical_formula_structural  Cr2HgO4
_chemical_formula_sum  Cr4Hg2O8
_cell_volume  167.49565124845523
_cell_formula_units_Z  2
loop_
  _symmetry_equiv_pos_site_id
 _symmetry_equiv_pos_as_xyz
 1  'x, y, z'
loop_
 _atom_site_type_symbol
 _atom_site_label
 _atom_site_symmetry_multiplicity
 _atom_site_fract_x
 _atom_site_fract_y
 _atom_site_fract_z
 _atom_site_fract_occupancy
 Cr  Cr1  1  0.00000  0.50000  -0.00000  1
 Cr  Cr2  1  0.50000  0.00000  -0.00000  1
 Cr  Cr3  1  0.00000  0.00000  0.50000  1
 Cr  Cr4  1  0.00000  0.00000  0.00000  1
 Hg  Hg1  1  0.62500  0.62500  0.62500  1
 Hg  Hg2  1  0.37500  0.37500  0.37500  1
 O  O1  1  0.77171  0.77171  0.77171  1
 O  O2  1  0.22829  0.22829  0.81514  1
 O  O3  1  0.22829  0.81514  0.22829  1
 O  O4  1  0.81514  0.22829  0.22829  1
 O  O5  1  0.77171  0.18486  0.77171  1
 O  O6  1  0.18486  0.77171  0.77171  1
 O  O7  1  0.22829  0.22829  0.22829  1
 O  O8  1  0.77171  0.77171  0.18486  1
