CIF file written using JARVIS-Tools package.
data_Zn2BiWO6
_symmetry_space_group_name_H-M  'P2_1/c'
_cell_length_a       5.48617
_cell_length_b       5.52027
_cell_length_c       9.60623
_cell_angle_alpha    90
_cell_angle_beta     121.121
_cell_angle_gamma    90

_symmetry_Int_Tables_number  14
_chemical_formula_structural  Zn2BiWO6
_chemical_formula_sum  Zn4Bi2W2O2
_cell_volume  249.05637565376784
_cell_formula_units_Z  2
loop_
  _symmetry_equiv_pos_site_id
 _symmetry_equiv_pos_as_xyz
 1  'x, y, z'
loop_
 _atom_site_type_symbol
 _atom_site_label
 _atom_site_symmetry_multiplicity
 _atom_site_fract_x
 _atom_site_fract_y
 _atom_site_fract_z
 _atom_site_fract_occupancy
 Bi  Bi1  1  0.50000  0.00000  0.00000  1
 Bi  Bi2  1  0.50000  0.50000  0.50000  1
 O  O1  1  0.33360  0.63355  0.21424  1
 O  O2  1  0.01953  0.69692  0.40394  1
 O  O3  1  0.33360  0.86645  0.71424  1
 O  O4  1  0.98047  0.30308  0.59606  1
 O  O5  1  0.01953  0.80308  0.90394  1
 O  O6  1  0.98047  0.19692  0.09606  1
 O  O7  1  0.26015  0.36653  0.94059  1
 O  O8  1  0.26015  0.13347  0.44059  1
 O  O9  1  0.66640  0.36645  0.78576  1
 O  O10  1  0.73985  0.86653  0.55941  1
 O  O11  1  0.66640  0.13355  0.28576  1
 O  O12  1  0.73985  0.63347  0.05941  1
 W  W1  1  0.00000  0.50000  0.00000  1
 W  W2  1  0.00000  0.00000  0.50000  1
 Zn  Zn1  1  0.28844  0.51175  0.75653  1
 Zn  Zn2  1  0.71156  0.01175  0.74347  1
 Zn  Zn3  1  0.71156  0.48825  0.24347  1
 Zn  Zn4  1  0.28844  0.98825  0.25653  1
