CIF file written using JARVIS-Tools package.
data_RbAuF4
_symmetry_space_group_name_H-M  'I4/mcm'
_cell_length_a       6.19892
_cell_length_b       6.19892
_cell_length_c       7.40105
_cell_angle_alpha    114.758
_cell_angle_beta     114.758
_cell_angle_gamma    90

_symmetry_Int_Tables_number  140
_chemical_formula_structural  RbAuF4
_chemical_formula_sum  Rb2Au2F8
_cell_volume  229.1533084175142
_cell_formula_units_Z  2
loop_
  _symmetry_equiv_pos_site_id
 _symmetry_equiv_pos_as_xyz
 1  'x, y, z'
loop_
 _atom_site_type_symbol
 _atom_site_label
 _atom_site_symmetry_multiplicity
 _atom_site_fract_x
 _atom_site_fract_y
 _atom_site_fract_z
 _atom_site_fract_occupancy
 Au  Au1  1  -0.00000  0.50000  -0.00000  1
 Au  Au2  1  0.50000  -0.00000  -0.00000  1
 F  F1  1  0.95605  0.45605  0.22984  1
 F  F2  1  0.72621  0.22621  0.77016  1
 F  F3  1  0.04395  0.54395  0.77016  1
 F  F4  1  0.22621  0.04395  0.77016  1
 F  F5  1  0.27379  0.77379  0.22984  1
 F  F6  1  0.45605  0.27379  0.22984  1
 F  F7  1  0.77379  0.95605  0.22984  1
 F  F8  1  0.54395  0.72621  0.77016  1
 Rb  Rb1  1  0.25000  0.25000  0.50000  1
 Rb  Rb2  1  0.75000  0.75000  0.50000  1
