CIF file written using JARVIS-Tools package.
data_PrCrSe3
_symmetry_space_group_name_H-M  'Pnma'
_cell_length_a       3.97163
_cell_length_b       8.17978
_cell_length_c       13.7526
_cell_angle_alpha    90
_cell_angle_beta     90
_cell_angle_gamma    90

_symmetry_Int_Tables_number  62
_chemical_formula_structural  PrCrSe3
_chemical_formula_sum  Pr4Cr4Se2
_cell_volume  446.7816739629482
_cell_formula_units_Z  4
loop_
  _symmetry_equiv_pos_site_id
 _symmetry_equiv_pos_as_xyz
 1  'x, y, z'
loop_
 _atom_site_type_symbol
 _atom_site_label
 _atom_site_symmetry_multiplicity
 _atom_site_fract_x
 _atom_site_fract_y
 _atom_site_fract_z
 _atom_site_fract_occupancy
 Cr  Cr1  1  0.25000  0.33850  0.05111  1
 Cr  Cr2  1  0.75000  0.16150  0.55111  1
 Cr  Cr3  1  0.25000  0.83850  0.44889  1
 Cr  Cr4  1  0.75000  0.66150  0.94889  1
 Pr  Pr1  1  0.25000  0.09451  0.82834  1
 Pr  Pr2  1  0.75000  0.40549  0.32834  1
 Pr  Pr3  1  0.25000  0.59451  0.67166  1
 Pr  Pr4  1  0.75000  0.90549  0.17166  1
 Se  Se1  1  0.75000  0.01293  0.39191  1
 Se  Se2  1  0.75000  0.65792  0.50475  1
 Se  Se3  1  0.75000  0.51293  0.10809  1
 Se  Se4  1  0.25000  0.19056  0.21182  1
 Se  Se5  1  0.25000  0.98707  0.60809  1
 Se  Se6  1  0.75000  0.15792  0.99525  1
 Se  Se7  1  0.75000  0.80944  0.78818  1
 Se  Se8  1  0.25000  0.34208  0.49525  1
 Se  Se9  1  0.75000  0.30944  0.71182  1
 Se  Se10  1  0.25000  0.84208  0.00475  1
 Se  Se11  1  0.25000  0.69056  0.28818  1
 Se  Se12  1  0.25000  0.48707  0.89191  1
