CIF file written using JARVIS-Tools package.
data_VO2
_symmetry_space_group_name_H-M  'Fd-3m'
_cell_length_a       5.75401
_cell_length_b       5.75435
_cell_length_c       5.75458
_cell_angle_alpha    90.0199
_cell_angle_beta     119.992
_cell_angle_gamma    119.988

_symmetry_Int_Tables_number  227
_chemical_formula_structural  VO2
_chemical_formula_sum  V4O8
_cell_volume  134.74707349812334
_cell_formula_units_Z  4
loop_
  _symmetry_equiv_pos_site_id
 _symmetry_equiv_pos_as_xyz
 1  'x, y, z'
loop_
 _atom_site_type_symbol
 _atom_site_label
 _atom_site_symmetry_multiplicity
 _atom_site_fract_x
 _atom_site_fract_y
 _atom_site_fract_z
 _atom_site_fract_occupancy
 O  O1  1  0.47505  0.76246  0.73746  1
 O  O2  1  0.02495  0.76241  0.28741  1
 O  O3  1  0.47505  0.21260  0.73759  1
 O  O4  1  0.97505  0.23746  0.26246  1
 O  O5  1  0.52495  0.78740  0.26241  1
 O  O6  1  0.97505  0.23759  0.71259  1
 O  O7  1  0.02495  0.76254  0.73754  1
 O  O8  1  0.52495  0.23754  0.26254  1
 V  V1  1  0.50000  0.00000  0.50000  1
 V  V2  1  -0.00000  0.00000  0.50000  1
 V  V3  1  0.50000  -0.00000  -0.00000  1
 V  V4  1  -0.00000  0.50000  0.50000  1
