CIF file written using JARVIS-Tools package.
data_CaCrSi2O6
_symmetry_space_group_name_H-M  'C2/c'
_cell_length_a       5.26454
_cell_length_b       6.78114
_cell_length_c       6.78115
_cell_angle_alpha    85.1285
_cell_angle_beta     78.7381
_cell_angle_gamma    78.7381

_symmetry_Int_Tables_number  15
_chemical_formula_structural  CaCrSi2O6
_chemical_formula_sum  Ca2Cr2Si4O2
_cell_volume  232.57535841410103
_cell_formula_units_Z  2
loop_
  _symmetry_equiv_pos_site_id
 _symmetry_equiv_pos_as_xyz
 1  'x, y, z'
loop_
 _atom_site_type_symbol
 _atom_site_label
 _atom_site_symmetry_multiplicity
 _atom_site_fract_x
 _atom_site_fract_y
 _atom_site_fract_z
 _atom_site_fract_occupancy
 Ca  Ca1  1  0.75000  0.30076  0.69924  1
 Ca  Ca2  1  0.25000  0.69924  0.30076  1
 Cr  Cr1  1  0.25000  0.09527  0.90473  1
 Cr  Cr2  1  0.75000  0.90473  0.09527  1
 O  O1  1  0.51731  0.32483  0.37194  1
 O  O2  1  0.36000  0.02454  0.21067  1
 O  O3  1  0.48269  0.67517  0.62806  1
 O  O4  1  0.01731  0.37194  0.32483  1
 O  O5  1  0.98269  0.62806  0.67517  1
 O  O6  1  0.32769  0.39347  0.88342  1
 O  O7  1  0.82769  0.88343  0.39347  1
 O  O8  1  0.86000  0.21067  0.02454  1
 O  O9  1  0.17231  0.11657  0.60653  1
 O  O10  1  0.64000  0.97546  0.78933  1
 O  O11  1  0.67231  0.60653  0.11658  1
 O  O12  1  0.14000  0.78933  0.97546  1
 Si  Si1  1  0.72590  0.80648  0.62035  1
 Si  Si2  1  0.77410  0.37965  0.19352  1
 Si  Si3  1  0.22590  0.62035  0.80648  1
 Si  Si4  1  0.27410  0.19352  0.37965  1
