CIF file written using JARVIS-Tools package.
data_H6CNF
_symmetry_space_group_name_H-M  'R3m'
_cell_length_a       5.13004
_cell_length_b       5.13004
_cell_length_c       5.13005
_cell_angle_alpha    51.1743
_cell_angle_beta     51.1742
_cell_angle_gamma    51.1743

_symmetry_Int_Tables_number  160
_chemical_formula_structural  H6CNF
_chemical_formula_sum  H6CNF
_cell_volume  75.61275303179933
_cell_formula_units_Z  1
loop_
  _symmetry_equiv_pos_site_id
 _symmetry_equiv_pos_as_xyz
 1  'x, y, z'
loop_
 _atom_site_type_symbol
 _atom_site_label
 _atom_site_symmetry_multiplicity
 _atom_site_fract_x
 _atom_site_fract_y
 _atom_site_fract_z
 _atom_site_fract_occupancy
 C  C1  1  0.49396  0.49396  0.49396  1
 F  F1  1  0.99165  0.99165  0.99165  1
 H  H1  1  0.22581  0.61519  0.22581  1
 H  H2  1  0.61519  0.22581  0.22581  1
 H  H3  1  0.65663  0.65663  0.25324  1
 H  H4  1  0.22581  0.22581  0.61519  1
 H  H5  1  0.25324  0.65663  0.65663  1
 H  H6  1  0.65663  0.25324  0.65663  1
 N  N1  1  0.38253  0.38253  0.38253  1
