CIF file written using JARVIS-Tools package.
data_MgMnSi2O6
_symmetry_space_group_name_H-M  'C2/c'
_cell_length_a       5.38266
_cell_length_b       6.78587
_cell_length_c       6.78587
_cell_angle_alpha    86.2718
_cell_angle_beta     75.7304
_cell_angle_gamma    75.7304

_symmetry_Int_Tables_number  15
_chemical_formula_structural  MgMnSi2O6
_chemical_formula_sum  Mg2Mn2Si4O2
_cell_volume  232.79960416839933
_cell_formula_units_Z  2
loop_
  _symmetry_equiv_pos_site_id
 _symmetry_equiv_pos_as_xyz
 1  'x, y, z'
loop_
 _atom_site_type_symbol
 _atom_site_label
 _atom_site_symmetry_multiplicity
 _atom_site_fract_x
 _atom_site_fract_y
 _atom_site_fract_z
 _atom_site_fract_occupancy
 Mg  Mg1  1  0.75000  0.24004  0.75996  1
 Mg  Mg2  1  0.25000  0.75996  0.24004  1
 Mn  Mn1  1  0.25000  0.10575  0.89425  1
 Mn  Mn2  1  0.75000  0.89425  0.10575  1
 O  O1  1  0.47356  0.32720  0.37790  1
 O  O2  1  0.34130  0.03139  0.21678  1
 O  O3  1  0.52644  0.67280  0.62210  1
 O  O4  1  0.97356  0.37790  0.32720  1
 O  O5  1  0.02644  0.62210  0.67280  1
 O  O6  1  0.37660  0.38210  0.85820  1
 O  O7  1  0.87660  0.85820  0.38211  1
 O  O8  1  0.84130  0.21678  0.03139  1
 O  O9  1  0.12340  0.14180  0.61789  1
 O  O10  1  0.65870  0.96861  0.78322  1
 O  O11  1  0.62340  0.61789  0.14180  1
 O  O12  1  0.15870  0.78322  0.96861  1
 Si  Si1  1  0.76912  0.78620  0.61317  1
 Si  Si2  1  0.73088  0.38683  0.21380  1
 Si  Si3  1  0.26912  0.61317  0.78620  1
 Si  Si4  1  0.23088  0.21380  0.38683  1
