CIF file written using JARVIS-Tools package.
data_MgCoSi2O6
_symmetry_space_group_name_H-M  'C2/c'
_cell_length_a       4.96844
_cell_length_b       6.4997
_cell_length_c       6.49969
_cell_angle_alpha    85.8154
_cell_angle_beta     81.7044
_cell_angle_gamma    81.7045

_symmetry_Int_Tables_number  15
_chemical_formula_structural  MgCoSi2O6
_chemical_formula_sum  Mg2Co2Si4O2
_cell_volume  205.2360951065289
_cell_formula_units_Z  2
loop_
  _symmetry_equiv_pos_site_id
 _symmetry_equiv_pos_as_xyz
 1  'x, y, z'
loop_
 _atom_site_type_symbol
 _atom_site_label
 _atom_site_symmetry_multiplicity
 _atom_site_fract_x
 _atom_site_fract_y
 _atom_site_fract_z
 _atom_site_fract_occupancy
 Co  Co1  1  0.25000  0.08517  0.91483  1
 Co  Co2  1  0.75000  0.91484  0.08517  1
 Mg  Mg1  1  0.75000  0.27161  0.72839  1
 Mg  Mg2  1  0.25000  0.72839  0.27161  1
 O  O1  1  0.58935  0.29543  0.41495  1
 O  O2  1  0.35758  0.02900  0.22239  1
 O  O3  1  0.41065  0.70457  0.58505  1
 O  O4  1  0.08935  0.41496  0.29543  1
 O  O5  1  -0.08935  0.58504  0.70457  1
 O  O6  1  0.36866  0.38305  0.85508  1
 O  O7  1  0.86866  0.85508  0.38305  1
 O  O8  1  0.85758  0.22239  0.02900  1
 O  O9  1  0.13134  0.14492  0.61695  1
 O  O10  1  0.64242  0.97100  0.77761  1
 O  O11  1  0.63134  0.61695  0.14492  1
 O  O12  1  0.14242  0.77761  0.97100  1
 Si  Si1  1  0.70978  0.79130  0.60590  1
 Si  Si2  1  0.79022  0.39410  0.20870  1
 Si  Si3  1  0.20978  0.60590  0.79130  1
 Si  Si4  1  0.29022  0.20870  0.39410  1
