CIF file written using JARVIS-Tools package.
data_CaBi2O4
_symmetry_space_group_name_H-M  'C2/m'
_cell_length_a       3.53696
_cell_length_b       7.11892
_cell_length_c       10.3347
_cell_angle_alpha    97.1355
_cell_angle_beta     99.8535
_cell_angle_gamma    104.384

_symmetry_Int_Tables_number  12
_chemical_formula_structural  CaBi2O4
_chemical_formula_sum  Ca2Bi4O8
_cell_volume  244.52663925739085
_cell_formula_units_Z  2
loop_
  _symmetry_equiv_pos_site_id
 _symmetry_equiv_pos_as_xyz
 1  'x, y, z'
loop_
 _atom_site_type_symbol
 _atom_site_label
 _atom_site_symmetry_multiplicity
 _atom_site_fract_x
 _atom_site_fract_y
 _atom_site_fract_z
 _atom_site_fract_occupancy
 Bi  Bi1  1  0.70231  0.30991  0.08673  1
 Bi  Bi2  1  0.70215  0.80983  0.58664  1
 Bi  Bi3  1  0.27828  0.15710  0.39147  1
 Bi  Bi4  1  0.27813  0.65702  0.89139  1
 Ca  Ca1  1  0.49027  0.73352  0.23902  1
 Ca  Ca2  1  0.49018  0.23342  0.73909  1
 O  O1  1  0.66814  0.57339  0.75503  1
 O  O2  1  0.66828  0.07353  0.25509  1
 O  O3  1  0.31216  0.89342  0.72302  1
 O  O4  1  0.31231  0.39355  0.22309  1
 O  O5  1  0.12060  0.33722  0.89609  1
 O  O6  1  0.12066  0.83728  0.39607  1
 O  O7  1  0.85985  0.62972  0.08203  1
 O  O8  1  0.85979  0.12965  0.58204  1
