CIF file written using JARVIS-Tools package.
data_TmCrO4
_symmetry_space_group_name_H-M  'I4_1/amd'
_cell_length_a       5.87453
_cell_length_b       5.87453
_cell_length_c       5.87453
_cell_angle_alpha    106.277
_cell_angle_beta     106.277
_cell_angle_gamma    116.067

_symmetry_Int_Tables_number  141
_chemical_formula_structural  TmCrO4
_chemical_formula_sum  Tm2Cr2O8
_cell_volume  154.4935176468503
_cell_formula_units_Z  2
loop_
  _symmetry_equiv_pos_site_id
 _symmetry_equiv_pos_as_xyz
 1  'x, y, z'
loop_
 _atom_site_type_symbol
 _atom_site_label
 _atom_site_symmetry_multiplicity
 _atom_site_fract_x
 _atom_site_fract_y
 _atom_site_fract_z
 _atom_site_fract_occupancy
 Cr  Cr1  1  0.37500  0.62500  0.75000  1
 Cr  Cr2  1  0.62500  0.37500  0.25000  1
 O  O1  1  0.80179  0.73728  0.43549  1
 O  O2  1  0.36630  0.80179  0.56451  1
 O  O3  1  0.73728  0.80179  0.93549  1
 O  O4  1  0.80179  0.36630  0.06451  1
 O  O5  1  0.63370  0.19821  0.43549  1
 O  O6  1  0.19821  0.26272  0.56451  1
 O  O7  1  0.19821  0.63370  0.93549  1
 O  O8  1  0.26272  0.19821  0.06451  1
 Tm  Tm1  1  0.12500  0.87500  0.25000  1
 Tm  Tm2  1  0.87500  0.12500  0.75000  1
