CIF file written using JARVIS-Tools package.
data_Li3BiO3
_symmetry_space_group_name_H-M  'I-43m'
_cell_length_a       7.68715
_cell_length_b       7.68715
_cell_length_c       7.68715
_cell_angle_alpha    109.471
_cell_angle_beta     109.471
_cell_angle_gamma    109.471

_symmetry_Int_Tables_number  217
_chemical_formula_structural  Li3BiO3
_chemical_formula_sum  Li2Bi4O2
_cell_volume  349.6833857029082
_cell_formula_units_Z  4
loop_
  _symmetry_equiv_pos_site_id
 _symmetry_equiv_pos_as_xyz
 1  'x, y, z'
loop_
 _atom_site_type_symbol
 _atom_site_label
 _atom_site_symmetry_multiplicity
 _atom_site_fract_x
 _atom_site_fract_y
 _atom_site_fract_z
 _atom_site_fract_occupancy
 Bi  Bi1  1  -0.00000  -0.00000  0.28157  1
 Bi  Bi2  1  0.28157  0.00000  0.00000  1
 Bi  Bi3  1  0.00000  0.28157  -0.00000  1
 Bi  Bi4  1  0.71843  0.71843  0.71843  1
 Li  Li1  1  -0.00000  0.46246  0.70629  1
 Li  Li2  1  0.00000  0.70629  0.46246  1
 Li  Li3  1  0.24383  0.53754  0.53754  1
 Li  Li4  1  0.29371  0.75617  0.29371  1
 Li  Li5  1  0.70629  0.46246  0.00000  1
 Li  Li6  1  0.46246  -0.00000  0.70629  1
 Li  Li7  1  0.46246  0.70629  -0.00000  1
 Li  Li8  1  0.53754  0.24383  0.53754  1
 Li  Li9  1  0.53754  0.53754  0.24383  1
 Li  Li10  1  0.75617  0.29371  0.29371  1
 Li  Li11  1  0.70629  0.00000  0.46246  1
 Li  Li12  1  0.29371  0.29371  0.75617  1
 O  O1  1  0.49662  0.74253  0.49662  1
 O  O2  1  0.00000  0.24591  0.50338  1
 O  O3  1  0.00000  0.50338  0.24591  1
 O  O4  1  0.74253  0.49662  0.49662  1
 O  O5  1  0.24591  0.00000  0.50338  1
 O  O6  1  0.75409  0.25747  0.75409  1
 O  O7  1  0.75409  0.75409  0.25747  1
 O  O8  1  0.50338  0.00000  0.24591  1
 O  O9  1  0.50338  0.24591  0.00000  1
 O  O10  1  0.49662  0.49662  0.74253  1
 O  O11  1  0.24591  0.50338  0.00000  1
 O  O12  1  0.25747  0.75409  0.75409  1
