CIF file written using JARVIS-Tools package.
data_FeP4
_symmetry_space_group_name_H-M  'C2/c'
_cell_length_a       5.0945
_cell_length_b       5.81818
_cell_length_c       11.157
_cell_angle_alpha    89.4725
_cell_angle_beta     88.795
_cell_angle_gamma    64.0358

_symmetry_Int_Tables_number  15
_chemical_formula_structural  FeP4
_chemical_formula_sum  Fe4P6
_cell_volume  297.25848618945844
_cell_formula_units_Z  4
loop_
  _symmetry_equiv_pos_site_id
 _symmetry_equiv_pos_as_xyz
 1  'x, y, z'
loop_
 _atom_site_type_symbol
 _atom_site_label
 _atom_site_symmetry_multiplicity
 _atom_site_fract_x
 _atom_site_fract_y
 _atom_site_fract_z
 _atom_site_fract_occupancy
 Fe  Fe1  1  0.92360  0.15279  0.75000  1
 Fe  Fe2  1  0.07640  0.84721  0.25000  1
 Fe  Fe3  1  0.00000  0.50000  0.50000  1
 Fe  Fe4  1  0.50000  0.50000  -0.00000  1
 P  P1  1  0.45673  0.20713  0.47600  1
 P  P2  1  0.66386  0.79287  0.97600  1
 P  P3  1  0.13309  0.81300  0.45009  1
 P  P4  1  0.05391  0.81300  0.04991  1
 P  P5  1  0.54327  0.79287  0.52400  1
 P  P6  1  0.06690  0.46443  0.70695  1
 P  P7  1  0.62925  0.14344  0.28377  1
 P  P8  1  0.46867  0.46443  0.79305  1
 P  P9  1  0.77269  0.85656  0.78377  1
 P  P10  1  0.37075  0.85656  0.71623  1
 P  P11  1  0.33614  0.20713  0.02400  1
 P  P12  1  0.22731  0.14344  0.21623  1
 P  P13  1  0.93310  0.53557  0.29305  1
 P  P14  1  0.86691  0.18700  0.54991  1
 P  P15  1  0.94609  0.18700  0.95009  1
 P  P16  1  0.53133  0.53557  0.20695  1
