CIF file written using JARVIS-Tools package.
data_Cd2SnO4
_symmetry_space_group_name_H-M  'Imma'
_cell_length_a       6.63175
_cell_length_b       6.63175
_cell_length_c       6.48357
_cell_angle_alpha    60.7365
_cell_angle_beta     60.7365
_cell_angle_gamma    59.1184

_symmetry_Int_Tables_number  74
_chemical_formula_structural  Cd2SnO4
_chemical_formula_sum  Cd4Sn2O8
_cell_volume  202.42454415421952
_cell_formula_units_Z  2
loop_
  _symmetry_equiv_pos_site_id
 _symmetry_equiv_pos_as_xyz
 1  'x, y, z'
loop_
 _atom_site_type_symbol
 _atom_site_label
 _atom_site_symmetry_multiplicity
 _atom_site_fract_x
 _atom_site_fract_y
 _atom_site_fract_z
 _atom_site_fract_occupancy
 Cd  Cd1  1  0.11104  0.11104  0.13896  1
 Cd  Cd2  1  0.50000  0.50000  0.00000  1
 Cd  Cd3  1  0.50000  0.50000  0.50000  1
 Cd  Cd4  1  0.88896  0.88896  0.86104  1
 O  O1  1  0.25032  0.25032  0.28223  1
 O  O2  1  0.25032  0.25032  0.71714  1
 O  O3  1  0.22618  0.70520  0.28431  1
 O  O4  1  0.70520  0.22618  0.28431  1
 O  O5  1  0.29480  0.77382  0.71569  1
 O  O6  1  0.77382  0.29480  0.71569  1
 O  O7  1  0.74968  0.74968  0.28286  1
 O  O8  1  0.74968  0.74968  0.71777  1
 Sn  Sn1  1  0.50000  -0.00000  0.50000  1
 Sn  Sn2  1  0.00000  0.50000  0.50000  1
