CIF file written using JARVIS-Tools package.
data_SrH12Cl2O6
_symmetry_space_group_name_H-M  'P321'
_cell_length_a       7.93561
_cell_length_b       7.93561
_cell_length_c       4.05311
_cell_angle_alpha    90
_cell_angle_beta     90
_cell_angle_gamma    120

_symmetry_Int_Tables_number  150
_chemical_formula_structural  SrH12Cl2O6
_chemical_formula_sum  SrH2Cl2O6
_cell_volume  221.04409721812058
_cell_formula_units_Z  1
loop_
  _symmetry_equiv_pos_site_id
 _symmetry_equiv_pos_as_xyz
 1  'x, y, z'
loop_
 _atom_site_type_symbol
 _atom_site_label
 _atom_site_symmetry_multiplicity
 _atom_site_fract_x
 _atom_site_fract_y
 _atom_site_fract_z
 _atom_site_fract_occupancy
 Cl  Cl1  1  0.66667  0.33333  0.42126  1
 Cl  Cl2  1  0.33333  0.66667  0.57874  1
 H  H1  1  0.35734  0.11422  0.51780  1
 H  H2  1  0.55112  0.90085  0.89818  1
 H  H3  1  0.09915  0.65027  0.89818  1
 H  H4  1  0.44888  0.34973  0.10182  1
 H  H5  1  0.65027  0.09915  0.10182  1
 H  H6  1  0.90085  0.55112  0.10182  1
 H  H7  1  0.34973  0.44888  0.89818  1
 H  H8  1  0.11422  0.35734  0.48220  1
 H  H9  1  0.24312  0.88578  0.48220  1
 H  H10  1  0.75688  0.64266  0.51780  1
 H  H11  1  0.88578  0.24312  0.51780  1
 H  H12  1  0.64266  0.75688  0.48220  1
 O  O1  1  0.77541  0.77541  0.50000  1
 O  O2  1  0.00000  0.22459  0.50000  1
 O  O3  1  0.32594  0.32594  0.00000  1
 O  O4  1  0.00000  0.67406  0.00000  1
 O  O5  1  0.67406  0.00000  0.00000  1
 O  O6  1  0.22459  0.00000  0.50000  1
 Sr  Sr1  1  0.00000  0.00000  0.00000  1
