CIF file written using JARVIS-Tools package.
data_GaH3NF3
_symmetry_space_group_name_H-M  'Aem2'
_cell_length_a       5.52238
_cell_length_b       5.54948
_cell_length_c       5.54948
_cell_angle_alpha    59.6946
_cell_angle_beta     90
_cell_angle_gamma    90

_symmetry_Int_Tables_number  39
_chemical_formula_structural  GaH3NF3
_chemical_formula_sum  Ga2H6N2F6
_cell_volume  146.83032508430824
_cell_formula_units_Z  2
loop_
  _symmetry_equiv_pos_site_id
 _symmetry_equiv_pos_as_xyz
 1  'x, y, z'
loop_
 _atom_site_type_symbol
 _atom_site_label
 _atom_site_symmetry_multiplicity
 _atom_site_fract_x
 _atom_site_fract_y
 _atom_site_fract_z
 _atom_site_fract_occupancy
 F  F1  1  0.50000  0.90620  0.90620  1
 F  F2  1  0.50000  0.40620  0.40620  1
 F  F3  1  0.00000  0.86915  0.86915  1
 F  F4  1  0.00000  0.36915  0.36915  1
 F  F5  1  0.28848  0.44767  0.94767  1
 F  F6  1  0.71152  0.94767  0.44767  1
 Ga  Ga1  1  0.25114  0.64155  0.14155  1
 Ga  Ga2  1  0.74886  0.14155  0.64155  1
 H  H1  1  0.02447  0.87313  0.37313  1
 H  H2  1  0.97553  0.37313  0.87313  1
 H  H3  1  0.28409  0.04081  0.23742  1
 H  H4  1  0.71591  0.23742  0.04081  1
 H  H5  1  0.71591  0.54081  0.73742  1
 H  H6  1  0.28409  0.73742  0.54081  1
 N  N1  1  0.20571  0.84568  0.34568  1
 N  N2  1  0.79429  0.34568  0.84568  1
