CIF file written using JARVIS-Tools package.
data_Ba3BPO3
_symmetry_space_group_name_H-M  'P6_3/mmc'
_cell_length_a       5.55752
_cell_length_b       5.55752
_cell_length_c       13.5439
_cell_angle_alpha    90
_cell_angle_beta     90
_cell_angle_gamma    120

_symmetry_Int_Tables_number  194
_chemical_formula_structural  Ba3BPO3
_chemical_formula_sum  Ba6B2P2O6
_cell_volume  362.2726314111622
_cell_formula_units_Z  2
loop_
  _symmetry_equiv_pos_site_id
 _symmetry_equiv_pos_as_xyz
 1  'x, y, z'
loop_
 _atom_site_type_symbol
 _atom_site_label
 _atom_site_symmetry_multiplicity
 _atom_site_fract_x
 _atom_site_fract_y
 _atom_site_fract_z
 _atom_site_fract_occupancy
 B  B1  1  0.66667  0.33333  0.75000  1
 B  B2  1  0.33333  0.66667  0.25000  1
 Ba  Ba1  1  0.33333  0.66667  0.59732  1
 Ba  Ba2  1  0.00000  0.00000  0.75000  1
 Ba  Ba3  1  0.00000  0.00000  0.25000  1
 Ba  Ba4  1  0.66667  0.33333  0.09732  1
 Ba  Ba5  1  0.66667  0.33333  0.40268  1
 Ba  Ba6  1  0.33333  0.66667  0.90268  1
 O  O1  1  0.47827  0.52173  0.25000  1
 O  O2  1  0.52173  0.04346  0.75000  1
 O  O3  1  0.52173  0.47827  0.75000  1
 O  O4  1  0.04346  0.52173  0.25000  1
 O  O5  1  0.47827  0.95654  0.25000  1
 O  O6  1  0.95654  0.47827  0.75000  1
 P  P1  1  0.00000  0.00000  0.00000  1
 P  P2  1  0.00000  0.00000  0.50000  1
