CIF file written using JARVIS-Tools package.
data_Ce3Y4O12
_symmetry_space_group_name_H-M  'Cm'
_cell_length_a       3.74274
_cell_length_b       13.859
_cell_length_c       5.47665
_cell_angle_alpha    101.37
_cell_angle_beta     90
_cell_angle_gamma    82.2397

_symmetry_Int_Tables_number  8
_chemical_formula_structural  Ce3Y4O12
_chemical_formula_sum  Ce3Y4O2
_cell_volume  275.8473174297314
_cell_formula_units_Z  1
loop_
  _symmetry_equiv_pos_site_id
 _symmetry_equiv_pos_as_xyz
 1  'x, y, z'
loop_
 _atom_site_type_symbol
 _atom_site_label
 _atom_site_symmetry_multiplicity
 _atom_site_fract_x
 _atom_site_fract_y
 _atom_site_fract_z
 _atom_site_fract_occupancy
 Ce  Ce1  1  0.85683  0.28634  0.15088  1
 Ce  Ce2  1  0.28012  0.43975  0.72070  1
 Ce  Ce3  1  0.42551  0.14898  0.57416  1
 O  O1  1  0.20213  0.59574  0.03240  1
 O  O2  1  0.08536  0.82929  0.16011  1
 O  O3  1  0.35972  0.28057  0.89655  1
 O  O4  1  0.35701  0.28598  0.40075  1
 O  O5  1  0.92686  0.14628  0.33415  1
 O  O6  1  0.78722  0.42557  0.46329  1
 O  O7  1  0.05500  0.89001  0.68394  1
 O  O8  1  0.21676  0.56648  0.52498  1
 O  O9  1  0.64066  0.71869  0.58407  1
 O  O10  1  0.78479  0.43042  0.96777  1
 O  O11  1  0.50161  0.99678  0.26916  1
 O  O12  1  0.94081  0.11839  0.81693  1
 Y  Y1  1  0.14220  0.71560  0.79849  1
 Y  Y2  1  0.71774  0.56451  0.28794  1
 Y  Y3  1  0.57255  0.85490  0.42458  1
 Y  Y4  1  0.00428  0.99143  0.05199  1
