CIF file written using JARVIS-Tools package.
data_Lu2TiO5
_symmetry_space_group_name_H-M  'Cmcm'
_cell_length_a       4.00807
_cell_length_b       10.3235
_cell_length_c       5.73313
_cell_angle_alpha    90
_cell_angle_beta     110.452
_cell_angle_gamma    90

_symmetry_Int_Tables_number  63
_chemical_formula_structural  Lu2TiO5
_chemical_formula_sum  Lu4Ti2O0
_cell_volume  222.26811949641774
_cell_formula_units_Z  2
loop_
  _symmetry_equiv_pos_site_id
 _symmetry_equiv_pos_as_xyz
 1  'x, y, z'
loop_
 _atom_site_type_symbol
 _atom_site_label
 _atom_site_symmetry_multiplicity
 _atom_site_fract_x
 _atom_site_fract_y
 _atom_site_fract_z
 _atom_site_fract_occupancy
 Lu  Lu1  1  0.85683  0.06864  0.71375  1
 Lu  Lu2  1  0.85683  0.43136  0.71375  1
 Lu  Lu3  1  0.14317  0.93136  0.28625  1
 Lu  Lu4  1  0.14317  0.56864  0.28625  1
 O  O1  1  0.94998  0.62213  0.90010  1
 O  O2  1  0.94998  0.87787  0.90010  1
 O  O3  1  0.29308  0.08833  0.58621  1
 O  O4  1  0.29308  0.41167  0.58621  1
 O  O5  1  0.72930  0.25000  0.45857  1
 O  O6  1  0.27070  0.75000  0.54143  1
 O  O7  1  0.70692  0.91167  0.41379  1
 O  O8  1  0.70692  0.58833  0.41379  1
 O  O9  1  0.05002  0.37787  0.09990  1
 O  O10  1  0.05002  0.12213  0.09990  1
 Ti  Ti1  1  0.82666  0.75000  0.65336  1
 Ti  Ti2  1  0.17334  0.25000  0.34664  1
