CIF file written using JARVIS-Tools package.
data_SbO2
_symmetry_space_group_name_H-M  'Imma'
_cell_length_a       6.05905
_cell_length_b       6.05906
_cell_length_c       6.53432
_cell_angle_alpha    57.3696
_cell_angle_beta     57.3695
_cell_angle_gamma    73.6999

_symmetry_Int_Tables_number  74
_chemical_formula_structural  SbO2
_chemical_formula_sum  Sb4O8
_cell_volume  170.12208786932757
_cell_formula_units_Z  4
loop_
  _symmetry_equiv_pos_site_id
 _symmetry_equiv_pos_as_xyz
 1  'x, y, z'
loop_
 _atom_site_type_symbol
 _atom_site_label
 _atom_site_symmetry_multiplicity
 _atom_site_fract_x
 _atom_site_fract_y
 _atom_site_fract_z
 _atom_site_fract_occupancy
 O  O1  1  0.34780  0.34780  0.38913  1
 O  O2  1  0.44239  0.80003  0.37879  1
 O  O3  1  0.34780  0.34780  0.91527  1
 O  O4  1  0.80003  0.44239  0.37879  1
 O  O5  1  0.44997  0.80761  0.87121  1
 O  O6  1  0.80761  0.44997  0.87121  1
 O  O7  1  0.90220  0.90220  0.33473  1
 O  O8  1  0.90220  0.90220  0.86087  1
 Sb  Sb1  1  0.09656  0.09656  0.90344  1
 Sb  Sb2  1  0.15344  0.15344  0.34656  1
 Sb  Sb3  1  0.62500  0.62500  0.12500  1
 Sb  Sb4  1  0.62500  0.62500  0.62500  1
