CIF file written using JARVIS-Tools package.
data_LiGaO2
_symmetry_space_group_name_H-M  'Pna2_1'
_cell_length_a       5.05504
_cell_length_b       5.43771
_cell_length_c       6.37724
_cell_angle_alpha    90
_cell_angle_beta     90
_cell_angle_gamma    90

_symmetry_Int_Tables_number  33
_chemical_formula_structural  LiGaO2
_chemical_formula_sum  Li4Ga4O8
_cell_volume  175.2964929594941
_cell_formula_units_Z  4
loop_
  _symmetry_equiv_pos_site_id
 _symmetry_equiv_pos_as_xyz
 1  'x, y, z'
loop_
 _atom_site_type_symbol
 _atom_site_label
 _atom_site_symmetry_multiplicity
 _atom_site_fract_x
 _atom_site_fract_y
 _atom_site_fract_z
 _atom_site_fract_occupancy
 Ga  Ga1  1  0.00444  0.58395  0.37409  1
 Ga  Ga2  1  0.50444  0.41605  0.62591  1
 Ga  Ga3  1  0.50444  0.91605  0.87409  1
 Ga  Ga4  1  0.00444  0.08395  0.12591  1
 Li  Li1  1  0.00079  0.58197  0.87549  1
 Li  Li2  1  0.50079  0.91803  0.37549  1
 Li  Li3  1  0.00079  0.08197  0.62451  1
 Li  Li4  1  0.50079  0.41803  0.12451  1
 O  O1  1  0.37579  0.07200  0.11521  1
 O  O2  1  0.37579  0.57200  0.38479  1
 O  O3  1  0.87579  0.92800  0.88479  1
 O  O4  1  0.87579  0.42800  0.61521  1
 O  O5  1  0.89218  0.41098  0.13516  1
 O  O6  1  0.39218  0.58902  0.86484  1
 O  O7  1  0.39218  0.08902  0.63516  1
 O  O8  1  0.89218  0.91098  0.36484  1
