CIF file written using JARVIS-Tools package.
data_AgO
_symmetry_space_group_name_H-M  'I4_1/a'
_cell_length_a       6.74344
_cell_length_b       6.74163
_cell_length_c       6.74181
_cell_angle_alpha    91.5495
_cell_angle_beta     119.104
_cell_angle_gamma    119.1

_symmetry_Int_Tables_number  88
_chemical_formula_structural  AgO
_chemical_formula_sum  Ag8O8
_cell_volume  219.60202866363457
_cell_formula_units_Z  8
loop_
  _symmetry_equiv_pos_site_id
 _symmetry_equiv_pos_as_xyz
 1  'x, y, z'
loop_
 _atom_site_type_symbol
 _atom_site_label
 _atom_site_symmetry_multiplicity
 _atom_site_fract_x
 _atom_site_fract_y
 _atom_site_fract_z
 _atom_site_fract_occupancy
 Ag  Ag1  1  0.50000  0.00000  0.50000  1
 Ag  Ag2  1  0.50000  0.00000  -0.00000  1
 Ag  Ag3  1  -0.00000  0.00000  0.50000  1
 Ag  Ag4  1  0.00000  0.50000  0.50000  1
 Ag  Ag5  1  0.50000  0.50000  -0.00000  1
 Ag  Ag6  1  0.50000  0.50000  0.50000  1
 Ag  Ag7  1  -0.00000  0.50000  0.00000  1
 Ag  Ag8  1  0.00000  0.00000  0.00000  1
 O  O1  1  0.58982  0.29653  0.87398  1
 O  O2  1  0.57753  0.37389  0.28430  1
 O  O3  1  0.92247  0.20676  0.79635  1
 O  O4  1  0.91022  0.78415  0.70674  1
 O  O5  1  0.41018  0.70347  0.12602  1
 O  O6  1  0.42247  0.62611  0.71570  1
 O  O7  1  0.07753  0.79324  0.20365  1
 O  O8  1  0.08978  0.21585  0.29326  1
