CIF file written using JARVIS-Tools package.
data_CaCr4O8
_symmetry_space_group_name_H-M  'R-3m'
_cell_length_a       6.47104
_cell_length_b       6.47104
_cell_length_c       6.47103
_cell_angle_alpha    53.0276
_cell_angle_beta     53.0276
_cell_angle_gamma    53.0276

_symmetry_Int_Tables_number  166
_chemical_formula_structural  CaCr4O8
_chemical_formula_sum  CaCr4O8
_cell_volume  160.29463069970302
_cell_formula_units_Z  1
loop_
  _symmetry_equiv_pos_site_id
 _symmetry_equiv_pos_as_xyz
 1  'x, y, z'
loop_
 _atom_site_type_symbol
 _atom_site_label
 _atom_site_symmetry_multiplicity
 _atom_site_fract_x
 _atom_site_fract_y
 _atom_site_fract_z
 _atom_site_fract_occupancy
 Ca  Ca1  1  0.50000  0.50000  0.50000  1
 Cr  Cr1  1  0.50000  1.00000  0.50000  1
 Cr  Cr2  1  1.00000  0.50000  0.50000  1
 Cr  Cr3  1  0.50000  0.50000  0.00000  1
 Cr  Cr4  1  0.00000  0.00000  0.00000  1
 O  O1  1  0.76763  0.27660  0.76763  1
 O  O2  1  0.23237  0.23237  0.72340  1
 O  O3  1  0.23237  0.72340  0.23237  1
 O  O4  1  0.72339  0.23237  0.23237  1
 O  O5  1  0.27514  0.27514  0.27514  1
 O  O6  1  0.72486  0.72486  0.72486  1
 O  O7  1  0.27661  0.76763  0.76763  1
 O  O8  1  0.76763  0.76763  0.27660  1
