CIF file written using JARVIS-Tools package.
data_YMoO3
_symmetry_space_group_name_H-M  'P6_3cm'
_cell_length_a       6.06378
_cell_length_b       6.06378
_cell_length_c       12.4487
_cell_angle_alpha    90
_cell_angle_beta     90
_cell_angle_gamma    120

_symmetry_Int_Tables_number  185
_chemical_formula_structural  YMoO3
_chemical_formula_sum  Y6Mo6O8
_cell_volume  396.4073831639348
_cell_formula_units_Z  6
loop_
  _symmetry_equiv_pos_site_id
 _symmetry_equiv_pos_as_xyz
 1  'x, y, z'
loop_
 _atom_site_type_symbol
 _atom_site_label
 _atom_site_symmetry_multiplicity
 _atom_site_fract_x
 _atom_site_fract_y
 _atom_site_fract_z
 _atom_site_fract_occupancy
 Mo  Mo1  1  -0.00000  0.33311  0.49934  1
 Mo  Mo2  1  0.00000  0.66689  0.99934  1
 Mo  Mo3  1  0.66689  0.66689  0.49934  1
 Mo  Mo4  1  0.33311  0.33311  0.99934  1
 Mo  Mo5  1  0.33311  -0.00000  0.49934  1
 Mo  Mo6  1  0.66689  0.00000  0.99934  1
 O  O1  1  0.66667  0.33333  0.47249  1
 O  O2  1  0.36359  0.36359  0.16542  1
 O  O3  1  0.00000  0.00000  0.53069  1
 O  O4  1  -0.00000  0.30236  0.33229  1
 O  O5  1  0.00000  0.00000  0.03069  1
 O  O6  1  0.33333  0.66667  0.97249  1
 O  O7  1  0.69764  0.00000  0.83229  1
 O  O8  1  0.33333  0.66667  0.47249  1
 O  O9  1  0.66667  0.33333  0.97249  1
 O  O10  1  0.00000  0.36359  0.66542  1
 O  O11  1  0.63641  -0.00000  0.16542  1
 O  O12  1  0.69764  0.69764  0.33229  1
 O  O13  1  0.30236  0.30236  0.83229  1
 O  O14  1  0.30236  -0.00000  0.33229  1
 O  O15  1  0.36359  0.00000  0.66542  1
 O  O16  1  0.00000  0.69764  0.83229  1
 O  O17  1  -0.00000  0.63641  0.16542  1
 O  O18  1  0.63641  0.63641  0.66542  1
 Y  Y1  1  0.00000  0.00000  0.72363  1
 Y  Y2  1  0.00000  0.00000  0.22363  1
 Y  Y3  1  0.33333  0.66667  0.76728  1
 Y  Y4  1  0.66667  0.33333  0.26728  1
 Y  Y5  1  0.33333  0.66667  0.26728  1
 Y  Y6  1  0.66667  0.33333  0.76728  1
