CIF file written using JARVIS-Tools package.
data_KVS2O8
_symmetry_space_group_name_H-M  'R-3'
_cell_length_a       4.82509
_cell_length_b       4.82504
_cell_length_c       8.16064
_cell_angle_alpha    89.9995
_cell_angle_beta     107.196
_cell_angle_gamma    120

_symmetry_Int_Tables_number  148
_chemical_formula_structural  KVS2O8
_chemical_formula_sum  KVS2O8
_cell_volume  154.65164624031945
_cell_formula_units_Z  1
loop_
  _symmetry_equiv_pos_site_id
 _symmetry_equiv_pos_as_xyz
 1  'x, y, z'
loop_
 _atom_site_type_symbol
 _atom_site_label
 _atom_site_symmetry_multiplicity
 _atom_site_fract_x
 _atom_site_fract_y
 _atom_site_fract_z
 _atom_site_fract_occupancy
 K  K1  1  0.00001  0.00001  0.00001  1
 O  O1  1  0.16047  0.24692  0.65492  1
 O  O2  1  0.59200  0.08647  0.34507  1
 O  O3  1  0.74139  0.49445  0.65492  1
 O  O4  1  0.83952  0.75308  0.34508  1
 O  O5  1  0.39313  0.69657  0.08970  1
 O  O6  1  0.25861  0.50555  0.34508  1
 O  O7  1  0.40800  0.91353  0.65493  1
 O  O8  1  0.60688  0.30343  0.91030  1
 S  S1  1  0.51918  0.75960  0.27877  1
 S  S2  1  0.48082  0.24040  0.72123  1
 V  V1  1  0.00000  0.50000  0.50000  1
