CIF file written using JARVIS-Tools package.
data_BaBe2N2
_symmetry_space_group_name_H-M  'I4/mcm'
_cell_length_a       5.68283
_cell_length_b       5.68283
_cell_length_c       5.83745
_cell_angle_alpha    119.128
_cell_angle_beta     119.128
_cell_angle_gamma    90

_symmetry_Int_Tables_number  140
_chemical_formula_structural  BaBe2N2
_chemical_formula_sum  Ba2Be4N4
_cell_volume  136.74211285325555
_cell_formula_units_Z  2
loop_
  _symmetry_equiv_pos_site_id
 _symmetry_equiv_pos_as_xyz
 1  'x, y, z'
loop_
 _atom_site_type_symbol
 _atom_site_label
 _atom_site_symmetry_multiplicity
 _atom_site_fract_x
 _atom_site_fract_y
 _atom_site_fract_z
 _atom_site_fract_occupancy
 Ba  Ba1  1  0.75000  0.75000  0.50000  1
 Ba  Ba2  1  0.25000  0.25000  0.50000  1
 Be  Be1  1  0.62851  0.12851  -0.00000  1
 Be  Be2  1  0.87149  0.62851  -0.00000  1
 Be  Be3  1  0.12851  0.37149  0.00000  1
 Be  Be4  1  0.37149  0.87149  0.00000  1
 N  N1  1  0.33388  0.16612  0.00000  1
 N  N2  1  0.16612  0.66612  0.00000  1
 N  N3  1  0.66612  0.83388  -0.00000  1
 N  N4  1  0.83388  0.33388  -0.00000  1
