CIF file written using JARVIS-Tools package.
data_ZrHgAu2
_symmetry_space_group_name_H-M  'Immm'
_cell_length_a       11.4803
_cell_length_b       6.46733
_cell_length_c       6.46733
_cell_angle_alpha    47.489
_cell_angle_beta     27.4313
_cell_angle_gamma    27.4313

_symmetry_Int_Tables_number  71
_chemical_formula_structural  ZrHgAu2
_chemical_formula_sum  ZrHgAu2
_cell_volume  86.5516297652905
_cell_formula_units_Z  1
loop_
  _symmetry_equiv_pos_site_id
 _symmetry_equiv_pos_as_xyz
 1  'x, y, z'
loop_
 _atom_site_type_symbol
 _atom_site_label
 _atom_site_symmetry_multiplicity
 _atom_site_fract_x
 _atom_site_fract_y
 _atom_site_fract_z
 _atom_site_fract_occupancy
 Au  Au1  1  0.76141  0.00000  0.00000  1
 Au  Au2  1  0.23859  -0.00000  -0.00000  1
 Hg  Hg1  1  0.50000  -0.00000  -0.00000  1
 Zr  Zr1  1  0.00000  0.00000  0.00000  1
