data_image0
_chemical_formula_structural       Al2FeZr6
_chemical_formula_sum              "Al2 Fe1 Zr6"
_cell_length_a       7.95577
_cell_length_b       7.95577
_cell_length_c       3.31245
_cell_angle_alpha    90
_cell_angle_beta     90
_cell_angle_gamma    120.002

_space_group_name_H-M_alt    "P 1"
_space_group_IT_number       1

loop_
  _space_group_symop_operation_xyz
  'x, y, z'

loop_
  _atom_site_type_symbol
  _atom_site_label
  _atom_site_symmetry_multiplicity
  _atom_site_fract_x
  _atom_site_fract_y
  _atom_site_fract_z
  _atom_site_occupancy
  Al  Al1       1.0  0.66700  0.33300  0.50000  1.0000
  Al  Al2       1.0  0.33300  0.66700  0.50000  1.0000
  Fe  Fe1       1.0  0.00001  0.00001  0.00000  1.0000
  Zr  Zr1       1.0  0.60100  0.00002  0.00000  1.0000
  Zr  Zr2       1.0  0.39900  0.39900  0.00000  1.0000
  Zr  Zr3       1.0  0.00002  0.60100  0.00000  1.0000
  Zr  Zr4       1.0  0.24900  0.00002  0.50000  1.0000
  Zr  Zr5       1.0  0.00002  0.24900  0.50000  1.0000
  Zr  Zr6       1.0  0.75100  0.75100  0.50000  1.0000
