CIF file written using JARVIS-Tools package.
data_ZnCuF4
_symmetry_space_group_name_H-M  'C2/c'
_cell_length_a       4.95853
_cell_length_b       5.57399
_cell_length_c       6.17094
_cell_angle_alpha    116.845
_cell_angle_beta     110.546
_cell_angle_gamma    89.9992

_symmetry_Int_Tables_number  15
_chemical_formula_structural  ZnCuF4
_chemical_formula_sum  Zn2Cu2F8
_cell_volume  139.91005444800658
_cell_formula_units_Z  2
loop_
  _symmetry_equiv_pos_site_id
 _symmetry_equiv_pos_as_xyz
 1  'x, y, z'
loop_
 _atom_site_type_symbol
 _atom_site_label
 _atom_site_symmetry_multiplicity
 _atom_site_fract_x
 _atom_site_fract_y
 _atom_site_fract_z
 _atom_site_fract_occupancy
 Cu  Cu1  1  0.49950  0.00018  0.00087  1
 Cu  Cu2  1  -0.00052  0.50016  0.00084  1
 F  F1  1  0.33026  0.25141  0.23117  1
 F  F2  1  0.17780  0.00289  0.71624  1
 F  F3  1  0.66868  0.74889  0.77052  1
 F  F4  1  0.16859  0.52110  0.77042  1
 F  F5  1  0.82119  0.99748  0.28549  1
 F  F6  1  0.32120  0.78742  0.28544  1
 F  F7  1  0.83032  0.47925  0.23123  1
 F  F8  1  0.67778  0.21287  0.71624  1
 Zn  Zn1  1  0.24949  0.20161  0.50084  1
 Zn  Zn2  1  0.74951  0.79872  0.50087  1
