CIF file written using JARVIS-Tools package.
data_CaSn2O4
_symmetry_space_group_name_H-M  'P-1'
_cell_length_a       3.29874
_cell_length_b       7.39579
_cell_length_c       9.31131
_cell_angle_alpha    80.068
_cell_angle_beta     81.3743
_cell_angle_gamma    75.7881

_symmetry_Int_Tables_number  2
_chemical_formula_structural  CaSn2O4
_chemical_formula_sum  Ca2Sn4O8
_cell_volume  215.53019511731858
_cell_formula_units_Z  2
loop_
  _symmetry_equiv_pos_site_id
 _symmetry_equiv_pos_as_xyz
 1  'x, y, z'
loop_
 _atom_site_type_symbol
 _atom_site_label
 _atom_site_symmetry_multiplicity
 _atom_site_fract_x
 _atom_site_fract_y
 _atom_site_fract_z
 _atom_site_fract_occupancy
 Ca  Ca1  1  0.62728  0.83680  0.80908  1
 Ca  Ca2  1  0.37038  0.13013  0.21281  1
 O  O1  1  0.17013  0.44519  0.26090  1
 O  O2  1  0.53356  0.15507  0.78896  1
 O  O3  1  0.46411  0.81187  0.23293  1
 O  O4  1  0.82754  0.52175  0.76098  1
 O  O5  1  0.83540  0.31418  0.03754  1
 O  O6  1  0.17795  0.89382  0.63729  1
 O  O7  1  0.16228  0.65276  0.98435  1
 O  O8  1  0.81971  0.07311  0.38459  1
 Sn  Sn1  1  0.34780  0.39984  0.87047  1
 Sn  Sn2  1  0.00503  0.77482  0.44852  1
 Sn  Sn3  1  -0.00737  0.19212  0.57336  1
 Sn  Sn4  1  0.64988  0.56710  0.15141  1
