CIF file written using JARVIS-Tools package.
data_K3GeS3
_symmetry_space_group_name_H-M  'C2/m'
_cell_length_a       7.54263
_cell_length_b       7.54263
_cell_length_c       8.16939
_cell_angle_alpha    104.786
_cell_angle_beta     104.786
_cell_angle_gamma    109.575

_symmetry_Int_Tables_number  12
_chemical_formula_structural  K3GeS3
_chemical_formula_sum  K6Ge2S6
_cell_volume  392.6758372105809
_cell_formula_units_Z  2
loop_
  _symmetry_equiv_pos_site_id
 _symmetry_equiv_pos_as_xyz
 1  'x, y, z'
loop_
 _atom_site_type_symbol
 _atom_site_label
 _atom_site_symmetry_multiplicity
 _atom_site_fract_x
 _atom_site_fract_y
 _atom_site_fract_z
 _atom_site_fract_occupancy
 Ge  Ge1  1  0.88032  0.88032  0.84296  1
 Ge  Ge2  1  0.11968  0.11968  0.15704  1
 K  K1  1  0.21577  0.21577  0.68424  1
 K  K2  1  0.78423  0.78423  0.31576  1
 K  K3  1  0.00000  0.50000  0.00000  1
 K  K4  1  0.50000  -0.00000  0.00000  1
 K  K5  1  0.33456  0.66544  0.50000  1
 K  K6  1  0.66544  0.33456  0.50000  1
 S  S1  1  0.24760  0.94832  0.30264  1
 S  S2  1  0.05168  0.75240  0.69736  1
 S  S3  1  0.62789  0.62789  0.85966  1
 S  S4  1  0.37211  0.37211  0.14034  1
 S  S5  1  0.75240  0.05168  0.69736  1
 S  S6  1  0.94832  0.24760  0.30264  1
