CIF file written using JARVIS-Tools package.
data_MgH12SO9
_symmetry_space_group_name_H-M  'R3'
_cell_length_a       5.90188
_cell_length_b       5.90188
_cell_length_c       5.90188
_cell_angle_alpha    96.619
_cell_angle_beta     96.6191
_cell_angle_gamma    96.619

_symmetry_Int_Tables_number  146
_chemical_formula_structural  MgH12SO9
_chemical_formula_sum  MgH2SO9
_cell_volume  201.11548093428496
_cell_formula_units_Z  1
loop_
  _symmetry_equiv_pos_site_id
 _symmetry_equiv_pos_as_xyz
 1  'x, y, z'
loop_
 _atom_site_type_symbol
 _atom_site_label
 _atom_site_symmetry_multiplicity
 _atom_site_fract_x
 _atom_site_fract_y
 _atom_site_fract_z
 _atom_site_fract_occupancy
 H  H1  1  0.79543  0.36603  0.18373  1
 H  H2  1  0.18373  0.79543  0.36603  1
 H  H3  1  0.01607  0.52873  0.94307  1
 H  H4  1  0.94307  0.01607  0.52873  1
 H  H5  1  0.61919  0.72948  0.13185  1
 H  H6  1  0.13185  0.61919  0.72948  1
 H  H7  1  0.52873  0.94307  0.01607  1
 H  H8  1  0.40107  0.27005  0.06416  1
 H  H9  1  0.06416  0.40107  0.27005  1
 H  H10  1  0.27005  0.06416  0.40107  1
 H  H11  1  0.36603  0.18373  0.79543  1
 H  H12  1  0.72948  0.13185  0.61919  1
 Mg  Mg1  1  0.98942  0.98942  0.98942  1
 O  O1  1  0.13723  0.94577  0.32662  1
 O  O2  1  0.94577  0.32662  0.13723  1
 O  O3  1  0.32662  0.13723  0.94577  1
 O  O4  1  0.87242  0.06585  0.66783  1
 O  O5  1  0.06585  0.66783  0.87242  1
 O  O6  1  0.66783  0.87242  0.06585  1
 O  O7  1  0.47876  0.24963  0.55613  1
 O  O8  1  0.24963  0.55613  0.47876  1
 O  O9  1  0.55613  0.47876  0.24963  1
 S  S1  1  0.50192  0.50192  0.50192  1
