CIF file written using JARVIS-Tools package.
data_MgSn2O4
_symmetry_space_group_name_H-M  'C2'
_cell_length_a       6.34672
_cell_length_b       6.61931
_cell_length_c       6.61785
_cell_angle_alpha    60.4468
_cell_angle_beta     61.3468
_cell_angle_gamma    61.3536

_symmetry_Int_Tables_number  5
_chemical_formula_structural  MgSn2O4
_chemical_formula_sum  Mg2Sn4O8
_cell_volume  201.2028704120864
_cell_formula_units_Z  2
loop_
  _symmetry_equiv_pos_site_id
 _symmetry_equiv_pos_as_xyz
 1  'x, y, z'
loop_
 _atom_site_type_symbol
 _atom_site_label
 _atom_site_symmetry_multiplicity
 _atom_site_fract_x
 _atom_site_fract_y
 _atom_site_fract_z
 _atom_site_fract_occupancy
 Mg  Mg1  1  0.64516  0.10523  0.10498  1
 Mg  Mg2  1  0.35534  0.89477  0.89502  1
 O  O1  1  0.22324  0.75705  0.75768  1
 O  O2  1  0.20205  0.80598  0.26120  1
 O  O3  1  0.76324  0.75707  0.75663  1
 O  O4  1  0.79658  0.73905  0.19416  1
 O  O5  1  0.23797  0.24294  0.24232  1
 O  O6  1  0.76924  0.19401  0.73882  1
 O  O7  1  0.22981  0.26096  0.80581  1
 O  O8  1  0.77695  0.24293  0.24335  1
 Sn  Sn1  1  0.01135  0.00000  0.50000  1
 Sn  Sn2  1  -0.00117  0.52613  0.47516  1
 Sn  Sn3  1  -0.00988  0.50000  0.00000  1
 Sn  Sn4  1  0.50012  0.47388  0.52485  1
