CIF file written using JARVIS-Tools package.
data_Fe2OF3
_symmetry_space_group_name_H-M  'P2_1/c'
_cell_length_a       5.68149
_cell_length_b       4.68585
_cell_length_c       10.5817
_cell_angle_alpha    90
_cell_angle_beta     95.8227
_cell_angle_gamma    90

_symmetry_Int_Tables_number  14
_chemical_formula_structural  Fe2OF3
_chemical_formula_sum  Fe8O4F2
_cell_volume  280.25834832631676
_cell_formula_units_Z  4
loop_
  _symmetry_equiv_pos_site_id
 _symmetry_equiv_pos_as_xyz
 1  'x, y, z'
loop_
 _atom_site_type_symbol
 _atom_site_label
 _atom_site_symmetry_multiplicity
 _atom_site_fract_x
 _atom_site_fract_y
 _atom_site_fract_z
 _atom_site_fract_occupancy
 F  F1  1  0.76903  0.20301  0.40983  1
 F  F2  1  0.01576  0.28246  0.67342  1
 F  F3  1  0.51971  0.29790  0.17898  1
 F  F4  1  0.76903  0.29699  0.90983  1
 F  F5  1  0.98424  0.71754  0.32658  1
 F  F6  1  0.23097  0.70301  0.09017  1
 F  F7  1  0.48029  0.70210  0.82102  1
 F  F8  1  0.98424  0.78246  0.82658  1
 F  F9  1  0.23097  0.79699  0.59017  1
 F  F10  1  0.48029  0.79790  0.32102  1
 F  F11  1  0.51971  0.20210  0.67898  1
 F  F12  1  0.01576  0.21754  0.17342  1
 Fe  Fe1  1  0.00000  0.50000  0.50000  1
 Fe  Fe2  1  0.00000  0.00000  0.00000  1
 Fe  Fe3  1  0.74353  0.96999  0.22774  1
 Fe  Fe4  1  0.50000  0.00000  0.50000  1
 Fe  Fe5  1  0.25647  0.03001  0.77226  1
 Fe  Fe6  1  0.74353  0.53001  0.72774  1
 Fe  Fe7  1  0.25647  0.46999  0.27226  1
 Fe  Fe8  1  0.50000  0.50000  -0.00000  1
 O  O1  1  0.27065  0.20823  0.93335  1
 O  O2  1  0.27065  0.29177  0.43335  1
 O  O3  1  0.72935  0.79177  0.06665  1
 O  O4  1  0.72935  0.70823  0.56665  1
