CIF file written using JARVIS-Tools package.
data_TbVO3
_symmetry_space_group_name_H-M  'Pnma'
_cell_length_a       5.28314
_cell_length_b       5.64843
_cell_length_c       7.62141
_cell_angle_alpha    90
_cell_angle_beta     90
_cell_angle_gamma    90

_symmetry_Int_Tables_number  62
_chemical_formula_structural  TbVO3
_chemical_formula_sum  Tb4V4O2
_cell_volume  227.43353040091657
_cell_formula_units_Z  4
loop_
  _symmetry_equiv_pos_site_id
 _symmetry_equiv_pos_as_xyz
 1  'x, y, z'
loop_
 _atom_site_type_symbol
 _atom_site_label
 _atom_site_symmetry_multiplicity
 _atom_site_fract_x
 _atom_site_fract_y
 _atom_site_fract_z
 _atom_site_fract_occupancy
 O  O1  1  0.80828  0.80280  0.44527  1
 O  O2  1  0.69172  0.30280  0.44527  1
 O  O3  1  0.30828  0.69720  0.55473  1
 O  O4  1  0.80828  0.80280  0.05473  1
 O  O5  1  0.19172  0.19720  0.94527  1
 O  O6  1  0.30828  0.69720  0.94527  1
 O  O7  1  0.89121  0.53750  0.75000  1
 O  O8  1  0.19172  0.19720  0.55473  1
 O  O9  1  0.39121  0.96250  0.25000  1
 O  O10  1  0.10879  0.46250  0.25000  1
 O  O11  1  0.60879  0.03750  0.75000  1
 O  O12  1  0.69172  0.30280  0.05473  1
 Tb  Tb1  1  0.01931  0.93035  0.75000  1
 Tb  Tb2  1  0.48069  0.43035  0.75000  1
 Tb  Tb3  1  0.98069  0.06965  0.25000  1
 Tb  Tb4  1  0.51931  0.56965  0.25000  1
 V  V1  1  0.50000  0.00000  0.50000  1
 V  V2  1  0.00000  0.50000  0.00000  1
 V  V3  1  0.50000  0.00000  0.00000  1
 V  V4  1  0.00000  0.50000  0.50000  1
