CIF file written using JARVIS-Tools package.
data_MnV2O6
_symmetry_space_group_name_H-M  'C2/m'
_cell_length_a       3.51869
_cell_length_b       5.00505
_cell_length_c       6.63747
_cell_angle_alpha    111.648
_cell_angle_beta     90
_cell_angle_gamma    110.581

_symmetry_Int_Tables_number  12
_chemical_formula_structural  MnV2O6
_chemical_formula_sum  MnV2O6
_cell_volume  100.57930549326127
_cell_formula_units_Z  1
loop_
  _symmetry_equiv_pos_site_id
 _symmetry_equiv_pos_as_xyz
 1  'x, y, z'
loop_
 _atom_site_type_symbol
 _atom_site_label
 _atom_site_symmetry_multiplicity
 _atom_site_fract_x
 _atom_site_fract_y
 _atom_site_fract_z
 _atom_site_fract_occupancy
 Mn  Mn1  1  0.00000  0.00000  0.00000  1
 O  O1  1  0.65209  0.30420  0.10848  1
 O  O2  1  0.34791  0.69580  0.89152  1
 O  O3  1  0.97065  0.94129  0.28146  1
 O  O4  1  0.02935  0.05871  0.71854  1
 O  O5  1  0.69106  0.38212  0.56316  1
 O  O6  1  0.30894  0.61788  0.43684  1
 V  V1  1  0.81262  0.62524  0.35140  1
 V  V2  1  0.18738  0.37476  0.64860  1
