CIF file written using JARVIS-Tools package.
data_NaHO
_symmetry_space_group_name_H-M  'Cm'
_cell_length_a       5.62769
_cell_length_b       3.36313
_cell_length_c       5.62769
_cell_angle_alpha    107.187
_cell_angle_beta     34.7813
_cell_angle_gamma    107.187

_symmetry_Int_Tables_number  8
_chemical_formula_structural  NaHO
_chemical_formula_sum  Na2H2O2
_cell_volume  57.77344625582625
_cell_formula_units_Z  2
loop_
  _symmetry_equiv_pos_site_id
 _symmetry_equiv_pos_as_xyz
 1  'x, y, z'
loop_
 _atom_site_type_symbol
 _atom_site_label
 _atom_site_symmetry_multiplicity
 _atom_site_fract_x
 _atom_site_fract_y
 _atom_site_fract_z
 _atom_site_fract_occupancy
 H  H1  1  0.18561  0.47814  0.18561  1
 H  H2  1  0.93562  0.72273  0.93562  1
 Na  Na1  1  0.41569  0.20549  0.41569  1
 Na  Na2  1  0.66572  0.95800  0.66572  1
 O  O1  1  0.08942  0.38257  0.08942  1
 O  O2  1  0.83943  0.63062  0.83943  1
