CIF file written using JARVIS-Tools package.
data_Ba3Fe3Se7
_symmetry_space_group_name_H-M  'P6_3mc'
_cell_length_a       11.0296
_cell_length_b       11.0296
_cell_length_c       7.10305
_cell_angle_alpha    90
_cell_angle_beta     90
_cell_angle_gamma    120

_symmetry_Int_Tables_number  186
_chemical_formula_structural  Ba3Fe3Se7
_chemical_formula_sum  Ba6Fe6Se4
_cell_volume  748.3338439325697
_cell_formula_units_Z  2
loop_
  _symmetry_equiv_pos_site_id
 _symmetry_equiv_pos_as_xyz
 1  'x, y, z'
loop_
 _atom_site_type_symbol
 _atom_site_label
 _atom_site_symmetry_multiplicity
 _atom_site_fract_x
 _atom_site_fract_y
 _atom_site_fract_z
 _atom_site_fract_occupancy
 Ba  Ba1  1  0.81447  0.62895  0.49185  1
 Ba  Ba2  1  0.18553  0.37105  0.99185  1
 Ba  Ba3  1  0.62895  0.81447  0.99185  1
 Ba  Ba4  1  0.18553  0.81447  0.99185  1
 Ba  Ba5  1  0.37105  0.18553  0.49185  1
 Ba  Ba6  1  0.81447  0.18553  0.49185  1
 Fe  Fe1  1  0.25526  0.74474  0.50970  1
 Fe  Fe2  1  0.51051  0.25526  0.00970  1
 Fe  Fe3  1  0.48949  0.74474  0.50970  1
 Fe  Fe4  1  0.25526  0.51051  0.50970  1
 Fe  Fe5  1  0.74474  0.48949  0.00970  1
 Fe  Fe6  1  0.74474  0.25526  0.00970  1
 Se  Se1  1  0.45638  0.91277  0.68274  1
 Se  Se2  1  0.45638  0.54362  0.68274  1
 Se  Se3  1  0.13633  0.86367  0.43648  1
 Se  Se4  1  0.66667  0.33333  0.74017  1
 Se  Se5  1  0.33333  0.66667  0.24017  1
 Se  Se6  1  0.13633  0.27266  0.43648  1
 Se  Se7  1  0.54362  0.45638  0.18274  1
 Se  Se8  1  0.91277  0.45638  0.18274  1
 Se  Se9  1  0.72734  0.86367  0.43648  1
 Se  Se10  1  0.86367  0.72734  0.93648  1
 Se  Se11  1  0.54362  0.08723  0.18274  1
 Se  Se12  1  0.08723  0.54362  0.68274  1
 Se  Se13  1  0.27266  0.13633  0.93648  1
 Se  Se14  1  0.86367  0.13633  0.93648  1
