CIF file written using JARVIS-Tools package.
data_Rb4CO4
_symmetry_space_group_name_H-M  'Cm'
_cell_length_a       5.83106
_cell_length_b       5.9763
_cell_length_c       5.97622
_cell_angle_alpha    111.163
_cell_angle_beta     99.4979
_cell_angle_gamma    99.4957

_symmetry_Int_Tables_number  8
_chemical_formula_structural  Rb4CO4
_chemical_formula_sum  Rb4CO4
_cell_volume  185.7570183896575
_cell_formula_units_Z  1
loop_
  _symmetry_equiv_pos_site_id
 _symmetry_equiv_pos_as_xyz
 1  'x, y, z'
loop_
 _atom_site_type_symbol
 _atom_site_label
 _atom_site_symmetry_multiplicity
 _atom_site_fract_x
 _atom_site_fract_y
 _atom_site_fract_z
 _atom_site_fract_occupancy
 C  C1  1  0.60067  0.04271  0.04271  1
 O  O1  1  0.59701  0.82803  0.82802  1
 O  O2  1  0.84512  0.17191  0.17192  1
 O  O3  1  0.47994  0.20361  0.96696  1
 O  O4  1  0.47994  0.96697  0.20361  1
 Rb  Rb1  1  0.09721  0.83570  0.83570  1
 Rb  Rb2  1  0.76785  0.19422  0.65907  1
 Rb  Rb3  1  0.31111  0.39123  0.39122  1
 Rb  Rb4  1  0.76786  0.65906  0.19422  1
