CIF file written using JARVIS-Tools package.
data_SeBr
_symmetry_space_group_name_H-M  'Aea2'
_cell_length_a       4.07605
_cell_length_b       4.07605
_cell_length_c       14.9381
_cell_angle_alpha    90
_cell_angle_beta     90
_cell_angle_gamma    105.753

_symmetry_Int_Tables_number  41
_chemical_formula_structural  SeBr
_chemical_formula_sum  Se4Br4
_cell_volume  238.86331601676096
_cell_formula_units_Z  4
loop_
  _symmetry_equiv_pos_site_id
 _symmetry_equiv_pos_as_xyz
 1  'x, y, z'
loop_
 _atom_site_type_symbol
 _atom_site_label
 _atom_site_symmetry_multiplicity
 _atom_site_fract_x
 _atom_site_fract_y
 _atom_site_fract_z
 _atom_site_fract_occupancy
 Br  Br1  1  0.93284  0.04951  0.83103  1
 Br  Br2  1  0.43284  0.54951  0.66897  1
 Br  Br3  1  0.04951  0.93284  0.16897  1
 Br  Br4  1  0.54951  0.43284  0.33103  1
 Se  Se1  1  0.68685  0.95600  0.55040  1
 Se  Se2  1  0.45600  0.18685  0.05040  1
 Se  Se3  1  0.18685  0.45600  0.94960  1
 Se  Se4  1  0.95600  0.68685  0.44960  1
