CIF file written using JARVIS-Tools package.
data_Y2CuAg
_symmetry_space_group_name_H-M  'Immm'
_cell_length_a       11.0569
_cell_length_b       12.0255
_cell_length_c       12.0255
_cell_angle_alpha    63.6664
_cell_angle_beta     62.6307
_cell_angle_gamma    62.6307

_symmetry_Int_Tables_number  71
_chemical_formula_structural  Y2CuAg
_chemical_formula_sum  Y2CuAg
_cell_volume  1205.1143931232048
_cell_formula_units_Z  1
loop_
  _symmetry_equiv_pos_site_id
 _symmetry_equiv_pos_as_xyz
 1  'x, y, z'
loop_
 _atom_site_type_symbol
 _atom_site_label
 _atom_site_symmetry_multiplicity
 _atom_site_fract_x
 _atom_site_fract_y
 _atom_site_fract_z
 _atom_site_fract_occupancy
 Ag  Ag1  1  0.50000  -0.00000  0.00000  1
 Cu  Cu1  1  0.00000  0.00000  0.00000  1
 Y  Y1  1  0.76138  -0.00000  -0.00000  1
 Y  Y2  1  0.23862  0.00000  0.00000  1
