CIF file written using JARVIS-Tools package.
data_AlAgO2
_symmetry_space_group_name_H-M  'Pna2_1'
_cell_length_a       5.43332
_cell_length_b       5.48146
_cell_length_c       6.9861
_cell_angle_alpha    90
_cell_angle_beta     90
_cell_angle_gamma    90

_symmetry_Int_Tables_number  33
_chemical_formula_structural  AlAgO2
_chemical_formula_sum  Al4Ag4O8
_cell_volume  208.063821647074
_cell_formula_units_Z  4
loop_
  _symmetry_equiv_pos_site_id
 _symmetry_equiv_pos_as_xyz
 1  'x, y, z'
loop_
 _atom_site_type_symbol
 _atom_site_label
 _atom_site_symmetry_multiplicity
 _atom_site_fract_x
 _atom_site_fract_y
 _atom_site_fract_z
 _atom_site_fract_occupancy
 Ag  Ag1  1  0.44681  0.99705  0.86170  1
 Ag  Ag2  1  0.55319  0.49705  0.13830  1
 Ag  Ag3  1  0.05319  0.49705  0.36170  1
 Ag  Ag4  1  0.94681  0.99705  0.63830  1
 Al  Al1  1  0.93320  0.00018  0.12430  1
 Al  Al2  1  0.56680  0.50018  0.62430  1
 Al  Al3  1  0.06680  0.50018  0.87570  1
 Al  Al4  1  0.43320  0.00018  0.37570  1
 O  O1  1  0.38220  0.56449  0.82885  1
 O  O2  1  0.61780  0.06449  0.17115  1
 O  O3  1  0.11780  0.06449  0.32885  1
 O  O4  1  0.88220  0.56449  0.67115  1
 O  O5  1  0.46802  0.68618  0.43162  1
 O  O6  1  0.96802  0.68618  0.06838  1
 O  O7  1  0.03198  0.18618  0.93162  1
 O  O8  1  0.53198  0.18618  0.56838  1
