CIF file written using JARVIS-Tools package.
data_Na2Cu2TeO6
_symmetry_space_group_name_H-M  'C2/m'
_cell_length_a       5.27095
_cell_length_b       5.27089
_cell_length_c       5.97747
_cell_angle_alpha    103.594
_cell_angle_beta     103.592
_cell_angle_gamma    112.522

_symmetry_Int_Tables_number  12
_chemical_formula_structural  Na2Cu2TeO6
_chemical_formula_sum  Na2Cu2TeO6
_cell_volume  138.99393098163137
_cell_formula_units_Z  1
loop_
  _symmetry_equiv_pos_site_id
 _symmetry_equiv_pos_as_xyz
 1  'x, y, z'
loop_
 _atom_site_type_symbol
 _atom_site_label
 _atom_site_symmetry_multiplicity
 _atom_site_fract_x
 _atom_site_fract_y
 _atom_site_fract_z
 _atom_site_fract_occupancy
 Cu  Cu1  1  0.33551  0.66447  0.00000  1
 Cu  Cu2  1  0.66449  0.33553  -0.00000  1
 Na  Na1  1  0.81552  0.18448  0.49999  1
 Na  Na2  1  0.18448  0.81552  0.50001  1
 O  O1  1  0.75675  0.75676  0.16166  1
 O  O2  1  0.02512  0.35409  0.21848  1
 O  O3  1  0.24325  0.24324  0.83834  1
 O  O4  1  0.35408  0.02510  0.21848  1
 O  O5  1  0.97488  0.64591  0.78152  1
 O  O6  1  0.64592  0.97490  0.78152  1
 Te  Te1  1  0.00000  0.00000  0.00000  1
