CIF file written using JARVIS-Tools package.
data_Li4CO4
_symmetry_space_group_name_H-M  'Pc'
_cell_length_a       4.59497
_cell_length_b       5.4592
_cell_length_c       7.53952
_cell_angle_alpha    90
_cell_angle_beta     126.087
_cell_angle_gamma    90

_symmetry_Int_Tables_number  7
_chemical_formula_structural  Li4CO4
_chemical_formula_sum  Li8C2O8
_cell_volume  152.83811886829076
_cell_formula_units_Z  2
loop_
  _symmetry_equiv_pos_site_id
 _symmetry_equiv_pos_as_xyz
 1  'x, y, z'
loop_
 _atom_site_type_symbol
 _atom_site_label
 _atom_site_symmetry_multiplicity
 _atom_site_fract_x
 _atom_site_fract_y
 _atom_site_fract_z
 _atom_site_fract_occupancy
 C  C1  1  0.14280  0.19883  0.74490  1
 C  C2  1  0.14280  0.80117  0.24490  1
 Li  Li1  1  0.92817  0.94532  0.46481  1
 Li  Li2  1  0.55150  0.06695  0.09988  1
 Li  Li3  1  0.77605  0.46986  0.86078  1
 Li  Li4  1  0.35298  0.67347  0.95893  1
 Li  Li5  1  0.35298  0.32653  0.45893  1
 Li  Li6  1  0.77605  0.53014  0.36078  1
 Li  Li7  1  0.55150  0.93305  0.59988  1
 Li  Li8  1  0.92817  0.05468  0.96481  1
 O  O1  1  0.45061  0.19895  0.74465  1
 O  O2  1  0.45061  0.80105  0.24465  1
 O  O3  1  0.21216  0.66807  0.42747  1
 O  O4  1  0.84091  0.71650  0.04629  1
 O  O5  1  0.21216  0.33193  0.92747  1
 O  O6  1  0.84091  0.28350  0.54629  1
 O  O7  1  0.06908  0.05157  0.27100  1
 O  O8  1  0.06908  0.94843  0.77100  1
