CIF file written using JARVIS-Tools package.
data_LiCd2Ni
_symmetry_space_group_name_H-M  'Immm'
_cell_length_a       10.632
_cell_length_b       11.0086
_cell_length_c       11.0086
_cell_angle_alpha    61.7511
_cell_angle_beta     61.1252
_cell_angle_gamma    61.1252

_symmetry_Int_Tables_number  71
_chemical_formula_structural  LiCd2Ni
_chemical_formula_sum  LiCd2Ni
_cell_volume  938.3436668369782
_cell_formula_units_Z  1
loop_
  _symmetry_equiv_pos_site_id
 _symmetry_equiv_pos_as_xyz
 1  'x, y, z'
loop_
 _atom_site_type_symbol
 _atom_site_label
 _atom_site_symmetry_multiplicity
 _atom_site_fract_x
 _atom_site_fract_y
 _atom_site_fract_z
 _atom_site_fract_occupancy
 Cd  Cd1  1  0.74231  -0.00000  -0.00000  1
 Cd  Cd2  1  0.25769  0.00000  0.00000  1
 Li  Li1  1  0.00000  0.00000  0.00000  1
 Ni  Ni1  1  0.50000  -0.00000  0.00000  1
