CIF file written using JARVIS-Tools package.
data_NO2
_symmetry_space_group_name_H-M  'Im-3'
_cell_length_a       7.41242
_cell_length_b       7.41242
_cell_length_c       7.41242
_cell_angle_alpha    109.471
_cell_angle_beta     109.471
_cell_angle_gamma    109.471

_symmetry_Int_Tables_number  204
_chemical_formula_structural  NO2
_chemical_formula_sum  N6O2
_cell_volume  313.51447447070456
_cell_formula_units_Z  6
loop_
  _symmetry_equiv_pos_site_id
 _symmetry_equiv_pos_as_xyz
 1  'x, y, z'
loop_
 _atom_site_type_symbol
 _atom_site_label
 _atom_site_symmetry_multiplicity
 _atom_site_fract_x
 _atom_site_fract_y
 _atom_site_fract_z
 _atom_site_fract_occupancy
 N  N1  1  0.50000  0.89308  0.39308  1
 N  N2  1  0.39308  0.50000  0.89308  1
 N  N3  1  0.50000  0.10692  0.60692  1
 N  N4  1  0.89308  0.39308  0.50000  1
 N  N5  1  0.60692  0.50000  0.10692  1
 N  N6  1  0.10692  0.60692  0.50000  1
 O  O1  1  0.53146  0.37025  0.16120  1
 O  O2  1  0.79095  0.62975  0.16120  1
 O  O3  1  0.83880  0.46854  0.62975  1
 O  O4  1  0.46854  0.62975  0.83880  1
 O  O5  1  0.37025  0.83880  0.20905  1
 O  O6  1  0.16120  0.79095  0.62975  1
 O  O7  1  0.62975  0.83880  0.46854  1
 O  O8  1  0.62975  0.16120  0.79095  1
 O  O9  1  0.16120  0.53146  0.37025  1
 O  O10  1  0.20905  0.37025  0.83880  1
 O  O11  1  0.37025  0.16120  0.53146  1
 O  O12  1  0.83880  0.20905  0.37025  1
