CIF file written using JARVIS-Tools package.
data_Ca2InHg
_symmetry_space_group_name_H-M  'I4/mmm'
_cell_length_a       13.1455
_cell_length_b       9.30519
_cell_length_c       9.30519
_cell_angle_alpha    33.6188
_cell_angle_beta     19.4922
_cell_angle_gamma    19.4922

_symmetry_Int_Tables_number  139
_chemical_formula_structural  Ca2InHg
_chemical_formula_sum  Ca2InHg
_cell_volume  109.58809716855939
_cell_formula_units_Z  1
loop_
  _symmetry_equiv_pos_site_id
 _symmetry_equiv_pos_as_xyz
 1  'x, y, z'
loop_
 _atom_site_type_symbol
 _atom_site_label
 _atom_site_symmetry_multiplicity
 _atom_site_fract_x
 _atom_site_fract_y
 _atom_site_fract_z
 _atom_site_fract_occupancy
 Ca  Ca1  1  0.74964  0.00019  0.00019  1
 Ca  Ca2  1  0.25036  -0.00019  -0.00019  1
 Hg  Hg1  1  0.50000  0.00000  0.00000  1
 In  In1  1  0.00000  0.00000  0.00000  1
