CIF file written using JARVIS-Tools package.
data_Mn3O4F2
_symmetry_space_group_name_H-M  'P-1'
_cell_length_a       5.41205
_cell_length_b       5.47889
_cell_length_c       7.08676
_cell_angle_alpha    73.05
_cell_angle_beta     72.2277
_cell_angle_gamma    72.2461

_symmetry_Int_Tables_number  2
_chemical_formula_structural  Mn3O4F2
_chemical_formula_sum  Mn6O8F4
_cell_volume  185.95915825747423
_cell_formula_units_Z  2
loop_
  _symmetry_equiv_pos_site_id
 _symmetry_equiv_pos_as_xyz
 1  'x, y, z'
loop_
 _atom_site_type_symbol
 _atom_site_label
 _atom_site_symmetry_multiplicity
 _atom_site_fract_x
 _atom_site_fract_y
 _atom_site_fract_z
 _atom_site_fract_occupancy
 F  F1  1  0.46842  0.90374  0.81731  1
 F  F2  1  0.53158  0.09626  0.18269  1
 F  F3  1  0.74763  0.73753  0.46772  1
 F  F4  1  0.25237  0.26247  0.53228  1
 Mn  Mn1  1  0.14178  0.20298  0.84583  1
 Mn  Mn2  1  0.50000  0.50000  -0.00000  1
 Mn  Mn3  1  0.85558  0.84821  0.67218  1
 Mn  Mn4  1  0.50000  0.50000  0.50000  1
 Mn  Mn5  1  0.85822  0.79702  0.15417  1
 Mn  Mn6  1  0.14442  0.15179  0.32782  1
 O  O1  1  0.85204  0.49562  0.83056  1
 O  O2  1  0.14796  0.50438  0.16944  1
 O  O3  1  0.39041  0.41132  0.79530  1
 O  O4  1  0.93923  0.94754  0.86913  1
 O  O5  1  0.60959  0.58868  0.20470  1
 O  O6  1  0.19514  0.80807  0.49908  1
 O  O7  1  0.06077  0.05246  0.13087  1
 O  O8  1  0.80486  0.19193  0.50092  1
