CIF file written using JARVIS-Tools package.
data_Ba4NaB3N6
_symmetry_space_group_name_H-M  'Im-3m'
_cell_length_a       6.88523
_cell_length_b       6.88523
_cell_length_c       6.88523
_cell_angle_alpha    109.471
_cell_angle_beta     109.471
_cell_angle_gamma    109.471

_symmetry_Int_Tables_number  229
_chemical_formula_structural  Ba4NaB3N6
_chemical_formula_sum  Ba4NaB3N6
_cell_volume  251.2660828204391
_cell_formula_units_Z  1
loop_
  _symmetry_equiv_pos_site_id
 _symmetry_equiv_pos_as_xyz
 1  'x, y, z'
loop_
 _atom_site_type_symbol
 _atom_site_label
 _atom_site_symmetry_multiplicity
 _atom_site_fract_x
 _atom_site_fract_y
 _atom_site_fract_z
 _atom_site_fract_occupancy
 B  B1  1  0.50000  0.50000  0.00000  1
 B  B2  1  0.50000  0.00000  0.50000  1
 B  B3  1  0.00000  0.50000  0.50000  1
 Ba  Ba1  1  0.00000  0.50000  0.00000  1
 Ba  Ba2  1  0.50000  0.00000  0.00000  1
 Ba  Ba3  1  0.50000  0.50000  0.50000  1
 Ba  Ba4  1  0.00000  0.00000  0.50000  1
 N  N1  1  0.00000  0.67008  0.67008  1
 N  N2  1  0.32992  0.32992  -0.00000  1
 N  N3  1  -0.00000  0.32992  0.32992  1
 N  N4  1  0.32992  -0.00000  0.32992  1
 N  N5  1  0.67008  0.00000  0.67008  1
 N  N6  1  0.67008  0.67008  0.00000  1
 Na  Na1  1  0.00000  0.00000  0.00000  1
