CIF file written using JARVIS-Tools package.
data_MgZrHg2
_symmetry_space_group_name_H-M  'Fm-3m'
_cell_length_a       12.0458
_cell_length_b       8.51519
_cell_length_c       8.5152
_cell_angle_alpha    33.566
_cell_angle_beta     19.4817
_cell_angle_gamma    19.4817

_symmetry_Int_Tables_number  225
_chemical_formula_structural  MgZrHg2
_chemical_formula_sum  MgZrHg2
_cell_volume  84.17668711589573
_cell_formula_units_Z  1
loop_
  _symmetry_equiv_pos_site_id
 _symmetry_equiv_pos_as_xyz
 1  'x, y, z'
loop_
 _atom_site_type_symbol
 _atom_site_label
 _atom_site_symmetry_multiplicity
 _atom_site_fract_x
 _atom_site_fract_y
 _atom_site_fract_z
 _atom_site_fract_occupancy
 Hg  Hg1  1  0.75006  -0.00003  -0.00003  1
 Hg  Hg2  1  0.24994  0.00003  0.00003  1
 Mg  Mg1  1  0.00000  0.00000  0.00000  1
 Zr  Zr1  1  0.50000  0.00000  -0.00000  1
