CIF file written using JARVIS-Tools package.
data_NaBO2
_symmetry_space_group_name_H-M  'R-3c'
_cell_length_a       7.21498
_cell_length_b       7.21499
_cell_length_c       7.21498
_cell_angle_alpha    111.79
_cell_angle_beta     111.79
_cell_angle_gamma    111.79

_symmetry_Int_Tables_number  167
_chemical_formula_structural  NaBO2
_chemical_formula_sum  Na6B6O2
_cell_volume  261.38192702918906
_cell_formula_units_Z  6
loop_
  _symmetry_equiv_pos_site_id
 _symmetry_equiv_pos_as_xyz
 1  'x, y, z'
loop_
 _atom_site_type_symbol
 _atom_site_label
 _atom_site_symmetry_multiplicity
 _atom_site_fract_x
 _atom_site_fract_y
 _atom_site_fract_z
 _atom_site_fract_occupancy
 B  B1  1  0.37136  0.12864  0.25000  1
 B  B2  1  0.12864  0.25000  0.37136  1
 B  B3  1  0.87136  0.75000  0.62864  1
 B  B4  1  0.62864  0.87136  0.75000  1
 B  B5  1  0.75000  0.62864  0.87136  1
 B  B6  1  0.25000  0.37136  0.12864  1
 Na  Na1  1  0.81295  0.25000  0.68705  1
 Na  Na2  1  0.75000  0.31295  0.18704  1
 Na  Na3  1  0.31295  0.18704  0.75000  1
 Na  Na4  1  0.18704  0.75000  0.31295  1
 Na  Na5  1  0.25000  0.68705  0.81295  1
 Na  Na6  1  0.68705  0.81295  0.25000  1
 O  O1  1  0.75000  0.86632  0.63368  1
 O  O2  1  0.25000  0.13368  0.36632  1
 O  O3  1  0.63368  0.75000  0.86632  1
 O  O4  1  0.01864  0.25000  0.48136  1
 O  O5  1  0.48136  0.01864  0.25000  1
 O  O6  1  0.98136  0.75000  0.51864  1
 O  O7  1  0.51864  0.98136  0.75000  1
 O  O8  1  0.75000  0.51864  0.98136  1
 O  O9  1  0.13368  0.36632  0.25000  1
 O  O10  1  0.36632  0.25000  0.13368  1
 O  O11  1  0.25000  0.48136  0.01864  1
 O  O12  1  0.86632  0.63368  0.75000  1
