CIF file written using JARVIS-Tools package.
data_Co3O2F4
_symmetry_space_group_name_H-M  'P2_1/c'
_cell_length_a       5.4132
_cell_length_b       4.46918
_cell_length_c       7.61694
_cell_angle_alpha    90
_cell_angle_beta     93.4007
_cell_angle_gamma    90

_symmetry_Int_Tables_number  14
_chemical_formula_structural  Co3O2F4
_chemical_formula_sum  Co6O4F8
_cell_volume  183.9485517508352
_cell_formula_units_Z  2
loop_
  _symmetry_equiv_pos_site_id
 _symmetry_equiv_pos_as_xyz
 1  'x, y, z'
loop_
 _atom_site_type_symbol
 _atom_site_label
 _atom_site_symmetry_multiplicity
 _atom_site_fract_x
 _atom_site_fract_y
 _atom_site_fract_z
 _atom_site_fract_occupancy
 Co  Co1  1  0.33289  0.45702  0.82112  1
 Co  Co2  1  0.66711  0.54298  0.17888  1
 Co  Co3  1  0.00000  0.50000  0.50000  1
 Co  Co4  1  0.50000  0.00000  0.50000  1
 Co  Co5  1  0.16711  0.95702  0.17888  1
 Co  Co6  1  0.83289  0.04298  0.82112  1
 F  F1  1  0.72881  0.26425  0.40105  1
 F  F2  1  0.62652  0.71290  0.92843  1
 F  F3  1  0.27119  0.73575  0.59895  1
 F  F4  1  0.12652  0.78710  0.92843  1
 F  F5  1  0.77119  0.76425  0.59895  1
 F  F6  1  0.22881  0.23575  0.40105  1
 F  F7  1  0.37348  0.28710  0.07157  1
 F  F8  1  0.87348  0.21290  0.07157  1
 O  O1  1  0.95914  0.69996  0.28242  1
 O  O2  1  0.04086  0.30004  0.71758  1
 O  O3  1  0.54086  0.19996  0.71758  1
 O  O4  1  0.45914  0.80004  0.28242  1
