CIF file written using JARVIS-Tools package.
data_Cu2SnS3
_symmetry_space_group_name_H-M  'Cc'
_cell_length_a       6.70949
_cell_length_b       6.70801
_cell_length_c       6.7407
_cell_angle_alpha    80.2882
_cell_angle_beta     70.2869
_cell_angle_gamma    59.9927

_symmetry_Int_Tables_number  9
_chemical_formula_structural  Cu2SnS3
_chemical_formula_sum  Cu4Sn2S6
_cell_volume  247.31934240103286
_cell_formula_units_Z  2
loop_
  _symmetry_equiv_pos_site_id
 _symmetry_equiv_pos_as_xyz
 1  'x, y, z'
loop_
 _atom_site_type_symbol
 _atom_site_label
 _atom_site_symmetry_multiplicity
 _atom_site_fract_x
 _atom_site_fract_y
 _atom_site_fract_z
 _atom_site_fract_occupancy
 Cu  Cu1  1  0.44136  0.16233  0.98774  1
 Cu  Cu2  1  0.26407  0.49432  0.48679  1
 Cu  Cu3  1  0.60369  0.83767  0.48774  1
 Cu  Cu4  1  0.75839  0.50568  0.98679  1
 S  S1  1  0.24340  0.81677  0.60301  1
 S  S2  1  0.06017  0.18323  0.10301  1
 S  S3  1  0.40785  0.47660  0.12355  1
 S  S4  1  0.88445  0.52340  0.62355  1
 S  S5  1  0.69876  0.83069  0.12406  1
 S  S6  1  0.52944  0.16931  0.62406  1
 Sn  Sn1  1  0.90866  0.18570  0.50386  1
 Sn  Sn2  1  0.09436  0.81430  0.00386  1
