CIF file written using JARVIS-Tools package.
data_MgMn2O4
_symmetry_space_group_name_H-M  'C2/c'
_cell_length_a       5.7264
_cell_length_b       5.7267
_cell_length_c       6.00837
_cell_angle_alpha    117.043
_cell_angle_beta     119.547
_cell_angle_gamma    90.311

_symmetry_Int_Tables_number  15
_chemical_formula_structural  MgMn2O4
_chemical_formula_sum  Mg2Mn4O8
_cell_volume  145.80966821796488
_cell_formula_units_Z  2
loop_
  _symmetry_equiv_pos_site_id
 _symmetry_equiv_pos_as_xyz
 1  'x, y, z'
loop_
 _atom_site_type_symbol
 _atom_site_label
 _atom_site_symmetry_multiplicity
 _atom_site_fract_x
 _atom_site_fract_y
 _atom_site_fract_z
 _atom_site_fract_occupancy
 Mg  Mg1  1  -0.00000  0.00000  0.00000  1
 Mg  Mg2  1  -0.00000  0.50000  0.50000  1
 Mn  Mn1  1  0.50000  -0.00000  0.00000  1
 Mn  Mn2  1  0.50000  -0.00000  0.50000  1
 Mn  Mn3  1  -0.00001  -0.00000  0.50000  1
 Mn  Mn4  1  0.50000  0.50000  0.00000  1
 O  O1  1  0.75923  0.78108  0.05845  1
 O  O2  1  0.25399  0.73768  0.97044  1
 O  O3  1  0.72263  0.20078  0.44156  1
 O  O4  1  0.23274  0.21644  0.47043  1
 O  O5  1  0.27737  0.79922  0.55844  1
 O  O6  1  0.74600  0.26232  0.02957  1
 O  O7  1  0.76725  0.78357  0.52957  1
 O  O8  1  0.24077  0.21892  0.94156  1
