CIF file written using JARVIS-Tools package.
data_Li3CuS2
_symmetry_space_group_name_H-M  'I4_1/amd'
_cell_length_a       8.15423
_cell_length_b       8.15423
_cell_length_c       8.15423
_cell_angle_alpha    122.407
_cell_angle_beta     122.407
_cell_angle_gamma    85.8789

_symmetry_Int_Tables_number  141
_chemical_formula_structural  Li3CuS2
_chemical_formula_sum  Li2Cu4S8
_cell_volume  368.3960738140736
_cell_formula_units_Z  4
loop_
  _symmetry_equiv_pos_site_id
 _symmetry_equiv_pos_as_xyz
 1  'x, y, z'
loop_
 _atom_site_type_symbol
 _atom_site_label
 _atom_site_symmetry_multiplicity
 _atom_site_fract_x
 _atom_site_fract_y
 _atom_site_fract_z
 _atom_site_fract_occupancy
 Cu  Cu1  1  0.75313  0.50313  0.25000  1
 Cu  Cu2  1  0.49687  0.24687  0.25000  1
 Cu  Cu3  1  0.50313  0.75313  0.75000  1
 Cu  Cu4  1  0.24687  0.49687  0.75000  1
 Li  Li1  1  0.84376  0.15624  0.25000  1
 Li  Li2  1  0.00000  0.00000  0.00000  1
 Li  Li3  1  0.50000  0.00000  0.50000  1
 Li  Li4  1  0.84376  0.59376  0.68752  1
 Li  Li5  1  0.59376  0.84376  0.18752  1
 Li  Li6  1  0.15624  0.84376  0.75000  1
 Li  Li7  1  0.00000  0.50000  0.00000  1
 Li  Li8  1  -0.00000  -0.00000  0.50000  1
 Li  Li9  1  0.15624  0.40624  0.31248  1
 Li  Li10  1  0.59376  0.40624  0.75000  1
 Li  Li11  1  0.40624  0.15624  0.81248  1
 Li  Li12  1  0.40624  0.59376  0.25000  1
 S  S1  1  0.76716  0.78930  0.52214  1
 S  S2  1  0.21070  0.23284  0.97786  1
 S  S3  1  0.78930  0.76716  0.02214  1
 S  S4  1  0.75499  0.23284  0.52214  1
 S  S5  1  0.23284  0.21070  0.47786  1
 S  S6  1  0.76716  0.24501  0.97786  1
 S  S7  1  0.23284  0.75499  0.02214  1
 S  S8  1  0.24501  0.76716  0.47786  1
