CIF file written using JARVIS-Tools package.
data_LiCuO
_symmetry_space_group_name_H-M  'I4/mmm'
_cell_length_a       3.81501
_cell_length_b       6.30496
_cell_length_c       6.30496
_cell_angle_alpha    84.7483
_cell_angle_beta     72.3898
_cell_angle_gamma    72.3898

_symmetry_Int_Tables_number  139
_chemical_formula_structural  LiCuO
_chemical_formula_sum  Li4Cu4O4
_cell_volume  137.77532737043543
_cell_formula_units_Z  4
loop_
  _symmetry_equiv_pos_site_id
 _symmetry_equiv_pos_as_xyz
 1  'x, y, z'
loop_
 _atom_site_type_symbol
 _atom_site_label
 _atom_site_symmetry_multiplicity
 _atom_site_fract_x
 _atom_site_fract_y
 _atom_site_fract_z
 _atom_site_fract_occupancy
 Cu  Cu1  1  0.90933  0.50000  0.18134  1
 Cu  Cu2  1  0.90933  0.18134  0.50000  1
 Cu  Cu3  1  0.59067  0.81866  0.50000  1
 Cu  Cu4  1  0.59067  0.50000  0.81866  1
 Li  Li1  1  0.25000  0.14720  0.85280  1
 Li  Li2  1  0.25000  0.85280  0.14720  1
 Li  Li3  1  0.89720  0.85280  0.85280  1
 Li  Li4  1  0.60280  0.14720  0.14720  1
 O  O1  1  0.75000  0.19010  0.80990  1
 O  O2  1  0.75000  0.80990  0.19010  1
 O  O3  1  0.44010  0.80990  0.80990  1
 O  O4  1  0.05990  0.19010  0.19010  1
