CIF file written using JARVIS-Tools package.
data_AlHO2
_symmetry_space_group_name_H-M  'Pmn2_1'
_cell_length_a       2.8592
_cell_length_b       4.24737
_cell_length_c       4.75112
_cell_angle_alpha    90
_cell_angle_beta     90
_cell_angle_gamma    90

_symmetry_Int_Tables_number  31
_chemical_formula_structural  AlHO2
_chemical_formula_sum  Al2H2O4
_cell_volume  57.697902873771206
_cell_formula_units_Z  2
loop_
  _symmetry_equiv_pos_site_id
 _symmetry_equiv_pos_as_xyz
 1  'x, y, z'
loop_
 _atom_site_type_symbol
 _atom_site_label
 _atom_site_symmetry_multiplicity
 _atom_site_fract_x
 _atom_site_fract_y
 _atom_site_fract_z
 _atom_site_fract_occupancy
 Al  Al1  1  0.50000  0.27371  0.49204  1
 Al  Al2  1  0.00000  0.72629  0.99204  1
 H  H1  1  0.50000  0.20001  0.97659  1
 H  H2  1  0.00000  0.79999  0.47659  1
 O  O1  1  0.00000  0.50250  0.64923  1
 O  O2  1  0.50000  0.49750  0.14923  1
 O  O3  1  0.00000  -0.00157  0.34755  1
 O  O4  1  0.50000  0.00157  0.84755  1
