CIF file written using JARVIS-Tools package.
data_LiMgIn2
_symmetry_space_group_name_H-M  'I4/mmm'
_cell_length_a       12.2875
_cell_length_b       8.44431
_cell_length_c       8.44432
_cell_angle_alpha    32.5379
_cell_angle_beta     19.4092
_cell_angle_gamma    19.4095

_symmetry_Int_Tables_number  139
_chemical_formula_structural  LiMgIn2
_chemical_formula_sum  LiMgIn2
_cell_volume  87.75086165991834
_cell_formula_units_Z  1
loop_
  _symmetry_equiv_pos_site_id
 _symmetry_equiv_pos_as_xyz
 1  'x, y, z'
loop_
 _atom_site_type_symbol
 _atom_site_label
 _atom_site_symmetry_multiplicity
 _atom_site_fract_x
 _atom_site_fract_y
 _atom_site_fract_z
 _atom_site_fract_occupancy
 In  In1  1  0.74989  0.00013  0.00005  1
 In  In2  1  0.25011  -0.00013  -0.00005  1
 Li  Li1  1  -0.00000  -0.00000  0.00000  1
 Mg  Mg1  1  0.50000  0.00000  -0.00000  1
