CIF file written using JARVIS-Tools package.
data_AgClO3
_symmetry_space_group_name_H-M  'P2_1/c'
_cell_length_a       6.90952
_cell_length_b       5.27755
_cell_length_c       8.52029
_cell_angle_alpha    90
_cell_angle_beta     111.046
_cell_angle_gamma    90

_symmetry_Int_Tables_number  14
_chemical_formula_structural  AgClO3
_chemical_formula_sum  Ag4Cl4O2
_cell_volume  289.96936678690224
_cell_formula_units_Z  4
loop_
  _symmetry_equiv_pos_site_id
 _symmetry_equiv_pos_as_xyz
 1  'x, y, z'
loop_
 _atom_site_type_symbol
 _atom_site_label
 _atom_site_symmetry_multiplicity
 _atom_site_fract_x
 _atom_site_fract_y
 _atom_site_fract_z
 _atom_site_fract_occupancy
 Ag  Ag1  1  0.30395  0.24666  0.82814  1
 Ag  Ag2  1  0.69605  0.74666  0.67186  1
 Ag  Ag3  1  0.30395  0.25334  0.32814  1
 Ag  Ag4  1  0.69605  0.75334  0.17186  1
 Cl  Cl1  1  0.82692  0.23771  0.96309  1
 Cl  Cl2  1  0.17308  0.73771  0.53691  1
 Cl  Cl3  1  0.82692  0.26229  0.46309  1
 Cl  Cl4  1  0.17308  0.76229  0.03691  1
 O  O1  1  0.09844  0.84545  0.85557  1
 O  O2  1  0.25511  0.49397  0.04480  1
 O  O3  1  0.64033  0.07181  0.87108  1
 O  O4  1  0.35967  0.57181  0.62892  1
 O  O5  1  0.74489  0.50603  0.95520  1
 O  O6  1  0.64033  0.42819  0.37108  1
 O  O7  1  0.09844  0.65455  0.35557  1
 O  O8  1  0.74489  0.99397  0.45520  1
 O  O9  1  0.25511  0.00603  0.54480  1
 O  O10  1  0.35967  0.92819  0.12892  1
 O  O11  1  0.90156  0.34545  0.64443  1
 O  O12  1  0.90156  0.15455  0.14443  1
