CIF file written using JARVIS-Tools package.
data_Sb4O5F2
_symmetry_space_group_name_H-M  'P2_1/c'
_cell_length_a       5.69448
_cell_length_b       5.12272
_cell_length_c       13.5424
_cell_angle_alpha    90
_cell_angle_beta     94.5777
_cell_angle_gamma    90

_symmetry_Int_Tables_number  14
_chemical_formula_structural  Sb4O5F2
_chemical_formula_sum  Sb8O0F4
_cell_volume  393.788424212337
_cell_formula_units_Z  2
loop_
  _symmetry_equiv_pos_site_id
 _symmetry_equiv_pos_as_xyz
 1  'x, y, z'
loop_
 _atom_site_type_symbol
 _atom_site_label
 _atom_site_symmetry_multiplicity
 _atom_site_fract_x
 _atom_site_fract_y
 _atom_site_fract_z
 _atom_site_fract_occupancy
 F  F1  1  0.52103  0.80371  0.13802  1
 F  F2  1  0.47897  0.19629  0.86198  1
 F  F3  1  0.47897  0.30371  0.36198  1
 F  F4  1  0.52103  0.69629  0.63802  1
 O  O1  1  0.00000  0.50000  0.00000  1
 O  O2  1  0.07200  0.01377  0.91610  1
 O  O3  1  0.00000  0.00000  0.50000  1
 O  O4  1  0.07200  0.48623  0.41610  1
 O  O5  1  0.10426  0.18232  0.70612  1
 O  O6  1  0.10426  0.31768  0.20612  1
 O  O7  1  0.89574  0.68232  0.79388  1
 O  O8  1  0.92800  0.51377  0.58390  1
 O  O9  1  0.92800  0.98623  0.08390  1
 O  O10  1  0.89574  0.81768  0.29388  1
 Sb  Sb1  1  0.75839  0.09497  0.20421  1
 Sb  Sb2  1  0.79605  0.72271  0.44756  1
 Sb  Sb3  1  0.75839  0.40503  0.70421  1
 Sb  Sb4  1  0.79605  0.77729  0.94756  1
 Sb  Sb5  1  0.20395  0.22271  0.05244  1
 Sb  Sb6  1  0.24161  0.59497  0.29579  1
 Sb  Sb7  1  0.20395  0.27729  0.55244  1
 Sb  Sb8  1  0.24161  0.90503  0.79579  1
