CIF file written using JARVIS-Tools package.
data_Ca2TlHg
_symmetry_space_group_name_H-M  'Immm'
_cell_length_a       12.591
_cell_length_b       7.28147
_cell_length_c       7.28146
_cell_angle_alpha    29.4186
_cell_angle_beta     30.1641
_cell_angle_gamma    30.1641

_symmetry_Int_Tables_number  71
_chemical_formula_structural  Ca2TlHg
_chemical_formula_sum  Ca2TlHg
_cell_volume  146.99652551157618
_cell_formula_units_Z  1
loop_
  _symmetry_equiv_pos_site_id
 _symmetry_equiv_pos_as_xyz
 1  'x, y, z'
loop_
 _atom_site_type_symbol
 _atom_site_label
 _atom_site_symmetry_multiplicity
 _atom_site_fract_x
 _atom_site_fract_y
 _atom_site_fract_z
 _atom_site_fract_occupancy
 Ca  Ca1  1  0.75973  0.00000  -0.00000  1
 Ca  Ca2  1  0.24027  -0.00000  0.00000  1
 Hg  Hg1  1  0.00000  0.00000  0.00000  1
 Tl  Tl1  1  0.50000  0.00000  0.00000  1
