CIF file written using JARVIS-Tools package.
data_Ho3ScO6
_symmetry_space_group_name_H-M  'R-3'
_cell_length_a       6.55612
_cell_length_b       6.55612
_cell_length_c       6.55612
_cell_angle_alpha    92.0978
_cell_angle_beta     92.0977
_cell_angle_gamma    92.0977

_symmetry_Int_Tables_number  148
_chemical_formula_structural  Ho3ScO6
_chemical_formula_sum  Ho6Sc2O2
_cell_volume  281.21846514602623
_cell_formula_units_Z  2
loop_
  _symmetry_equiv_pos_site_id
 _symmetry_equiv_pos_as_xyz
 1  'x, y, z'
loop_
 _atom_site_type_symbol
 _atom_site_label
 _atom_site_symmetry_multiplicity
 _atom_site_fract_x
 _atom_site_fract_y
 _atom_site_fract_z
 _atom_site_fract_occupancy
 Ho  Ho1  1  0.43858  0.74681  0.93105  1
 Ho  Ho2  1  0.74681  0.93105  0.43858  1
 Ho  Ho3  1  0.56142  0.25319  0.06895  1
 Ho  Ho4  1  0.06895  0.56142  0.25319  1
 Ho  Ho5  1  0.25319  0.06895  0.56142  1
 Ho  Ho6  1  0.93105  0.43858  0.74681  1
 O  O1  1  0.53712  0.19296  0.40701  1
 O  O2  1  0.19296  0.40701  0.53712  1
 O  O3  1  0.59299  0.46288  0.80704  1
 O  O4  1  0.46288  0.80704  0.59299  1
 O  O5  1  0.80704  0.59299  0.46288  1
 O  O6  1  0.92940  0.08598  0.69330  1
 O  O7  1  0.07060  0.91402  0.30670  1
 O  O8  1  0.40701  0.53712  0.19296  1
 O  O9  1  0.30670  0.07060  0.91402  1
 O  O10  1  0.69330  0.92940  0.08598  1
 O  O11  1  0.08598  0.69330  0.92940  1
 O  O12  1  0.91402  0.30670  0.07060  1
 Sc  Sc1  1  0.50000  0.50000  0.50000  1
 Sc  Sc2  1  0.00000  0.00000  0.00000  1
