CIF file written using JARVIS-Tools package.
data_Bi2SeO2
_symmetry_space_group_name_H-M  'I4/mmm'
_cell_length_a       4.19379
_cell_length_b       4.19421
_cell_length_c       5.99294
_cell_angle_alpha    110.553
_cell_angle_beta     110.552
_cell_angle_gamma    90.0022

_symmetry_Int_Tables_number  139
_chemical_formula_structural  Bi2SeO2
_chemical_formula_sum  Bi2SeO2
_cell_volume  91.50343353282896
_cell_formula_units_Z  1
loop_
  _symmetry_equiv_pos_site_id
 _symmetry_equiv_pos_as_xyz
 1  'x, y, z'
loop_
 _atom_site_type_symbol
 _atom_site_label
 _atom_site_symmetry_multiplicity
 _atom_site_fract_x
 _atom_site_fract_y
 _atom_site_fract_z
 _atom_site_fract_occupancy
 Bi  Bi1  1  0.68933  0.68933  0.37977  1
 Bi  Bi2  1  0.31067  0.31067  0.62023  1
 O  O1  1  0.50000  -0.00000  0.00000  1
 O  O2  1  0.00000  0.50000  -0.00000  1
 Se  Se1  1  -0.00000  -0.00000  0.00000  1
