CIF file written using JARVIS-Tools package.
data_Li2CaTa2O7
_symmetry_space_group_name_H-M  'I4/mmm'
_cell_length_a       3.94999
_cell_length_b       3.94999
_cell_length_c       9.53631
_cell_angle_alpha    101.951
_cell_angle_beta     101.951
_cell_angle_gamma    90.0042

_symmetry_Int_Tables_number  139
_chemical_formula_structural  Li2CaTa2O7
_chemical_formula_sum  Li2CaTa2O7
_cell_volume  142.2654426131626
_cell_formula_units_Z  1
loop_
  _symmetry_equiv_pos_site_id
 _symmetry_equiv_pos_as_xyz
 1  'x, y, z'
loop_
 _atom_site_type_symbol
 _atom_site_label
 _atom_site_symmetry_multiplicity
 _atom_site_fract_x
 _atom_site_fract_y
 _atom_site_fract_z
 _atom_site_fract_occupancy
 Ca  Ca1  1  0.00000  0.00000  0.00000  1
 Li  Li1  1  0.25001  0.74999  0.50000  1
 Li  Li2  1  0.74999  0.25001  0.50000  1
 O  O1  1  0.10086  0.60086  0.20173  1
 O  O2  1  0.28238  0.28238  0.56476  1
 O  O3  1  0.39914  0.89914  0.79827  1
 O  O4  1  0.89914  0.39914  0.79827  1
 O  O5  1  0.71762  0.71762  0.43524  1
 O  O6  1  0.60086  0.10086  0.20173  1
 O  O7  1  0.50000  0.50000  0.00000  1
 Ta  Ta1  1  0.61328  0.61328  0.22655  1
 Ta  Ta2  1  0.38672  0.38672  0.77345  1
