CIF file written using JARVIS-Tools package.
data_AlZnH4O2F5
_symmetry_space_group_name_H-M  'Imma'
_cell_length_a       6.40368
_cell_length_b       7.16247
_cell_length_c       7.16246
_cell_angle_alpha    61.1706
_cell_angle_beta     63.4466
_cell_angle_gamma    63.4466

_symmetry_Int_Tables_number  74
_chemical_formula_structural  AlZnH4O2F5
_chemical_formula_sum  Al2Zn2H8O4F0
_cell_volume  245.95470945174492
_cell_formula_units_Z  2
loop_
  _symmetry_equiv_pos_site_id
 _symmetry_equiv_pos_as_xyz
 1  'x, y, z'
loop_
 _atom_site_type_symbol
 _atom_site_label
 _atom_site_symmetry_multiplicity
 _atom_site_fract_x
 _atom_site_fract_y
 _atom_site_fract_z
 _atom_site_fract_occupancy
 Al  Al1  1  0.50000  0.50000  -0.00000  1
 Al  Al2  1  0.50000  -0.00000  0.50000  1
 F  F1  1  0.44267  0.75000  0.75000  1
 F  F2  1  0.55733  0.25000  0.25000  1
 F  F3  1  0.42501  0.91067  0.34531  1
 F  F4  1  0.57499  0.65469  0.08933  1
 F  F5  1  0.57499  0.08933  0.65469  1
 F  F6  1  0.18099  0.15469  0.58933  1
 F  F7  1  0.18099  0.58933  0.15469  1
 F  F8  1  0.81901  0.41067  0.84531  1
 F  F9  1  0.42501  0.34531  0.91067  1
 F  F10  1  0.81901  0.84531  0.41067  1
 H  H1  1  0.03139  0.20092  0.98237  1
 H  H2  1  0.28532  0.48237  0.70092  1
 H  H3  1  0.71468  0.29908  0.51763  1
 H  H4  1  0.96861  0.79908  0.01763  1
 H  H5  1  0.96861  0.01763  0.79908  1
 H  H6  1  0.03139  0.98237  0.20092  1
 H  H7  1  0.28532  0.70092  0.48237  1
 H  H8  1  0.71468  0.51763  0.29908  1
 O  O1  1  0.77539  0.43107  0.43107  1
 O  O2  1  0.22461  0.56893  0.56893  1
 O  O3  1  0.13754  0.06893  0.06893  1
 O  O4  1  0.86246  0.93107  0.93107  1
 Zn  Zn1  1  0.00000  0.50000  0.50000  1
 Zn  Zn2  1  0.50000  0.00000  0.00000  1
