CIF file written using JARVIS-Tools package.
data_Ca2HgAu
_symmetry_space_group_name_H-M  'C2/m'
_cell_length_a       12.5513
_cell_length_b       8.86614
_cell_length_c       8.86614
_cell_angle_alpha    34.0762
_cell_angle_beta     19.8104
_cell_angle_gamma    19.8103

_symmetry_Int_Tables_number  12
_chemical_formula_structural  Ca2HgAu
_chemical_formula_sum  Ca2HgAu
_cell_volume  98.47025558998797
_cell_formula_units_Z  1
loop_
  _symmetry_equiv_pos_site_id
 _symmetry_equiv_pos_as_xyz
 1  'x, y, z'
loop_
 _atom_site_type_symbol
 _atom_site_label
 _atom_site_symmetry_multiplicity
 _atom_site_fract_x
 _atom_site_fract_y
 _atom_site_fract_z
 _atom_site_fract_occupancy
 Au  Au1  1  0.00000  0.00000  0.00000  1
 Ca  Ca1  1  0.75116  -0.00051  -0.00051  1
 Ca  Ca2  1  0.24884  0.00051  0.00051  1
 Hg  Hg1  1  0.50000  -0.00000  -0.00000  1
