CIF file written using JARVIS-Tools package.
data_La2MoO6
_symmetry_space_group_name_H-M  'I-42m'
_cell_length_a       4.298
_cell_length_b       4.29798
_cell_length_c       8.66684
_cell_angle_alpha    104.34
_cell_angle_beta     104.34
_cell_angle_gamma    89.9991

_symmetry_Int_Tables_number  121
_chemical_formula_structural  La2MoO6
_chemical_formula_sum  La2MoO6
_cell_volume  149.9578970709186
_cell_formula_units_Z  1
loop_
  _symmetry_equiv_pos_site_id
 _symmetry_equiv_pos_as_xyz
 1  'x, y, z'
loop_
 _atom_site_type_symbol
 _atom_site_label
 _atom_site_symmetry_multiplicity
 _atom_site_fract_x
 _atom_site_fract_y
 _atom_site_fract_z
 _atom_site_fract_occupancy
 La  La1  1  0.18010  0.18010  0.35981  1
 La  La2  1  0.82000  0.82000  0.64018  1
 Mo  Mo1  1  0.49994  0.49994  -0.00000  1
 O  O1  1  0.33441  0.79826  0.13302  1
 O  O2  1  0.20161  0.20161  0.86691  1
 O  O3  1  0.79826  0.33441  0.13302  1
 O  O4  1  0.66553  0.66553  0.86705  1
 O  O5  1  0.75010  0.25007  0.50000  1
 O  O6  1  0.25007  0.75010  0.50000  1
