CIF file written using JARVIS-Tools package.
data_Ti3N2O3
_symmetry_space_group_name_H-M  'Cmc2_1'
_cell_length_a       3.76625
_cell_length_b       5.30498
_cell_length_c       10.0262
_cell_angle_alpha    90
_cell_angle_beta     90
_cell_angle_gamma    69.2082

_symmetry_Int_Tables_number  36
_chemical_formula_structural  Ti3N2O3
_chemical_formula_sum  Ti6N4O6
_cell_volume  187.27760012630796
_cell_formula_units_Z  2
loop_
  _symmetry_equiv_pos_site_id
 _symmetry_equiv_pos_as_xyz
 1  'x, y, z'
loop_
 _atom_site_type_symbol
 _atom_site_label
 _atom_site_symmetry_multiplicity
 _atom_site_fract_x
 _atom_site_fract_y
 _atom_site_fract_z
 _atom_site_fract_occupancy
 N  N1  1  0.04672  0.90655  0.38225  1
 N  N2  1  0.69665  0.60669  0.57641  1
 N  N3  1  0.30335  0.39331  0.07641  1
 N  N4  1  0.95328  0.09345  0.88225  1
 O  O1  1  0.04516  0.90968  0.11968  1
 O  O2  1  0.68532  0.62936  0.92273  1
 O  O3  1  0.75444  0.49111  0.26068  1
 O  O4  1  0.24556  0.50889  0.76068  1
 O  O5  1  0.31468  0.37064  0.42273  1
 O  O6  1  0.95484  0.09032  0.61968  1
 Ti  Ti1  1  0.13347  0.73307  0.94141  1
 Ti  Ti2  1  0.13492  0.73016  0.55086  1
 Ti  Ti3  1  0.19537  0.60926  0.24599  1
 Ti  Ti4  1  0.80463  0.39074  0.74599  1
 Ti  Ti5  1  0.86508  0.26984  0.05086  1
 Ti  Ti6  1  0.86653  0.26693  0.44141  1
