CIF file written using JARVIS-Tools package.
data_VO2
_symmetry_space_group_name_H-M  'C2/m'
_cell_length_a       3.71876
_cell_length_b       6.29699
_cell_length_c       6.42037
_cell_angle_alpha    106.209
_cell_angle_beta     89.9991
_cell_angle_gamma    107.173

_symmetry_Int_Tables_number  12
_chemical_formula_structural  VO2
_chemical_formula_sum  V4O8
_cell_volume  137.37634748362416
_cell_formula_units_Z  4
loop_
  _symmetry_equiv_pos_site_id
 _symmetry_equiv_pos_as_xyz
 1  'x, y, z'
loop_
 _atom_site_type_symbol
 _atom_site_label
 _atom_site_symmetry_multiplicity
 _atom_site_fract_x
 _atom_site_fract_y
 _atom_site_fract_z
 _atom_site_fract_occupancy
 O  O1  1  0.36253  0.72509  0.99420  1
 O  O2  1  0.63747  0.27491  0.00580  1
 O  O3  1  0.23467  0.46933  0.34528  1
 O  O4  1  0.76533  0.53067  0.65472  1
 O  O5  1  0.44123  0.88249  0.63287  1
 O  O6  1  0.55877  0.11751  0.36713  1
 O  O7  1  0.13507  0.27014  0.70219  1
 O  O8  1  0.86493  0.72986  0.29781  1
 V  V1  1  0.30288  0.60579  0.71601  1
 V  V2  1  0.69712  0.39421  0.28399  1
 V  V3  1  0.39996  0.79993  0.29459  1
 V  V4  1  0.60004  0.20007  0.70541  1
