CIF file written using JARVIS-Tools package.
data_ZnSnF4
_symmetry_space_group_name_H-M  'P-1'
_cell_length_a       5.08488
_cell_length_b       5.4907
_cell_length_c       6.67412
_cell_angle_alpha    107.741
_cell_angle_beta     110.609
_cell_angle_gamma    89.6258

_symmetry_Int_Tables_number  2
_chemical_formula_structural  ZnSnF4
_chemical_formula_sum  Zn2Sn2F8
_cell_volume  165.05586101573203
_cell_formula_units_Z  2
loop_
  _symmetry_equiv_pos_site_id
 _symmetry_equiv_pos_as_xyz
 1  'x, y, z'
loop_
 _atom_site_type_symbol
 _atom_site_label
 _atom_site_symmetry_multiplicity
 _atom_site_fract_x
 _atom_site_fract_y
 _atom_site_fract_z
 _atom_site_fract_occupancy
 F  F1  1  0.43651  0.70925  0.18737  1
 F  F2  1  0.06706  0.78901  0.81696  1
 F  F3  1  0.61801  0.08929  0.62998  1
 F  F4  1  0.49316  0.60184  0.63235  1
 F  F5  1  0.88563  0.40901  0.37435  1
 F  F6  1  0.01042  0.89645  0.37197  1
 F  F7  1  0.27096  0.22263  0.19352  1
 F  F8  1  0.23269  0.27562  0.81084  1
 Sn  Sn1  1  0.00665  0.51139  0.03715  1
 Sn  Sn2  1  0.49695  0.98680  0.96718  1
 Zn  Zn1  1  0.25179  0.24913  0.50217  1
 Zn  Zn2  1  0.75180  0.74913  0.50216  1
