CIF file written using JARVIS-Tools package.
data_HfB4H16
_symmetry_space_group_name_H-M  'P-43m'
_cell_length_a       5.75059
_cell_length_b       5.75059
_cell_length_c       5.75059
_cell_angle_alpha    90
_cell_angle_beta     90
_cell_angle_gamma    90

_symmetry_Int_Tables_number  215
_chemical_formula_structural  HfB4H16
_chemical_formula_sum  HfB4H6
_cell_volume  190.167798561357
_cell_formula_units_Z  1
loop_
  _symmetry_equiv_pos_site_id
 _symmetry_equiv_pos_as_xyz
 1  'x, y, z'
loop_
 _atom_site_type_symbol
 _atom_site_label
 _atom_site_symmetry_multiplicity
 _atom_site_fract_x
 _atom_site_fract_y
 _atom_site_fract_z
 _atom_site_fract_occupancy
 B  B1  1  0.22996  0.77004  0.77004  1
 B  B2  1  0.77004  0.77004  0.22996  1
 B  B3  1  0.77004  0.22996  0.77004  1
 B  B4  1  0.22996  0.22996  0.22996  1
 H  H1  1  0.34964  0.65036  0.65036  1
 H  H2  1  0.73831  0.73831  0.01708  1
 H  H3  1  0.26169  0.98292  0.73831  1
 H  H4  1  0.98292  0.26169  0.73831  1
 H  H5  1  0.26169  0.01708  0.26169  1
 H  H6  1  0.01708  0.26169  0.26169  1
 H  H7  1  0.26169  0.73831  0.98292  1
 H  H8  1  0.34964  0.34964  0.34964  1
 H  H9  1  0.73831  0.26169  0.98292  1
 H  H10  1  0.65036  0.34964  0.65036  1
 H  H11  1  0.26169  0.26169  0.01708  1
 H  H12  1  0.73831  0.01708  0.73831  1
 H  H13  1  0.73831  0.98292  0.26169  1
 H  H14  1  0.98292  0.73831  0.26169  1
 H  H15  1  0.01708  0.73831  0.73831  1
 H  H16  1  0.65036  0.65036  0.34964  1
 Hf  Hf1  1  0.00000  0.00000  0.00000  1
