CIF file written using JARVIS-Tools package.
data_SmAsO4
_symmetry_space_group_name_H-M  'I4_1/amd'
_cell_length_a       6.05446
_cell_length_b       6.05447
_cell_length_c       6.05446
_cell_angle_alpha    106.575
_cell_angle_beta     106.575
_cell_angle_gamma    115.434

_symmetry_Int_Tables_number  141
_chemical_formula_structural  SmAsO4
_chemical_formula_sum  Sm2As2O8
_cell_volume  169.4443295819706
_cell_formula_units_Z  2
loop_
  _symmetry_equiv_pos_site_id
 _symmetry_equiv_pos_as_xyz
 1  'x, y, z'
loop_
 _atom_site_type_symbol
 _atom_site_label
 _atom_site_symmetry_multiplicity
 _atom_site_fract_x
 _atom_site_fract_y
 _atom_site_fract_z
 _atom_site_fract_occupancy
 As  As1  1  0.37500  0.62500  0.75000  1
 As  As2  1  0.62500  0.37500  0.25000  1
 O  O1  1  0.79759  0.72805  0.43046  1
 O  O2  1  0.36713  0.79759  0.56954  1
 O  O3  1  0.72805  0.79759  0.93046  1
 O  O4  1  0.79759  0.36713  0.06954  1
 O  O5  1  0.63287  0.20241  0.43046  1
 O  O6  1  0.20241  0.27195  0.56954  1
 O  O7  1  0.20241  0.63287  0.93046  1
 O  O8  1  0.27195  0.20241  0.06954  1
 Sm  Sm1  1  0.12500  0.87500  0.25000  1
 Sm  Sm2  1  0.87500  0.12500  0.75000  1
