CIF file written using JARVIS-Tools package.
data_BaAg2Hg2O4
_symmetry_space_group_name_H-M  'P4/nbm'
_cell_length_a       6.89317
_cell_length_b       6.89317
_cell_length_c       7.09705
_cell_angle_alpha    90
_cell_angle_beta     90
_cell_angle_gamma    90

_symmetry_Int_Tables_number  125
_chemical_formula_structural  BaAg2Hg2O4
_chemical_formula_sum  Ba2Ag4Hg4O8
_cell_volume  337.2221668174098
_cell_formula_units_Z  2
loop_
  _symmetry_equiv_pos_site_id
 _symmetry_equiv_pos_as_xyz
 1  'x, y, z'
loop_
 _atom_site_type_symbol
 _atom_site_label
 _atom_site_symmetry_multiplicity
 _atom_site_fract_x
 _atom_site_fract_y
 _atom_site_fract_z
 _atom_site_fract_occupancy
 Ag  Ag1  1  0.25000  0.75000  0.50000  1
 Ag  Ag2  1  0.75000  0.25000  0.50000  1
 Ag  Ag3  1  0.75000  0.75000  0.50000  1
 Ag  Ag4  1  0.25000  0.25000  0.50000  1
 Ba  Ba1  1  0.00000  0.00000  0.00000  1
 Ba  Ba2  1  0.50000  0.50000  0.00000  1
 Hg  Hg1  1  0.00000  0.50000  0.22027  1
 Hg  Hg2  1  0.00000  0.50000  0.77973  1
 Hg  Hg3  1  0.50000  0.00000  0.77973  1
 Hg  Hg4  1  0.50000  0.00000  0.22027  1
 O  O1  1  0.70939  0.79061  0.21075  1
 O  O2  1  0.29061  0.20939  0.21075  1
 O  O3  1  0.29061  0.79061  0.78925  1
 O  O4  1  0.20939  0.70939  0.21075  1
 O  O5  1  0.70939  0.20939  0.78925  1
 O  O6  1  0.79061  0.29061  0.21075  1
 O  O7  1  0.20939  0.29061  0.78925  1
 O  O8  1  0.79061  0.70939  0.78925  1
