CIF file written using JARVIS-Tools package.
data_Pb2O3
_symmetry_space_group_name_H-M  'Pmn2_1'
_cell_length_a       3.56539
_cell_length_b       5.74056
_cell_length_c       7.35484
_cell_angle_alpha    90
_cell_angle_beta     90.006
_cell_angle_gamma    90

_symmetry_Int_Tables_number  31
_chemical_formula_structural  Pb2O3
_chemical_formula_sum  Pb4O6
_cell_volume  150.53388401621126
_cell_formula_units_Z  2
loop_
  _symmetry_equiv_pos_site_id
 _symmetry_equiv_pos_as_xyz
 1  'x, y, z'
loop_
 _atom_site_type_symbol
 _atom_site_label
 _atom_site_symmetry_multiplicity
 _atom_site_fract_x
 _atom_site_fract_y
 _atom_site_fract_z
 _atom_site_fract_occupancy
 O  O1  1  0.25005  0.92026  0.14035  1
 O  O2  1  0.25001  0.42157  0.14980  1
 O  O3  1  0.75003  0.70910  0.40918  1
 O  O4  1  0.24997  0.20910  0.59082  1
 O  O5  1  0.74999  0.92157  0.85020  1
 O  O6  1  0.74995  0.42026  0.85965  1
 Pb  Pb1  1  0.75002  0.66725  0.10122  1
 Pb  Pb2  1  0.74988  0.14782  0.38362  1
 Pb  Pb3  1  0.25012  0.64782  0.61638  1
 Pb  Pb4  1  0.24998  0.16725  0.89878  1
