CIF file written using JARVIS-Tools package.
data_TiO2
_symmetry_space_group_name_H-M  'P4_2/mnm'
_cell_length_a       5.50372
_cell_length_b       5.50371
_cell_length_c       5.94388
_cell_angle_alpha    57.3172
_cell_angle_beta     57.3172
_cell_angle_gamma    73.0456

_symmetry_Int_Tables_number  136
_chemical_formula_structural  TiO2
_chemical_formula_sum  Ti4O8
_cell_volume  127.54618611829846
_cell_formula_units_Z  4
loop_
  _symmetry_equiv_pos_site_id
 _symmetry_equiv_pos_as_xyz
 1  'x, y, z'
loop_
 _atom_site_type_symbol
 _atom_site_label
 _atom_site_symmetry_multiplicity
 _atom_site_fract_x
 _atom_site_fract_y
 _atom_site_fract_z
 _atom_site_fract_occupancy
 O  O1  1  0.32076  0.32076  0.42929  1
 O  O2  1  0.42928  0.82079  0.37496  1
 O  O3  1  0.32076  0.32076  0.92920  1
 O  O4  1  0.82079  0.42928  0.37496  1
 O  O5  1  0.42921  0.82072  0.87504  1
 O  O6  1  0.82072  0.42921  0.87504  1
 O  O7  1  0.92924  0.92924  0.32080  1
 O  O8  1  0.92924  0.92924  0.82071  1
 Ti  Ti1  1  0.12498  0.12498  0.87502  1
 Ti  Ti2  1  0.12502  0.12502  0.37498  1
 Ti  Ti3  1  0.62500  0.62500  0.12500  1
 Ti  Ti4  1  0.62500  0.62500  0.62500  1
