CIF file written using JARVIS-Tools package.
data_MnTeMoO6
_symmetry_space_group_name_H-M  'P2_12_12'
_cell_length_a       5.118
_cell_length_b       5.33908
_cell_length_c       8.95426
_cell_angle_alpha    90
_cell_angle_beta     90
_cell_angle_gamma    90

_symmetry_Int_Tables_number  18
_chemical_formula_structural  MnTeMoO6
_chemical_formula_sum  Mn2Te2Mo2O2
_cell_volume  244.678521210295
_cell_formula_units_Z  2
loop_
  _symmetry_equiv_pos_site_id
 _symmetry_equiv_pos_as_xyz
 1  'x, y, z'
loop_
 _atom_site_type_symbol
 _atom_site_label
 _atom_site_symmetry_multiplicity
 _atom_site_fract_x
 _atom_site_fract_y
 _atom_site_fract_z
 _atom_site_fract_occupancy
 Mn  Mn1  1  0.00000  0.00000  0.47372  1
 Mn  Mn2  1  0.50000  0.50000  0.52628  1
 Mo  Mo1  1  0.50000  0.00000  0.18678  1
 Mo  Mo2  1  0.00000  0.50000  0.81322  1
 O  O1  1  0.71802  0.17285  0.61168  1
 O  O2  1  0.21802  0.32715  0.38832  1
 O  O3  1  0.24326  0.82161  0.29103  1
 O  O4  1  0.28198  0.82715  0.61168  1
 O  O5  1  0.78198  0.67285  0.38832  1
 O  O6  1  0.25674  0.32161  0.70897  1
 O  O7  1  0.65683  0.79060  0.07066  1
 O  O8  1  0.75674  0.17839  0.29103  1
 O  O9  1  0.34317  0.20940  0.07066  1
 O  O10  1  0.84317  0.29060  0.92934  1
 O  O11  1  0.15683  0.70940  0.92934  1
 O  O12  1  0.74326  0.67839  0.70897  1
 Te  Te1  1  0.50000  0.00000  0.75364  1
 Te  Te2  1  0.00000  0.50000  0.24636  1
