CIF file written using JARVIS-Tools package.
data_Li3CuS2
_symmetry_space_group_name_H-M  'P4_2/nmc'
_cell_length_a       5.30156
_cell_length_b       5.30203
_cell_length_c       12.1033
_cell_angle_alpha    90
_cell_angle_beta     90
_cell_angle_gamma    90

_symmetry_Int_Tables_number  137
_chemical_formula_structural  Li3CuS2
_chemical_formula_sum  Li2Cu4S8
_cell_volume  340.2127167826951
_cell_formula_units_Z  4
loop_
  _symmetry_equiv_pos_site_id
 _symmetry_equiv_pos_as_xyz
 1  'x, y, z'
loop_
 _atom_site_type_symbol
 _atom_site_label
 _atom_site_symmetry_multiplicity
 _atom_site_fract_x
 _atom_site_fract_y
 _atom_site_fract_z
 _atom_site_fract_occupancy
 Cu  Cu1  1  0.00000  0.25000  0.75005  1
 Cu  Cu2  1  0.00000  0.75000  0.24995  1
 Cu  Cu3  1  0.50000  0.75000  0.74995  1
 Cu  Cu4  1  0.50000  0.25000  0.25005  1
 Li  Li1  1  0.00000  0.75000  0.74990  1
 Li  Li2  1  0.00000  0.25000  0.25010  1
 Li  Li3  1  0.74989  0.50051  0.42702  1
 Li  Li4  1  0.74989  0.00051  0.57298  1
 Li  Li5  1  0.75011  0.50051  0.92702  1
 Li  Li6  1  0.25011  0.49949  0.57298  1
 Li  Li7  1  0.50000  0.25000  0.75010  1
 Li  Li8  1  0.50000  0.75000  0.24990  1
 Li  Li9  1  0.24989  0.49949  0.07298  1
 Li  Li10  1  0.24989  0.99949  0.92702  1
 Li  Li11  1  0.25011  0.99949  0.42702  1
 Li  Li12  1  0.75011  0.00051  0.07298  1
 S  S1  1  0.24997  0.50008  0.87314  1
 S  S2  1  0.25003  0.50008  0.37314  1
 S  S3  1  0.74997  0.99992  0.37314  1
 S  S4  1  0.74997  0.49992  0.62686  1
 S  S5  1  0.75003  0.99992  0.87314  1
 S  S6  1  0.75003  0.49992  0.12686  1
 S  S7  1  0.24997  0.00008  0.12686  1
 S  S8  1  0.25003  0.00008  0.62686  1
