CIF file written using JARVIS-Tools package.
data_YNi2O4
_symmetry_space_group_name_H-M  'Imma'
_cell_length_a       6.10344
_cell_length_b       6.10344
_cell_length_c       6.10343
_cell_angle_alpha    115.566
_cell_angle_beta     121.278
_cell_angle_gamma    92.8235

_symmetry_Int_Tables_number  74
_chemical_formula_structural  YNi2O4
_chemical_formula_sum  Y2Ni4O8
_cell_volume  163.90822438569586
_cell_formula_units_Z  2
loop_
  _symmetry_equiv_pos_site_id
 _symmetry_equiv_pos_as_xyz
 1  'x, y, z'
loop_
 _atom_site_type_symbol
 _atom_site_label
 _atom_site_symmetry_multiplicity
 _atom_site_fract_x
 _atom_site_fract_y
 _atom_site_fract_z
 _atom_site_fract_occupancy
 Ni  Ni1  1  0.37151  0.62151  0.75000  1
 Ni  Ni2  1  0.62849  0.37849  0.25000  1
 Ni  Ni3  1  0.50000  0.00000  0.50000  1
 Ni  Ni4  1  0.00000  0.00000  0.00000  1
 O  O1  1  0.73307  0.75583  0.52263  1
 O  O2  1  0.73320  0.21044  0.97737  1
 O  O3  1  0.23529  0.23513  0.00017  1
 O  O4  1  0.26693  0.24417  0.47737  1
 O  O5  1  0.26505  0.76488  0.50017  1
 O  O6  1  0.26680  0.78956  0.02263  1
 O  O7  1  0.73495  0.23512  0.49983  1
 O  O8  1  0.76471  0.76487  -0.00017  1
 Y  Y1  1  0.00000  0.50000  0.00000  1
 Y  Y2  1  0.00000  -0.00000  0.50000  1
