CIF file written using JARVIS-Tools package.
data_Na3SO4F
_symmetry_space_group_name_H-M  'P1'
_cell_length_a       6.08329
_cell_length_b       6.09767
_cell_length_c       6.08855
_cell_angle_alpha    77.9727
_cell_angle_beta     78.1833
_cell_angle_gamma    78.052

_symmetry_Int_Tables_number  1
_chemical_formula_structural  Na3SO4F
_chemical_formula_sum  Na3SO4F
_cell_volume  212.99913664789935
_cell_formula_units_Z  1
loop_
  _symmetry_equiv_pos_site_id
 _symmetry_equiv_pos_as_xyz
 1  'x, y, z'
loop_
 _atom_site_type_symbol
 _atom_site_label
 _atom_site_symmetry_multiplicity
 _atom_site_fract_x
 _atom_site_fract_y
 _atom_site_fract_z
 _atom_site_fract_occupancy
 F  F1  1  0.16705  0.17061  0.16839  1
 Na  Na1  1  0.40160  -0.00963  0.40176  1
 Na  Na2  1  0.40274  0.40318  -0.00862  1
 Na  Na3  1  -0.00802  0.40385  0.40361  1
 O  O1  1  0.64889  0.33169  0.64902  1
 O  O2  1  0.32946  0.64671  0.64650  1
 O  O3  1  0.64733  0.64765  0.33028  1
 O  O4  1  0.38553  0.38155  0.38404  1
 S  S1  1  0.50342  0.50238  0.50302  1
