CIF file written using JARVIS-Tools package.
data_YCoO3
_symmetry_space_group_name_H-M  'P6_3cm'
_cell_length_a       6.02788
_cell_length_b       6.02788
_cell_length_c       11.513
_cell_angle_alpha    90
_cell_angle_beta     90
_cell_angle_gamma    120

_symmetry_Int_Tables_number  185
_chemical_formula_structural  YCoO3
_chemical_formula_sum  Y6Co6O8
_cell_volume  362.28452559097013
_cell_formula_units_Z  6
loop_
  _symmetry_equiv_pos_site_id
 _symmetry_equiv_pos_as_xyz
 1  'x, y, z'
loop_
 _atom_site_type_symbol
 _atom_site_label
 _atom_site_symmetry_multiplicity
 _atom_site_fract_x
 _atom_site_fract_y
 _atom_site_fract_z
 _atom_site_fract_occupancy
 Co  Co1  1  0.33423  0.00000  0.50139  1
 Co  Co2  1  0.66577  -0.00000  0.00139  1
 Co  Co3  1  0.66577  0.66577  0.50139  1
 Co  Co4  1  0.33423  0.33423  0.00139  1
 Co  Co5  1  0.00000  0.33423  0.50139  1
 Co  Co6  1  -0.00000  0.66577  0.00139  1
 O  O1  1  0.33333  0.66667  0.51799  1
 O  O2  1  0.36206  0.36206  0.84054  1
 O  O3  1  0.00000  0.00000  0.48198  1
 O  O4  1  0.30354  -0.00000  0.66268  1
 O  O5  1  0.00000  0.00000  0.98198  1
 O  O6  1  0.66667  0.33333  0.01799  1
 O  O7  1  0.00000  0.69646  0.16268  1
 O  O8  1  0.66667  0.33333  0.51799  1
 O  O9  1  0.33333  0.66667  0.01799  1
 O  O10  1  0.36206  0.00000  0.34054  1
 O  O11  1  -0.00000  0.63794  0.84054  1
 O  O12  1  0.69646  0.69646  0.66268  1
 O  O13  1  0.30354  0.30354  0.16268  1
 O  O14  1  -0.00000  0.30354  0.66268  1
 O  O15  1  0.00000  0.36206  0.34054  1
 O  O16  1  0.69646  0.00000  0.16268  1
 O  O17  1  0.63794  -0.00000  0.84054  1
 O  O18  1  0.63794  0.63794  0.34054  1
 Y  Y1  1  0.00000  0.00000  0.28000  1
 Y  Y2  1  0.00000  0.00000  0.78000  1
 Y  Y3  1  0.66667  0.33333  0.23161  1
 Y  Y4  1  0.33333  0.66667  0.73161  1
 Y  Y5  1  0.66667  0.33333  0.73161  1
 Y  Y6  1  0.33333  0.66667  0.23161  1
