CIF file written using JARVIS-Tools package.
data_Sb2Ru
_symmetry_space_group_name_H-M  'Pnnm'
_cell_length_a       3.24332
_cell_length_b       6.02505
_cell_length_c       6.76091
_cell_angle_alpha    90
_cell_angle_beta     90
_cell_angle_gamma    90

_symmetry_Int_Tables_number  58
_chemical_formula_structural  Sb2Ru
_chemical_formula_sum  Sb4Ru2
_cell_volume  132.1160476902506
_cell_formula_units_Z  2
loop_
  _symmetry_equiv_pos_site_id
 _symmetry_equiv_pos_as_xyz
 1  'x, y, z'
loop_
 _atom_site_type_symbol
 _atom_site_label
 _atom_site_symmetry_multiplicity
 _atom_site_fract_x
 _atom_site_fract_y
 _atom_site_fract_z
 _atom_site_fract_occupancy
 Ru  Ru1  1  0.00000  0.00000  0.00000  1
 Ru  Ru2  1  0.50000  0.50000  0.50000  1
 Sb  Sb1  1  0.00000  0.18288  0.35792  1
 Sb  Sb2  1  0.00000  0.81712  0.64208  1
 Sb  Sb3  1  0.50000  0.68288  0.14208  1
 Sb  Sb4  1  0.50000  0.31712  0.85792  1
