CIF file written using JARVIS-Tools package.
data_LiCr2O4
_symmetry_space_group_name_H-M  'C2/m'
_cell_length_a       5.85074
_cell_length_b       5.82981
_cell_length_c       5.72033
_cell_angle_alpha    58.8754
_cell_angle_beta     59.2687
_cell_angle_gamma    59.876

_symmetry_Int_Tables_number  12
_chemical_formula_structural  LiCr2O4
_chemical_formula_sum  Li2Cr4O8
_cell_volume  135.87132209856762
_cell_formula_units_Z  2
loop_
  _symmetry_equiv_pos_site_id
 _symmetry_equiv_pos_as_xyz
 1  'x, y, z'
loop_
 _atom_site_type_symbol
 _atom_site_label
 _atom_site_symmetry_multiplicity
 _atom_site_fract_x
 _atom_site_fract_y
 _atom_site_fract_z
 _atom_site_fract_occupancy
 Cr  Cr1  1  0.00000  0.49999  0.00000  1
 Cr  Cr2  1  0.50000  -0.00001  0.00000  1
 Cr  Cr3  1  0.50000  0.49999  0.00001  1
 Cr  Cr4  1  0.50000  0.50000  0.49999  1
 Li  Li1  1  0.00001  1.00000  0.99998  1
 Li  Li2  1  -0.00000  0.50000  0.50000  1
 O  O1  1  0.26477  0.71295  0.75729  1
 O  O2  1  0.25368  0.26381  0.76048  1
 O  O3  1  0.26079  0.26556  0.21308  1
 O  O4  1  0.27796  0.73643  0.23926  1
 O  O5  1  0.73922  0.73442  0.78693  1
 O  O6  1  0.74632  0.73618  0.23952  1
 O  O7  1  0.72204  0.26356  0.76074  1
 O  O8  1  0.73524  0.28703  0.24272  1
