CIF file written using JARVIS-Tools package.
data_MnH2O2
_symmetry_space_group_name_H-M  'C2/m'
_cell_length_a       2.92577
_cell_length_b       3.20621
_cell_length_c       4.58552
_cell_angle_alpha    90
_cell_angle_beta     93.3607
_cell_angle_gamma    123.225

_symmetry_Int_Tables_number  12
_chemical_formula_structural  MnH2O2
_chemical_formula_sum  MnH2O2
_cell_volume  35.894887886112436
_cell_formula_units_Z  1
loop_
  _symmetry_equiv_pos_site_id
 _symmetry_equiv_pos_as_xyz
 1  'x, y, z'
loop_
 _atom_site_type_symbol
 _atom_site_label
 _atom_site_symmetry_multiplicity
 _atom_site_fract_x
 _atom_site_fract_y
 _atom_site_fract_z
 _atom_site_fract_occupancy
 H  H1  1  0.62561  0.38014  0.55815  1
 H  H2  1  0.37439  0.75454  0.44185  1
 Mn  Mn1  1  0.00000  0.06750  0.00000  1
 O  O1  1  0.67492  0.40493  0.77222  1
 O  O2  1  0.32508  0.73001  0.22778  1
