CIF file written using JARVIS-Tools package.
data_H7NF4
_symmetry_space_group_name_H-M  'R3c'
_cell_length_a       5.96991
_cell_length_b       5.96991
_cell_length_c       5.96992
_cell_angle_alpha    80.2537
_cell_angle_beta     80.2537
_cell_angle_gamma    80.2537

_symmetry_Int_Tables_number  161
_chemical_formula_structural  H7NF4
_chemical_formula_sum  H4N2F8
_cell_volume  204.49230643752773
_cell_formula_units_Z  2
loop_
  _symmetry_equiv_pos_site_id
 _symmetry_equiv_pos_as_xyz
 1  'x, y, z'
loop_
 _atom_site_type_symbol
 _atom_site_label
 _atom_site_symmetry_multiplicity
 _atom_site_fract_x
 _atom_site_fract_y
 _atom_site_fract_z
 _atom_site_fract_occupancy
 F  F1  1  0.24174  0.24174  0.24174  1
 F  F2  1  0.56942  0.94215  0.26947  1
 F  F3  1  0.26947  0.56942  0.94215  1
 F  F4  1  0.94215  0.26947  0.56942  1
 F  F5  1  0.44215  0.06942  0.76947  1
 F  F6  1  0.76947  0.44215  0.06942  1
 F  F7  1  0.06942  0.76947  0.44215  1
 F  F8  1  0.74174  0.74174  0.74174  1
 H  H1  1  0.08386  0.08386  0.08386  1
 H  H2  1  0.43493  0.06585  0.25636  1
 H  H3  1  0.25636  0.43493  0.06585  1
 H  H4  1  0.56585  0.93493  0.75636  1
 H  H5  1  0.75636  0.56585  0.93493  1
 H  H6  1  0.93493  0.75636  0.56585  1
 H  H7  1  0.09065  0.83602  0.98259  1
 H  H8  1  0.98259  0.09065  0.83602  1
 H  H9  1  0.83602  0.98259  0.09065  1
 H  H10  1  0.33602  0.59065  0.48259  1
 H  H11  1  0.48259  0.33602  0.59065  1
 H  H12  1  0.59065  0.48259  0.33602  1
 H  H13  1  0.06585  0.25636  0.43493  1
 H  H14  1  0.58386  0.58386  0.58386  1
 N  N1  1  0.49745  0.49745  0.49745  1
 N  N2  1  -0.00255  -0.00255  -0.00255  1
