CIF file written using JARVIS-Tools package.
data_MgFe2O4
_symmetry_space_group_name_H-M  'Imma'
_cell_length_a       5.70374
_cell_length_b       5.70383
_cell_length_c       5.7007
_cell_angle_alpha    60.0158
_cell_angle_beta     60.0195
_cell_angle_gamma    61.7664

_symmetry_Int_Tables_number  74
_chemical_formula_structural  MgFe2O4
_chemical_formula_sum  Mg2Fe4O8
_cell_volume  132.83832031106886
_cell_formula_units_Z  2
loop_
  _symmetry_equiv_pos_site_id
 _symmetry_equiv_pos_as_xyz
 1  'x, y, z'
loop_
 _atom_site_type_symbol
 _atom_site_label
 _atom_site_symmetry_multiplicity
 _atom_site_fract_x
 _atom_site_fract_y
 _atom_site_fract_z
 _atom_site_fract_occupancy
 Fe  Fe1  1  0.50000  0.00000  0.50000  1
 Fe  Fe2  1  0.00000  -0.00000  0.50000  1
 Fe  Fe3  1  0.50000  0.00000  -0.00000  1
 Fe  Fe4  1  0.50000  0.50000  0.50000  1
 Mg  Mg1  1  0.00000  0.00000  0.00000  1
 Mg  Mg2  1  0.50000  0.50000  -0.00000  1
 O  O1  1  0.28726  0.22643  0.74314  1
 O  O2  1  0.74215  0.24216  0.27156  1
 O  O3  1  0.72643  0.78726  0.74318  1
 O  O4  1  0.25784  0.75785  0.25587  1
 O  O5  1  0.27357  0.21274  0.25682  1
 O  O6  1  0.25785  0.75784  0.72844  1
 O  O7  1  0.74216  0.24215  0.74413  1
 O  O8  1  0.71274  0.77357  0.25686  1
