CIF file written using JARVIS-Tools package.
data_Nb2CrOs
_symmetry_space_group_name_H-M  'Immm'
_cell_length_a       13.0204
_cell_length_b       6.934
_cell_length_c       6.934
_cell_angle_alpha    23.8796
_cell_angle_beta     20.1359
_cell_angle_gamma    20.136

_symmetry_Int_Tables_number  71
_chemical_formula_structural  Nb2CrOs
_chemical_formula_sum  Nb2CrOs
_cell_volume  71.27088026447886
_cell_formula_units_Z  1
loop_
  _symmetry_equiv_pos_site_id
 _symmetry_equiv_pos_as_xyz
 1  'x, y, z'
loop_
 _atom_site_type_symbol
 _atom_site_label
 _atom_site_symmetry_multiplicity
 _atom_site_fract_x
 _atom_site_fract_y
 _atom_site_fract_z
 _atom_site_fract_occupancy
 Cr  Cr1  1  0.00000  0.00000  0.00000  1
 Nb  Nb1  1  0.81790  -0.00000  0.00000  1
 Nb  Nb2  1  0.18210  0.00000  -0.00000  1
 Os  Os1  1  0.50000  -0.00000  0.00000  1
