CIF file written using JARVIS-Tools package.
data_NbHO3
_symmetry_space_group_name_H-M  'P1'
_cell_length_a       6.70275
_cell_length_b       6.70138
_cell_length_c       6.65943
_cell_angle_alpha    109.483
_cell_angle_beta     109.902
_cell_angle_gamma    108.957

_symmetry_Int_Tables_number  1
_chemical_formula_structural  NbHO3
_chemical_formula_sum  Nb4H4O2
_cell_volume  230.4578554929014
_cell_formula_units_Z  4
loop_
  _symmetry_equiv_pos_site_id
 _symmetry_equiv_pos_as_xyz
 1  'x, y, z'
loop_
 _atom_site_type_symbol
 _atom_site_label
 _atom_site_symmetry_multiplicity
 _atom_site_fract_x
 _atom_site_fract_y
 _atom_site_fract_z
 _atom_site_fract_occupancy
 H  H1  1  0.83935  0.28263  0.45841  1
 H  H2  1  0.20836  0.64940  0.45766  1
 H  H3  1  0.47641  0.31863  0.77282  1
 H  H4  1  0.24778  0.19916  0.04329  1
 Nb  Nb1  1  0.02312  0.98664  0.47359  1
 Nb  Nb2  1  0.49473  0.96826  0.98108  1
 Nb  Nb3  1  0.55603  0.53146  0.51292  1
 Nb  Nb4  1  0.99243  0.46291  0.97739  1
 O  O1  1  0.82179  0.13705  0.32777  1
 O  O2  1  0.00437  0.79640  0.18995  1
 O  O3  1  0.81346  0.47400  0.67006  1
 O  O4  1  0.22204  0.53153  0.33053  1
 O  O5  1  0.22408  0.89420  0.68054  1
 O  O6  1  0.39372  0.21871  0.17741  1
 O  O7  1  0.31533  0.72829  0.02310  1
 O  O8  1  0.70282  0.28876  0.97018  1
 O  O9  1  0.72387  0.73294  0.41833  1
 O  O10  1  0.61387  0.79441  0.80396  1
 O  O11  1  0.35181  0.29553  0.61773  1
 O  O12  1  0.04523  0.21350  0.82069  1
