CIF file written using JARVIS-Tools package.
data_CrI2
_symmetry_space_group_name_H-M  'R-3m'
_cell_length_a       4.07977
_cell_length_b       4.08156
_cell_length_c       7.07256
_cell_angle_alpha    73.2546
_cell_angle_beta     73.2364
_cell_angle_gamma    60.0145

_symmetry_Int_Tables_number  166
_chemical_formula_structural  CrI2
_chemical_formula_sum  CrI2
_cell_volume  96.18964963631076
_cell_formula_units_Z  1
loop_
  _symmetry_equiv_pos_site_id
 _symmetry_equiv_pos_as_xyz
 1  'x, y, z'
loop_
 _atom_site_type_symbol
 _atom_site_label
 _atom_site_symmetry_multiplicity
 _atom_site_fract_x
 _atom_site_fract_y
 _atom_site_fract_z
 _atom_site_fract_occupancy
 Cr  Cr1  1  0.00000  0.00000  0.00000  1
 I  I1  1  0.74787  0.74778  0.75648  1
 I  I2  1  0.25213  0.25222  0.24352  1
