CIF file written using JARVIS-Tools package.
data_KB3H3
_symmetry_space_group_name_H-M  'Fm-3m'
_cell_length_a       6.16715
_cell_length_b       6.16715
_cell_length_c       6.16715
_cell_angle_alpha    60
_cell_angle_beta     60
_cell_angle_gamma    60.0001

_symmetry_Int_Tables_number  225
_chemical_formula_structural  KB3H3
_chemical_formula_sum  K2B6H6
_cell_volume  165.85870318852207
_cell_formula_units_Z  2
loop_
  _symmetry_equiv_pos_site_id
 _symmetry_equiv_pos_as_xyz
 1  'x, y, z'
loop_
 _atom_site_type_symbol
 _atom_site_label
 _atom_site_symmetry_multiplicity
 _atom_site_fract_x
 _atom_site_fract_y
 _atom_site_fract_z
 _atom_site_fract_occupancy
 B  B1  1  0.14011  0.85989  0.14011  1
 B  B2  1  0.14011  0.85989  0.85989  1
 B  B3  1  0.85989  0.85989  0.14011  1
 B  B4  1  0.85989  0.14011  0.14011  1
 B  B5  1  0.85989  0.14011  0.85989  1
 B  B6  1  0.14011  0.14011  0.85989  1
 H  H1  1  0.27866  0.72134  0.72134  1
 H  H2  1  0.27866  0.72134  0.27866  1
 H  H3  1  0.72134  0.72134  0.27866  1
 H  H4  1  0.72134  0.27866  0.27866  1
 H  H5  1  0.72134  0.27866  0.72134  1
 H  H6  1  0.27866  0.27866  0.72134  1
 K  K1  1  0.75000  0.75000  0.75000  1
 K  K2  1  0.25000  0.25000  0.25000  1
