CIF file written using JARVIS-Tools package.
data_Te4MoW2Se2
_symmetry_space_group_name_H-M  'Cm'
_cell_length_a       3.48293
_cell_length_b       3.48291
_cell_length_c       21.5434
_cell_angle_alpha    89.9801
_cell_angle_beta     89.989
_cell_angle_gamma    120

_symmetry_Int_Tables_number  8
_chemical_formula_structural  Te4MoW2Se2
_chemical_formula_sum  Te4MoW2Se2
_cell_volume  226.32436075250016
_cell_formula_units_Z  1
loop_
  _symmetry_equiv_pos_site_id
 _symmetry_equiv_pos_as_xyz
 1  'x, y, z'
loop_
 _atom_site_type_symbol
 _atom_site_label
 _atom_site_symmetry_multiplicity
 _atom_site_fract_x
 _atom_site_fract_y
 _atom_site_fract_z
 _atom_site_fract_occupancy
 Mo  Mo1  1  0.66646  0.33257  0.34101  1
 Se  Se1  1  0.66741  0.33460  -0.05246  1
 Se  Se2  1  0.66694  0.33400  0.09884  1
 Te  Te1  1  0.33287  0.66558  0.42662  1
 Te  Te2  1  0.66661  0.33341  0.59074  1
 Te  Te3  1  0.66608  0.33277  0.76274  1
 Te  Te4  1  0.33338  0.66621  0.25543  1
 W  W1  1  0.33384  0.66763  0.02315  1
 W  W2  1  0.33301  0.66642  0.67677  1
