CIF file written using JARVIS-Tools package.
data_SiO2
_symmetry_space_group_name_H-M  'P4_12_12'
_cell_length_a       6.85349
_cell_length_b       7.0266
_cell_length_c       7.02566
_cell_angle_alpha    90
_cell_angle_beta     90
_cell_angle_gamma    90

_symmetry_Int_Tables_number  92
_chemical_formula_structural  SiO2
_chemical_formula_sum  Si8O6
_cell_volume  338.3325626011309
_cell_formula_units_Z  8
loop_
  _symmetry_equiv_pos_site_id
 _symmetry_equiv_pos_as_xyz
 1  'x, y, z'
loop_
 _atom_site_type_symbol
 _atom_site_label
 _atom_site_symmetry_multiplicity
 _atom_site_fract_x
 _atom_site_fract_y
 _atom_site_fract_z
 _atom_site_fract_occupancy
 O  O1  1  0.43815  0.30598  0.17945  1
 O  O2  1  0.68802  0.07083  0.55577  1
 O  O3  1  0.81198  0.92917  0.05577  1
 O  O4  1  0.18832  0.92940  0.94404  1
 O  O5  1  0.93820  0.69417  0.32083  1
 O  O6  1  0.68832  0.57060  0.05596  1
 O  O7  1  0.56185  0.80598  0.32055  1
 O  O8  1  0.06185  0.69402  0.67945  1
 O  O9  1  0.06180  0.19417  0.17917  1
 O  O10  1  0.31198  0.57083  0.94423  1
 O  O11  1  0.81168  0.42940  0.55596  1
 O  O12  1  0.31168  0.07060  0.44404  1
 O  O13  1  0.18802  0.42917  0.44423  1
 O  O14  1  0.43820  0.80583  0.67917  1
 O  O15  1  0.93815  0.19402  0.82055  1
 O  O16  1  0.56180  0.30583  0.82083  1
 Si  Si1  1  0.25010  0.75002  0.81008  1
 Si  Si2  1  0.49994  0.93994  0.49989  1
 Si  Si3  1  0.74990  0.25002  0.68992  1
 Si  Si4  1  -0.00006  0.56006  0.50011  1
 Si  Si5  1  0.50006  0.43994  0.00011  1
 Si  Si6  1  0.24990  0.24998  0.31008  1
 Si  Si7  1  0.75010  0.74998  0.18992  1
 Si  Si8  1  0.00006  0.06006  -0.00011  1
