CIF file written using JARVIS-Tools package.
data_CaSn2O4
_symmetry_space_group_name_H-M  'Imma'
_cell_length_a       6.74078
_cell_length_b       6.74078
_cell_length_c       6.33879
_cell_angle_alpha    61.9539
_cell_angle_beta     61.954
_cell_angle_gamma    67.5791

_symmetry_Int_Tables_number  74
_chemical_formula_structural  CaSn2O4
_chemical_formula_sum  Ca2Sn4O8
_cell_volume  219.544855075444
_cell_formula_units_Z  2
loop_
  _symmetry_equiv_pos_site_id
 _symmetry_equiv_pos_as_xyz
 1  'x, y, z'
loop_
 _atom_site_type_symbol
 _atom_site_label
 _atom_site_symmetry_multiplicity
 _atom_site_fract_x
 _atom_site_fract_y
 _atom_site_fract_z
 _atom_site_fract_occupancy
 Ca  Ca1  1  0.12500  0.62500  0.62500  1
 Ca  Ca2  1  0.62500  0.12500  0.62500  1
 O  O1  1  0.39457  0.39457  0.36373  1
 O  O2  1  0.43754  0.80872  0.37687  1
 O  O3  1  0.39457  0.39457  0.84713  1
 O  O4  1  0.80872  0.43754  0.37687  1
 O  O5  1  0.44128  0.81246  0.87313  1
 O  O6  1  0.81246  0.44128  0.87313  1
 O  O7  1  0.85543  0.85543  0.40287  1
 O  O8  1  0.85543  0.85543  0.88627  1
 Sn  Sn1  1  0.00488  0.00488  0.99512  1
 Sn  Sn2  1  0.24512  0.24512  0.25488  1
 Sn  Sn3  1  0.62500  0.62500  0.12500  1
 Sn  Sn4  1  0.62500  0.62500  0.62500  1
