CIF file written using JARVIS-Tools package.
data_MgVRu2
_symmetry_space_group_name_H-M  'Immm'
_cell_length_a       10.0875
_cell_length_b       5.72598
_cell_length_c       5.72598
_cell_angle_alpha    27.3268
_cell_angle_beta     28.2546
_cell_angle_gamma    28.2546

_symmetry_Int_Tables_number  71
_chemical_formula_structural  MgVRu2
_chemical_formula_sum  MgVRu2
_cell_volume  64.10130307070798
_cell_formula_units_Z  1
loop_
  _symmetry_equiv_pos_site_id
 _symmetry_equiv_pos_as_xyz
 1  'x, y, z'
loop_
 _atom_site_type_symbol
 _atom_site_label
 _atom_site_symmetry_multiplicity
 _atom_site_fract_x
 _atom_site_fract_y
 _atom_site_fract_z
 _atom_site_fract_occupancy
 Mg  Mg1  1  0.00000  0.00000  0.00000  1
 Ru  Ru1  1  0.72002  0.00000  0.00000  1
 Ru  Ru2  1  0.27998  -0.00000  -0.00000  1
 V  V1  1  0.50000  0.00000  -0.00000  1
