CIF file written using JARVIS-Tools package.
data_Rb4CO4
_symmetry_space_group_name_H-M  'I-42m'
_cell_length_a       5.55236
_cell_length_b       6.81706
_cell_length_c       6.81699
_cell_angle_alpha    80.4543
_cell_angle_beta     65.9699
_cell_angle_gamma    65.9685

_symmetry_Int_Tables_number  121
_chemical_formula_structural  Rb4CO4
_chemical_formula_sum  Rb4CO4
_cell_volume  215.23830659157778
_cell_formula_units_Z  1
loop_
  _symmetry_equiv_pos_site_id
 _symmetry_equiv_pos_as_xyz
 1  'x, y, z'
loop_
 _atom_site_type_symbol
 _atom_site_label
 _atom_site_symmetry_multiplicity
 _atom_site_fract_x
 _atom_site_fract_y
 _atom_site_fract_z
 _atom_site_fract_occupancy
 C  C1  1  0.50000  0.00000  -0.00001  1
 O  O1  1  0.25825  -0.00000  0.19128  1
 O  O2  1  0.74176  0.80872  -0.00001  1
 O  O3  1  0.44951  0.00000  0.80872  1
 O  O4  1  0.55048  0.19128  -0.00001  1
 Rb  Rb1  1  0.97584  0.35068  0.00001  1
 Rb  Rb2  1  0.02416  0.00000  0.64932  1
 Rb  Rb3  1  0.32651  0.64932  0.00001  1
 Rb  Rb4  1  0.67348  -0.00000  0.35068  1
