CIF file written using JARVIS-Tools package.
data_SiO2
_symmetry_space_group_name_H-M  'C2/c'
_cell_length_a       4.79189
_cell_length_b       5.08974
_cell_length_c       8.29778
_cell_angle_alpha    76.2107
_cell_angle_beta     73.2178
_cell_angle_gamma    61.9179

_symmetry_Int_Tables_number  15
_chemical_formula_structural  SiO2
_chemical_formula_sum  Si4O8
_cell_volume  169.68719421185082
_cell_formula_units_Z  4
loop_
  _symmetry_equiv_pos_site_id
 _symmetry_equiv_pos_as_xyz
 1  'x, y, z'
loop_
 _atom_site_type_symbol
 _atom_site_label
 _atom_site_symmetry_multiplicity
 _atom_site_fract_x
 _atom_site_fract_y
 _atom_site_fract_z
 _atom_site_fract_occupancy
 O  O1  1  0.85460  0.28381  0.32090  1
 O  O2  1  0.45930  0.21622  0.17910  1
 O  O3  1  0.00431  0.24999  0.74999  1
 O  O4  1  0.99569  0.75001  0.25001  1
 O  O5  1  0.14540  0.71619  0.67910  1
 O  O6  1  0.54070  0.78378  0.82090  1
 O  O7  1  0.50000  -0.00000  0.50000  1
 O  O8  1  0.00000  0.50000  0.00000  1
 Si  Si1  1  0.70111  0.06188  0.31370  1
 Si  Si2  1  0.29889  0.93812  0.68630  1
 Si  Si3  1  0.92332  0.56186  0.81369  1
 Si  Si4  1  0.07668  0.43814  0.18631  1
