CIF file written using JARVIS-Tools package.
data_FeCuS2
_symmetry_space_group_name_H-M  'P3m1'
_cell_length_a       3.66686
_cell_length_b       3.66683
_cell_length_c       5.83738
_cell_angle_alpha    90.0065
_cell_angle_beta     89.9934
_cell_angle_gamma    120

_symmetry_Int_Tables_number  156
_chemical_formula_structural  FeCuS2
_chemical_formula_sum  FeCuS2
_cell_volume  67.9722984941263
_cell_formula_units_Z  1
loop_
  _symmetry_equiv_pos_site_id
 _symmetry_equiv_pos_as_xyz
 1  'x, y, z'
loop_
 _atom_site_type_symbol
 _atom_site_label
 _atom_site_symmetry_multiplicity
 _atom_site_fract_x
 _atom_site_fract_y
 _atom_site_fract_z
 _atom_site_fract_occupancy
 Cu  Cu1  1  0.66670  0.33330  0.35747  1
 Fe  Fe1  1  0.33331  0.66670  0.64111  1
 S  S1  1  0.33338  0.66662  0.25207  1
 S  S2  1  0.66662  0.33338  0.74934  1
