CIF file written using JARVIS-Tools package.
data_V3Sb2
_symmetry_space_group_name_H-M  'R-3m'
_cell_length_a       7.52402
_cell_length_b       7.52402
_cell_length_c       7.52402
_cell_angle_alpha    43.1653
_cell_angle_beta     43.1653
_cell_angle_gamma    43.1653

_symmetry_Int_Tables_number  166
_chemical_formula_structural  V3Sb2
_chemical_formula_sum  V6Sb4
_cell_volume  180.74361600049448
_cell_formula_units_Z  2
loop_
  _symmetry_equiv_pos_site_id
 _symmetry_equiv_pos_as_xyz
 1  'x, y, z'
loop_
 _atom_site_type_symbol
 _atom_site_label
 _atom_site_symmetry_multiplicity
 _atom_site_fract_x
 _atom_site_fract_y
 _atom_site_fract_z
 _atom_site_fract_occupancy
 Sb  Sb1  1  0.10994  0.10994  0.10994  1
 Sb  Sb2  1  0.89006  0.89006  0.89006  1
 Sb  Sb3  1  0.33052  0.33052  0.33052  1
 Sb  Sb4  1  0.66948  0.66948  0.66948  1
 V  V1  1  0.60036  0.13187  0.60036  1
 V  V2  1  0.60036  0.60036  0.13187  1
 V  V3  1  0.13187  0.60036  0.60036  1
 V  V4  1  0.86813  0.39964  0.39964  1
 V  V5  1  0.39964  0.86813  0.39964  1
 V  V6  1  0.39964  0.39964  0.86813  1
