CIF file written using JARVIS-Tools package.
data_BaB2Se6
_symmetry_space_group_name_H-M  'Cmce'
_cell_length_a       6.88193
_cell_length_b       6.88192
_cell_length_c       10.298
_cell_angle_alpha    90
_cell_angle_beta     90
_cell_angle_gamma    111.532

_symmetry_Int_Tables_number  64
_chemical_formula_structural  BaB2Se6
_chemical_formula_sum  Ba2B4Se2
_cell_volume  453.68636809232476
_cell_formula_units_Z  2
loop_
  _symmetry_equiv_pos_site_id
 _symmetry_equiv_pos_as_xyz
 1  'x, y, z'
loop_
 _atom_site_type_symbol
 _atom_site_label
 _atom_site_symmetry_multiplicity
 _atom_site_fract_x
 _atom_site_fract_y
 _atom_site_fract_z
 _atom_site_fract_occupancy
 B  B1  1  0.61382  0.38618  0.00000  1
 B  B2  1  0.38618  0.61382  0.00000  1
 B  B3  1  0.88618  0.11382  0.50000  1
 B  B4  1  0.11382  0.88618  0.50000  1
 Ba  Ba1  1  0.50000  0.50000  0.50000  1
 Ba  Ba2  1  0.00000  0.00000  0.00000  1
 Se  Se1  1  0.89262  0.47589  0.09575  1
 Se  Se2  1  0.39910  0.39910  0.14019  1
 Se  Se3  1  0.89910  0.89910  0.35981  1
 Se  Se4  1  0.97589  0.39262  0.40425  1
 Se  Se5  1  0.52411  0.10738  0.90425  1
 Se  Se6  1  0.10738  0.52411  0.90425  1
 Se  Se7  1  0.60738  0.02411  0.59575  1
 Se  Se8  1  0.02411  0.60738  0.59575  1
 Se  Se9  1  0.10090  0.10090  0.64019  1
 Se  Se10  1  0.60090  0.60090  0.85981  1
 Se  Se11  1  0.47589  0.89262  0.09575  1
 Se  Se12  1  0.39262  0.97589  0.40425  1
