CIF file written using JARVIS-Tools package.
data_NaCd2Ag
_symmetry_space_group_name_H-M  'Immm'
_cell_length_a       12.3081
_cell_length_b       8.21134
_cell_length_c       8.21134
_cell_angle_alpha    31.5506
_cell_angle_beta     19.273
_cell_angle_gamma    19.273

_symmetry_Int_Tables_number  71
_chemical_formula_structural  NaCd2Ag
_chemical_formula_sum  NaCd2Ag
_cell_volume  84.46025867387478
_cell_formula_units_Z  1
loop_
  _symmetry_equiv_pos_site_id
 _symmetry_equiv_pos_as_xyz
 1  'x, y, z'
loop_
 _atom_site_type_symbol
 _atom_site_label
 _atom_site_symmetry_multiplicity
 _atom_site_fract_x
 _atom_site_fract_y
 _atom_site_fract_z
 _atom_site_fract_occupancy
 Ag  Ag1  1  0.50000  0.00000  -0.00000  1
 Cd  Cd1  1  0.74829  0.00113  0.00113  1
 Cd  Cd2  1  0.25171  -0.00113  -0.00113  1
 Na  Na1  1  0.00000  0.00000  0.00000  1
