CIF file written using JARVIS-Tools package.
data_AgBrO2
_symmetry_space_group_name_H-M  'P1'
_cell_length_a       4.3972
_cell_length_b       5.15803
_cell_length_c       4.4259
_cell_angle_alpha    89.9689
_cell_angle_beta     119.755
_cell_angle_gamma    87.9142

_symmetry_Int_Tables_number  1
_chemical_formula_structural  AgBrO2
_chemical_formula_sum  AgBrO2
_cell_volume  87.0707270018585
_cell_formula_units_Z  1
loop_
  _symmetry_equiv_pos_site_id
 _symmetry_equiv_pos_as_xyz
 1  'x, y, z'
loop_
 _atom_site_type_symbol
 _atom_site_label
 _atom_site_symmetry_multiplicity
 _atom_site_fract_x
 _atom_site_fract_y
 _atom_site_fract_z
 _atom_site_fract_occupancy
 Ag  Ag1  1  0.55387  0.86720  0.65650  1
 Br  Br1  1  0.88661  0.99977  0.32032  1
 O  O1  1  0.29852  0.50329  0.01934  1
 O  O2  1  0.97631  0.47089  0.86416  1
