CIF file written using JARVIS-Tools package.
data_Li2CuS2
_symmetry_space_group_name_H-M  'P4_2/mcm'
_cell_length_a       5.53072
_cell_length_b       5.53063
_cell_length_c       5.80264
_cell_angle_alpha    90.0408
_cell_angle_beta     90.0429
_cell_angle_gamma    89.9966

_symmetry_Int_Tables_number  132
_chemical_formula_structural  Li2CuS2
_chemical_formula_sum  Li4Cu2S4
_cell_volume  177.49271492459172
_cell_formula_units_Z  2
loop_
  _symmetry_equiv_pos_site_id
 _symmetry_equiv_pos_as_xyz
 1  'x, y, z'
loop_
 _atom_site_type_symbol
 _atom_site_label
 _atom_site_symmetry_multiplicity
 _atom_site_fract_x
 _atom_site_fract_y
 _atom_site_fract_z
 _atom_site_fract_occupancy
 Cu  Cu1  1  0.49739  -0.00267  0.73726  1
 Cu  Cu2  1  0.49739  -0.00267  0.23748  1
 Li  Li1  1  0.49773  0.49731  0.23740  1
 Li  Li2  1  0.99737  0.99769  0.23740  1
 Li  Li3  1  0.49683  0.49728  0.73745  1
 Li  Li4  1  0.99734  0.99675  0.73745  1
 S  S1  1  0.73063  0.23057  0.48772  1
 S  S2  1  0.73045  0.76411  0.98741  1
 S  S3  1  0.26417  0.23039  0.98739  1
 S  S4  1  0.26410  0.76404  0.48708  1
