CIF file written using JARVIS-Tools package.
data_H4NClO
_symmetry_space_group_name_H-M  'P2_1/c'
_cell_length_a       6.85125
_cell_length_b       6.00788
_cell_length_c       7.62094
_cell_angle_alpha    90
_cell_angle_beta     121.337
_cell_angle_gamma    90

_symmetry_Int_Tables_number  14
_chemical_formula_structural  H4NClO
_chemical_formula_sum  H6N4Cl4O4
_cell_volume  267.9286441268445
_cell_formula_units_Z  4
loop_
  _symmetry_equiv_pos_site_id
 _symmetry_equiv_pos_as_xyz
 1  'x, y, z'
loop_
 _atom_site_type_symbol
 _atom_site_label
 _atom_site_symmetry_multiplicity
 _atom_site_fract_x
 _atom_site_fract_y
 _atom_site_fract_z
 _atom_site_fract_occupancy
 Cl  Cl1  1  0.73926  0.18895  0.39148  1
 Cl  Cl2  1  0.26074  0.68895  0.10852  1
 Cl  Cl3  1  0.26074  0.81105  0.60852  1
 Cl  Cl4  1  0.73926  0.31105  0.89148  1
 H  H1  1  0.26054  0.48277  0.31909  1
 H  H2  1  0.37193  0.34974  0.77142  1
 H  H3  1  0.73946  0.98277  0.18091  1
 H  H4  1  0.26054  0.01723  0.81909  1
 H  H5  1  0.37193  0.15026  0.27142  1
 H  H6  1  0.62807  0.65026  0.22858  1
 H  H7  1  0.73946  0.51723  0.68091  1
 H  H8  1  0.92390  0.82624  0.86818  1
 H  H9  1  0.21455  0.02766  0.36101  1
 H  H10  1  0.07610  0.17376  0.13182  1
 H  H11  1  0.78545  0.52766  0.13899  1
 H  H12  1  0.78545  0.97234  0.63899  1
 H  H13  1  0.92390  0.67376  0.36818  1
 H  H14  1  0.07610  0.32624  0.63182  1
 H  H15  1  0.21455  0.47234  0.86101  1
 H  H16  1  0.62807  0.84974  0.72858  1
 N  N1  1  0.22335  0.33646  0.77857  1
 N  N2  1  0.77665  0.66354  0.22143  1
 N  N3  1  0.22335  0.16354  0.27857  1
 N  N4  1  0.77665  0.83646  0.72143  1
 O  O1  1  0.76225  0.64444  0.60632  1
 O  O2  1  0.76225  0.85556  0.10632  1
 O  O3  1  0.23775  0.35556  0.39368  1
 O  O4  1  0.23775  0.14444  0.89368  1
