CIF file written using JARVIS-Tools package.
data_Li3Cu3P2O8
_symmetry_space_group_name_H-M  'P1'
_cell_length_a       5.05504
_cell_length_b       5.49868
_cell_length_c       6.07217
_cell_angle_alpha    90.9151
_cell_angle_beta     90.8238
_cell_angle_gamma    87.365

_symmetry_Int_Tables_number  1
_chemical_formula_structural  Li3Cu3P2O8
_chemical_formula_sum  Li3Cu3P2O8
_cell_volume  168.5661887023483
_cell_formula_units_Z  1
loop_
  _symmetry_equiv_pos_site_id
 _symmetry_equiv_pos_as_xyz
 1  'x, y, z'
loop_
 _atom_site_type_symbol
 _atom_site_label
 _atom_site_symmetry_multiplicity
 _atom_site_fract_x
 _atom_site_fract_y
 _atom_site_fract_z
 _atom_site_fract_occupancy
 Cu  Cu1  1  0.52366  0.63246  0.75806  1
 Cu  Cu2  1  0.52374  0.62414  0.24091  1
 Cu  Cu3  1  0.95292  0.35959  0.24929  1
 Li  Li1  1  0.48980  0.15674  0.00077  1
 Li  Li2  1  0.98545  0.33220  0.75077  1
 Li  Li3  1  0.00481  0.85023  0.50247  1
 O  O1  1  0.88229  0.10819  0.98424  1
 O  O2  1  0.31466  0.85198  0.00001  1
 O  O3  1  0.92003  0.69354  0.78912  1
 O  O4  1  0.37405  0.29999  0.71295  1
 O  O5  1  0.79488  0.16146  0.50839  1
 O  O6  1  0.38654  0.90046  0.50133  1
 O  O7  1  0.37808  0.29547  0.29199  1
 O  O8  1  0.91645  0.72574  0.21090  1
 P  P1  1  0.00855  0.84572  0.99469  1
 P  P2  1  0.48669  0.16210  0.50411  1
