CIF file written using JARVIS-Tools package.
data_Zr2N2O
_symmetry_space_group_name_H-M  'P2_1/m'
_cell_length_a       3.47876
_cell_length_b       4.32932
_cell_length_c       8.71872
_cell_angle_alpha    100.555
_cell_angle_beta     90.0022
_cell_angle_gamma    90.0009

_symmetry_Int_Tables_number  11
_chemical_formula_structural  Zr2N2O
_chemical_formula_sum  Zr4N4O2
_cell_volume  129.0881485562247
_cell_formula_units_Z  2
loop_
  _symmetry_equiv_pos_site_id
 _symmetry_equiv_pos_as_xyz
 1  'x, y, z'
loop_
 _atom_site_type_symbol
 _atom_site_label
 _atom_site_symmetry_multiplicity
 _atom_site_fract_x
 _atom_site_fract_y
 _atom_site_fract_z
 _atom_site_fract_occupancy
 N  N1  1  0.25006  0.33026  0.24879  1
 N  N2  1  0.24992  0.21562  0.90178  1
 N  N3  1  0.74967  0.78524  0.09725  1
 N  N4  1  0.75015  0.67060  0.75024  1
 O  O1  1  0.75025  0.81229  0.43727  1
 O  O2  1  0.25028  0.18857  0.56175  1
 Zr  Zr1  1  0.75013  0.29062  0.10644  1
 Zr  Zr2  1  0.75032  0.12286  0.67074  1
 Zr  Zr3  1  0.25027  0.87800  0.32828  1
 Zr  Zr4  1  0.25035  0.71024  0.89259  1
