CIF file written using JARVIS-Tools package.
data_MgCoPO5
_symmetry_space_group_name_H-M  'P-1'
_cell_length_a       5.42626
_cell_length_b       5.11067
_cell_length_c       6.44339
_cell_angle_alpha    96.615
_cell_angle_beta     105.454
_cell_angle_gamma    108.778

_symmetry_Int_Tables_number  2
_chemical_formula_structural  MgCoPO5
_chemical_formula_sum  Mg2Co2P2O0
_cell_volume  159.0565887519906
_cell_formula_units_Z  2
loop_
  _symmetry_equiv_pos_site_id
 _symmetry_equiv_pos_as_xyz
 1  'x, y, z'
loop_
 _atom_site_type_symbol
 _atom_site_label
 _atom_site_symmetry_multiplicity
 _atom_site_fract_x
 _atom_site_fract_y
 _atom_site_fract_z
 _atom_site_fract_occupancy
 Co  Co1  1  0.50507  0.99573  0.48544  1
 Co  Co2  1  0.50509  0.99575  0.98543  1
 Mg  Mg1  1  0.77641  0.61892  0.22435  1
 Mg  Mg2  1  0.23372  0.37257  0.74655  1
 O  O1  1  0.35048  0.32546  0.09349  1
 O  O2  1  0.13223  -0.00813  0.30579  1
 O  O3  1  0.65968  0.66605  0.87740  1
 O  O4  1  0.87791  0.99962  0.66509  1
 O  O5  1  0.75011  0.47545  0.51882  1
 O  O6  1  0.13281  0.70202  0.86765  1
 O  O7  1  0.26007  0.51604  0.45208  1
 O  O8  1  0.87736  0.28950  0.10325  1
 O  O9  1  0.43579  0.10133  0.72812  1
 O  O10  1  0.57436  0.89020  0.24276  1
 P  P1  1  0.15878  0.28303  0.24024  1
 P  P2  1  0.85138  0.70847  0.73065  1
