CIF file written using JARVIS-Tools package.
data_Li2TlSb
_symmetry_space_group_name_H-M  'Fm-3m'
_cell_length_a       12.2146
_cell_length_b       8.6375
_cell_length_c       8.63753
_cell_angle_alpha    33.5733
_cell_angle_beta     19.4818
_cell_angle_gamma    19.4791

_symmetry_Int_Tables_number  225
_chemical_formula_structural  Li2TlSb
_chemical_formula_sum  Li2TlSb
_cell_volume  87.76739662328534
_cell_formula_units_Z  1
loop_
  _symmetry_equiv_pos_site_id
 _symmetry_equiv_pos_as_xyz
 1  'x, y, z'
loop_
 _atom_site_type_symbol
 _atom_site_label
 _atom_site_symmetry_multiplicity
 _atom_site_fract_x
 _atom_site_fract_y
 _atom_site_fract_z
 _atom_site_fract_occupancy
 Li  Li1  1  0.74980  0.00017  0.00019  1
 Li  Li2  1  0.25020  -0.00017  -0.00019  1
 Sb  Sb1  1  0.00000  -0.00000  0.00000  1
 Tl  Tl1  1  0.50000  0.00000  -0.00000  1
