CIF file written using JARVIS-Tools package.
data_TiCl3
_symmetry_space_group_name_H-M  'P312'
_cell_length_a       5.96171
_cell_length_b       5.96171
_cell_length_c       17.552
_cell_angle_alpha    90
_cell_angle_beta     90
_cell_angle_gamma    120

_symmetry_Int_Tables_number  149
_chemical_formula_structural  TiCl3
_chemical_formula_sum  Ti6Cl8
_cell_volume  540.2560364237137
_cell_formula_units_Z  6
loop_
  _symmetry_equiv_pos_site_id
 _symmetry_equiv_pos_as_xyz
 1  'x, y, z'
loop_
 _atom_site_type_symbol
 _atom_site_label
 _atom_site_symmetry_multiplicity
 _atom_site_fract_x
 _atom_site_fract_y
 _atom_site_fract_z
 _atom_site_fract_occupancy
 Cl  Cl1  1  0.32492  0.33310  0.75268  1
 Cl  Cl2  1  0.65864  0.00016  0.41969  1
 Cl  Cl3  1  0.66690  0.99182  0.75268  1
 Cl  Cl4  1  0.34153  0.34136  0.41969  1
 Cl  Cl5  1  0.00818  0.33310  0.24732  1
 Cl  Cl6  1  0.32609  -0.00731  0.91321  1
 Cl  Cl7  1  0.66659  -0.00731  0.08679  1
 Cl  Cl8  1  0.65864  0.65847  0.58031  1
 Cl  Cl9  1  -0.00016  0.34136  0.58031  1
 Cl  Cl10  1  0.66690  0.67508  0.24732  1
 Cl  Cl11  1  0.00731  0.33341  0.91321  1
 Cl  Cl12  1  0.32609  0.33341  0.08679  1
 Cl  Cl13  1  0.34153  0.00016  0.58031  1
 Cl  Cl14  1  0.66659  0.67391  0.91321  1
 Cl  Cl15  1  0.32492  0.99182  0.24732  1
 Cl  Cl16  1  0.00818  0.67508  0.75268  1
 Cl  Cl17  1  0.00731  0.67391  0.08679  1
 Cl  Cl18  1  -0.00016  0.65847  0.41969  1
 Ti  Ti1  1  0.33333  0.66667  0.16700  1
 Ti  Ti2  1  0.33333  0.66667  0.50000  1
 Ti  Ti3  1  0.33333  0.66667  0.83300  1
 Ti  Ti4  1  0.66667  0.33333  0.50000  1
 Ti  Ti5  1  0.00000  0.00000  0.83306  1
 Ti  Ti6  1  0.00000  0.00000  0.16694  1
