CIF file written using JARVIS-Tools package.
data_Na2S
_symmetry_space_group_name_H-M  'Pnma'
_cell_length_a       4.29373
_cell_length_b       7.10798
_cell_length_c       8.348
_cell_angle_alpha    90
_cell_angle_beta     90
_cell_angle_gamma    90

_symmetry_Int_Tables_number  62
_chemical_formula_structural  Na2S
_chemical_formula_sum  Na8S4
_cell_volume  254.7790829152734
_cell_formula_units_Z  4
loop_
  _symmetry_equiv_pos_site_id
 _symmetry_equiv_pos_as_xyz
 1  'x, y, z'
loop_
 _atom_site_type_symbol
 _atom_site_label
 _atom_site_symmetry_multiplicity
 _atom_site_fract_x
 _atom_site_fract_y
 _atom_site_fract_z
 _atom_site_fract_occupancy
 Na  Na1  1  0.25000  0.14540  0.42797  1
 Na  Na2  1  0.75000  0.47612  0.33108  1
 Na  Na3  1  0.75000  0.97612  0.16892  1
 Na  Na4  1  0.75000  0.35460  0.92797  1
 Na  Na5  1  0.25000  0.52388  0.66892  1
 Na  Na6  1  0.75000  0.85460  0.57203  1
 Na  Na7  1  0.25000  0.64540  0.07203  1
 Na  Na8  1  0.25000  0.02388  0.83108  1
 S  S1  1  0.25000  0.75339  0.38623  1
 S  S2  1  0.25000  0.25339  0.11377  1
 S  S3  1  0.75000  0.74661  0.88623  1
 S  S4  1  0.75000  0.24661  0.61377  1
