CIF file written using JARVIS-Tools package.
data_BSF7
_symmetry_space_group_name_H-M  'Pnma'
_cell_length_a       5.534
_cell_length_b       8.9988
_cell_length_c       9.20164
_cell_angle_alpha    90
_cell_angle_beta     90
_cell_angle_gamma    90

_symmetry_Int_Tables_number  62
_chemical_formula_structural  BSF7
_chemical_formula_sum  B4S4F28
_cell_volume  458.2360067152154
_cell_formula_units_Z  4
loop_
  _symmetry_equiv_pos_site_id
 _symmetry_equiv_pos_as_xyz
 1  'x, y, z'
loop_
 _atom_site_type_symbol
 _atom_site_label
 _atom_site_symmetry_multiplicity
 _atom_site_fract_x
 _atom_site_fract_y
 _atom_site_fract_z
 _atom_site_fract_occupancy
 B  B1  1  0.75000  0.16281  0.48102  1
 B  B2  1  0.75000  0.33719  0.98102  1
 B  B3  1  0.25000  0.66281  0.01898  1
 B  B4  1  0.25000  0.83719  0.51898  1
 F  F1  1  0.45947  0.04683  0.17515  1
 F  F2  1  0.54053  0.54683  0.32485  1
 F  F3  1  0.04053  0.45317  0.67515  1
 F  F4  1  0.45889  0.73975  0.06932  1
 F  F5  1  0.95947  0.95317  0.82485  1
 F  F6  1  0.45947  0.45317  0.67515  1
 F  F7  1  0.54053  0.95317  0.82485  1
 F  F8  1  0.75000  0.73403  0.79378  1
 F  F9  1  0.04053  0.04683  0.17515  1
 F  F10  1  0.54111  0.26025  0.93068  1
 F  F11  1  0.95889  0.23975  0.43068  1
 F  F12  1  0.45889  0.76025  0.56932  1
 F  F13  1  0.04111  0.73975  0.06932  1
 F  F14  1  0.95947  0.54683  0.32485  1
 F  F15  1  0.75000  0.01793  0.42652  1
 F  F16  1  0.54111  0.23975  0.43068  1
 F  F17  1  0.25000  0.26597  0.20622  1
 F  F18  1  0.75000  0.76597  0.29378  1
 F  F19  1  0.25000  0.51793  0.07348  1
 F  F20  1  0.25000  0.98207  0.57348  1
 F  F21  1  0.75000  0.48207  0.92652  1
 F  F22  1  0.75000  0.34018  0.13529  1
 F  F23  1  0.25000  0.65982  0.86471  1
 F  F24  1  0.25000  0.84018  0.36471  1
 F  F25  1  0.75000  0.15982  0.63529  1
 F  F26  1  0.25000  0.23403  0.70622  1
 F  F27  1  0.04111  0.76025  0.56932  1
 F  F28  1  0.95889  0.26025  0.93068  1
 S  S1  1  0.25000  0.10797  0.27112  1
 S  S2  1  0.75000  0.89203  0.72888  1
 S  S3  1  0.75000  0.60797  0.22888  1
 S  S4  1  0.25000  0.39203  0.77112  1
