CIF file written using JARVIS-Tools package.
data_K3GeSe3
_symmetry_space_group_name_H-M  'C2/m'
_cell_length_a       7.84639
_cell_length_b       7.84639
_cell_length_c       8.43176
_cell_angle_alpha    104.893
_cell_angle_beta     104.893
_cell_angle_gamma    109.477

_symmetry_Int_Tables_number  12
_chemical_formula_structural  K3GeSe3
_chemical_formula_sum  K6Ge2Se6
_cell_volume  438.22877500833886
_cell_formula_units_Z  2
loop_
  _symmetry_equiv_pos_site_id
 _symmetry_equiv_pos_as_xyz
 1  'x, y, z'
loop_
 _atom_site_type_symbol
 _atom_site_label
 _atom_site_symmetry_multiplicity
 _atom_site_fract_x
 _atom_site_fract_y
 _atom_site_fract_z
 _atom_site_fract_occupancy
 Ge  Ge1  1  0.11761  0.11761  0.15276  1
 Ge  Ge2  1  0.88239  0.88239  0.84724  1
 K  K1  1  0.50000  0.00000  0.00000  1
 K  K2  1  0.00000  0.50000  0.00000  1
 K  K3  1  0.21013  0.21013  0.68080  1
 K  K4  1  0.78987  0.78987  0.31920  1
 K  K5  1  0.66021  0.33979  0.50000  1
 K  K6  1  0.33979  0.66021  0.50000  1
 Se  Se1  1  0.37419  0.37419  0.13220  1
 Se  Se2  1  0.62581  0.62581  0.86780  1
 Se  Se3  1  0.94641  0.25270  0.30498  1
 Se  Se4  1  0.74730  0.05359  0.69502  1
 Se  Se5  1  0.05359  0.74730  0.69502  1
 Se  Se6  1  0.25270  0.94641  0.30498  1
