CIF file written using JARVIS-Tools package.
data_ZnMo2O4
_symmetry_space_group_name_H-M  'R3m'
_cell_length_a       6.44202
_cell_length_b       5.82859
_cell_length_c       5.8286
_cell_angle_alpha    60
_cell_angle_beta     63.1029
_cell_angle_gamma    63.1029

_symmetry_Int_Tables_number  160
_chemical_formula_structural  ZnMo2O4
_chemical_formula_sum  Zn2Mo4O8
_cell_volume  161.61659990436826
_cell_formula_units_Z  2
loop_
  _symmetry_equiv_pos_site_id
 _symmetry_equiv_pos_as_xyz
 1  'x, y, z'
loop_
 _atom_site_type_symbol
 _atom_site_label
 _atom_site_symmetry_multiplicity
 _atom_site_fract_x
 _atom_site_fract_y
 _atom_site_fract_z
 _atom_site_fract_occupancy
 Mo  Mo1  1  0.19722  0.26759  0.26759  1
 Mo  Mo2  1  0.62149  0.08275  0.64788  1
 Mo  Mo3  1  0.62149  0.64788  0.08275  1
 Mo  Mo4  1  0.62149  0.64788  0.64788  1
 O  O1  1  0.40633  0.36798  0.36798  1
 O  O2  1  0.40633  0.36798  0.85770  1
 O  O3  1  0.40633  0.85770  0.36798  1
 O  O4  1  0.82041  0.39320  0.39320  1
 O  O5  1  0.35561  0.88146  0.88146  1
 O  O6  1  0.88332  0.40347  0.85660  1
 O  O7  1  0.88332  0.85660  0.40347  1
 O  O8  1  0.88332  0.85660  0.85660  1
 Zn  Zn1  1  0.99307  0.00231  0.00231  1
 Zn  Zn2  1  0.15025  0.61658  0.61658  1
