CIF file written using JARVIS-Tools package.
data_K4CO4
_symmetry_space_group_name_H-M  'I222'
_cell_length_a       5.65854
_cell_length_b       5.18637
_cell_length_c       6.27761
_cell_angle_alpha    114.39
_cell_angle_beta     116.788
_cell_angle_gamma    90.0007

_symmetry_Int_Tables_number  23
_chemical_formula_structural  K4CO4
_chemical_formula_sum  K4CO4
_cell_volume  145.80437210590776
_cell_formula_units_Z  1
loop_
  _symmetry_equiv_pos_site_id
 _symmetry_equiv_pos_as_xyz
 1  'x, y, z'
loop_
 _atom_site_type_symbol
 _atom_site_label
 _atom_site_symmetry_multiplicity
 _atom_site_fract_x
 _atom_site_fract_y
 _atom_site_fract_z
 _atom_site_fract_occupancy
 C  C1  1  0.29082  0.00000  0.00000  1
 K  K1  1  0.15439  0.47025  0.28938  1
 K  K2  1  0.42733  0.18081  0.71061  1
 K  K3  1  0.86501  0.52975  0.71062  1
 K  K4  1  0.71672  0.81919  0.28938  1
 O  O1  1  0.23075  0.92810  0.17192  1
 O  O2  1  0.05882  0.07190  0.82808  1
 O  O3  1  0.52278  0.24378  0.17188  1
 O  O4  1  0.35090  0.75622  0.82811  1
