CIF file written using JARVIS-Tools package.
data_Rb3BAs2
_symmetry_space_group_name_H-M  'C2/c'
_cell_length_a       6.7697
_cell_length_b       6.76969
_cell_length_c       9.62286
_cell_angle_alpha    74.9015
_cell_angle_beta     74.9015
_cell_angle_gamma    87.8259

_symmetry_Int_Tables_number  15
_chemical_formula_structural  Rb3BAs2
_chemical_formula_sum  Rb6B2As4
_cell_volume  410.87002670791895
_cell_formula_units_Z  2
loop_
  _symmetry_equiv_pos_site_id
 _symmetry_equiv_pos_as_xyz
 1  'x, y, z'
loop_
 _atom_site_type_symbol
 _atom_site_label
 _atom_site_symmetry_multiplicity
 _atom_site_fract_x
 _atom_site_fract_y
 _atom_site_fract_z
 _atom_site_fract_occupancy
 As  As1  1  0.90814  0.34711  0.35729  1
 As  As2  1  0.65289  0.09186  0.14271  1
 As  As3  1  0.34711  0.90814  0.85729  1
 As  As4  1  0.09186  0.65289  0.64271  1
 B  B1  1  0.78486  0.21514  0.25000  1
 B  B2  1  0.21514  0.78486  0.75000  1
 Rb  Rb1  1  0.84864  0.15136  0.75000  1
 Rb  Rb2  1  0.15136  0.84864  0.25000  1
 Rb  Rb3  1  0.24383  0.34931  0.98267  1
 Rb  Rb4  1  0.65069  0.75617  0.51733  1
 Rb  Rb5  1  0.75617  0.65069  0.01733  1
 Rb  Rb6  1  0.34931  0.24383  0.48267  1
