CIF file written using JARVIS-Tools package.
data_CuSeO4
_symmetry_space_group_name_H-M  'Cmcm'
_cell_length_a       4.89646
_cell_length_b       4.89646
_cell_length_c       6.51756
_cell_angle_alpha    90
_cell_angle_beta     90
_cell_angle_gamma    110.655

_symmetry_Int_Tables_number  63
_chemical_formula_structural  CuSeO4
_chemical_formula_sum  Cu2Se2O8
_cell_volume  146.21566932660775
_cell_formula_units_Z  2
loop_
  _symmetry_equiv_pos_site_id
 _symmetry_equiv_pos_as_xyz
 1  'x, y, z'
loop_
 _atom_site_type_symbol
 _atom_site_label
 _atom_site_symmetry_multiplicity
 _atom_site_fract_x
 _atom_site_fract_y
 _atom_site_fract_z
 _atom_site_fract_occupancy
 Cu  Cu1  1  0.00000  0.00000  0.00000  1
 Cu  Cu2  1  0.00000  0.00000  0.50000  1
 O  O1  1  0.75704  0.24296  0.46739  1
 O  O2  1  0.24296  0.75704  0.53261  1
 O  O3  1  0.22826  0.27505  0.75000  1
 O  O4  1  0.77174  0.72495  0.25000  1
 O  O5  1  0.75704  0.24296  0.03261  1
 O  O6  1  0.24296  0.75704  0.96739  1
 O  O7  1  0.72495  0.77174  0.75000  1
 O  O8  1  0.27505  0.22826  0.25000  1
 Se  Se1  1  0.64770  0.35230  0.25000  1
 Se  Se2  1  0.35230  0.64770  0.75000  1
