CIF file written using JARVIS-Tools package.
data_LiMnO2
_symmetry_space_group_name_H-M  'I4_1/amd'
_cell_length_a       5.66819
_cell_length_b       5.66819
_cell_length_c       6.14253
_cell_angle_alpha    117.477
_cell_angle_beta     117.477
_cell_angle_gamma    90

_symmetry_Int_Tables_number  141
_chemical_formula_structural  LiMnO2
_chemical_formula_sum  Li4Mn4O8
_cell_volume  149.5489050891039
_cell_formula_units_Z  4
loop_
  _symmetry_equiv_pos_site_id
 _symmetry_equiv_pos_as_xyz
 1  'x, y, z'
loop_
 _atom_site_type_symbol
 _atom_site_label
 _atom_site_symmetry_multiplicity
 _atom_site_fract_x
 _atom_site_fract_y
 _atom_site_fract_z
 _atom_site_fract_occupancy
 Li  Li1  1  0.50000  -0.00000  0.00000  1
 Li  Li2  1  0.50000  0.50000  0.50000  1
 Li  Li3  1  0.50000  0.50000  0.00000  1
 Li  Li4  1  0.00000  0.50000  0.50000  1
 Mn  Mn1  1  -0.00000  0.00000  0.50000  1
 Mn  Mn2  1  0.00000  0.50000  0.00000  1
 Mn  Mn3  1  0.50000  0.00000  0.50000  1
 Mn  Mn4  1  0.00000  0.00000  0.00000  1
 O  O1  1  0.25326  0.77178  0.50652  1
 O  O2  1  0.23474  0.25326  0.00652  1
 O  O3  1  0.74674  0.22822  0.49348  1
 O  O4  1  0.74674  0.76526  0.49348  1
 O  O5  1  0.22822  0.74674  0.99348  1
 O  O6  1  0.76526  0.74674  0.99348  1
 O  O7  1  0.77178  0.25326  0.00652  1
 O  O8  1  0.25326  0.23474  0.50652  1
