CIF file written using JARVIS-Tools package.
data_Mn6O11F
_symmetry_space_group_name_H-M  'Cm'
_cell_length_a       6.98138
_cell_length_b       5.31456
_cell_length_c       5.31456
_cell_angle_alpha    72.3021
_cell_angle_beta     71.3001
_cell_angle_gamma    71.3001

_symmetry_Int_Tables_number  8
_chemical_formula_structural  Mn6O11F
_chemical_formula_sum  Mn6OF
_cell_volume  172.4110371244987
_cell_formula_units_Z  1
loop_
  _symmetry_equiv_pos_site_id
 _symmetry_equiv_pos_as_xyz
 1  'x, y, z'
loop_
 _atom_site_type_symbol
 _atom_site_label
 _atom_site_symmetry_multiplicity
 _atom_site_fract_x
 _atom_site_fract_y
 _atom_site_fract_z
 _atom_site_fract_occupancy
 F  F1  1  0.30150  0.89810  0.89810  1
 Mn  Mn1  1  0.98771  0.00242  0.00242  1
 Mn  Mn2  1  0.51246  0.00448  0.00448  1
 Mn  Mn3  1  0.83074  0.66868  0.66868  1
 Mn  Mn4  1  0.66798  0.33832  0.33832  1
 Mn  Mn5  1  0.33217  0.65191  0.65191  1
 Mn  Mn6  1  0.16105  0.33014  0.33014  1
 O  O1  1  0.66711  0.63996  0.03202  1
 O  O2  1  0.33462  0.96903  0.36088  1
 O  O3  1  0.70144  0.10590  0.10590  1
 O  O4  1  0.03810  0.76796  0.76796  1
 O  O5  1  0.37039  0.43031  0.43031  1
 O  O6  1  0.63028  0.56511  0.56511  1
 O  O7  1  0.96089  0.23287  0.23287  1
 O  O8  1  0.00092  0.69727  0.30463  1
 O  O9  1  0.33462  0.36088  0.96903  1
 O  O10  1  0.66711  0.03202  0.63996  1
 O  O11  1  0.00092  0.30463  0.69727  1
