CIF file written using JARVIS-Tools package.
data_MgV2O4
_symmetry_space_group_name_H-M  'R3m'
_cell_length_a       6.0073
_cell_length_b       5.91957
_cell_length_c       5.91957
_cell_angle_alpha    60
_cell_angle_beta     60.4818
_cell_angle_gamma    60.4818

_symmetry_Int_Tables_number  160
_chemical_formula_structural  MgV2O4
_chemical_formula_sum  Mg2V4O8
_cell_volume  149.9238749764559
_cell_formula_units_Z  2
loop_
  _symmetry_equiv_pos_site_id
 _symmetry_equiv_pos_as_xyz
 1  'x, y, z'
loop_
 _atom_site_type_symbol
 _atom_site_label
 _atom_site_symmetry_multiplicity
 _atom_site_fract_x
 _atom_site_fract_y
 _atom_site_fract_z
 _atom_site_fract_occupancy
 Mg  Mg1  1  0.99209  0.00264  0.00264  1
 Mg  Mg2  1  0.12344  0.62552  0.62552  1
 O  O1  1  0.38915  0.37735  0.37735  1
 O  O2  1  0.38915  0.37735  0.85616  1
 O  O3  1  0.38915  0.85616  0.37735  1
 O  O4  1  0.85724  0.38092  0.38092  1
 O  O5  1  0.39660  0.86780  0.86780  1
 O  O6  1  0.86030  0.40455  0.86757  1
 O  O7  1  0.86030  0.86757  0.40455  1
 O  O8  1  0.86030  0.86757  0.86757  1
 V  V1  1  0.25098  0.24967  0.24967  1
 V  V2  1  0.62710  0.11700  0.62795  1
 V  V3  1  0.62710  0.62795  0.11700  1
 V  V4  1  0.62710  0.62795  0.62795  1
