CIF file written using JARVIS-Tools package.
data_Ga4SiO8
_symmetry_space_group_name_H-M  'C2/m'
_cell_length_a       6.38079
_cell_length_b       6.38079
_cell_length_c       9.42209
_cell_angle_alpha    54.7647
_cell_angle_beta     125.235
_cell_angle_gamma    152.969

_symmetry_Int_Tables_number  12
_chemical_formula_structural  Ga4SiO8
_chemical_formula_sum  Ga4SiO8
_cell_volume  140.33225673421924
_cell_formula_units_Z  1
loop_
  _symmetry_equiv_pos_site_id
 _symmetry_equiv_pos_as_xyz
 1  'x, y, z'
loop_
 _atom_site_type_symbol
 _atom_site_label
 _atom_site_symmetry_multiplicity
 _atom_site_fract_x
 _atom_site_fract_y
 _atom_site_fract_z
 _atom_site_fract_occupancy
 Ga  Ga1  1  0.24335  0.75665  0.64283  1
 Ga  Ga2  1  0.54057  0.45943  0.72474  1
 Ga  Ga3  1  0.45943  0.54057  0.27526  1
 Ga  Ga4  1  0.75665  0.24335  0.35717  1
 O  O1  1  0.11676  0.88324  0.70466  1
 O  O2  1  0.15168  0.84832  0.20741  1
 O  O3  1  0.35485  0.64515  0.53720  1
 O  O4  1  0.55628  0.44372  0.93367  1
 O  O5  1  0.44372  0.55628  0.06633  1
 O  O6  1  0.64515  0.35485  0.46280  1
 O  O7  1  0.84832  0.15168  0.79259  1
 O  O8  1  0.88324  0.11676  0.29534  1
 Si  Si1  1  0.00000  0.00000  0.00000  1
