CIF file written using JARVIS-Tools package.
data_NaFeO3
_symmetry_space_group_name_H-M  'R-3'
_cell_length_a       4.96422
_cell_length_b       5.94854
_cell_length_c       4.96422
_cell_angle_alpha    114.662
_cell_angle_beta     60
_cell_angle_gamma    114.662

_symmetry_Int_Tables_number  148
_chemical_formula_structural  NaFeO3
_chemical_formula_sum  Na2Fe2O6
_cell_volume  111.2456334826155
_cell_formula_units_Z  2
loop_
  _symmetry_equiv_pos_site_id
 _symmetry_equiv_pos_as_xyz
 1  'x, y, z'
loop_
 _atom_site_type_symbol
 _atom_site_label
 _atom_site_symmetry_multiplicity
 _atom_site_fract_x
 _atom_site_fract_y
 _atom_site_fract_z
 _atom_site_fract_occupancy
 Fe  Fe1  1  0.16061  0.48182  0.16061  1
 Fe  Fe2  1  0.83939  0.51818  0.83939  1
 Na  Na1  1  0.64373  0.93119  0.64373  1
 Na  Na2  1  0.35627  0.06881  0.35627  1
 O  O1  1  0.04456  0.29952  0.43813  1
 O  O2  1  0.56187  0.70048  0.18317  1
 O  O3  1  0.18317  0.70048  0.95544  1
 O  O4  1  0.81683  0.29952  0.04456  1
 O  O5  1  0.43813  0.29952  0.81683  1
 O  O6  1  0.95544  0.70048  0.56187  1
