CIF file written using JARVIS-Tools package.
data_TiCl3
_symmetry_space_group_name_H-M  'P6_3/mcm'
_cell_length_a       6.20127
_cell_length_b       6.20127
_cell_length_c       5.68491
_cell_angle_alpha    90
_cell_angle_beta     90
_cell_angle_gamma    120

_symmetry_Int_Tables_number  193
_chemical_formula_structural  TiCl3
_chemical_formula_sum  Ti2Cl6
_cell_volume  189.328740603497
_cell_formula_units_Z  2
loop_
  _symmetry_equiv_pos_site_id
 _symmetry_equiv_pos_as_xyz
 1  'x, y, z'
loop_
 _atom_site_type_symbol
 _atom_site_label
 _atom_site_symmetry_multiplicity
 _atom_site_fract_x
 _atom_site_fract_y
 _atom_site_fract_z
 _atom_site_fract_occupancy
 Cl  Cl1  1  0.68587  0.68587  0.25000  1
 Cl  Cl2  1  -0.00000  0.68587  0.75000  1
 Cl  Cl3  1  0.31413  0.31413  0.75000  1
 Cl  Cl4  1  0.00000  0.31413  0.25000  1
 Cl  Cl5  1  0.68587  -0.00000  0.75000  1
 Cl  Cl6  1  0.31413  0.00000  0.25000  1
 Ti  Ti1  1  0.00000  0.00000  0.00000  1
 Ti  Ti2  1  0.00000  0.00000  0.50000  1
