CIF file written using JARVIS-Tools package.
data_H8NF5
_symmetry_space_group_name_H-M  'I4_1/a'
_cell_length_a       6.30533
_cell_length_b       6.30534
_cell_length_c       8.05179
_cell_angle_alpha    113.051
_cell_angle_beta     113.051
_cell_angle_gamma    90

_symmetry_Int_Tables_number  88
_chemical_formula_structural  H8NF5
_chemical_formula_sum  H6N2F0
_cell_volume  266.55942593133403
_cell_formula_units_Z  2
loop_
  _symmetry_equiv_pos_site_id
 _symmetry_equiv_pos_as_xyz
 1  'x, y, z'
loop_
 _atom_site_type_symbol
 _atom_site_label
 _atom_site_symmetry_multiplicity
 _atom_site_fract_x
 _atom_site_fract_y
 _atom_site_fract_z
 _atom_site_fract_occupancy
 F  F1  1  0.62500  0.87500  0.25000  1
 F  F2  1  0.37500  0.12500  0.75000  1
 F  F3  1  0.27908  0.97568  0.03565  1
 F  F4  1  0.75657  0.55997  0.03565  1
 F  F5  1  0.47568  0.25657  0.53565  1
 F  F6  1  0.52432  0.74343  0.46435  1
 F  F7  1  0.72092  0.02432  0.96435  1
 F  F8  1  0.24343  0.44003  0.96435  1
 F  F9  1  0.94003  0.22092  0.46435  1
 F  F10  1  0.05997  0.77908  0.53565  1
 H  H1  1  0.26750  0.51111  0.33838  1
 H  H2  1  0.98889  0.42913  0.16162  1
 H  H3  1  0.92913  0.67274  0.66162  1
 H  H4  1  0.07087  0.32726  0.33838  1
 H  H5  1  0.01111  0.57087  0.83838  1
 H  H6  1  0.82726  0.76750  0.83838  1
 H  H7  1  0.29752  0.31407  0.87866  1
 H  H8  1  0.43541  0.20248  0.62134  1
 H  H9  1  0.41886  0.93541  0.12134  1
 H  H10  1  0.70248  0.68593  0.12134  1
 H  H11  1  0.18593  0.91886  0.62134  1
 H  H12  1  0.81407  0.08114  0.37866  1
 H  H13  1  0.58114  0.06459  0.87866  1
 H  H14  1  0.56459  0.79752  0.37866  1
 H  H15  1  0.73250  0.48889  0.66162  1
 H  H16  1  0.17274  0.23250  0.16162  1
 N  N1  1  0.87500  0.62500  0.75000  1
 N  N2  1  0.12500  0.37500  0.25000  1
