CIF file written using JARVIS-Tools package.
data_Li2TeO4
_symmetry_space_group_name_H-M  'P4_122'
_cell_length_a       6.06709
_cell_length_b       6.06709
_cell_length_c       8.37193
_cell_angle_alpha    90
_cell_angle_beta     90
_cell_angle_gamma    90

_symmetry_Int_Tables_number  91
_chemical_formula_structural  Li2TeO4
_chemical_formula_sum  Li8Te4O6
_cell_volume  308.1677496129761
_cell_formula_units_Z  4
loop_
  _symmetry_equiv_pos_site_id
 _symmetry_equiv_pos_as_xyz
 1  'x, y, z'
loop_
 _atom_site_type_symbol
 _atom_site_label
 _atom_site_symmetry_multiplicity
 _atom_site_fract_x
 _atom_site_fract_y
 _atom_site_fract_z
 _atom_site_fract_occupancy
 Li  Li1  1  0.74797  0.74797  0.87500  1
 Li  Li2  1  0.25203  0.74797  0.12500  1
 Li  Li3  1  0.74797  0.25203  0.62500  1
 Li  Li4  1  0.25203  0.25203  0.37500  1
 Li  Li5  1  0.70428  0.50000  0.25000  1
 Li  Li6  1  0.50000  0.29572  0.00000  1
 Li  Li7  1  0.50000  0.70428  0.50000  1
 Li  Li8  1  0.29572  0.50000  0.75000  1
 O  O1  1  0.77227  0.97993  0.48544  1
 O  O2  1  0.52591  0.23429  0.25413  1
 O  O3  1  0.23429  0.47409  0.00413  1
 O  O4  1  0.22773  0.97993  0.51456  1
 O  O5  1  0.02007  0.22773  0.76456  1
 O  O6  1  0.97993  0.77227  0.26456  1
 O  O7  1  0.23429  0.52591  0.49587  1
 O  O8  1  0.77227  0.02007  0.01456  1
 O  O9  1  0.76571  0.47409  0.99587  1
 O  O10  1  0.97993  0.22773  0.23544  1
 O  O11  1  0.47409  0.23429  0.74587  1
 O  O12  1  0.52591  0.76571  0.24587  1
 O  O13  1  0.47409  0.76571  0.75413  1
 O  O14  1  0.22773  0.02007  0.98544  1
 O  O15  1  0.76571  0.52591  0.50413  1
 O  O16  1  0.02007  0.77227  0.73544  1
 Te  Te1  1  0.00000  0.72590  0.50000  1
 Te  Te2  1  0.27410  0.00000  0.75000  1
 Te  Te3  1  0.72590  0.00000  0.25000  1
 Te  Te4  1  0.00000  0.27410  0.00000  1
