CIF file written using JARVIS-Tools package.
data_LiNiP
_symmetry_space_group_name_H-M  'P4/nmm'
_cell_length_a       3.72785
_cell_length_b       3.72785
_cell_length_c       5.81884
_cell_angle_alpha    90
_cell_angle_beta     90
_cell_angle_gamma    90

_symmetry_Int_Tables_number  129
_chemical_formula_structural  LiNiP
_chemical_formula_sum  Li2Ni2P2
_cell_volume  80.8634849464749
_cell_formula_units_Z  2
loop_
  _symmetry_equiv_pos_site_id
 _symmetry_equiv_pos_as_xyz
 1  'x, y, z'
loop_
 _atom_site_type_symbol
 _atom_site_label
 _atom_site_symmetry_multiplicity
 _atom_site_fract_x
 _atom_site_fract_y
 _atom_site_fract_z
 _atom_site_fract_occupancy
 Li  Li1  1  0.00000  0.50000  0.33793  1
 Li  Li2  1  0.50000  0.00000  0.66207  1
 Ni  Ni1  1  0.00000  0.00000  0.00000  1
 Ni  Ni2  1  0.50000  0.50000  0.00000  1
 P  P1  1  0.00000  0.50000  0.77530  1
 P  P2  1  0.50000  0.00000  0.22470  1
