CIF file written using JARVIS-Tools package.
data_Mn2OF3
_symmetry_space_group_name_H-M  'Cmcm'
_cell_length_a       6.30199
_cell_length_b       6.99481
_cell_length_c       7.26223
_cell_angle_alpha    90
_cell_angle_beta     115.715
_cell_angle_gamma    90

_symmetry_Int_Tables_number  63
_chemical_formula_structural  Mn2OF3
_chemical_formula_sum  Mn8O4F2
_cell_volume  288.4252628402237
_cell_formula_units_Z  4
loop_
  _symmetry_equiv_pos_site_id
 _symmetry_equiv_pos_as_xyz
 1  'x, y, z'
loop_
 _atom_site_type_symbol
 _atom_site_label
 _atom_site_symmetry_multiplicity
 _atom_site_fract_x
 _atom_site_fract_y
 _atom_site_fract_z
 _atom_site_fract_occupancy
 F  F1  1  0.74932  0.80084  0.49902  1
 F  F2  1  0.65003  -0.00000  0.80007  1
 F  F3  1  0.39967  0.50000  0.29934  1
 F  F4  1  0.74932  0.19916  0.49902  1
 F  F5  1  0.50030  0.69916  0.00098  1
 F  F6  1  0.00068  0.69916  0.00098  1
 F  F7  1  0.24970  0.19916  0.49902  1
 F  F8  1  0.50030  0.30084  0.00098  1
 F  F9  1  0.00068  0.30084  0.00098  1
 F  F10  1  0.35033  -0.00000  0.20066  1
 F  F11  1  0.24970  0.80084  0.49902  1
 F  F12  1  0.09997  0.50000  0.69993  1
 Mn  Mn1  1  -0.00028  0.00000  -0.00051  1
 Mn  Mn2  1  0.25023  0.50000  0.50051  1
 Mn  Mn3  1  0.75028  0.50000  0.50051  1
 Mn  Mn4  1  0.24937  0.50000  0.99874  1
 Mn  Mn5  1  0.99835  -0.00000  0.49670  1
 Mn  Mn6  1  0.75165  0.50000  0.00330  1
 Mn  Mn7  1  0.50063  -0.00000  0.50126  1
 Mn  Mn8  1  0.49977  0.00000  -0.00051  1
 O  O1  1  0.59491  0.50000  0.68981  1
 O  O2  1  0.90628  0.50000  0.31255  1
 O  O3  1  0.84372  -0.00000  0.18745  1
 O  O4  1  0.15509  -0.00000  0.81019  1
