CIF file written using JARVIS-Tools package.
data_AgO2F
_symmetry_space_group_name_H-M  'C222_1'
_cell_length_a       4.9225
_cell_length_b       4.6471
_cell_length_c       4.6471
_cell_angle_alpha    84.5543
_cell_angle_beta     90
_cell_angle_gamma    90

_symmetry_Int_Tables_number  20
_chemical_formula_structural  AgO2F
_chemical_formula_sum  Ag2O4F2
_cell_volume  105.82454045539662
_cell_formula_units_Z  2
loop_
  _symmetry_equiv_pos_site_id
 _symmetry_equiv_pos_as_xyz
 1  'x, y, z'
loop_
 _atom_site_type_symbol
 _atom_site_label
 _atom_site_symmetry_multiplicity
 _atom_site_fract_x
 _atom_site_fract_y
 _atom_site_fract_z
 _atom_site_fract_occupancy
 Ag  Ag1  1  0.50000  0.28302  0.28302  1
 Ag  Ag2  1  0.00000  0.71698  0.71698  1
 F  F1  1  0.75000  0.63983  0.36017  1
 F  F2  1  0.25000  0.36017  0.63983  1
 O  O1  1  0.22117  0.95487  0.23052  1
 O  O2  1  0.72117  0.04513  0.76948  1
 O  O3  1  0.27883  0.76948  0.04513  1
 O  O4  1  0.77883  0.23052  0.95487  1
