CIF file written using JARVIS-Tools package.
data_Sr2NiN6O12
_symmetry_space_group_name_H-M  'Fm-3m'
_cell_length_a       7.04974
_cell_length_b       7.04974
_cell_length_c       7.04974
_cell_angle_alpha    60
_cell_angle_beta     60
_cell_angle_gamma    60

_symmetry_Int_Tables_number  225
_chemical_formula_structural  Sr2NiN6O12
_chemical_formula_sum  Sr2NiN6O2
_cell_volume  247.7446291358085
_cell_formula_units_Z  1
loop_
  _symmetry_equiv_pos_site_id
 _symmetry_equiv_pos_as_xyz
 1  'x, y, z'
loop_
 _atom_site_type_symbol
 _atom_site_label
 _atom_site_symmetry_multiplicity
 _atom_site_fract_x
 _atom_site_fract_y
 _atom_site_fract_z
 _atom_site_fract_occupancy
 N  N1  1  0.20243  0.20243  0.79757  1
 N  N2  1  0.20243  0.79757  0.79757  1
 N  N3  1  0.79757  0.20243  0.20243  1
 N  N4  1  0.79757  0.20243  0.79757  1
 N  N5  1  0.20243  0.79757  0.20243  1
 N  N6  1  0.79757  0.79757  0.20243  1
 Ni  Ni1  1  0.00000  0.00000  0.00000  1
 O  O1  1  -0.00000  -0.00000  0.60800  1
 O  O2  1  0.60800  0.39200  0.00000  1
 O  O3  1  0.39200  -0.00000  0.60800  1
 O  O4  1  1.00000  0.39200  0.00000  1
 O  O5  1  0.00000  0.60800  0.39200  1
 O  O6  1  1.00000  0.39200  0.60800  1
 O  O7  1  0.00000  0.60800  -0.00000  1
 O  O8  1  0.39200  -0.00000  0.00000  1
 O  O9  1  0.60800  0.00000  0.39200  1
 O  O10  1  0.00000  0.00000  0.39200  1
 O  O11  1  0.60800  0.00000  1.00000  1
 O  O12  1  0.39200  0.60800  -0.00000  1
 Sr  Sr1  1  0.75000  0.75000  0.75000  1
 Sr  Sr2  1  0.25000  0.25000  0.25000  1
