CIF file written using JARVIS-Tools package.
data_AlSbO3
_symmetry_space_group_name_H-M  'P6_3cm'
_cell_length_a       5.67239
_cell_length_b       5.6724
_cell_length_c       13.0702
_cell_angle_alpha    90
_cell_angle_beta     90
_cell_angle_gamma    120

_symmetry_Int_Tables_number  185
_chemical_formula_structural  AlSbO3
_chemical_formula_sum  Al6Sb6O8
_cell_volume  364.2052751535259
_cell_formula_units_Z  6
loop_
  _symmetry_equiv_pos_site_id
 _symmetry_equiv_pos_as_xyz
 1  'x, y, z'
loop_
 _atom_site_type_symbol
 _atom_site_label
 _atom_site_symmetry_multiplicity
 _atom_site_fract_x
 _atom_site_fract_y
 _atom_site_fract_z
 _atom_site_fract_occupancy
 Al  Al1  1  0.66667  0.33333  0.26558  1
 Al  Al2  1  0.33333  0.66667  0.76558  1
 Al  Al3  1  0.66667  0.33333  0.76558  1
 Al  Al4  1  0.33333  0.66667  0.26558  1
 Al  Al5  1  0.00000  0.00000  0.72992  1
 Al  Al6  1  0.00000  0.00000  0.22992  1
 O  O1  1  0.00000  0.52691  0.35172  1
 O  O2  1  0.66667  0.33333  0.52773  1
 O  O3  1  0.47309  0.00000  0.85172  1
 O  O4  1  0.00000  0.00000  0.36425  1
 O  O5  1  0.68422  0.68422  0.19558  1
 O  O6  1  0.33333  0.66667  0.02773  1
 O  O7  1  0.52691  0.52691  0.85172  1
 O  O8  1  0.33333  0.66667  0.52773  1
 O  O9  1  0.66667  0.33333  0.02773  1
 O  O10  1  0.00000  0.00000  0.86425  1
 O  O11  1  0.52691  0.00000  0.35172  1
 O  O12  1  0.00000  0.68422  0.69558  1
 O  O13  1  0.31578  0.31578  0.69558  1
 O  O14  1  0.47309  0.47309  0.35172  1
 O  O15  1  -0.00000  0.31578  0.19558  1
 O  O16  1  -0.00000  0.47309  0.85172  1
 O  O17  1  0.31578  0.00000  0.19558  1
 O  O18  1  0.68422  0.00000  0.69558  1
 Sb  Sb1  1  0.00000  0.29726  0.98411  1
 Sb  Sb2  1  0.70274  0.00000  0.48411  1
 Sb  Sb3  1  0.70274  0.70274  0.98411  1
 Sb  Sb4  1  -0.00000  0.70274  0.48411  1
 Sb  Sb5  1  0.29726  0.29726  0.48411  1
 Sb  Sb6  1  0.29726  0.00000  0.98411  1
