CIF file written using JARVIS-Tools package.
data_CdIn4I6
_symmetry_space_group_name_H-M  'P4/mnc'
_cell_length_a       9.09168
_cell_length_b       9.09168
_cell_length_c       9.8036
_cell_angle_alpha    90
_cell_angle_beta     90
_cell_angle_gamma    90

_symmetry_Int_Tables_number  128
_chemical_formula_structural  CdIn4I6
_chemical_formula_sum  Cd2In8I2
_cell_volume  810.352577427691
_cell_formula_units_Z  2
loop_
  _symmetry_equiv_pos_site_id
 _symmetry_equiv_pos_as_xyz
 1  'x, y, z'
loop_
 _atom_site_type_symbol
 _atom_site_label
 _atom_site_symmetry_multiplicity
 _atom_site_fract_x
 _atom_site_fract_y
 _atom_site_fract_z
 _atom_site_fract_occupancy
 Cd  Cd1  1  0.00000  0.00000  0.00000  1
 Cd  Cd2  1  0.50000  0.50000  0.50000  1
 I  I1  1  0.50000  0.50000  0.79430  1
 I  I2  1  0.14727  0.68999  0.00000  1
 I  I3  1  0.68999  0.85273  0.00000  1
 I  I4  1  0.00000  0.00000  0.29430  1
 I  I5  1  0.85273  0.31001  0.00000  1
 I  I6  1  0.64727  0.81001  0.50000  1
 I  I7  1  0.00000  0.00000  0.70570  1
 I  I8  1  0.50000  0.50000  0.20570  1
 I  I9  1  0.81001  0.35273  0.50000  1
 I  I10  1  0.35273  0.18999  0.50000  1
 I  I11  1  0.18999  0.64727  0.50000  1
 I  I12  1  0.31001  0.14727  0.00000  1
 In  In1  1  0.35497  0.85497  0.75000  1
 In  In2  1  0.35497  0.85497  0.25000  1
 In  In3  1  0.14503  0.35497  0.75000  1
 In  In4  1  0.14503  0.35497  0.25000  1
 In  In5  1  0.64503  0.14503  0.25000  1
 In  In6  1  0.64503  0.14503  0.75000  1
 In  In7  1  0.85497  0.64503  0.25000  1
 In  In8  1  0.85497  0.64503  0.75000  1
