CIF file written using JARVIS-Tools package.
data_AuO2F
_symmetry_space_group_name_H-M  'C222_1'
_cell_length_a       4.28317
_cell_length_b       5.17406
_cell_length_c       5.17406
_cell_angle_alpha    96.8949
_cell_angle_beta     90
_cell_angle_gamma    90

_symmetry_Int_Tables_number  20
_chemical_formula_structural  AuO2F
_chemical_formula_sum  Au2O4F2
_cell_volume  113.83527087401545
_cell_formula_units_Z  2
loop_
  _symmetry_equiv_pos_site_id
 _symmetry_equiv_pos_as_xyz
 1  'x, y, z'
loop_
 _atom_site_type_symbol
 _atom_site_label
 _atom_site_symmetry_multiplicity
 _atom_site_fract_x
 _atom_site_fract_y
 _atom_site_fract_z
 _atom_site_fract_occupancy
 Au  Au1  1  0.00000  0.72429  0.72429  1
 Au  Au2  1  0.50000  0.27571  0.27571  1
 F  F1  1  0.75000  0.62562  0.37438  1
 F  F2  1  0.25000  0.37438  0.62562  1
 O  O1  1  0.71608  0.03842  0.77174  1
 O  O2  1  0.21608  0.96158  0.22826  1
 O  O3  1  0.28392  0.77174  0.03842  1
 O  O4  1  0.78392  0.22826  0.96158  1
