CIF file written using JARVIS-Tools package.
data_LiMn2O4
_symmetry_space_group_name_H-M  'Fd-3m'
_cell_length_a       5.74112
_cell_length_b       5.74113
_cell_length_c       5.74113
_cell_angle_alpha    60
_cell_angle_beta     60
_cell_angle_gamma    60

_symmetry_Int_Tables_number  227
_chemical_formula_structural  LiMn2O4
_chemical_formula_sum  Li2Mn4O8
_cell_volume  133.8063815002016
_cell_formula_units_Z  2
loop_
  _symmetry_equiv_pos_site_id
 _symmetry_equiv_pos_as_xyz
 1  'x, y, z'
loop_
 _atom_site_type_symbol
 _atom_site_label
 _atom_site_symmetry_multiplicity
 _atom_site_fract_x
 _atom_site_fract_y
 _atom_site_fract_z
 _atom_site_fract_occupancy
 Li  Li1  1  0.12500  0.12500  0.12500  1
 Li  Li2  1  0.87500  0.87500  0.87500  1
 Mn  Mn1  1  0.50000  0.50000  0.50000  1
 Mn  Mn2  1  0.50000  0.00000  0.50000  1
 Mn  Mn3  1  0.00000  0.50000  0.50000  1
 Mn  Mn4  1  0.50000  0.50000  0.00000  1
 O  O1  1  0.26232  0.26232  0.71305  1
 O  O2  1  0.73768  0.73768  0.73768  1
 O  O3  1  0.73768  0.73768  0.28695  1
 O  O4  1  0.26232  0.71305  0.26232  1
 O  O5  1  0.26232  0.26232  0.26232  1
 O  O6  1  0.28695  0.73768  0.73768  1
 O  O7  1  0.73768  0.28695  0.73768  1
 O  O8  1  0.71305  0.26232  0.26232  1
