CIF file written using JARVIS-Tools package.
data_HoAsO4
_symmetry_space_group_name_H-M  'I4_1/amd'
_cell_length_a       5.92385
_cell_length_b       5.92385
_cell_length_c       5.92385
_cell_angle_alpha    106.706
_cell_angle_beta     106.706
_cell_angle_gamma    115.155

_symmetry_Int_Tables_number  141
_chemical_formula_structural  HoAsO4
_chemical_formula_sum  Ho2As2O8
_cell_volume  158.83310533044093
_cell_formula_units_Z  2
loop_
  _symmetry_equiv_pos_site_id
 _symmetry_equiv_pos_as_xyz
 1  'x, y, z'
loop_
 _atom_site_type_symbol
 _atom_site_label
 _atom_site_symmetry_multiplicity
 _atom_site_fract_x
 _atom_site_fract_y
 _atom_site_fract_z
 _atom_site_fract_occupancy
 As  As1  1  0.37500  0.62500  0.75000  1
 As  As2  1  0.62500  0.37500  0.25000  1
 Ho  Ho1  1  0.12500  0.87500  0.25000  1
 Ho  Ho2  1  0.87500  0.12500  0.75000  1
 O  O1  1  0.80271  0.73550  0.43279  1
 O  O2  1  0.36992  0.80271  0.56721  1
 O  O3  1  0.73550  0.80271  0.93279  1
 O  O4  1  0.80271  0.36992  0.06721  1
 O  O5  1  0.63008  0.19729  0.43279  1
 O  O6  1  0.19729  0.26450  0.56721  1
 O  O7  1  0.19729  0.63008  0.93279  1
 O  O8  1  0.26450  0.19729  0.06721  1
