CIF file written using JARVIS-Tools package.
data_PbClF
_symmetry_space_group_name_H-M  'P2_1/m'
_cell_length_a       5.82745
_cell_length_b       4.50618
_cell_length_c       6.33851
_cell_angle_alpha    89.991
_cell_angle_beta     114.515
_cell_angle_gamma    90.0131

_symmetry_Int_Tables_number  11
_chemical_formula_structural  PbClF
_chemical_formula_sum  Pb2Cl2F2
_cell_volume  151.44170288527312
_cell_formula_units_Z  2
loop_
  _symmetry_equiv_pos_site_id
 _symmetry_equiv_pos_as_xyz
 1  'x, y, z'
loop_
 _atom_site_type_symbol
 _atom_site_label
 _atom_site_symmetry_multiplicity
 _atom_site_fract_x
 _atom_site_fract_y
 _atom_site_fract_z
 _atom_site_fract_occupancy
 Cl  Cl1  1  0.16359  0.75001  -0.19081  1
 Cl  Cl2  1  0.83641  0.24999  0.19081  1
 F  F1  1  0.55116  0.25000  0.62607  1
 F  F2  1  0.44884  0.75000  0.37393  1
 Pb  Pb1  1  0.64854  0.75004  0.78710  1
 Pb  Pb2  1  0.35146  0.24996  0.21290  1
