CIF file written using JARVIS-Tools package.
data_Ni5P4O16
_symmetry_space_group_name_H-M  'P-1'
_cell_length_a       5.0023
_cell_length_b       7.77661
_cell_length_c       8.04512
_cell_angle_alpha    111.642
_cell_angle_beta     91.1699
_cell_angle_gamma    100.439

_symmetry_Int_Tables_number  2
_chemical_formula_structural  Ni5P4O16
_chemical_formula_sum  Ni5P4O6
_cell_volume  284.77982445770755
_cell_formula_units_Z  1
loop_
  _symmetry_equiv_pos_site_id
 _symmetry_equiv_pos_as_xyz
 1  'x, y, z'
loop_
 _atom_site_type_symbol
 _atom_site_label
 _atom_site_symmetry_multiplicity
 _atom_site_fract_x
 _atom_site_fract_y
 _atom_site_fract_z
 _atom_site_fract_occupancy
 Ni  Ni1  1  0.89464  0.76194  0.23426  1
 Ni  Ni2  1  0.34728  0.59520  0.32220  1
 Ni  Ni3  1  0.65272  0.40480  0.67780  1
 Ni  Ni4  1  0.00000  0.00000  -0.00000  1
 Ni  Ni5  1  0.10536  0.23806  0.76574  1
 O  O1  1  0.25910  0.37574  0.37744  1
 O  O2  1  0.22695  0.67287  0.12708  1
 O  O3  1  0.64127  0.82066  0.43820  1
 O  O4  1  0.65193  0.49808  0.18310  1
 O  O5  1  0.69300  0.77924  0.02896  1
 O  O6  1  0.30700  0.22076  0.97104  1
 O  O7  1  0.08785  0.75890  0.44959  1
 O  O8  1  0.77305  0.32713  0.87292  1
 O  O9  1  0.35873  0.17934  0.56180  1
 O  O10  1  0.74747  0.16908  0.09767  1
 O  O11  1  0.08244  0.02514  0.25795  1
 O  O12  1  0.34807  0.50192  0.81690  1
 O  O13  1  0.91756  0.97486  0.74205  1
 O  O14  1  0.74090  0.62426  0.62257  1
 O  O15  1  0.25253  0.83092  0.90233  1
 O  O16  1  0.91215  0.24110  0.55041  1
 P  P1  1  0.84746  0.79041  0.57284  1
 P  P2  1  0.38007  0.70260  0.96904  1
 P  P3  1  0.61993  0.29740  0.03096  1
 P  P4  1  0.15254  0.20959  0.42716  1
