CIF file written using JARVIS-Tools package.
data_DyTaO4
_symmetry_space_group_name_H-M  'C2/c'
_cell_length_a       5.09224
_cell_length_b       5.34873
_cell_length_c       6.52701
_cell_angle_alpha    111.875
_cell_angle_beta     110.553
_cell_angle_gamma    95.4646

_symmetry_Int_Tables_number  15
_chemical_formula_structural  DyTaO4
_chemical_formula_sum  Dy2Ta2O8
_cell_volume  149.15684766012842
_cell_formula_units_Z  2
loop_
  _symmetry_equiv_pos_site_id
 _symmetry_equiv_pos_as_xyz
 1  'x, y, z'
loop_
 _atom_site_type_symbol
 _atom_site_label
 _atom_site_symmetry_multiplicity
 _atom_site_fract_x
 _atom_site_fract_y
 _atom_site_fract_z
 _atom_site_fract_occupancy
 Dy  Dy1  1  0.38122  0.63122  0.76245  1
 Dy  Dy2  1  0.61878  0.36878  0.23755  1
 O  O1  1  0.56137  0.27490  0.56231  1
 O  O2  1  0.79162  0.63155  0.07865  1
 O  O3  1  0.43863  0.72510  0.43769  1
 O  O4  1  0.71298  0.05291  0.92135  1
 O  O5  1  0.00094  0.78742  0.56231  1
 O  O6  1  0.28702  0.94709  0.07865  1
 O  O7  1  0.20838  0.36845  0.92135  1
 O  O8  1  -0.00094  0.21258  0.43769  1
 Ta  Ta1  1  0.85198  0.10198  0.70397  1
 Ta  Ta2  1  0.14802  0.89802  0.29603  1
