CIF file written using JARVIS-Tools package.
data_Na2SeO4
_symmetry_space_group_name_H-M  'Fddd'
_cell_length_a       5.93102
_cell_length_b       5.93103
_cell_length_c       7.02623
_cell_angle_alpha    103.043
_cell_angle_beta     103.043
_cell_angle_gamma    117.728

_symmetry_Int_Tables_number  70
_chemical_formula_structural  Na2SeO4
_chemical_formula_sum  Na4Se2O8
_cell_volume  196.84035525739972
_cell_formula_units_Z  2
loop_
  _symmetry_equiv_pos_site_id
 _symmetry_equiv_pos_as_xyz
 1  'x, y, z'
loop_
 _atom_site_type_symbol
 _atom_site_label
 _atom_site_symmetry_multiplicity
 _atom_site_fract_x
 _atom_site_fract_y
 _atom_site_fract_z
 _atom_site_fract_occupancy
 Na  Na1  1  0.19124  0.80876  0.25000  1
 Na  Na2  1  0.44124  0.55876  0.75000  1
 Na  Na3  1  0.55876  0.44124  0.25000  1
 Na  Na4  1  0.80876  0.19124  0.75000  1
 O  O1  1  0.79573  0.74584  0.60388  1
 O  O2  1  0.25416  0.20427  0.89612  1
 O  O3  1  0.85804  0.30815  0.10388  1
 O  O4  1  0.20427  0.25416  0.39612  1
 O  O5  1  0.69185  0.14196  0.39612  1
 O  O6  1  0.30815  0.85804  0.60388  1
 O  O7  1  0.14196  0.69185  0.89612  1
 O  O8  1  0.74584  0.79573  0.10388  1
 Se  Se1  1  0.12500  0.87500  0.75000  1
 Se  Se2  1  0.87500  0.12500  0.25000  1
