CIF file written using JARVIS-Tools package.
data_HoAgSe2
_symmetry_space_group_name_H-M  'P2_12_12_1'
_cell_length_a       4.22286
_cell_length_b       6.76975
_cell_length_c       13.737
_cell_angle_alpha    90
_cell_angle_beta     90
_cell_angle_gamma    90

_symmetry_Int_Tables_number  19
_chemical_formula_structural  HoAgSe2
_chemical_formula_sum  Ho4Ag4Se8
_cell_volume  392.70800050317786
_cell_formula_units_Z  4
loop_
  _symmetry_equiv_pos_site_id
 _symmetry_equiv_pos_as_xyz
 1  'x, y, z'
loop_
 _atom_site_type_symbol
 _atom_site_label
 _atom_site_symmetry_multiplicity
 _atom_site_fract_x
 _atom_site_fract_y
 _atom_site_fract_z
 _atom_site_fract_occupancy
 Ag  Ag1  1  0.00757  0.70807  0.62802  1
 Ag  Ag2  1  0.99243  0.20807  0.87198  1
 Ag  Ag3  1  0.50757  0.79193  0.37198  1
 Ag  Ag4  1  0.49243  0.29193  0.12802  1
 Ho  Ho1  1  0.71492  0.29341  0.37262  1
 Ho  Ho2  1  0.21492  0.20659  0.62738  1
 Ho  Ho3  1  0.28508  0.79341  0.12738  1
 Ho  Ho4  1  0.78508  0.70659  0.87262  1
 Se  Se1  1  0.22316  0.49123  0.47359  1
 Se  Se2  1  0.72316  0.00877  0.52641  1
 Se  Se3  1  0.77684  0.99123  0.02641  1
 Se  Se4  1  0.27684  0.50877  0.97359  1
 Se  Se5  1  0.21561  0.08710  0.27422  1
 Se  Se6  1  0.28439  0.91290  0.77422  1
 Se  Se7  1  0.78439  0.58710  0.22578  1
 Se  Se8  1  0.71561  0.41290  0.72578  1
