CIF file written using JARVIS-Tools package.
data_BaSiO3
_symmetry_space_group_name_H-M  'R-3m'
_cell_length_a       7.46191
_cell_length_b       7.46191
_cell_length_c       7.46191
_cell_angle_alpha    44.0708
_cell_angle_beta     44.0708
_cell_angle_gamma    44.0707

_symmetry_Int_Tables_number  166
_chemical_formula_structural  BaSiO3
_chemical_formula_sum  Ba3Si3O9
_cell_volume  182.59168810654413
_cell_formula_units_Z  3
loop_
  _symmetry_equiv_pos_site_id
 _symmetry_equiv_pos_as_xyz
 1  'x, y, z'
loop_
 _atom_site_type_symbol
 _atom_site_label
 _atom_site_symmetry_multiplicity
 _atom_site_fract_x
 _atom_site_fract_y
 _atom_site_fract_z
 _atom_site_fract_occupancy
 Ba  Ba1  1  0.78658  0.78658  0.78658  1
 Ba  Ba2  1  0.21342  0.21342  0.21342  1
 Ba  Ba3  1  0.00000  0.00000  0.00000  1
 O  O1  1  0.30001  0.30001  0.72496  1
 O  O2  1  0.30001  0.72496  0.30001  1
 O  O3  1  0.72496  0.30001  0.30001  1
 O  O4  1  0.27504  0.69999  0.69999  1
 O  O5  1  0.69999  0.69999  0.27504  1
 O  O6  1  0.69999  0.27504  0.69999  1
 O  O7  1  0.50000  0.50000  0.00000  1
 O  O8  1  0.00000  0.50000  0.50000  1
 O  O9  1  0.50000  0.00000  0.50000  1
 Si  Si1  1  0.61975  0.61975  0.61975  1
 Si  Si2  1  0.38025  0.38025  0.38025  1
 Si  Si3  1  0.50000  0.50000  0.50000  1
