CIF file written using JARVIS-Tools package.
data_ScTiO3
_symmetry_space_group_name_H-M  'Pnma'
_cell_length_a       5.11543
_cell_length_b       5.50545
_cell_length_c       7.51769
_cell_angle_alpha    90
_cell_angle_beta     90
_cell_angle_gamma    90

_symmetry_Int_Tables_number  62
_chemical_formula_structural  ScTiO3
_chemical_formula_sum  Sc4Ti4O2
_cell_volume  211.7184758939793
_cell_formula_units_Z  4
loop_
  _symmetry_equiv_pos_site_id
 _symmetry_equiv_pos_as_xyz
 1  'x, y, z'
loop_
 _atom_site_type_symbol
 _atom_site_label
 _atom_site_symmetry_multiplicity
 _atom_site_fract_x
 _atom_site_fract_y
 _atom_site_fract_z
 _atom_site_fract_occupancy
 O  O1  1  0.31897  0.30957  0.43748  1
 O  O2  1  0.85225  0.43378  0.25805  1
 O  O3  1  0.18103  0.80957  0.43748  1
 O  O4  1  0.81897  0.19043  0.93748  1
 O  O5  1  0.68105  0.69043  0.57864  1
 O  O6  1  0.81895  0.19043  0.57864  1
 O  O7  1  0.64775  0.93378  0.25805  1
 O  O8  1  0.35225  0.06622  0.75805  1
 O  O9  1  0.31895  0.30957  0.07864  1
 O  O10  1  0.14775  0.56622  0.75805  1
 O  O11  1  0.18105  0.80957  0.07864  1
 O  O12  1  0.68103  0.69043  0.93748  1
 Sc  Sc1  1  0.02654  0.07419  0.25804  1
 Sc  Sc2  1  0.47346  0.57419  0.25804  1
 Sc  Sc3  1  0.52654  0.42581  0.75804  1
 Sc  Sc4  1  0.97346  0.92581  0.75804  1
 Ti  Ti1  1  -0.00001  0.50001  0.00805  1
 Ti  Ti2  1  0.50001  0.00001  0.00805  1
 Ti  Ti3  1  0.49999  -0.00001  0.50805  1
 Ti  Ti4  1  0.00001  0.49999  0.50805  1
