CIF file written using JARVIS-Tools package.
data_Ti2MnPt
_symmetry_space_group_name_H-M  'Immm'
_cell_length_a       9.48335
_cell_length_b       5.46679
_cell_length_c       5.46679
_cell_angle_alpha    28.6955
_cell_angle_beta     29.8468
_cell_angle_gamma    29.8468

_symmetry_Int_Tables_number  71
_chemical_formula_structural  Ti2MnPt
_chemical_formula_sum  Ti2MnPt
_cell_volume  60.62516297725708
_cell_formula_units_Z  1
loop_
  _symmetry_equiv_pos_site_id
 _symmetry_equiv_pos_as_xyz
 1  'x, y, z'
loop_
 _atom_site_type_symbol
 _atom_site_label
 _atom_site_symmetry_multiplicity
 _atom_site_fract_x
 _atom_site_fract_y
 _atom_site_fract_z
 _atom_site_fract_occupancy
 Mn  Mn1  1  0.00000  0.00000  0.00000  1
 Pt  Pt1  1  0.50000  -0.00000  -0.00000  1
 Ti  Ti1  1  0.76882  -0.00000  0.00000  1
 Ti  Ti2  1  0.23118  0.00000  -0.00000  1
