CIF file written using JARVIS-Tools package.
data_Ca3C3Cl2
_symmetry_space_group_name_H-M  'Cmcm'
_cell_length_a       3.83039
_cell_length_b       6.95708
_cell_length_c       11.5155
_cell_angle_alpha    90
_cell_angle_beta     90
_cell_angle_gamma    105.979

_symmetry_Int_Tables_number  63
_chemical_formula_structural  Ca3C3Cl2
_chemical_formula_sum  Ca6C6Cl4
_cell_volume  295.01150390109024
_cell_formula_units_Z  2
loop_
  _symmetry_equiv_pos_site_id
 _symmetry_equiv_pos_as_xyz
 1  'x, y, z'
loop_
 _atom_site_type_symbol
 _atom_site_label
 _atom_site_symmetry_multiplicity
 _atom_site_fract_x
 _atom_site_fract_y
 _atom_site_fract_z
 _atom_site_fract_occupancy
 C  C1  1  0.73311  0.46622  0.63528  1
 C  C2  1  0.26689  0.53378  0.36472  1
 C  C3  1  0.26689  0.53378  0.13528  1
 C  C4  1  0.73311  0.46622  0.86472  1
 C  C5  1  0.25652  0.51304  0.25000  1
 C  C6  1  0.74348  0.48696  0.75000  1
 Ca  Ca1  1  0.34409  0.68819  0.56059  1
 Ca  Ca2  1  0.65591  0.31181  0.43941  1
 Ca  Ca3  1  0.65591  0.31181  0.06059  1
 Ca  Ca4  1  0.34409  0.68819  0.93941  1
 Ca  Ca5  1  0.87890  0.75780  0.25000  1
 Ca  Ca6  1  0.12110  0.24220  0.75000  1
 Cl  Cl1  1  0.47053  0.94105  0.75000  1
 Cl  Cl2  1  0.52947  0.05895  0.25000  1
 Cl  Cl3  1  0.00000  0.00000  0.00000  1
 Cl  Cl4  1  0.00000  0.00000  0.50000  1
