CIF file written using JARVIS-Tools package.
data_BaGeO3
_symmetry_space_group_name_H-M  'P2_12_12_1'
_cell_length_a       4.6583
_cell_length_b       5.77521
_cell_length_c       12.9474
_cell_angle_alpha    90
_cell_angle_beta     90
_cell_angle_gamma    90

_symmetry_Int_Tables_number  19
_chemical_formula_structural  BaGeO3
_chemical_formula_sum  Ba4Ge4O2
_cell_volume  348.3198618425472
_cell_formula_units_Z  4
loop_
  _symmetry_equiv_pos_site_id
 _symmetry_equiv_pos_as_xyz
 1  'x, y, z'
loop_
 _atom_site_type_symbol
 _atom_site_label
 _atom_site_symmetry_multiplicity
 _atom_site_fract_x
 _atom_site_fract_y
 _atom_site_fract_z
 _atom_site_fract_occupancy
 Ba  Ba1  1  0.27664  0.81779  0.86120  1
 Ba  Ba2  1  0.77664  0.68221  0.13880  1
 Ba  Ba3  1  0.72336  0.31779  0.63880  1
 Ba  Ba4  1  0.22336  0.18221  0.36120  1
 Ge  Ge1  1  0.82720  0.30704  0.92312  1
 Ge  Ge2  1  0.32720  0.19296  0.07688  1
 Ge  Ge3  1  0.17280  0.80704  0.57688  1
 Ge  Ge4  1  0.67280  0.69296  0.42312  1
 O  O1  1  0.76481  0.60460  0.91234  1
 O  O2  1  0.71630  0.21179  0.05228  1
 O  O3  1  0.23519  0.10460  0.58766  1
 O  O4  1  0.73519  0.39540  0.41234  1
 O  O5  1  0.26481  0.89540  0.08766  1
 O  O6  1  0.28370  0.71179  0.44772  1
 O  O7  1  0.24117  0.61180  0.67678  1
 O  O8  1  0.74117  0.88820  0.32322  1
 O  O9  1  0.75883  0.11180  0.82322  1
 O  O10  1  0.78370  0.78821  0.55228  1
 O  O11  1  0.25883  0.38820  0.17678  1
 O  O12  1  0.21630  0.28821  0.94772  1
