CIF file written using JARVIS-Tools package.
data_HfP2S6
_symmetry_space_group_name_H-M  'Fdd2'
_cell_length_a       6.87805
_cell_length_b       6.87805
_cell_length_c       11.4768
_cell_angle_alpha    100.568
_cell_angle_beta     100.568
_cell_angle_gamma    112.826

_symmetry_Int_Tables_number  43
_chemical_formula_structural  HfP2S6
_chemical_formula_sum  Hf2P4S2
_cell_volume  472.1173912594412
_cell_formula_units_Z  2
loop_
  _symmetry_equiv_pos_site_id
 _symmetry_equiv_pos_as_xyz
 1  'x, y, z'
loop_
 _atom_site_type_symbol
 _atom_site_label
 _atom_site_symmetry_multiplicity
 _atom_site_fract_x
 _atom_site_fract_y
 _atom_site_fract_z
 _atom_site_fract_occupancy
 Hf  Hf1  1  0.59946  0.09946  0.19893  1
 Hf  Hf2  1  0.84946  0.84946  0.69893  1
 P  P1  1  0.63690  0.51302  0.37677  1
 P  P2  1  0.73987  0.86376  0.37677  1
 P  P3  1  0.61376  0.98987  0.87677  1
 P  P4  1  0.26302  0.88690  0.87677  1
 S  S1  1  0.46244  0.91247  0.36064  1
 S  S2  1  0.06844  0.62619  0.72704  1
 S  S3  1  0.65860  0.10085  0.72704  1
 S  S4  1  0.85085  0.90860  0.22704  1
 S  S5  1  0.37619  0.31844  0.22704  1
 S  S6  1  0.98765  0.03461  0.53798  1
 S  S7  1  0.55033  0.50338  0.53798  1
 S  S8  1  0.89820  0.44818  0.36064  1
 S  S9  1  0.19818  0.14820  0.86064  1
 S  S10  1  0.66247  0.71244  0.86064  1
 S  S11  1  0.78461  0.23765  0.03798  1
 S  S12  1  0.25338  0.80033  0.03798  1
