CIF file written using JARVIS-Tools package.
data_Ta3O7F
_symmetry_space_group_name_H-M  'Cmmm'
_cell_length_a       6.29624
_cell_length_b       6.29624
_cell_length_c       3.876
_cell_angle_alpha    90
_cell_angle_beta     90
_cell_angle_gamma    62.0388

_symmetry_Int_Tables_number  65
_chemical_formula_structural  Ta3O7F
_chemical_formula_sum  Ta3O7F
_cell_volume  135.71796882460043
_cell_formula_units_Z  1
loop_
  _symmetry_equiv_pos_site_id
 _symmetry_equiv_pos_as_xyz
 1  'x, y, z'
loop_
 _atom_site_type_symbol
 _atom_site_label
 _atom_site_symmetry_multiplicity
 _atom_site_fract_x
 _atom_site_fract_y
 _atom_site_fract_z
 _atom_site_fract_occupancy
 F  F1  1  0.50000  0.50000  0.00000  1
 O  O1  1  0.04529  0.66225  0.00000  1
 O  O2  1  0.33775  0.95471  0.00000  1
 O  O3  1  0.00000  0.00000  0.50000  1
 O  O4  1  0.31419  0.31419  0.50000  1
 O  O5  1  0.68581  0.68581  0.50000  1
 O  O6  1  0.95471  0.33775  0.00000  1
 O  O7  1  0.66225  0.04529  0.00000  1
 Ta  Ta1  1  0.00000  0.00000  0.00000  1
 Ta  Ta2  1  0.30219  0.30219  0.00000  1
 Ta  Ta3  1  0.69781  0.69781  0.00000  1
