CIF file written using JARVIS-Tools package.
data_LiV3O4
_symmetry_space_group_name_H-M  'Cmmm'
_cell_length_a       2.92172
_cell_length_b       5.12458
_cell_length_c       5.12466
_cell_angle_alpha    108.33
_cell_angle_beta     90.0008
_cell_angle_gamma    90.0007

_symmetry_Int_Tables_number  65
_chemical_formula_structural  LiV3O4
_chemical_formula_sum  LiV3O4
_cell_volume  72.83617640066889
_cell_formula_units_Z  1
loop_
  _symmetry_equiv_pos_site_id
 _symmetry_equiv_pos_as_xyz
 1  'x, y, z'
loop_
 _atom_site_type_symbol
 _atom_site_label
 _atom_site_symmetry_multiplicity
 _atom_site_fract_x
 _atom_site_fract_y
 _atom_site_fract_z
 _atom_site_fract_occupancy
 Li  Li1  1  0.50000  0.50000  -0.00000  1
 O  O1  1  0.99997  0.75300  0.25300  1
 O  O2  1  0.50000  0.74445  0.75555  1
 O  O3  1  0.00003  0.24700  0.74700  1
 O  O4  1  0.50000  0.25555  0.24445  1
 V  V1  1  0.50000  0.00000  0.50000  1
 V  V2  1  0.00000  0.00000  0.00000  1
 V  V3  1  0.00000  0.50000  0.50000  1
