CIF file written using JARVIS-Tools package.
data_CuCO3
_symmetry_space_group_name_H-M  'Cm'
_cell_length_a       3.06447
_cell_length_b       4.65759
_cell_length_c       4.65759
_cell_angle_alpha    62.319
_cell_angle_beta     98.1686
_cell_angle_gamma    98.1687

_symmetry_Int_Tables_number  8
_chemical_formula_structural  CuCO3
_chemical_formula_sum  CuCO3
_cell_volume  58.05221435152419
_cell_formula_units_Z  1
loop_
  _symmetry_equiv_pos_site_id
 _symmetry_equiv_pos_as_xyz
 1  'x, y, z'
loop_
 _atom_site_type_symbol
 _atom_site_label
 _atom_site_symmetry_multiplicity
 _atom_site_fract_x
 _atom_site_fract_y
 _atom_site_fract_z
 _atom_site_fract_occupancy
 C  C1  1  0.11054  0.02181  0.02181  1
 Cu  Cu1  1  0.46333  0.43488  0.43488  1
 O  O1  1  0.38562  0.15505  0.15505  1
 O  O2  1  0.97776  0.17110  0.70716  1
 O  O3  1  0.97776  0.70716  0.17110  1
