CIF file written using JARVIS-Tools package.
data_VO2
_symmetry_space_group_name_H-M  'P1'
_cell_length_a       2.91353
_cell_length_b       2.90353
_cell_length_c       9.62977
_cell_angle_alpha    73.0658
_cell_angle_beta     107.061
_cell_angle_gamma    119.911

_symmetry_Int_Tables_number  1
_chemical_formula_structural  VO2
_chemical_formula_sum  V2O4
_cell_volume  66.46331962496856
_cell_formula_units_Z  2
loop_
  _symmetry_equiv_pos_site_id
 _symmetry_equiv_pos_as_xyz
 1  'x, y, z'
loop_
 _atom_site_type_symbol
 _atom_site_label
 _atom_site_symmetry_multiplicity
 _atom_site_fract_x
 _atom_site_fract_y
 _atom_site_fract_z
 _atom_site_fract_occupancy
 O  O1  1  0.59448  0.40467  0.39352  1
 O  O2  1  0.73632  0.26449  0.11089  1
 O  O3  1  0.40084  0.59696  0.61073  1
 O  O4  1  0.25914  0.73643  0.89342  1
 V  V1  1  0.03118  0.01264  0.50194  1
 V  V2  1  -0.03529  -0.01675  0.00196  1
