CIF file written using JARVIS-Tools package.
data_Bi2Se3
_symmetry_space_group_name_H-M  'R-3m'
_cell_length_a       10.0251
_cell_length_b       10.0251
_cell_length_c       10.0251
_cell_angle_alpha    24.1493
_cell_angle_beta     24.1492
_cell_angle_gamma    24.1492

_symmetry_Int_Tables_number  166
_chemical_formula_structural  Bi2Se3
_chemical_formula_sum  Bi2Se3
_cell_volume  148.20631801554174
_cell_formula_units_Z  1
loop_
  _symmetry_equiv_pos_site_id
 _symmetry_equiv_pos_as_xyz
 1  'x, y, z'
loop_
 _atom_site_type_symbol
 _atom_site_label
 _atom_site_symmetry_multiplicity
 _atom_site_fract_x
 _atom_site_fract_y
 _atom_site_fract_z
 _atom_site_fract_occupancy
 Bi  Bi1  1  0.40000  0.40000  0.40000  1
 Bi  Bi2  1  0.60000  0.60000  0.60000  1
 Se  Se1  1  0.00000  0.00000  0.00000  1
 Se  Se2  1  0.21277  0.21277  0.21277  1
 Se  Se3  1  0.78723  0.78723  0.78723  1
