CIF file written using JARVIS-Tools package.
data_Hf2N2O
_symmetry_space_group_name_H-M  'P2_1/m'
_cell_length_a       3.43061
_cell_length_b       4.26844
_cell_length_c       8.64983
_cell_angle_alpha    100.353
_cell_angle_beta     90.0039
_cell_angle_gamma    90.0011

_symmetry_Int_Tables_number  11
_chemical_formula_structural  Hf2N2O
_chemical_formula_sum  Hf4N4O2
_cell_volume  124.60035706558388
_cell_formula_units_Z  2
loop_
  _symmetry_equiv_pos_site_id
 _symmetry_equiv_pos_as_xyz
 1  'x, y, z'
loop_
 _atom_site_type_symbol
 _atom_site_label
 _atom_site_symmetry_multiplicity
 _atom_site_fract_x
 _atom_site_fract_y
 _atom_site_fract_z
 _atom_site_fract_occupancy
 Hf  Hf1  1  0.24957  0.70965  0.89429  1
 Hf  Hf2  1  0.24932  0.87582  0.33005  1
 Hf  Hf3  1  0.74941  0.12215  0.67154  1
 Hf  Hf4  1  0.74936  0.28832  0.10729  1
 N  N1  1  0.74971  0.66748  0.75141  1
 N  N2  1  0.75004  0.78353  0.09758  1
 N  N3  1  0.25020  0.21443  0.90400  1
 N  N4  1  0.24961  0.33049  0.25018  1
 O  O1  1  0.24944  0.18636  0.56206  1
 O  O2  1  0.74938  0.81160  0.43953  1
