CIF file written using JARVIS-Tools package.
data_Ba3Zr2O7
_symmetry_space_group_name_H-M  'I4/mmm'
_cell_length_a       4.22412
_cell_length_b       11.4053
_cell_length_c       4.22412
_cell_angle_alpha    79.3282
_cell_angle_beta     90
_cell_angle_gamma    100.672

_symmetry_Int_Tables_number  139
_chemical_formula_structural  Ba3Zr2O7
_chemical_formula_sum  Ba3Zr2O7
_cell_volume  196.4044742902465
_cell_formula_units_Z  1
loop_
  _symmetry_equiv_pos_site_id
 _symmetry_equiv_pos_as_xyz
 1  'x, y, z'
loop_
 _atom_site_type_symbol
 _atom_site_label
 _atom_site_symmetry_multiplicity
 _atom_site_fract_x
 _atom_site_fract_y
 _atom_site_fract_z
 _atom_site_fract_occupancy
 Ba  Ba1  1  0.00000  0.00000  0.00000  1
 Ba  Ba2  1  0.81411  0.62822  0.18589  1
 Ba  Ba3  1  0.18589  0.37178  0.81411  1
 O  O1  1  0.09593  0.19187  0.40407  1
 O  O2  1  0.50000  0.00000  0.50000  1
 O  O3  1  0.69289  0.38578  0.30711  1
 O  O4  1  0.40407  0.80813  0.09593  1
 O  O5  1  0.59593  0.19187  0.90407  1
 O  O6  1  0.30711  0.61422  0.69289  1
 O  O7  1  0.90407  0.80813  0.59593  1
 Zr  Zr1  1  0.59707  0.19415  0.40293  1
 Zr  Zr2  1  0.40293  0.80585  0.59707  1
