CIF file written using JARVIS-Tools package.
data_CrO3
_symmetry_space_group_name_H-M  'Ama2'
_cell_length_a       4.77245
_cell_length_b       5.76036
_cell_length_c       4.83622
_cell_angle_alpha    90
_cell_angle_beta     119.549
_cell_angle_gamma    90

_symmetry_Int_Tables_number  40
_chemical_formula_structural  CrO3
_chemical_formula_sum  Cr2O6
_cell_volume  115.65988553283393
_cell_formula_units_Z  2
loop_
  _symmetry_equiv_pos_site_id
 _symmetry_equiv_pos_as_xyz
 1  'x, y, z'
loop_
 _atom_site_type_symbol
 _atom_site_label
 _atom_site_symmetry_multiplicity
 _atom_site_fract_x
 _atom_site_fract_y
 _atom_site_fract_z
 _atom_site_fract_occupancy
 Cr  Cr1  1  0.40507  0.50000  0.79602  1
 Cr  Cr2  1  0.60903  0.00000  0.20399  1
 O  O1  1  0.29344  0.00000  0.23571  1
 O  O2  1  0.91439  0.00000  0.55197  1
 O  O3  1  0.36252  0.50000  0.44800  1
 O  O4  1  0.05781  0.50000  0.76439  1
 O  O5  1  0.61987  0.24999  -0.00004  1
 O  O6  1  0.61987  0.75001  -0.00004  1
