CIF file written using JARVIS-Tools package.
data_V2Te2O7F2
_symmetry_space_group_name_H-M  'P-1'
_cell_length_a       4.83969
_cell_length_b       4.99952
_cell_length_c       7.27456
_cell_angle_alpha    109.509
_cell_angle_beta     92.1808
_cell_angle_gamma    92.2635

_symmetry_Int_Tables_number  2
_chemical_formula_structural  V2Te2O7F2
_chemical_formula_sum  V2Te2O7F2
_cell_volume  165.53621249198608
_cell_formula_units_Z  1
loop_
  _symmetry_equiv_pos_site_id
 _symmetry_equiv_pos_as_xyz
 1  'x, y, z'
loop_
 _atom_site_type_symbol
 _atom_site_label
 _atom_site_symmetry_multiplicity
 _atom_site_fract_x
 _atom_site_fract_y
 _atom_site_fract_z
 _atom_site_fract_occupancy
 F  F1  1  0.42327  0.24615  0.46490  1
 F  F2  1  0.57673  0.75385  0.53510  1
 O  O1  1  0.12614  0.93036  0.76794  1
 O  O2  1  0.08450  0.63562  0.37286  1
 O  O3  1  0.87386  0.06964  0.23206  1
 O  O4  1  0.47262  0.58165  0.84696  1
 O  O5  1  0.52738  0.41835  0.15304  1
 O  O6  1  0.91550  0.36438  0.62714  1
 O  O7  1  0.00000  0.50000  0.00000  1
 Te  Te1  1  0.70543  0.27152  0.83850  1
 Te  Te2  1  0.29457  0.72848  0.16150  1
 V  V1  1  0.78240  0.37794  0.37986  1
 V  V2  1  0.21760  0.62206  0.62014  1
