CIF file written using JARVIS-Tools package.
data_SbPO4
_symmetry_space_group_name_H-M  'P2_1/m'
_cell_length_a       4.74544
_cell_length_b       6.86144
_cell_length_c       5.06758
_cell_angle_alpha    90
_cell_angle_beta     95.7011
_cell_angle_gamma    90

_symmetry_Int_Tables_number  11
_chemical_formula_structural  SbPO4
_chemical_formula_sum  Sb2P2O8
_cell_volume  164.18681744839535
_cell_formula_units_Z  2
loop_
  _symmetry_equiv_pos_site_id
 _symmetry_equiv_pos_as_xyz
 1  'x, y, z'
loop_
 _atom_site_type_symbol
 _atom_site_label
 _atom_site_symmetry_multiplicity
 _atom_site_fract_x
 _atom_site_fract_y
 _atom_site_fract_z
 _atom_site_fract_occupancy
 O  O1  1  0.17586  0.42827  0.22450  1
 O  O2  1  0.82414  0.92827  0.77550  1
 O  O3  1  0.82414  0.57173  0.77550  1
 O  O4  1  0.17586  0.07173  0.22450  1
 O  O5  1  0.18596  0.25000  0.67469  1
 O  O6  1  0.81404  0.75000  0.32531  1
 O  O7  1  0.61299  0.25000  0.44016  1
 O  O8  1  0.38701  0.75000  0.55984  1
 P  P1  1  0.71645  0.75000  0.61231  1
 P  P2  1  0.28355  0.25000  0.38769  1
 Sb  Sb1  1  0.19253  0.75000  0.16814  1
 Sb  Sb2  1  0.80747  0.25000  0.83186  1
