CIF file written using JARVIS-Tools package.
data_SnH4N2F2
_symmetry_space_group_name_H-M  'C2/m'
_cell_length_a       5.62841
_cell_length_b       5.62841
_cell_length_c       5.03577
_cell_angle_alpha    74.5205
_cell_angle_beta     105.48
_cell_angle_gamma    145.917

_symmetry_Int_Tables_number  12
_chemical_formula_structural  SnH4N2F2
_chemical_formula_sum  SnH4N2F2
_cell_volume  85.84590100318569
_cell_formula_units_Z  1
loop_
  _symmetry_equiv_pos_site_id
 _symmetry_equiv_pos_as_xyz
 1  'x, y, z'
loop_
 _atom_site_type_symbol
 _atom_site_label
 _atom_site_symmetry_multiplicity
 _atom_site_fract_x
 _atom_site_fract_y
 _atom_site_fract_z
 _atom_site_fract_occupancy
 F  F1  1  0.12125  0.87875  0.74957  1
 F  F2  1  0.87875  0.12125  0.25043  1
 H  H1  1  0.38904  0.61096  0.56199  1
 H  H2  1  0.61096  0.38904  0.43801  1
 H  H3  1  0.29482  0.70518  0.77650  1
 H  H4  1  0.70518  0.29482  0.22350  1
 N  N1  1  0.38985  0.61015  0.76708  1
 N  N2  1  0.61015  0.38985  0.23292  1
 Sn  Sn1  1  0.00000  0.00000  0.00000  1
