CIF file written using JARVIS-Tools package.
data_CaP2H4O4
_symmetry_space_group_name_H-M  'C2/c'
_cell_length_a       5.7208
_cell_length_b       6.56721
_cell_length_c       7.97427
_cell_angle_alpha    100.86
_cell_angle_beta     111.021
_cell_angle_gamma    90

_symmetry_Int_Tables_number  15
_chemical_formula_structural  CaP2H4O4
_chemical_formula_sum  Ca2P4H8O8
_cell_volume  273.8973787392275
_cell_formula_units_Z  2
loop_
  _symmetry_equiv_pos_site_id
 _symmetry_equiv_pos_as_xyz
 1  'x, y, z'
loop_
 _atom_site_type_symbol
 _atom_site_label
 _atom_site_symmetry_multiplicity
 _atom_site_fract_x
 _atom_site_fract_y
 _atom_site_fract_z
 _atom_site_fract_occupancy
 Ca  Ca1  1  0.16933  0.75000  0.00000  1
 Ca  Ca2  1  0.83067  0.25000  -0.00000  1
 H  H1  1  0.94873  0.92831  0.34756  1
 H  H2  1  0.53783  0.14041  0.45119  1
 H  H3  1  0.91336  0.64041  0.45119  1
 H  H4  1  0.05127  0.07169  0.65244  1
 H  H5  1  0.39883  0.42831  0.34756  1
 H  H6  1  0.46217  0.85959  0.54881  1
 H  H7  1  0.60117  0.57169  0.65244  1
 H  H8  1  0.08664  0.35959  0.54881  1
 O  O1  1  0.78884  0.89555  0.84511  1
 O  O2  1  0.21116  0.10445  0.15489  1
 O  O3  1  0.05628  0.39555  0.84511  1
 O  O4  1  0.54930  0.73292  0.22330  1
 O  O5  1  0.67400  0.23292  0.22330  1
 O  O6  1  0.45070  0.26708  0.77670  1
 O  O7  1  0.94372  0.60445  0.15489  1
 O  O8  1  0.32600  0.76708  0.77670  1
 P  P1  1  0.16864  0.27635  0.71063  1
 P  P2  1  0.45801  0.22365  0.28937  1
 P  P3  1  0.83136  0.72365  0.28937  1
 P  P4  1  0.54199  0.77635  0.71063  1
