CIF file written using JARVIS-Tools package.
data_Bi2Te2WO10
_symmetry_space_group_name_H-M  'C2/c'
_cell_length_a       5.63287
_cell_length_b       6.88666
_cell_length_c       12.3067
_cell_angle_alpha    90.5957
_cell_angle_beta     90
_cell_angle_gamma    114.14

_symmetry_Int_Tables_number  15
_chemical_formula_structural  Bi2Te2WO10
_chemical_formula_sum  Bi4Te4W2O20
_cell_volume  435.62058366529686
_cell_formula_units_Z  2
loop_
  _symmetry_equiv_pos_site_id
 _symmetry_equiv_pos_as_xyz
 1  'x, y, z'
loop_
 _atom_site_type_symbol
 _atom_site_label
 _atom_site_symmetry_multiplicity
 _atom_site_fract_x
 _atom_site_fract_y
 _atom_site_fract_z
 _atom_site_fract_occupancy
 Bi  Bi1  1  0.15493  0.81392  0.45262  1
 Bi  Bi2  1  0.65899  0.81392  0.95262  1
 Bi  Bi3  1  0.34101  0.18608  0.04738  1
 Bi  Bi4  1  0.84507  0.18608  0.54738  1
 O  O1  1  0.31566  0.84473  0.06163  1
 O  O2  1  0.52907  0.84473  0.56163  1
 O  O3  1  0.90018  0.99369  0.10093  1
 O  O4  1  0.22211  0.23693  0.24341  1
 O  O5  1  0.47093  0.15527  0.43837  1
 O  O6  1  0.77789  0.76307  0.75659  1
 O  O7  1  0.09982  0.00631  0.89907  1
 O  O8  1  0.09351  0.99369  0.60093  1
 O  O9  1  0.21381  0.44083  0.45068  1
 O  O10  1  0.01482  0.23693  0.74341  1
 O  O11  1  0.49818  0.77846  0.26172  1
 O  O12  1  0.68434  0.15527  0.93837  1
 O  O13  1  0.98518  0.76307  0.25659  1
 O  O14  1  0.78619  0.55917  0.54932  1
 O  O15  1  0.28028  0.77846  0.76172  1
 O  O16  1  0.77299  0.55917  0.04932  1
 O  O17  1  0.90649  0.00631  0.39907  1
 O  O18  1  0.50182  0.22154  0.73828  1
 O  O19  1  0.22701  0.44083  0.95068  1
 O  O20  1  0.71972  0.22154  0.23828  1
 Te  Te1  1  0.07000  0.61008  0.14284  1
 Te  Te2  1  0.93000  0.38992  0.85716  1
 Te  Te3  1  0.54009  0.61008  0.64284  1
 Te  Te4  1  0.45991  0.38992  0.35716  1
 W  W1  1  0.18914  0.00000  0.75000  1
 W  W2  1  0.81086  -0.00000  0.25000  1
