CIF file written using JARVIS-Tools package.
data_Mn3N2
_symmetry_space_group_name_H-M  'P-3m1'
_cell_length_a       2.96504
_cell_length_b       2.96502
_cell_length_c       5.93788
_cell_angle_alpha    90
_cell_angle_beta     90.0002
_cell_angle_gamma    120

_symmetry_Int_Tables_number  164
_chemical_formula_structural  Mn3N2
_chemical_formula_sum  Mn3N2
_cell_volume  45.208473719026166
_cell_formula_units_Z  1
loop_
  _symmetry_equiv_pos_site_id
 _symmetry_equiv_pos_as_xyz
 1  'x, y, z'
loop_
 _atom_site_type_symbol
 _atom_site_label
 _atom_site_symmetry_multiplicity
 _atom_site_fract_x
 _atom_site_fract_y
 _atom_site_fract_z
 _atom_site_fract_occupancy
 Mn  Mn1  1  0.33325  0.66662  0.67576  1
 Mn  Mn2  1  0.66675  0.33338  0.32424  1
 Mn  Mn3  1  0.00000  0.00000  0.00000  1
 N  N1  1  0.33342  0.66671  0.20844  1
 N  N2  1  0.66658  0.33329  0.79156  1
