CIF file written using JARVIS-Tools package.
data_GaSe
_symmetry_space_group_name_H-M  'P6_3mc'
_cell_length_a       3.80682
_cell_length_b       3.80683
_cell_length_c       32.2371
_cell_angle_alpha    90
_cell_angle_beta     90
_cell_angle_gamma    120

_symmetry_Int_Tables_number  186
_chemical_formula_structural  GaSe
_chemical_formula_sum  Ga8Se8
_cell_volume  404.5874327228954
_cell_formula_units_Z  8
loop_
  _symmetry_equiv_pos_site_id
 _symmetry_equiv_pos_as_xyz
 1  'x, y, z'
loop_
 _atom_site_type_symbol
 _atom_site_label
 _atom_site_symmetry_multiplicity
 _atom_site_fract_x
 _atom_site_fract_y
 _atom_site_fract_z
 _atom_site_fract_occupancy
 Ga  Ga1  1  0.33333  0.66667  0.21257  1
 Ga  Ga2  1  0.00000  0.00000  0.53929  1
 Ga  Ga3  1  0.66667  0.33333  0.71257  1
 Ga  Ga4  1  0.00000  0.00000  0.03929  1
 Ga  Ga5  1  0.33333  0.66667  0.28874  1
 Ga  Ga6  1  0.66667  0.33333  0.78874  1
 Ga  Ga7  1  0.00000  0.00000  0.96313  1
 Ga  Ga8  1  0.00000  0.00000  0.46313  1
 Se  Se1  1  0.00000  0.00000  0.67624  1
 Se  Se2  1  0.66667  0.33333  0.92676  1
 Se  Se3  1  0.66667  0.33333  0.07566  1
 Se  Se4  1  0.00000  0.00000  0.32512  1
 Se  Se5  1  0.00000  0.00000  0.17624  1
 Se  Se6  1  0.33333  0.66667  0.57566  1
 Se  Se7  1  0.00000  0.00000  0.82512  1
 Se  Se8  1  0.33333  0.66667  0.42676  1
