CIF file written using JARVIS-Tools package.
data_CaYIn2
_symmetry_space_group_name_H-M  'Immm'
_cell_length_a       12.1824
_cell_length_b       12.851
_cell_length_c       12.851
_cell_angle_alpha    60.6824
_cell_angle_beta     61.7064
_cell_angle_gamma    61.7064

_symmetry_Int_Tables_number  71
_chemical_formula_structural  CaYIn2
_chemical_formula_sum  CaYIn2
_cell_volume  1465.9622359447117
_cell_formula_units_Z  1
loop_
  _symmetry_equiv_pos_site_id
 _symmetry_equiv_pos_as_xyz
 1  'x, y, z'
loop_
 _atom_site_type_symbol
 _atom_site_label
 _atom_site_symmetry_multiplicity
 _atom_site_fract_x
 _atom_site_fract_y
 _atom_site_fract_z
 _atom_site_fract_occupancy
 Ca  Ca1  1  0.00000  0.00000  0.00000  1
 In  In1  1  0.74347  0.00000  0.00000  1
 In  In2  1  0.25653  -0.00000  -0.00000  1
 Y  Y1  1  0.50000  0.00000  0.00000  1
