CIF file written using JARVIS-Tools package.
data_DySi2
_symmetry_space_group_name_H-M  'I4_1/amd'
_cell_length_a       3.93741
_cell_length_b       3.93742
_cell_length_c       8.02828
_cell_angle_alpha    104.195
_cell_angle_beta     104.195
_cell_angle_gamma    90

_symmetry_Int_Tables_number  141
_chemical_formula_structural  DySi2
_chemical_formula_sum  Dy2Si4
_cell_volume  116.74017084570075
_cell_formula_units_Z  2
loop_
  _symmetry_equiv_pos_site_id
 _symmetry_equiv_pos_as_xyz
 1  'x, y, z'
loop_
 _atom_site_type_symbol
 _atom_site_label
 _atom_site_symmetry_multiplicity
 _atom_site_fract_x
 _atom_site_fract_y
 _atom_site_fract_z
 _atom_site_fract_occupancy
 Dy  Dy1  1  0.87500  0.62500  0.25000  1
 Dy  Dy2  1  0.12500  0.37500  0.75000  1
 Si  Si1  1  0.70605  0.95605  0.91209  1
 Si  Si2  1  0.45605  0.20605  0.41209  1
 Si  Si3  1  0.54395  0.79395  0.58791  1
 Si  Si4  1  0.29395  0.04395  0.08791  1
