CIF file written using JARVIS-Tools package.
data_RbLiCl2
_symmetry_space_group_name_H-M  'Cmcm'
_cell_length_a       4.10115
_cell_length_b       7.12072
_cell_length_c       7.48995
_cell_angle_alpha    90
_cell_angle_beta     105.889
_cell_angle_gamma    90

_symmetry_Int_Tables_number  63
_chemical_formula_structural  RbLiCl2
_chemical_formula_sum  Rb2Li2Cl4
_cell_volume  210.37338563342556
_cell_formula_units_Z  2
loop_
  _symmetry_equiv_pos_site_id
 _symmetry_equiv_pos_as_xyz
 1  'x, y, z'
loop_
 _atom_site_type_symbol
 _atom_site_label
 _atom_site_symmetry_multiplicity
 _atom_site_fract_x
 _atom_site_fract_y
 _atom_site_fract_z
 _atom_site_fract_occupancy
 Cl  Cl1  1  0.00000  0.00000  0.00000  1
 Cl  Cl2  1  0.00000  0.50000  0.00000  1
 Cl  Cl3  1  0.69033  0.25000  0.38065  1
 Cl  Cl4  1  0.30967  0.75000  0.61935  1
 Li  Li1  1  0.89576  0.75000  0.79152  1
 Li  Li2  1  0.10424  0.25000  0.20848  1
 Rb  Rb1  1  0.37000  0.25000  0.73999  1
 Rb  Rb2  1  0.63000  0.75000  0.26001  1
