CIF file written using JARVIS-Tools package.
data_Li2O
_symmetry_space_group_name_H-M  'Pnma'
_cell_length_a       3.09969
_cell_length_b       5.06749
_cell_length_c       5.83652
_cell_angle_alpha    90
_cell_angle_beta     90
_cell_angle_gamma    90

_symmetry_Int_Tables_number  62
_chemical_formula_structural  Li2O
_chemical_formula_sum  Li8O4
_cell_volume  91.67796357959978
_cell_formula_units_Z  4
loop_
  _symmetry_equiv_pos_site_id
 _symmetry_equiv_pos_as_xyz
 1  'x, y, z'
loop_
 _atom_site_type_symbol
 _atom_site_label
 _atom_site_symmetry_multiplicity
 _atom_site_fract_x
 _atom_site_fract_y
 _atom_site_fract_z
 _atom_site_fract_occupancy
 Li  Li1  1  0.75000  0.99025  0.15783  1
 Li  Li2  1  0.75000  0.85952  0.58042  1
 Li  Li3  1  0.25000  0.64048  0.08042  1
 Li  Li4  1  0.25000  0.50975  0.65783  1
 Li  Li5  1  0.75000  0.49025  0.34217  1
 Li  Li6  1  0.75000  0.35952  0.91958  1
 Li  Li7  1  0.25000  0.14048  0.41958  1
 Li  Li8  1  0.25000  0.00975  0.84217  1
 O  O1  1  0.25000  0.75333  0.40102  1
 O  O2  1  0.75000  0.74667  0.90102  1
 O  O3  1  0.25000  0.25333  0.09898  1
 O  O4  1  0.75000  0.24667  0.59898  1
