CIF file written using JARVIS-Tools package.
data_Sb4I2O5
_symmetry_space_group_name_H-M  'P2_1/c'
_cell_length_a       5.22148
_cell_length_b       7.1479
_cell_length_c       13.698
_cell_angle_alpha    97.1715
_cell_angle_beta     90
_cell_angle_gamma    90

_symmetry_Int_Tables_number  14
_chemical_formula_structural  Sb4I2O5
_chemical_formula_sum  Sb8I4O0
_cell_volume  507.24710656357564
_cell_formula_units_Z  2
loop_
  _symmetry_equiv_pos_site_id
 _symmetry_equiv_pos_as_xyz
 1  'x, y, z'
loop_
 _atom_site_type_symbol
 _atom_site_label
 _atom_site_symmetry_multiplicity
 _atom_site_fract_x
 _atom_site_fract_y
 _atom_site_fract_z
 _atom_site_fract_occupancy
 I  I1  1  0.71110  0.50463  0.12024  1
 I  I2  1  0.78890  0.50463  0.62024  1
 I  I3  1  0.28890  0.49537  0.87976  1
 I  I4  1  0.21110  0.49537  0.37976  1
 O  O1  1  0.16183  0.07125  0.70943  1
 O  O2  1  0.33817  0.07125  0.20943  1
 O  O3  1  0.83817  0.92875  0.29057  1
 O  O4  1  0.99434  0.93563  0.08276  1
 O  O5  1  0.49434  0.06437  0.41724  1
 O  O6  1  0.00566  0.06437  0.91724  1
 O  O7  1  0.50566  0.93563  0.58276  1
 O  O8  1  0.50000  0.00000  0.00000  1
 O  O9  1  0.00000  -0.00000  0.50000  1
 O  O10  1  0.66183  0.92875  0.79057  1
 Sb  Sb1  1  0.77807  0.83547  0.94736  1
 Sb  Sb2  1  0.27807  0.16453  0.55264  1
 Sb  Sb3  1  0.22193  0.16453  0.05264  1
 Sb  Sb4  1  0.72193  0.83547  0.44736  1
 Sb  Sb5  1  0.87435  0.18201  0.79706  1
 Sb  Sb6  1  0.37435  0.81799  0.70294  1
 Sb  Sb7  1  0.12565  0.81799  0.20294  1
 Sb  Sb8  1  0.62565  0.18201  0.29706  1
