CIF file written using JARVIS-Tools package.
data_YAl3
_symmetry_space_group_name_H-M  'R-3m'
_cell_length_a       7.921
_cell_length_b       7.921
_cell_length_c       7.92099
_cell_angle_alpha    46.3393
_cell_angle_beta     46.3392
_cell_angle_gamma    46.3392

_symmetry_Int_Tables_number  166
_chemical_formula_structural  YAl3
_chemical_formula_sum  Y3Al9
_cell_volume  237.42021319063005
_cell_formula_units_Z  3
loop_
  _symmetry_equiv_pos_site_id
 _symmetry_equiv_pos_as_xyz
 1  'x, y, z'
loop_
 _atom_site_type_symbol
 _atom_site_label
 _atom_site_symmetry_multiplicity
 _atom_site_fract_x
 _atom_site_fract_y
 _atom_site_fract_z
 _atom_site_fract_occupancy
 Al  Al1  1  0.70274  0.70274  0.26429  1
 Al  Al2  1  0.70274  0.26429  0.70274  1
 Al  Al3  1  0.26429  0.70274  0.70274  1
 Al  Al4  1  0.50000  0.50000  -0.00000  1
 Al  Al5  1  -0.00000  0.50000  0.50000  1
 Al  Al6  1  0.50000  0.00000  0.50000  1
 Al  Al7  1  0.29726  0.73571  0.29726  1
 Al  Al8  1  0.29726  0.29726  0.73571  1
 Al  Al9  1  0.73571  0.29726  0.29726  1
 Y  Y1  1  0.78233  0.78233  0.78233  1
 Y  Y2  1  0.21767  0.21767  0.21767  1
 Y  Y3  1  0.00000  0.00000  0.00000  1
