CIF file written using JARVIS-Tools package.
data_GaH4NF4
_symmetry_space_group_name_H-M  'I4/mcm'
_cell_length_a       5.3007
_cell_length_b       5.3007
_cell_length_c       7.43296
_cell_angle_alpha    110.89
_cell_angle_beta     110.889
_cell_angle_gamma    89.9999

_symmetry_Int_Tables_number  140
_chemical_formula_structural  GaH4NF4
_chemical_formula_sum  Ga2H8N2F8
_cell_volume  180.34997301696342
_cell_formula_units_Z  2
loop_
  _symmetry_equiv_pos_site_id
 _symmetry_equiv_pos_as_xyz
 1  'x, y, z'
loop_
 _atom_site_type_symbol
 _atom_site_label
 _atom_site_symmetry_multiplicity
 _atom_site_fract_x
 _atom_site_fract_y
 _atom_site_fract_z
 _atom_site_fract_occupancy
 F  F1  1  0.64534  0.64534  0.29068  1
 F  F2  1  0.81879  0.68121  0.00000  1
 F  F3  1  0.18121  0.31879  -0.00000  1
 F  F4  1  0.14534  0.14534  0.29068  1
 F  F5  1  0.35466  0.35466  0.70932  1
 F  F6  1  0.85466  0.85466  0.70932  1
 F  F7  1  0.68121  0.18121  0.00000  1
 F  F8  1  0.31879  0.81879  -0.00000  1
 Ga  Ga1  1  0.00000  0.00000  0.00000  1
 Ga  Ga2  1  0.50000  0.50000  -0.00000  1
 H  H1  1  0.68562  0.40891  0.59452  1
 H  H2  1  0.18562  0.68562  0.59452  1
 H  H3  1  0.09109  0.81438  0.40548  1
 H  H4  1  0.59109  0.09109  0.40548  1
 H  H5  1  0.81438  0.31438  0.40548  1
 H  H6  1  0.31438  0.59109  0.40548  1
 H  H7  1  0.90891  0.18562  0.59452  1
 H  H8  1  0.40891  0.90891  0.59452  1
 N  N1  1  0.25000  0.75000  0.50000  1
 N  N2  1  0.75000  0.25000  0.50000  1
