CIF file written using JARVIS-Tools package.
data_BaPb2BrF5
_symmetry_space_group_name_H-M  'P4/nmm'
_cell_length_a       5.98156
_cell_length_b       5.98156
_cell_length_c       9.75176
_cell_angle_alpha    90
_cell_angle_beta     90
_cell_angle_gamma    90

_symmetry_Int_Tables_number  129
_chemical_formula_structural  BaPb2BrF5
_chemical_formula_sum  Ba2Pb4Br2F0
_cell_volume  348.90860210276895
_cell_formula_units_Z  2
loop_
  _symmetry_equiv_pos_site_id
 _symmetry_equiv_pos_as_xyz
 1  'x, y, z'
loop_
 _atom_site_type_symbol
 _atom_site_label
 _atom_site_symmetry_multiplicity
 _atom_site_fract_x
 _atom_site_fract_y
 _atom_site_fract_z
 _atom_site_fract_occupancy
 Ba  Ba1  1  0.00000  0.00000  0.00000  1
 Ba  Ba2  1  0.50000  0.50000  0.00000  1
 Br  Br1  1  0.00000  0.00000  0.50000  1
 Br  Br2  1  0.50000  0.50000  0.50000  1
 F  F1  1  0.26531  0.76531  0.18805  1
 F  F2  1  0.76531  0.73469  0.81195  1
 F  F3  1  0.73469  0.76531  0.18805  1
 F  F4  1  0.50000  0.00000  0.96276  1
 F  F5  1  0.23469  0.26531  0.81195  1
 F  F6  1  0.73469  0.23469  0.18805  1
 F  F7  1  0.23469  0.73469  0.81195  1
 F  F8  1  0.00000  0.50000  0.03724  1
 F  F9  1  0.76531  0.26531  0.81195  1
 F  F10  1  0.26531  0.23469  0.18805  1
 Pb  Pb1  1  0.50000  0.00000  0.72207  1
 Pb  Pb2  1  0.00000  0.50000  0.27793  1
 Pb  Pb3  1  0.00000  0.50000  0.67642  1
 Pb  Pb4  1  0.50000  0.00000  0.32358  1
