CIF file written using JARVIS-Tools package.
data_Li4CO4
_symmetry_space_group_name_H-M  'Pmn2_1'
_cell_length_a       4.83522
_cell_length_b       5.06358
_cell_length_c       5.78404
_cell_angle_alpha    90
_cell_angle_beta     90
_cell_angle_gamma    90

_symmetry_Int_Tables_number  31
_chemical_formula_structural  Li4CO4
_chemical_formula_sum  Li8C2O8
_cell_volume  141.61359055841427
_cell_formula_units_Z  2
loop_
  _symmetry_equiv_pos_site_id
 _symmetry_equiv_pos_as_xyz
 1  'x, y, z'
loop_
 _atom_site_type_symbol
 _atom_site_label
 _atom_site_symmetry_multiplicity
 _atom_site_fract_x
 _atom_site_fract_y
 _atom_site_fract_z
 _atom_site_fract_occupancy
 C  C1  1  0.16036  0.30728  0.50000  1
 C  C2  1  0.66036  0.69272  0.00000  1
 Li  Li1  1  0.09343  0.57859  0.20155  1
 Li  Li2  1  0.46873  0.90963  0.50000  1
 Li  Li3  1  0.45541  0.08942  0.00000  1
 Li  Li4  1  0.59343  0.42141  0.29845  1
 Li  Li5  1  0.96873  0.09037  0.00000  1
 Li  Li6  1  0.59343  0.42141  0.70155  1
 Li  Li7  1  0.09343  0.57859  0.79845  1
 Li  Li8  1  0.95541  0.91058  0.50000  1
 O  O1  1  0.26496  0.17846  0.69994  1
 O  O2  1  0.76496  0.82154  0.80006  1
 O  O3  1  0.37571  0.69365  0.00000  1
 O  O4  1  0.26496  0.17846  0.30006  1
 O  O5  1  0.26574  0.57577  0.50000  1
 O  O6  1  0.76496  0.82154  0.19994  1
 O  O7  1  0.76574  0.42423  0.00000  1
 O  O8  1  0.87571  0.30635  0.50000  1
