CIF file written using JARVIS-Tools package.
data_CoF3
_symmetry_space_group_name_H-M  'R-3c'
_cell_length_a       5.18513
_cell_length_b       5.18513
_cell_length_c       5.18513
_cell_angle_alpha    55.7668
_cell_angle_beta     55.7667
_cell_angle_gamma    55.7667

_symmetry_Int_Tables_number  167
_chemical_formula_structural  CoF3
_chemical_formula_sum  Co2F6
_cell_volume  88.89689257840828
_cell_formula_units_Z  2
loop_
  _symmetry_equiv_pos_site_id
 _symmetry_equiv_pos_as_xyz
 1  'x, y, z'
loop_
 _atom_site_type_symbol
 _atom_site_label
 _atom_site_symmetry_multiplicity
 _atom_site_fract_x
 _atom_site_fract_y
 _atom_site_fract_z
 _atom_site_fract_occupancy
 Co  Co1  1  0.50000  0.50000  0.50000  1
 Co  Co2  1  0.00000  0.00000  0.00000  1
 F  F1  1  0.38379  0.75000  0.11621  1
 F  F2  1  0.75000  0.11621  0.38379  1
 F  F3  1  0.88379  0.61621  0.25000  1
 F  F4  1  0.25000  0.88379  0.61621  1
 F  F5  1  0.61621  0.25000  0.88379  1
 F  F6  1  0.11621  0.38379  0.75000  1
