CIF file written using JARVIS-Tools package.
data_Ca2CdGa
_symmetry_space_group_name_H-M  'Immm'
_cell_length_a       12.4409
_cell_length_b       7.1454
_cell_length_c       7.14526
_cell_angle_alpha    28.9712
_cell_angle_beta     29.4754
_cell_angle_gamma    29.4773

_symmetry_Int_Tables_number  71
_chemical_formula_structural  Ca2CdGa
_chemical_formula_sum  Ca2CdGa
_cell_volume  134.6500930383181
_cell_formula_units_Z  1
loop_
  _symmetry_equiv_pos_site_id
 _symmetry_equiv_pos_as_xyz
 1  'x, y, z'
loop_
 _atom_site_type_symbol
 _atom_site_label
 _atom_site_symmetry_multiplicity
 _atom_site_fract_x
 _atom_site_fract_y
 _atom_site_fract_z
 _atom_site_fract_occupancy
 Ca  Ca1  1  0.75796  0.00000  0.00000  1
 Ca  Ca2  1  0.24204  -0.00000  -0.00000  1
 Cd  Cd1  1  0.50000  -0.00000  0.00000  1
 Ga  Ga1  1  0.00000  0.00000  0.00000  1
