CIF file written using JARVIS-Tools package.
data_BeMoRu2
_symmetry_space_group_name_H-M  'Immm'
_cell_length_a       9.92727
_cell_length_b       5.52554
_cell_length_c       5.52503
_cell_angle_alpha    28.4037
_cell_angle_beta     26.0638
_cell_angle_gamma    26.0603

_symmetry_Int_Tables_number  71
_chemical_formula_structural  BeMoRu2
_chemical_formula_sum  BeMoRu2
_cell_volume  54.19846586881658
_cell_formula_units_Z  1
loop_
  _symmetry_equiv_pos_site_id
 _symmetry_equiv_pos_as_xyz
 1  'x, y, z'
loop_
 _atom_site_type_symbol
 _atom_site_label
 _atom_site_symmetry_multiplicity
 _atom_site_fract_x
 _atom_site_fract_y
 _atom_site_fract_z
 _atom_site_fract_occupancy
 Be  Be1  1  0.00000  0.00000  -0.00000  1
 Mo  Mo1  1  0.50000  -0.00000  0.00000  1
 Ru  Ru1  1  0.79346  -0.00003  0.00004  1
 Ru  Ru2  1  0.20654  0.00003  -0.00004  1
