CIF file written using JARVIS-Tools package.
data_NiP3O9
_symmetry_space_group_name_H-M  'R3'
_cell_length_a       6.11483
_cell_length_b       6.11483
_cell_length_c       6.11483
_cell_angle_alpha    105.996
_cell_angle_beta     105.996
_cell_angle_gamma    105.996

_symmetry_Int_Tables_number  146
_chemical_formula_structural  NiP3O9
_chemical_formula_sum  NiP3O9
_cell_volume  195.39552912140135
_cell_formula_units_Z  1
loop_
  _symmetry_equiv_pos_site_id
 _symmetry_equiv_pos_as_xyz
 1  'x, y, z'
loop_
 _atom_site_type_symbol
 _atom_site_label
 _atom_site_symmetry_multiplicity
 _atom_site_fract_x
 _atom_site_fract_y
 _atom_site_fract_z
 _atom_site_fract_occupancy
 Ni  Ni1  1  0.00459  0.00459  0.00459  1
 O  O1  1  0.35266  0.07962  0.07349  1
 O  O2  1  0.29200  0.88269  0.62353  1
 O  O3  1  0.07349  0.35266  0.07962  1
 O  O4  1  0.07962  0.07349  0.35266  1
 O  O5  1  0.66082  0.91283  0.96441  1
 O  O6  1  0.96441  0.66082  0.91283  1
 O  O7  1  0.88269  0.62353  0.29200  1
 O  O8  1  0.91283  0.96441  0.66082  1
 O  O9  1  0.62353  0.29200  0.88269  1
 P  P1  1  0.48379  0.03541  0.90082  1
 P  P2  1  0.03541  0.90082  0.48379  1
 P  P3  1  0.90082  0.48379  0.03541  1
