CIF file written using JARVIS-Tools package.
data_BCl3
_symmetry_space_group_name_H-M  'P6_3/m'
_cell_length_a       6.00555
_cell_length_b       6.00555
_cell_length_c       6.37027
_cell_angle_alpha    90
_cell_angle_beta     90
_cell_angle_gamma    120

_symmetry_Int_Tables_number  176
_chemical_formula_structural  BCl3
_chemical_formula_sum  B2Cl6
_cell_volume  198.97302218203293
_cell_formula_units_Z  2
loop_
  _symmetry_equiv_pos_site_id
 _symmetry_equiv_pos_as_xyz
 1  'x, y, z'
loop_
 _atom_site_type_symbol
 _atom_site_label
 _atom_site_symmetry_multiplicity
 _atom_site_fract_x
 _atom_site_fract_y
 _atom_site_fract_z
 _atom_site_fract_occupancy
 B  B1  1  0.33333  0.66667  0.25000  1
 B  B2  1  0.66667  0.33333  0.75000  1
 Cl  Cl1  1  0.05182  0.36833  0.25000  1
 Cl  Cl2  1  0.68349  0.05182  0.75000  1
 Cl  Cl3  1  0.36833  0.31651  0.75000  1
 Cl  Cl4  1  0.63167  0.68349  0.25000  1
 Cl  Cl5  1  0.31651  0.94818  0.25000  1
 Cl  Cl6  1  0.94818  0.63167  0.75000  1
