CIF file written using JARVIS-Tools package.
data_CaCO3
_symmetry_space_group_name_H-M  'C222_1'
_cell_length_a       3.72843
_cell_length_b       5.37015
_cell_length_c       5.37012
_cell_angle_alpha    109.014
_cell_angle_beta     90
_cell_angle_gamma    90.0006

_symmetry_Int_Tables_number  20
_chemical_formula_structural  CaCO3
_chemical_formula_sum  Ca2C2O6
_cell_volume  101.65513051686175
_cell_formula_units_Z  2
loop_
  _symmetry_equiv_pos_site_id
 _symmetry_equiv_pos_as_xyz
 1  'x, y, z'
loop_
 _atom_site_type_symbol
 _atom_site_label
 _atom_site_symmetry_multiplicity
 _atom_site_fract_x
 _atom_site_fract_y
 _atom_site_fract_z
 _atom_site_fract_occupancy
 C  C1  1  -0.00000  0.35771  0.35771  1
 C  C2  1  0.50000  0.64229  0.64229  1
 Ca  Ca1  1  0.75001  0.80600  0.19399  1
 Ca  Ca2  1  0.25000  0.19400  0.80600  1
 O  O1  1  0.75000  0.41470  0.58530  1
 O  O2  1  0.25000  0.58530  0.41470  1
 O  O3  1  0.66899  0.86685  0.65023  1
 O  O4  1  0.33101  0.65023  0.86685  1
 O  O5  1  0.16899  0.13315  0.34978  1
 O  O6  1  0.83101  0.34977  0.13315  1
