CIF file written using JARVIS-Tools package.
data_MnCuRh2
_symmetry_space_group_name_H-M  'Immm'
_cell_length_a       8.9297
_cell_length_b       9.5546
_cell_length_c       9.55459
_cell_angle_alpha    59.6163
_cell_angle_beta     62.1409
_cell_angle_gamma    62.1409

_symmetry_Int_Tables_number  71
_chemical_formula_structural  MnCuRh2
_chemical_formula_sum  MnCuRh2
_cell_volume  592.5391512907356
_cell_formula_units_Z  1
loop_
  _symmetry_equiv_pos_site_id
 _symmetry_equiv_pos_as_xyz
 1  'x, y, z'
loop_
 _atom_site_type_symbol
 _atom_site_label
 _atom_site_symmetry_multiplicity
 _atom_site_fract_x
 _atom_site_fract_y
 _atom_site_fract_z
 _atom_site_fract_occupancy
 Cu  Cu1  1  0.50000  -0.00000  0.00000  1
 Mn  Mn1  1  0.00000  0.00000  0.00000  1
 Rh  Rh1  1  0.77306  -0.00000  0.00000  1
 Rh  Rh2  1  0.22694  -0.00000  -0.00000  1
