CIF file written using JARVIS-Tools package.
data_Rb3BP2
_symmetry_space_group_name_H-M  'C2/c'
_cell_length_a       6.61173
_cell_length_b       6.61172
_cell_length_c       9.40214
_cell_angle_alpha    75.2859
_cell_angle_beta     75.2859
_cell_angle_gamma    87.9479

_symmetry_Int_Tables_number  15
_chemical_formula_structural  Rb3BP2
_chemical_formula_sum  Rb6B2P4
_cell_volume  384.3164394361651
_cell_formula_units_Z  2
loop_
  _symmetry_equiv_pos_site_id
 _symmetry_equiv_pos_as_xyz
 1  'x, y, z'
loop_
 _atom_site_type_symbol
 _atom_site_label
 _atom_site_symmetry_multiplicity
 _atom_site_fract_x
 _atom_site_fract_y
 _atom_site_fract_z
 _atom_site_fract_occupancy
 B  B1  1  0.78410  0.21590  0.25000  1
 B  B2  1  0.21590  0.78410  0.75000  1
 P  P1  1  0.90361  0.34274  0.35469  1
 P  P2  1  0.65726  0.09639  0.14531  1
 P  P3  1  0.34274  0.90361  0.85469  1
 P  P4  1  0.09639  0.65726  0.64531  1
 Rb  Rb1  1  0.24451  0.34509  0.98314  1
 Rb  Rb2  1  0.65491  0.75549  0.51686  1
 Rb  Rb3  1  0.75549  0.65491  0.01686  1
 Rb  Rb4  1  0.34509  0.24451  0.48314  1
 Rb  Rb5  1  0.84379  0.15621  0.75000  1
 Rb  Rb6  1  0.15621  0.84379  0.25000  1
