CIF file written using JARVIS-Tools package.
data_Ba3Ga2Ge4O14
_symmetry_space_group_name_H-M  'P321'
_cell_length_a       8.68499
_cell_length_b       8.68499
_cell_length_c       5.08245
_cell_angle_alpha    90
_cell_angle_beta     90
_cell_angle_gamma    120

_symmetry_Int_Tables_number  150
_chemical_formula_structural  Ba3Ga2Ge4O14
_chemical_formula_sum  Ba3Ga2Ge4O4
_cell_volume  332.00278368136577
_cell_formula_units_Z  1
loop_
  _symmetry_equiv_pos_site_id
 _symmetry_equiv_pos_as_xyz
 1  'x, y, z'
loop_
 _atom_site_type_symbol
 _atom_site_label
 _atom_site_symmetry_multiplicity
 _atom_site_fract_x
 _atom_site_fract_y
 _atom_site_fract_z
 _atom_site_fract_occupancy
 Ba  Ba1  1  -0.00000  0.57172  0.00000  1
 Ba  Ba2  1  0.57172  -0.00000  0.00000  1
 Ba  Ba3  1  0.42828  0.42828  0.00000  1
 Ga  Ga1  1  0.66667  0.33333  0.50090  1
 Ga  Ga2  1  0.33333  0.66667  0.49910  1
 Ge  Ge1  1  0.75615  0.75615  0.50000  1
 Ge  Ge2  1  -0.00000  0.24385  0.50000  1
 Ge  Ge3  1  0.24385  -0.00000  0.50000  1
 Ge  Ge4  1  0.00000  0.00000  0.00000  1
 O  O1  1  0.16443  0.44716  0.65204  1
 O  O2  1  0.71727  0.55284  0.34796  1
 O  O3  1  0.20559  0.10954  0.77004  1
 O  O4  1  0.10954  0.20559  0.22996  1
 O  O5  1  0.09605  0.89046  0.22996  1
 O  O6  1  0.33333  0.66667  0.14867  1
 O  O7  1  0.44716  0.16443  0.34796  1
 O  O8  1  0.55284  0.71727  0.65204  1
 O  O9  1  0.66667  0.33333  0.85133  1
 O  O10  1  0.89046  0.09605  0.77004  1
 O  O11  1  0.90395  0.79441  0.77004  1
 O  O12  1  0.83557  0.28273  0.34796  1
 O  O13  1  0.28273  0.83557  0.65204  1
 O  O14  1  0.79441  0.90395  0.22996  1
