CIF file written using JARVIS-Tools package.
data_Ba2CdReO6
_symmetry_space_group_name_H-M  'Fm-3m'
_cell_length_a       5.95336
_cell_length_b       5.95345
_cell_length_c       5.95339
_cell_angle_alpha    59.9994
_cell_angle_beta     59.9975
_cell_angle_gamma    59.9998

_symmetry_Int_Tables_number  225
_chemical_formula_structural  Ba2CdReO6
_chemical_formula_sum  Ba2CdReO6
_cell_volume  149.20007903748802
_cell_formula_units_Z  1
loop_
  _symmetry_equiv_pos_site_id
 _symmetry_equiv_pos_as_xyz
 1  'x, y, z'
loop_
 _atom_site_type_symbol
 _atom_site_label
 _atom_site_symmetry_multiplicity
 _atom_site_fract_x
 _atom_site_fract_y
 _atom_site_fract_z
 _atom_site_fract_occupancy
 Ba  Ba1  1  0.75000  0.75000  0.75000  1
 Ba  Ba2  1  0.25000  0.25000  0.25000  1
 Cd  Cd1  1  0.00000  -0.00000  0.00000  1
 O  O1  1  0.26958  0.73042  0.26958  1
 O  O2  1  0.73043  0.73041  0.26957  1
 O  O3  1  0.26957  0.26959  0.73043  1
 O  O4  1  0.73042  0.26958  0.73042  1
 O  O5  1  0.26957  0.73042  0.73043  1
 O  O6  1  0.73043  0.26959  0.26957  1
 Re  Re1  1  0.50000  0.50000  0.50000  1
