CIF file written using JARVIS-Tools package.
data_PHF4
_symmetry_space_group_name_H-M  'P2_1/c'
_cell_length_a       4.48561
_cell_length_b       7.88631
_cell_length_c       9.37714
_cell_angle_alpha    90
_cell_angle_beta     118.016
_cell_angle_gamma    90

_symmetry_Int_Tables_number  14
_chemical_formula_structural  PHF4
_chemical_formula_sum  P4H4F6
_cell_volume  292.84319914037553
_cell_formula_units_Z  4
loop_
  _symmetry_equiv_pos_site_id
 _symmetry_equiv_pos_as_xyz
 1  'x, y, z'
loop_
 _atom_site_type_symbol
 _atom_site_label
 _atom_site_symmetry_multiplicity
 _atom_site_fract_x
 _atom_site_fract_y
 _atom_site_fract_z
 _atom_site_fract_occupancy
 F  F1  1  0.26499  0.80058  0.64812  1
 F  F2  1  0.00314  0.34597  0.23748  1
 F  F3  1  -0.00314  0.84597  0.26252  1
 F  F4  1  -0.00314  0.65403  0.76252  1
 F  F5  1  0.56474  0.64029  0.92536  1
 F  F6  1  0.36511  0.08095  0.11401  1
 F  F7  1  0.63489  0.58095  0.38599  1
 F  F8  1  0.00314  0.15403  0.73748  1
 F  F9  1  0.36511  0.41905  0.61401  1
 F  F10  1  0.73501  0.19942  0.35188  1
 F  F11  1  0.26499  0.69942  0.14812  1
 F  F12  1  0.43526  0.14029  0.57464  1
 F  F13  1  0.73501  0.30058  0.85188  1
 F  F14  1  0.43526  0.35971  0.07464  1
 F  F15  1  0.56474  0.85971  0.42536  1
 F  F16  1  0.63489  0.91905  0.88599  1
 H  H1  1  0.83849  0.10976  0.11068  1
 H  H2  1  0.16151  0.60976  0.38932  1
 H  H3  1  0.16151  0.89024  0.88932  1
 H  H4  1  0.83849  0.39024  0.61068  1
 P  P1  1  0.68211  0.21489  0.17488  1
 P  P2  1  0.31789  0.71489  0.32512  1
 P  P3  1  0.31789  0.78511  0.82512  1
 P  P4  1  0.68211  0.28511  0.67488  1
