CIF file written using JARVIS-Tools package.
data_HfZrHg2
_symmetry_space_group_name_H-M  'C2/m'
_cell_length_a       12.3637
_cell_length_b       8.33332
_cell_length_c       8.33354
_cell_angle_alpha    22.2775
_cell_angle_beta     19.2286
_cell_angle_gamma    19.2276

_symmetry_Int_Tables_number  12
_chemical_formula_structural  HfZrHg2
_chemical_formula_sum  HfZrHg2
_cell_volume  88.48095946054401
_cell_formula_units_Z  1
loop_
  _symmetry_equiv_pos_site_id
 _symmetry_equiv_pos_as_xyz
 1  'x, y, z'
loop_
 _atom_site_type_symbol
 _atom_site_label
 _atom_site_symmetry_multiplicity
 _atom_site_fract_x
 _atom_site_fract_y
 _atom_site_fract_z
 _atom_site_fract_occupancy
 Hf  Hf1  1  0.50000  -0.00000  -0.00000  1
 Hg  Hg1  1  0.75582  -0.00400  -0.00403  1
 Hg  Hg2  1  0.24418  0.00400  0.00403  1
 Zr  Zr1  1  0.00000  -0.00000  0.00000  1
