CIF file written using JARVIS-Tools package.
data_K3GaS3
_symmetry_space_group_name_H-M  'P2_1/c'
_cell_length_a       7.73029
_cell_length_b       8.15116
_cell_length_c       12.4575
_cell_angle_alpha    90
_cell_angle_beta     90
_cell_angle_gamma    101.606

_symmetry_Int_Tables_number  14
_chemical_formula_structural  K3GaS3
_chemical_formula_sum  K2Ga4S2
_cell_volume  768.9091365581635
_cell_formula_units_Z  4
loop_
  _symmetry_equiv_pos_site_id
 _symmetry_equiv_pos_as_xyz
 1  'x, y, z'
loop_
 _atom_site_type_symbol
 _atom_site_label
 _atom_site_symmetry_multiplicity
 _atom_site_fract_x
 _atom_site_fract_y
 _atom_site_fract_z
 _atom_site_fract_occupancy
 Ga  Ga1  1  0.89841  0.83475  0.93716  1
 Ga  Ga2  1  0.10159  0.16525  0.06284  1
 Ga  Ga3  1  0.39841  0.33475  0.56284  1
 Ga  Ga4  1  0.60159  0.66525  0.43716  1
 K  K1  1  0.64821  0.02462  0.12233  1
 K  K2  1  0.85179  0.47538  0.62233  1
 K  K3  1  0.35179  0.97538  0.87767  1
 K  K4  1  0.14821  0.52462  0.37767  1
 K  K5  1  0.26824  0.60901  0.09518  1
 K  K6  1  0.71168  0.57245  0.18543  1
 K  K7  1  0.21168  0.07245  0.31457  1
 K  K8  1  0.28832  0.42755  0.81457  1
 K  K9  1  0.76824  0.10901  0.40482  1
 K  K10  1  0.73176  0.39099  0.90482  1
 K  K11  1  0.23176  0.89099  0.59518  1
 K  K12  1  0.78832  0.92755  0.68543  1
 S  S1  1  0.60438  0.73372  0.94883  1
 S  S2  1  0.89562  0.76628  0.44883  1
 S  S3  1  0.96467  0.31022  0.18116  1
 S  S4  1  0.53533  0.18978  0.68116  1
 S  S5  1  0.03533  0.68978  0.81884  1
 S  S6  1  0.53140  0.37475  0.39274  1
 S  S7  1  0.96860  0.12525  0.89274  1
 S  S8  1  0.03140  0.87475  0.10726  1
 S  S9  1  0.46860  0.62525  0.60726  1
 S  S10  1  0.10438  0.23372  0.55117  1
 S  S11  1  0.46467  0.81022  0.31884  1
 S  S12  1  0.39562  0.26628  0.05117  1
