CIF file written using JARVIS-Tools package.
data_Na2CrF4
_symmetry_space_group_name_H-M  'P2_1/c'
_cell_length_a       3.38223
_cell_length_b       9.42927
_cell_length_c       5.68182
_cell_angle_alpha    90
_cell_angle_beta     92.6471
_cell_angle_gamma    90

_symmetry_Int_Tables_number  14
_chemical_formula_structural  Na2CrF4
_chemical_formula_sum  Na4Cr2F8
_cell_volume  181.01049134089087
_cell_formula_units_Z  2
loop_
  _symmetry_equiv_pos_site_id
 _symmetry_equiv_pos_as_xyz
 1  'x, y, z'
loop_
 _atom_site_type_symbol
 _atom_site_label
 _atom_site_symmetry_multiplicity
 _atom_site_fract_x
 _atom_site_fract_y
 _atom_site_fract_z
 _atom_site_fract_occupancy
 Cr  Cr1  1  0.00000  0.00000  0.00000  1
 Cr  Cr2  1  0.00000  0.50000  0.50000  1
 F  F1  1  0.00965  0.69511  0.62931  1
 F  F2  1  0.99035  0.19511  0.87069  1
 F  F3  1  0.99035  0.30489  0.37069  1
 F  F4  1  0.00965  0.80489  0.12931  1
 F  F5  1  0.57816  0.95111  0.75709  1
 F  F6  1  0.42184  0.45111  0.74291  1
 F  F7  1  0.57816  0.54889  0.25709  1
 F  F8  1  0.42184  0.04889  0.24291  1
 Na  Na1  1  0.51427  0.81803  0.42017  1
 Na  Na2  1  0.48573  0.31803  0.07983  1
 Na  Na3  1  0.51427  0.68197  0.92017  1
 Na  Na4  1  0.48573  0.18197  0.57983  1
