CIF file written using JARVIS-Tools package.
data_Sn
_symmetry_space_group_name_H-M  'I4_1/amd'
_cell_length_a       3.22336
_cell_length_b       4.50935
_cell_length_c       4.50935
_cell_angle_alpha    82.6609
_cell_angle_beta     69.0589
_cell_angle_gamma    69.0589

_symmetry_Int_Tables_number  141
_chemical_formula_structural  Sn
_chemical_formula_sum  Sn2
_cell_volume  57.1720251333799
_cell_formula_units_Z  2
loop_
  _symmetry_equiv_pos_site_id
 _symmetry_equiv_pos_as_xyz
 1  'x, y, z'
loop_
 _atom_site_type_symbol
 _atom_site_label
 _atom_site_symmetry_multiplicity
 _atom_site_fract_x
 _atom_site_fract_y
 _atom_site_fract_z
 _atom_site_fract_occupancy
 Sn  Sn1  1  0.25000  0.50000  0.50000  1
 Sn  Sn2  1  0.00000  0.00000  0.00000  1
