CIF file written using JARVIS-Tools package.
data_LiFe6O7F5
_symmetry_space_group_name_H-M  'P1'
_cell_length_a       5.94024
_cell_length_b       5.94862
_cell_length_c       5.77782
_cell_angle_alpha    99.2046
_cell_angle_beta     98.2491
_cell_angle_gamma    99.1299

_symmetry_Int_Tables_number  1
_chemical_formula_structural  LiFe6O7F5
_chemical_formula_sum  LiFe6O7F5
_cell_volume  195.9747819951422
_cell_formula_units_Z  1
loop_
  _symmetry_equiv_pos_site_id
 _symmetry_equiv_pos_as_xyz
 1  'x, y, z'
loop_
 _atom_site_type_symbol
 _atom_site_label
 _atom_site_symmetry_multiplicity
 _atom_site_fract_x
 _atom_site_fract_y
 _atom_site_fract_z
 _atom_site_fract_occupancy
 F  F1  1  0.10712  0.31416  0.93946  1
 F  F2  1  0.94892  0.11841  0.32063  1
 F  F3  1  0.30790  0.93820  0.11982  1
 F  F4  1  0.06079  0.89255  0.68215  1
 F  F5  1  0.68906  0.04518  0.89418  1
 Fe  Fe1  1  0.34220  0.60089  0.14528  1
 Fe  Fe2  1  0.86720  0.66378  0.38208  1
 Fe  Fe3  1  0.60594  0.14310  0.33249  1
 Fe  Fe4  1  0.40607  0.86491  0.66153  1
 Fe  Fe5  1  0.14500  0.34310  0.60628  1
 Fe  Fe6  1  0.66611  0.42185  0.86100  1
 Li  Li1  1  0.99771  0.99333  -0.00126  1
 O  O1  1  0.87271  0.66356  0.07281  1
 O  O2  1  0.17017  0.58451  0.40193  1
 O  O3  1  0.60664  0.81121  0.41279  1
 O  O4  1  0.41538  0.18521  0.59707  1
 O  O5  1  0.41981  0.60501  0.81839  1
 O  O6  1  0.55308  0.37647  0.15548  1
 O  O7  1  0.81821  0.43456  0.59786  1
