CIF file written using JARVIS-Tools package.
data_Ga2Fe2S5
_symmetry_space_group_name_H-M  'P6_3/mmc'
_cell_length_a       3.603
_cell_length_b       3.60299
_cell_length_c       29.9881
_cell_angle_alpha    90.0026
_cell_angle_beta     89.998
_cell_angle_gamma    120.001

_symmetry_Int_Tables_number  194
_chemical_formula_structural  Ga2Fe2S5
_chemical_formula_sum  Ga4Fe4S0
_cell_volume  337.1321193152498
_cell_formula_units_Z  2
loop_
  _symmetry_equiv_pos_site_id
 _symmetry_equiv_pos_as_xyz
 1  'x, y, z'
loop_
 _atom_site_type_symbol
 _atom_site_label
 _atom_site_symmetry_multiplicity
 _atom_site_fract_x
 _atom_site_fract_y
 _atom_site_fract_z
 _atom_site_fract_occupancy
 Fe  Fe1  1  0.00003  -0.00007  0.70445  1
 Fe  Fe2  1  0.00001  0.00004  0.20445  1
 Fe  Fe3  1  -0.00004  -0.00004  0.79555  1
 Fe  Fe4  1  -0.00001  0.00005  0.29555  1
 Ga  Ga1  1  0.33329  0.66672  0.91182  1
 Ga  Ga2  1  0.66667  0.33338  0.08818  1
 Ga  Ga3  1  0.66665  0.33340  0.41182  1
 Ga  Ga4  1  0.33340  0.66653  0.58818  1
 S  S1  1  0.33329  0.66664  0.83703  1
 S  S2  1  0.66661  0.33339  0.94739  1
 S  S3  1  0.33337  0.66658  0.66297  1
 S  S4  1  0.66665  0.33339  0.33703  1
 S  S5  1  0.33333  0.66674  0.44739  1
 S  S6  1  0.33336  0.66669  0.05261  1
 S  S7  1  0.66668  0.33337  0.16297  1
 S  S8  1  0.33333  0.66671  0.25000  1
 S  S9  1  0.66672  0.33320  0.55261  1
 S  S10  1  0.66666  0.33328  0.75000  1
