CIF file written using JARVIS-Tools package.
data_RbPO3
_symmetry_space_group_name_H-M  'Cmcm'
_cell_length_a       4.85854
_cell_length_b       5.92525
_cell_length_c       7.05633
_cell_angle_alpha    114.816
_cell_angle_beta     90
_cell_angle_gamma    90

_symmetry_Int_Tables_number  63
_chemical_formula_structural  RbPO3
_chemical_formula_sum  Rb2P2O6
_cell_volume  184.37964694182236
_cell_formula_units_Z  2
loop_
  _symmetry_equiv_pos_site_id
 _symmetry_equiv_pos_as_xyz
 1  'x, y, z'
loop_
 _atom_site_type_symbol
 _atom_site_label
 _atom_site_symmetry_multiplicity
 _atom_site_fract_x
 _atom_site_fract_y
 _atom_site_fract_z
 _atom_site_fract_occupancy
 O  O1  1  0.75000  0.35812  0.27935  1
 O  O2  1  0.75000  0.92132  0.27944  1
 O  O3  1  0.25000  0.64188  0.72065  1
 O  O4  1  0.25000  0.07869  0.72056  1
 O  O5  1  0.50000  -0.00001  0.00000  1
 O  O6  1  -0.00000  -0.00001  0.00000  1
 P  P1  1  0.25000  0.91904  0.83809  1
 P  P2  1  0.75000  0.08096  0.16191  1
 Rb  Rb1  1  0.25000  0.64894  0.29784  1
 Rb  Rb2  1  0.75000  0.35106  0.70216  1
