CIF file written using JARVIS-Tools package.
data_Na2B2Se7
_symmetry_space_group_name_H-M  'C2/c'
_cell_length_a       6.70626
_cell_length_b       8.17545
_cell_length_c       11.0772
_cell_angle_alpha    74.296
_cell_angle_beta     72.3798
_cell_angle_gamma    65.786

_symmetry_Int_Tables_number  15
_chemical_formula_structural  Na2B2Se7
_chemical_formula_sum  Na4B4Se4
_cell_volume  520.3536669052116
_cell_formula_units_Z  2
loop_
  _symmetry_equiv_pos_site_id
 _symmetry_equiv_pos_as_xyz
 1  'x, y, z'
loop_
 _atom_site_type_symbol
 _atom_site_label
 _atom_site_symmetry_multiplicity
 _atom_site_fract_x
 _atom_site_fract_y
 _atom_site_fract_z
 _atom_site_fract_occupancy
 B  B1  1  0.83574  0.61417  0.15025  1
 B  B2  1  0.60015  0.88583  0.34975  1
 B  B3  1  0.16426  0.38583  0.84975  1
 B  B4  1  0.39985  0.11417  0.65025  1
 Na  Na1  1  0.67288  0.18176  0.03487  1
 Na  Na2  1  0.88951  0.31824  0.46513  1
 Na  Na3  1  0.32712  0.81824  0.96513  1
 Na  Na4  1  0.11049  0.68176  0.53487  1
 Se  Se1  1  0.51758  0.75000  0.25000  1
 Se  Se2  1  0.48242  0.25000  0.75000  1
 Se  Se3  1  0.91012  0.40125  0.77539  1
 Se  Se4  1  0.43870  0.28165  0.47761  1
 Se  Se5  1  0.80204  0.78165  0.97761  1
 Se  Se6  1  0.19796  0.21835  0.02239  1
 Se  Se7  1  0.63030  0.85415  0.66962  1
 Se  Se8  1  0.36970  0.14585  0.33038  1
 Se  Se9  1  0.15407  0.64585  0.83038  1
 Se  Se10  1  0.56130  0.71835  0.52239  1
 Se  Se11  1  0.08988  0.59875  0.22461  1
 Se  Se12  1  0.91325  0.90125  0.27539  1
 Se  Se13  1  0.84593  0.35415  0.16962  1
 Se  Se14  1  0.08675  0.09875  0.72461  1
