CIF file written using JARVIS-Tools package.
data_CaSi2WO6
_symmetry_space_group_name_H-M  'C2/c'
_cell_length_a       5.03616
_cell_length_b       6.88029
_cell_length_c       6.88029
_cell_angle_alpha    78.9825
_cell_angle_beta     80.4978
_cell_angle_gamma    80.4977

_symmetry_Int_Tables_number  15
_chemical_formula_structural  CaSi2WO6
_chemical_formula_sum  Ca2Si4W2O2
_cell_volume  228.592352104608
_cell_formula_units_Z  2
loop_
  _symmetry_equiv_pos_site_id
 _symmetry_equiv_pos_as_xyz
 1  'x, y, z'
loop_
 _atom_site_type_symbol
 _atom_site_label
 _atom_site_symmetry_multiplicity
 _atom_site_fract_x
 _atom_site_fract_y
 _atom_site_fract_z
 _atom_site_fract_occupancy
 Ca  Ca1  1  0.75000  0.27886  0.72114  1
 Ca  Ca2  1  0.25000  0.72114  0.27886  1
 O  O1  1  0.55713  0.32164  0.39816  1
 O  O2  1  0.36043  0.05744  0.23257  1
 O  O3  1  0.44287  0.67836  0.60184  1
 O  O4  1  0.05713  0.39816  0.32164  1
 O  O5  1  0.94287  0.60184  0.67836  1
 O  O6  1  0.32251  0.37756  0.88742  1
 O  O7  1  0.82251  0.88742  0.37756  1
 O  O8  1  0.67749  0.62244  0.11258  1
 O  O9  1  0.86043  0.23256  0.05744  1
 O  O10  1  0.63957  0.94256  0.76743  1
 O  O11  1  0.17749  0.11258  0.62244  1
 O  O12  1  0.13957  0.76744  0.94256  1
 Si  Si1  1  0.70910  0.79378  0.60219  1
 Si  Si2  1  0.79090  0.39781  0.20622  1
 Si  Si3  1  0.20910  0.60219  0.79378  1
 Si  Si4  1  0.29090  0.20622  0.39781  1
 W  W1  1  0.75000  0.93396  0.06604  1
 W  W2  1  0.25000  0.06604  0.93396  1
