CIF file written using JARVIS-Tools package.
data_TbBaO3
_symmetry_space_group_name_H-M  'R-3c'
_cell_length_a       6.1971
_cell_length_b       6.19695
_cell_length_c       6.19683
_cell_angle_alpha    61.0805
_cell_angle_beta     61.0811
_cell_angle_gamma    61.0778

_symmetry_Int_Tables_number  167
_chemical_formula_structural  TbBaO3
_chemical_formula_sum  Tb2Ba2O6
_cell_volume  172.36635526837821
_cell_formula_units_Z  2
loop_
  _symmetry_equiv_pos_site_id
 _symmetry_equiv_pos_as_xyz
 1  'x, y, z'
loop_
 _atom_site_type_symbol
 _atom_site_label
 _atom_site_symmetry_multiplicity
 _atom_site_fract_x
 _atom_site_fract_y
 _atom_site_fract_z
 _atom_site_fract_occupancy
 Ba  Ba1  1  0.25000  0.25004  0.24996  1
 Ba  Ba2  1  0.75000  0.74996  0.75004  1
 O  O1  1  0.68102  0.25016  0.81900  1
 O  O2  1  0.31898  0.74984  0.18100  1
 O  O3  1  0.18102  0.31898  0.75016  1
 O  O4  1  0.81898  0.68102  0.24984  1
 O  O5  1  0.24999  0.81909  0.68090  1
 O  O6  1  0.75001  0.18091  0.31910  1
 Tb  Tb1  1  0.00000  0.00000  0.00000  1
 Tb  Tb2  1  0.50000  0.50000  0.50000  1
