CIF file written using JARVIS-Tools package.
data_ZnSb2O4
_symmetry_space_group_name_H-M  'C2/m'
_cell_length_a       3.31533
_cell_length_b       6.61958
_cell_length_c       10.2525
_cell_angle_alpha    103.526
_cell_angle_beta     99.306
_cell_angle_gamma    104.5

_symmetry_Int_Tables_number  12
_chemical_formula_structural  ZnSb2O4
_chemical_formula_sum  Zn2Sb4O8
_cell_volume  205.9138456328154
_cell_formula_units_Z  2
loop_
  _symmetry_equiv_pos_site_id
 _symmetry_equiv_pos_as_xyz
 1  'x, y, z'
loop_
 _atom_site_type_symbol
 _atom_site_label
 _atom_site_symmetry_multiplicity
 _atom_site_fract_x
 _atom_site_fract_y
 _atom_site_fract_z
 _atom_site_fract_occupancy
 O  O1  1  0.66807  0.56290  0.76545  1
 O  O2  1  0.66852  0.06333  0.26567  1
 O  O3  1  0.31190  0.90361  0.71244  1
 O  O4  1  0.31241  0.40403  0.21266  1
 O  O5  1  0.11939  0.34069  0.89019  1
 O  O6  1  0.11955  0.84082  0.39024  1
 O  O7  1  0.86114  0.62626  0.08793  1
 O  O8  1  0.86086  0.12611  0.58787  1
 Sb  Sb1  1  0.69462  0.30298  0.07806  1
 Sb  Sb2  1  0.69406  0.80275  0.57771  1
 Sb  Sb3  1  0.28633  0.16418  0.40040  1
 Sb  Sb4  1  0.28584  0.66396  0.90005  1
 Zn  Zn1  1  0.49034  0.73367  0.23891  1
 Zn  Zn2  1  0.49008  0.23326  0.73920  1
