CIF file written using JARVIS-Tools package.
data_MgCdRh2
_symmetry_space_group_name_H-M  'Immm'
_cell_length_a       10.2765
_cell_length_b       10.7873
_cell_length_c       10.7873
_cell_angle_alpha    60.8165
_cell_angle_beta     61.5545
_cell_angle_gamma    61.5545

_symmetry_Int_Tables_number  71
_chemical_formula_structural  MgCdRh2
_chemical_formula_sum  MgCdRh2
_cell_volume  870.3527847692079
_cell_formula_units_Z  1
loop_
  _symmetry_equiv_pos_site_id
 _symmetry_equiv_pos_as_xyz
 1  'x, y, z'
loop_
 _atom_site_type_symbol
 _atom_site_label
 _atom_site_symmetry_multiplicity
 _atom_site_fract_x
 _atom_site_fract_y
 _atom_site_fract_z
 _atom_site_fract_occupancy
 Cd  Cd1  1  0.50000  -0.00000  0.00000  1
 Mg  Mg1  1  0.00000  0.00000  0.00000  1
 Rh  Rh1  1  0.75682  0.00000  0.00000  1
 Rh  Rh2  1  0.24318  -0.00000  -0.00000  1
