CIF file written using JARVIS-Tools package.
data_ZnS
_symmetry_space_group_name_H-M  'P3m1'
_cell_length_a       3.84024
_cell_length_b       3.84024
_cell_length_c       43.9801
_cell_angle_alpha    90
_cell_angle_beta     90
_cell_angle_gamma    120

_symmetry_Int_Tables_number  156
_chemical_formula_structural  ZnS
_chemical_formula_sum  Zn4S4
_cell_volume  561.7018152771933
_cell_formula_units_Z  14
loop_
  _symmetry_equiv_pos_site_id
 _symmetry_equiv_pos_as_xyz
 1  'x, y, z'
loop_
 _atom_site_type_symbol
 _atom_site_label
 _atom_site_symmetry_multiplicity
 _atom_site_fract_x
 _atom_site_fract_y
 _atom_site_fract_z
 _atom_site_fract_occupancy
 S  S1  1  0.33333  0.66667  0.87498  1
 S  S2  1  0.66667  0.33333  0.37501  1
 S  S3  1  0.66667  0.33333  0.80362  1
 S  S4  1  0.33333  0.66667  0.66068  1
 S  S5  1  0.66667  0.33333  0.08933  1
 S  S6  1  0.00000  0.00000  0.58930  1
 S  S7  1  0.00000  0.00000  0.16069  1
 S  S8  1  0.00000  0.00000  0.73227  1
 S  S9  1  0.33333  0.66667  0.23208  1
 S  S10  1  0.33333  0.66667  0.01798  1
 S  S11  1  0.00000  0.00000  0.30367  1
 S  S12  1  0.00000  0.00000  0.94638  1
 S  S13  1  0.66667  0.33333  0.51797  1
 S  S14  1  0.33333  0.66667  0.44639  1
 Zn  Zn1  1  0.66667  0.33333  0.85712  1
 Zn  Zn2  1  0.00000  0.00000  0.78576  1
 Zn  Zn3  1  0.33333  0.66667  0.92846  1
 Zn  Zn4  1  0.66667  0.33333  0.14283  1
 Zn  Zn5  1  0.66667  0.33333  0.42848  1
 Zn  Zn6  1  0.33333  0.66667  0.28569  1
 Zn  Zn7  1  0.00000  0.00000  0.64277  1
 Zn  Zn8  1  0.00000  0.00000  -0.00001  1
 Zn  Zn9  1  0.66667  0.33333  0.57145  1
 Zn  Zn10  1  0.33333  0.66667  0.07148  1
 Zn  Zn11  1  0.33333  0.66667  0.71429  1
 Zn  Zn12  1  0.33333  0.66667  0.49999  1
 Zn  Zn13  1  0.00000  0.00000  0.35716  1
 Zn  Zn14  1  0.00000  0.00000  0.21417  1
