CIF file written using JARVIS-Tools package.
data_Ca2PdRh
_symmetry_space_group_name_H-M  'C2/m'
_cell_length_a       11.8744
_cell_length_b       8.37577
_cell_length_c       8.37575
_cell_angle_alpha    33.7136
_cell_angle_beta     19.6175
_cell_angle_gamma    19.6175

_symmetry_Int_Tables_number  12
_chemical_formula_structural  Ca2PdRh
_chemical_formula_sum  Ca2PdRh
_cell_volume  81.75003280746367
_cell_formula_units_Z  1
loop_
  _symmetry_equiv_pos_site_id
 _symmetry_equiv_pos_as_xyz
 1  'x, y, z'
loop_
 _atom_site_type_symbol
 _atom_site_label
 _atom_site_symmetry_multiplicity
 _atom_site_fract_x
 _atom_site_fract_y
 _atom_site_fract_z
 _atom_site_fract_occupancy
 Ca  Ca1  1  0.75028  -0.00014  -0.00014  1
 Ca  Ca2  1  0.24972  0.00014  0.00014  1
 Pd  Pd1  1  0.50000  0.00000  0.00000  1
 Rh  Rh1  1  0.00000  0.00000  0.00000  1
