CIF file written using JARVIS-Tools package.
data_SrPbO3
_symmetry_space_group_name_H-M  'Pnma'
_cell_length_a       5.92538
_cell_length_b       6.09336
_cell_length_c       8.42762
_cell_angle_alpha    90
_cell_angle_beta     90
_cell_angle_gamma    90

_symmetry_Int_Tables_number  62
_chemical_formula_structural  SrPbO3
_chemical_formula_sum  Sr4Pb4O2
_cell_volume  304.28345752190785
_cell_formula_units_Z  4
loop_
  _symmetry_equiv_pos_site_id
 _symmetry_equiv_pos_as_xyz
 1  'x, y, z'
loop_
 _atom_site_type_symbol
 _atom_site_label
 _atom_site_symmetry_multiplicity
 _atom_site_fract_x
 _atom_site_fract_y
 _atom_site_fract_z
 _atom_site_fract_occupancy
 O  O1  1  0.10368  0.04109  0.25000  1
 O  O2  1  0.19879  0.29731  0.55426  1
 O  O3  1  0.39632  0.54109  0.25000  1
 O  O4  1  0.30121  0.79731  0.94574  1
 O  O5  1  0.80121  0.70269  0.05426  1
 O  O6  1  0.69879  0.20269  0.44574  1
 O  O7  1  0.30121  0.79731  0.55426  1
 O  O8  1  0.69879  0.20269  0.05426  1
 O  O9  1  0.19879  0.29731  0.94574  1
 O  O10  1  0.89632  0.95891  0.75000  1
 O  O11  1  0.60368  0.45891  0.75000  1
 O  O12  1  0.80121  0.70269  0.44574  1
 Pb  Pb1  1  0.00000  0.00000  0.50000  1
 Pb  Pb2  1  0.50000  0.50000  0.50000  1
 Pb  Pb3  1  0.50000  0.50000  0.00000  1
 Pb  Pb4  1  0.00000  0.00000  0.00000  1
 Sr  Sr1  1  0.01397  0.55273  0.75000  1
 Sr  Sr2  1  0.51397  0.94727  0.25000  1
 Sr  Sr3  1  0.48603  0.05273  0.75000  1
 Sr  Sr4  1  0.98603  0.44727  0.25000  1
