CIF file written using JARVIS-Tools package.
data_Na2SnO2
_symmetry_space_group_name_H-M  'P2_12_12_1'
_cell_length_a       5.15292
_cell_length_b       6.65742
_cell_length_c       9.65558
_cell_angle_alpha    90
_cell_angle_beta     90
_cell_angle_gamma    90

_symmetry_Int_Tables_number  19
_chemical_formula_structural  Na2SnO2
_chemical_formula_sum  Na8Sn4O8
_cell_volume  331.23633887796245
_cell_formula_units_Z  4
loop_
  _symmetry_equiv_pos_site_id
 _symmetry_equiv_pos_as_xyz
 1  'x, y, z'
loop_
 _atom_site_type_symbol
 _atom_site_label
 _atom_site_symmetry_multiplicity
 _atom_site_fract_x
 _atom_site_fract_y
 _atom_site_fract_z
 _atom_site_fract_occupancy
 Na  Na1  1  -0.00615  0.62353  0.42257  1
 Na  Na2  1  0.00862  0.12886  0.75930  1
 Na  Na3  1  0.49138  0.87114  0.25930  1
 Na  Na4  1  0.50615  0.37647  0.92257  1
 Na  Na5  1  0.49385  0.87647  0.57743  1
 Na  Na6  1  0.50862  0.37114  0.24070  1
 Na  Na7  1  0.99138  0.62886  0.74070  1
 Na  Na8  1  0.00615  0.12353  0.07743  1
 O  O1  1  0.57776  0.15681  0.44243  1
 O  O2  1  0.50139  0.60824  0.41978  1
 O  O3  1  0.49861  0.10824  0.08022  1
 O  O4  1  0.42224  0.65681  0.05757  1
 O  O5  1  0.07776  0.34319  0.55757  1
 O  O6  1  0.99861  0.39176  0.91978  1
 O  O7  1  0.92224  0.84319  0.94243  1
 O  O8  1  0.00139  0.89176  0.58022  1
 Sn  Sn1  1  -0.01503  0.10157  0.42593  1
 Sn  Sn2  1  0.51503  0.89843  0.92593  1
 Sn  Sn3  1  0.01503  0.60157  0.07407  1
 Sn  Sn4  1  0.48497  0.39843  0.57407  1
