CIF file written using JARVIS-Tools package.
data_CdHClO
_symmetry_space_group_name_H-M  'P6_3mc'
_cell_length_a       3.70745
_cell_length_b       3.70743
_cell_length_c       10.2672
_cell_angle_alpha    90
_cell_angle_beta     90
_cell_angle_gamma    120

_symmetry_Int_Tables_number  186
_chemical_formula_structural  CdHClO
_chemical_formula_sum  Cd2H2Cl2O2
_cell_volume  122.21636559940302
_cell_formula_units_Z  2
loop_
  _symmetry_equiv_pos_site_id
 _symmetry_equiv_pos_as_xyz
 1  'x, y, z'
loop_
 _atom_site_type_symbol
 _atom_site_label
 _atom_site_symmetry_multiplicity
 _atom_site_fract_x
 _atom_site_fract_y
 _atom_site_fract_z
 _atom_site_fract_occupancy
 Cd  Cd1  1  0.66667  0.33334  0.50835  1
 Cd  Cd2  1  0.33333  0.66666  0.00835  1
 Cl  Cl1  1  0.66667  0.33334  0.84141  1
 Cl  Cl2  1  0.33333  0.66666  0.34141  1
 H  H1  1  0.00000  0.00001  0.68319  1
 H  H2  1  1.00000  0.99999  0.18319  1
 O  O1  1  0.00000  0.00000  0.58746  1
 O  O2  1  1.00000  1.00000  0.08746  1
