CIF file written using JARVIS-Tools package.
data_Na3CoO3
_symmetry_space_group_name_H-M  'P2_13'
_cell_length_a       7.4132
_cell_length_b       7.4132
_cell_length_c       7.4132
_cell_angle_alpha    90
_cell_angle_beta     90
_cell_angle_gamma    90

_symmetry_Int_Tables_number  198
_chemical_formula_structural  Na3CoO3
_chemical_formula_sum  Na2Co4O2
_cell_volume  407.395580883716
_cell_formula_units_Z  4
loop_
  _symmetry_equiv_pos_site_id
 _symmetry_equiv_pos_as_xyz
 1  'x, y, z'
loop_
 _atom_site_type_symbol
 _atom_site_label
 _atom_site_symmetry_multiplicity
 _atom_site_fract_x
 _atom_site_fract_y
 _atom_site_fract_z
 _atom_site_fract_occupancy
 Co  Co1  1  0.48151  0.48151  0.48151  1
 Co  Co2  1  0.98151  0.01849  0.51849  1
 Co  Co3  1  0.51849  0.98151  0.01849  1
 Co  Co4  1  0.01849  0.51849  0.98151  1
 Na  Na1  1  0.95793  0.54207  0.45793  1
 Na  Na2  1  0.79542  0.79542  0.79542  1
 Na  Na3  1  0.77150  0.22850  0.72850  1
 Na  Na4  1  0.72850  0.77150  0.22850  1
 Na  Na5  1  0.04207  0.04207  0.04207  1
 Na  Na6  1  0.54207  0.45793  0.95793  1
 Na  Na7  1  0.45793  0.95793  0.54207  1
 Na  Na8  1  0.29542  0.70458  0.20458  1
 Na  Na9  1  0.27150  0.27150  0.27150  1
 Na  Na10  1  0.22850  0.72850  0.77150  1
 Na  Na11  1  0.20458  0.29542  0.70458  1
 Na  Na12  1  0.70458  0.20458  0.29542  1
 O  O1  1  0.77319  0.90049  0.49876  1
 O  O2  1  0.72681  0.09951  0.99876  1
 O  O3  1  0.59951  0.50124  0.27319  1
 O  O4  1  0.50124  0.27319  0.59951  1
 O  O5  1  0.49876  0.77319  0.90049  1
 O  O6  1  0.22681  0.40049  0.00124  1
 O  O7  1  0.27319  0.59951  0.50124  1
 O  O8  1  0.09951  0.99876  0.72681  1
 O  O9  1  0.00124  0.22681  0.40049  1
 O  O10  1  0.90049  0.49876  0.77319  1
 O  O11  1  0.40049  0.00124  0.22681  1
 O  O12  1  0.99876  0.72681  0.09951  1
