CIF file written using JARVIS-Tools package.
data_SI2N2
_symmetry_space_group_name_H-M  'P-1'
_cell_length_a       6.5046
_cell_length_b       7.89965
_cell_length_c       11.5346
_cell_angle_alpha    73.6976
_cell_angle_beta     89.7327
_cell_angle_gamma    68.7563

_symmetry_Int_Tables_number  2
_chemical_formula_structural  SI2N2
_chemical_formula_sum  S4I8N8
_cell_volume  527.0779166630474
_cell_formula_units_Z  4
loop_
  _symmetry_equiv_pos_site_id
 _symmetry_equiv_pos_as_xyz
 1  'x, y, z'
loop_
 _atom_site_type_symbol
 _atom_site_label
 _atom_site_symmetry_multiplicity
 _atom_site_fract_x
 _atom_site_fract_y
 _atom_site_fract_z
 _atom_site_fract_occupancy
 I  I1  1  0.36663  0.82286  0.20583  1
 I  I2  1  0.72405  0.69860  0.68822  1
 I  I3  1  0.27595  0.30140  0.31178  1
 I  I4  1  0.63337  0.17714  0.79417  1
 I  I5  1  0.14966  0.07063  0.62075  1
 I  I6  1  0.87695  0.73093  0.05405  1
 I  I7  1  0.12305  0.26907  0.94595  1
 I  I8  1  0.85034  0.92937  0.37925  1
 N  N1  1  0.00320  0.35018  0.41338  1
 N  N2  1  0.33543  0.83426  0.76643  1
 N  N3  1  0.69369  0.61138  0.23968  1
 N  N4  1  0.30631  0.38862  0.76032  1
 N  N5  1  -0.00622  0.86319  0.89307  1
 N  N6  1  0.66457  0.16574  0.23357  1
 N  N7  1  -0.00320  0.64982  0.58662  1
 N  N8  1  0.00622  0.13681  0.10693  1
 S  S1  1  0.24372  0.75377  0.88477  1
 S  S2  1  0.75628  0.24623  0.11523  1
 S  S3  1  0.24087  0.51261  0.62410  1
 S  S4  1  0.75913  0.48739  0.37590  1
