CIF file written using JARVIS-Tools package.
data_MgSnF4
_symmetry_space_group_name_H-M  'P1'
_cell_length_a       4.94627
_cell_length_b       5.53293
_cell_length_c       6.89675
_cell_angle_alpha    108.373
_cell_angle_beta     108.031
_cell_angle_gamma    90.4785

_symmetry_Int_Tables_number  1
_chemical_formula_structural  MgSnF4
_chemical_formula_sum  Mg2Sn2F8
_cell_volume  169.1506777817866
_cell_formula_units_Z  2
loop_
  _symmetry_equiv_pos_site_id
 _symmetry_equiv_pos_as_xyz
 1  'x, y, z'
loop_
 _atom_site_type_symbol
 _atom_site_label
 _atom_site_symmetry_multiplicity
 _atom_site_fract_x
 _atom_site_fract_y
 _atom_site_fract_z
 _atom_site_fract_occupancy
 F  F1  1  0.55654  0.48610  0.78858  1
 F  F2  1  0.80058  0.76331  0.20678  1
 F  F3  1  0.43179  0.55879  0.38086  1
 F  F4  1  0.47801  0.06882  0.39627  1
 F  F5  1  0.06257  0.13059  0.61361  1
 F  F6  1  0.02672  0.61654  0.63380  1
 F  F7  1  0.74069  0.01436  0.80642  1
 F  F8  1  0.91053  0.25634  0.21888  1
 Mg  Mg1  1  0.75395  0.82627  0.50382  1
 Mg  Mg2  1  0.24754  0.35141  0.49627  1
 Sn  Sn1  1  0.99062  0.41940  0.91886  1
 Sn  Sn2  1  0.52012  -0.00484  0.05819  1
