CIF file written using JARVIS-Tools package.
data_SnPSe3
_symmetry_space_group_name_H-M  'P2_1/c'
_cell_length_a       6.9531
_cell_length_b       7.66465
_cell_length_c       9.8217
_cell_angle_alpha    90
_cell_angle_beta     91.1163
_cell_angle_gamma    90

_symmetry_Int_Tables_number  14
_chemical_formula_structural  SnPSe3
_chemical_formula_sum  Sn4P4Se2
_cell_volume  523.3295595910881
_cell_formula_units_Z  4
loop_
  _symmetry_equiv_pos_site_id
 _symmetry_equiv_pos_as_xyz
 1  'x, y, z'
loop_
 _atom_site_type_symbol
 _atom_site_label
 _atom_site_symmetry_multiplicity
 _atom_site_fract_x
 _atom_site_fract_y
 _atom_site_fract_z
 _atom_site_fract_occupancy
 P  P1  1  0.94237  0.89180  0.56645  1
 P  P2  1  0.44237  0.60820  0.06645  1
 P  P3  1  0.05763  0.10820  0.43355  1
 P  P4  1  0.55763  0.39180  0.93355  1
 Se  Se1  1  0.88495  0.00577  0.76887  1
 Se  Se2  1  0.32683  0.20292  0.53963  1
 Se  Se3  1  0.17317  0.70292  0.96037  1
 Se  Se4  1  0.67317  0.79708  0.46037  1
 Se  Se5  1  0.82683  0.29708  0.03963  1
 Se  Se6  1  0.83611  0.31412  0.44055  1
 Se  Se7  1  0.66389  0.81412  0.05945  1
 Se  Se8  1  0.16389  0.68588  0.55945  1
 Se  Se9  1  0.61505  0.50577  0.73113  1
 Se  Se10  1  0.11505  0.99423  0.23113  1
 Se  Se11  1  0.38495  0.49423  0.26887  1
 Se  Se12  1  0.33611  0.18588  0.94055  1
 Sn  Sn1  1  0.03817  0.38022  0.77949  1
 Sn  Sn2  1  0.96183  0.61978  0.22051  1
 Sn  Sn3  1  0.53817  0.11978  0.27949  1
 Sn  Sn4  1  0.46183  0.88022  0.72051  1
