CIF file written using JARVIS-Tools package.
data_CaTiO3
_symmetry_space_group_name_H-M  'I4/mcm'
_cell_length_a       5.3899
_cell_length_b       5.3899
_cell_length_c       5.46532
_cell_angle_alpha    119.544
_cell_angle_beta     119.544
_cell_angle_gamma    90

_symmetry_Int_Tables_number  140
_chemical_formula_structural  CaTiO3
_chemical_formula_sum  Ca2Ti2O6
_cell_volume  113.79803416545396
_cell_formula_units_Z  2
loop_
  _symmetry_equiv_pos_site_id
 _symmetry_equiv_pos_as_xyz
 1  'x, y, z'
loop_
 _atom_site_type_symbol
 _atom_site_label
 _atom_site_symmetry_multiplicity
 _atom_site_fract_x
 _atom_site_fract_y
 _atom_site_fract_z
 _atom_site_fract_occupancy
 Ca  Ca1  1  0.25000  0.75000  0.50000  1
 Ca  Ca2  1  0.75000  0.25000  0.50000  1
 O  O1  1  0.81075  0.31075  -0.00000  1
 O  O2  1  0.68925  0.81075  -0.00000  1
 O  O3  1  0.31075  0.18925  0.00000  1
 O  O4  1  0.18925  0.68925  0.00000  1
 O  O5  1  0.25000  0.25000  0.50000  1
 O  O6  1  0.75000  0.75000  0.50000  1
 Ti  Ti1  1  0.00000  0.00000  0.00000  1
 Ti  Ti2  1  0.50000  0.50000  0.00000  1
