CIF file written using JARVIS-Tools package.
data_Sr3CaCr2S2O5
_symmetry_space_group_name_H-M  'I-4m2'
_cell_length_a       3.91742
_cell_length_b       3.91742
_cell_length_c       14.4732
_cell_angle_alpha    97.7779
_cell_angle_beta     97.7779
_cell_angle_gamma    90

_symmetry_Int_Tables_number  119
_chemical_formula_structural  Sr3CaCr2S2O5
_chemical_formula_sum  Sr3CaCr2S2O5
_cell_volume  218.0034132055307
_cell_formula_units_Z  1
loop_
  _symmetry_equiv_pos_site_id
 _symmetry_equiv_pos_as_xyz
 1  'x, y, z'
loop_
 _atom_site_type_symbol
 _atom_site_label
 _atom_site_symmetry_multiplicity
 _atom_site_fract_x
 _atom_site_fract_y
 _atom_site_fract_z
 _atom_site_fract_occupancy
 Ca  Ca1  1  0.75000  0.25000  0.50000  1
 Cr  Cr1  1  0.06668  0.06668  0.13336  1
 Cr  Cr2  1  0.93332  0.93332  0.86664  1
 O  O1  1  0.07484  0.57484  0.14968  1
 O  O2  1  0.57499  0.07499  0.14997  1
 O  O3  1  0.92501  0.42501  0.85003  1
 O  O4  1  0.42516  0.92516  0.85032  1
 O  O5  1  0.00000  0.00000  0.00000  1
 S  S1  1  0.18420  0.18420  0.36839  1
 S  S2  1  0.81580  0.81580  0.63161  1
 Sr  Sr1  1  0.50000  0.50000  0.00000  1
 Sr  Sr2  1  0.63111  0.63111  0.26223  1
 Sr  Sr3  1  0.36889  0.36889  0.73777  1
