CIF file written using JARVIS-Tools package.
data_K4CO4
_symmetry_space_group_name_H-M  'P-43m'
_cell_length_a       5.26085
_cell_length_b       5.26085
_cell_length_c       5.26085
_cell_angle_alpha    90
_cell_angle_beta     90
_cell_angle_gamma    90

_symmetry_Int_Tables_number  215
_chemical_formula_structural  K4CO4
_chemical_formula_sum  K4CO4
_cell_volume  145.60183994901817
_cell_formula_units_Z  1
loop_
  _symmetry_equiv_pos_site_id
 _symmetry_equiv_pos_as_xyz
 1  'x, y, z'
loop_
 _atom_site_type_symbol
 _atom_site_label
 _atom_site_symmetry_multiplicity
 _atom_site_fract_x
 _atom_site_fract_y
 _atom_site_fract_z
 _atom_site_fract_occupancy
 C  C1  1  0.50000  0.50000  0.50000  1
 K  K1  1  0.21264  0.78736  0.78736  1
 K  K2  1  0.21264  0.21264  0.21264  1
 K  K3  1  0.78736  0.78736  0.21264  1
 K  K4  1  0.78736  0.21264  0.78736  1
 O  O1  1  0.34094  0.65906  0.34094  1
 O  O2  1  0.65906  0.34094  0.34094  1
 O  O3  1  0.65906  0.65906  0.65906  1
 O  O4  1  0.34094  0.34094  0.65906  1
