CIF file written using JARVIS-Tools package.
data_Sm2Ge2O7
_symmetry_space_group_name_H-M  'C2/m'
_cell_length_a       5.9098
_cell_length_b       5.0145
_cell_length_c       5.9098
_cell_angle_alpha    82.9132
_cell_angle_beta     75.5274
_cell_angle_gamma    97.0868

_symmetry_Int_Tables_number  12
_chemical_formula_structural  Sm2Ge2O7
_chemical_formula_sum  Sm2Ge2O7
_cell_volume  166.10061060635806
_cell_formula_units_Z  1
loop_
  _symmetry_equiv_pos_site_id
 _symmetry_equiv_pos_as_xyz
 1  'x, y, z'
loop_
 _atom_site_type_symbol
 _atom_site_label
 _atom_site_symmetry_multiplicity
 _atom_site_fract_x
 _atom_site_fract_y
 _atom_site_fract_z
 _atom_site_fract_occupancy
 Ge  Ge1  1  0.22775  0.91483  0.77225  1
 Ge  Ge2  1  0.77225  0.08517  0.22775  1
 O  O1  1  0.39882  0.71936  0.91417  1
 O  O2  1  0.08583  0.71936  0.60118  1
 O  O3  1  0.39363  0.22555  0.60637  1
 O  O4  1  0.60637  0.77445  0.39363  1
 O  O5  1  0.00000  0.00000  0.00000  1
 O  O6  1  0.60118  0.28064  0.08583  1
 O  O7  1  0.91417  0.28064  0.39882  1
 Sm  Sm1  1  0.30256  0.50000  0.30256  1
 Sm  Sm2  1  0.69744  0.50000  0.69744  1
