CIF file written using JARVIS-Tools package.
data_YSeF
_symmetry_space_group_name_H-M  'Pnma'
_cell_length_a       5.69884
_cell_length_b       5.74574
_cell_length_c       7.67361
_cell_angle_alpha    90
_cell_angle_beta     90
_cell_angle_gamma    90

_symmetry_Int_Tables_number  62
_chemical_formula_structural  YSeF
_chemical_formula_sum  Y4Se4F4
_cell_volume  251.2653832071579
_cell_formula_units_Z  4
loop_
  _symmetry_equiv_pos_site_id
 _symmetry_equiv_pos_as_xyz
 1  'x, y, z'
loop_
 _atom_site_type_symbol
 _atom_site_label
 _atom_site_symmetry_multiplicity
 _atom_site_fract_x
 _atom_site_fract_y
 _atom_site_fract_z
 _atom_site_fract_occupancy
 F  F1  1  0.25000  0.87067  0.53845  1
 F  F2  1  0.25000  0.62933  0.03845  1
 F  F3  1  0.75000  0.12933  0.46155  1
 F  F4  1  0.75000  0.37067  0.96155  1
 Se  Se1  1  0.75000  0.61972  0.32734  1
 Se  Se2  1  0.25000  0.11972  0.17266  1
 Se  Se3  1  0.75000  0.88028  0.82734  1
 Se  Se4  1  0.25000  0.38028  0.67266  1
 Y  Y1  1  0.25000  0.87195  0.82126  1
 Y  Y2  1  0.75000  0.37195  0.67874  1
 Y  Y3  1  0.75000  0.12805  0.17874  1
 Y  Y4  1  0.25000  0.62805  0.32126  1
