CIF file written using JARVIS-Tools package.
data_Mo2H2O7
_symmetry_space_group_name_H-M  'P2_1'
_cell_length_a       9.2063
_cell_length_b       3.77831
_cell_length_c       7.17334
_cell_angle_alpha    90
_cell_angle_beta     102.791
_cell_angle_gamma    90

_symmetry_Int_Tables_number  4
_chemical_formula_structural  Mo2H2O7
_chemical_formula_sum  Mo4H4O4
_cell_volume  243.32741582493148
_cell_formula_units_Z  2
loop_
  _symmetry_equiv_pos_site_id
 _symmetry_equiv_pos_as_xyz
 1  'x, y, z'
loop_
 _atom_site_type_symbol
 _atom_site_label
 _atom_site_symmetry_multiplicity
 _atom_site_fract_x
 _atom_site_fract_y
 _atom_site_fract_z
 _atom_site_fract_occupancy
 H  H1  1  0.71237  0.95902  0.32252  1
 H  H2  1  0.28763  0.45902  0.67748  1
 H  H3  1  0.28012  0.87432  0.39469  1
 H  H4  1  0.71988  0.37432  0.60531  1
 Mo  Mo1  1  0.96895  0.25296  0.18702  1
 Mo  Mo2  1  0.03105  0.75296  0.81298  1
 Mo  Mo3  1  0.43693  0.70492  0.16778  1
 Mo  Mo4  1  0.56307  0.20492  0.83222  1
 O  O1  1  0.63964  0.76387  0.28818  1
 O  O2  1  0.36036  0.26387  0.71182  1
 O  O3  1  0.37795  0.75885  0.39377  1
 O  O4  1  0.12633  0.73228  0.63398  1
 O  O5  1  0.96237  0.74819  0.10395  1
 O  O6  1  0.87367  0.23228  0.36602  1
 O  O7  1  0.53309  0.74065  0.89021  1
 O  O8  1  0.84903  0.73178  0.69043  1
 O  O9  1  0.46691  0.24065  0.10979  1
 O  O10  1  0.03763  0.24819  0.89605  1
 O  O11  1  0.74200  0.25990  0.98160  1
 O  O12  1  0.25800  0.75990  0.01840  1
 O  O13  1  0.15097  0.23178  0.30957  1
 O  O14  1  0.62205  0.25885  0.60623  1
