CIF file written using JARVIS-Tools package.
data_VTeO4
_symmetry_space_group_name_H-M  'P2_1/c'
_cell_length_a       4.34786
_cell_length_b       5.45102
_cell_length_c       13.481
_cell_angle_alpha    90
_cell_angle_beta     90
_cell_angle_gamma    91.1617

_symmetry_Int_Tables_number  14
_chemical_formula_structural  VTeO4
_chemical_formula_sum  V4Te4O6
_cell_volume  319.4377026649352
_cell_formula_units_Z  4
loop_
  _symmetry_equiv_pos_site_id
 _symmetry_equiv_pos_as_xyz
 1  'x, y, z'
loop_
 _atom_site_type_symbol
 _atom_site_label
 _atom_site_symmetry_multiplicity
 _atom_site_fract_x
 _atom_site_fract_y
 _atom_site_fract_z
 _atom_site_fract_occupancy
 O  O1  1  0.28825  0.17777  0.33538  1
 O  O2  1  0.18506  0.62756  0.54715  1
 O  O3  1  0.74554  0.88058  0.42074  1
 O  O4  1  0.71175  0.82223  0.66462  1
 O  O5  1  0.81494  0.87244  0.04715  1
 O  O6  1  0.79286  0.98480  0.22310  1
 O  O7  1  0.81494  0.37244  0.45285  1
 O  O8  1  0.20714  0.01520  0.77690  1
 O  O9  1  0.79286  0.48480  0.27690  1
 O  O10  1  0.25446  0.61942  0.92074  1
 O  O11  1  0.74554  0.38058  0.07926  1
 O  O12  1  0.25446  0.11942  0.57926  1
 O  O13  1  0.28825  0.67777  0.16462  1
 O  O14  1  0.18506  0.12756  0.95285  1
 O  O15  1  0.71175  0.32223  0.83538  1
 O  O16  1  0.20714  0.51520  0.72310  1
 Te  Te1  1  0.95235  0.35107  0.60955  1
 Te  Te2  1  0.95235  0.85107  0.89045  1
 Te  Te3  1  0.04765  0.14893  0.10955  1
 Te  Te4  1  0.04765  0.64893  0.39045  1
 V  V1  1  0.33203  0.33334  0.83993  1
 V  V2  1  0.66797  0.66666  0.16007  1
 V  V3  1  0.66797  0.16666  0.33993  1
 V  V4  1  0.33203  0.83334  0.66007  1
