CIF file written using JARVIS-Tools package.
data_SnO2
_symmetry_space_group_name_H-M  'Pbcn'
_cell_length_a       4.77597
_cell_length_b       5.30236
_cell_length_c       5.81182
_cell_angle_alpha    90
_cell_angle_beta     90
_cell_angle_gamma    90

_symmetry_Int_Tables_number  60
_chemical_formula_structural  SnO2
_chemical_formula_sum  Sn4O8
_cell_volume  147.177887379345
_cell_formula_units_Z  4
loop_
  _symmetry_equiv_pos_site_id
 _symmetry_equiv_pos_as_xyz
 1  'x, y, z'
loop_
 _atom_site_type_symbol
 _atom_site_label
 _atom_site_symmetry_multiplicity
 _atom_site_fract_x
 _atom_site_fract_y
 _atom_site_fract_z
 _atom_site_fract_occupancy
 O  O1  1  0.73077  0.07805  0.60612  1
 O  O2  1  0.23077  0.92195  0.89388  1
 O  O3  1  0.76923  0.57805  0.89388  1
 O  O4  1  0.26923  0.42195  0.60612  1
 O  O5  1  0.73077  0.57805  0.39388  1
 O  O6  1  0.23077  0.42195  0.10612  1
 O  O7  1  0.76923  0.07805  0.10612  1
 O  O8  1  0.26923  0.92195  0.39388  1
 Sn  Sn1  1  0.50000  0.75000  0.66624  1
 Sn  Sn2  1  0.00000  0.25000  0.83376  1
 Sn  Sn3  1  0.50000  0.25000  0.33376  1
 Sn  Sn4  1  0.00000  0.75000  0.16624  1
