CIF file written using JARVIS-Tools package.
data_Rb2Sb4S7
_symmetry_space_group_name_H-M  'P-1'
_cell_length_a       7.45255
_cell_length_b       9.64523
_cell_length_c       11.5297
_cell_angle_alpha    98.4135
_cell_angle_beta     86.8433
_cell_angle_gamma    104.062

_symmetry_Int_Tables_number  2
_chemical_formula_structural  Rb2Sb4S7
_chemical_formula_sum  Rb4Sb8S4
_cell_volume  795.1213236684224
_cell_formula_units_Z  2
loop_
  _symmetry_equiv_pos_site_id
 _symmetry_equiv_pos_as_xyz
 1  'x, y, z'
loop_
 _atom_site_type_symbol
 _atom_site_label
 _atom_site_symmetry_multiplicity
 _atom_site_fract_x
 _atom_site_fract_y
 _atom_site_fract_z
 _atom_site_fract_occupancy
 Rb  Rb1  1  0.28712  0.33192  0.10773  1
 Rb  Rb2  1  0.41890  0.72445  0.55911  1
 Rb  Rb3  1  0.58110  0.27555  0.44089  1
 Rb  Rb4  1  0.71288  0.66808  0.89227  1
 S  S1  1  0.56003  0.56139  0.29341  1
 S  S2  1  0.66923  0.33587  0.94853  1
 S  S3  1  0.43997  0.43861  0.70659  1
 S  S4  1  0.23746  0.02087  0.54127  1
 S  S5  1  0.05447  0.70038  0.35823  1
 S  S6  1  0.81852  0.86793  0.14545  1
 S  S7  1  0.44661  0.06319  0.15615  1
 S  S8  1  0.55339  0.93681  0.84385  1
 S  S9  1  0.88972  0.32197  0.23252  1
 S  S10  1  0.11028  0.67803  0.76748  1
 S  S11  1  0.94553  0.29962  0.64177  1
 S  S12  1  0.33077  0.66413  0.05147  1
 S  S13  1  0.76254  0.97913  0.45873  1
 S  S14  1  0.18148  0.13207  0.85455  1
 Sb  Sb1  1  0.49878  0.19591  0.76610  1
 Sb  Sb2  1  0.04034  0.95574  0.34052  1
 Sb  Sb3  1  0.13798  0.43722  0.81241  1
 Sb  Sb4  1  0.74382  0.13499  0.04948  1
 Sb  Sb5  1  0.25618  0.86501  0.95052  1
 Sb  Sb6  1  0.95966  0.04426  0.65948  1
 Sb  Sb7  1  0.86202  0.56278  0.18759  1
 Sb  Sb8  1  0.50122  0.80409  0.23390  1
