CIF file written using JARVIS-Tools package.
data_LuNbO4
_symmetry_space_group_name_H-M  'P2/c'
_cell_length_a       5.07849
_cell_length_b       5.35066
_cell_length_c       5.26874
_cell_angle_alpha    90
_cell_angle_beta     95.0253
_cell_angle_gamma    90

_symmetry_Int_Tables_number  13
_chemical_formula_structural  LuNbO4
_chemical_formula_sum  Lu2Nb2O8
_cell_volume  142.61870896371184
_cell_formula_units_Z  2
loop_
  _symmetry_equiv_pos_site_id
 _symmetry_equiv_pos_as_xyz
 1  'x, y, z'
loop_
 _atom_site_type_symbol
 _atom_site_label
 _atom_site_symmetry_multiplicity
 _atom_site_fract_x
 _atom_site_fract_y
 _atom_site_fract_z
 _atom_site_fract_occupancy
 Lu  Lu1  1  0.50000  0.24202  0.25000  1
 Lu  Lu2  1  0.50000  0.75798  0.75000  1
 Nb  Nb1  1  0.00000  0.71305  0.25000  1
 Nb  Nb2  1  0.00000  0.28695  0.75000  1
 O  O1  1  0.75691  0.44364  0.97815  1
 O  O2  1  0.74792  0.93267  0.08403  1
 O  O3  1  0.25208  0.93267  0.41597  1
 O  O4  1  0.24309  0.44364  0.52185  1
 O  O5  1  0.75691  0.55636  0.47815  1
 O  O6  1  0.74792  0.06733  0.58403  1
 O  O7  1  0.25208  0.06733  0.91597  1
 O  O8  1  0.24309  0.55636  0.02185  1
