CIF file written using JARVIS-Tools package.
data_Zn2SiO4
_symmetry_space_group_name_H-M  'I-42d'
_cell_length_a       5.97656
_cell_length_b       5.97655
_cell_length_c       5.97656
_cell_angle_alpha    107.281
_cell_angle_beta     107.281
_cell_angle_gamma    113.946

_symmetry_Int_Tables_number  122
_chemical_formula_structural  Zn2SiO4
_chemical_formula_sum  Zn4Si2O8
_cell_volume  163.57759196405672
_cell_formula_units_Z  2
loop_
  _symmetry_equiv_pos_site_id
 _symmetry_equiv_pos_as_xyz
 1  'x, y, z'
loop_
 _atom_site_type_symbol
 _atom_site_label
 _atom_site_symmetry_multiplicity
 _atom_site_fract_x
 _atom_site_fract_y
 _atom_site_fract_z
 _atom_site_fract_occupancy
 O  O1  1  0.09138  0.80076  0.67628  1
 O  O2  1  0.58490  0.90862  0.70938  1
 O  O3  1  0.65862  0.83490  0.20938  1
 O  O4  1  0.55076  0.34138  0.17628  1
 O  O5  1  0.16510  0.37448  0.82372  1
 O  O6  1  0.19924  0.87552  0.29062  1
 O  O7  1  0.12448  0.41510  0.32372  1
 O  O8  1  0.62552  0.44924  0.79062  1
 Si  Si1  1  0.50000  0.50000  0.00000  1
 Si  Si2  1  0.25000  0.75000  0.50000  1
 Zn  Zn1  1  0.37500  0.27897  0.40397  1
 Zn  Zn2  1  0.87500  0.97103  0.59603  1
 Zn  Zn3  1  0.72103  0.12500  0.09603  1
 Zn  Zn4  1  0.02897  0.62500  0.90397  1
