CIF file written using JARVIS-Tools package.
data_Tm
_symmetry_space_group_name_H-M  'P6_3/mmc'
_cell_length_a       3.521
_cell_length_b       3.521
_cell_length_c       5.47256
_cell_angle_alpha    90
_cell_angle_beta     90
_cell_angle_gamma    119.999

_symmetry_Int_Tables_number  194
_chemical_formula_structural  Tm
_chemical_formula_sum  Tm2
_cell_volume  58.757005004505366
_cell_formula_units_Z  2
loop_
  _symmetry_equiv_pos_site_id
 _symmetry_equiv_pos_as_xyz
 1  'x, y, z'
loop_
 _atom_site_type_symbol
 _atom_site_label
 _atom_site_symmetry_multiplicity
 _atom_site_fract_x
 _atom_site_fract_y
 _atom_site_fract_z
 _atom_site_fract_occupancy
 Tm  Tm1  1  0.66668  0.33332  0.75000  1
 Tm  Tm2  1  0.33332  0.66668  0.25000  1
