CIF file written using JARVIS-Tools package.
data_PuSi2Ni2
_symmetry_space_group_name_H-M  'I4/mmm'
_cell_length_a       3.90156
_cell_length_b       3.90155
_cell_length_c       5.55447
_cell_angle_alpha    110.561
_cell_angle_beta     110.561
_cell_angle_gamma    90

_symmetry_Int_Tables_number  139
_chemical_formula_structural  PuSi2Ni2
_chemical_formula_sum  PuSi2Ni2
_cell_volume  73.38415977153932
_cell_formula_units_Z  1
loop_
  _symmetry_equiv_pos_site_id
 _symmetry_equiv_pos_as_xyz
 1  'x, y, z'
loop_
 _atom_site_type_symbol
 _atom_site_label
 _atom_site_symmetry_multiplicity
 _atom_site_fract_x
 _atom_site_fract_y
 _atom_site_fract_z
 _atom_site_fract_occupancy
 Ni  Ni1  1  0.75000  0.25000  0.50000  1
 Ni  Ni2  1  0.25000  0.75000  0.50000  1
 Pu  Pu1  1  0.00000  0.00000  0.00000  1
 Si  Si1  1  0.62184  0.62184  0.24368  1
 Si  Si2  1  0.37816  0.37816  0.75632  1
