CIF file written using JARVIS-Tools package.
data_ZnCo4O8
_symmetry_space_group_name_H-M  'Cm'
_cell_length_a       2.82754
_cell_length_b       6.34652
_cell_length_c       7.08342
_cell_angle_alpha    97.4027
_cell_angle_beta     101.505
_cell_angle_gamma    102.862

_symmetry_Int_Tables_number  8
_chemical_formula_structural  ZnCo4O8
_chemical_formula_sum  ZnCo4O8
_cell_volume  119.41942755053488
_cell_formula_units_Z  1
loop_
  _symmetry_equiv_pos_site_id
 _symmetry_equiv_pos_as_xyz
 1  'x, y, z'
loop_
 _atom_site_type_symbol
 _atom_site_label
 _atom_site_symmetry_multiplicity
 _atom_site_fract_x
 _atom_site_fract_y
 _atom_site_fract_z
 _atom_site_fract_occupancy
 Co  Co1  1  0.19657  0.81817  0.57192  1
 Co  Co2  1  0.34704  0.48746  0.20381  1
 Co  Co3  1  0.68515  0.51348  0.85402  1
 Co  Co4  1  0.84514  0.19380  0.49339  1
 O  O1  1  0.48415  0.35704  0.60834  1
 O  O2  1  0.26105  0.70951  0.80987  1
 O  O3  1  0.77630  0.29928  0.25037  1
 O  O4  1  0.55291  0.64775  0.45497  1
 O  O5  1  0.84187  0.00410  0.67676  1
 O  O6  1  0.89125  0.66596  0.11397  1
 O  O7  1  0.19042  0.00424  0.37316  1
 O  O8  1  0.14927  0.35413  0.94153  1
 Zn  Zn1  1  0.52467  0.94541  0.10198  1
