CIF file written using JARVIS-Tools package.
data_FeBO3
_symmetry_space_group_name_H-M  'R-3c'
_cell_length_a       5.26517
_cell_length_b       5.26517
_cell_length_c       5.26517
_cell_angle_alpha    50.6457
_cell_angle_beta     50.6458
_cell_angle_gamma    50.6457

_symmetry_Int_Tables_number  167
_chemical_formula_structural  FeBO3
_chemical_formula_sum  Fe2B2O6
_cell_volume  80.43181650708289
_cell_formula_units_Z  2
loop_
  _symmetry_equiv_pos_site_id
 _symmetry_equiv_pos_as_xyz
 1  'x, y, z'
loop_
 _atom_site_type_symbol
 _atom_site_label
 _atom_site_symmetry_multiplicity
 _atom_site_fract_x
 _atom_site_fract_y
 _atom_site_fract_z
 _atom_site_fract_occupancy
 B  B1  1  0.75000  0.75000  0.75000  1
 B  B2  1  0.25000  0.25000  0.25000  1
 Fe  Fe1  1  0.50000  0.50000  0.50000  1
 Fe  Fe2  1  0.00000  0.00000  0.00000  1
 O  O1  1  0.75000  0.44280  0.05720  1
 O  O2  1  0.05720  0.75000  0.44280  1
 O  O3  1  0.55720  0.94280  0.25000  1
 O  O4  1  0.25000  0.55720  0.94280  1
 O  O5  1  0.94280  0.25000  0.55720  1
 O  O6  1  0.44280  0.05720  0.75000  1
