CIF file written using JARVIS-Tools package.
data_Ba2SiSe4
_symmetry_space_group_name_H-M  'P2_1/m'
_cell_length_a       6.94586
_cell_length_b       7.06894
_cell_length_c       9.23959
_cell_angle_alpha    90
_cell_angle_beta     109.222
_cell_angle_gamma    90

_symmetry_Int_Tables_number  11
_chemical_formula_structural  Ba2SiSe4
_chemical_formula_sum  Ba4Si2Se8
_cell_volume  428.3702612028214
_cell_formula_units_Z  2
loop_
  _symmetry_equiv_pos_site_id
 _symmetry_equiv_pos_as_xyz
 1  'x, y, z'
loop_
 _atom_site_type_symbol
 _atom_site_label
 _atom_site_symmetry_multiplicity
 _atom_site_fract_x
 _atom_site_fract_y
 _atom_site_fract_z
 _atom_site_fract_occupancy
 Ba  Ba1  1  0.70457  0.75000  0.91863  1
 Ba  Ba2  1  0.29543  0.25000  0.08137  1
 Ba  Ba3  1  0.79007  0.75000  0.45762  1
 Ba  Ba4  1  0.20993  0.25000  0.54238  1
 Se  Se1  1  0.98838  0.00576  0.22331  1
 Se  Se2  1  0.01162  0.50576  0.77669  1
 Se  Se3  1  0.64355  0.25000  0.45195  1
 Se  Se4  1  0.35645  0.75000  0.54805  1
 Se  Se5  1  0.58966  0.25000  0.86113  1
 Se  Se6  1  0.41034  0.75000  0.13887  1
 Se  Se7  1  0.98838  0.49424  0.22331  1
 Se  Se8  1  0.01162  0.99424  0.77669  1
 Si  Si1  1  0.19970  0.75000  0.28528  1
 Si  Si2  1  0.80030  0.25000  0.71472  1
