CIF file written using JARVIS-Tools package.
data_LiGaIr2
_symmetry_space_group_name_H-M  'I4/mmm'
_cell_length_a       10.7008
_cell_length_b       5.9136
_cell_length_c       5.9136
_cell_angle_alpha    35.0592
_cell_angle_beta     25.209
_cell_angle_gamma    25.209

_symmetry_Int_Tables_number  139
_chemical_formula_structural  LiGaIr2
_chemical_formula_sum  LiGaIr2
_cell_volume  67.88570209610126
_cell_formula_units_Z  1
loop_
  _symmetry_equiv_pos_site_id
 _symmetry_equiv_pos_as_xyz
 1  'x, y, z'
loop_
 _atom_site_type_symbol
 _atom_site_label
 _atom_site_symmetry_multiplicity
 _atom_site_fract_x
 _atom_site_fract_y
 _atom_site_fract_z
 _atom_site_fract_occupancy
 Ga  Ga1  1  0.50000  -0.00000  0.00000  1
 Ir  Ir1  1  0.71911  -0.00000  0.00000  1
 Ir  Ir2  1  0.28089  0.00000  -0.00000  1
 Li  Li1  1  0.00000  0.00000  0.00000  1
