CIF file written using JARVIS-Tools package.
data_HoH3
_symmetry_space_group_name_H-M  'P-3c1'
_cell_length_a       6.29058
_cell_length_b       6.29058
_cell_length_c       6.56136
_cell_angle_alpha    90
_cell_angle_beta     90
_cell_angle_gamma    120

_symmetry_Int_Tables_number  165
_chemical_formula_structural  HoH3
_chemical_formula_sum  Ho6H8
_cell_volume  224.85627939932166
_cell_formula_units_Z  6
loop_
  _symmetry_equiv_pos_site_id
 _symmetry_equiv_pos_as_xyz
 1  'x, y, z'
loop_
 _atom_site_type_symbol
 _atom_site_label
 _atom_site_symmetry_multiplicity
 _atom_site_fract_x
 _atom_site_fract_y
 _atom_site_fract_z
 _atom_site_fract_occupancy
 H  H1  1  0.64629  0.67970  0.90980  1
 H  H2  1  0.35371  0.03341  0.59020  1
 H  H3  1  0.96659  0.32030  0.59020  1
 H  H4  1  0.67970  0.64629  0.59020  1
 H  H5  1  0.96659  0.64629  0.09020  1
 H  H6  1  0.35371  0.32030  0.09020  1
 H  H7  1  0.00000  0.00000  0.75000  1
 H  H8  1  0.64629  0.96659  0.40980  1
 H  H9  1  0.67970  0.03341  0.09020  1
 H  H10  1  0.32030  0.35371  0.40980  1
 H  H11  1  0.03341  0.35371  0.90980  1
 H  H12  1  0.00000  0.00000  0.25000  1
 H  H13  1  0.32030  0.96659  0.90980  1
 H  H14  1  0.33333  0.66667  0.68513  1
 H  H15  1  0.33333  0.66667  0.18513  1
 H  H16  1  0.66667  0.33333  0.31487  1
 H  H17  1  0.66667  0.33333  0.81487  1
 H  H18  1  0.03341  0.67970  0.40980  1
 Ho  Ho1  1  0.33780  0.00000  0.25000  1
 Ho  Ho2  1  0.66220  0.66220  0.25000  1
 Ho  Ho3  1  0.00000  0.33780  0.25000  1
 Ho  Ho4  1  0.33780  0.33780  0.75000  1
 Ho  Ho5  1  -0.00000  0.66220  0.75000  1
 Ho  Ho6  1  0.66220  -0.00000  0.75000  1
