CIF file written using JARVIS-Tools package.
data_Ti3N2O3
_symmetry_space_group_name_H-M  'Cmcm'
_cell_length_a       3.8394
_cell_length_b       5.2624
_cell_length_c       9.89301
_cell_angle_alpha    90
_cell_angle_beta     90
_cell_angle_gamma    111.395

_symmetry_Int_Tables_number  63
_chemical_formula_structural  Ti3N2O3
_chemical_formula_sum  Ti6N4O6
_cell_volume  186.10880213244178
_cell_formula_units_Z  2
loop_
  _symmetry_equiv_pos_site_id
 _symmetry_equiv_pos_as_xyz
 1  'x, y, z'
loop_
 _atom_site_type_symbol
 _atom_site_label
 _atom_site_symmetry_multiplicity
 _atom_site_fract_x
 _atom_site_fract_y
 _atom_site_fract_z
 _atom_site_fract_occupancy
 N  N1  1  0.30769  0.61539  0.42301  1
 N  N2  1  0.30769  0.61539  0.07699  1
 N  N3  1  0.69231  0.38461  0.57699  1
 N  N4  1  0.69231  0.38461  0.92301  1
 O  O1  1  0.24897  0.49794  0.75000  1
 O  O2  1  0.04480  0.08959  0.11843  1
 O  O3  1  0.04480  0.08959  0.38157  1
 O  O4  1  0.95520  0.91041  0.88157  1
 O  O5  1  0.75103  0.50206  0.25000  1
 O  O6  1  0.95520  0.91041  0.61843  1
 Ti  Ti1  1  0.19938  0.39876  0.25000  1
 Ti  Ti2  1  0.14340  0.28681  0.94683  1
 Ti  Ti3  1  0.14340  0.28681  0.55317  1
 Ti  Ti4  1  0.80062  0.60124  0.75000  1
 Ti  Ti5  1  0.85660  0.71319  0.05317  1
 Ti  Ti6  1  0.85660  0.71319  0.44683  1
