CIF file written using JARVIS-Tools package.
data_Pt2W
_symmetry_space_group_name_H-M  'Immm'
_cell_length_a       2.79474
_cell_length_b       3.97921
_cell_length_c       4.83776
_cell_angle_alpha    65.7157
_cell_angle_beta     73.2111
_cell_angle_gamma    90

_symmetry_Int_Tables_number  71
_chemical_formula_structural  Pt2W
_chemical_formula_sum  Pt2W
_cell_volume  46.51222626456235
_cell_formula_units_Z  1
loop_
  _symmetry_equiv_pos_site_id
 _symmetry_equiv_pos_as_xyz
 1  'x, y, z'
loop_
 _atom_site_type_symbol
 _atom_site_label
 _atom_site_symmetry_multiplicity
 _atom_site_fract_x
 _atom_site_fract_y
 _atom_site_fract_z
 _atom_site_fract_occupancy
 Pt  Pt1  1  0.33704  0.33704  0.32592  1
 Pt  Pt2  1  0.66296  0.66296  0.67408  1
 W  W1  1  0.00000  0.00000  0.00000  1
