CIF file written using JARVIS-Tools package.
data_SrCa2I6
_symmetry_space_group_name_H-M  'P-31m'
_cell_length_a       7.86388
_cell_length_b       7.86388
_cell_length_c       7.13732
_cell_angle_alpha    90
_cell_angle_beta     90
_cell_angle_gamma    120

_symmetry_Int_Tables_number  162
_chemical_formula_structural  SrCa2I6
_chemical_formula_sum  SrCa2I6
_cell_volume  382.2435138103988
_cell_formula_units_Z  1
loop_
  _symmetry_equiv_pos_site_id
 _symmetry_equiv_pos_as_xyz
 1  'x, y, z'
loop_
 _atom_site_type_symbol
 _atom_site_label
 _atom_site_symmetry_multiplicity
 _atom_site_fract_x
 _atom_site_fract_y
 _atom_site_fract_z
 _atom_site_fract_occupancy
 Ca  Ca1  1  0.66667  0.33333  0.50000  1
 Ca  Ca2  1  0.33333  0.66667  0.50000  1
 I  I1  1  0.65055  0.65055  0.74929  1
 I  I2  1  0.34945  0.34945  0.25071  1
 I  I3  1  0.34945  0.00000  0.74929  1
 I  I4  1  0.65055  -0.00000  0.25071  1
 I  I5  1  -0.00000  0.65055  0.25071  1
 I  I6  1  0.00000  0.34945  0.74929  1
 Sr  Sr1  1  0.00000  0.00000  0.00000  1
