CIF file written using JARVIS-Tools package.
data_Rb4CO4
_symmetry_space_group_name_H-M  'R3m'
_cell_length_a       5.60771
_cell_length_b       5.60864
_cell_length_c       5.60794
_cell_angle_alpha    89.8849
_cell_angle_beta     89.8899
_cell_angle_gamma    89.8883

_symmetry_Int_Tables_number  160
_chemical_formula_structural  Rb4CO4
_chemical_formula_sum  Rb4CO4
_cell_volume  176.37722246816315
_cell_formula_units_Z  1
loop_
  _symmetry_equiv_pos_site_id
 _symmetry_equiv_pos_as_xyz
 1  'x, y, z'
loop_
 _atom_site_type_symbol
 _atom_site_label
 _atom_site_symmetry_multiplicity
 _atom_site_fract_x
 _atom_site_fract_y
 _atom_site_fract_z
 _atom_site_fract_occupancy
 C  C1  1  0.08940  0.08941  0.08941  1
 O  O1  1  0.23886  0.94039  0.94038  1
 O  O2  1  0.23827  0.23826  0.23827  1
 O  O3  1  0.94035  0.23885  0.94035  1
 O  O4  1  0.94034  0.94039  0.23887  1
 Rb  Rb1  1  0.80652  0.37434  0.37434  1
 Rb  Rb2  1  0.37436  0.80657  0.37438  1
 Rb  Rb3  1  0.37440  0.37430  0.80653  1
 Rb  Rb4  1  0.80584  0.80583  0.80581  1
