CIF file written using JARVIS-Tools package.
data_ZnBi2O4
_symmetry_space_group_name_H-M  'Cmcm'
_cell_length_a       3.34259
_cell_length_b       5.93511
_cell_length_c       11.11
_cell_angle_alpha    90
_cell_angle_beta     90
_cell_angle_gamma    106.356

_symmetry_Int_Tables_number  63
_chemical_formula_structural  ZnBi2O4
_chemical_formula_sum  Zn2Bi4O8
_cell_volume  211.48893549780797
_cell_formula_units_Z  2
loop_
  _symmetry_equiv_pos_site_id
 _symmetry_equiv_pos_as_xyz
 1  'x, y, z'
loop_
 _atom_site_type_symbol
 _atom_site_label
 _atom_site_symmetry_multiplicity
 _atom_site_fract_x
 _atom_site_fract_y
 _atom_site_fract_z
 _atom_site_fract_occupancy
 Bi  Bi1  1  0.86707  0.73414  0.07627  1
 Bi  Bi2  1  0.13293  0.26586  0.92373  1
 Bi  Bi3  1  0.86707  0.73414  0.42373  1
 Bi  Bi4  1  0.13293  0.26586  0.57627  1
 O  O1  1  0.22215  0.44430  0.38535  1
 O  O2  1  0.77785  0.55570  0.61465  1
 O  O3  1  0.77785  0.55570  0.88535  1
 O  O4  1  0.22215  0.44430  0.11465  1
 O  O5  1  0.00542  0.01084  0.25000  1
 O  O6  1  0.99458  0.98916  0.75000  1
 O  O7  1  0.50000  0.00000  0.00000  1
 O  O8  1  0.50000  0.00000  0.50000  1
 Zn  Zn1  1  0.40075  0.80151  0.75000  1
 Zn  Zn2  1  0.59925  0.19849  0.25000  1
