CIF file written using JARVIS-Tools package.
data_SnS
_symmetry_space_group_name_H-M  'Aem2'
_cell_length_a       4.13739
_cell_length_b       4.13739
_cell_length_c       22.5549
_cell_angle_alpha    90
_cell_angle_beta     90
_cell_angle_gamma    90.6829

_symmetry_Int_Tables_number  39
_chemical_formula_structural  SnS
_chemical_formula_sum  Sn2S2
_cell_volume  386.0670121510561
_cell_formula_units_Z  2
loop_
  _symmetry_equiv_pos_site_id
 _symmetry_equiv_pos_as_xyz
 1  'x, y, z'
loop_
 _atom_site_type_symbol
 _atom_site_label
 _atom_site_symmetry_multiplicity
 _atom_site_fract_x
 _atom_site_fract_y
 _atom_site_fract_z
 _atom_site_fract_occupancy
 S  S1  1  0.21335  0.28665  0.45085  1
 S  S2  1  0.71335  0.78665  0.54915  1
 Sn  Sn1  1  0.75265  0.74735  0.43484  1
 Sn  Sn2  1  0.25265  0.24735  0.56516  1
