CIF file written using JARVIS-Tools package.
data_Nb10C7
_symmetry_space_group_name_H-M  'C2/m'
_cell_length_a       6.35619
_cell_length_b       15.8714
_cell_length_c       5.50858
_cell_angle_alpha    29.8091
_cell_angle_beta     54.8596
_cell_angle_gamma    60.038

_symmetry_Int_Tables_number  12
_chemical_formula_structural  Nb10C7
_chemical_formula_sum  Nb0C7
_cell_volume  225.90467993554236
_cell_formula_units_Z  1
loop_
  _symmetry_equiv_pos_site_id
 _symmetry_equiv_pos_as_xyz
 1  'x, y, z'
loop_
 _atom_site_type_symbol
 _atom_site_label
 _atom_site_symmetry_multiplicity
 _atom_site_fract_x
 _atom_site_fract_y
 _atom_site_fract_z
 _atom_site_fract_occupancy
 C  C1  1  0.25000  0.99946  0.50135  1
 C  C2  1  0.25000  0.39764  0.50591  1
 C  C3  1  0.75000  0.39864  0.50341  1
 C  C4  1  0.25000  0.80236  0.49409  1
 C  C5  1  0.75000  0.60000  0.50000  1
 C  C6  1  0.75000  0.80136  0.49659  1
 C  C7  1  0.25000  0.20054  0.49865  1
 Nb  Nb1  1  0.01738  0.99209  0.99590  1
 Nb  Nb2  1  0.01738  0.20791  0.95635  1
 Nb  Nb3  1  0.48262  0.99209  0.04365  1
 Nb  Nb4  1  0.99104  0.39538  0.01950  1
 Nb  Nb5  1  0.48262  0.20791  0.00410  1
 Nb  Nb6  1  0.98669  0.60000  0.02657  1
 Nb  Nb7  1  0.50896  0.39538  0.00359  1
 Nb  Nb8  1  0.99104  0.80462  0.99641  1
 Nb  Nb9  1  0.51331  0.60000  0.97343  1
 Nb  Nb10  1  0.50896  0.80462  0.98050  1
