CIF file written using JARVIS-Tools package.
data_V2ZnO6
_symmetry_space_group_name_H-M  'C2/m'
_cell_length_a       3.51948
_cell_length_b       4.9973
_cell_length_c       6.62365
_cell_angle_alpha    110.374
_cell_angle_beta     90.0048
_cell_angle_gamma    110.615

_symmetry_Int_Tables_number  12
_chemical_formula_structural  V2ZnO6
_chemical_formula_sum  V2ZnO6
_cell_volume  101.21140319183675
_cell_formula_units_Z  1
loop_
  _symmetry_equiv_pos_site_id
 _symmetry_equiv_pos_as_xyz
 1  'x, y, z'
loop_
 _atom_site_type_symbol
 _atom_site_label
 _atom_site_symmetry_multiplicity
 _atom_site_fract_x
 _atom_site_fract_y
 _atom_site_fract_z
 _atom_site_fract_occupancy
 O  O1  1  0.02972  0.05942  0.71966  1
 O  O2  1  0.97028  0.94058  0.28034  1
 O  O3  1  0.34261  0.68518  0.89005  1
 O  O4  1  0.65739  0.31482  0.10995  1
 O  O5  1  0.30904  0.61810  0.43641  1
 O  O6  1  0.69096  0.38190  0.56359  1
 V  V1  1  0.18919  0.37835  0.65279  1
 V  V2  1  0.81081  0.62165  0.34721  1
 Zn  Zn1  1  0.00000  0.00000  0.00000  1
