CIF file written using JARVIS-Tools package.
data_IrI3
_symmetry_space_group_name_H-M  'C2/m'
_cell_length_a       6.87901
_cell_length_b       6.88102
_cell_length_c       6.85201
_cell_angle_alpha    81.0725
_cell_angle_beta     71.9129
_cell_angle_gamma    60.0096

_symmetry_Int_Tables_number  12
_chemical_formula_structural  IrI3
_chemical_formula_sum  Ir2I6
_cell_volume  267.0308164923985
_cell_formula_units_Z  2
loop_
  _symmetry_equiv_pos_site_id
 _symmetry_equiv_pos_as_xyz
 1  'x, y, z'
loop_
 _atom_site_type_symbol
 _atom_site_label
 _atom_site_symmetry_multiplicity
 _atom_site_fract_x
 _atom_site_fract_y
 _atom_site_fract_z
 _atom_site_fract_occupancy
 I  I1  1  0.57101  0.35138  0.76903  1
 I  I2  1  0.42899  0.64862  0.23097  1
 I  I3  1  0.07761  0.35138  0.23097  1
 I  I4  1  0.92239  0.64862  0.76903  1
 I  I5  1  0.21989  -0.00000  0.76672  1
 I  I6  1  0.78011  0.00000  0.23328  1
 Ir  Ir1  1  0.16661  0.66679  0.00000  1
 Ir  Ir2  1  0.83339  0.33321  -0.00000  1
