CIF file written using JARVIS-Tools package.
data_Sr2ZnReO6
_symmetry_space_group_name_H-M  'I4/m'
_cell_length_a       5.59044
_cell_length_b       5.59052
_cell_length_c       5.67084
_cell_angle_alpha    119.532
_cell_angle_beta     119.533
_cell_angle_gamma    90.0007

_symmetry_Int_Tables_number  87
_chemical_formula_structural  Sr2ZnReO6
_chemical_formula_sum  Sr2ZnReO6
_cell_volume  127.07231426067997
_cell_formula_units_Z  1
loop_
  _symmetry_equiv_pos_site_id
 _symmetry_equiv_pos_as_xyz
 1  'x, y, z'
loop_
 _atom_site_type_symbol
 _atom_site_label
 _atom_site_symmetry_multiplicity
 _atom_site_fract_x
 _atom_site_fract_y
 _atom_site_fract_z
 _atom_site_fract_occupancy
 O  O1  1  0.25990  0.25992  0.51981  1
 O  O2  1  0.74010  0.74008  0.48018  1
 O  O3  1  0.30578  0.21365  -0.00001  1
 O  O4  1  0.69422  0.78635  0.00001  1
 O  O5  1  0.21367  0.69421  0.00000  1
 O  O6  1  0.78633  0.30579  -0.00000  1
 Re  Re1  1  0.50000  0.50000  0.00000  1
 Sr  Sr1  1  0.75001  0.25000  0.50001  1
 Sr  Sr2  1  0.24999  0.75000  0.49999  1
 Zn  Zn1  1  -0.00000  0.00000  0.00000  1
