CIF file written using JARVIS-Tools package.
data_CdI2
_symmetry_space_group_name_H-M  'P3m1'
_cell_length_a       4.28553
_cell_length_b       4.28553
_cell_length_c       41.2894
_cell_angle_alpha    90
_cell_angle_beta     90
_cell_angle_gamma    120

_symmetry_Int_Tables_number  156
_chemical_formula_structural  CdI2
_chemical_formula_sum  Cd6I2
_cell_volume  656.716598168519
_cell_formula_units_Z  6
loop_
  _symmetry_equiv_pos_site_id
 _symmetry_equiv_pos_as_xyz
 1  'x, y, z'
loop_
 _atom_site_type_symbol
 _atom_site_label
 _atom_site_symmetry_multiplicity
 _atom_site_fract_x
 _atom_site_fract_y
 _atom_site_fract_z
 _atom_site_fract_occupancy
 Cd  Cd1  1  0.00000  0.00000  0.54163  1
 Cd  Cd2  1  0.33333  0.66667  0.70832  1
 Cd  Cd3  1  0.00000  0.00000  0.87500  1
 Cd  Cd4  1  0.66667  0.33333  0.04168  1
 Cd  Cd5  1  0.66667  0.33333  0.37499  1
 Cd  Cd6  1  0.00000  0.00000  0.20835  1
 I  I1  1  0.33333  0.66667  0.08371  1
 I  I2  1  0.66667  0.33333  0.83299  1
 I  I3  1  0.00000  0.00000  0.75032  1
 I  I4  1  0.33333  0.66667  0.91701  1
 I  I5  1  0.00000  0.00000  0.33300  1
 I  I6  1  0.66667  0.33333  0.49963  1
 I  I7  1  0.66667  0.33333  0.66630  1
 I  I8  1  0.33333  0.66667  0.58364  1
 I  I9  1  0.33333  0.66667  0.41701  1
 I  I10  1  0.33333  0.66667  0.25038  1
 I  I11  1  0.00000  0.00000  -0.00031  1
 I  I12  1  0.66667  0.33333  0.16636  1
