CIF file written using JARVIS-Tools package.
data_MgFeSi2O6
_symmetry_space_group_name_H-M  'C2/c'
_cell_length_a       4.97189
_cell_length_b       6.52265
_cell_length_c       6.52264
_cell_angle_alpha    85.3921
_cell_angle_beta     82.3636
_cell_angle_gamma    82.3635

_symmetry_Int_Tables_number  15
_chemical_formula_structural  MgFeSi2O6
_chemical_formula_sum  Mg2Fe2Si4O2
_cell_volume  207.36952094276648
_cell_formula_units_Z  2
loop_
  _symmetry_equiv_pos_site_id
 _symmetry_equiv_pos_as_xyz
 1  'x, y, z'
loop_
 _atom_site_type_symbol
 _atom_site_label
 _atom_site_symmetry_multiplicity
 _atom_site_fract_x
 _atom_site_fract_y
 _atom_site_fract_z
 _atom_site_fract_occupancy
 Fe  Fe1  1  0.25000  0.08151  0.91849  1
 Fe  Fe2  1  0.75000  0.91849  0.08151  1
 Mg  Mg1  1  0.75000  0.27391  0.72609  1
 Mg  Mg2  1  0.25000  0.72609  0.27391  1
 O  O1  1  0.58656  0.29638  0.41512  1
 O  O2  1  0.34957  0.03020  0.22789  1
 O  O3  1  0.41344  0.70362  0.58488  1
 O  O4  1  0.08656  0.41513  0.29638  1
 O  O5  1  -0.08656  0.58487  0.70362  1
 O  O6  1  0.37059  0.38099  0.85372  1
 O  O7  1  0.87059  0.85372  0.38099  1
 O  O8  1  0.84957  0.22789  0.03020  1
 O  O9  1  0.12941  0.14628  0.61901  1
 O  O10  1  0.65043  0.96980  0.77211  1
 O  O11  1  0.62941  0.61901  0.14628  1
 O  O12  1  0.15043  0.77211  0.96980  1
 Si  Si1  1  0.71438  0.79115  0.60396  1
 Si  Si2  1  0.78562  0.39604  0.20885  1
 Si  Si3  1  0.21438  0.60396  0.79115  1
 Si  Si4  1  0.28562  0.20885  0.39604  1
