CIF file written using JARVIS-Tools package.
data_ZnTeMoO6
_symmetry_space_group_name_H-M  'P2_12_12'
_cell_length_a       5.07332
_cell_length_b       5.30266
_cell_length_c       8.9248
_cell_angle_alpha    90
_cell_angle_beta     90
_cell_angle_gamma    90

_symmetry_Int_Tables_number  18
_chemical_formula_structural  ZnTeMoO6
_chemical_formula_sum  Zn2Te2Mo2O2
_cell_volume  240.09572610920426
_cell_formula_units_Z  2
loop_
  _symmetry_equiv_pos_site_id
 _symmetry_equiv_pos_as_xyz
 1  'x, y, z'
loop_
 _atom_site_type_symbol
 _atom_site_label
 _atom_site_symmetry_multiplicity
 _atom_site_fract_x
 _atom_site_fract_y
 _atom_site_fract_z
 _atom_site_fract_occupancy
 Mo  Mo1  1  0.00000  0.50000  0.81151  1
 Mo  Mo2  1  0.50000  0.00000  0.18849  1
 O  O1  1  0.72245  0.17549  0.60715  1
 O  O2  1  0.22245  0.32451  0.39285  1
 O  O3  1  0.77755  0.67549  0.39285  1
 O  O4  1  0.15396  0.71354  0.92770  1
 O  O5  1  0.27755  0.82451  0.60715  1
 O  O6  1  0.73893  0.67761  0.70864  1
 O  O7  1  0.84604  0.28646  0.92770  1
 O  O8  1  0.34604  0.21354  0.07230  1
 O  O9  1  0.65396  0.78646  0.07230  1
 O  O10  1  0.23893  0.82239  0.29136  1
 O  O11  1  0.76107  0.17761  0.29136  1
 O  O12  1  0.26107  0.32239  0.70864  1
 Te  Te1  1  0.50000  0.00000  0.74855  1
 Te  Te2  1  0.00000  0.50000  0.25145  1
 Zn  Zn1  1  0.00000  0.00000  0.47716  1
 Zn  Zn2  1  0.50000  0.50000  0.52284  1
