CIF file written using JARVIS-Tools package.
data_Li2FeF4
_symmetry_space_group_name_H-M  'Cmcm'
_cell_length_a       2.81029
_cell_length_b       4.98302
_cell_length_c       9.80176
_cell_angle_alpha    90
_cell_angle_beta     90
_cell_angle_gamma    106.379

_symmetry_Int_Tables_number  63
_chemical_formula_structural  Li2FeF4
_chemical_formula_sum  Li4Fe2F8
_cell_volume  131.69059664844983
_cell_formula_units_Z  2
loop_
  _symmetry_equiv_pos_site_id
 _symmetry_equiv_pos_as_xyz
 1  'x, y, z'
loop_
 _atom_site_type_symbol
 _atom_site_label
 _atom_site_symmetry_multiplicity
 _atom_site_fract_x
 _atom_site_fract_y
 _atom_site_fract_z
 _atom_site_fract_occupancy
 F  F1  1  0.00000  0.00000  0.00000  1
 F  F2  1  0.00000  0.00000  0.50000  1
 F  F3  1  0.46402  0.92804  0.25000  1
 F  F4  1  0.27365  0.54729  0.61854  1
 F  F5  1  0.27365  0.54729  0.88146  1
 F  F6  1  0.53598  0.07196  0.75000  1
 F  F7  1  0.72635  0.45271  0.11854  1
 F  F8  1  0.72635  0.45271  0.38146  1
 Fe  Fe1  1  0.12429  0.24857  0.25000  1
 Fe  Fe2  1  0.87571  0.75143  0.75000  1
 Li  Li1  1  0.37626  0.75251  0.06314  1
 Li  Li2  1  0.37626  0.75251  0.43686  1
 Li  Li3  1  0.62374  0.24749  0.56314  1
 Li  Li4  1  0.62374  0.24749  0.93686  1
