CIF file written using JARVIS-Tools package.
data_H2O
_symmetry_space_group_name_H-M  'C222_1'
_cell_length_a       4.19357
_cell_length_b       4.19357
_cell_length_c       6.60964
_cell_angle_alpha    90
_cell_angle_beta     90
_cell_angle_gamma    117.151

_symmetry_Int_Tables_number  20
_chemical_formula_structural  H2O
_chemical_formula_sum  H8O4
_cell_volume  103.42872941377124
_cell_formula_units_Z  4
loop_
  _symmetry_equiv_pos_site_id
 _symmetry_equiv_pos_as_xyz
 1  'x, y, z'
loop_
 _atom_site_type_symbol
 _atom_site_label
 _atom_site_symmetry_multiplicity
 _atom_site_fract_x
 _atom_site_fract_y
 _atom_site_fract_z
 _atom_site_fract_occupancy
 H  H1  1  0.84025  0.15975  0.50000  1
 H  H2  1  0.15975  0.84025  0.00000  1
 H  H3  1  -0.02255  -0.02255  0.25000  1
 H  H4  1  0.02255  0.02255  0.75000  1
 H  H5  1  0.02017  0.56642  0.22933  1
 H  H6  1  0.43358  0.97983  0.77067  1
 H  H7  1  0.97983  0.43358  0.72933  1
 H  H8  1  0.56642  0.02017  0.27067  1
 O  O1  1  0.82384  0.14133  0.31616  1
 O  O2  1  0.85867  0.17616  0.68384  1
 O  O3  1  0.17616  0.85867  0.81616  1
 O  O4  1  0.14133  0.82384  0.18384  1
