CIF file written using JARVIS-Tools package.
data_TmSb2
_symmetry_space_group_name_H-M  'C222'
_cell_length_a       3.37215
_cell_length_b       3.53925
_cell_length_c       8.46341
_cell_angle_alpha    90
_cell_angle_beta     90
_cell_angle_gamma    118.45

_symmetry_Int_Tables_number  21
_chemical_formula_structural  TmSb2
_chemical_formula_sum  TmSb2
_cell_volume  88.81099961329856
_cell_formula_units_Z  1
loop_
  _symmetry_equiv_pos_site_id
 _symmetry_equiv_pos_as_xyz
 1  'x, y, z'
loop_
 _atom_site_type_symbol
 _atom_site_label
 _atom_site_symmetry_multiplicity
 _atom_site_fract_x
 _atom_site_fract_y
 _atom_site_fract_z
 _atom_site_fract_occupancy
 Sb  Sb1  1  0.00000  0.50000  0.70527  1
 Sb  Sb2  1  0.50000  0.50000  0.29473  1
 Tm  Tm1  1  0.00000  0.00000  0.00000  1
