CIF file written using JARVIS-Tools package.
data_Na5MoNO4
_symmetry_space_group_name_H-M  'Cmcm'
_cell_length_a       5.70669
_cell_length_b       5.7067
_cell_length_c       10.7149
_cell_angle_alpha    90
_cell_angle_beta     90
_cell_angle_gamma    118.887

_symmetry_Int_Tables_number  63
_chemical_formula_structural  Na5MoNO4
_chemical_formula_sum  Na0Mo2N2O8
_cell_volume  305.5280083526932
_cell_formula_units_Z  2
loop_
  _symmetry_equiv_pos_site_id
 _symmetry_equiv_pos_as_xyz
 1  'x, y, z'
loop_
 _atom_site_type_symbol
 _atom_site_label
 _atom_site_symmetry_multiplicity
 _atom_site_fract_x
 _atom_site_fract_y
 _atom_site_fract_z
 _atom_site_fract_occupancy
 Mo  Mo1  1  0.79203  0.79203  0.75000  1
 Mo  Mo2  1  0.20797  0.20797  0.25000  1
 N  N1  1  0.09356  0.09356  0.75000  1
 N  N2  1  0.90644  0.90644  0.25000  1
 Na  Na1  1  0.45496  0.83019  0.25000  1
 Na  Na2  1  0.83019  0.45496  0.25000  1
 Na  Na3  1  0.50000  0.50000  0.50000  1
 Na  Na4  1  0.80943  0.19057  0.50000  1
 Na  Na5  1  0.19057  0.80943  0.50000  1
 Na  Na6  1  0.50000  0.50000  0.00000  1
 Na  Na7  1  0.54504  0.16981  0.75000  1
 Na  Na8  1  0.16981  0.54504  0.75000  1
 Na  Na9  1  0.80943  0.19057  0.00000  1
 Na  Na10  1  0.19057  0.80943  0.00000  1
 O  O1  1  0.83442  0.55850  0.87280  1
 O  O2  1  0.55850  0.83442  0.62720  1
 O  O3  1  0.83442  0.55850  0.62720  1
 O  O4  1  0.44150  0.16558  0.37280  1
 O  O5  1  0.16558  0.44150  0.37280  1
 O  O6  1  0.16558  0.44150  0.12720  1
 O  O7  1  0.44150  0.16558  0.12720  1
 O  O8  1  0.55850  0.83442  0.87280  1
