CIF file written using JARVIS-Tools package.
data_BeI2
_symmetry_space_group_name_H-M  'Ibam'
_cell_length_a       5.96194
_cell_length_b       6.04699
_cell_length_c       7.07439
_cell_angle_alpha    115.302
_cell_angle_beta     114.921
_cell_angle_gamma    90

_symmetry_Int_Tables_number  72
_chemical_formula_structural  BeI2
_chemical_formula_sum  Be2I4
_cell_volume  204.001123726045
_cell_formula_units_Z  2
loop_
  _symmetry_equiv_pos_site_id
 _symmetry_equiv_pos_as_xyz
 1  'x, y, z'
loop_
 _atom_site_type_symbol
 _atom_site_label
 _atom_site_symmetry_multiplicity
 _atom_site_fract_x
 _atom_site_fract_y
 _atom_site_fract_z
 _atom_site_fract_occupancy
 Be  Be1  1  0.00000  0.75000  -0.00000  1
 Be  Be2  1  -0.00000  0.25000  -0.00000  1
 I  I1  1  0.89396  0.61864  0.23728  1
 I  I2  1  0.34332  0.11864  0.23728  1
 I  I3  1  0.65668  0.88136  0.76272  1
 I  I4  1  0.10604  0.38136  0.76272  1
