CIF file written using JARVIS-Tools package.
data_Li2InSb
_symmetry_space_group_name_H-M  'Immm'
_cell_length_a       11.1783
_cell_length_b       11.2812
_cell_length_c       11.2812
_cell_angle_alpha    59.6586
_cell_angle_beta     60.2829
_cell_angle_gamma    60.2829

_symmetry_Int_Tables_number  71
_chemical_formula_structural  Li2InSb
_chemical_formula_sum  Li2InSb
_cell_volume  1007.567298523216
_cell_formula_units_Z  1
loop_
  _symmetry_equiv_pos_site_id
 _symmetry_equiv_pos_as_xyz
 1  'x, y, z'
loop_
 _atom_site_type_symbol
 _atom_site_label
 _atom_site_symmetry_multiplicity
 _atom_site_fract_x
 _atom_site_fract_y
 _atom_site_fract_z
 _atom_site_fract_occupancy
 In  In1  1  0.00000  0.00000  0.00000  1
 Li  Li1  1  0.73604  0.00000  0.00000  1
 Li  Li2  1  0.26396  1.00000  1.00000  1
 Sb  Sb1  1  0.50000  0.00000  -0.00000  1
