CIF file written using JARVIS-Tools package.
data_CaCo4O8
_symmetry_space_group_name_H-M  'C2/m'
_cell_length_a       2.89111
_cell_length_b       6.33234
_cell_length_c       6.9605
_cell_angle_alpha    82.2669
_cell_angle_beta     78.0143
_cell_angle_gamma    76.804

_symmetry_Int_Tables_number  12
_chemical_formula_structural  CaCo4O8
_chemical_formula_sum  CaCo4O8
_cell_volume  120.85058503244966
_cell_formula_units_Z  1
loop_
  _symmetry_equiv_pos_site_id
 _symmetry_equiv_pos_as_xyz
 1  'x, y, z'
loop_
 _atom_site_type_symbol
 _atom_site_label
 _atom_site_symmetry_multiplicity
 _atom_site_fract_x
 _atom_site_fract_y
 _atom_site_fract_z
 _atom_site_fract_occupancy
 Ca  Ca1  1  0.48437  -0.00180  0.03318  1
 Co  Co1  1  0.62247  0.18962  0.56558  1
 Co  Co2  1  0.15037  0.48760  0.21180  1
 Co  Co3  1  0.81848  0.50873  0.85444  1
 Co  Co4  1  0.34639  0.80669  0.50067  1
 O  O1  1  0.86072  0.66094  0.61776  1
 O  O2  1  0.43836  0.33210  0.79132  1
 O  O3  1  0.53050  0.66422  0.27492  1
 O  O4  1  0.10813  0.33538  0.44849  1
 O  O5  1  0.14515  0.01791  0.69193  1
 O  O6  1  0.78666  0.32716  0.09964  1
 O  O7  1  0.82371  0.97841  0.37430  1
 O  O8  1  0.18219  0.66915  0.96661  1
