CIF file written using JARVIS-Tools package.
data_SiO2
_symmetry_space_group_name_H-M  'C2'
_cell_length_a       4.95485
_cell_length_b       7.14555
_cell_length_c       7.23519
_cell_angle_alpha    114.754
_cell_angle_beta     104.604
_cell_angle_gamma    102.634

_symmetry_Int_Tables_number  5
_chemical_formula_structural  SiO2
_chemical_formula_sum  Si4O8
_cell_volume  209.21929832027283
_cell_formula_units_Z  4
loop_
  _symmetry_equiv_pos_site_id
 _symmetry_equiv_pos_as_xyz
 1  'x, y, z'
loop_
 _atom_site_type_symbol
 _atom_site_label
 _atom_site_symmetry_multiplicity
 _atom_site_fract_x
 _atom_site_fract_y
 _atom_site_fract_z
 _atom_site_fract_occupancy
 O  O1  1  0.68919  0.40433  0.70760  1
 O  O2  1  0.62130  0.72175  0.61911  1
 O  O3  1  0.78968  0.40438  0.36751  1
 O  O4  1  0.17463  0.72177  0.77333  1
 O  O5  1  0.72236  0.02496  0.02257  1
 O  O6  1  0.37632  0.02483  0.67269  1
 O  O7  1  0.54900  0.02190  0.34658  1
 O  O8  1  0.12442  0.17340  0.42149  1
 Si  Si1  1  0.79573  0.15251  0.28430  1
 Si  Si2  1  0.43167  0.15245  0.53871  1
 Si  Si3  1  0.82175  0.56916  0.61994  1
 Si  Si4  1  0.47274  0.87150  0.77103  1
