CIF file written using JARVIS-Tools package.
data_SiO2
_symmetry_space_group_name_H-M  'Pcca'
_cell_length_a       4.19318
_cell_length_b       7.69754
_cell_length_c       8.3253
_cell_angle_alpha    90
_cell_angle_beta     90
_cell_angle_gamma    90

_symmetry_Int_Tables_number  54
_chemical_formula_structural  SiO2
_chemical_formula_sum  Si8O6
_cell_volume  268.71711631835103
_cell_formula_units_Z  8
loop_
  _symmetry_equiv_pos_site_id
 _symmetry_equiv_pos_as_xyz
 1  'x, y, z'
loop_
 _atom_site_type_symbol
 _atom_site_label
 _atom_site_symmetry_multiplicity
 _atom_site_fract_x
 _atom_site_fract_y
 _atom_site_fract_z
 _atom_site_fract_occupancy
 O  O1  1  0.00000  0.00000  0.00000  1
 O  O2  1  0.00000  0.25000  0.71485  1
 O  O3  1  0.00000  0.75000  0.28515  1
 O  O4  1  0.41310  0.00000  0.75000  1
 O  O5  1  0.00000  0.50000  0.00000  1
 O  O6  1  0.50000  0.25000  0.52831  1
 O  O7  1  0.41310  0.50000  0.25000  1
 O  O8  1  0.00000  0.25000  0.21485  1
 O  O9  1  0.50000  0.25000  0.02831  1
 O  O10  1  0.50000  0.75000  0.47169  1
 O  O11  1  0.50000  0.75000  0.97169  1
 O  O12  1  0.00000  0.00000  0.50000  1
 O  O13  1  0.00000  0.75000  0.78515  1
 O  O14  1  0.00000  0.50000  0.50000  1
 O  O15  1  0.58690  0.00000  0.25000  1
 O  O16  1  0.58690  0.50000  0.75000  1
 Si  Si1  1  0.76660  0.11986  0.11523  1
 Si  Si2  1  0.76660  0.88014  0.38477  1
 Si  Si3  1  0.23340  0.38014  0.11523  1
 Si  Si4  1  0.76660  0.61986  0.88477  1
 Si  Si5  1  0.23340  0.61986  0.38477  1
 Si  Si6  1  0.23340  0.11986  0.61523  1
 Si  Si7  1  0.76660  0.38014  0.61523  1
 Si  Si8  1  0.23340  0.88014  0.88477  1
