CIF file written using JARVIS-Tools package.
data_CoH2O2
_symmetry_space_group_name_H-M  'P1'
_cell_length_a       2.61831
_cell_length_b       3.82979
_cell_length_c       6.60456
_cell_angle_alpha    54.5226
_cell_angle_beta     100.541
_cell_angle_gamma    132.27

_symmetry_Int_Tables_number  1
_chemical_formula_structural  CoH2O2
_chemical_formula_sum  CoH2O2
_cell_volume  37.47007245105167
_cell_formula_units_Z  1
loop_
  _symmetry_equiv_pos_site_id
 _symmetry_equiv_pos_as_xyz
 1  'x, y, z'
loop_
 _atom_site_type_symbol
 _atom_site_label
 _atom_site_symmetry_multiplicity
 _atom_site_fract_x
 _atom_site_fract_y
 _atom_site_fract_z
 _atom_site_fract_occupancy
 Co  Co1  1  0.11604  0.07945  0.97604  1
 H  H1  1  0.61451  0.07799  0.63256  1
 H  H2  1  -0.03839  0.08428  0.32075  1
 O  O1  1  0.86086  0.94306  0.72410  1
 O  O2  1  0.38308  0.21577  0.22775  1
