CIF file written using JARVIS-Tools package.
data_YBi3O6
_symmetry_space_group_name_H-M  'R-3'
_cell_length_a       6.99334
_cell_length_b       6.99334
_cell_length_c       6.99334
_cell_angle_alpha    93.1469
_cell_angle_beta     93.1468
_cell_angle_gamma    93.1468

_symmetry_Int_Tables_number  148
_chemical_formula_structural  YBi3O6
_chemical_formula_sum  Y2Bi6O2
_cell_volume  340.4155347379405
_cell_formula_units_Z  2
loop_
  _symmetry_equiv_pos_site_id
 _symmetry_equiv_pos_as_xyz
 1  'x, y, z'
loop_
 _atom_site_type_symbol
 _atom_site_label
 _atom_site_symmetry_multiplicity
 _atom_site_fract_x
 _atom_site_fract_y
 _atom_site_fract_z
 _atom_site_fract_occupancy
 Bi  Bi1  1  0.06964  0.55510  0.25173  1
 Bi  Bi2  1  0.25173  0.06964  0.55510  1
 Bi  Bi3  1  0.44490  0.74827  0.93036  1
 Bi  Bi4  1  0.55510  0.25173  0.06964  1
 Bi  Bi5  1  0.74827  0.93036  0.44490  1
 Bi  Bi6  1  0.93036  0.44490  0.74827  1
 O  O1  1  0.69133  0.92679  0.06952  1
 O  O2  1  0.06952  0.69133  0.92679  1
 O  O3  1  0.92679  0.06952  0.69133  1
 O  O4  1  0.18889  0.40041  0.52743  1
 O  O5  1  0.30867  0.07321  0.93048  1
 O  O6  1  0.07321  0.93048  0.30867  1
 O  O7  1  0.93048  0.30867  0.07321  1
 O  O8  1  0.52743  0.18889  0.40041  1
 O  O9  1  0.59959  0.47257  0.81111  1
 O  O10  1  0.40041  0.52743  0.18889  1
 O  O11  1  0.81111  0.59959  0.47257  1
 O  O12  1  0.47257  0.81111  0.59959  1
 Y  Y1  1  0.50000  0.50000  0.50000  1
 Y  Y2  1  0.00000  0.00000  0.00000  1
