CIF file written using JARVIS-Tools package.
data_FeCl3
_symmetry_space_group_name_H-M  'C2/m'
_cell_length_a       3.37928
_cell_length_b       6.99956
_cell_length_c       8.37324
_cell_angle_alpha    78.2407
_cell_angle_beta     78.3884
_cell_angle_gamma    89.9739

_symmetry_Int_Tables_number  12
_chemical_formula_structural  FeCl3
_chemical_formula_sum  Fe2Cl6
_cell_volume  189.7614280054292
_cell_formula_units_Z  2
loop_
  _symmetry_equiv_pos_site_id
 _symmetry_equiv_pos_as_xyz
 1  'x, y, z'
loop_
 _atom_site_type_symbol
 _atom_site_label
 _atom_site_symmetry_multiplicity
 _atom_site_fract_x
 _atom_site_fract_y
 _atom_site_fract_z
 _atom_site_fract_occupancy
 Cl  Cl1  1  0.24911  0.25023  0.87234  1
 Cl  Cl2  1  0.91181  0.56746  0.54579  1
 Cl  Cl3  1  0.24534  0.75281  0.87815  1
 Cl  Cl4  1  -0.08275  0.10817  0.53547  1
 Cl  Cl5  1  0.58264  0.43562  0.20468  1
 Cl  Cl6  1  0.57716  0.89492  0.21496  1
 Fe  Fe1  1  0.11192  0.68581  0.14573  1
 Fe  Fe2  1  0.38253  0.31726  0.60476  1
