CIF file written using JARVIS-Tools package.
data_InAgS2
_symmetry_space_group_name_H-M  'C2/m'
_cell_length_a       19.8365
_cell_length_b       7.69606
_cell_length_c       10.1008
_cell_angle_alpha    160.65
_cell_angle_beta     169.089
_cell_angle_gamma    16.0789

_symmetry_Int_Tables_number  12
_chemical_formula_structural  InAgS2
_chemical_formula_sum  InAgS2
_cell_volume  80.83690115919838
_cell_formula_units_Z  1
loop_
  _symmetry_equiv_pos_site_id
 _symmetry_equiv_pos_as_xyz
 1  'x, y, z'
loop_
 _atom_site_type_symbol
 _atom_site_label
 _atom_site_symmetry_multiplicity
 _atom_site_fract_x
 _atom_site_fract_y
 _atom_site_fract_z
 _atom_site_fract_occupancy
 Ag  Ag1  1  -0.00000  0.50000  -0.00000  1
 In  In1  1  0.00000  0.00000  0.00000  1
 S  S1  1  0.48260  -0.20260  0.00000  1
 S  S2  1  0.51740  0.20260  -0.00000  1
