CIF file written using JARVIS-Tools package.
data_SiO2
_symmetry_space_group_name_H-M  'P3_221'
_cell_length_a       4.93735
_cell_length_b       4.93735
_cell_length_c       5.44919
_cell_angle_alpha    90
_cell_angle_beta     90
_cell_angle_gamma    120

_symmetry_Int_Tables_number  154
_chemical_formula_structural  SiO2
_chemical_formula_sum  Si3O6
_cell_volume  115.04021042676435
_cell_formula_units_Z  3
loop_
  _symmetry_equiv_pos_site_id
 _symmetry_equiv_pos_as_xyz
 1  'x, y, z'
loop_
 _atom_site_type_symbol
 _atom_site_label
 _atom_site_symmetry_multiplicity
 _atom_site_fract_x
 _atom_site_fract_y
 _atom_site_fract_z
 _atom_site_fract_occupancy
 O  O1  1  0.13743  0.72552  0.55281  1
 O  O2  1  0.58809  0.86257  0.88614  1
 O  O3  1  0.27448  0.41191  0.21947  1
 O  O4  1  0.41191  0.27448  0.78053  1
 O  O5  1  0.86257  0.58809  0.11386  1
 O  O6  1  0.72552  0.13743  0.44719  1
 Si  Si1  1  0.00000  0.46552  0.33333  1
 Si  Si2  1  0.53448  0.53448  0.00000  1
 Si  Si3  1  0.46552  0.00000  0.66667  1
