CIF file written using JARVIS-Tools package.
data_MgNi2O4
_symmetry_space_group_name_H-M  'I4_1/a'
_cell_length_a       5.83193
_cell_length_b       5.8316
_cell_length_c       5.83218
_cell_angle_alpha    91.2702
_cell_angle_beta     119.272
_cell_angle_gamma    119.267

_symmetry_Int_Tables_number  88
_chemical_formula_structural  MgNi2O4
_chemical_formula_sum  Mg2Ni4O8
_cell_volume  141.7648511367474
_cell_formula_units_Z  2
loop_
  _symmetry_equiv_pos_site_id
 _symmetry_equiv_pos_as_xyz
 1  'x, y, z'
loop_
 _atom_site_type_symbol
 _atom_site_label
 _atom_site_symmetry_multiplicity
 _atom_site_fract_x
 _atom_site_fract_y
 _atom_site_fract_z
 _atom_site_fract_occupancy
 Mg  Mg1  1  0.24999  0.87499  0.12498  1
 Mg  Mg2  1  0.75001  0.12501  0.87502  1
 Ni  Ni1  1  0.00000  -0.00000  0.50000  1
 Ni  Ni2  1  0.50000  0.50000  0.50000  1
 Ni  Ni3  1  0.50000  0.50000  -0.00000  1
 Ni  Ni4  1  0.00000  0.50000  0.50000  1
 O  O1  1  0.04455  0.25874  0.75581  1
 O  O2  1  0.00293  0.24426  0.28877  1
 O  O3  1  0.49701  0.28580  0.74128  1
 O  O4  1  0.54451  0.28875  0.28583  1
 O  O5  1  0.50299  0.71420  0.25872  1
 O  O6  1  -0.00293  0.75574  0.71123  1
 O  O7  1  0.45549  0.71125  0.71417  1
 O  O8  1  0.95545  0.74126  0.24419  1
