CIF file written using JARVIS-Tools package.
data_WO3
_symmetry_space_group_name_H-M  'P6/mmm'
_cell_length_a       7.45612
_cell_length_b       7.45612
_cell_length_c       3.83343
_cell_angle_alpha    90
_cell_angle_beta     90
_cell_angle_gamma    120

_symmetry_Int_Tables_number  191
_chemical_formula_structural  WO3
_chemical_formula_sum  W3O9
_cell_volume  184.5624653216059
_cell_formula_units_Z  3
loop_
  _symmetry_equiv_pos_site_id
 _symmetry_equiv_pos_as_xyz
 1  'x, y, z'
loop_
 _atom_site_type_symbol
 _atom_site_label
 _atom_site_symmetry_multiplicity
 _atom_site_fract_x
 _atom_site_fract_y
 _atom_site_fract_z
 _atom_site_fract_occupancy
 O  O1  1  0.57150  0.78575  0.00000  1
 O  O2  1  0.21425  0.78575  0.00000  1
 O  O3  1  0.42850  0.21425  0.00000  1
 O  O4  1  0.78575  0.57150  0.00000  1
 O  O5  1  0.50000  0.50000  0.50000  1
 O  O6  1  -0.00000  0.50000  0.50000  1
 O  O7  1  0.50000  0.00000  0.50000  1
 O  O8  1  0.21425  0.42850  0.00000  1
 O  O9  1  0.78575  0.21425  0.00000  1
 W  W1  1  0.50000  0.00000  0.00000  1
 W  W2  1  0.50000  0.50000  0.00000  1
 W  W3  1  -0.00000  0.50000  0.00000  1
