CIF file written using JARVIS-Tools package.
data_Rh3Se8
_symmetry_space_group_name_H-M  'P2_1/c'
_cell_length_a       6.03846
_cell_length_b       6.04275
_cell_length_c       13.4744
_cell_angle_alpha    90
_cell_angle_beta     115.992
_cell_angle_gamma    90

_symmetry_Int_Tables_number  14
_chemical_formula_structural  Rh3Se8
_chemical_formula_sum  Rh6Se6
_cell_volume  441.9392921120312
_cell_formula_units_Z  2
loop_
  _symmetry_equiv_pos_site_id
 _symmetry_equiv_pos_as_xyz
 1  'x, y, z'
loop_
 _atom_site_type_symbol
 _atom_site_label
 _atom_site_symmetry_multiplicity
 _atom_site_fract_x
 _atom_site_fract_y
 _atom_site_fract_z
 _atom_site_fract_occupancy
 Rh  Rh1  1  0.25754  0.98538  0.25101  1
 Rh  Rh2  1  0.74246  0.01462  0.74899  1
 Rh  Rh3  1  0.50000  0.00000  -0.00000  1
 Rh  Rh4  1  0.74246  0.48538  0.24899  1
 Rh  Rh5  1  0.25754  0.51462  0.75101  1
 Rh  Rh6  1  0.50000  0.50000  0.50000  1
 Se  Se1  1  0.19142  0.12494  0.80865  1
 Se  Se2  1  0.69162  0.10793  0.31235  1
 Se  Se3  1  0.17504  0.11324  0.06011  1
 Se  Se4  1  0.67614  0.11981  0.55640  1
 Se  Se5  1  0.30838  0.89207  0.68765  1
 Se  Se6  1  0.69162  0.39207  0.81235  1
 Se  Se7  1  0.67614  0.38019  0.05640  1
 Se  Se8  1  0.32386  0.61981  0.94360  1
 Se  Se9  1  0.30838  0.60793  0.18765  1
 Se  Se10  1  0.17504  0.38676  0.56011  1
 Se  Se11  1  0.82496  0.61324  0.43989  1
 Se  Se12  1  0.80858  0.62494  0.69135  1
 Se  Se13  1  0.82496  0.88676  0.93989  1
 Se  Se14  1  0.80858  0.87506  0.19135  1
 Se  Se15  1  0.19142  0.37506  0.30865  1
 Se  Se16  1  0.32386  0.88019  0.44360  1
