CIF file written using JARVIS-Tools package.
data_Tb4Bi3
_symmetry_space_group_name_H-M  'I-43d'
_cell_length_a       8.13962
_cell_length_b       8.13963
_cell_length_c       8.13963
_cell_angle_alpha    109.471
_cell_angle_beta     109.471
_cell_angle_gamma    109.471

_symmetry_Int_Tables_number  220
_chemical_formula_structural  Tb4Bi3
_chemical_formula_sum  Tb8Bi6
_cell_volume  415.13700437183695
_cell_formula_units_Z  2
loop_
  _symmetry_equiv_pos_site_id
 _symmetry_equiv_pos_as_xyz
 1  'x, y, z'
loop_
 _atom_site_type_symbol
 _atom_site_label
 _atom_site_symmetry_multiplicity
 _atom_site_fract_x
 _atom_site_fract_y
 _atom_site_fract_z
 _atom_site_fract_occupancy
 Bi  Bi1  1  0.87500  0.12500  0.75000  1
 Bi  Bi2  1  0.75000  0.87500  0.12500  1
 Bi  Bi3  1  0.25000  0.62500  0.37500  1
 Bi  Bi4  1  0.62500  0.37500  0.25000  1
 Bi  Bi5  1  0.12500  0.75000  0.87500  1
 Bi  Bi6  1  0.37500  0.25000  0.62500  1
 Tb  Tb1  1  0.35344  0.50000  -0.00000  1
 Tb  Tb2  1  0.85344  0.50000  -0.00000  1
 Tb  Tb3  1  0.64656  0.64656  0.64656  1
 Tb  Tb4  1  0.50000  0.00000  0.35344  1
 Tb  Tb5  1  0.14656  0.14656  0.14656  1
 Tb  Tb6  1  0.00000  0.85344  0.50000  1
 Tb  Tb7  1  0.50000  0.00000  0.85344  1
 Tb  Tb8  1  0.00000  0.35344  0.50000  1
