CIF file written using JARVIS-Tools package.
data_CaMn2O4
_symmetry_space_group_name_H-M  'C2/m'
_cell_length_a       2.89704
_cell_length_b       6.7816
_cell_length_c       8.67777
_cell_angle_alpha    83.0852
_cell_angle_beta     80.3911
_cell_angle_gamma    77.6671

_symmetry_Int_Tables_number  12
_chemical_formula_structural  CaMn2O4
_chemical_formula_sum  Ca2Mn4O8
_cell_volume  163.58053758877725
_cell_formula_units_Z  2
loop_
  _symmetry_equiv_pos_site_id
 _symmetry_equiv_pos_as_xyz
 1  'x, y, z'
loop_
 _atom_site_type_symbol
 _atom_site_label
 _atom_site_symmetry_multiplicity
 _atom_site_fract_x
 _atom_site_fract_y
 _atom_site_fract_z
 _atom_site_fract_occupancy
 Ca  Ca1  1  0.62686  0.90391  0.84225  1
 Ca  Ca2  1  0.37775  0.06373  0.18073  1
 Mn  Mn1  1  0.37645  0.36807  0.87886  1
 Mn  Mn2  1  0.86277  0.77515  0.49922  1
 Mn  Mn3  1  0.14175  0.19275  0.52370  1
 Mn  Mn4  1  0.62807  0.59960  0.14409  1
 O  O1  1  0.21399  0.41322  0.15864  1
 O  O2  1  0.54028  0.26795  0.65145  1
 O  O3  1  0.46422  0.70005  0.37142  1
 O  O4  1  0.79048  0.55445  0.86444  1
 O  O5  1  0.94807  0.16596  0.93777  1
 O  O6  1  0.24990  0.86589  0.63424  1
 O  O7  1  0.05651  0.80171  0.08514  1
 O  O8  1  0.75465  0.10192  0.38871  1
