CIF file written using JARVIS-Tools package.
data_PbCN2
_symmetry_space_group_name_H-M  'Pnma'
_cell_length_a       3.83856
_cell_length_b       5.58722
_cell_length_c       11.9273
_cell_angle_alpha    90
_cell_angle_beta     90
_cell_angle_gamma    90

_symmetry_Int_Tables_number  62
_chemical_formula_structural  PbCN2
_chemical_formula_sum  Pb4C4N8
_cell_volume  255.80297272610278
_cell_formula_units_Z  4
loop_
  _symmetry_equiv_pos_site_id
 _symmetry_equiv_pos_as_xyz
 1  'x, y, z'
loop_
 _atom_site_type_symbol
 _atom_site_label
 _atom_site_symmetry_multiplicity
 _atom_site_fract_x
 _atom_site_fract_y
 _atom_site_fract_z
 _atom_site_fract_occupancy
 C  C1  1  0.97122  0.38327  0.89743  1
 C  C2  1  0.47122  0.61673  0.10257  1
 C  C3  1  0.97122  0.88327  0.60257  1
 C  C4  1  0.47122  0.11673  0.39743  1
 N  N1  1  0.47121  0.82128  0.06079  1
 N  N2  1  0.97121  0.67872  0.56079  1
 N  N3  1  0.47123  0.92169  0.35071  1
 N  N4  1  0.97123  0.57831  0.85071  1
 N  N5  1  0.47123  0.42169  0.14929  1
 N  N6  1  0.47121  0.32128  0.43921  1
 N  N7  1  0.97121  0.17872  0.93921  1
 N  N8  1  0.97123  0.07831  0.64929  1
 Pb  Pb1  1  0.47133  0.39086  0.63673  1
 Pb  Pb2  1  0.97133  0.10914  0.13673  1
 Pb  Pb3  1  0.97133  0.60914  0.36327  1
 Pb  Pb4  1  0.47133  0.89086  0.86327  1
