CIF file written using JARVIS-Tools package.
data_Ba2SiTe4
_symmetry_space_group_name_H-M  'P2_1/m'
_cell_length_a       7.58662
_cell_length_b       7.62929
_cell_length_c       9.63512
_cell_angle_alpha    90
_cell_angle_beta     108.674
_cell_angle_gamma    90

_symmetry_Int_Tables_number  11
_chemical_formula_structural  Ba2SiTe4
_chemical_formula_sum  Ba4Si2Te8
_cell_volume  528.3252111619752
_cell_formula_units_Z  2
loop_
  _symmetry_equiv_pos_site_id
 _symmetry_equiv_pos_as_xyz
 1  'x, y, z'
loop_
 _atom_site_type_symbol
 _atom_site_label
 _atom_site_symmetry_multiplicity
 _atom_site_fract_x
 _atom_site_fract_y
 _atom_site_fract_z
 _atom_site_fract_occupancy
 Ba  Ba1  1  0.72488  0.75000  0.92670  1
 Ba  Ba2  1  0.27512  0.25000  0.07330  1
 Ba  Ba3  1  0.77732  0.75000  0.44789  1
 Ba  Ba4  1  0.22268  0.25000  0.55211  1
 Si  Si1  1  0.21016  0.75000  0.29390  1
 Si  Si2  1  0.78984  0.25000  0.70610  1
 Te  Te1  1  0.99091  0.00843  0.23195  1
 Te  Te2  1  0.00909  0.50843  0.76805  1
 Te  Te3  1  0.62231  0.25000  0.43126  1
 Te  Te4  1  0.37769  0.75000  0.56874  1
 Te  Te5  1  0.59521  0.25000  0.87785  1
 Te  Te6  1  0.40479  0.75000  0.12215  1
 Te  Te7  1  0.99091  0.49157  0.23195  1
 Te  Te8  1  0.00909  0.99157  0.76805  1
