CIF file written using JARVIS-Tools package.
data_LiAgF3
_symmetry_space_group_name_H-M  'P-1'
_cell_length_a       5.392
_cell_length_b       5.36147
_cell_length_c       5.54262
_cell_angle_alpha    73.6089
_cell_angle_beta     115.546
_cell_angle_gamma    118.019

_symmetry_Int_Tables_number  2
_chemical_formula_structural  LiAgF3
_chemical_formula_sum  Li2Ag2F6
_cell_volume  126.98426916527583
_cell_formula_units_Z  2
loop_
  _symmetry_equiv_pos_site_id
 _symmetry_equiv_pos_as_xyz
 1  'x, y, z'
loop_
 _atom_site_type_symbol
 _atom_site_label
 _atom_site_symmetry_multiplicity
 _atom_site_fract_x
 _atom_site_fract_y
 _atom_site_fract_z
 _atom_site_fract_occupancy
 Ag  Ag1  1  0.13210  0.82917  0.46731  1
 Ag  Ag2  1  0.86790  0.17083  0.53269  1
 F  F1  1  0.03976  0.30085  0.21841  1
 F  F2  1  0.56345  0.06516  0.73395  1
 F  F3  1  0.28385  0.40165  0.79604  1
 F  F4  1  0.71614  0.59834  0.20396  1
 F  F5  1  0.43655  -0.06516  0.26605  1
 F  F6  1  0.96026  0.69915  0.78161  1
 Li  Li1  1  0.32432  0.60843  0.06989  1
 Li  Li2  1  0.67567  0.39158  0.93010  1
