CIF file written using JARVIS-Tools package.
data_K2ReH9
_symmetry_space_group_name_H-M  'P-62m'
_cell_length_a       9.47881
_cell_length_b       9.47881
_cell_length_c       5.49525
_cell_angle_alpha    90
_cell_angle_beta     90
_cell_angle_gamma    120

_symmetry_Int_Tables_number  189
_chemical_formula_structural  K2ReH9
_chemical_formula_sum  K6Re3H27
_cell_volume  427.58857591666066
_cell_formula_units_Z  3
loop_
  _symmetry_equiv_pos_site_id
 _symmetry_equiv_pos_as_xyz
 1  'x, y, z'
loop_
 _atom_site_type_symbol
 _atom_site_label
 _atom_site_symmetry_multiplicity
 _atom_site_fract_x
 _atom_site_fract_y
 _atom_site_fract_z
 _atom_site_fract_occupancy
 H  H1  1  0.63534  0.14129  0.50000  1
 H  H2  1  0.85871  0.49405  0.50000  1
 H  H3  1  0.87075  -0.00000  0.78147  1
 H  H4  1  0.36466  0.50595  0.50000  1
 H  H5  1  0.49405  0.85871  0.50000  1
 H  H6  1  0.14129  0.63534  0.50000  1
 H  H7  1  0.68952  0.46948  0.72546  1
 H  H8  1  0.68952  0.46948  0.27454  1
 H  H9  1  0.12925  0.12925  0.21853  1
 H  H10  1  -0.00000  0.87075  0.78147  1
 H  H11  1  0.12925  0.12925  0.78147  1
 H  H12  1  0.87075  -0.00000  0.21853  1
 H  H13  1  0.00000  0.17890  0.00000  1
 H  H14  1  0.82110  0.82110  0.00000  1
 H  H15  1  0.17890  0.00000  0.00000  1
 H  H16  1  -0.00000  0.87075  0.21853  1
 H  H17  1  0.53052  0.22004  0.72546  1
 H  H18  1  0.77996  0.31048  0.72546  1
 H  H19  1  0.53052  0.22004  0.27454  1
 H  H20  1  0.77996  0.31048  0.27454  1
 H  H21  1  0.22004  0.53052  0.27454  1
 H  H22  1  0.31048  0.77996  0.72546  1
 H  H23  1  0.46948  0.68952  0.72546  1
 H  H24  1  0.46948  0.68952  0.27454  1
 H  H25  1  0.31048  0.77996  0.27454  1
 H  H26  1  0.22004  0.53052  0.72546  1
 H  H27  1  0.50595  0.36466  0.50000  1
 K  K1  1  0.40786  0.40786  0.00000  1
 K  K2  1  0.00000  0.59214  0.00000  1
 K  K3  1  0.26272  0.00000  0.50000  1
 K  K4  1  0.59214  0.00000  0.00000  1
 K  K5  1  0.00000  0.26272  0.50000  1
 K  K6  1  0.73728  0.73728  0.50000  1
 Re  Re1  1  0.00000  0.00000  0.00000  1
 Re  Re2  1  0.33333  0.66667  0.50000  1
 Re  Re3  1  0.66667  0.33333  0.50000  1
