CIF file written using JARVIS-Tools package.
data_MoO2
_symmetry_space_group_name_H-M  'R3m'
_cell_length_a       6.0868
_cell_length_b       6.08751
_cell_length_c       6.08762
_cell_angle_alpha    57.075
_cell_angle_beta     57.0832
_cell_angle_gamma    57.0808

_symmetry_Int_Tables_number  160
_chemical_formula_structural  MoO2
_chemical_formula_sum  Mo4O8
_cell_volume  148.76447477417972
_cell_formula_units_Z  4
loop_
  _symmetry_equiv_pos_site_id
 _symmetry_equiv_pos_as_xyz
 1  'x, y, z'
loop_
 _atom_site_type_symbol
 _atom_site_label
 _atom_site_symmetry_multiplicity
 _atom_site_fract_x
 _atom_site_fract_y
 _atom_site_fract_z
 _atom_site_fract_occupancy
 Mo  Mo1  1  0.53509  0.47758  0.47755  1
 Mo  Mo2  1  -0.02253  0.03522  0.47753  1
 Mo  Mo3  1  -0.02254  0.47756  0.03521  1
 Mo  Mo4  1  0.01675  0.51642  0.51648  1
 O  O1  1  0.22249  0.72252  0.72252  1
 O  O2  1  0.76734  0.75037  0.75036  1
 O  O3  1  0.73813  0.23830  0.23827  1
 O  O4  1  0.77653  0.71121  0.27651  1
 O  O5  1  0.21125  0.27650  0.27652  1
 O  O6  1  0.77654  0.27651  0.71119  1
 O  O7  1  0.25048  0.26718  0.75065  1
 O  O8  1  0.25045  0.75063  0.26719  1
