CIF file written using JARVIS-Tools package.
data_Fe3Sn2S8
_symmetry_space_group_name_H-M  'Imm2'
_cell_length_a       7.1339
_cell_length_b       7.1339
_cell_length_c       7.1339
_cell_angle_alpha    62.1167
_cell_angle_beta     89.8987
_cell_angle_gamma    122.043

_symmetry_Int_Tables_number  44
_chemical_formula_structural  Fe3Sn2S8
_chemical_formula_sum  Fe3Sn2S8
_cell_volume  256.4440875424985
_cell_formula_units_Z  1
loop_
  _symmetry_equiv_pos_site_id
 _symmetry_equiv_pos_as_xyz
 1  'x, y, z'
loop_
 _atom_site_type_symbol
 _atom_site_label
 _atom_site_symmetry_multiplicity
 _atom_site_fract_x
 _atom_site_fract_y
 _atom_site_fract_z
 _atom_site_fract_occupancy
 Fe  Fe1  1  0.62405  0.25405  0.63000  1
 Fe  Fe2  1  0.25461  0.50000  0.24539  1
 Fe  Fe3  1  0.11596  0.74595  0.63000  1
 S  S1  1  0.86149  0.25692  0.39543  1
 S  S2  1  0.37123  0.22432  0.40445  1
 S  S3  1  0.87856  0.29374  0.82770  1
 S  S4  1  0.87856  0.70626  0.41518  1
 S  S5  1  0.37693  0.23096  0.85403  1
 S  S6  1  0.91500  0.76904  0.85403  1
 S  S7  1  0.34765  0.74308  0.39543  1
 S  S8  1  0.37123  0.77568  0.85309  1
 Sn  Sn1  1  0.62737  0.26220  0.11043  1
 Sn  Sn2  1  0.62737  0.73780  0.63483  1
