CIF file written using JARVIS-Tools package.
data_Dy2Be2GeO7
_symmetry_space_group_name_H-M  'P-42_1m'
_cell_length_a       7.43417
_cell_length_b       7.43417
_cell_length_c       4.81087
_cell_angle_alpha    90
_cell_angle_beta     90
_cell_angle_gamma    90

_symmetry_Int_Tables_number  113
_chemical_formula_structural  Dy2Be2GeO7
_chemical_formula_sum  Dy4Be4Ge2O4
_cell_volume  265.88225972304144
_cell_formula_units_Z  2
loop_
  _symmetry_equiv_pos_site_id
 _symmetry_equiv_pos_as_xyz
 1  'x, y, z'
loop_
 _atom_site_type_symbol
 _atom_site_label
 _atom_site_symmetry_multiplicity
 _atom_site_fract_x
 _atom_site_fract_y
 _atom_site_fract_z
 _atom_site_fract_occupancy
 Be  Be1  1  0.36454  0.86454  0.04842  1
 Be  Be2  1  0.86454  0.63546  0.95158  1
 Be  Be3  1  0.63546  0.13546  0.04842  1
 Be  Be4  1  0.13546  0.36454  0.95158  1
 Dy  Dy1  1  0.65800  0.84200  0.50502  1
 Dy  Dy2  1  0.15800  0.65800  0.49498  1
 Dy  Dy3  1  0.84200  0.34200  0.49498  1
 Dy  Dy4  1  0.34200  0.15800  0.50502  1
 Ge  Ge1  1  0.50000  0.50000  0.00000  1
 Ge  Ge2  1  0.00000  0.00000  0.00000  1
 O  O1  1  0.91880  0.82800  0.78106  1
 O  O2  1  0.08120  0.17200  0.78106  1
 O  O3  1  0.58120  0.32800  0.21894  1
 O  O4  1  0.41880  0.67200  0.21894  1
 O  O5  1  0.32800  0.41880  0.78106  1
 O  O6  1  0.17200  0.91880  0.21894  1
 O  O7  1  0.35763  0.85763  0.71787  1
 O  O8  1  0.50000  0.00000  0.18574  1
 O  O9  1  0.14237  0.35763  0.28213  1
 O  O10  1  0.64237  0.14237  0.71787  1
 O  O11  1  0.67200  0.58120  0.78106  1
 O  O12  1  0.85763  0.64237  0.28213  1
 O  O13  1  0.00000  0.50000  0.81426  1
 O  O14  1  0.82800  0.08120  0.21894  1
