CIF file written using JARVIS-Tools package.
data_CdAg2O4
_symmetry_space_group_name_H-M  'Fddd'
_cell_length_a       6.89273
_cell_length_b       7.18391
_cell_length_c       5.94088
_cell_angle_alpha    106.159
_cell_angle_beta     125.458
_cell_angle_gamma    61.332

_symmetry_Int_Tables_number  70
_chemical_formula_structural  CdAg2O4
_chemical_formula_sum  Cd2Ag4O8
_cell_volume  210.24177131211974
_cell_formula_units_Z  2
loop_
  _symmetry_equiv_pos_site_id
 _symmetry_equiv_pos_as_xyz
 1  'x, y, z'
loop_
 _atom_site_type_symbol
 _atom_site_label
 _atom_site_symmetry_multiplicity
 _atom_site_fract_x
 _atom_site_fract_y
 _atom_site_fract_z
 _atom_site_fract_occupancy
 Ag  Ag1  1  0.49612  0.00775  0.25000  1
 Ag  Ag2  1  0.74612  0.50775  0.75000  1
 Ag  Ag3  1  0.25388  0.49225  0.25000  1
 Ag  Ag4  1  0.50388  0.99225  0.75000  1
 Cd  Cd1  1  0.87500  0.25000  0.25000  1
 Cd  Cd2  1  0.12500  0.75000  0.75000  1
 O  O1  1  0.91777  0.50557  0.16384  1
 O  O2  1  0.74050  0.00557  0.66384  1
 O  O3  1  0.74608  0.99443  0.16384  1
 O  O4  1  0.57666  0.50557  0.33616  1
 O  O5  1  0.25392  0.00557  0.83616  1
 O  O6  1  0.42334  0.49443  0.66384  1
 O  O7  1  0.25950  0.99443  0.33616  1
 O  O8  1  0.08223  0.49443  0.83616  1
