CIF file written using JARVIS-Tools package.
data_LiAgF2
_symmetry_space_group_name_H-M  'I4_1/amd'
_cell_length_a       4.65711
_cell_length_b       5.61809
_cell_length_c       4.65711
_cell_angle_alpha    65.5137
_cell_angle_beta     90
_cell_angle_gamma    114.486

_symmetry_Int_Tables_number  141
_chemical_formula_structural  LiAgF2
_chemical_formula_sum  Li2Ag2F4
_cell_volume  98.7216833185465
_cell_formula_units_Z  2
loop_
  _symmetry_equiv_pos_site_id
 _symmetry_equiv_pos_as_xyz
 1  'x, y, z'
loop_
 _atom_site_type_symbol
 _atom_site_label
 _atom_site_symmetry_multiplicity
 _atom_site_fract_x
 _atom_site_fract_y
 _atom_site_fract_z
 _atom_site_fract_occupancy
 Ag  Ag1  1  0.00000  0.00000  0.00000  1
 Ag  Ag2  1  0.75000  0.50000  0.75000  1
 F  F1  1  0.04286  0.08572  0.45714  1
 F  F2  1  0.29286  0.58572  0.70714  1
 F  F3  1  0.45714  0.91428  0.04286  1
 F  F4  1  0.70714  0.41428  0.29286  1
 Li  Li1  1  0.25000  0.50000  0.25000  1
 Li  Li2  1  0.50000  0.00000  0.50000  1
