CIF file written using JARVIS-Tools package.
data_MoWSe2S2
_symmetry_space_group_name_H-M  'P3m1'
_cell_length_a       3.25887
_cell_length_b       3.25887
_cell_length_c       34.2653
_cell_angle_alpha    89.9934
_cell_angle_beta     90
_cell_angle_gamma    120

_symmetry_Int_Tables_number  156
_chemical_formula_structural  MoWSe2S2
_chemical_formula_sum  Mo2W2Se4S4
_cell_volume  315.1515134039473
_cell_formula_units_Z  2
loop_
  _symmetry_equiv_pos_site_id
 _symmetry_equiv_pos_as_xyz
 1  'x, y, z'
loop_
 _atom_site_type_symbol
 _atom_site_label
 _atom_site_symmetry_multiplicity
 _atom_site_fract_x
 _atom_site_fract_y
 _atom_site_fract_z
 _atom_site_fract_occupancy
 Mo  Mo1  1  0.33359  0.66718  0.09473  1
 Mo  Mo2  1  0.33322  0.66644  0.46936  1
 S  S1  1  0.66696  0.33392  0.04966  1
 S  S2  1  0.66659  0.33317  0.42425  1
 S  S3  1  0.66689  0.33378  0.13985  1
 S  S4  1  0.66652  0.33305  0.51447  1
 Se  Se1  1  0.33325  0.66649  0.33193  1
 Se  Se2  1  0.33318  0.66637  0.70655  1
 Se  Se3  1  0.33336  0.66671  0.23224  1
 Se  Se4  1  0.33325  0.66651  0.60689  1
 W  W1  1  0.66663  0.33327  0.28208  1
 W  W2  1  0.66655  0.33310  0.65674  1
