CIF file written using JARVIS-Tools package.
data_Er2Al3Co
_symmetry_space_group_name_H-M  'P6_3/mmc'
_cell_length_a       5.46849
_cell_length_b       5.46849
_cell_length_c       8.49474
_cell_angle_alpha    90
_cell_angle_beta     90
_cell_angle_gamma    120

_symmetry_Int_Tables_number  194
_chemical_formula_structural  Er2Al3Co
_chemical_formula_sum  Er4Al6Co2
_cell_volume  219.99625920531338
_cell_formula_units_Z  2
loop_
  _symmetry_equiv_pos_site_id
 _symmetry_equiv_pos_as_xyz
 1  'x, y, z'
loop_
 _atom_site_type_symbol
 _atom_site_label
 _atom_site_symmetry_multiplicity
 _atom_site_fract_x
 _atom_site_fract_y
 _atom_site_fract_z
 _atom_site_fract_occupancy
 Al  Al1  1  0.32426  0.16213  0.75000  1
 Al  Al2  1  0.16213  0.32426  0.25000  1
 Al  Al3  1  0.16213  0.83787  0.25000  1
 Al  Al4  1  0.83787  0.16213  0.75000  1
 Al  Al5  1  0.67574  0.83787  0.25000  1
 Al  Al6  1  0.83787  0.67574  0.75000  1
 Co  Co1  1  0.00000  0.00000  0.00000  1
 Co  Co2  1  0.00000  0.00000  0.50000  1
 Er  Er1  1  0.33333  0.66667  0.55588  1
 Er  Er2  1  0.66667  0.33333  0.05588  1
 Er  Er3  1  0.66667  0.33333  0.44412  1
 Er  Er4  1  0.33333  0.66667  0.94412  1
