CIF file written using JARVIS-Tools package.
data_Sr3MgFe2S2O5
_symmetry_space_group_name_H-M  'I-4m2'
_cell_length_a       3.87422
_cell_length_b       3.87422
_cell_length_c       13.9341
_cell_angle_alpha    97.9911
_cell_angle_beta     97.9911
_cell_angle_gamma    90

_symmetry_Int_Tables_number  119
_chemical_formula_structural  Sr3MgFe2S2O5
_chemical_formula_sum  Sr3MgFe2S2O5
_cell_volume  205.06245561792377
_cell_formula_units_Z  1
loop_
  _symmetry_equiv_pos_site_id
 _symmetry_equiv_pos_as_xyz
 1  'x, y, z'
loop_
 _atom_site_type_symbol
 _atom_site_label
 _atom_site_symmetry_multiplicity
 _atom_site_fract_x
 _atom_site_fract_y
 _atom_site_fract_z
 _atom_site_fract_occupancy
 Fe  Fe1  1  0.06998  0.06998  0.13996  1
 Fe  Fe2  1  0.93002  0.93002  0.86004  1
 Mg  Mg1  1  0.75000  0.25000  0.50000  1
 O  O1  1  0.07691  0.57691  0.15381  1
 O  O2  1  0.57761  0.07761  0.15522  1
 O  O3  1  0.92239  0.42239  0.84478  1
 O  O4  1  0.42309  0.92309  0.84619  1
 O  O5  1  0.00000  0.00000  0.00000  1
 S  S1  1  0.19305  0.19305  0.38609  1
 S  S2  1  0.80695  0.80695  0.61391  1
 Sr  Sr1  1  0.50000  0.50000  0.00000  1
 Sr  Sr2  1  0.63693  0.63693  0.27386  1
 Sr  Sr3  1  0.36307  0.36307  0.72614  1
