CIF file written using JARVIS-Tools package.
data_MnC4NO5
_symmetry_space_group_name_H-M  'C2/c'
_cell_length_a       6.53673
_cell_length_b       6.60903
_cell_length_c       9.25743
_cell_angle_alpha    105.086
_cell_angle_beta     90
_cell_angle_gamma    119.639

_symmetry_Int_Tables_number  15
_chemical_formula_structural  MnC4NO5
_chemical_formula_sum  Mn2C8N2O0
_cell_volume  331.6568317966195
_cell_formula_units_Z  2
loop_
  _symmetry_equiv_pos_site_id
 _symmetry_equiv_pos_as_xyz
 1  'x, y, z'
loop_
 _atom_site_type_symbol
 _atom_site_label
 _atom_site_symmetry_multiplicity
 _atom_site_fract_x
 _atom_site_fract_y
 _atom_site_fract_z
 _atom_site_fract_occupancy
 C  C1  1  0.29069  0.27232  0.68305  1
 C  C2  1  0.63937  0.83548  0.08560  1
 C  C3  1  0.80389  0.16452  0.41440  1
 C  C4  1  0.36063  0.16452  0.91440  1
 C  C5  1  0.01837  0.72768  0.81695  1
 C  C6  1  0.98163  0.27232  0.18305  1
 C  C7  1  0.70931  0.72768  0.31695  1
 C  C8  1  0.19611  0.83548  0.58560  1
 Mn  Mn1  1  0.12439  -0.00000  0.75000  1
 Mn  Mn2  1  0.87561  0.00000  0.25000  1
 N  N1  1  0.13464  0.00000  0.25000  1
 N  N2  1  0.86536  -0.00000  0.75000  1
 O  O1  1  0.31440  0.00000  0.25000  1
 O  O2  1  0.23579  0.72967  0.47935  1
 O  O3  1  0.04358  0.44069  0.14127  1
 O  O4  1  0.95642  0.55931  0.85873  1
 O  O5  1  0.50611  0.27033  0.02065  1
 O  O6  1  0.39711  0.44069  0.64127  1
 O  O7  1  0.60289  0.55931  0.35873  1
 O  O8  1  0.49389  0.72967  0.97935  1
 O  O9  1  0.68560  -0.00000  0.75000  1
 O  O10  1  0.76421  0.27033  0.52065  1
