CIF file written using JARVIS-Tools package.
data_Zn2P2O7
_symmetry_space_group_name_H-M  'C2/m'
_cell_length_a       4.54288
_cell_length_b       5.32317
_cell_length_c       5.32316
_cell_angle_alpha    103.1
_cell_angle_beta     99.1355
_cell_angle_gamma    99.1357

_symmetry_Int_Tables_number  12
_chemical_formula_structural  Zn2P2O7
_chemical_formula_sum  Zn2P2O7
_cell_volume  121.22143720634052
_cell_formula_units_Z  1
loop_
  _symmetry_equiv_pos_site_id
 _symmetry_equiv_pos_as_xyz
 1  'x, y, z'
loop_
 _atom_site_type_symbol
 _atom_site_label
 _atom_site_symmetry_multiplicity
 _atom_site_fract_x
 _atom_site_fract_y
 _atom_site_fract_z
 _atom_site_fract_occupancy
 O  O1  1  0.27671  0.93040  0.62484  1
 O  O2  1  0.72329  0.37516  0.06960  1
 O  O3  1  0.72329  0.06960  0.37516  1
 O  O4  1  0.27671  0.62484  0.93040  1
 O  O5  1  0.21360  0.38153  0.38153  1
 O  O6  1  -0.00000  0.00000  0.00000  1
 O  O7  1  0.78640  0.61847  0.61847  1
 P  P1  1  0.09223  0.78457  0.78457  1
 P  P2  1  0.90777  0.21543  0.21543  1
 Zn  Zn1  1  0.50000  0.69120  0.30880  1
 Zn  Zn2  1  0.50000  0.30880  0.69120  1
