CIF file written using JARVIS-Tools package.
data_NiS2
_symmetry_space_group_name_H-M  'R-3m'
_cell_length_a       5.75432
_cell_length_b       5.75432
_cell_length_c       5.75432
_cell_angle_alpha    34.1189
_cell_angle_beta     34.1189
_cell_angle_gamma    34.1189

_symmetry_Int_Tables_number  166
_chemical_formula_structural  NiS2
_chemical_formula_sum  NiS2
_cell_volume  53.44630778400599
_cell_formula_units_Z  1
loop_
  _symmetry_equiv_pos_site_id
 _symmetry_equiv_pos_as_xyz
 1  'x, y, z'
loop_
 _atom_site_type_symbol
 _atom_site_label
 _atom_site_symmetry_multiplicity
 _atom_site_fract_x
 _atom_site_fract_y
 _atom_site_fract_z
 _atom_site_fract_occupancy
 Ni  Ni1  1  0.00000  0.00000  0.00000  1
 S  S1  1  0.59471  0.59471  0.59471  1
 S  S2  1  0.40529  0.40529  0.40529  1
