CIF file written using JARVIS-Tools package.
data_MgSnF4
_symmetry_space_group_name_H-M  'P1'
_cell_length_a       4.94609
_cell_length_b       5.53272
_cell_length_c       7.13681
_cell_angle_alpha    108.107
_cell_angle_beta     113.202
_cell_angle_gamma    89.5278

_symmetry_Int_Tables_number  1
_chemical_formula_structural  MgSnF4
_chemical_formula_sum  Mg2Sn2F8
_cell_volume  169.1515750506336
_cell_formula_units_Z  2
loop_
  _symmetry_equiv_pos_site_id
 _symmetry_equiv_pos_as_xyz
 1  'x, y, z'
loop_
 _atom_site_type_symbol
 _atom_site_label
 _atom_site_symmetry_multiplicity
 _atom_site_fract_x
 _atom_site_fract_y
 _atom_site_fract_z
 _atom_site_fract_occupancy
 F  F1  1  0.76804  0.51353  0.21143  1
 F  F2  1  0.59378  0.23689  0.79320  1
 F  F3  1  0.05090  0.44123  0.61917  1
 F  F4  1  0.08184  0.93113  0.60371  1
 F  F5  1  0.44906  0.86944  0.38635  1
 F  F6  1  0.39280  0.38346  0.36619  1
 F  F7  1  0.93411  0.98537  0.19370  1
 F  F8  1  0.69177  0.74392  0.78112  1
 Mg  Mg1  1  0.25015  0.17375  0.49620  1
 Mg  Mg2  1  0.75126  0.64856  0.50370  1
 Sn  Sn1  1  0.07171  0.58061  0.08113  1
 Sn  Sn2  1  0.46189  0.00502  0.94176  1
