CIF file written using JARVIS-Tools package.
data_MgV4O8
_symmetry_space_group_name_H-M  'Cm'
_cell_length_a       2.89246
_cell_length_b       7.31411
_cell_length_c       7.43781
_cell_angle_alpha    79.9761
_cell_angle_beta     78.7887
_cell_angle_gamma    78.5941

_symmetry_Int_Tables_number  8
_chemical_formula_structural  MgV4O8
_chemical_formula_sum  MgV4O8
_cell_volume  149.78964063589524
_cell_formula_units_Z  1
loop_
  _symmetry_equiv_pos_site_id
 _symmetry_equiv_pos_as_xyz
 1  'x, y, z'
loop_
 _atom_site_type_symbol
 _atom_site_label
 _atom_site_symmetry_multiplicity
 _atom_site_fract_x
 _atom_site_fract_y
 _atom_site_fract_z
 _atom_site_fract_occupancy
 Mg  Mg1  1  0.33407  0.13316  0.19884  1
 O  O1  1  0.85541  0.66934  0.61999  1
 O  O2  1  0.45943  0.33271  0.74855  1
 O  O3  1  0.53095  0.64159  0.29663  1
 O  O4  1  0.14381  0.29984  0.41267  1
 O  O5  1  0.17086  0.00669  0.65172  1
 O  O6  1  0.78921  0.32477  0.09695  1
 O  O7  1  0.83920  0.97711  0.34461  1
 O  O8  1  0.21695  0.61211  0.95412  1
 V  V1  1  0.62534  0.17559  0.57387  1
 V  V2  1  0.14212  0.50970  0.20618  1
 V  V3  1  0.83671  0.48927  0.83744  1
 V  V4  1  0.35342  0.80420  0.48908  1
