CIF file written using JARVIS-Tools package.
data_Ti2IrOs
_symmetry_space_group_name_H-M  'C2/m'
_cell_length_a       10.7079
_cell_length_b       7.36799
_cell_length_c       7.36799
_cell_angle_alpha    22.8679
_cell_angle_beta     19.4002
_cell_angle_gamma    19.4001

_symmetry_Int_Tables_number  12
_chemical_formula_structural  Ti2IrOs
_chemical_formula_sum  Ti2IrOs
_cell_volume  61.42625833530057
_cell_formula_units_Z  1
loop_
  _symmetry_equiv_pos_site_id
 _symmetry_equiv_pos_as_xyz
 1  'x, y, z'
loop_
 _atom_site_type_symbol
 _atom_site_label
 _atom_site_symmetry_multiplicity
 _atom_site_fract_x
 _atom_site_fract_y
 _atom_site_fract_z
 _atom_site_fract_occupancy
 Ir  Ir1  1  0.50004  -0.00003  -0.00003  1
 Os  Os1  1  -0.00001  -0.00000  -0.00000  1
 Ti  Ti1  1  0.74490  0.00408  0.00408  1
 Ti  Ti2  1  0.25507  -0.00405  -0.00405  1
