CIF file written using JARVIS-Tools package.
data_H2CO2
_symmetry_space_group_name_H-M  'Pna2_1'
_cell_length_a       3.45819
_cell_length_b       5.3491
_cell_length_c       10.1482
_cell_angle_alpha    90
_cell_angle_beta     90
_cell_angle_gamma    90

_symmetry_Int_Tables_number  33
_chemical_formula_structural  H2CO2
_chemical_formula_sum  H8C4O8
_cell_volume  187.72362733511963
_cell_formula_units_Z  4
loop_
  _symmetry_equiv_pos_site_id
 _symmetry_equiv_pos_as_xyz
 1  'x, y, z'
loop_
 _atom_site_type_symbol
 _atom_site_label
 _atom_site_symmetry_multiplicity
 _atom_site_fract_x
 _atom_site_fract_y
 _atom_site_fract_z
 _atom_site_fract_occupancy
 C  C1  1  0.81542  0.66667  0.34219  1
 C  C2  1  0.31542  0.16667  0.15781  1
 C  C3  1  0.18458  0.16667  0.65781  1
 C  C4  1  0.68458  0.66667  0.84219  1
 H  H1  1  0.46409  0.85300  0.64138  1
 H  H2  1  0.43066  0.32821  0.10304  1
 H  H3  1  0.06934  0.32821  0.60304  1
 H  H4  1  0.56934  0.82821  0.89696  1
 H  H5  1  0.03591  0.85300  0.14138  1
 H  H6  1  0.96409  0.35300  0.85862  1
 H  H7  1  0.53591  0.35300  0.35862  1
 H  H8  1  0.93066  0.82821  0.39696  1
 O  O1  1  0.85746  0.49998  0.91597  1
 O  O2  1  0.65028  0.64478  0.72090  1
 O  O3  1  0.64254  0.49998  0.41597  1
 O  O4  1  0.34972  0.14478  0.27910  1
 O  O5  1  0.14254  -0.00002  0.08403  1
 O  O6  1  0.15028  0.14478  0.77910  1
 O  O7  1  0.35746  -0.00002  0.58403  1
 O  O8  1  0.84972  0.64478  0.22090  1
