CIF file written using JARVIS-Tools package.
data_Ba
_symmetry_space_group_name_H-M  'Cmcm'
_cell_length_a       4.374
_cell_length_b       4.37909
_cell_length_c       7.14042
_cell_angle_alpha    90
_cell_angle_beta     90
_cell_angle_gamma    119.962

_symmetry_Int_Tables_number  63
_chemical_formula_structural  Ba
_chemical_formula_sum  Ba2
_cell_volume  118.49102868298927
_cell_formula_units_Z  2
loop_
  _symmetry_equiv_pos_site_id
 _symmetry_equiv_pos_as_xyz
 1  'x, y, z'
loop_
 _atom_site_type_symbol
 _atom_site_label
 _atom_site_symmetry_multiplicity
 _atom_site_fract_x
 _atom_site_fract_y
 _atom_site_fract_z
 _atom_site_fract_occupancy
 Ba  Ba1  1  0.83382  0.16764  0.75000  1
 Ba  Ba2  1  0.16618  0.83236  0.25000  1
