CIF file written using JARVIS-Tools package.
data_Ca2Si3Ag
_symmetry_space_group_name_H-M  'Fmmm'
_cell_length_a       5.99056
_cell_length_b       5.99056
_cell_length_c       8.34666
_cell_angle_alpha    110.416
_cell_angle_beta     110.416
_cell_angle_gamma    91.6017

_symmetry_Int_Tables_number  69
_chemical_formula_structural  Ca2Si3Ag
_chemical_formula_sum  Ca4Si6Ag2
_cell_volume  259.24102191084444
_cell_formula_units_Z  2
loop_
  _symmetry_equiv_pos_site_id
 _symmetry_equiv_pos_as_xyz
 1  'x, y, z'
loop_
 _atom_site_type_symbol
 _atom_site_label
 _atom_site_symmetry_multiplicity
 _atom_site_fract_x
 _atom_site_fract_y
 _atom_site_fract_z
 _atom_site_fract_occupancy
 Ag  Ag1  1  0.66667  0.66667  0.33335  1
 Ag  Ag2  1  0.33333  0.33333  0.66665  1
 Ca  Ca1  1  0.75000  0.25000  0.50000  1
 Ca  Ca2  1  0.24801  0.75199  0.00000  1
 Ca  Ca3  1  0.25000  0.75000  0.50000  1
 Ca  Ca4  1  0.75199  0.24801  -0.00000  1
 Si  Si1  1  0.32531  0.32531  0.16204  1
 Si  Si2  1  0.16326  0.16326  0.83796  1
 Si  Si3  1  0.67469  0.67469  0.83796  1
 Si  Si4  1  0.83674  0.83674  0.16204  1
 Si  Si5  1  0.16205  0.16205  0.32409  1
 Si  Si6  1  0.83795  0.83795  0.67591  1
