CIF file written using JARVIS-Tools package.
data_Li4CO4
_symmetry_space_group_name_H-M  'I-42m'
_cell_length_a       4.35795
_cell_length_b       5.01315
_cell_length_c       5.01314
_cell_angle_alpha    79.1123
_cell_angle_beta     64.2368
_cell_angle_gamma    64.2368

_symmetry_Int_Tables_number  121
_chemical_formula_structural  Li4CO4
_chemical_formula_sum  Li4CO4
_cell_volume  88.831011122573
_cell_formula_units_Z  1
loop_
  _symmetry_equiv_pos_site_id
 _symmetry_equiv_pos_as_xyz
 1  'x, y, z'
loop_
 _atom_site_type_symbol
 _atom_site_label
 _atom_site_symmetry_multiplicity
 _atom_site_fract_x
 _atom_site_fract_y
 _atom_site_fract_z
 _atom_site_fract_occupancy
 C  C1  1  0.50000  0.00000  -0.00000  1
 Li  Li1  1  0.04488  0.99999  0.65759  1
 Li  Li2  1  0.29753  0.65759  -0.00001  1
 Li  Li3  1  0.95512  0.34241  0.00001  1
 Li  Li4  1  0.70247  0.00001  0.34241  1
 O  O1  1  0.81871  0.74846  -0.00000  1
 O  O2  1  0.18129  0.00000  0.25154  1
 O  O3  1  0.43283  -0.00001  0.74846  1
 O  O4  1  0.56717  0.25154  0.00001  1
