CIF file written using JARVIS-Tools package.
data_PH2F3
_symmetry_space_group_name_H-M  'Cmc2_1'
_cell_length_a       4.82254
_cell_length_b       4.82254
_cell_length_c       6.02872
_cell_angle_alpha    90
_cell_angle_beta     90
_cell_angle_gamma    109.43

_symmetry_Int_Tables_number  36
_chemical_formula_structural  PH2F3
_chemical_formula_sum  P2H4F6
_cell_volume  132.22366508179758
_cell_formula_units_Z  2
loop_
  _symmetry_equiv_pos_site_id
 _symmetry_equiv_pos_as_xyz
 1  'x, y, z'
loop_
 _atom_site_type_symbol
 _atom_site_label
 _atom_site_symmetry_multiplicity
 _atom_site_fract_x
 _atom_site_fract_y
 _atom_site_fract_z
 _atom_site_fract_occupancy
 F  F1  1  0.63446  0.36554  0.98094  1
 F  F2  1  0.74013  0.25987  0.51835  1
 F  F3  1  0.11834  0.88166  0.68336  1
 F  F4  1  0.88166  0.11834  0.18336  1
 F  F5  1  0.25987  0.74013  0.01835  1
 F  F6  1  0.36554  0.63446  0.48094  1
 H  H1  1  0.83721  0.61274  0.27464  1
 H  H2  1  0.16279  0.38726  0.77464  1
 H  H3  1  0.38726  0.16279  0.27464  1
 H  H4  1  0.61274  0.83721  0.77464  1
 P  P1  1  0.68707  0.31293  0.25108  1
 P  P2  1  0.31293  0.68707  0.75108  1
