CIF file written using JARVIS-Tools package.
data_TlSbSe2
_symmetry_space_group_name_H-M  'P2_1'
_cell_length_a       9.24193
_cell_length_b       4.14644
_cell_length_c       12.8369
_cell_angle_alpha    90
_cell_angle_beta     109.628
_cell_angle_gamma    90

_symmetry_Int_Tables_number  4
_chemical_formula_structural  TlSbSe2
_chemical_formula_sum  Tl4Sb4Se8
_cell_volume  463.34178429827654
_cell_formula_units_Z  4
loop_
  _symmetry_equiv_pos_site_id
 _symmetry_equiv_pos_as_xyz
 1  'x, y, z'
loop_
 _atom_site_type_symbol
 _atom_site_label
 _atom_site_symmetry_multiplicity
 _atom_site_fract_x
 _atom_site_fract_y
 _atom_site_fract_z
 _atom_site_fract_occupancy
 Sb  Sb1  1  0.18485  0.24699  0.11026  1
 Sb  Sb2  1  0.81515  0.74699  0.88974  1
 Sb  Sb3  1  0.58027  0.24000  0.38889  1
 Sb  Sb4  1  0.41973  0.74000  0.61111  1
 Se  Se1  1  0.06102  0.24597  0.89347  1
 Se  Se2  1  0.34538  0.74220  0.39383  1
 Se  Se3  1  0.65462  0.24220  0.60617  1
 Se  Se4  1  0.79037  0.74218  0.38880  1
 Se  Se5  1  0.39286  0.74632  0.11856  1
 Se  Se6  1  0.20963  0.24218  0.61120  1
 Se  Se7  1  0.93898  0.74597  0.10653  1
 Se  Se8  1  0.60714  0.24632  0.88144  1
 Tl  Tl1  1  0.68278  0.24663  0.13878  1
 Tl  Tl2  1  0.05533  0.24141  0.35936  1
 Tl  Tl3  1  0.31722  0.74663  0.86122  1
 Tl  Tl4  1  0.94467  0.74141  0.64064  1
