CIF file written using JARVIS-Tools package.
data_Ta2I5
_symmetry_space_group_name_H-M  'P1'
_cell_length_a       6.46011
_cell_length_b       6.46006
_cell_length_c       7.1458
_cell_angle_alpha    72.5566
_cell_angle_beta     73.858
_cell_angle_gamma    70.1496

_symmetry_Int_Tables_number  1
_chemical_formula_structural  Ta2I5
_chemical_formula_sum  Ta2I5
_cell_volume  262.3850228138716
_cell_formula_units_Z  1
loop_
  _symmetry_equiv_pos_site_id
 _symmetry_equiv_pos_as_xyz
 1  'x, y, z'
loop_
 _atom_site_type_symbol
 _atom_site_label
 _atom_site_symmetry_multiplicity
 _atom_site_fract_x
 _atom_site_fract_y
 _atom_site_fract_z
 _atom_site_fract_occupancy
 I  I1  1  -0.01112  0.21342  0.21167  1
 I  I2  1  0.56069  0.28467  0.82960  1
 I  I3  1  0.35511  0.57814  0.29139  1
 I  I4  1  0.60273  0.85218  0.57320  1
 I  I5  1  0.04844  0.79573  0.82709  1
 Ta  Ta1  1  0.70040  0.59048  0.95198  1
 Ta  Ta2  1  0.35535  0.93539  0.95176  1
