CIF file written using JARVIS-Tools package.
data_Rb2PrO3
_symmetry_space_group_name_H-M  'Cmc2_1'
_cell_length_a       6.74836
_cell_length_b       6.74836
_cell_length_c       6.52073
_cell_angle_alpha    90
_cell_angle_beta     90
_cell_angle_gamma    115.924

_symmetry_Int_Tables_number  36
_chemical_formula_structural  Rb2PrO3
_chemical_formula_sum  Rb4Pr2O6
_cell_volume  267.0755525451779
_cell_formula_units_Z  2
loop_
  _symmetry_equiv_pos_site_id
 _symmetry_equiv_pos_as_xyz
 1  'x, y, z'
loop_
 _atom_site_type_symbol
 _atom_site_label
 _atom_site_symmetry_multiplicity
 _atom_site_fract_x
 _atom_site_fract_y
 _atom_site_fract_z
 _atom_site_fract_occupancy
 O  O1  1  0.10210  0.84017  0.01141  1
 O  O2  1  0.15983  0.89790  0.51141  1
 O  O3  1  0.59901  0.59901  0.61729  1
 O  O4  1  0.40099  0.40099  0.11729  1
 O  O5  1  0.84017  0.10210  0.01141  1
 O  O6  1  0.89790  0.15983  0.51141  1
 Pr  Pr1  1  0.11110  0.11110  0.24340  1
 Pr  Pr2  1  0.88890  0.88890  0.74340  1
 Rb  Rb1  1  0.47635  0.81211  0.27825  1
 Rb  Rb2  1  0.18789  0.52365  0.77825  1
 Rb  Rb3  1  0.52365  0.18789  0.77825  1
 Rb  Rb4  1  0.81211  0.47635  0.27825  1
