CIF file written using JARVIS-Tools package.
data_Mg2Mo3O8
_symmetry_space_group_name_H-M  'C2/m'
_cell_length_a       4.86253
_cell_length_b       5.68813
_cell_length_c       6.21654
_cell_angle_alpha    117.226
_cell_angle_beta     106.905
_cell_angle_gamma    90

_symmetry_Int_Tables_number  12
_chemical_formula_structural  Mg2Mo3O8
_chemical_formula_sum  Mg2Mo3O8
_cell_volume  144.48602387662356
_cell_formula_units_Z  1
loop_
  _symmetry_equiv_pos_site_id
 _symmetry_equiv_pos_as_xyz
 1  'x, y, z'
loop_
 _atom_site_type_symbol
 _atom_site_label
 _atom_site_symmetry_multiplicity
 _atom_site_fract_x
 _atom_site_fract_y
 _atom_site_fract_z
 _atom_site_fract_occupancy
 Mg  Mg1  1  0.66553  0.73441  0.46881  1
 Mg  Mg2  1  0.33447  0.26559  0.53119  1
 Mo  Mo1  1  0.50000  1.00000  -0.00000  1
 Mo  Mo2  1  1.00000  0.72378  -0.00000  1
 Mo  Mo3  1  1.00000  0.27622  0.00000  1
 O  O1  1  0.09741  0.38335  0.76671  1
 O  O2  1  0.90259  0.61665  0.23329  1
 O  O3  1  0.06086  0.88384  0.76769  1
 O  O4  1  0.93914  0.11615  0.23231  1
 O  O5  1  0.41750  0.36217  0.23933  1
 O  O6  1  0.41750  0.87716  0.23933  1
 O  O7  1  0.58250  0.12284  0.76067  1
 O  O8  1  0.58250  0.63783  0.76067  1
