CIF file written using JARVIS-Tools package.
data_FeP2S6
_symmetry_space_group_name_H-M  'P312'
_cell_length_a       5.77327
_cell_length_b       5.77327
_cell_length_c       6.19062
_cell_angle_alpha    89.9568
_cell_angle_beta     89.9568
_cell_angle_gamma    120.004

_symmetry_Int_Tables_number  149
_chemical_formula_structural  FeP2S6
_chemical_formula_sum  FeP2S6
_cell_volume  178.68539021314479
_cell_formula_units_Z  1
loop_
  _symmetry_equiv_pos_site_id
 _symmetry_equiv_pos_as_xyz
 1  'x, y, z'
loop_
 _atom_site_type_symbol
 _atom_site_label
 _atom_site_symmetry_multiplicity
 _atom_site_fract_x
 _atom_site_fract_y
 _atom_site_fract_z
 _atom_site_fract_occupancy
 Fe  Fe1  1  0.33333  0.66667  0.50000  1
 P  P1  1  -0.00029  -0.00032  0.67462  1
 P  P2  1  0.00032  0.00029  0.32538  1
 S  S1  1  0.02643  0.66612  0.74394  1
 S  S2  1  0.02723  0.36073  0.25616  1
 S  S3  1  0.33309  0.35995  0.74389  1
 S  S4  1  0.33388  0.97357  0.25606  1
 S  S5  1  0.64005  0.66691  0.25611  1
 S  S6  1  0.63927  0.97277  0.74384  1
