CIF file written using JARVIS-Tools package.
data_Cu8O7
_symmetry_space_group_name_H-M  'I-4m2'
_cell_length_a       5.84196
_cell_length_b       5.84196
_cell_length_c       6.55111
_cell_angle_alpha    116.473
_cell_angle_beta     116.473
_cell_angle_gamma    90.0203

_symmetry_Int_Tables_number  119
_chemical_formula_structural  Cu8O7
_chemical_formula_sum  Cu8O7
_cell_volume  173.53315953956675
_cell_formula_units_Z  1
loop_
  _symmetry_equiv_pos_site_id
 _symmetry_equiv_pos_as_xyz
 1  'x, y, z'
loop_
 _atom_site_type_symbol
 _atom_site_label
 _atom_site_symmetry_multiplicity
 _atom_site_fract_x
 _atom_site_fract_y
 _atom_site_fract_z
 _atom_site_fract_occupancy
 Cu  Cu1  1  0.01122  0.00285  0.00932  1
 Cu  Cu2  1  0.99177  0.48945  0.98238  1
 Cu  Cu3  1  0.51057  0.50561  0.51765  1
 Cu  Cu4  1  0.51055  0.00823  0.51762  1
 Cu  Cu5  1  0.49439  0.48943  0.98235  1
 Cu  Cu6  1  0.50158  0.00286  0.00936  1
 Cu  Cu7  1  0.99714  0.49842  0.49064  1
 Cu  Cu8  1  0.99715  0.98878  0.49068  1
 O  O1  1  0.12246  0.36892  0.74119  1
 O  O2  1  0.12672  0.87328  0.75000  1
 O  O3  1  0.63108  0.87754  0.75881  1
 O  O4  1  0.37696  0.62304  0.25000  1
 O  O5  1  0.39287  0.13922  0.28226  1
 O  O6  1  0.87676  0.12324  0.25000  1
 O  O7  1  0.86078  0.60713  0.21774  1
