CIF file written using JARVIS-Tools package.
data_Be2IrRh
_symmetry_space_group_name_H-M  'C2/m'
_cell_length_a       9.56884
_cell_length_b       6.7762
_cell_length_c       5.58188
_cell_angle_alpha    22.8723
_cell_angle_beta     29.5283
_cell_angle_gamma    19.1867

_symmetry_Int_Tables_number  12
_chemical_formula_structural  Be2IrRh
_chemical_formula_sum  Be2IrRh
_cell_volume  46.232278549518405
_cell_formula_units_Z  1
loop_
  _symmetry_equiv_pos_site_id
 _symmetry_equiv_pos_as_xyz
 1  'x, y, z'
loop_
 _atom_site_type_symbol
 _atom_site_label
 _atom_site_symmetry_multiplicity
 _atom_site_fract_x
 _atom_site_fract_y
 _atom_site_fract_z
 _atom_site_fract_occupancy
 Be  Be1  1  0.74981  0.00095  0.99777  1
 Be  Be2  1  0.25019  0.99905  0.00223  1
 Ir  Ir1  1  0.50000  -0.00000  -0.00000  1
 Rh  Rh1  1  0.00000  0.00000  0.00000  1
