CIF file written using JARVIS-Tools package.
data_CaV4O8
_symmetry_space_group_name_H-M  'Cm'
_cell_length_a       2.9722
_cell_length_b       6.74533
_cell_length_c       7.3087
_cell_angle_alpha    86.881
_cell_angle_beta     101.73
_cell_angle_gamma    102.727

_symmetry_Int_Tables_number  8
_chemical_formula_structural  CaV4O8
_chemical_formula_sum  CaV4O8
_cell_volume  139.93634011341524
_cell_formula_units_Z  1
loop_
  _symmetry_equiv_pos_site_id
 _symmetry_equiv_pos_as_xyz
 1  'x, y, z'
loop_
 _atom_site_type_symbol
 _atom_site_label
 _atom_site_symmetry_multiplicity
 _atom_site_fract_x
 _atom_site_fract_y
 _atom_site_fract_z
 _atom_site_fract_occupancy
 Ca  Ca1  1  0.49602  0.05462  0.93450  1
 O  O1  1  0.47055  0.65362  0.28472  1
 O  O2  1  0.17407  0.72341  0.62200  1
 O  O3  1  0.86933  0.34007  0.39571  1
 O  O4  1  0.56866  0.40118  0.73330  1
 O  O5  1  0.84214  0.72123  0.96031  1
 O  O6  1  0.87270  0.06914  0.67341  1
 O  O7  1  0.19487  0.34052  0.04634  1
 O  O8  1  0.17915  0.99282  0.36274  1
 V  V1  1  0.19857  0.55842  0.83589  1
 V  V2  1  0.37804  0.22601  0.52713  1
 V  V3  1  0.65950  0.83880  0.47746  1
 V  V4  1  0.84247  0.50644  0.17571  1
