CIF file written using JARVIS-Tools package.
data_Ba2MgSi2O7
_symmetry_space_group_name_H-M  'P-42_1m'
_cell_length_a       8.27114
_cell_length_b       8.27114
_cell_length_c       5.4635
_cell_angle_alpha    90
_cell_angle_beta     90
_cell_angle_gamma    90

_symmetry_Int_Tables_number  113
_chemical_formula_structural  Ba2MgSi2O7
_chemical_formula_sum  Ba4Mg2Si4O4
_cell_volume  373.76774366417897
_cell_formula_units_Z  2
loop_
  _symmetry_equiv_pos_site_id
 _symmetry_equiv_pos_as_xyz
 1  'x, y, z'
loop_
 _atom_site_type_symbol
 _atom_site_label
 _atom_site_symmetry_multiplicity
 _atom_site_fract_x
 _atom_site_fract_y
 _atom_site_fract_z
 _atom_site_fract_occupancy
 Ba  Ba1  1  0.66442  0.16442  0.50962  1
 Ba  Ba2  1  0.83558  0.66442  0.49038  1
 Ba  Ba3  1  0.16442  0.33558  0.49038  1
 Ba  Ba4  1  0.33558  0.83558  0.50962  1
 Mg  Mg1  1  0.00000  0.00000  0.00000  1
 Mg  Mg2  1  0.50000  0.50000  0.00000  1
 O  O1  1  0.69370  0.42247  0.82218  1
 O  O2  1  0.14023  0.64023  0.25252  1
 O  O3  1  0.42247  0.30630  0.17782  1
 O  O4  1  0.57753  0.69370  0.17782  1
 O  O5  1  0.92247  0.19370  0.82218  1
 O  O6  1  0.30630  0.57753  0.82218  1
 O  O7  1  0.19370  0.07753  0.17782  1
 O  O8  1  0.07753  0.80630  0.82218  1
 O  O9  1  0.50000  0.00000  0.13957  1
 O  O10  1  0.64023  0.85977  0.74748  1
 O  O11  1  0.80630  0.92247  0.17782  1
 O  O12  1  0.00000  0.50000  0.86043  1
 O  O13  1  0.85977  0.35977  0.25252  1
 O  O14  1  0.35977  0.14023  0.74748  1
 Si  Si1  1  0.36264  0.13736  0.04451  1
 Si  Si2  1  0.63736  0.86264  0.04451  1
 Si  Si3  1  0.13736  0.63736  0.95549  1
 Si  Si4  1  0.86264  0.36264  0.95549  1
