CIF file written using JARVIS-Tools package.
data_Mn2OF3
_symmetry_space_group_name_H-M  'Imma'
_cell_length_a       5.72166
_cell_length_b       5.72166
_cell_length_c       5.72166
_cell_angle_alpha    70.3159
_cell_angle_beta     105.923
_cell_angle_gamma    67.1192

_symmetry_Int_Tables_number  74
_chemical_formula_structural  Mn2OF3
_chemical_formula_sum  Mn4O2F6
_cell_volume  143.6619703229834
_cell_formula_units_Z  2
loop_
  _symmetry_equiv_pos_site_id
 _symmetry_equiv_pos_as_xyz
 1  'x, y, z'
loop_
 _atom_site_type_symbol
 _atom_site_label
 _atom_site_symmetry_multiplicity
 _atom_site_fract_x
 _atom_site_fract_y
 _atom_site_fract_z
 _atom_site_fract_occupancy
 F  F1  1  0.54857  0.25000  0.79857  1
 F  F2  1  0.04857  0.75000  0.79857  1
 F  F3  1  -0.00000  0.27510  0.72490  1
 F  F4  1  0.50000  0.22490  0.27510  1
 F  F5  1  0.45143  0.75000  0.20143  1
 F  F6  1  0.95143  0.25000  0.20143  1
 Mn  Mn1  1  0.75000  0.75000  0.50000  1
 Mn  Mn2  1  0.25000  0.25000  0.50000  1
 Mn  Mn3  1  -0.00000  0.96174  0.03826  1
 Mn  Mn4  1  0.50000  0.53826  0.96174  1
 O  O1  1  0.50000  0.83054  0.66946  1
 O  O2  1  -0.00000  0.66946  0.33054  1
