CIF file written using JARVIS-Tools package.
data_CoO2
_symmetry_space_group_name_H-M  'C2'
_cell_length_a       2.82315
_cell_length_b       2.82311
_cell_length_c       9.17896
_cell_angle_alpha    72.0921
_cell_angle_beta     107.892
_cell_angle_gamma    120

_symmetry_Int_Tables_number  5
_chemical_formula_structural  CoO2
_chemical_formula_sum  Co2O4
_cell_volume  59.23184998952446
_cell_formula_units_Z  2
loop_
  _symmetry_equiv_pos_site_id
 _symmetry_equiv_pos_as_xyz
 1  'x, y, z'
loop_
 _atom_site_type_symbol
 _atom_site_label
 _atom_site_symmetry_multiplicity
 _atom_site_fract_x
 _atom_site_fract_y
 _atom_site_fract_z
 _atom_site_fract_occupancy
 Co  Co1  1  0.99744  -0.00161  0.50204  1
 Co  Co2  1  -0.00188  0.00109  0.00212  1
 O  O1  1  0.59201  0.40401  0.39368  1
 O  O2  1  0.73681  0.26221  0.11037  1
 O  O3  1  0.40288  0.59278  0.61039  1
 O  O4  1  0.25942  0.73996  0.89386  1
