CIF file written using JARVIS-Tools package.
data_NbRhO4
_symmetry_space_group_name_H-M  'I4_1md'
_cell_length_a       5.66202
_cell_length_b       5.66202
_cell_length_c       5.66202
_cell_angle_alpha    73.4628
_cell_angle_beta     106.537
_cell_angle_gamma    64.4864

_symmetry_Int_Tables_number  109
_chemical_formula_structural  NbRhO4
_chemical_formula_sum  Nb2Rh2O8
_cell_volume  138.55352502330683
_cell_formula_units_Z  2
loop_
  _symmetry_equiv_pos_site_id
 _symmetry_equiv_pos_as_xyz
 1  'x, y, z'
loop_
 _atom_site_type_symbol
 _atom_site_label
 _atom_site_symmetry_multiplicity
 _atom_site_fract_x
 _atom_site_fract_y
 _atom_site_fract_z
 _atom_site_fract_occupancy
 Nb  Nb1  1  0.76643  0.73357  0.50000  1
 Nb  Nb2  1  0.51643  0.48357  0.00000  1
 O  O1  1  0.05845  0.74693  0.80539  1
 O  O2  1  0.53287  0.26009  0.79296  1
 O  O3  1  0.50307  0.80232  0.69461  1
 O  O4  1  0.98991  0.30305  0.70704  1
 O  O5  1  0.98991  0.71713  0.29296  1
 O  O6  1  0.50307  0.19155  0.30539  1
 O  O7  1  0.44768  0.74693  0.19461  1
 O  O8  1  0.94695  0.26009  0.20704  1
 Rh  Rh1  1  0.24762  0.25238  0.50000  1
 Rh  Rh2  1  0.99762  0.00238  0.00000  1
