CIF file written using JARVIS-Tools package.
data_V4O3F5
_symmetry_space_group_name_H-M  'Imm2'
_cell_length_a       5.63062
_cell_length_b       5.63062
_cell_length_c       5.63062
_cell_angle_alpha    70.2616
_cell_angle_beta     104.748
_cell_angle_gamma    65.9387

_symmetry_Int_Tables_number  44
_chemical_formula_structural  V4O3F5
_chemical_formula_sum  V4O3F5
_cell_volume  136.51338320588167
_cell_formula_units_Z  1
loop_
  _symmetry_equiv_pos_site_id
 _symmetry_equiv_pos_as_xyz
 1  'x, y, z'
loop_
 _atom_site_type_symbol
 _atom_site_label
 _atom_site_symmetry_multiplicity
 _atom_site_fract_x
 _atom_site_fract_y
 _atom_site_fract_z
 _atom_site_fract_occupancy
 F  F1  1  0.05453  0.74616  0.80160  1
 F  F2  1  0.54776  0.25293  0.80160  1
 F  F3  1  0.50000  0.20671  0.29329  1
 F  F4  1  0.45224  0.74616  0.19931  1
 F  F5  1  0.94547  0.25293  0.19931  1
 O  O1  1  0.50000  0.81967  0.68033  1
 O  O2  1  -0.00000  0.28670  0.71330  1
 O  O3  1  -0.00000  0.69704  0.30296  1
 V  V1  1  0.23248  0.25471  0.51281  1
 V  V2  1  0.76752  0.71967  0.51281  1
 V  V3  1  0.50000  0.52699  0.97301  1
 V  V4  1  0.00000  0.99034  0.00966  1
