CIF file written using JARVIS-Tools package.
data_Y2HgAu
_symmetry_space_group_name_H-M  'Immm'
_cell_length_a       12.5992
_cell_length_b       8.90768
_cell_length_c       8.90768
_cell_angle_alpha    33.6315
_cell_angle_beta     19.5177
_cell_angle_gamma    19.5177

_symmetry_Int_Tables_number  71
_chemical_formula_structural  Y2HgAu
_chemical_formula_sum  Y2HgAu
_cell_volume  96.66743192695704
_cell_formula_units_Z  1
loop_
  _symmetry_equiv_pos_site_id
 _symmetry_equiv_pos_as_xyz
 1  'x, y, z'
loop_
 _atom_site_type_symbol
 _atom_site_label
 _atom_site_symmetry_multiplicity
 _atom_site_fract_x
 _atom_site_fract_y
 _atom_site_fract_z
 _atom_site_fract_occupancy
 Au  Au1  1  0.00000  0.00000  0.00000  1
 Hg  Hg1  1  0.50000  -0.00000  0.00000  1
 Y  Y1  1  0.75014  -0.00007  -0.00007  1
 Y  Y2  1  0.24986  0.00007  0.00007  1
