CIF file written using JARVIS-Tools package.
data_Cr3CuO8
_symmetry_space_group_name_H-M  'C2/m'
_cell_length_a       4.93837
_cell_length_b       4.9383
_cell_length_c       6.30186
_cell_angle_alpha    87.8226
_cell_angle_beta     87.8228
_cell_angle_gamma    68.275

_symmetry_Int_Tables_number  12
_chemical_formula_structural  Cr3CuO8
_chemical_formula_sum  Cr3CuO8
_cell_volume  142.6180353568291
_cell_formula_units_Z  1
loop_
  _symmetry_equiv_pos_site_id
 _symmetry_equiv_pos_as_xyz
 1  'x, y, z'
loop_
 _atom_site_type_symbol
 _atom_site_label
 _atom_site_symmetry_multiplicity
 _atom_site_fract_x
 _atom_site_fract_y
 _atom_site_fract_z
 _atom_site_fract_occupancy
 Cr  Cr1  1  0.35507  0.35506  0.73701  1
 Cr  Cr2  1  0.64493  0.64493  0.26299  1
 Cr  Cr3  1  -0.00000  0.00000  0.50000  1
 Cu  Cu1  1  -0.00000  0.00001  0.00001  1
 O  O1  1  0.78412  0.26974  0.27224  1
 O  O2  1  0.24047  0.24045  0.95682  1
 O  O3  1  0.26974  0.78412  0.27225  1
 O  O4  1  0.76840  0.76839  0.46600  1
 O  O5  1  0.73026  0.21589  0.72776  1
 O  O6  1  0.23161  0.23161  0.53399  1
 O  O7  1  0.21587  0.73026  0.72776  1
 O  O8  1  0.75954  0.75953  0.04318  1
