CIF file written using JARVIS-Tools package.
data_LiSiAg2
_symmetry_space_group_name_H-M  'Immm'
_cell_length_a       10.183
_cell_length_b       10.7546
_cell_length_c       10.7546
_cell_angle_alpha    61.177
_cell_angle_beta     61.7431
_cell_angle_gamma    61.7431

_symmetry_Int_Tables_number  71
_chemical_formula_structural  LiSiAg2
_chemical_formula_sum  LiSiAg2
_cell_volume  861.8174559695713
_cell_formula_units_Z  1
loop_
  _symmetry_equiv_pos_site_id
 _symmetry_equiv_pos_as_xyz
 1  'x, y, z'
loop_
 _atom_site_type_symbol
 _atom_site_label
 _atom_site_symmetry_multiplicity
 _atom_site_fract_x
 _atom_site_fract_y
 _atom_site_fract_z
 _atom_site_fract_occupancy
 Ag  Ag1  1  0.73636  0.00000  -0.00000  1
 Ag  Ag2  1  0.26364  -0.00000  0.00000  1
 Li  Li1  1  0.00000  0.00000  0.00000  1
 Si  Si1  1  0.50000  0.00000  -0.00000  1
