CIF file written using JARVIS-Tools package.
data_Mo3O8
_symmetry_space_group_name_H-M  'P6_3mc'
_cell_length_a       5.93293
_cell_length_b       5.93293
_cell_length_c       9.22807
_cell_angle_alpha    90
_cell_angle_beta     90
_cell_angle_gamma    120

_symmetry_Int_Tables_number  186
_chemical_formula_structural  Mo3O8
_chemical_formula_sum  Mo6O6
_cell_volume  281.3066007994519
_cell_formula_units_Z  2
loop_
  _symmetry_equiv_pos_site_id
 _symmetry_equiv_pos_as_xyz
 1  'x, y, z'
loop_
 _atom_site_type_symbol
 _atom_site_label
 _atom_site_symmetry_multiplicity
 _atom_site_fract_x
 _atom_site_fract_y
 _atom_site_fract_z
 _atom_site_fract_occupancy
 Mo  Mo1  1  0.66612  0.83306  0.25046  1
 Mo  Mo2  1  0.83306  0.16694  0.75046  1
 Mo  Mo3  1  0.16694  0.33388  0.25046  1
 Mo  Mo4  1  0.83306  0.66612  0.75046  1
 Mo  Mo5  1  0.33388  0.16694  0.75046  1
 Mo  Mo6  1  0.16694  0.83306  0.25046  1
 O  O1  1  0.84825  0.15175  0.13974  1
 O  O2  1  0.69651  0.84825  0.63974  1
 O  O3  1  0.15175  0.30349  0.63974  1
 O  O4  1  0.84825  0.69651  0.13974  1
 O  O5  1  0.48520  0.51480  0.36150  1
 O  O6  1  0.15175  0.84825  0.63974  1
 O  O7  1  0.30349  0.15175  0.13974  1
 O  O8  1  0.51480  0.02960  0.86150  1
 O  O9  1  0.48520  0.97040  0.36150  1
 O  O10  1  0.51480  0.48520  0.86150  1
 O  O11  1  0.00000  0.00000  0.37003  1
 O  O12  1  0.00000  0.00000  0.87003  1
 O  O13  1  0.33333  0.66667  0.13001  1
 O  O14  1  0.97039  0.48520  0.86150  1
 O  O15  1  0.02960  0.51480  0.36150  1
 O  O16  1  0.66667  0.33333  0.63001  1
