CIF file written using JARVIS-Tools package.
data_PbSO3
_symmetry_space_group_name_H-M  'Pnma'
_cell_length_a       5.52887
_cell_length_b       6.83226
_cell_length_c       7.90867
_cell_angle_alpha    90
_cell_angle_beta     90
_cell_angle_gamma    90

_symmetry_Int_Tables_number  62
_chemical_formula_structural  PbSO3
_chemical_formula_sum  Pb4S4O2
_cell_volume  298.74750347141713
_cell_formula_units_Z  4
loop_
  _symmetry_equiv_pos_site_id
 _symmetry_equiv_pos_as_xyz
 1  'x, y, z'
loop_
 _atom_site_type_symbol
 _atom_site_label
 _atom_site_symmetry_multiplicity
 _atom_site_fract_x
 _atom_site_fract_y
 _atom_site_fract_z
 _atom_site_fract_occupancy
 O  O1  1  0.75000  0.01563  0.31048  1
 O  O2  1  0.02999  0.78488  0.06121  1
 O  O3  1  0.25000  0.51563  0.18952  1
 O  O4  1  0.97001  0.28488  0.43879  1
 O  O5  1  0.47001  0.71512  0.56121  1
 O  O6  1  0.52999  0.21512  0.93879  1
 O  O7  1  0.47001  0.78488  0.06121  1
 O  O8  1  0.02999  0.71512  0.56121  1
 O  O9  1  0.52999  0.28488  0.43879  1
 O  O10  1  0.75000  0.48437  0.81048  1
 O  O11  1  0.25000  0.98437  0.68952  1
 O  O12  1  0.97001  0.21512  0.93879  1
 Pb  Pb1  1  0.25000  0.13374  0.18575  1
 Pb  Pb2  1  0.75000  0.86626  0.81425  1
 Pb  Pb3  1  0.75000  0.63374  0.31425  1
 Pb  Pb4  1  0.25000  0.36626  0.68575  1
 S  S1  1  0.75000  0.14802  0.46639  1
 S  S2  1  0.25000  0.85198  0.53361  1
 S  S3  1  0.25000  0.64802  0.03361  1
 S  S4  1  0.75000  0.35198  0.96639  1
