CIF file written using JARVIS-Tools package.
data_KP
_symmetry_space_group_name_H-M  'R-3m'
_cell_length_a       4.67652
_cell_length_b       4.67652
_cell_length_c       4.68737
_cell_angle_alpha    89.9914
_cell_angle_beta     119.934
_cell_angle_gamma    119.999

_symmetry_Int_Tables_number  166
_chemical_formula_structural  KP
_chemical_formula_sum  KP
_cell_volume  72.56533187651192
_cell_formula_units_Z  1
loop_
  _symmetry_equiv_pos_site_id
 _symmetry_equiv_pos_as_xyz
 1  'x, y, z'
loop_
 _atom_site_type_symbol
 _atom_site_label
 _atom_site_symmetry_multiplicity
 _atom_site_fract_x
 _atom_site_fract_y
 _atom_site_fract_z
 _atom_site_fract_occupancy
 K  K1  1  0.00000  0.00000  0.00000  1
 P  P1  1  -0.00000  0.50000  0.50000  1
