CIF file written using JARVIS-Tools package.
data_BePRu2
_symmetry_space_group_name_H-M  'I4/mmm'
_cell_length_a       9.69412
_cell_length_b       5.43861
_cell_length_c       5.43861
_cell_angle_alpha    37.2571
_cell_angle_beta     26.871
_cell_angle_gamma    26.8711

_symmetry_Int_Tables_number  139
_chemical_formula_structural  BePRu2
_chemical_formula_sum  BePRu2
_cell_volume  58.5773077716529
_cell_formula_units_Z  1
loop_
  _symmetry_equiv_pos_site_id
 _symmetry_equiv_pos_as_xyz
 1  'x, y, z'
loop_
 _atom_site_type_symbol
 _atom_site_label
 _atom_site_symmetry_multiplicity
 _atom_site_fract_x
 _atom_site_fract_y
 _atom_site_fract_z
 _atom_site_fract_occupancy
 Be  Be1  1  0.00000  0.00000  0.00000  1
 P  P1  1  0.50000  -0.00000  -0.00000  1
 Ru  Ru1  1  0.73784  0.00013  0.00013  1
 Ru  Ru2  1  0.26216  -0.00013  -0.00013  1
