CIF file written using JARVIS-Tools package.
data_LiNbCuO4
_symmetry_space_group_name_H-M  'P4_322'
_cell_length_a       5.8046
_cell_length_b       5.8046
_cell_length_c       9.65545
_cell_angle_alpha    90
_cell_angle_beta     90
_cell_angle_gamma    90

_symmetry_Int_Tables_number  95
_chemical_formula_structural  LiNbCuO4
_chemical_formula_sum  Li4Nb4Cu4O6
_cell_volume  325.3248512923244
_cell_formula_units_Z  4
loop_
  _symmetry_equiv_pos_site_id
 _symmetry_equiv_pos_as_xyz
 1  'x, y, z'
loop_
 _atom_site_type_symbol
 _atom_site_label
 _atom_site_symmetry_multiplicity
 _atom_site_fract_x
 _atom_site_fract_y
 _atom_site_fract_z
 _atom_site_fract_occupancy
 Cu  Cu1  1  0.50000  0.75924  0.50000  1
 Cu  Cu2  1  0.24076  0.50000  0.25000  1
 Cu  Cu3  1  0.50000  0.24076  0.00000  1
 Cu  Cu4  1  0.75924  0.50000  0.75000  1
 Li  Li1  1  0.00000  0.24075  0.00000  1
 Li  Li2  1  0.75925  0.00000  0.75000  1
 Li  Li3  1  0.24075  0.00000  0.25000  1
 Li  Li4  1  0.00000  0.75925  0.50000  1
 Nb  Nb1  1  0.25654  0.74346  0.87500  1
 Nb  Nb2  1  0.74346  0.25654  0.37500  1
 Nb  Nb3  1  0.74346  0.74346  0.12500  1
 Nb  Nb4  1  0.25654  0.25654  0.62500  1
 O  O1  1  0.25754  0.51896  0.50986  1
 O  O2  1  0.00578  0.25661  0.25790  1
 O  O3  1  0.99422  0.25661  0.74210  1
 O  O4  1  0.25661  0.00578  0.99210  1
 O  O5  1  0.25661  0.99422  0.50790  1
 O  O6  1  0.25754  0.48104  0.99014  1
 O  O7  1  0.00578  0.74339  0.24210  1
 O  O8  1  0.74339  0.00578  0.00790  1
 O  O9  1  0.51896  0.25754  0.74014  1
 O  O10  1  0.51896  0.74246  0.75986  1
 O  O11  1  0.74246  0.51896  0.49014  1
 O  O12  1  0.74246  0.48104  0.00986  1
 O  O13  1  0.48104  0.25754  0.25986  1
 O  O14  1  0.74339  0.99422  0.49210  1
 O  O15  1  0.48104  0.74246  0.24014  1
 O  O16  1  0.99422  0.74339  0.75790  1
