CIF file written using JARVIS-Tools package.
data_LiNbTe3O12
_symmetry_space_group_name_H-M  'P1'
_cell_length_a       5.08491
_cell_length_b       5.36632
_cell_length_c       7.40508
_cell_angle_alpha    86.0599
_cell_angle_beta     89.9987
_cell_angle_gamma    89.8615

_symmetry_Int_Tables_number  1
_chemical_formula_structural  LiNbTe3O12
_chemical_formula_sum  LiNbTe3O2
_cell_volume  201.58663746864184
_cell_formula_units_Z  1
loop_
  _symmetry_equiv_pos_site_id
 _symmetry_equiv_pos_as_xyz
 1  'x, y, z'
loop_
 _atom_site_type_symbol
 _atom_site_label
 _atom_site_symmetry_multiplicity
 _atom_site_fract_x
 _atom_site_fract_y
 _atom_site_fract_z
 _atom_site_fract_occupancy
 Li  Li1  1  0.00153  0.42477  0.21316  1
 Nb  Nb1  1  0.99530  0.00471  0.99425  1
 O  O1  1  0.68886  0.19579  0.57671  1
 O  O2  1  0.88599  0.02373  0.26093  1
 O  O3  1  0.67451  0.82096  0.94710  1
 O  O4  1  0.12821  0.00868  0.74667  1
 O  O5  1  0.81891  0.69001  0.57404  1
 O  O6  1  0.63742  0.51381  0.25616  1
 O  O7  1  0.36195  0.50821  0.75053  1
 O  O8  1  0.81053  0.33381  0.95520  1
 O  O9  1  0.18859  0.32323  0.43591  1
 O  O10  1  0.30523  0.21161  0.06619  1
 O  O11  1  0.18677  0.68766  0.07208  1
 O  O12  1  0.31619  0.81771  0.43355  1
 Te  Te1  1  0.50405  0.50812  0.50646  1
 Te  Te2  1  0.00151  0.00277  0.50453  1
 Te  Te3  1  0.49443  0.51001  0.99932  1
