CIF file written using JARVIS-Tools package.
data_VO2
_symmetry_space_group_name_H-M  'P1'
_cell_length_a       2.90604
_cell_length_b       2.91424
_cell_length_c       9.4632
_cell_angle_alpha    73.095
_cell_angle_beta     98.3687
_cell_angle_gamma    120.064

_symmetry_Int_Tables_number  1
_chemical_formula_structural  VO2
_chemical_formula_sum  V2O4
_cell_volume  66.36406253815865
_cell_formula_units_Z  2
loop_
  _symmetry_equiv_pos_site_id
 _symmetry_equiv_pos_as_xyz
 1  'x, y, z'
loop_
 _atom_site_type_symbol
 _atom_site_label
 _atom_site_symmetry_multiplicity
 _atom_site_fract_x
 _atom_site_fract_y
 _atom_site_fract_z
 _atom_site_fract_occupancy
 O  O1  1  0.83065  0.50906  0.39325  1
 O  O2  1  0.49470  0.13591  0.11083  1
 O  O3  1  0.49941  0.63770  0.61088  1
 O  O4  1  0.16370  0.67658  0.89320  1
 V  V1  1  0.16690  0.10307  0.50220  1
 V  V2  1  -0.16869  -0.06388  0.00210  1
