CIF file written using JARVIS-Tools package.
data_Al3Bi5Br12
_symmetry_space_group_name_H-M  'R-3c'
_cell_length_a       12.5868
_cell_length_b       12.5868
_cell_length_c       12.5868
_cell_angle_alpha    58.5565
_cell_angle_beta     58.5565
_cell_angle_gamma    58.5565

_symmetry_Int_Tables_number  167
_chemical_formula_structural  Al3Bi5Br12
_chemical_formula_sum  Al6Bi0Br24
_cell_volume  1363.5037001389398
_cell_formula_units_Z  2
loop_
  _symmetry_equiv_pos_site_id
 _symmetry_equiv_pos_as_xyz
 1  'x, y, z'
loop_
 _atom_site_type_symbol
 _atom_site_label
 _atom_site_symmetry_multiplicity
 _atom_site_fract_x
 _atom_site_fract_y
 _atom_site_fract_z
 _atom_site_fract_occupancy
 Al  Al1  1  0.76990  0.73010  0.25000  1
 Al  Al2  1  0.25000  0.76990  0.73010  1
 Al  Al3  1  0.23010  0.26990  0.75000  1
 Al  Al4  1  0.26990  0.75000  0.23010  1
 Al  Al5  1  0.73010  0.25000  0.76990  1
 Al  Al6  1  0.75000  0.23010  0.26990  1
 Bi  Bi1  1  0.90532  0.75000  0.59468  1
 Bi  Bi2  1  0.17269  0.17269  0.17269  1
 Bi  Bi3  1  0.82731  0.82731  0.82731  1
 Bi  Bi4  1  0.59468  0.90532  0.75000  1
 Bi  Bi5  1  0.67269  0.67269  0.67269  1
 Bi  Bi6  1  0.75000  0.59468  0.90532  1
 Bi  Bi7  1  0.40532  0.09468  0.25000  1
 Bi  Bi8  1  0.09468  0.25000  0.40532  1
 Bi  Bi9  1  0.25000  0.40532  0.09468  1
 Bi  Bi10  1  0.32731  0.32731  0.32731  1
 Br  Br1  1  0.56768  0.19076  0.46038  1
 Br  Br2  1  0.20056  0.59565  0.77138  1
 Br  Br3  1  0.06768  0.96038  0.69076  1
 Br  Br4  1  0.40435  0.22862  0.79944  1
 Br  Br5  1  0.43232  0.80924  0.53962  1
 Br  Br6  1  0.22862  0.79944  0.40435  1
 Br  Br7  1  0.53962  0.43232  0.80924  1
 Br  Br8  1  0.46038  0.56768  0.19076  1
 Br  Br9  1  0.70056  0.27138  0.09565  1
 Br  Br10  1  0.77138  0.20056  0.59565  1
 Br  Br11  1  0.80924  0.53962  0.43232  1
 Br  Br12  1  0.03962  0.30924  0.93232  1
 Br  Br13  1  0.96038  0.69076  0.06768  1
 Br  Br14  1  0.90435  0.29944  0.72862  1
 Br  Br15  1  0.93232  0.03962  0.30924  1
 Br  Br16  1  0.19076  0.46038  0.56768  1
 Br  Br17  1  0.29944  0.72862  0.90435  1
 Br  Br18  1  0.69076  0.06768  0.96038  1
 Br  Br19  1  0.09565  0.70056  0.27138  1
 Br  Br20  1  0.79944  0.40435  0.22862  1
 Br  Br21  1  0.59565  0.77138  0.20056  1
 Br  Br22  1  0.30924  0.93232  0.03962  1
 Br  Br23  1  0.72862  0.90435  0.29944  1
 Br  Br24  1  0.27138  0.09565  0.70056  1
