CIF file written using JARVIS-Tools package.
data_NbI3
_symmetry_space_group_name_H-M  'P6_3/mcm'
_cell_length_a       7.15604
_cell_length_b       7.15604
_cell_length_c       6.54775
_cell_angle_alpha    90
_cell_angle_beta     90
_cell_angle_gamma    120

_symmetry_Int_Tables_number  193
_chemical_formula_structural  NbI3
_chemical_formula_sum  Nb2I6
_cell_volume  290.3810808485827
_cell_formula_units_Z  2
loop_
  _symmetry_equiv_pos_site_id
 _symmetry_equiv_pos_as_xyz
 1  'x, y, z'
loop_
 _atom_site_type_symbol
 _atom_site_label
 _atom_site_symmetry_multiplicity
 _atom_site_fract_x
 _atom_site_fract_y
 _atom_site_fract_z
 _atom_site_fract_occupancy
 I  I1  1  0.67432  0.00000  0.75000  1
 I  I2  1  -0.00000  0.32568  0.25000  1
 I  I3  1  0.32568  0.00000  0.25000  1
 I  I4  1  0.00000  0.67432  0.75000  1
 I  I5  1  0.67432  0.67432  0.25000  1
 I  I6  1  0.32568  0.32568  0.75000  1
 Nb  Nb1  1  0.00000  0.00000  0.00000  1
 Nb  Nb2  1  0.00000  0.00000  0.50000  1
