CIF file written using JARVIS-Tools package.
data_TmClO
_symmetry_space_group_name_H-M  'R-3m'
_cell_length_a       3.72787
_cell_length_b       9.49842
_cell_length_c       3.72787
_cell_angle_alpha    101.317
_cell_angle_beta     60.0001
_cell_angle_gamma    101.317

_symmetry_Int_Tables_number  166
_chemical_formula_structural  TmClO
_chemical_formula_sum  Tm2Cl2O2
_cell_volume  111.3414313177979
_cell_formula_units_Z  2
loop_
  _symmetry_equiv_pos_site_id
 _symmetry_equiv_pos_as_xyz
 1  'x, y, z'
loop_
 _atom_site_type_symbol
 _atom_site_label
 _atom_site_symmetry_multiplicity
 _atom_site_fract_x
 _atom_site_fract_y
 _atom_site_fract_z
 _atom_site_fract_occupancy
 Cl  Cl1  1  0.11270  0.33809  0.11270  1
 Cl  Cl2  1  0.88730  0.66191  0.88730  1
 O  O1  1  0.36347  0.09042  0.36347  1
 O  O2  1  0.63653  0.90958  0.63653  1
 Tm  Tm1  1  0.28260  0.84779  0.28260  1
 Tm  Tm2  1  0.71740  0.15221  0.71740  1
