CIF file written using JARVIS-Tools package.
data_CaNi2O4
_symmetry_space_group_name_H-M  'I4_1/amd'
_cell_length_a       5.67999
_cell_length_b       5.67998
_cell_length_c       6.36958
_cell_angle_alpha    116.479
_cell_angle_beta     116.479
_cell_angle_gamma    90

_symmetry_Int_Tables_number  141
_chemical_formula_structural  CaNi2O4
_chemical_formula_sum  Ca2Ni4O8
_cell_volume  159.49555100184924
_cell_formula_units_Z  2
loop_
  _symmetry_equiv_pos_site_id
 _symmetry_equiv_pos_as_xyz
 1  'x, y, z'
loop_
 _atom_site_type_symbol
 _atom_site_label
 _atom_site_symmetry_multiplicity
 _atom_site_fract_x
 _atom_site_fract_y
 _atom_site_fract_z
 _atom_site_fract_occupancy
 Ca  Ca1  1  0.37500  0.62500  0.75000  1
 Ca  Ca2  1  0.62500  0.37500  0.25000  1
 Ni  Ni1  1  0.00000  0.00000  0.50000  1
 Ni  Ni2  1  -0.00000  0.50000  -0.00000  1
 Ni  Ni3  1  0.50000  -0.00000  0.50000  1
 Ni  Ni4  1  0.00000  0.00000  0.00000  1
 O  O1  1  0.77814  0.80837  0.55629  1
 O  O2  1  0.75208  0.22186  0.94371  1
 O  O3  1  0.19163  0.22186  0.94371  1
 O  O4  1  0.22186  0.19163  0.44371  1
 O  O5  1  0.22186  0.75208  0.44371  1
 O  O6  1  0.24792  0.77814  0.05629  1
 O  O7  1  0.77814  0.24792  0.55629  1
 O  O8  1  0.80837  0.77814  0.05629  1
