CIF file written using JARVIS-Tools package.
data_CaZn2P2O2
_symmetry_space_group_name_H-M  'P-3m1'
_cell_length_a       4.49183
_cell_length_b       4.49129
_cell_length_c       6.9742
_cell_angle_alpha    90
_cell_angle_beta     89.9969
_cell_angle_gamma    119.996

_symmetry_Int_Tables_number  164
_chemical_formula_structural  CaZn2P2O2
_chemical_formula_sum  CaZn2P2O2
_cell_volume  121.85282962979147
_cell_formula_units_Z  1
loop_
  _symmetry_equiv_pos_site_id
 _symmetry_equiv_pos_as_xyz
 1  'x, y, z'
loop_
 _atom_site_type_symbol
 _atom_site_label
 _atom_site_symmetry_multiplicity
 _atom_site_fract_x
 _atom_site_fract_y
 _atom_site_fract_z
 _atom_site_fract_occupancy
 Ca  Ca1  1  0.00000  0.00000  0.00000  1
 O  O1  1  0.33326  0.66663  0.52639  1
 O  O2  1  0.66674  0.33337  0.47361  1
 P  P1  1  0.33333  0.66666  0.74910  1
 P  P2  1  0.66667  0.33334  0.25090  1
 Zn  Zn1  1  0.33337  0.66668  0.25180  1
 Zn  Zn2  1  0.66663  0.33332  0.74820  1
