CIF file written using JARVIS-Tools package.
data_NiH2O2
_symmetry_space_group_name_H-M  'P-3m1'
_cell_length_a       5.48212
_cell_length_b       5.48212
_cell_length_c       4.48325
_cell_angle_alpha    35.1467
_cell_angle_beta     35.1467
_cell_angle_gamma    33.4536

_symmetry_Int_Tables_number  164
_chemical_formula_structural  NiH2O2
_chemical_formula_sum  NiH2O2
_cell_volume  38.66726686879086
_cell_formula_units_Z  1
loop_
  _symmetry_equiv_pos_site_id
 _symmetry_equiv_pos_as_xyz
 1  'x, y, z'
loop_
 _atom_site_type_symbol
 _atom_site_label
 _atom_site_symmetry_multiplicity
 _atom_site_fract_x
 _atom_site_fract_y
 _atom_site_fract_z
 _atom_site_fract_occupancy
 H  H1  1  0.60946  0.72388  0.22440  1
 H  H2  1  0.27612  0.39054  0.77560  1
 Ni  Ni1  1  0.94289  0.05711  -0.00000  1
 O  O1  1  0.60951  0.72380  0.44279  1
 O  O2  1  0.27620  0.39049  0.55721  1
