CIF file written using JARVIS-Tools package.
data_Ba2CaWO6
_symmetry_space_group_name_H-M  'C2/m'
_cell_length_a       6.00511
_cell_length_b       5.98271
_cell_length_c       5.98271
_cell_angle_alpha    59.8779
_cell_angle_beta     59.805
_cell_angle_gamma    59.805

_symmetry_Int_Tables_number  12
_chemical_formula_structural  Ba2CaWO6
_chemical_formula_sum  Ba2CaWO6
_cell_volume  151.3963154623909
_cell_formula_units_Z  1
loop_
  _symmetry_equiv_pos_site_id
 _symmetry_equiv_pos_as_xyz
 1  'x, y, z'
loop_
 _atom_site_type_symbol
 _atom_site_label
 _atom_site_symmetry_multiplicity
 _atom_site_fract_x
 _atom_site_fract_y
 _atom_site_fract_z
 _atom_site_fract_occupancy
 Ba  Ba1  1  0.25068  0.75022  0.75022  1
 Ba  Ba2  1  0.74932  0.24978  0.24978  1
 Ca  Ca1  1  0.50000  1.00000  0.00000  1
 O  O1  1  0.75271  0.74920  0.28908  1
 O  O2  1  0.24729  0.71092  0.25080  1
 O  O3  1  0.24729  0.25080  0.71092  1
 O  O4  1  0.75271  0.28908  0.74920  1
 O  O5  1  0.19164  0.27113  0.27113  1
 O  O6  1  0.80836  0.72887  0.72887  1
 W  W1  1  -0.00000  0.50000  0.50000  1
