CIF file written using JARVIS-Tools package.
data_SrCdAu2
_symmetry_space_group_name_H-M  'I4/mmm'
_cell_length_a       11.6386
_cell_length_b       6.57171
_cell_length_c       6.5717
_cell_angle_alpha    38.3494
_cell_angle_beta     27.6857
_cell_angle_gamma    27.6858

_symmetry_Int_Tables_number  139
_chemical_formula_structural  SrCdAu2
_chemical_formula_sum  SrCdAu2
_cell_volume  108.50653782780218
_cell_formula_units_Z  1
loop_
  _symmetry_equiv_pos_site_id
 _symmetry_equiv_pos_as_xyz
 1  'x, y, z'
loop_
 _atom_site_type_symbol
 _atom_site_label
 _atom_site_symmetry_multiplicity
 _atom_site_fract_x
 _atom_site_fract_y
 _atom_site_fract_z
 _atom_site_fract_occupancy
 Au  Au1  1  0.73303  -0.00000  -0.00000  1
 Au  Au2  1  0.26697  0.00000  0.00000  1
 Cd  Cd1  1  0.50000  -0.00000  0.00000  1
 Sr  Sr1  1  0.00000  0.00000  0.00000  1
