CIF file written using JARVIS-Tools package.
data_Tb2S3
_symmetry_space_group_name_H-M  'Pnma'
_cell_length_a       3.88342
_cell_length_b       10.4684
_cell_length_c       10.6844
_cell_angle_alpha    90
_cell_angle_beta     90
_cell_angle_gamma    90

_symmetry_Int_Tables_number  62
_chemical_formula_structural  Tb2S3
_chemical_formula_sum  Tb8S2
_cell_volume  434.35504275814924
_cell_formula_units_Z  4
loop_
  _symmetry_equiv_pos_site_id
 _symmetry_equiv_pos_as_xyz
 1  'x, y, z'
loop_
 _atom_site_type_symbol
 _atom_site_label
 _atom_site_symmetry_multiplicity
 _atom_site_fract_x
 _atom_site_fract_y
 _atom_site_fract_z
 _atom_site_fract_occupancy
 S  S1  1  0.25000  0.87369  0.04582  1
 S  S2  1  0.25000  0.30245  0.72794  1
 S  S3  1  0.75000  0.37369  0.45418  1
 S  S4  1  0.75000  0.80245  0.77206  1
 S  S5  1  0.25000  0.19755  0.22794  1
 S  S6  1  0.75000  0.69755  0.27206  1
 S  S7  1  0.75000  0.05571  0.61956  1
 S  S8  1  0.75000  0.44429  0.11956  1
 S  S9  1  0.25000  0.55571  0.88044  1
 S  S10  1  0.25000  0.62631  0.54582  1
 S  S11  1  0.75000  0.12631  0.95418  1
 S  S12  1  0.25000  0.94429  0.38044  1
 Tb  Tb1  1  0.25000  0.31317  0.98943  1
 Tb  Tb2  1  0.75000  0.68683  0.01057  1
 Tb  Tb3  1  0.75000  0.81317  0.51057  1
 Tb  Tb4  1  0.25000  0.18683  0.48943  1
 Tb  Tb5  1  0.25000  0.50339  0.30736  1
 Tb  Tb6  1  0.75000  0.49661  0.69264  1
 Tb  Tb7  1  0.75000  0.00339  0.19264  1
 Tb  Tb8  1  0.25000  0.99661  0.80736  1
