CIF file written using JARVIS-Tools package.
data_NaV2O5
_symmetry_space_group_name_H-M  'Pmmn'
_cell_length_a       3.6126
_cell_length_b       4.80427
_cell_length_c       11.3674
_cell_angle_alpha    90
_cell_angle_beta     90
_cell_angle_gamma    90

_symmetry_Int_Tables_number  59
_chemical_formula_structural  NaV2O5
_chemical_formula_sum  Na2V4O0
_cell_volume  197.29233921646917
_cell_formula_units_Z  2
loop_
  _symmetry_equiv_pos_site_id
 _symmetry_equiv_pos_as_xyz
 1  'x, y, z'
loop_
 _atom_site_type_symbol
 _atom_site_label
 _atom_site_symmetry_multiplicity
 _atom_site_fract_x
 _atom_site_fract_y
 _atom_site_fract_z
 _atom_site_fract_occupancy
 Na  Na1  1  0.50000  0.86074  0.00000  1
 Na  Na2  1  0.00000  0.13926  0.50000  1
 O  O1  1  0.00000  0.04970  0.13497  1
 O  O2  1  0.50000  0.51030  0.82180  1
 O  O3  1  0.00000  0.48970  0.32180  1
 O  O4  1  0.50000  0.51030  0.17820  1
 O  O5  1  0.00000  0.51444  0.00000  1
 O  O6  1  0.50000  0.95030  0.36503  1
 O  O7  1  0.00000  0.04970  0.86503  1
 O  O8  1  0.50000  0.95030  0.63497  1
 O  O9  1  0.00000  0.48970  0.67820  1
 O  O10  1  0.50000  0.48556  0.50000  1
 V  V1  1  0.50000  0.61118  0.34858  1
 V  V2  1  0.00000  0.38882  0.15142  1
 V  V3  1  0.50000  0.61118  0.65142  1
 V  V4  1  0.00000  0.38882  0.84858  1
