CIF file written using JARVIS-Tools package.
data_AuBrO2
_symmetry_space_group_name_H-M  'C222_1'
_cell_length_a       3.92481
_cell_length_b       6.51562
_cell_length_c       6.51562
_cell_angle_alpha    110.507
_cell_angle_beta     90
_cell_angle_gamma    90

_symmetry_Int_Tables_number  20
_chemical_formula_structural  AuBrO2
_chemical_formula_sum  Au2Br2O4
_cell_volume  156.0626388423751
_cell_formula_units_Z  2
loop_
  _symmetry_equiv_pos_site_id
 _symmetry_equiv_pos_as_xyz
 1  'x, y, z'
loop_
 _atom_site_type_symbol
 _atom_site_label
 _atom_site_symmetry_multiplicity
 _atom_site_fract_x
 _atom_site_fract_y
 _atom_site_fract_z
 _atom_site_fract_occupancy
 Au  Au1  1  0.50000  0.26248  0.26248  1
 Au  Au2  1  0.00000  0.73752  0.73752  1
 Br  Br1  1  0.25000  0.35563  0.64437  1
 Br  Br2  1  0.75000  0.64437  0.35563  1
 O  O1  1  0.71024  0.02026  0.80455  1
 O  O2  1  0.78976  0.19545  0.97974  1
 O  O3  1  0.28976  0.80455  0.02026  1
 O  O4  1  0.21024  0.97974  0.19545  1
