CIF file written using JARVIS-Tools package.
data_Li2SnPb
_symmetry_space_group_name_H-M  'Fm-3m'
_cell_length_a       12.0898
_cell_length_b       8.5488
_cell_length_c       8.54881
_cell_angle_alpha    33.5615
_cell_angle_beta     19.4727
_cell_angle_gamma    19.4727

_symmetry_Int_Tables_number  225
_chemical_formula_structural  Li2SnPb
_chemical_formula_sum  Li2SnPb
_cell_volume  85.02376296490056
_cell_formula_units_Z  1
loop_
  _symmetry_equiv_pos_site_id
 _symmetry_equiv_pos_as_xyz
 1  'x, y, z'
loop_
 _atom_site_type_symbol
 _atom_site_label
 _atom_site_symmetry_multiplicity
 _atom_site_fract_x
 _atom_site_fract_y
 _atom_site_fract_z
 _atom_site_fract_occupancy
 Li  Li1  1  0.75039  0.99975  0.99975  1
 Li  Li2  1  0.24961  0.00025  0.00025  1
 Pb  Pb1  1  0.50000  0.00000  -0.00000  1
 Sn  Sn1  1  0.00000  0.00000  0.00000  1
