CIF file written using JARVIS-Tools package.
data_Sr3Fe2Cl2O5
_symmetry_space_group_name_H-M  'I4/mmm'
_cell_length_a       3.9157
_cell_length_b       3.91569
_cell_length_c       12.2765
_cell_angle_alpha    99.1762
_cell_angle_beta     99.1762
_cell_angle_gamma    90.0027

_symmetry_Int_Tables_number  139
_chemical_formula_structural  Sr3Fe2Cl2O5
_chemical_formula_sum  Sr3Fe2Cl2O5
_cell_volume  183.38214869091436
_cell_formula_units_Z  1
loop_
  _symmetry_equiv_pos_site_id
 _symmetry_equiv_pos_as_xyz
 1  'x, y, z'
loop_
 _atom_site_type_symbol
 _atom_site_label
 _atom_site_symmetry_multiplicity
 _atom_site_fract_x
 _atom_site_fract_y
 _atom_site_fract_z
 _atom_site_fract_occupancy
 Cl  Cl1  1  0.20508  0.20508  0.41017  1
 Cl  Cl2  1  0.79492  0.79492  0.58983  1
 Fe  Fe1  1  0.92066  0.92066  0.84132  1
 Fe  Fe2  1  0.07934  0.07934  0.15868  1
 O  O1  1  0.91227  0.41227  0.82454  1
 O  O2  1  0.41227  0.91227  0.82454  1
 O  O3  1  0.08773  0.58773  0.17546  1
 O  O4  1  0.00000  0.00000  0.00000  1
 O  O5  1  0.58773  0.08773  0.17546  1
 Sr  Sr1  1  0.65579  0.65579  0.31160  1
 Sr  Sr2  1  0.34421  0.34421  0.68840  1
 Sr  Sr3  1  0.50000  0.50000  -0.00000  1
