CIF file written using JARVIS-Tools package.
data_OsCl4
_symmetry_space_group_name_H-M  'Cmmm'
_cell_length_a       3.58187
_cell_length_b       5.65328
_cell_length_c       5.65327
_cell_angle_alpha    89.9864
_cell_angle_beta     90
_cell_angle_gamma    90

_symmetry_Int_Tables_number  65
_chemical_formula_structural  OsCl4
_chemical_formula_sum  OsCl4
_cell_volume  114.4747761831601
_cell_formula_units_Z  1
loop_
  _symmetry_equiv_pos_site_id
 _symmetry_equiv_pos_as_xyz
 1  'x, y, z'
loop_
 _atom_site_type_symbol
 _atom_site_label
 _atom_site_symmetry_multiplicity
 _atom_site_fract_x
 _atom_site_fract_y
 _atom_site_fract_z
 _atom_site_fract_occupancy
 Cl  Cl1  1  0.00000  0.71406  0.71406  1
 Cl  Cl2  1  0.50000  0.80317  0.19683  1
 Cl  Cl3  1  0.50000  0.19683  0.80317  1
 Cl  Cl4  1  0.00000  0.28594  0.28594  1
 Os  Os1  1  0.00000  0.00000  0.00000  1
