CIF file written using JARVIS-Tools package.
data_PBr7
_symmetry_space_group_name_H-M  'Pnma'
_cell_length_a       7.59362
_cell_length_b       9.58391
_cell_length_c       14.2501
_cell_angle_alpha    90
_cell_angle_beta     90
_cell_angle_gamma    90

_symmetry_Int_Tables_number  62
_chemical_formula_structural  PBr7
_chemical_formula_sum  P4Br28
_cell_volume  1037.0742608174096
_cell_formula_units_Z  4
loop_
  _symmetry_equiv_pos_site_id
 _symmetry_equiv_pos_as_xyz
 1  'x, y, z'
loop_
 _atom_site_type_symbol
 _atom_site_label
 _atom_site_symmetry_multiplicity
 _atom_site_fract_x
 _atom_site_fract_y
 _atom_site_fract_z
 _atom_site_fract_occupancy
 Br  Br1  1  0.75000  0.19449  0.37493  1
 Br  Br2  1  0.25000  0.80551  0.62507  1
 Br  Br3  1  0.75000  0.42378  0.30034  1
 Br  Br4  1  0.75000  0.42509  0.80635  1
 Br  Br5  1  0.97997  0.25785  0.61400  1
 Br  Br6  1  0.25000  0.07622  0.80034  1
 Br  Br7  1  0.02003  0.24215  0.11400  1
 Br  Br8  1  0.25000  0.07491  0.30635  1
 Br  Br9  1  0.25000  0.56052  0.97341  1
 Br  Br10  1  0.75000  0.07985  0.92239  1
 Br  Br11  1  0.02003  0.74215  0.38600  1
 Br  Br12  1  0.25000  0.42015  0.42239  1
 Br  Br13  1  0.25000  0.57491  0.19365  1
 Br  Br14  1  0.75000  0.92509  0.69365  1
 Br  Br15  1  0.75000  0.69449  0.12507  1
 Br  Br16  1  0.47997  0.74215  0.38600  1
 Br  Br17  1  0.25000  0.92015  0.07761  1
 Br  Br18  1  0.75000  0.93948  0.47341  1
 Br  Br19  1  0.47997  0.24215  0.11400  1
 Br  Br20  1  0.25000  0.06052  0.52659  1
 Br  Br21  1  0.25000  0.30551  0.87493  1
 Br  Br22  1  0.75000  0.92378  0.19966  1
 Br  Br23  1  0.75000  0.57985  0.57761  1
 Br  Br24  1  0.25000  0.57622  0.69966  1
 Br  Br25  1  0.52003  0.25785  0.61400  1
 Br  Br26  1  0.75000  0.43948  0.02659  1
 Br  Br27  1  0.52003  0.75785  0.88600  1
 Br  Br28  1  0.97997  0.75785  0.88600  1
 P  P1  1  0.25000  0.61725  0.34514  1
 P  P2  1  0.25000  0.11725  0.15486  1
 P  P3  1  0.75000  0.88275  0.84514  1
 P  P4  1  0.75000  0.38275  0.65486  1
