CIF file written using JARVIS-Tools package.
data_Ag2S
_symmetry_space_group_name_H-M  'Cmcm'
_cell_length_a       4.22959
_cell_length_b       4.2296
_cell_length_c       8.80147
_cell_angle_alpha    107.853
_cell_angle_beta     107.841
_cell_angle_gamma    111.238

_symmetry_Int_Tables_number  63
_chemical_formula_structural  Ag2S
_chemical_formula_sum  Ag4S2
_cell_volume  123.26421301361582
_cell_formula_units_Z  2
loop_
  _symmetry_equiv_pos_site_id
 _symmetry_equiv_pos_as_xyz
 1  'x, y, z'
loop_
 _atom_site_type_symbol
 _atom_site_label
 _atom_site_symmetry_multiplicity
 _atom_site_fract_x
 _atom_site_fract_y
 _atom_site_fract_z
 _atom_site_fract_occupancy
 Ag  Ag1  1  0.04170  0.58340  0.31255  1
 Ag  Ag2  1  0.54174  0.08330  0.81252  1
 Ag  Ag3  1  0.40655  0.71827  0.06241  1
 Ag  Ag4  1  0.67658  0.44823  0.56240  1
 S  S1  1  0.06731  0.05786  0.56258  1
 S  S2  1  0.01613  0.10894  0.06253  1
