CIF file written using JARVIS-Tools package.
data_RbSO4F
_symmetry_space_group_name_H-M  'P-1'
_cell_length_a       5.4924
_cell_length_b       5.51368
_cell_length_c       7.47251
_cell_angle_alpha    100.605
_cell_angle_beta     105.696
_cell_angle_gamma    93.4723

_symmetry_Int_Tables_number  2
_chemical_formula_structural  RbSO4F
_chemical_formula_sum  Rb2S2O8F2
_cell_volume  212.67170231814865
_cell_formula_units_Z  2
loop_
  _symmetry_equiv_pos_site_id
 _symmetry_equiv_pos_as_xyz
 1  'x, y, z'
loop_
 _atom_site_type_symbol
 _atom_site_label
 _atom_site_symmetry_multiplicity
 _atom_site_fract_x
 _atom_site_fract_y
 _atom_site_fract_z
 _atom_site_fract_occupancy
 F  F1  1  0.79624  0.14901  0.48870  1
 F  F2  1  0.20376  0.85099  0.51130  1
 O  O1  1  0.16060  0.18564  0.85658  1
 O  O2  1  0.64857  0.61580  0.34591  1
 O  O3  1  0.37130  0.73893  0.06785  1
 O  O4  1  0.35143  0.38420  0.65409  1
 O  O5  1  0.56892  0.05401  0.31769  1
 O  O6  1  0.43108  0.94599  0.68231  1
 O  O7  1  0.83940  0.81436  0.14342  1
 O  O8  1  0.62870  0.26107  0.93215  1
 Rb  Rb1  1  0.10795  0.33623  0.24527  1
 Rb  Rb2  1  0.89205  0.66377  0.75473  1
 S  S1  1  0.38181  0.22530  0.79078  1
 S  S2  1  0.61819  0.77470  0.20922  1
