CIF file written using JARVIS-Tools package.
data_AlPO4
_symmetry_space_group_name_H-M  'I-4m2'
_cell_length_a       4.51957
_cell_length_b       4.51956
_cell_length_c       5.70437
_cell_angle_alpha    113.338
_cell_angle_beta     113.338
_cell_angle_gamma    90.0001

_symmetry_Int_Tables_number  119
_chemical_formula_structural  AlPO4
_chemical_formula_sum  AlPO4
_cell_volume  96.51729484071512
_cell_formula_units_Z  1
loop_
  _symmetry_equiv_pos_site_id
 _symmetry_equiv_pos_as_xyz
 1  'x, y, z'
loop_
 _atom_site_type_symbol
 _atom_site_label
 _atom_site_symmetry_multiplicity
 _atom_site_fract_x
 _atom_site_fract_y
 _atom_site_fract_z
 _atom_site_fract_occupancy
 Al  Al1  1  0.00000  0.00000  0.00000  1
 O  O1  1  -0.00685  0.16820  0.33641  1
 O  O2  1  0.34326  0.16820  0.33641  1
 O  O3  1  0.83180  0.00685  0.66359  1
 O  O4  1  0.83180  0.65674  0.66359  1
 P  P1  1  0.25000  0.75000  0.50000  1
