CIF file written using JARVIS-Tools package.
data_Sc
_symmetry_space_group_name_H-M  'Fm-3m'
_cell_length_a       3.23034
_cell_length_b       3.22854
_cell_length_c       3.23126
_cell_angle_alpha    119.939
_cell_angle_beta     60.0137
_cell_angle_gamma    89.9824

_symmetry_Int_Tables_number  225
_chemical_formula_structural  Sc
_chemical_formula_sum  Sc
_cell_volume  23.852545653249575
_cell_formula_units_Z  1
loop_
  _symmetry_equiv_pos_site_id
 _symmetry_equiv_pos_as_xyz
 1  'x, y, z'
loop_
 _atom_site_type_symbol
 _atom_site_label
 _atom_site_symmetry_multiplicity
 _atom_site_fract_x
 _atom_site_fract_y
 _atom_site_fract_z
 _atom_site_fract_occupancy
 Sc  Sc1  1  0.99992  0.00003  0.00002  1
