CIF file written using JARVIS-Tools package.
data_BaSi2Ni2
_symmetry_space_group_name_H-M  'Cmcm'
_cell_length_a       4.22673
_cell_length_b       4.22673
_cell_length_c       11.4238
_cell_angle_alpha    90
_cell_angle_beta     90
_cell_angle_gamma    100.439

_symmetry_Int_Tables_number  63
_chemical_formula_structural  BaSi2Ni2
_chemical_formula_sum  Ba2Si4Ni4
_cell_volume  200.7104089742117
_cell_formula_units_Z  2
loop_
  _symmetry_equiv_pos_site_id
 _symmetry_equiv_pos_as_xyz
 1  'x, y, z'
loop_
 _atom_site_type_symbol
 _atom_site_label
 _atom_site_symmetry_multiplicity
 _atom_site_fract_x
 _atom_site_fract_y
 _atom_site_fract_z
 _atom_site_fract_occupancy
 Ba  Ba1  1  0.79474  0.79474  0.75000  1
 Ba  Ba2  1  0.20526  0.20526  0.25000  1
 Ni  Ni1  1  0.79547  0.20453  0.00000  1
 Ni  Ni2  1  0.20453  0.79547  0.50000  1
 Ni  Ni3  1  0.79547  0.20453  0.50000  1
 Ni  Ni4  1  0.20453  0.79547  0.00000  1
 Si  Si1  1  0.69037  0.69037  0.43181  1
 Si  Si2  1  0.30963  0.30963  0.93181  1
 Si  Si3  1  0.69037  0.69037  0.06819  1
 Si  Si4  1  0.30963  0.30963  0.56819  1
