CIF file written using JARVIS-Tools package.
data_Te4MoW
_symmetry_space_group_name_H-M  'P-3m1'
_cell_length_a       3.56876
_cell_length_b       3.56878
_cell_length_c       38.0594
_cell_angle_alpha    90.001
_cell_angle_beta     89.9997
_cell_angle_gamma    120

_symmetry_Int_Tables_number  164
_chemical_formula_structural  Te4MoW
_chemical_formula_sum  Te8Mo2W2
_cell_volume  419.7899695595675
_cell_formula_units_Z  2
loop_
  _symmetry_equiv_pos_site_id
 _symmetry_equiv_pos_as_xyz
 1  'x, y, z'
loop_
 _atom_site_type_symbol
 _atom_site_label
 _atom_site_symmetry_multiplicity
 _atom_site_fract_x
 _atom_site_fract_y
 _atom_site_fract_z
 _atom_site_fract_occupancy
 Mo  Mo1  1  0.33332  0.66663  0.09456  1
 Mo  Mo2  1  0.66668  0.33337  0.65690  1
 Te  Te1  1  0.33333  0.66668  0.32968  1
 Te  Te2  1  0.33336  0.66673  0.70444  1
 Te  Te3  1  0.66664  0.33327  0.04702  1
 Te  Te4  1  0.66667  0.33332  0.42178  1
 Te  Te5  1  0.66666  0.33332  0.14218  1
 Te  Te6  1  0.66666  0.33331  0.51732  1
 Te  Te7  1  0.33334  0.66669  0.23414  1
 Te  Te8  1  0.33334  0.66668  0.60928  1
 W  W1  1  0.33333  0.66665  0.46955  1
 W  W2  1  0.66667  0.33335  0.28191  1
