CIF file written using JARVIS-Tools package.
data_Li4CO4
_symmetry_space_group_name_H-M  'Cm'
_cell_length_a       4.45724
_cell_length_b       4.39842
_cell_length_c       4.39842
_cell_angle_alpha    90.0232
_cell_angle_beta     89.7776
_cell_angle_gamma    89.7762

_symmetry_Int_Tables_number  8
_chemical_formula_structural  Li4CO4
_chemical_formula_sum  Li4CO4
_cell_volume  86.22917508534933
_cell_formula_units_Z  1
loop_
  _symmetry_equiv_pos_site_id
 _symmetry_equiv_pos_as_xyz
 1  'x, y, z'
loop_
 _atom_site_type_symbol
 _atom_site_label
 _atom_site_symmetry_multiplicity
 _atom_site_fract_x
 _atom_site_fract_y
 _atom_site_fract_z
 _atom_site_fract_occupancy
 C  C1  1  0.50422  0.00466  0.00466  1
 Li  Li1  1  0.00433  0.50504  0.00529  1
 Li  Li2  1  0.50432  0.00288  0.50447  1
 Li  Li3  1  0.00433  0.00529  0.50504  1
 Li  Li4  1  0.50432  0.50447  0.00287  1
 O  O1  1  0.69255  0.19033  0.19033  1
 O  O2  1  0.31489  0.81870  0.19077  1
 O  O3  1  0.69460  0.81811  0.81811  1
 O  O4  1  0.31488  0.19077  0.81870  1
