CIF file written using JARVIS-Tools package.
data_Tb
_symmetry_space_group_name_H-M  'R-3m'
_cell_length_a       3.54756
_cell_length_b       3.54756
_cell_length_c       8.75151
_cell_angle_alpha    78.3061
_cell_angle_beta     78.3061
_cell_angle_gamma    60

_symmetry_Int_Tables_number  166
_chemical_formula_structural  Tb
_chemical_formula_sum  Tb3
_cell_volume  92.73475457894638
_cell_formula_units_Z  3
loop_
  _symmetry_equiv_pos_site_id
 _symmetry_equiv_pos_as_xyz
 1  'x, y, z'
loop_
 _atom_site_type_symbol
 _atom_site_label
 _atom_site_symmetry_multiplicity
 _atom_site_fract_x
 _atom_site_fract_y
 _atom_site_fract_z
 _atom_site_fract_occupancy
 Tb  Tb1  1  0.00000  0.00000  0.00000  1
 Tb  Tb2  1  0.22223  0.22223  0.33331  1
 Tb  Tb3  1  0.77777  0.77777  0.66669  1
