CIF file written using JARVIS-Tools package.
data_ErGaCo
_symmetry_space_group_name_H-M  'Pnma'
_cell_length_a       4.0897
_cell_length_b       6.62735
_cell_length_c       7.5423
_cell_angle_alpha    90
_cell_angle_beta     90
_cell_angle_gamma    90

_symmetry_Int_Tables_number  62
_chemical_formula_structural  ErGaCo
_chemical_formula_sum  Er4Ga4Co4
_cell_volume  204.42558369818104
_cell_formula_units_Z  4
loop_
  _symmetry_equiv_pos_site_id
 _symmetry_equiv_pos_as_xyz
 1  'x, y, z'
loop_
 _atom_site_type_symbol
 _atom_site_label
 _atom_site_symmetry_multiplicity
 _atom_site_fract_x
 _atom_site_fract_y
 _atom_site_fract_z
 _atom_site_fract_occupancy
 Co  Co1  1  0.75000  0.22799  0.61612  1
 Co  Co2  1  0.25000  0.77201  0.38388  1
 Co  Co3  1  0.75000  0.72799  0.88388  1
 Co  Co4  1  0.25000  0.27201  0.11612  1
 Er  Er1  1  0.25000  0.52554  0.68548  1
 Er  Er2  1  0.25000  0.02554  0.81452  1
 Er  Er3  1  0.75000  0.97446  0.18548  1
 Er  Er4  1  0.75000  0.47446  0.31452  1
 Ga  Ga1  1  0.75000  0.34365  0.93407  1
 Ga  Ga2  1  0.25000  0.15635  0.43407  1
 Ga  Ga3  1  0.25000  0.65635  0.06593  1
 Ga  Ga4  1  0.75000  0.84365  0.56593  1
