CIF file written using JARVIS-Tools package.
data_TiF3
_symmetry_space_group_name_H-M  'C2/m'
_cell_length_a       5.91256
_cell_length_b       3.51139
_cell_length_c       4.46816
_cell_angle_alpha    120.306
_cell_angle_beta     131.425
_cell_angle_gamma    40.2978

_symmetry_Int_Tables_number  12
_chemical_formula_structural  TiF3
_chemical_formula_sum  TiF3
_cell_volume  44.98696668519171
_cell_formula_units_Z  1
loop_
  _symmetry_equiv_pos_site_id
 _symmetry_equiv_pos_as_xyz
 1  'x, y, z'
loop_
 _atom_site_type_symbol
 _atom_site_label
 _atom_site_symmetry_multiplicity
 _atom_site_fract_x
 _atom_site_fract_y
 _atom_site_fract_z
 _atom_site_fract_occupancy
 F  F1  1  0.50000  0.50000  0.50000  1
 F  F2  1  0.00000  0.50000  0.50000  1
 F  F3  1  0.50000  0.50000  0.00000  1
 Ti  Ti1  1  0.00000  0.00000  0.00000  1
