CIF file written using JARVIS-Tools package.
data_LiMnVO4
_symmetry_space_group_name_H-M  'Cmcm'
_cell_length_a       5.18929
_cell_length_b       5.18928
_cell_length_c       6.2987
_cell_angle_alpha    90
_cell_angle_beta     90
_cell_angle_gamma    112.434

_symmetry_Int_Tables_number  63
_chemical_formula_structural  LiMnVO4
_chemical_formula_sum  Li2Mn2V2O8
_cell_volume  156.77926434375289
_cell_formula_units_Z  2
loop_
  _symmetry_equiv_pos_site_id
 _symmetry_equiv_pos_as_xyz
 1  'x, y, z'
loop_
 _atom_site_type_symbol
 _atom_site_label
 _atom_site_symmetry_multiplicity
 _atom_site_fract_x
 _atom_site_fract_y
 _atom_site_fract_z
 _atom_site_fract_occupancy
 Li  Li1  1  0.66449  0.33551  0.75000  1
 Li  Li2  1  0.33551  0.66449  0.25000  1
 Mn  Mn1  1  0.00000  0.00000  0.00000  1
 Mn  Mn2  1  0.00000  0.00000  0.50000  1
 O  O1  1  0.27602  0.24003  0.25000  1
 O  O2  1  0.23940  0.76060  0.52643  1
 O  O3  1  0.76060  0.23940  0.02643  1
 O  O4  1  0.76060  0.23940  0.47357  1
 O  O5  1  0.72398  0.75997  0.75000  1
 O  O6  1  0.23940  0.76060  0.97357  1
 O  O7  1  0.24003  0.27602  0.75000  1
 O  O8  1  0.75997  0.72398  0.25000  1
 V  V1  1  0.35511  0.64489  0.75000  1
 V  V2  1  0.64489  0.35511  0.25000  1
