CIF file written using JARVIS-Tools package.
data_SrTiSi2O7
_symmetry_space_group_name_H-M  'Cmcm'
_cell_length_a       5.39369
_cell_length_b       7.13559
_cell_length_c       7.73926
_cell_angle_alpha    90
_cell_angle_beta     110.393
_cell_angle_gamma    90

_symmetry_Int_Tables_number  63
_chemical_formula_structural  SrTiSi2O7
_chemical_formula_sum  Sr2Ti2Si4O4
_cell_volume  279.19334689864064
_cell_formula_units_Z  2
loop_
  _symmetry_equiv_pos_site_id
 _symmetry_equiv_pos_as_xyz
 1  'x, y, z'
loop_
 _atom_site_type_symbol
 _atom_site_label
 _atom_site_symmetry_multiplicity
 _atom_site_fract_x
 _atom_site_fract_y
 _atom_site_fract_z
 _atom_site_fract_occupancy
 O  O1  1  0.90546  0.43729  0.30964  1
 O  O2  1  0.35935  0.25000  0.71869  1
 O  O3  1  0.00733  0.75000  0.01466  1
 O  O4  1  0.40418  0.43729  0.30964  1
 O  O5  1  0.09454  0.56271  0.69036  1
 O  O6  1  0.40418  0.06271  0.30964  1
 O  O7  1  0.09454  0.93729  0.69036  1
 O  O8  1  0.90546  0.06271  0.30964  1
 O  O9  1  0.59582  0.93729  0.69036  1
 O  O10  1  0.50000  0.50000  -0.00000  1
 O  O11  1  0.50000  0.00000  -0.00000  1
 O  O12  1  0.59582  0.56271  0.69036  1
 O  O13  1  0.99267  0.25000  0.98534  1
 O  O14  1  0.64065  0.75000  0.28131  1
 Si  Si1  1  0.39020  0.47515  0.78039  1
 Si  Si2  1  0.39020  0.02485  0.78039  1
 Si  Si3  1  0.60980  0.97515  0.21961  1
 Si  Si4  1  0.60980  0.52485  0.21961  1
 Sr  Sr1  1  0.19864  0.75000  0.39729  1
 Sr  Sr2  1  0.80136  0.25000  0.60271  1
 Ti  Ti1  1  0.10930  0.25000  0.21861  1
 Ti  Ti2  1  0.89070  0.75000  0.78139  1
