CIF file written using JARVIS-Tools package.
data_ZrSe4Cl6
_symmetry_space_group_name_H-M  'P4_2/ncm'
_cell_length_a       10.352
_cell_length_b       10.9425
_cell_length_c       10.9425
_cell_angle_alpha    90
_cell_angle_beta     90
_cell_angle_gamma    90

_symmetry_Int_Tables_number  138
_chemical_formula_structural  ZrSe4Cl6
_chemical_formula_sum  Zr4Se6Cl24
_cell_volume  1239.5305762855292
_cell_formula_units_Z  4
loop_
  _symmetry_equiv_pos_site_id
 _symmetry_equiv_pos_as_xyz
 1  'x, y, z'
loop_
 _atom_site_type_symbol
 _atom_site_label
 _atom_site_symmetry_multiplicity
 _atom_site_fract_x
 _atom_site_fract_y
 _atom_site_fract_z
 _atom_site_fract_occupancy
 Cl  Cl1  1  0.61255  0.63923  0.86077  1
 Cl  Cl2  1  0.65215  0.56028  0.16727  1
 Cl  Cl3  1  0.15215  0.56028  0.33273  1
 Cl  Cl4  1  0.11255  0.63923  0.63923  1
 Cl  Cl5  1  0.88745  0.13923  0.13923  1
 Cl  Cl6  1  0.38745  0.13923  0.36077  1
 Cl  Cl7  1  0.15215  0.93972  0.16727  1
 Cl  Cl8  1  0.84785  0.66727  0.43972  1
 Cl  Cl9  1  0.11255  0.86077  0.86077  1
 Cl  Cl10  1  0.88745  0.36077  0.36077  1
 Cl  Cl11  1  0.34785  0.43972  0.83273  1
 Cl  Cl12  1  0.65215  0.33273  0.93972  1
 Cl  Cl13  1  0.34785  0.83273  0.43972  1
 Cl  Cl14  1  0.84785  0.43972  0.66727  1
 Cl  Cl15  1  0.15215  0.33273  0.56028  1
 Cl  Cl16  1  0.38745  0.36077  0.13923  1
 Cl  Cl17  1  0.15215  0.16727  0.93972  1
 Cl  Cl18  1  0.84785  0.83273  0.06028  1
 Cl  Cl19  1  0.34785  0.66727  0.06028  1
 Cl  Cl20  1  0.65215  0.93972  0.33273  1
 Cl  Cl21  1  0.34785  0.06028  0.66727  1
 Cl  Cl22  1  0.61255  0.86077  0.63923  1
 Cl  Cl23  1  0.84785  0.06028  0.83273  1
 Cl  Cl24  1  0.65215  0.16727  0.56028  1
 Se  Se1  1  0.42006  0.59339  0.59339  1
 Se  Se2  1  0.57994  0.40661  0.40661  1
 Se  Se3  1  0.57994  0.09339  0.09339  1
 Se  Se4  1  0.42006  0.90661  0.90661  1
 Se  Se5  1  0.00000  0.60652  0.10652  1
 Se  Se6  1  0.50000  0.39348  0.60652  1
 Se  Se7  1  0.50000  0.10652  0.89348  1
 Se  Se8  1  0.50000  0.89348  0.10652  1
 Se  Se9  1  0.00000  0.10652  0.60652  1
 Se  Se10  1  0.00000  0.89348  0.39348  1
 Se  Se11  1  0.50000  0.60652  0.39348  1
 Se  Se12  1  0.00000  0.39348  0.89348  1
 Se  Se13  1  0.92006  0.59339  0.90661  1
 Se  Se14  1  0.07994  0.40661  0.09339  1
 Se  Se15  1  0.07994  0.09339  0.40661  1
 Se  Se16  1  0.92006  0.90661  0.59339  1
 Zr  Zr1  1  0.00000  0.50000  0.50000  1
 Zr  Zr2  1  0.50000  0.00000  0.50000  1
 Zr  Zr3  1  0.00000  0.00000  0.00000  1
 Zr  Zr4  1  0.50000  0.50000  0.00000  1
