CIF file written using JARVIS-Tools package.
data_AlCo2O4
_symmetry_space_group_name_H-M  'Fd-3m'
_cell_length_a       5.81831
_cell_length_b       5.81831
_cell_length_c       5.81831
_cell_angle_alpha    59.9992
_cell_angle_beta     59.9993
_cell_angle_gamma    59.9992

_symmetry_Int_Tables_number  227
_chemical_formula_structural  AlCo2O4
_chemical_formula_sum  Al2Co4O8
_cell_volume  139.27323020319594
_cell_formula_units_Z  2
loop_
  _symmetry_equiv_pos_site_id
 _symmetry_equiv_pos_as_xyz
 1  'x, y, z'
loop_
 _atom_site_type_symbol
 _atom_site_label
 _atom_site_symmetry_multiplicity
 _atom_site_fract_x
 _atom_site_fract_y
 _atom_site_fract_z
 _atom_site_fract_occupancy
 Al  Al1  1  0.62500  0.62500  0.62500  1
 Al  Al2  1  0.37500  0.37500  0.37500  1
 Co  Co1  1  0.00000  0.50000  0.00000  1
 Co  Co2  1  0.00000  0.00000  0.00000  1
 Co  Co3  1  0.50000  0.00000  -0.00000  1
 Co  Co4  1  -0.00000  0.00000  0.50000  1
 O  O1  1  0.24720  0.75094  0.75094  1
 O  O2  1  0.24906  0.24906  0.75280  1
 O  O3  1  0.24906  0.75280  0.24906  1
 O  O4  1  0.24907  0.24907  0.24907  1
 O  O5  1  0.75094  0.75094  0.24720  1
 O  O6  1  0.75280  0.24906  0.24906  1
 O  O7  1  0.75094  0.24720  0.75094  1
 O  O8  1  0.75093  0.75093  0.75093  1
