CIF file written using JARVIS-Tools package.
data_Ca2YSbO5
_symmetry_space_group_name_H-M  'Cc'
_cell_length_a       6.05618
_cell_length_b       5.94369
_cell_length_c       8.41068
_cell_angle_alpha    110.689
_cell_angle_beta     107.486
_cell_angle_gamma    90.0092

_symmetry_Int_Tables_number  9
_chemical_formula_structural  Ca2YSbO5
_chemical_formula_sum  Ca4Y2Sb2O0
_cell_volume  268.21571369875664
_cell_formula_units_Z  2
loop_
  _symmetry_equiv_pos_site_id
 _symmetry_equiv_pos_as_xyz
 1  'x, y, z'
loop_
 _atom_site_type_symbol
 _atom_site_label
 _atom_site_symmetry_multiplicity
 _atom_site_fract_x
 _atom_site_fract_y
 _atom_site_fract_z
 _atom_site_fract_occupancy
 Ca  Ca1  1  0.78726  0.36322  0.74549  1
 Ca  Ca2  1  0.61993  0.13415  0.22721  1
 Ca  Ca3  1  0.11995  0.59590  0.22720  1
 Ca  Ca4  1  0.28721  0.88506  0.74547  1
 O  O1  1  0.10995  0.24300  0.91042  1
 O  O2  1  0.85154  0.06868  0.48187  1
 O  O3  1  0.38413  0.49076  0.74563  1
 O  O4  1  0.35157  0.91606  0.48189  1
 O  O5  1  0.88413  0.75772  0.74562  1
 O  O6  1  0.41479  0.39937  0.36966  1
 O  O7  1  0.60990  0.17028  0.91043  1
 O  O8  1  0.91482  0.47317  0.36972  1
 O  O9  1  0.79183  0.68507  0.03964  1
 O  O10  1  0.29175  0.85739  0.03967  1
 Sb  Sb1  1  -0.02134  -0.00003  -0.00031  1
 Sb  Sb2  1  0.47864  0.50248  -0.00034  1
 Y  Y1  1  0.18279  0.24536  0.47604  1
 Y  Y2  1  0.68279  0.73351  0.47604  1
