CIF file written using JARVIS-Tools package.
data_Fe7O8
_symmetry_space_group_name_H-M  'Fm-3m'
_cell_length_a       5.98013
_cell_length_b       5.98013
_cell_length_c       5.98013
_cell_angle_alpha    59.9998
_cell_angle_beta     59.9997
_cell_angle_gamma    59.9997

_symmetry_Int_Tables_number  225
_chemical_formula_structural  Fe7O8
_chemical_formula_sum  Fe7O8
_cell_volume  151.2218598977021
_cell_formula_units_Z  1
loop_
  _symmetry_equiv_pos_site_id
 _symmetry_equiv_pos_as_xyz
 1  'x, y, z'
loop_
 _atom_site_type_symbol
 _atom_site_label
 _atom_site_symmetry_multiplicity
 _atom_site_fract_x
 _atom_site_fract_y
 _atom_site_fract_z
 _atom_site_fract_occupancy
 Fe  Fe1  1  -0.00000  0.00000  0.50000  1
 Fe  Fe2  1  0.50000  0.00000  0.00000  1
 Fe  Fe3  1  -0.00000  0.50000  0.50000  1
 Fe  Fe4  1  0.50000  0.00000  0.50000  1
 Fe  Fe5  1  0.50000  0.50000  0.00000  1
 Fe  Fe6  1  0.50000  0.50000  0.50000  1
 Fe  Fe7  1  -0.00000  0.50000  0.00000  1
 O  O1  1  0.25001  0.25001  0.25001  1
 O  O2  1  0.26824  0.26824  0.73176  1
 O  O3  1  0.26824  0.73176  0.26824  1
 O  O4  1  0.73176  0.26824  0.26824  1
 O  O5  1  0.26824  0.73176  0.73176  1
 O  O6  1  0.73176  0.26824  0.73176  1
 O  O7  1  0.73176  0.73176  0.26824  1
 O  O8  1  0.74999  0.74999  0.74999  1
