CIF file written using JARVIS-Tools package.
data_Li2V3SnO8
_symmetry_space_group_name_H-M  'P6_3mc'
_cell_length_a       5.84498
_cell_length_b       5.84473
_cell_length_c       9.85027
_cell_angle_alpha    89.9991
_cell_angle_beta     90.0004
_cell_angle_gamma    119.999

_symmetry_Int_Tables_number  186
_chemical_formula_structural  Li2V3SnO8
_chemical_formula_sum  Li4V6Sn2O6
_cell_volume  291.4288487592938
_cell_formula_units_Z  2
loop_
  _symmetry_equiv_pos_site_id
 _symmetry_equiv_pos_as_xyz
 1  'x, y, z'
loop_
 _atom_site_type_symbol
 _atom_site_label
 _atom_site_symmetry_multiplicity
 _atom_site_fract_x
 _atom_site_fract_y
 _atom_site_fract_z
 _atom_site_fract_occupancy
 Li  Li1  1  0.33333  0.66667  0.89483  1
 Li  Li2  1  -0.00009  0.99996  0.99195  1
 Li  Li3  1  0.00009  0.00005  0.49195  1
 Li  Li4  1  0.66667  0.33334  0.39483  1
 O  O1  1  0.15961  0.84049  0.60338  1
 O  O2  1  0.96886  0.48445  0.83985  1
 O  O3  1  0.33326  0.66664  0.09620  1
 O  O4  1  -0.00007  -0.00002  0.30514  1
 O  O5  1  0.00007  0.00005  0.80514  1
 O  O6  1  0.15962  0.31914  0.60337  1
 O  O7  1  0.03114  0.51559  0.33985  1
 O  O8  1  0.48437  0.51555  0.33982  1
 O  O9  1  0.68098  0.84050  0.60336  1
 O  O10  1  0.51563  0.48448  0.83982  1
 O  O11  1  0.51563  0.03118  0.83982  1
 O  O12  1  0.84039  0.68088  0.10338  1
 O  O13  1  0.48437  0.96885  0.33982  1
 O  O14  1  0.31902  0.15952  0.10336  1
 O  O15  1  0.66674  0.33338  0.59620  1
 O  O16  1  0.84038  0.15952  0.10337  1
 Sn  Sn1  1  0.66662  0.33332  0.99413  1
 Sn  Sn2  1  0.33338  0.66671  0.49413  1
 V  V1  1  0.35147  0.17575  0.71402  1
 V  V2  1  0.17565  0.82428  0.21402  1
 V  V3  1  0.64853  0.82428  0.21402  1
 V  V4  1  0.82435  0.64863  0.71402  1
 V  V5  1  0.82436  0.17575  0.71403  1
 V  V6  1  0.17564  0.35138  0.21403  1
