CIF file written using JARVIS-Tools package.
data_SrCaI4
_symmetry_space_group_name_H-M  'P2_1/c'
_cell_length_a       9.49321
_cell_length_b       7.32387
_cell_length_c       17.7817
_cell_angle_alpha    90
_cell_angle_beta     121.025
_cell_angle_gamma    90

_symmetry_Int_Tables_number  14
_chemical_formula_structural  SrCaI4
_chemical_formula_sum  Sr4Ca4I6
_cell_volume  1059.439758695623
_cell_formula_units_Z  4
loop_
  _symmetry_equiv_pos_site_id
 _symmetry_equiv_pos_as_xyz
 1  'x, y, z'
loop_
 _atom_site_type_symbol
 _atom_site_label
 _atom_site_symmetry_multiplicity
 _atom_site_fract_x
 _atom_site_fract_y
 _atom_site_fract_z
 _atom_site_fract_occupancy
 Ca  Ca1  1  0.24951  0.09545  0.87199  1
 Ca  Ca2  1  0.24951  0.40455  0.37199  1
 Ca  Ca3  1  0.75049  0.59545  0.62801  1
 Ca  Ca4  1  0.75049  0.90455  0.12801  1
 I  I1  1  0.49737  0.73715  0.43528  1
 I  I2  1  0.99255  0.24850  0.68459  1
 I  I3  1  0.99255  0.25150  0.18459  1
 I  I4  1  -0.00752  0.74899  0.56951  1
 I  I5  1  0.00745  0.74850  0.81541  1
 I  I6  1  0.50715  0.26384  0.82830  1
 I  I7  1  0.50263  0.26285  0.56472  1
 I  I8  1  -0.00752  0.75101  0.06951  1
 I  I9  1  0.49737  0.76285  0.93528  1
 I  I10  1  0.00745  0.75150  0.31541  1
 I  I11  1  0.49285  0.76384  0.67170  1
 I  I12  1  0.50715  0.23616  0.32830  1
 I  I13  1  0.49285  0.73616  0.17170  1
 I  I14  1  0.00752  0.24899  0.93049  1
 I  I15  1  0.00752  0.25101  0.43049  1
 I  I16  1  0.50263  0.23715  0.06472  1
 Sr  Sr1  1  0.74771  0.59507  0.36979  1
 Sr  Sr2  1  0.74771  0.90493  0.86979  1
 Sr  Sr3  1  0.25229  0.09507  0.13021  1
 Sr  Sr4  1  0.25229  0.40493  0.63021  1
