CIF file written using JARVIS-Tools package.
data_SbOF
_symmetry_space_group_name_H-M  'P2_1/c'
_cell_length_a       5.55199
_cell_length_b       6.43836
_cell_length_c       5.2928
_cell_angle_alpha    90
_cell_angle_beta     84.2933
_cell_angle_gamma    90

_symmetry_Int_Tables_number  14
_chemical_formula_structural  SbOF
_chemical_formula_sum  Sb4O4F4
_cell_volume  188.25701166973434
_cell_formula_units_Z  4
loop_
  _symmetry_equiv_pos_site_id
 _symmetry_equiv_pos_as_xyz
 1  'x, y, z'
loop_
 _atom_site_type_symbol
 _atom_site_label
 _atom_site_symmetry_multiplicity
 _atom_site_fract_x
 _atom_site_fract_y
 _atom_site_fract_z
 _atom_site_fract_occupancy
 F  F1  1  0.10021  0.18616  0.96598  1
 F  F2  1  0.10021  0.31384  0.46598  1
 F  F3  1  0.89979  0.68616  0.53402  1
 F  F4  1  0.89979  0.81384  0.03402  1
 O  O1  1  0.41955  0.85276  0.86264  1
 O  O2  1  0.41955  0.64724  0.36264  1
 O  O3  1  0.58045  0.35276  0.63736  1
 O  O4  1  0.58045  0.14724  0.13736  1
 Sb  Sb1  1  0.26690  0.52983  0.70216  1
 Sb  Sb2  1  0.26690  0.97017  0.20216  1
 Sb  Sb3  1  0.73310  0.02983  0.79784  1
 Sb  Sb4  1  0.73310  0.47017  0.29784  1
