CIF file written using JARVIS-Tools package.
data_BiBr3
_symmetry_space_group_name_H-M  'C2/m'
_cell_length_a       6.83836
_cell_length_b       7.16757
_cell_length_c       7.16757
_cell_angle_alpha    119.985
_cell_angle_beta     99.9862
_cell_angle_gamma    99.9862

_symmetry_Int_Tables_number  12
_chemical_formula_structural  BiBr3
_chemical_formula_sum  Bi2Br6
_cell_volume  285.4141748804096
_cell_formula_units_Z  2
loop_
  _symmetry_equiv_pos_site_id
 _symmetry_equiv_pos_as_xyz
 1  'x, y, z'
loop_
 _atom_site_type_symbol
 _atom_site_label
 _atom_site_symmetry_multiplicity
 _atom_site_fract_x
 _atom_site_fract_y
 _atom_site_fract_z
 _atom_site_fract_occupancy
 Bi  Bi1  1  0.00000  0.83361  0.16639  1
 Bi  Bi2  1  -0.00000  0.16639  0.83361  1
 Br  Br1  1  0.25755  0.92166  0.58464  1
 Br  Br2  1  0.74245  0.41536  0.07834  1
 Br  Br3  1  0.25755  0.58464  0.92166  1
 Br  Br4  1  0.74245  0.07834  0.41536  1
 Br  Br5  1  0.26352  0.24586  0.24586  1
 Br  Br6  1  0.73648  0.75414  0.75414  1
