CIF file written using JARVIS-Tools package.
data_SiO2
_symmetry_space_group_name_H-M  'P1'
_cell_length_a       5.13325
_cell_length_b       5.26694
_cell_length_c       7.02643
_cell_angle_alpha    71.9896
_cell_angle_beta     74.2415
_cell_angle_gamma    85.5766

_symmetry_Int_Tables_number  1
_chemical_formula_structural  SiO2
_chemical_formula_sum  Si4O8
_cell_volume  173.8664466087695
_cell_formula_units_Z  4
loop_
  _symmetry_equiv_pos_site_id
 _symmetry_equiv_pos_as_xyz
 1  'x, y, z'
loop_
 _atom_site_type_symbol
 _atom_site_label
 _atom_site_symmetry_multiplicity
 _atom_site_fract_x
 _atom_site_fract_y
 _atom_site_fract_z
 _atom_site_fract_occupancy
 O  O1  1  0.45020  0.63448  0.81812  1
 O  O2  1  0.16905  0.96228  0.57345  1
 O  O3  1  0.26307  0.45748  0.56812  1
 O  O4  1  0.72603  0.74079  0.05492  1
 O  O5  1  0.66809  0.82963  0.41408  1
 O  O6  1  0.17767  0.80961  0.13995  1
 O  O7  1  0.89093  0.38117  0.38640  1
 O  O8  1  0.39843  0.33057  0.21197  1
 Si  Si1  1  0.38707  0.71793  0.59314  1
 Si  Si2  1  0.43935  0.63400  0.04924  1
 Si  Si3  1  0.17997  0.27510  0.44089  1
 Si  Si4  1  0.86459  0.69543  0.24704  1
