CIF file written using JARVIS-Tools package.
data_PBr3
_symmetry_space_group_name_H-M  'Pnma'
_cell_length_a       6.4706
_cell_length_b       7.81545
_cell_length_c       10.07
_cell_angle_alpha    90
_cell_angle_beta     90
_cell_angle_gamma    90

_symmetry_Int_Tables_number  62
_chemical_formula_structural  PBr3
_chemical_formula_sum  P4Br2
_cell_volume  509.247607281214
_cell_formula_units_Z  4
loop_
  _symmetry_equiv_pos_site_id
 _symmetry_equiv_pos_as_xyz
 1  'x, y, z'
loop_
 _atom_site_type_symbol
 _atom_site_label
 _atom_site_symmetry_multiplicity
 _atom_site_fract_x
 _atom_site_fract_y
 _atom_site_fract_z
 _atom_site_fract_occupancy
 Br  Br1  1  0.64427  0.19248  0.07884  1
 Br  Br2  1  0.14427  0.30752  0.92116  1
 Br  Br3  1  0.85573  0.69248  0.42116  1
 Br  Br4  1  0.35573  0.80752  0.57884  1
 Br  Br5  1  0.35573  0.80752  0.92116  1
 Br  Br6  1  0.85573  0.69248  0.07884  1
 Br  Br7  1  0.14427  0.30752  0.57884  1
 Br  Br8  1  0.64427  0.19248  0.42116  1
 Br  Br9  1  0.18543  0.09140  0.25000  1
 Br  Br10  1  0.68543  0.40860  0.75000  1
 Br  Br11  1  0.31457  0.59140  0.25000  1
 Br  Br12  1  0.81457  0.90860  0.75000  1
 P  P1  1  0.52871  0.03061  0.25000  1
 P  P2  1  0.02871  0.46939  0.75000  1
 P  P3  1  0.97129  0.53061  0.25000  1
 P  P4  1  0.47129  0.96939  0.75000  1
