CIF file written using JARVIS-Tools package.
data_Ca3CuRhO6
_symmetry_space_group_name_H-M  'C2/c'
_cell_length_a       6.47816
_cell_length_b       6.47817
_cell_length_c       6.43599
_cell_angle_alpha    90.3019
_cell_angle_beta     90.3019
_cell_angle_gamma    91.2235

_symmetry_Int_Tables_number  15
_chemical_formula_structural  Ca3CuRhO6
_chemical_formula_sum  Ca6Cu2Rh2O2
_cell_volume  270.0280070017607
_cell_formula_units_Z  2
loop_
  _symmetry_equiv_pos_site_id
 _symmetry_equiv_pos_as_xyz
 1  'x, y, z'
loop_
 _atom_site_type_symbol
 _atom_site_label
 _atom_site_symmetry_multiplicity
 _atom_site_fract_x
 _atom_site_fract_y
 _atom_site_fract_z
 _atom_site_fract_occupancy
 Ca  Ca1  1  0.61419  0.76176  0.87625  1
 Ca  Ca2  1  0.76176  0.61419  0.37625  1
 Ca  Ca3  1  0.10063  0.89937  0.75000  1
 Ca  Ca4  1  0.38581  0.23824  0.12375  1
 Ca  Ca5  1  0.89937  0.10063  0.25000  1
 Ca  Ca6  1  0.23824  0.38581  0.62375  1
 Cu  Cu1  1  0.30729  0.69271  0.25000  1
 Cu  Cu2  1  0.69271  0.30729  0.75000  1
 O  O1  1  0.29258  0.60327  0.95511  1
 O  O2  1  0.46990  0.10308  0.79375  1
 O  O3  1  0.92259  0.79149  0.06722  1
 O  O4  1  0.07741  0.20851  0.93278  1
 O  O5  1  0.79149  0.92259  0.56722  1
 O  O6  1  0.39673  0.70742  0.54489  1
 O  O7  1  0.60327  0.29258  0.45511  1
 O  O8  1  0.20851  0.07741  0.43278  1
 O  O9  1  0.53010  0.89692  0.20625  1
 O  O10  1  0.70742  0.39673  0.04489  1
 O  O11  1  0.10308  0.46990  0.29375  1
 O  O12  1  0.89692  0.53010  0.70625  1
 Rh  Rh1  1  0.00000  0.50000  0.00000  1
 Rh  Rh2  1  0.50000  0.00000  0.50000  1
