CIF file written using JARVIS-Tools package.
data_Yb2Au
_symmetry_space_group_name_H-M  'Pnma'
_cell_length_a       4.48814
_cell_length_b       7.60932
_cell_length_c       9.27637
_cell_angle_alpha    90
_cell_angle_beta     90
_cell_angle_gamma    90

_symmetry_Int_Tables_number  62
_chemical_formula_structural  Yb2Au
_chemical_formula_sum  Yb8Au4
_cell_volume  316.80368495538187
_cell_formula_units_Z  4
loop_
  _symmetry_equiv_pos_site_id
 _symmetry_equiv_pos_as_xyz
 1  'x, y, z'
loop_
 _atom_site_type_symbol
 _atom_site_label
 _atom_site_symmetry_multiplicity
 _atom_site_fract_x
 _atom_site_fract_y
 _atom_site_fract_z
 _atom_site_fract_occupancy
 Au  Au1  1  0.75000  0.75152  0.12067  1
 Au  Au2  1  0.75000  0.25152  0.37933  1
 Au  Au3  1  0.25000  0.24848  0.87933  1
 Au  Au4  1  0.25000  0.74848  0.62067  1
 Yb  Yb1  1  0.75000  0.64552  0.43206  1
 Yb  Yb2  1  0.75000  0.52470  0.83046  1
 Yb  Yb3  1  0.25000  0.85448  0.93206  1
 Yb  Yb4  1  0.25000  0.97530  0.33046  1
 Yb  Yb5  1  0.25000  0.47530  0.16954  1
 Yb  Yb6  1  0.75000  0.14552  0.06794  1
 Yb  Yb7  1  0.25000  0.35448  0.56794  1
 Yb  Yb8  1  0.75000  0.02470  0.66954  1
