CIF file written using JARVIS-Tools package.
data_GeTe
_symmetry_space_group_name_H-M  'R3m'
_cell_length_a       4.40063
_cell_length_b       4.40063
_cell_length_c       4.40063
_cell_angle_alpha    57.5303
_cell_angle_beta     57.5302
_cell_angle_gamma    57.5303

_symmetry_Int_Tables_number  160
_chemical_formula_structural  GeTe
_chemical_formula_sum  GeTe
_cell_volume  56.837737048326765
_cell_formula_units_Z  1
loop_
  _symmetry_equiv_pos_site_id
 _symmetry_equiv_pos_as_xyz
 1  'x, y, z'
loop_
 _atom_site_type_symbol
 _atom_site_label
 _atom_site_symmetry_multiplicity
 _atom_site_fract_x
 _atom_site_fract_y
 _atom_site_fract_z
 _atom_site_fract_occupancy
 Ge  Ge1  1  0.99461  0.99461  0.99461  1
 Te  Te1  1  0.52639  0.52639  0.52639  1
