CIF file written using JARVIS-Tools package.
data_Be2PdRu
_symmetry_space_group_name_H-M  'Immm'
_cell_length_a       8.45943
_cell_length_b       9.15227
_cell_length_c       9.15226
_cell_angle_alpha    61.792
_cell_angle_beta     62.4741
_cell_angle_gamma    62.4741

_symmetry_Int_Tables_number  71
_chemical_formula_structural  Be2PdRu
_chemical_formula_sum  Be2PdRu
_cell_volume  526.1408646497929
_cell_formula_units_Z  1
loop_
  _symmetry_equiv_pos_site_id
 _symmetry_equiv_pos_as_xyz
 1  'x, y, z'
loop_
 _atom_site_type_symbol
 _atom_site_label
 _atom_site_symmetry_multiplicity
 _atom_site_fract_x
 _atom_site_fract_y
 _atom_site_fract_z
 _atom_site_fract_occupancy
 Be  Be1  1  0.74981  0.00000  0.00000  1
 Be  Be2  1  0.25019  -0.00000  -0.00000  1
 Pd  Pd1  1  0.50000  0.00000  -0.00000  1
 Ru  Ru1  1  0.00000  0.00000  0.00000  1
