CIF file written using JARVIS-Tools package.
data_FePO4
_symmetry_space_group_name_H-M  'P3_121'
_cell_length_a       5.0507
_cell_length_b       5.0507
_cell_length_c       11.2932
_cell_angle_alpha    90
_cell_angle_beta     90
_cell_angle_gamma    120

_symmetry_Int_Tables_number  152
_chemical_formula_structural  FePO4
_chemical_formula_sum  Fe3P3O2
_cell_volume  249.48817336577721
_cell_formula_units_Z  3
loop_
  _symmetry_equiv_pos_site_id
 _symmetry_equiv_pos_as_xyz
 1  'x, y, z'
loop_
 _atom_site_type_symbol
 _atom_site_label
 _atom_site_symmetry_multiplicity
 _atom_site_fract_x
 _atom_site_fract_y
 _atom_site_fract_z
 _atom_site_fract_occupancy
 Fe  Fe1  1  -0.00000  0.45331  0.16667  1
 Fe  Fe2  1  0.54669  0.54669  0.50000  1
 Fe  Fe3  1  0.45331  -0.00000  0.83333  1
 O  O1  1  0.86166  0.59405  0.03963  1
 O  O2  1  0.73239  0.13834  0.70629  1
 O  O3  1  0.67622  0.09309  0.22793  1
 O  O4  1  0.26761  0.40595  0.62704  1
 O  O5  1  0.40595  0.26761  0.37296  1
 O  O6  1  0.13834  0.73239  0.29371  1
 O  O7  1  0.58313  0.90691  0.43874  1
 O  O8  1  0.59405  0.86166  0.96037  1
 O  O9  1  0.32378  0.41687  0.10540  1
 O  O10  1  0.41687  0.32378  0.89460  1
 O  O11  1  0.09309  0.67622  0.77207  1
 O  O12  1  0.90691  0.58313  0.56126  1
 P  P1  1  0.45104  -0.00000  0.33333  1
 P  P2  1  0.54896  0.54896  0.00000  1
 P  P3  1  -0.00000  0.45104  0.66667  1
