CIF file written using JARVIS-Tools package.
data_NiS2
_symmetry_space_group_name_H-M  'Fd-3m'
_cell_length_a       6.65853
_cell_length_b       6.65844
_cell_length_c       6.65955
_cell_angle_alpha    60.0048
_cell_angle_beta     59.9999
_cell_angle_gamma    60.0174

_symmetry_Int_Tables_number  227
_chemical_formula_structural  NiS2
_chemical_formula_sum  Ni4S8
_cell_volume  208.81119395511706
_cell_formula_units_Z  4
loop_
  _symmetry_equiv_pos_site_id
 _symmetry_equiv_pos_as_xyz
 1  'x, y, z'
loop_
 _atom_site_type_symbol
 _atom_site_label
 _atom_site_symmetry_multiplicity
 _atom_site_fract_x
 _atom_site_fract_y
 _atom_site_fract_z
 _atom_site_fract_occupancy
 Ni  Ni1  1  0.50000  0.50001  0.49999  1
 Ni  Ni2  1  -0.00000  0.00000  0.50001  1
 Ni  Ni3  1  0.50000  0.00001  -0.00001  1
 Ni  Ni4  1  0.50000  -0.00001  0.50001  1
 S  S1  1  0.72102  0.75975  0.25959  1
 S  S2  1  0.25975  0.22103  0.25964  1
 S  S3  1  0.25963  0.75961  0.25974  1
 S  S4  1  0.25960  0.75963  0.72102  1
 S  S5  1  0.74025  0.77897  0.74037  1
 S  S6  1  0.27898  0.24025  0.74040  1
 S  S7  1  0.74041  0.24035  0.27898  1
 S  S8  1  0.74037  0.24041  0.74025  1
