CIF file written using JARVIS-Tools package.
data_SiSe2
_symmetry_space_group_name_H-M  'Ibam'
_cell_length_a       6.33937
_cell_length_b       5.50649
_cell_length_c       6.80675
_cell_angle_alpha    113.859
_cell_angle_beta     117.753
_cell_angle_gamma    90

_symmetry_Int_Tables_number  72
_chemical_formula_structural  SiSe2
_chemical_formula_sum  Si2Se4
_cell_volume  187.02412594724115
_cell_formula_units_Z  2
loop_
  _symmetry_equiv_pos_site_id
 _symmetry_equiv_pos_as_xyz
 1  'x, y, z'
loop_
 _atom_site_type_symbol
 _atom_site_label
 _atom_site_symmetry_multiplicity
 _atom_site_fract_x
 _atom_site_fract_y
 _atom_site_fract_z
 _atom_site_fract_occupancy
 Se  Se1  1  0.14236  0.40613  0.28473  1
 Se  Se2  1  0.35764  0.12140  0.71527  1
 Se  Se3  1  0.85764  0.59387  0.71527  1
 Se  Se4  1  0.64236  0.87860  0.28473  1
 Si  Si1  1  0.00000  0.00000  0.00000  1
 Si  Si2  1  0.50000  -0.00000  0.00000  1
