CIF file written using JARVIS-Tools package.
data_CaAg2O4
_symmetry_space_group_name_H-M  'I4_1/a'
_cell_length_a       5.96765
_cell_length_b       5.96743
_cell_length_c       6.58944
_cell_angle_alpha    116.926
_cell_angle_beta     116.927
_cell_angle_gamma    89.9942

_symmetry_Int_Tables_number  88
_chemical_formula_structural  CaAg2O4
_chemical_formula_sum  Ca2Ag4O8
_cell_volume  180.23140287434714
_cell_formula_units_Z  2
loop_
  _symmetry_equiv_pos_site_id
 _symmetry_equiv_pos_as_xyz
 1  'x, y, z'
loop_
 _atom_site_type_symbol
 _atom_site_label
 _atom_site_symmetry_multiplicity
 _atom_site_fract_x
 _atom_site_fract_y
 _atom_site_fract_z
 _atom_site_fract_occupancy
 Ag  Ag1  1  0.50000  0.50000  0.50000  1
 Ag  Ag2  1  -0.00000  0.50000  0.50000  1
 Ag  Ag3  1  0.50000  0.00000  0.00000  1
 Ag  Ag4  1  0.50000  0.50000  0.00000  1
 Ca  Ca1  1  0.87500  0.12500  0.75000  1
 Ca  Ca2  1  0.12500  0.87500  0.25000  1
 O  O1  1  0.72415  0.82679  0.85377  1
 O  O2  1  0.47300  0.27584  0.64622  1
 O  O3  1  0.17322  0.87037  0.64621  1
 O  O4  1  0.87038  0.47301  0.14622  1
 O  O5  1  0.82678  0.12963  0.35379  1
 O  O6  1  0.52700  0.72416  0.35378  1
 O  O7  1  0.12962  0.52699  0.85378  1
 O  O8  1  0.27585  0.17321  0.14622  1
