CIF file written using JARVIS-Tools package.
data_RbTe
_symmetry_space_group_name_H-M  'P-62m'
_cell_length_a       9.93145
_cell_length_b       9.93145
_cell_length_c       6.57868
_cell_angle_alpha    90
_cell_angle_beta     90
_cell_angle_gamma    120

_symmetry_Int_Tables_number  189
_chemical_formula_structural  RbTe
_chemical_formula_sum  Rb6Te6
_cell_volume  561.9466702461997
_cell_formula_units_Z  6
loop_
  _symmetry_equiv_pos_site_id
 _symmetry_equiv_pos_as_xyz
 1  'x, y, z'
loop_
 _atom_site_type_symbol
 _atom_site_label
 _atom_site_symmetry_multiplicity
 _atom_site_fract_x
 _atom_site_fract_y
 _atom_site_fract_z
 _atom_site_fract_occupancy
 Rb  Rb1  1  -0.00000  0.34602  0.00000  1
 Rb  Rb2  1  0.65398  0.65398  0.00000  1
 Rb  Rb3  1  0.34602  -0.00000  0.00000  1
 Rb  Rb4  1  -0.00000  0.67970  0.50000  1
 Rb  Rb5  1  0.32030  0.32030  0.50000  1
 Rb  Rb6  1  0.67970  -0.00000  0.50000  1
 Te  Te1  1  0.00000  0.00000  0.78440  1
 Te  Te2  1  0.00000  0.00000  0.21560  1
 Te  Te3  1  0.33333  0.66667  0.71709  1
 Te  Te4  1  0.33333  0.66667  0.28291  1
 Te  Te5  1  0.66667  0.33333  0.28291  1
 Te  Te6  1  0.66667  0.33333  0.71709  1
