CIF file written using JARVIS-Tools package.
data_C3N4
_symmetry_space_group_name_H-M  'P31c'
_cell_length_a       6.50765
_cell_length_b       6.50765
_cell_length_c       4.74035
_cell_angle_alpha    90
_cell_angle_beta     90
_cell_angle_gamma    120

_symmetry_Int_Tables_number  159
_chemical_formula_structural  C3N4
_chemical_formula_sum  C2N6
_cell_volume  173.85552319691737
_cell_formula_units_Z  4
loop_
  _symmetry_equiv_pos_site_id
 _symmetry_equiv_pos_as_xyz
 1  'x, y, z'
loop_
 _atom_site_type_symbol
 _atom_site_label
 _atom_site_symmetry_multiplicity
 _atom_site_fract_x
 _atom_site_fract_y
 _atom_site_fract_z
 _atom_site_fract_occupancy
 C  C1  1  0.91925  0.48292  0.79601  1
 C  C2  1  0.43633  0.51708  0.29601  1
 C  C3  1  0.56367  0.08075  0.79601  1
 C  C4  1  0.48292  0.91925  0.29601  1
 C  C5  1  0.08075  0.56367  0.29601  1
 C  C6  1  0.83414  0.74517  0.50693  1
 C  C7  1  0.51708  0.43633  0.79601  1
 C  C8  1  0.08896  0.25483  0.00693  1
 C  C9  1  0.16586  0.91104  0.00693  1
 C  C10  1  0.25483  0.08896  0.50693  1
 C  C11  1  0.91104  0.16586  0.50693  1
 C  C12  1  0.74517  0.83414  0.00693  1
 N  N1  1  0.60304  0.94973  0.02679  1
 N  N2  1  0.00000  0.00000  0.00655  1
 N  N3  1  0.31975  0.00527  0.25462  1
 N  N4  1  0.33333  0.66667  0.37178  1
 N  N5  1  0.66667  0.33333  0.87178  1
 N  N6  1  0.05027  0.65332  0.02679  1
 N  N7  1  0.00000  0.00000  0.50655  1
 N  N8  1  0.68553  0.68025  0.25462  1
 N  N9  1  0.39696  0.34668  0.52679  1
 N  N10  1  0.68025  0.68553  0.75462  1
 N  N11  1  0.00527  0.31975  0.75462  1
 N  N12  1  0.31447  0.99473  0.75462  1
 N  N13  1  0.34668  0.39696  0.02679  1
 N  N14  1  0.94973  0.60304  0.52679  1
 N  N15  1  0.65332  0.05027  0.52679  1
 N  N16  1  0.99473  0.31447  0.25462  1
