CIF file written using JARVIS-Tools package.
data_LiFeF4
_symmetry_space_group_name_H-M  'P2_1/c'
_cell_length_a       5.5543
_cell_length_b       4.6732
_cell_length_c       5.64076
_cell_angle_alpha    90
_cell_angle_beta     114.665
_cell_angle_gamma    90

_symmetry_Int_Tables_number  14
_chemical_formula_structural  LiFeF4
_chemical_formula_sum  Li2Fe2F8
_cell_volume  133.05539557050645
_cell_formula_units_Z  2
loop_
  _symmetry_equiv_pos_site_id
 _symmetry_equiv_pos_as_xyz
 1  'x, y, z'
loop_
 _atom_site_type_symbol
 _atom_site_label
 _atom_site_symmetry_multiplicity
 _atom_site_fract_x
 _atom_site_fract_y
 _atom_site_fract_z
 _atom_site_fract_occupancy
 F  F1  1  0.15174  0.71395  0.83711  1
 F  F2  1  0.15174  0.78605  0.33711  1
 F  F3  1  0.32643  0.30099  0.63812  1
 F  F4  1  0.32643  0.19901  0.13812  1
 F  F5  1  0.67357  0.80099  0.86188  1
 F  F6  1  0.67357  0.69901  0.36188  1
 F  F7  1  0.84826  0.21395  0.66289  1
 F  F8  1  0.84826  0.28605  0.16289  1
 Fe  Fe1  1  -0.00000  0.50000  0.50000  1
 Fe  Fe2  1  0.00000  0.00000  0.00000  1
 Li  Li1  1  0.50000  0.00000  0.50000  1
 Li  Li2  1  0.50000  0.50000  0.00000  1
