CIF file written using JARVIS-Tools package.
data_BaSi4O9
_symmetry_space_group_name_H-M  'P-6c2'
_cell_length_a       6.56476
_cell_length_b       6.56476
_cell_length_c       9.46406
_cell_angle_alpha    90
_cell_angle_beta     90
_cell_angle_gamma    120

_symmetry_Int_Tables_number  188
_chemical_formula_structural  BaSi4O9
_chemical_formula_sum  Ba2Si8O8
_cell_volume  353.2204957457631
_cell_formula_units_Z  2
loop_
  _symmetry_equiv_pos_site_id
 _symmetry_equiv_pos_as_xyz
 1  'x, y, z'
loop_
 _atom_site_type_symbol
 _atom_site_label
 _atom_site_symmetry_multiplicity
 _atom_site_fract_x
 _atom_site_fract_y
 _atom_site_fract_z
 _atom_site_fract_occupancy
 Ba  Ba1  1  0.33333  0.66667  0.50000  1
 Ba  Ba2  1  0.33333  0.66667  0.00000  1
 O  O1  1  0.66204  0.10571  0.39311  1
 O  O2  1  0.66204  0.55633  0.60689  1
 O  O3  1  0.44367  0.33796  0.39311  1
 O  O4  1  0.66204  0.55633  0.89311  1
 O  O5  1  0.44367  0.33796  0.10689  1
 O  O6  1  0.89429  0.55633  0.10689  1
 O  O7  1  0.66204  0.10571  0.10689  1
 O  O8  1  0.89429  0.55633  0.39311  1
 O  O9  1  0.89429  0.33796  0.89311  1
 O  O10  1  0.18828  0.26511  0.75000  1
 O  O11  1  0.73489  0.92316  0.75000  1
 O  O12  1  0.07684  0.81172  0.75000  1
 O  O13  1  0.18828  0.92316  0.25000  1
 O  O14  1  0.07684  0.26511  0.25000  1
 O  O15  1  0.73489  0.81172  0.25000  1
 O  O16  1  0.89429  0.33796  0.60689  1
 O  O17  1  0.44367  0.10571  0.89311  1
 O  O18  1  0.44367  0.10571  0.60689  1
 Si  Si1  1  0.91161  0.21248  0.75000  1
 Si  Si2  1  0.30087  0.21248  0.25000  1
 Si  Si3  1  0.91161  0.69913  0.25000  1
 Si  Si4  1  0.78752  0.08839  0.25000  1
 Si  Si5  1  0.66667  0.33333  0.50000  1
 Si  Si6  1  0.30087  0.08839  0.75000  1
 Si  Si7  1  0.78752  0.69913  0.75000  1
 Si  Si8  1  0.66667  0.33333  0.00000  1
