CIF file written using JARVIS-Tools package.
data_Na3MoNO3
_symmetry_space_group_name_H-M  'Pmn2_1'
_cell_length_a       5.59475
_cell_length_b       6.2329
_cell_length_c       7.30562
_cell_angle_alpha    90
_cell_angle_beta     90
_cell_angle_gamma    90

_symmetry_Int_Tables_number  31
_chemical_formula_structural  Na3MoNO3
_chemical_formula_sum  Na6Mo2N2O6
_cell_volume  254.75801901981464
_cell_formula_units_Z  2
loop_
  _symmetry_equiv_pos_site_id
 _symmetry_equiv_pos_as_xyz
 1  'x, y, z'
loop_
 _atom_site_type_symbol
 _atom_site_label
 _atom_site_symmetry_multiplicity
 _atom_site_fract_x
 _atom_site_fract_y
 _atom_site_fract_z
 _atom_site_fract_occupancy
 Mo  Mo1  1  0.50299  0.82818  0.50000  1
 Mo  Mo2  1  0.00299  0.17182  0.00000  1
 N  N1  1  0.69253  0.17469  0.00000  1
 N  N2  1  0.19253  0.82531  0.50000  1
 Na  Na1  1  0.51452  0.83053  0.00000  1
 Na  Na2  1  0.51218  0.32905  0.74389  1
 Na  Na3  1  0.51218  0.32905  0.25611  1
 Na  Na4  1  0.01218  0.67095  0.24389  1
 Na  Na5  1  0.01452  0.16947  0.50000  1
 Na  Na6  1  0.01218  0.67095  0.75611  1
 O  O1  1  0.60207  0.68715  0.29093  1
 O  O2  1  0.10207  0.31285  0.20907  1
 O  O3  1  0.10207  0.31285  0.79093  1
 O  O4  1  0.60207  0.68715  0.70907  1
 O  O5  1  0.10055  0.88914  0.00000  1
 O  O6  1  0.60055  0.11086  0.50000  1
