CIF file written using JARVIS-Tools package.
data_GeS
_symmetry_space_group_name_H-M  'Cmcm'
_cell_length_a       3.90426
_cell_length_b       3.89541
_cell_length_c       5.83417
_cell_angle_alpha    109.502
_cell_angle_beta     90
_cell_angle_gamma    90

_symmetry_Int_Tables_number  63
_chemical_formula_structural  GeS
_chemical_formula_sum  Ge2S2
_cell_volume  83.63954854319377
_cell_formula_units_Z  2
loop_
  _symmetry_equiv_pos_site_id
 _symmetry_equiv_pos_as_xyz
 1  'x, y, z'
loop_
 _atom_site_type_symbol
 _atom_site_label
 _atom_site_symmetry_multiplicity
 _atom_site_fract_x
 _atom_site_fract_y
 _atom_site_fract_z
 _atom_site_fract_occupancy
 Ge  Ge1  1  0.25000  0.13618  0.27235  1
 Ge  Ge2  1  0.75000  0.86382  0.72765  1
 S  S1  1  0.25000  0.35369  0.70738  1
 S  S2  1  0.75000  0.64631  0.29262  1
