CIF file written using JARVIS-Tools package.
data_Li5Ti3O8
_symmetry_space_group_name_H-M  'R-3m'
_cell_length_a       5.87903
_cell_length_b       5.87903
_cell_length_c       5.87903
_cell_angle_alpha    59.8053
_cell_angle_beta     59.8053
_cell_angle_gamma    59.8053

_symmetry_Int_Tables_number  166
_chemical_formula_structural  Li5Ti3O8
_chemical_formula_sum  Li5Ti3O8
_cell_volume  143.04662174376452
_cell_formula_units_Z  1
loop_
  _symmetry_equiv_pos_site_id
 _symmetry_equiv_pos_as_xyz
 1  'x, y, z'
loop_
 _atom_site_type_symbol
 _atom_site_label
 _atom_site_symmetry_multiplicity
 _atom_site_fract_x
 _atom_site_fract_y
 _atom_site_fract_z
 _atom_site_fract_occupancy
 Li  Li1  1  0.62500  0.12500  0.12500  1
 Li  Li2  1  0.12500  0.12500  0.12500  1
 Li  Li3  1  0.12500  0.12500  0.62500  1
 Li  Li4  1  0.12500  0.62500  0.12500  1
 Li  Li5  1  0.62500  0.62500  0.62500  1
 O  O1  1  0.37936  0.37936  0.37936  1
 O  O2  1  0.85282  0.37543  0.37543  1
 O  O3  1  0.37543  0.85282  0.37543  1
 O  O4  1  0.87457  0.87457  0.39718  1
 O  O5  1  0.87457  0.39718  0.87457  1
 O  O6  1  0.37543  0.37543  0.85282  1
 O  O7  1  0.39718  0.87457  0.87457  1
 O  O8  1  0.87064  0.87064  0.87064  1
 Ti  Ti1  1  0.62500  0.12500  0.62500  1
 Ti  Ti2  1  0.62500  0.62500  0.12500  1
 Ti  Ti3  1  0.12500  0.62500  0.62500  1
