CIF file written using JARVIS-Tools package.
data_Nd2O3
_symmetry_space_group_name_H-M  'C2/m'
_cell_length_a       3.70207
_cell_length_b       7.46518
_cell_length_c       9.04086
_cell_angle_alpha    99.5286
_cell_angle_beta     90
_cell_angle_gamma    104.356

_symmetry_Int_Tables_number  12
_chemical_formula_structural  Nd2O3
_chemical_formula_sum  Nd6O9
_cell_volume  238.49596220868548
_cell_formula_units_Z  3
loop_
  _symmetry_equiv_pos_site_id
 _symmetry_equiv_pos_as_xyz
 1  'x, y, z'
loop_
 _atom_site_type_symbol
 _atom_site_label
 _atom_site_symmetry_multiplicity
 _atom_site_fract_x
 _atom_site_fract_y
 _atom_site_fract_z
 _atom_site_fract_occupancy
 Nd  Nd1  1  0.63477  0.26953  0.48889  1
 Nd  Nd2  1  0.36523  0.73047  0.51111  1
 Nd  Nd3  1  0.31000  0.61999  0.86207  1
 Nd  Nd4  1  0.96589  0.93179  0.18863  1
 Nd  Nd5  1  0.69000  0.38001  0.13793  1
 Nd  Nd6  1  0.03411  0.06821  0.81137  1
 O  O1  1  0.47407  0.94814  0.34451  1
 O  O2  1  0.52593  0.05186  0.65549  1
 O  O3  1  0.20191  0.40382  0.62779  1
 O  O4  1  0.12944  0.25888  0.28627  1
 O  O5  1  0.50000  0.00000  0.00000  1
 O  O6  1  0.87056  0.74112  0.71373  1
 O  O7  1  0.82467  0.64934  0.02675  1
 O  O8  1  0.17533  0.35066  0.97325  1
 O  O9  1  0.79809  0.59618  0.37221  1
