CIF file written using JARVIS-Tools package.
data_MgBi2O4
_symmetry_space_group_name_H-M  'C2/m'
_cell_length_a       3.39478
_cell_length_b       6.70765
_cell_length_c       10.1348
_cell_angle_alpha    102.408
_cell_angle_beta     99.6422
_cell_angle_gamma    104.658

_symmetry_Int_Tables_number  12
_chemical_formula_structural  MgBi2O4
_chemical_formula_sum  Mg2Bi4O8
_cell_volume  211.95518569328797
_cell_formula_units_Z  2
loop_
  _symmetry_equiv_pos_site_id
 _symmetry_equiv_pos_as_xyz
 1  'x, y, z'
loop_
 _atom_site_type_symbol
 _atom_site_label
 _atom_site_symmetry_multiplicity
 _atom_site_fract_x
 _atom_site_fract_y
 _atom_site_fract_z
 _atom_site_fract_occupancy
 Bi  Bi1  1  0.69220  0.29695  0.07955  1
 Bi  Bi2  1  0.69233  0.79707  0.57969  1
 Bi  Bi3  1  0.28811  0.16987  0.39843  1
 Bi  Bi4  1  0.28824  0.66999  0.89856  1
 Mg  Mg1  1  0.49022  0.73339  0.23910  1
 Mg  Mg2  1  0.49026  0.23355  0.73902  1
 O  O1  1  0.65552  0.55251  0.75063  1
 O  O2  1  0.65536  0.05229  0.25052  1
 O  O3  1  0.32507  0.91464  0.72759  1
 O  O4  1  0.32492  0.41443  0.22749  1
 O  O5  1  0.11075  0.32566  0.88790  1
 O  O6  1  0.11070  0.82556  0.38790  1
 O  O7  1  0.86969  0.64128  0.09021  1
 O  O8  1  0.86974  0.14138  0.59021  1
