CIF file written using JARVIS-Tools package.
data_Mn3SnO8
_symmetry_space_group_name_H-M  'R-3m'
_cell_length_a       6.09609
_cell_length_b       6.09609
_cell_length_c       6.09609
_cell_angle_alpha    55.8864
_cell_angle_beta     55.8865
_cell_angle_gamma    55.8864

_symmetry_Int_Tables_number  166
_chemical_formula_structural  Mn3SnO8
_chemical_formula_sum  Mn3SnO8
_cell_volume  144.91740755334934
_cell_formula_units_Z  1
loop_
  _symmetry_equiv_pos_site_id
 _symmetry_equiv_pos_as_xyz
 1  'x, y, z'
loop_
 _atom_site_type_symbol
 _atom_site_label
 _atom_site_symmetry_multiplicity
 _atom_site_fract_x
 _atom_site_fract_y
 _atom_site_fract_z
 _atom_site_fract_occupancy
 Mn  Mn1  1  -0.00000  0.50000  0.50000  1
 Mn  Mn2  1  0.50000  0.00000  0.50000  1
 Mn  Mn3  1  0.50000  0.50000  -0.00000  1
 O  O1  1  0.26938  0.26938  0.26938  1
 O  O2  1  0.25095  0.25095  0.70983  1
 O  O3  1  0.25095  0.70983  0.25095  1
 O  O4  1  0.70983  0.25095  0.25095  1
 O  O5  1  0.29017  0.74905  0.74905  1
 O  O6  1  0.74905  0.29017  0.74905  1
 O  O7  1  0.74905  0.74905  0.29017  1
 O  O8  1  0.73062  0.73062  0.73062  1
 Sn  Sn1  1  0.50000  0.50000  0.50000  1
