CIF file written using JARVIS-Tools package.
data_ThNb4O12
_symmetry_space_group_name_H-M  'I4/mmm'
_cell_length_a       5.60819
_cell_length_b       5.60819
_cell_length_c       8.91229
_cell_angle_alpha    71.6614
_cell_angle_beta     71.6614
_cell_angle_gamma    90

_symmetry_Int_Tables_number  139
_chemical_formula_structural  ThNb4O12
_chemical_formula_sum  ThNb4O2
_cell_volume  251.03015969206584
_cell_formula_units_Z  1
loop_
  _symmetry_equiv_pos_site_id
 _symmetry_equiv_pos_as_xyz
 1  'x, y, z'
loop_
 _atom_site_type_symbol
 _atom_site_label
 _atom_site_symmetry_multiplicity
 _atom_site_fract_x
 _atom_site_fract_y
 _atom_site_fract_z
 _atom_site_fract_occupancy
 Nb  Nb1  1  0.62204  0.12204  0.75591  1
 Nb  Nb2  1  0.87796  0.37796  0.24409  1
 Nb  Nb3  1  0.12204  0.62204  0.75591  1
 Nb  Nb4  1  0.37796  0.87796  0.24409  1
 O  O1  1  0.75000  0.25000  0.50000  1
 O  O2  1  -0.00000  0.50000  0.00000  1
 O  O3  1  0.12679  0.12679  0.27597  1
 O  O4  1  0.50000  -0.00000  0.00000  1
 O  O5  1  0.37321  0.90276  0.72403  1
 O  O6  1  0.12679  0.59724  0.27597  1
 O  O7  1  0.90276  0.90276  0.72403  1
 O  O8  1  0.59724  0.12679  0.27597  1
 O  O9  1  0.37321  0.37321  0.72403  1
 O  O10  1  0.25000  0.75000  0.50000  1
 O  O11  1  0.90276  0.37321  0.72403  1
 O  O12  1  0.59724  0.59724  0.27597  1
 Th  Th1  1  0.25000  0.25000  0.50000  1
