CIF file written using JARVIS-Tools package.
data_SrU
_symmetry_space_group_name_H-M  'R3m'
_cell_length_a       3.27965
_cell_length_b       3.27965
_cell_length_c       6.82318
_cell_angle_alpha    76.0939
_cell_angle_beta     76.0939
_cell_angle_gamma    59.9998

_symmetry_Int_Tables_number  160
_chemical_formula_structural  SrU
_chemical_formula_sum  SrU
_cell_volume  61.06176991975721
_cell_formula_units_Z  1
loop_
  _symmetry_equiv_pos_site_id
 _symmetry_equiv_pos_as_xyz
 1  'x, y, z'
loop_
 _atom_site_type_symbol
 _atom_site_label
 _atom_site_symmetry_multiplicity
 _atom_site_fract_x
 _atom_site_fract_y
 _atom_site_fract_z
 _atom_site_fract_occupancy
 Sr  Sr1  1  0.85455  0.85455  0.43635  1
 U  U1  1  0.68345  0.68345  -0.05035  1
