CIF file written using JARVIS-Tools package.
data_ErTaO4
_symmetry_space_group_name_H-M  'P2/c'
_cell_length_a       5.10963
_cell_length_b       5.43586
_cell_length_c       5.2983
_cell_angle_alpha    90
_cell_angle_beta     96.3095
_cell_angle_gamma    90

_symmetry_Int_Tables_number  13
_chemical_formula_structural  ErTaO4
_chemical_formula_sum  Er2Ta2O8
_cell_volume  146.27010585776358
_cell_formula_units_Z  2
loop_
  _symmetry_equiv_pos_site_id
 _symmetry_equiv_pos_as_xyz
 1  'x, y, z'
loop_
 _atom_site_type_symbol
 _atom_site_label
 _atom_site_symmetry_multiplicity
 _atom_site_fract_x
 _atom_site_fract_y
 _atom_site_fract_z
 _atom_site_fract_occupancy
 Er  Er1  1  -0.00000  0.76549  0.25000  1
 Er  Er2  1  -0.00000  0.23451  0.75000  1
 O  O1  1  0.26519  0.56234  0.99209  1
 O  O2  1  0.73481  0.56234  0.50791  1
 O  O3  1  0.73481  0.43766  0.00791  1
 O  O4  1  0.26519  0.43766  0.49209  1
 O  O5  1  0.75106  0.07891  0.40445  1
 O  O6  1  0.24894  0.07891  0.09555  1
 O  O7  1  0.24894  0.92109  0.59555  1
 O  O8  1  0.75106  0.92109  0.90445  1
 Ta  Ta1  1  0.50000  0.69802  0.75000  1
 Ta  Ta2  1  0.50000  0.30198  0.25000  1
