CIF file written using JARVIS-Tools package.
data_NaCrF6
_symmetry_space_group_name_H-M  'R-3'
_cell_length_a       5.61703
_cell_length_b       5.61702
_cell_length_c       5.61703
_cell_angle_alpha    53.7516
_cell_angle_beta     53.7517
_cell_angle_gamma    53.7517

_symmetry_Int_Tables_number  148
_chemical_formula_structural  NaCrF6
_chemical_formula_sum  NaCrF6
_cell_volume  107.00963207218759
_cell_formula_units_Z  1
loop_
  _symmetry_equiv_pos_site_id
 _symmetry_equiv_pos_as_xyz
 1  'x, y, z'
loop_
 _atom_site_type_symbol
 _atom_site_label
 _atom_site_symmetry_multiplicity
 _atom_site_fract_x
 _atom_site_fract_y
 _atom_site_fract_z
 _atom_site_fract_occupancy
 Cr  Cr1  1  0.00000  0.00000  0.00000  1
 F  F1  1  0.78930  0.06294  0.36419  1
 F  F2  1  0.06294  0.36419  0.78930  1
 F  F3  1  0.63581  0.21070  0.93706  1
 F  F4  1  0.93706  0.63581  0.21070  1
 F  F5  1  0.21070  0.93706  0.63581  1
 F  F6  1  0.36419  0.78930  0.06294  1
 Na  Na1  1  0.50000  0.50000  0.50000  1
