CIF file written using JARVIS-Tools package.
data_LiAg2F6
_symmetry_space_group_name_H-M  'P4_2/mnm'
_cell_length_a       4.79529
_cell_length_b       10.2576
_cell_length_c       4.79496
_cell_angle_alpha    90
_cell_angle_beta     89.9956
_cell_angle_gamma    90

_symmetry_Int_Tables_number  136
_chemical_formula_structural  LiAg2F6
_chemical_formula_sum  Li2Ag4F2
_cell_volume  235.85671822026598
_cell_formula_units_Z  2
loop_
  _symmetry_equiv_pos_site_id
 _symmetry_equiv_pos_as_xyz
 1  'x, y, z'
loop_
 _atom_site_type_symbol
 _atom_site_label
 _atom_site_symmetry_multiplicity
 _atom_site_fract_x
 _atom_site_fract_y
 _atom_site_fract_z
 _atom_site_fract_occupancy
 Ag  Ag1  1  0.00000  0.33624  0.00000  1
 Ag  Ag2  1  0.00000  0.66376  0.00000  1
 Ag  Ag3  1  0.50000  0.16378  0.50000  1
 Ag  Ag4  1  0.50000  0.83625  0.50000  1
 F  F1  1  0.69776  0.33236  0.30227  1
 F  F2  1  0.19773  0.83235  0.19770  1
 F  F3  1  0.19776  0.16765  0.19772  1
 F  F4  1  0.80224  0.16765  0.80228  1
 F  F5  1  0.29183  -0.00000  0.70815  1
 F  F6  1  0.20817  0.50001  0.20815  1
 F  F7  1  0.80227  0.83235  0.80230  1
 F  F8  1  0.69773  0.66766  0.30230  1
 F  F9  1  0.30224  0.33236  0.69773  1
 F  F10  1  0.70817  -0.00000  0.29185  1
 F  F11  1  0.79183  0.50001  0.79185  1
 F  F12  1  0.30227  0.66766  0.69770  1
 Li  Li1  1  0.50000  0.50008  0.50000  1
 Li  Li2  1  0.00000  0.99993  0.00000  1
