CIF file written using JARVIS-Tools package.
data_Rb2O
_symmetry_space_group_name_H-M  'Immm'
_cell_length_a       4.76712
_cell_length_b       4.79871
_cell_length_c       6.76136
_cell_angle_alpha    90
_cell_angle_beta     90.0077
_cell_angle_gamma    90

_symmetry_Int_Tables_number  71
_chemical_formula_structural  Rb2O
_chemical_formula_sum  Rb4O2
_cell_volume  154.67312102357403
_cell_formula_units_Z  2
loop_
  _symmetry_equiv_pos_site_id
 _symmetry_equiv_pos_as_xyz
 1  'x, y, z'
loop_
 _atom_site_type_symbol
 _atom_site_label
 _atom_site_symmetry_multiplicity
 _atom_site_fract_x
 _atom_site_fract_y
 _atom_site_fract_z
 _atom_site_fract_occupancy
 O  O1  1  0.24997  0.25002  0.74999  1
 O  O2  1  0.75003  0.75002  0.25001  1
 Rb  Rb1  1  0.25002  0.74985  -0.00036  1
 Rb  Rb2  1  0.24999  0.75012  0.49996  1
 Rb  Rb3  1  0.75001  0.25012  0.50004  1
 Rb  Rb4  1  0.74998  0.24985  0.00036  1
