CIF file written using JARVIS-Tools package.
data_K2NaAlP2
_symmetry_space_group_name_H-M  'Ibam'
_cell_length_a       6.30086
_cell_length_b       6.57377
_cell_length_c       8.59288
_cell_angle_alpha    112.49
_cell_angle_beta     111.508
_cell_angle_gamma    90

_symmetry_Int_Tables_number  72
_chemical_formula_structural  K2NaAlP2
_chemical_formula_sum  K4Na2Al2P4
_cell_volume  301.85405547417645
_cell_formula_units_Z  2
loop_
  _symmetry_equiv_pos_site_id
 _symmetry_equiv_pos_as_xyz
 1  'x, y, z'
loop_
 _atom_site_type_symbol
 _atom_site_label
 _atom_site_symmetry_multiplicity
 _atom_site_fract_x
 _atom_site_fract_y
 _atom_site_fract_z
 _atom_site_fract_occupancy
 Al  Al1  1  0.75001  0.00000  0.00000  1
 Al  Al2  1  0.24999  -0.00000  -0.00000  1
 K  K1  1  0.82300  0.08812  0.64600  1
 K  K2  1  0.17700  0.91188  0.35400  1
 K  K3  1  0.67699  0.44212  0.35398  1
 K  K4  1  0.32301  0.55788  0.64602  1
 Na  Na1  1  0.24999  0.50000  0.00000  1
 Na  Na2  1  0.75001  0.50000  -0.00000  1
 P  P1  1  0.09309  0.29231  0.18618  1
 P  P2  1  0.59308  0.89386  0.18616  1
 P  P3  1  0.40692  0.10614  0.81384  1
 P  P4  1  0.90691  0.70769  0.81382  1
