CIF file written using JARVIS-Tools package.
data_YVF5
_symmetry_space_group_name_H-M  'Immm'
_cell_length_a       4.13593
_cell_length_b       5.73581
_cell_length_c       5.73581
_cell_angle_alpha    72.6906
_cell_angle_beta     68.8668
_cell_angle_gamma    68.8669

_symmetry_Int_Tables_number  71
_chemical_formula_structural  YVF5
_chemical_formula_sum  YVF5
_cell_volume  116.16724354539517
_cell_formula_units_Z  1
loop_
  _symmetry_equiv_pos_site_id
 _symmetry_equiv_pos_as_xyz
 1  'x, y, z'
loop_
 _atom_site_type_symbol
 _atom_site_label
 _atom_site_symmetry_multiplicity
 _atom_site_fract_x
 _atom_site_fract_y
 _atom_site_fract_z
 _atom_site_fract_occupancy
 F  F1  1  0.50000  0.82422  0.17578  1
 F  F2  1  0.50000  0.17578  0.82422  1
 F  F3  1  0.76660  0.23340  0.23340  1
 F  F4  1  0.23340  0.76660  0.76660  1
 F  F5  1  -0.00000  0.50000  0.50000  1
 V  V1  1  0.00000  0.00000  0.00000  1
 Y  Y1  1  0.50000  0.50000  0.50000  1
