CIF file written using JARVIS-Tools package.
data_ErCd2
_symmetry_space_group_name_H-M  'P6/mmm'
_cell_length_a       3.37461
_cell_length_b       5.96919
_cell_length_c       4.92406
_cell_angle_alpha    114.359
_cell_angle_beta     90
_cell_angle_gamma    55.5773

_symmetry_Int_Tables_number  191
_chemical_formula_structural  ErCd2
_chemical_formula_sum  ErCd2
_cell_volume  70.85734075397895
_cell_formula_units_Z  1
loop_
  _symmetry_equiv_pos_site_id
 _symmetry_equiv_pos_as_xyz
 1  'x, y, z'
loop_
 _atom_site_type_symbol
 _atom_site_label
 _atom_site_symmetry_multiplicity
 _atom_site_fract_x
 _atom_site_fract_y
 _atom_site_fract_z
 _atom_site_fract_occupancy
 Cd  Cd1  1  0.16653  0.33334  0.66667  1
 Cd  Cd2  1  0.83347  0.66666  0.33333  1
 Er  Er1  1  0.00000  0.00000  0.00000  1
