CIF file written using JARVIS-Tools package.
data_ZrI4O12
_symmetry_space_group_name_H-M  'P4/n'
_cell_length_a       8.4143
_cell_length_b       8.4143
_cell_length_c       7.46927
_cell_angle_alpha    90
_cell_angle_beta     90
_cell_angle_gamma    90

_symmetry_Int_Tables_number  85
_chemical_formula_structural  ZrI4O12
_chemical_formula_sum  Zr2I8O24
_cell_volume  528.8270829900774
_cell_formula_units_Z  2
loop_
  _symmetry_equiv_pos_site_id
 _symmetry_equiv_pos_as_xyz
 1  'x, y, z'
loop_
 _atom_site_type_symbol
 _atom_site_label
 _atom_site_symmetry_multiplicity
 _atom_site_fract_x
 _atom_site_fract_y
 _atom_site_fract_z
 _atom_site_fract_occupancy
 I  I1  1  0.71830  0.24765  0.72785  1
 I  I2  1  0.25235  0.21830  0.72785  1
 I  I3  1  0.28170  0.75235  0.72785  1
 I  I4  1  0.78170  0.25235  0.27215  1
 I  I5  1  0.75235  0.71830  0.27215  1
 I  I6  1  0.24765  0.28170  0.27215  1
 I  I7  1  0.21830  0.74765  0.27215  1
 I  I8  1  0.74765  0.78170  0.72785  1
 O  O1  1  0.92817  0.29196  0.78047  1
 O  O2  1  0.20585  0.58813  0.09667  1
 O  O3  1  0.07183  0.70804  0.78047  1
 O  O4  1  0.91187  0.70585  0.09667  1
 O  O5  1  0.79415  0.41187  0.09667  1
 O  O6  1  0.29196  0.07183  0.21953  1
 O  O7  1  0.41187  0.20585  0.90333  1
 O  O8  1  0.58813  0.79415  0.90333  1
 O  O9  1  0.79196  0.57183  0.78047  1
 O  O10  1  0.70585  0.08813  0.90333  1
 O  O11  1  0.29415  0.91187  0.90333  1
 O  O12  1  0.08813  0.29415  0.09667  1
 O  O13  1  0.20804  0.42817  0.78047  1
 O  O14  1  0.74838  0.40240  0.44647  1
 O  O15  1  0.59760  0.74838  0.55353  1
 O  O16  1  0.70804  0.92817  0.21953  1
 O  O17  1  0.24838  0.90240  0.55353  1
 O  O18  1  0.42817  0.79196  0.21953  1
 O  O19  1  0.57183  0.20804  0.21953  1
 O  O20  1  0.90240  0.75162  0.44647  1
 O  O21  1  0.09760  0.24838  0.44647  1
 O  O22  1  0.25162  0.59760  0.44647  1
 O  O23  1  0.75162  0.09760  0.55353  1
 O  O24  1  0.40240  0.25162  0.55353  1
 Zr  Zr1  1  0.00000  0.50000  0.94217  1
 Zr  Zr2  1  0.50000  0.00000  0.05783  1
