CIF file written using JARVIS-Tools package.
data_Al6Cd4TeO12
_symmetry_space_group_name_H-M  'I-43m'
_cell_length_a       7.83893
_cell_length_b       7.83893
_cell_length_c       7.83893
_cell_angle_alpha    109.471
_cell_angle_beta     109.471
_cell_angle_gamma    109.471

_symmetry_Int_Tables_number  217
_chemical_formula_structural  Al6Cd4TeO12
_chemical_formula_sum  Al6Cd4TeO2
_cell_volume  370.807493160009
_cell_formula_units_Z  1
loop_
  _symmetry_equiv_pos_site_id
 _symmetry_equiv_pos_as_xyz
 1  'x, y, z'
loop_
 _atom_site_type_symbol
 _atom_site_label
 _atom_site_symmetry_multiplicity
 _atom_site_fract_x
 _atom_site_fract_y
 _atom_site_fract_z
 _atom_site_fract_occupancy
 Al  Al1  1  0.50000  0.75000  0.25000  1
 Al  Al2  1  0.50000  0.25000  0.75000  1
 Al  Al3  1  0.75000  0.50000  0.25000  1
 Al  Al4  1  0.25000  0.50000  0.75000  1
 Al  Al5  1  0.75000  0.25000  0.50000  1
 Al  Al6  1  0.25000  0.75000  0.50000  1
 Cd  Cd1  1  0.64278  0.00000  0.00000  1
 Cd  Cd2  1  -0.00000  -0.00000  0.64278  1
 Cd  Cd3  1  0.35722  0.35722  0.35722  1
 Cd  Cd4  1  -0.00000  0.64278  -0.00000  1
 O  O1  1  0.27701  0.27701  0.71414  1
 O  O2  1  0.56287  0.28586  0.56287  1
 O  O3  1  0.28586  0.56287  0.56287  1
 O  O4  1  0.72299  -0.00000  0.43713  1
 O  O5  1  0.27701  0.71414  0.27701  1
 O  O6  1  0.43713  0.72299  0.00000  1
 O  O7  1  -0.00000  0.72299  0.43713  1
 O  O8  1  0.72299  0.43713  -0.00000  1
 O  O9  1  -0.00000  0.43713  0.72299  1
 O  O10  1  0.56287  0.56287  0.28586  1
 O  O11  1  0.71414  0.27701  0.27701  1
 O  O12  1  0.43713  0.00000  0.72299  1
 Te  Te1  1  0.00000  0.00000  0.00000  1
