CIF file written using JARVIS-Tools package.
data_Be2RuRh
_symmetry_space_group_name_H-M  'C2/m'
_cell_length_a       9.54273
_cell_length_b       6.75172
_cell_length_c       6.75173
_cell_angle_alpha    34.2233
_cell_angle_beta     19.8442
_cell_angle_gamma    19.8451

_symmetry_Int_Tables_number  12
_chemical_formula_structural  Be2RuRh
_chemical_formula_sum  Be2RuRh
_cell_volume  43.342294318688225
_cell_formula_units_Z  1
loop_
  _symmetry_equiv_pos_site_id
 _symmetry_equiv_pos_as_xyz
 1  'x, y, z'
loop_
 _atom_site_type_symbol
 _atom_site_label
 _atom_site_symmetry_multiplicity
 _atom_site_fract_x
 _atom_site_fract_y
 _atom_site_fract_z
 _atom_site_fract_occupancy
 Be  Be1  1  0.74807  0.00084  0.00083  1
 Be  Be2  1  0.25193  -0.00084  -0.00083  1
 Rh  Rh1  1  0.50000  -0.00000  -0.00000  1
 Ru  Ru1  1  -0.00000  0.00000  0.00000  1
