CIF file written using JARVIS-Tools package.
data_CaMo2O5
_symmetry_space_group_name_H-M  'Cmcm'
_cell_length_a       3.91315
_cell_length_b       5.95869
_cell_length_c       11.4814
_cell_angle_alpha    90
_cell_angle_beta     90
_cell_angle_gamma    109.169

_symmetry_Int_Tables_number  63
_chemical_formula_structural  CaMo2O5
_chemical_formula_sum  Ca2Mo4O0
_cell_volume  252.87149323482402
_cell_formula_units_Z  2
loop_
  _symmetry_equiv_pos_site_id
 _symmetry_equiv_pos_as_xyz
 1  'x, y, z'
loop_
 _atom_site_type_symbol
 _atom_site_label
 _atom_site_symmetry_multiplicity
 _atom_site_fract_x
 _atom_site_fract_y
 _atom_site_fract_z
 _atom_site_fract_occupancy
 Ca  Ca1  1  0.88327  0.76653  0.75000  1
 Ca  Ca2  1  0.11674  0.23347  0.25000  1
 Mo  Mo1  1  0.19003  0.38006  0.59680  1
 Mo  Mo2  1  0.80997  0.61994  0.40320  1
 Mo  Mo3  1  0.80997  0.61994  0.09680  1
 Mo  Mo4  1  0.19003  0.38006  0.90320  1
 O  O1  1  0.71147  0.42295  0.25000  1
 O  O2  1  0.28853  0.57706  0.75000  1
 O  O3  1  0.24763  0.49526  0.07190  1
 O  O4  1  0.75237  0.50474  0.92810  1
 O  O5  1  0.75237  0.50474  0.57190  1
 O  O6  1  0.24763  0.49526  0.42810  1
 O  O7  1  0.03808  0.07616  0.61911  1
 O  O8  1  0.96192  0.92384  0.38089  1
 O  O9  1  0.03808  0.07616  0.88089  1
 O  O10  1  0.96192  0.92384  0.11911  1
