CIF file written using JARVIS-Tools package.
data_UCr2O6
_symmetry_space_group_name_H-M  'P-31m'
_cell_length_a       4.81793
_cell_length_b       4.81793
_cell_length_c       4.92878
_cell_angle_alpha    90
_cell_angle_beta     90
_cell_angle_gamma    120

_symmetry_Int_Tables_number  162
_chemical_formula_structural  UCr2O6
_chemical_formula_sum  UCr2O6
_cell_volume  99.08117329666631
_cell_formula_units_Z  1
loop_
  _symmetry_equiv_pos_site_id
 _symmetry_equiv_pos_as_xyz
 1  'x, y, z'
loop_
 _atom_site_type_symbol
 _atom_site_label
 _atom_site_symmetry_multiplicity
 _atom_site_fract_x
 _atom_site_fract_y
 _atom_site_fract_z
 _atom_site_fract_occupancy
 Cr  Cr1  1  0.66667  0.33333  0.50000  1
 Cr  Cr2  1  0.33333  0.66667  0.50000  1
 O  O1  1  0.65760  0.65760  0.27146  1
 O  O2  1  -0.00000  0.34240  0.27146  1
 O  O3  1  0.34240  -0.00000  0.27146  1
 O  O4  1  0.00000  0.65760  0.72854  1
 O  O5  1  0.34240  0.34240  0.72854  1
 O  O6  1  0.65760  0.00000  0.72854  1
 U  U1  1  0.00000  0.00000  0.00000  1
