CIF file written using JARVIS-Tools package.
data_RuN
_symmetry_space_group_name_H-M  'P-6m2'
_cell_length_a       2.71894
_cell_length_b       2.94293
_cell_length_c       2.94293
_cell_angle_alpha    120.023
_cell_angle_beta     90
_cell_angle_gamma    90

_symmetry_Int_Tables_number  187
_chemical_formula_structural  RuN
_chemical_formula_sum  RuN
_cell_volume  20.388633450672316
_cell_formula_units_Z  1
loop_
  _symmetry_equiv_pos_site_id
 _symmetry_equiv_pos_as_xyz
 1  'x, y, z'
loop_
 _atom_site_type_symbol
 _atom_site_label
 _atom_site_symmetry_multiplicity
 _atom_site_fract_x
 _atom_site_fract_y
 _atom_site_fract_z
 _atom_site_fract_occupancy
 N  N1  1  0.50000  0.66673  0.33327  1
 Ru  Ru1  1  0.00000  0.99997  0.00003  1
