CIF file written using JARVIS-Tools package.
data_YOF
_symmetry_space_group_name_H-M  'R-3m'
_cell_length_a       16.7539
_cell_length_b       6.69028
_cell_length_c       8.59117
_cell_angle_alpha    154.81
_cell_angle_beta     167.179
_cell_angle_gamma    21.8693

_symmetry_Int_Tables_number  166
_chemical_formula_structural  YOF
_chemical_formula_sum  Y2O2F2
_cell_volume  79.59739212285047
_cell_formula_units_Z  2
loop_
  _symmetry_equiv_pos_site_id
 _symmetry_equiv_pos_as_xyz
 1  'x, y, z'
loop_
 _atom_site_type_symbol
 _atom_site_label
 _atom_site_symmetry_multiplicity
 _atom_site_fract_x
 _atom_site_fract_y
 _atom_site_fract_z
 _atom_site_fract_occupancy
 F  F1  1  0.36967  0.65188  -0.00000  1
 F  F2  1  0.63033  0.34812  0.00000  1
 O  O1  1  0.12124  0.89383  0.00000  1
 O  O2  1  0.87876  0.10617  -0.00000  1
 Y  Y1  1  0.75860  0.70735  0.00000  1
 Y  Y2  1  0.24140  0.29265  -0.00000  1
