CIF file written using JARVIS-Tools package.
data_LiCuF3
_symmetry_space_group_name_H-M  'R3c'
_cell_length_a       5.07636
_cell_length_b       5.48697
_cell_length_c       5.07636
_cell_angle_alpha    90
_cell_angle_beta     120
_cell_angle_gamma    62.4461

_symmetry_Int_Tables_number  161
_chemical_formula_structural  LiCuF3
_chemical_formula_sum  Li2Cu2F6
_cell_volume  103.52083476982445
_cell_formula_units_Z  2
loop_
  _symmetry_equiv_pos_site_id
 _symmetry_equiv_pos_as_xyz
 1  'x, y, z'
loop_
 _atom_site_type_symbol
 _atom_site_label
 _atom_site_symmetry_multiplicity
 _atom_site_fract_x
 _atom_site_fract_y
 _atom_site_fract_z
 _atom_site_fract_occupancy
 Cu  Cu1  1  0.97812  0.53283  0.48906  1
 Cu  Cu2  1  0.97812  0.03283  0.98906  1
 F  F1  1  0.16202  0.25179  0.27000  1
 F  F2  1  0.16202  0.75179  0.39202  1
 F  F3  1  0.47821  0.75179  0.08619  1
 F  F4  1  0.47821  0.25179  0.89202  1
 F  F5  1  0.85620  0.25179  0.58619  1
 F  F6  1  0.85620  0.75179  0.77000  1
 Li  Li1  1  0.38652  0.42023  0.19326  1
 Li  Li2  1  0.38652  0.92023  0.69326  1
