CIF file written using JARVIS-Tools package.
data_Tl2MoO4
_symmetry_space_group_name_H-M  'P-3m1'
_cell_length_a       6.22608
_cell_length_b       6.22608
_cell_length_c       8.3187
_cell_angle_alpha    90
_cell_angle_beta     90
_cell_angle_gamma    120

_symmetry_Int_Tables_number  164
_chemical_formula_structural  Tl2MoO4
_chemical_formula_sum  Tl4Mo2O8
_cell_volume  279.26454537402043
_cell_formula_units_Z  2
loop_
  _symmetry_equiv_pos_site_id
 _symmetry_equiv_pos_as_xyz
 1  'x, y, z'
loop_
 _atom_site_type_symbol
 _atom_site_label
 _atom_site_symmetry_multiplicity
 _atom_site_fract_x
 _atom_site_fract_y
 _atom_site_fract_z
 _atom_site_fract_occupancy
 Mo  Mo1  1  0.66667  0.33333  0.31553  1
 Mo  Mo2  1  0.33333  0.66667  0.68447  1
 O  O1  1  0.17846  0.82154  0.75889  1
 O  O2  1  0.66667  0.33333  0.53003  1
 O  O3  1  0.82154  0.64308  0.24111  1
 O  O4  1  0.82154  0.17846  0.24111  1
 O  O5  1  0.64308  0.82154  0.75889  1
 O  O6  1  0.35692  0.17846  0.24111  1
 O  O7  1  0.17846  0.35692  0.75889  1
 O  O8  1  0.33333  0.66667  0.46997  1
 Tl  Tl1  1  0.33333  0.66667  0.17693  1
 Tl  Tl2  1  0.00000  0.00000  0.00000  1
 Tl  Tl3  1  0.66667  0.33333  0.82307  1
 Tl  Tl4  1  0.00000  0.00000  0.50000  1
