CIF file written using JARVIS-Tools package.
data_CuHgPd2
_symmetry_space_group_name_H-M  'Immm'
_cell_length_a       10.0654
_cell_length_b       10.7133
_cell_length_c       10.7133
_cell_angle_alpha    61.5173
_cell_angle_beta     61.9812
_cell_angle_gamma    61.9811

_symmetry_Int_Tables_number  71
_chemical_formula_structural  CuHgPd2
_chemical_formula_sum  CuHgPd2
_cell_volume  850.2723035964982
_cell_formula_units_Z  1
loop_
  _symmetry_equiv_pos_site_id
 _symmetry_equiv_pos_as_xyz
 1  'x, y, z'
loop_
 _atom_site_type_symbol
 _atom_site_label
 _atom_site_symmetry_multiplicity
 _atom_site_fract_x
 _atom_site_fract_y
 _atom_site_fract_z
 _atom_site_fract_occupancy
 Cu  Cu1  1  0.00000  0.00000  0.00000  1
 Hg  Hg1  1  0.50000  -0.00000  -0.00000  1
 Pd  Pd1  1  0.76566  -0.00000  -0.00000  1
 Pd  Pd2  1  0.23434  0.00000  0.00000  1
