CIF file written using JARVIS-Tools package.
data_AgSnRh2
_symmetry_space_group_name_H-M  'Immm'
_cell_length_a       10.8258
_cell_length_b       6.05999
_cell_length_c       6.05999
_cell_angle_alpha    44.1527
_cell_angle_beta     26.719
_cell_angle_gamma    26.719

_symmetry_Int_Tables_number  71
_chemical_formula_structural  AgSnRh2
_chemical_formula_sum  AgSnRh2
_cell_volume  73.74551842149023
_cell_formula_units_Z  1
loop_
  _symmetry_equiv_pos_site_id
 _symmetry_equiv_pos_as_xyz
 1  'x, y, z'
loop_
 _atom_site_type_symbol
 _atom_site_label
 _atom_site_symmetry_multiplicity
 _atom_site_fract_x
 _atom_site_fract_y
 _atom_site_fract_z
 _atom_site_fract_occupancy
 Ag  Ag1  1  0.00000  0.00000  0.00000  1
 Rh  Rh1  1  0.73470  0.00000  1.00000  1
 Rh  Rh2  1  0.26530  1.00000  0.00000  1
 Sn  Sn1  1  0.50000  -0.00000  -0.00000  1
