CIF file written using JARVIS-Tools package.
data_CuI2O6
_symmetry_space_group_name_H-M  'P2_1'
_cell_length_a       5.60741
_cell_length_b       5.01262
_cell_length_c       9.34194
_cell_angle_alpha    90
_cell_angle_beta     96.712
_cell_angle_gamma    90

_symmetry_Int_Tables_number  4
_chemical_formula_structural  CuI2O6
_chemical_formula_sum  Cu2I4O2
_cell_volume  260.7819469122899
_cell_formula_units_Z  2
loop_
  _symmetry_equiv_pos_site_id
 _symmetry_equiv_pos_as_xyz
 1  'x, y, z'
loop_
 _atom_site_type_symbol
 _atom_site_label
 _atom_site_symmetry_multiplicity
 _atom_site_fract_x
 _atom_site_fract_y
 _atom_site_fract_z
 _atom_site_fract_occupancy
 Cu  Cu1  1  0.21993  0.59591  0.74496  1
 Cu  Cu2  1  0.78007  0.09591  0.25504  1
 I  I1  1  0.73484  0.50804  0.93178  1
 I  I2  1  0.26516  0.00804  0.06822  1
 I  I3  1  0.74208  0.02388  0.59847  1
 I  I4  1  0.25792  0.52388  0.40153  1
 O  O1  1  0.54844  0.35333  0.41426  1
 O  O2  1  0.45156  0.85333  0.58574  1
 O  O3  1  0.01893  0.79811  0.11674  1
 O  O4  1  0.86201  0.89416  0.43458  1
 O  O5  1  0.13799  0.39416  0.56542  1
 O  O6  1  0.64539  0.29631  0.08199  1
 O  O7  1  0.35461  0.79631  0.91801  1
 O  O8  1  0.09500  0.27587  0.27396  1
 O  O9  1  0.49484  0.86381  0.20822  1
 O  O10  1  0.50516  0.36381  0.79178  1
 O  O11  1  0.90500  0.77587  0.72604  1
 O  O12  1  0.98107  0.29811  0.88326  1
