CIF file written using JARVIS-Tools package.
data_SbPO5
_symmetry_space_group_name_H-M  'C2/c'
_cell_length_a       5.31099
_cell_length_b       5.31099
_cell_length_c       7.10431
_cell_angle_alpha    106.308
_cell_angle_beta     106.308
_cell_angle_gamma    99.8825

_symmetry_Int_Tables_number  15
_chemical_formula_structural  SbPO5
_chemical_formula_sum  Sb2P2O0
_cell_volume  177.63147804323756
_cell_formula_units_Z  2
loop_
  _symmetry_equiv_pos_site_id
 _symmetry_equiv_pos_as_xyz
 1  'x, y, z'
loop_
 _atom_site_type_symbol
 _atom_site_label
 _atom_site_symmetry_multiplicity
 _atom_site_fract_x
 _atom_site_fract_y
 _atom_site_fract_z
 _atom_site_fract_occupancy
 O  O1  1  0.26058  0.37547  0.09335  1
 O  O2  1  0.62453  0.73942  0.40665  1
 O  O3  1  0.73942  0.62453  0.90665  1
 O  O4  1  0.37547  0.26058  0.59335  1
 O  O5  1  0.09588  0.90412  0.75000  1
 O  O6  1  0.90412  0.09588  0.25000  1
 O  O7  1  0.12851  0.68143  0.36890  1
 O  O8  1  0.31857  0.87149  0.13110  1
 O  O9  1  0.87149  0.31857  0.63110  1
 O  O10  1  0.68143  0.12851  0.86890  1
 P  P1  1  0.33293  0.66707  0.25000  1
 P  P2  1  0.66707  0.33293  0.75000  1
 Sb  Sb1  1  -0.00000  -0.00000  0.50000  1
 Sb  Sb2  1  0.00000  0.00000  0.00000  1
