CIF file written using JARVIS-Tools package.
data_KHfCuS3
_symmetry_space_group_name_H-M  'Cmcm'
_cell_length_a       3.72335
_cell_length_b       7.20581
_cell_length_c       9.74992
_cell_angle_alpha    90
_cell_angle_beta     90
_cell_angle_gamma    104.973

_symmetry_Int_Tables_number  63
_chemical_formula_structural  KHfCuS3
_chemical_formula_sum  K2Hf2Cu2S6
_cell_volume  252.70669829899734
_cell_formula_units_Z  2
loop_
  _symmetry_equiv_pos_site_id
 _symmetry_equiv_pos_as_xyz
 1  'x, y, z'
loop_
 _atom_site_type_symbol
 _atom_site_label
 _atom_site_symmetry_multiplicity
 _atom_site_fract_x
 _atom_site_fract_y
 _atom_site_fract_z
 _atom_site_fract_occupancy
 Cu  Cu1  1  0.53787  0.07573  0.25000  1
 Cu  Cu2  1  0.46213  0.92427  0.75000  1
 Hf  Hf1  1  0.00000  0.00000  0.00000  1
 Hf  Hf2  1  0.00000  0.00000  0.50000  1
 K  K1  1  0.25533  0.51066  0.25000  1
 K  K2  1  0.74467  0.48934  0.75000  1
 S  S1  1  0.37663  0.75325  0.54902  1
 S  S2  1  0.62337  0.24675  0.45098  1
 S  S3  1  0.62337  0.24675  0.04902  1
 S  S4  1  0.06345  0.12689  0.75000  1
 S  S5  1  0.93655  0.87311  0.25000  1
 S  S6  1  0.37663  0.75325  0.95098  1
