CIF file written using JARVIS-Tools package.
data_HBr
_symmetry_space_group_name_H-M  'Pnma'
_cell_length_a       5.24753
_cell_length_b       5.39739
_cell_length_c       6.19016
_cell_angle_alpha    90
_cell_angle_beta     90
_cell_angle_gamma    90

_symmetry_Int_Tables_number  62
_chemical_formula_structural  HBr
_chemical_formula_sum  H4Br4
_cell_volume  175.32394346585374
_cell_formula_units_Z  4
loop_
  _symmetry_equiv_pos_site_id
 _symmetry_equiv_pos_as_xyz
 1  'x, y, z'
loop_
 _atom_site_type_symbol
 _atom_site_label
 _atom_site_symmetry_multiplicity
 _atom_site_fract_x
 _atom_site_fract_y
 _atom_site_fract_z
 _atom_site_fract_occupancy
 Br  Br1  1  0.25739  0.75184  0.75010  1
 Br  Br2  1  0.74261  0.25184  0.74990  1
 Br  Br3  1  0.75739  0.74816  0.24990  1
 Br  Br4  1  0.24261  0.24816  0.25010  1
 H  H1  1  0.94017  0.44263  0.75008  1
 H  H2  1  0.44017  0.05737  0.24992  1
 H  H3  1  0.55983  0.55737  0.25008  1
 H  H4  1  0.05983  0.94263  0.74992  1
