CIF file written using JARVIS-Tools package.
data_Ir
_symmetry_space_group_name_H-M  'P6/mmm'
_cell_length_a       2.60186
_cell_length_b       2.66504
_cell_length_c       4.61506
_cell_angle_alpha    90
_cell_angle_beta     90
_cell_angle_gamma    90

_symmetry_Int_Tables_number  191
_chemical_formula_structural  Ir
_chemical_formula_sum  Ir2
_cell_volume  32.00108348741872
_cell_formula_units_Z  2
loop_
  _symmetry_equiv_pos_site_id
 _symmetry_equiv_pos_as_xyz
 1  'x, y, z'
loop_
 _atom_site_type_symbol
 _atom_site_label
 _atom_site_symmetry_multiplicity
 _atom_site_fract_x
 _atom_site_fract_y
 _atom_site_fract_z
 _atom_site_fract_occupancy
 Ir  Ir1  1  0.00000  0.24998  0.25000  1
 Ir  Ir2  1  0.00000  0.75002  0.75000  1
