CIF file written using JARVIS-Tools package.
data_Ba2InHg
_symmetry_space_group_name_H-M  'C2/m'
_cell_length_a       20.6714
_cell_length_b       11.622
_cell_length_c       9.87218
_cell_angle_alpha    21.4263
_cell_angle_beta     17.2924
_cell_angle_gamma    14.6252

_symmetry_Int_Tables_number  12
_chemical_formula_structural  Ba2InHg
_chemical_formula_sum  Ba2InHg
_cell_volume  177.22591918296487
_cell_formula_units_Z  1
loop_
  _symmetry_equiv_pos_site_id
 _symmetry_equiv_pos_as_xyz
 1  'x, y, z'
loop_
 _atom_site_type_symbol
 _atom_site_label
 _atom_site_symmetry_multiplicity
 _atom_site_fract_x
 _atom_site_fract_y
 _atom_site_fract_z
 _atom_site_fract_occupancy
 Ba  Ba1  1  0.84607  0.80699  0.19301  1
 Ba  Ba2  1  0.15393  0.19301  0.80699  1
 Hg  Hg1  1  0.50000  0.00000  -0.00000  1
 In  In1  1  0.00000  0.00000  0.00000  1
