CIF file written using JARVIS-Tools package.
data_CoPO4
_symmetry_space_group_name_H-M  'Cc'
_cell_length_a       5.00809
_cell_length_b       8.71544
_cell_length_c       5.0081
_cell_angle_alpha    74.7044
_cell_angle_beta     62.4829
_cell_angle_gamma    74.7044

_symmetry_Int_Tables_number  9
_chemical_formula_structural  CoPO4
_chemical_formula_sum  Co2P2O8
_cell_volume  184.40495875553236
_cell_formula_units_Z  2
loop_
  _symmetry_equiv_pos_site_id
 _symmetry_equiv_pos_as_xyz
 1  'x, y, z'
loop_
 _atom_site_type_symbol
 _atom_site_label
 _atom_site_symmetry_multiplicity
 _atom_site_fract_x
 _atom_site_fract_y
 _atom_site_fract_z
 _atom_site_fract_occupancy
 Co  Co1  1  0.19604  0.25325  0.30138  1
 Co  Co2  1  0.80138  0.75325  0.69604  1
 O  O1  1  0.07195  0.74549  0.29131  1
 O  O2  1  0.29331  0.45711  0.21672  1
 O  O3  1  0.26745  0.18791  0.94595  1
 O  O4  1  0.48423  0.11272  0.42909  1
 O  O5  1  0.44595  0.68791  0.76745  1
 O  O6  1  0.79131  0.24549  0.57195  1
 O  O7  1  0.92909  0.61272  0.98423  1
 O  O8  1  0.71672  0.95711  0.79331  1
 P  P1  1  0.18395  0.62548  0.06709  1
 P  P2  1  0.56709  0.12548  0.68395  1
