CIF file written using JARVIS-Tools package.
data_Ca2ZnPb
_symmetry_space_group_name_H-M  'Fm-3m'
_cell_length_a       13.1169
_cell_length_b       9.27527
_cell_length_c       9.27527
_cell_angle_alpha    33.5693
_cell_angle_beta     19.4781
_cell_angle_gamma    19.4781

_symmetry_Int_Tables_number  225
_chemical_formula_structural  Ca2ZnPb
_chemical_formula_sum  Ca2ZnPb
_cell_volume  108.65743521364348
_cell_formula_units_Z  1
loop_
  _symmetry_equiv_pos_site_id
 _symmetry_equiv_pos_as_xyz
 1  'x, y, z'
loop_
 _atom_site_type_symbol
 _atom_site_label
 _atom_site_symmetry_multiplicity
 _atom_site_fract_x
 _atom_site_fract_y
 _atom_site_fract_z
 _atom_site_fract_occupancy
 Ca  Ca1  1  0.75004  -0.00003  -0.00003  1
 Ca  Ca2  1  0.24996  0.00003  0.00003  1
 Pb  Pb1  1  0.50000  0.00000  -0.00000  1
 Zn  Zn1  1  0.00000  0.00000  0.00000  1
