CIF file written using JARVIS-Tools package.
data_K5ThF9
_symmetry_space_group_name_H-M  'Cmc2_1'
_cell_length_a       7.51976
_cell_length_b       7.51976
_cell_length_c       10.5302
_cell_angle_alpha    90
_cell_angle_beta     90
_cell_angle_gamma    116.624

_symmetry_Int_Tables_number  36
_chemical_formula_structural  K5ThF9
_chemical_formula_sum  K0Th2F8
_cell_volume  532.3125137034868
_cell_formula_units_Z  2
loop_
  _symmetry_equiv_pos_site_id
 _symmetry_equiv_pos_as_xyz
 1  'x, y, z'
loop_
 _atom_site_type_symbol
 _atom_site_label
 _atom_site_symmetry_multiplicity
 _atom_site_fract_x
 _atom_site_fract_y
 _atom_site_fract_z
 _atom_site_fract_occupancy
 F  F1  1  0.80138  0.19862  0.46451  1
 F  F2  1  0.94647  0.50083  0.72989  1
 F  F3  1  0.50083  0.94647  0.22989  1
 F  F4  1  0.49917  0.05353  0.72989  1
 F  F5  1  0.15333  0.21169  0.31792  1
 F  F6  1  0.84667  0.78831  0.81792  1
 F  F7  1  0.78831  0.84667  0.31792  1
 F  F8  1  0.21169  0.15333  0.81792  1
 F  F9  1  0.47859  0.52141  0.04176  1
 F  F10  1  0.52141  0.47859  0.54176  1
 F  F11  1  0.74853  0.25147  0.04452  1
 F  F12  1  0.25147  0.74853  0.54452  1
 F  F13  1  0.04330  0.95670  0.58313  1
 F  F14  1  0.05353  0.49917  0.22989  1
 F  F15  1  0.19862  0.80138  0.96451  1
 F  F16  1  0.35103  0.64897  0.77613  1
 F  F17  1  0.64897  0.35103  0.27613  1
 F  F18  1  0.95670  0.04330  0.08313  1
 K  K1  1  0.34875  0.14662  0.10092  1
 K  K2  1  0.65125  0.85338  0.60092  1
 K  K3  1  0.85338  0.65125  0.10092  1
 K  K4  1  0.14662  0.34875  0.60092  1
 K  K5  1  0.39921  0.11861  0.44777  1
 K  K6  1  0.60079  0.88139  0.94777  1
 K  K7  1  0.88139  0.60079  0.44777  1
 K  K8  1  0.11861  0.39921  0.94777  1
 K  K9  1  0.42096  0.57904  0.29378  1
 K  K10  1  0.57904  0.42096  0.79378  1
 Th  Th1  1  0.83703  0.16297  0.24867  1
 Th  Th2  1  0.16297  0.83703  0.74867  1
