CIF file written using JARVIS-Tools package.
data_NaLi2AsO4
_symmetry_space_group_name_H-M  'Pmn2_1'
_cell_length_a       5.07048
_cell_length_b       5.21914
_cell_length_c       7.03266
_cell_angle_alpha    90
_cell_angle_beta     90
_cell_angle_gamma    90

_symmetry_Int_Tables_number  31
_chemical_formula_structural  NaLi2AsO4
_chemical_formula_sum  Na2Li4As2O8
_cell_volume  186.10896138077638
_cell_formula_units_Z  2
loop_
  _symmetry_equiv_pos_site_id
 _symmetry_equiv_pos_as_xyz
 1  'x, y, z'
loop_
 _atom_site_type_symbol
 _atom_site_label
 _atom_site_symmetry_multiplicity
 _atom_site_fract_x
 _atom_site_fract_y
 _atom_site_fract_z
 _atom_site_fract_occupancy
 As  As1  1  0.49913  0.81078  0.50000  1
 As  As2  1  0.99913  0.18922  0.00000  1
 Li  Li1  1  0.50807  0.32174  0.25021  1
 Li  Li2  1  0.00807  0.67826  0.75021  1
 Li  Li3  1  0.50807  0.32174  0.74979  1
 Li  Li4  1  0.00807  0.67826  0.24979  1
 Na  Na1  1  0.52130  0.78637  0.00000  1
 Na  Na2  1  0.02130  0.21363  0.50000  1
 O  O1  1  0.06335  0.86347  0.00000  1
 O  O2  1  0.66059  0.22989  0.00000  1
 O  O3  1  0.56335  0.13653  0.50000  1
 O  O4  1  0.16059  0.77011  0.50000  1
 O  O5  1  0.12979  0.32972  0.19991  1
 O  O6  1  0.62979  0.67028  0.30009  1
 O  O7  1  0.62979  0.67028  0.69991  1
 O  O8  1  0.12979  0.32972  0.80009  1
