CIF file written using JARVIS-Tools package.
data_LiGeBO4
_symmetry_space_group_name_H-M  'Fmm2'
_cell_length_a       3.84248
_cell_length_b       3.84259
_cell_length_c       5.63751
_cell_angle_alpha    110.672
_cell_angle_beta     110.67
_cell_angle_gamma    87.9495

_symmetry_Int_Tables_number  42
_chemical_formula_structural  LiGeBO4
_chemical_formula_sum  LiGeBO4
_cell_volume  72.4899216345839
_cell_formula_units_Z  1
loop_
  _symmetry_equiv_pos_site_id
 _symmetry_equiv_pos_as_xyz
 1  'x, y, z'
loop_
 _atom_site_type_symbol
 _atom_site_label
 _atom_site_symmetry_multiplicity
 _atom_site_fract_x
 _atom_site_fract_y
 _atom_site_fract_z
 _atom_site_fract_occupancy
 B  B1  1  0.74710  0.74710  0.49420  1
 Ge  Ge1  1  0.27236  0.27236  0.54471  1
 Li  Li1  1  0.00647  0.00647  0.01295  1
 O  O1  1  0.64170  0.64169  0.70064  1
 O  O2  1  0.89103  0.43439  0.32542  1
 O  O3  1  0.05895  0.05895  0.70065  1
 O  O4  1  0.43439  0.89103  0.32542  1
