CIF file written using JARVIS-Tools package.
data_LiVPO4
_symmetry_space_group_name_H-M  'R-3'
_cell_length_a       4.66275
_cell_length_b       8.56743
_cell_length_c       4.66275
_cell_angle_alpha    105.79
_cell_angle_beta     60.0001
_cell_angle_gamma    105.79

_symmetry_Int_Tables_number  148
_chemical_formula_structural  LiVPO4
_chemical_formula_sum  Li2V2P2O8
_cell_volume  153.14106781914708
_cell_formula_units_Z  2
loop_
  _symmetry_equiv_pos_site_id
 _symmetry_equiv_pos_as_xyz
 1  'x, y, z'
loop_
 _atom_site_type_symbol
 _atom_site_label
 _atom_site_symmetry_multiplicity
 _atom_site_fract_x
 _atom_site_fract_y
 _atom_site_fract_z
 _atom_site_fract_occupancy
 Li  Li1  1  0.00223  0.00670  0.00223  1
 Li  Li2  1  0.57327  0.71981  0.57327  1
 O  O1  1  0.16304  0.53005  0.53576  1
 O  O2  1  0.03974  0.19647  0.74426  1
 O  O3  1  0.41246  0.19647  0.03974  1
 O  O4  1  0.64799  0.94398  0.64799  1
 O  O5  1  0.83124  0.53005  0.16304  1
 O  O6  1  0.53576  0.53005  0.83124  1
 O  O7  1  0.74426  0.19647  0.41246  1
 O  O8  1  0.92751  0.78253  0.92751  1
 P  P1  1  0.70932  0.12797  0.70932  1
 P  P2  1  0.86618  0.59854  0.86618  1
 V  V1  1  0.12269  0.36806  0.12269  1
 V  V2  1  0.45282  0.35845  0.45282  1
