CIF file written using JARVIS-Tools package.
data_FeSe
_symmetry_space_group_name_H-M  'Pm-3m'
_cell_length_a       4.33626
_cell_length_b       4.33626
_cell_length_c       3.06642
_cell_angle_alpha    90
_cell_angle_beta     90
_cell_angle_gamma    90

_symmetry_Int_Tables_number  221
_chemical_formula_structural  FeSe
_chemical_formula_sum  Fe2Se2
_cell_volume  57.65847301523711
_cell_formula_units_Z  2
loop_
  _symmetry_equiv_pos_site_id
 _symmetry_equiv_pos_as_xyz
 1  'x, y, z'
loop_
 _atom_site_type_symbol
 _atom_site_label
 _atom_site_symmetry_multiplicity
 _atom_site_fract_x
 _atom_site_fract_y
 _atom_site_fract_z
 _atom_site_fract_occupancy
 Fe  Fe1  1  0.75000  0.75000  0.50004  1
 Fe  Fe2  1  0.25000  0.25000  0.49996  1
 Se  Se1  1  0.75000  0.25000  0.00000  1
 Se  Se2  1  0.25000  0.75000  0.00000  1
