CIF file written using JARVIS-Tools package.
data_KBaHg2
_symmetry_space_group_name_H-M  'P2/m'
_cell_length_a       14.4858
_cell_length_b       12.4531
_cell_length_c       10.3979
_cell_angle_alpha    17.0931
_cell_angle_beta     19.1268
_cell_angle_gamma    15.753

_symmetry_Int_Tables_number  10
_chemical_formula_structural  KBaHg2
_chemical_formula_sum  KBaHg2
_cell_volume  142.22370124757978
_cell_formula_units_Z  1
loop_
  _symmetry_equiv_pos_site_id
 _symmetry_equiv_pos_as_xyz
 1  'x, y, z'
loop_
 _atom_site_type_symbol
 _atom_site_label
 _atom_site_symmetry_multiplicity
 _atom_site_fract_x
 _atom_site_fract_y
 _atom_site_fract_z
 _atom_site_fract_occupancy
 Ba  Ba1  1  0.50000  1.00000  1.00000  1
 Hg  Hg1  1  0.75342  0.00787  0.97761  1
 Hg  Hg2  1  0.24658  0.99213  0.02239  1
 K  K1  1  0.00000  0.00000  1.00000  1
