CIF file written using JARVIS-Tools package.
data_LuH3O3
_symmetry_space_group_name_H-M  'P6_3/m'
_cell_length_a       6.18485
_cell_length_b       6.18485
_cell_length_c       3.42193
_cell_angle_alpha    90
_cell_angle_beta     90
_cell_angle_gamma    120

_symmetry_Int_Tables_number  176
_chemical_formula_structural  LuH3O3
_chemical_formula_sum  Lu2H6O6
_cell_volume  113.36033297960694
_cell_formula_units_Z  2
loop_
  _symmetry_equiv_pos_site_id
 _symmetry_equiv_pos_as_xyz
 1  'x, y, z'
loop_
 _atom_site_type_symbol
 _atom_site_label
 _atom_site_symmetry_multiplicity
 _atom_site_fract_x
 _atom_site_fract_y
 _atom_site_fract_z
 _atom_site_fract_occupancy
 H  H1  1  0.27575  0.14386  0.25000  1
 H  H2  1  0.86811  0.72425  0.25000  1
 H  H3  1  0.14386  0.86811  0.75000  1
 H  H4  1  0.85614  0.13189  0.25000  1
 H  H5  1  0.13189  0.27575  0.75000  1
 H  H6  1  0.72425  0.85614  0.75000  1
 Lu  Lu1  1  0.66667  0.33333  0.75000  1
 Lu  Lu2  1  0.33333  0.66667  0.25000  1
 O  O1  1  0.39661  0.08614  0.25000  1
 O  O2  1  0.68953  0.60339  0.25000  1
 O  O3  1  0.08614  0.68953  0.75000  1
 O  O4  1  0.91386  0.31047  0.25000  1
 O  O5  1  0.31047  0.39661  0.75000  1
 O  O6  1  0.60339  0.91386  0.75000  1
