CIF file written using JARVIS-Tools package.
data_YbH2
_symmetry_space_group_name_H-M  'Pnma'
_cell_length_a       3.50286
_cell_length_b       5.75465
_cell_length_c       6.67236
_cell_angle_alpha    90
_cell_angle_beta     90
_cell_angle_gamma    90

_symmetry_Int_Tables_number  62
_chemical_formula_structural  YbH2
_chemical_formula_sum  Yb4H8
_cell_volume  134.4997327865984
_cell_formula_units_Z  4
loop_
  _symmetry_equiv_pos_site_id
 _symmetry_equiv_pos_as_xyz
 1  'x, y, z'
loop_
 _atom_site_type_symbol
 _atom_site_label
 _atom_site_symmetry_multiplicity
 _atom_site_fract_x
 _atom_site_fract_y
 _atom_site_fract_z
 _atom_site_fract_occupancy
 H  H1  1  0.75000  0.35388  0.07131  1
 H  H2  1  0.75000  0.85388  0.42869  1
 H  H3  1  0.25000  0.64612  0.92869  1
 H  H4  1  0.25000  0.14612  0.57131  1
 H  H5  1  0.75000  0.47238  0.67948  1
 H  H6  1  0.75000  -0.02762  0.82052  1
 H  H7  1  0.25000  0.52762  0.32052  1
 H  H8  1  0.25000  0.02762  0.17948  1
 Yb  Yb1  1  0.75000  0.23919  0.38686  1
 Yb  Yb2  1  0.75000  0.73919  0.11314  1
 Yb  Yb3  1  0.25000  0.76081  0.61314  1
 Yb  Yb4  1  0.25000  0.26081  0.88686  1
