CIF file written using JARVIS-Tools package.
data_YCo3Se2ClO8
_symmetry_space_group_name_H-M  'Pmmn'
_cell_length_a       6.27336
_cell_length_b       6.89855
_cell_length_c       9.38634
_cell_angle_alpha    89.9972
_cell_angle_beta     90.001
_cell_angle_gamma    90.001

_symmetry_Int_Tables_number  59
_chemical_formula_structural  YCo3Se2ClO8
_chemical_formula_sum  Y2Co6Se4Cl2O6
_cell_volume  406.2129119384063
_cell_formula_units_Z  2
loop_
  _symmetry_equiv_pos_site_id
 _symmetry_equiv_pos_as_xyz
 1  'x, y, z'
loop_
 _atom_site_type_symbol
 _atom_site_label
 _atom_site_symmetry_multiplicity
 _atom_site_fract_x
 _atom_site_fract_y
 _atom_site_fract_z
 _atom_site_fract_occupancy
 Cl  Cl1  1  0.25007  0.14082  0.24994  1
 Cl  Cl2  1  0.74993  0.85918  0.75006  1
 Co  Co1  1  0.50000  0.00000  -0.00000  1
 Co  Co2  1  0.50000  -0.00000  0.50000  1
 Co  Co3  1  0.00000  0.00000  0.00000  1
 Co  Co4  1  0.25000  0.79482  0.75000  1
 Co  Co5  1  0.75000  0.20518  0.25000  1
 Co  Co6  1  -0.00000  0.00000  0.50000  1
 O  O1  1  0.03382  0.74653  0.41290  1
 O  O2  1  0.75001  0.01257  0.11098  1
 O  O3  1  0.96618  0.25347  0.58710  1
 O  O4  1  0.74980  0.42539  0.12191  1
 O  O5  1  0.46619  0.74651  0.08710  1
 O  O6  1  0.24977  0.57461  0.62193  1
 O  O7  1  0.03364  0.74637  0.08693  1
 O  O8  1  0.25020  0.57461  0.87809  1
 O  O9  1  0.53362  0.25364  0.58690  1
 O  O10  1  0.96636  0.25363  0.91307  1
 O  O11  1  0.75023  0.42539  0.37807  1
 O  O12  1  0.25000  -0.01257  0.61098  1
 O  O13  1  0.53381  0.25349  0.91290  1
 O  O14  1  0.46638  0.74636  0.41310  1
 O  O15  1  0.24999  -0.01257  0.88902  1
 O  O16  1  0.75000  0.01257  0.38902  1
 Se  Se1  1  0.75000  0.40946  0.93695  1
 Se  Se2  1  0.25000  0.59054  0.06305  1
 Se  Se3  1  0.24999  0.59055  0.43697  1
 Se  Se4  1  0.75001  0.40945  0.56303  1
 Y  Y1  1  0.25000  0.26335  0.75000  1
 Y  Y2  1  0.75000  0.73665  0.25000  1
