CIF file written using JARVIS-Tools package.
data_Ag3AsSe3
_symmetry_space_group_name_H-M  'R3c'
_cell_length_a       7.18284
_cell_length_b       7.18284
_cell_length_c       7.18285
_cell_angle_alpha    103.462
_cell_angle_beta     103.462
_cell_angle_gamma    103.462

_symmetry_Int_Tables_number  161
_chemical_formula_structural  Ag3AsSe3
_chemical_formula_sum  Ag6As2Se6
_cell_volume  333.9756269056821
_cell_formula_units_Z  2
loop_
  _symmetry_equiv_pos_site_id
 _symmetry_equiv_pos_as_xyz
 1  'x, y, z'
loop_
 _atom_site_type_symbol
 _atom_site_label
 _atom_site_symmetry_multiplicity
 _atom_site_fract_x
 _atom_site_fract_y
 _atom_site_fract_z
 _atom_site_fract_occupancy
 Ag  Ag1  1  0.95347  0.42584  0.76459  1
 Ag  Ag2  1  0.42584  0.76459  0.95347  1
 Ag  Ag3  1  0.76459  0.95347  0.42584  1
 Ag  Ag4  1  0.26459  0.92584  0.45347  1
 Ag  Ag5  1  0.92584  0.45347  0.26459  1
 Ag  Ag6  1  0.45347  0.26459  0.92584  1
 As  As1  1  0.51381  0.51381  0.51381  1
 As  As2  1  0.01381  0.01381  0.01381  1
 Se  Se1  1  0.78320  0.75009  0.09279  1
 Se  Se2  1  0.75009  0.09279  0.78320  1
 Se  Se3  1  0.28320  0.59279  0.25009  1
 Se  Se4  1  0.59279  0.25009  0.28320  1
 Se  Se5  1  0.25009  0.28320  0.59279  1
 Se  Se6  1  0.09279  0.78320  0.75009  1
