CIF file written using JARVIS-Tools package.
data_LiBe2Au
_symmetry_space_group_name_H-M  'C2/m'
_cell_length_a       9.73904
_cell_length_b       3.93673
_cell_length_c       3.93681
_cell_angle_alpha    61.572
_cell_angle_beta     36.1606
_cell_angle_gamma    36.1631

_symmetry_Int_Tables_number  12
_chemical_formula_structural  LiBe2Au
_chemical_formula_sum  LiBe2Au
_cell_volume  45.365672925999604
_cell_formula_units_Z  1
loop_
  _symmetry_equiv_pos_site_id
 _symmetry_equiv_pos_as_xyz
 1  'x, y, z'
loop_
 _atom_site_type_symbol
 _atom_site_label
 _atom_site_symmetry_multiplicity
 _atom_site_fract_x
 _atom_site_fract_y
 _atom_site_fract_z
 _atom_site_fract_occupancy
 Au  Au1  1  0.50000  0.00000  0.00000  1
 Be  Be1  1  0.76713  -0.02352  -0.02353  1
 Be  Be2  1  0.23287  0.02352  0.02353  1
 Li  Li1  1  0.00000  -0.00000  0.00000  1
