CIF file written using JARVIS-Tools package.
data_TiMn2Cr
_symmetry_space_group_name_H-M  'Immm'
_cell_length_a       9.98287
_cell_length_b       10.0225
_cell_length_c       10.0225
_cell_angle_alpha    60.1459
_cell_angle_beta     60.1306
_cell_angle_gamma    60.1306

_symmetry_Int_Tables_number  71
_chemical_formula_structural  TiMn2Cr
_chemical_formula_sum  TiMn2Cr
_cell_volume  711.2491491468802
_cell_formula_units_Z  1
loop_
  _symmetry_equiv_pos_site_id
 _symmetry_equiv_pos_as_xyz
 1  'x, y, z'
loop_
 _atom_site_type_symbol
 _atom_site_label
 _atom_site_symmetry_multiplicity
 _atom_site_fract_x
 _atom_site_fract_y
 _atom_site_fract_z
 _atom_site_fract_occupancy
 Cr  Cr1  1  0.50000  -0.00000  0.00000  1
 Mn  Mn1  1  0.77233  -0.00000  -0.00000  1
 Mn  Mn2  1  0.22767  0.00000  0.00000  1
 Ti  Ti1  1  0.00000  0.00000  0.00000  1
