CIF file written using JARVIS-Tools package.
data_Te2MoWSe2
_symmetry_space_group_name_H-M  'C2/m'
_cell_length_a       3.4473
_cell_length_b       3.44732
_cell_length_c       36.492
_cell_angle_alpha    90.0132
_cell_angle_beta     89.9966
_cell_angle_gamma    119.999

_symmetry_Int_Tables_number  12
_chemical_formula_structural  Te2MoWSe2
_chemical_formula_sum  Te4Mo2W2Se4
_cell_volume  375.5730021388952
_cell_formula_units_Z  2
loop_
  _symmetry_equiv_pos_site_id
 _symmetry_equiv_pos_as_xyz
 1  'x, y, z'
loop_
 _atom_site_type_symbol
 _atom_site_label
 _atom_site_symmetry_multiplicity
 _atom_site_fract_x
 _atom_site_fract_y
 _atom_site_fract_z
 _atom_site_fract_occupancy
 Mo  Mo1  1  0.33304  0.66563  0.08827  1
 Mo  Mo2  1  0.66696  0.33437  0.66319  1
 Se  Se1  1  0.33367  0.66784  0.70792  1
 Se  Se2  1  0.66633  0.33216  0.04354  1
 Se  Se3  1  0.66642  0.33243  0.13309  1
 Se  Se4  1  0.33358  0.66757  0.61837  1
 Te  Te1  1  0.33339  0.66659  0.32727  1
 Te  Te2  1  0.66661  0.33341  0.42419  1
 Te  Te3  1  0.66667  0.33367  0.52653  1
 Te  Te4  1  0.33333  0.66633  0.22493  1
 W  W1  1  0.33330  0.66689  0.47537  1
 W  W2  1  0.66670  0.33311  0.27609  1
