CIF file written using JARVIS-Tools package.
data_KCu3S2
_symmetry_space_group_name_H-M  'C2/m'
_cell_length_a       3.91212
_cell_length_b       7.58748
_cell_length_c       8.26231
_cell_angle_alpha    112.774
_cell_angle_beta     90
_cell_angle_gamma    104.94

_symmetry_Int_Tables_number  12
_chemical_formula_structural  KCu3S2
_chemical_formula_sum  K2Cu6S4
_cell_volume  217.11293443315216
_cell_formula_units_Z  2
loop_
  _symmetry_equiv_pos_site_id
 _symmetry_equiv_pos_as_xyz
 1  'x, y, z'
loop_
 _atom_site_type_symbol
 _atom_site_label
 _atom_site_symmetry_multiplicity
 _atom_site_fract_x
 _atom_site_fract_y
 _atom_site_fract_z
 _atom_site_fract_occupancy
 Cu  Cu1  1  0.30908  0.61817  0.58693  1
 Cu  Cu2  1  0.93224  0.86448  0.58730  1
 Cu  Cu3  1  0.69092  0.38183  0.41307  1
 Cu  Cu4  1  0.40381  0.80762  0.35520  1
 Cu  Cu5  1  0.59619  0.19238  0.64480  1
 Cu  Cu6  1  0.06776  0.13552  0.41270  1
 K  K1  1  0.86661  0.73322  0.95863  1
 K  K2  1  0.13339  0.26678  0.04137  1
 S  S1  1  0.47741  0.95482  0.76105  1
 S  S2  1  0.19433  0.38865  0.70105  1
 S  S3  1  0.80567  0.61135  0.29895  1
 S  S4  1  0.52259  0.04518  0.23895  1
