CIF file written using JARVIS-Tools package.
data_CrO2
_symmetry_space_group_name_H-M  'P4_2/mnm'
_cell_length_a       2.91911
_cell_length_b       4.43567
_cell_length_c       4.43706
_cell_angle_alpha    90
_cell_angle_beta     90
_cell_angle_gamma    90

_symmetry_Int_Tables_number  136
_chemical_formula_structural  CrO2
_chemical_formula_sum  Cr2O4
_cell_volume  57.451995854527944
_cell_formula_units_Z  2
loop_
  _symmetry_equiv_pos_site_id
 _symmetry_equiv_pos_as_xyz
 1  'x, y, z'
loop_
 _atom_site_type_symbol
 _atom_site_label
 _atom_site_symmetry_multiplicity
 _atom_site_fract_x
 _atom_site_fract_y
 _atom_site_fract_z
 _atom_site_fract_occupancy
 Cr  Cr1  1  0.00000  0.00000  0.00000  1
 Cr  Cr2  1  0.50000  0.50000  0.50000  1
 O  O1  1  0.00000  0.30285  0.30312  1
 O  O2  1  0.50000  0.80285  0.19688  1
 O  O3  1  0.00000  0.69715  0.69688  1
 O  O4  1  0.50000  0.19715  0.80312  1
