CIF file written using JARVIS-Tools package.
data_Y
_symmetry_space_group_name_H-M  'P6_3/mmc'
_cell_length_a       3.62452
_cell_length_b       5.64411
_cell_length_c       6.27767
_cell_angle_alpha    90
_cell_angle_beta     90
_cell_angle_gamma    90.0024

_symmetry_Int_Tables_number  194
_chemical_formula_structural  Y
_chemical_formula_sum  Y4
_cell_volume  128.4233920128598
_cell_formula_units_Z  4
loop_
  _symmetry_equiv_pos_site_id
 _symmetry_equiv_pos_as_xyz
 1  'x, y, z'
loop_
 _atom_site_type_symbol
 _atom_site_label
 _atom_site_symmetry_multiplicity
 _atom_site_fract_x
 _atom_site_fract_y
 _atom_site_fract_z
 _atom_site_fract_occupancy
 Y  Y1  1  0.75002  0.75000  0.08333  1
 Y  Y2  1  0.24998  0.75000  0.58333  1
 Y  Y3  1  0.24998  0.25000  0.91667  1
 Y  Y4  1  0.75002  0.25000  0.41667  1
