CIF file written using JARVIS-Tools package.
data_Li3SbS3
_symmetry_space_group_name_H-M  'R-3'
_cell_length_a       7.70092
_cell_length_b       7.70091
_cell_length_c       7.70091
_cell_angle_alpha    54.6313
_cell_angle_beta     54.6313
_cell_angle_gamma    54.6313

_symmetry_Int_Tables_number  148
_chemical_formula_structural  Li3SbS3
_chemical_formula_sum  Li6Sb2S6
_cell_volume  282.5342816724382
_cell_formula_units_Z  2
loop_
  _symmetry_equiv_pos_site_id
 _symmetry_equiv_pos_as_xyz
 1  'x, y, z'
loop_
 _atom_site_type_symbol
 _atom_site_label
 _atom_site_symmetry_multiplicity
 _atom_site_fract_x
 _atom_site_fract_y
 _atom_site_fract_z
 _atom_site_fract_occupancy
 Li  Li1  1  0.09083  0.36582  0.68601  1
 Li  Li2  1  0.31399  0.90917  0.63418  1
 Li  Li3  1  0.36582  0.68601  0.09083  1
 Li  Li4  1  0.63418  0.31399  0.90917  1
 Li  Li5  1  0.68601  0.09083  0.36582  1
 Li  Li6  1  0.90917  0.63418  0.31399  1
 S  S1  1  0.03941  0.76686  0.42987  1
 S  S2  1  0.23314  0.57013  0.96059  1
 S  S3  1  0.42987  0.03941  0.76686  1
 S  S4  1  0.57013  0.96059  0.23314  1
 S  S5  1  0.76686  0.42987  0.03941  1
 S  S6  1  0.96059  0.23314  0.57013  1
 Sb  Sb1  1  0.18140  0.18140  0.18140  1
 Sb  Sb2  1  0.81860  0.81860  0.81860  1
