CIF file written using JARVIS-Tools package.
data_MoW2Se4S2
_symmetry_space_group_name_H-M  'Cm'
_cell_length_a       3.28153
_cell_length_b       3.28141
_cell_length_c       19.5841
_cell_angle_alpha    94.8572
_cell_angle_beta     89.9834
_cell_angle_gamma    120.001

_symmetry_Int_Tables_number  8
_chemical_formula_structural  MoW2Se4S2
_chemical_formula_sum  MoW2Se4S2
_cell_volume  181.7558291856124
_cell_formula_units_Z  1
loop_
  _symmetry_equiv_pos_site_id
 _symmetry_equiv_pos_as_xyz
 1  'x, y, z'
loop_
 _atom_site_type_symbol
 _atom_site_label
 _atom_site_symmetry_multiplicity
 _atom_site_fract_x
 _atom_site_fract_y
 _atom_site_fract_z
 _atom_site_fract_occupancy
 Mo  Mo1  1  0.22048  0.44149  0.00969  1
 S  S1  1  0.75217  0.50335  0.60119  1
 S  S2  1  0.80526  0.61014  0.75982  1
 Se  Se1  1  0.36329  0.72705  0.43791  1
 Se  Se2  1  0.52482  0.04986  0.92308  1
 Se  Se3  1  0.58284  0.16653  0.09640  1
 Se  Se4  1  0.30491  0.60965  0.26351  1
 W  W1  1  0.44538  0.89009  0.68051  1
 W  W2  1  0.66744  0.33503  0.35073  1
