CIF file written using JARVIS-Tools package.
data_H3NO
_symmetry_space_group_name_H-M  'P2_12_12_1'
_cell_length_a       4.38821
_cell_length_b       4.03502
_cell_length_c       7.89776
_cell_angle_alpha    90
_cell_angle_beta     90.0041
_cell_angle_gamma    90

_symmetry_Int_Tables_number  19
_chemical_formula_structural  H3NO
_chemical_formula_sum  H2N4O4
_cell_volume  139.84195492133537
_cell_formula_units_Z  4
loop_
  _symmetry_equiv_pos_site_id
 _symmetry_equiv_pos_as_xyz
 1  'x, y, z'
loop_
 _atom_site_type_symbol
 _atom_site_label
 _atom_site_symmetry_multiplicity
 _atom_site_fract_x
 _atom_site_fract_y
 _atom_site_fract_z
 _atom_site_fract_occupancy
 H  H1  1  0.19027  0.34429  0.33900  1
 H  H2  1  0.23100  0.23678  0.78294  1
 H  H3  1  0.69422  0.14068  0.50797  1
 H  H4  1  0.80973  0.84429  0.66100  1
 H  H5  1  0.30578  0.64068  0.49203  1
 H  H6  1  0.19424  0.33836  -0.00796  1
 H  H7  1  0.76900  0.73678  0.21706  1
 H  H8  1  0.73098  0.24226  0.71706  1
 H  H9  1  0.30974  0.63476  0.83901  1
 H  H10  1  0.26902  0.74226  0.28294  1
 H  H11  1  0.69026  0.13476  0.16099  1
 H  H12  1  0.80576  0.83836  0.00796  1
 N  N1  1  0.33086  0.54526  0.36857  1
 N  N2  1  0.66914  0.04526  0.63143  1
 N  N3  1  0.16917  0.43377  0.86857  1
 N  N4  1  0.83083  0.93377  0.13143  1
 O  O1  1  0.36071  0.94636  0.65884  1
 O  O2  1  0.86072  0.53267  0.84116  1
 O  O3  1  0.63929  0.44636  0.34116  1
 O  O4  1  0.13928  0.03267  0.15884  1
