CIF file written using JARVIS-Tools package.
data_PrAsO4
_symmetry_space_group_name_H-M  'I4_1/a'
_cell_length_a       6.93389
_cell_length_b       6.93389
_cell_length_c       6.93389
_cell_angle_alpha    136.038
_cell_angle_beta     136.038
_cell_angle_gamma    63.9219

_symmetry_Int_Tables_number  88
_chemical_formula_structural  PrAsO4
_chemical_formula_sum  Pr2As2O8
_cell_volume  158.503534879443
_cell_formula_units_Z  2
loop_
  _symmetry_equiv_pos_site_id
 _symmetry_equiv_pos_as_xyz
 1  'x, y, z'
loop_
 _atom_site_type_symbol
 _atom_site_label
 _atom_site_symmetry_multiplicity
 _atom_site_fract_x
 _atom_site_fract_y
 _atom_site_fract_z
 _atom_site_fract_occupancy
 As  As1  1  0.00000  0.00000  0.00000  1
 As  As2  1  0.75000  0.25000  0.50000  1
 O  O1  1  0.67542  0.05844  0.88948  1
 O  O2  1  0.58105  0.46407  0.38948  1
 O  O3  1  0.80844  0.41895  0.88302  1
 O  O4  1  0.21407  0.32458  0.38302  1
 O  O5  1  0.94156  0.83105  0.61698  1
 O  O6  1  0.53593  0.92542  0.11698  1
 O  O7  1  0.07458  0.19156  0.61052  1
 O  O8  1  0.16895  0.78593  0.11052  1
 Pr  Pr1  1  0.50000  0.50000  0.00000  1
 Pr  Pr2  1  0.25000  0.75000  0.50000  1
