CIF file written using JARVIS-Tools package.
data_Nb5Ge3
_symmetry_space_group_name_H-M  'P6_3/mcm'
_cell_length_a       7.709
_cell_length_b       7.709
_cell_length_c       5.36547
_cell_angle_alpha    90
_cell_angle_beta     90
_cell_angle_gamma    120

_symmetry_Int_Tables_number  193
_chemical_formula_structural  Nb5Ge3
_chemical_formula_sum  Nb0Ge6
_cell_volume  276.14287557279505
_cell_formula_units_Z  2
loop_
  _symmetry_equiv_pos_site_id
 _symmetry_equiv_pos_as_xyz
 1  'x, y, z'
loop_
 _atom_site_type_symbol
 _atom_site_label
 _atom_site_symmetry_multiplicity
 _atom_site_fract_x
 _atom_site_fract_y
 _atom_site_fract_z
 _atom_site_fract_occupancy
 Ge  Ge1  1  0.39147  -0.00000  0.75000  1
 Ge  Ge2  1  0.39147  0.39147  0.25000  1
 Ge  Ge3  1  0.00000  0.60853  0.25000  1
 Ge  Ge4  1  -0.00000  0.39147  0.75000  1
 Ge  Ge5  1  0.60853  0.60853  0.75000  1
 Ge  Ge6  1  0.60853  0.00000  0.25000  1
 Nb  Nb1  1  0.00000  0.75337  0.75000  1
 Nb  Nb2  1  -0.00000  0.24663  0.25000  1
 Nb  Nb3  1  0.75337  0.75337  0.25000  1
 Nb  Nb4  1  0.75337  0.00000  0.75000  1
 Nb  Nb5  1  0.24663  0.24663  0.75000  1
 Nb  Nb6  1  0.24663  -0.00000  0.25000  1
 Nb  Nb7  1  0.33333  0.66667  0.00000  1
 Nb  Nb8  1  0.66667  0.33333  0.50000  1
 Nb  Nb9  1  0.66667  0.33333  0.00000  1
 Nb  Nb10  1  0.33333  0.66667  0.50000  1
