CIF file written using JARVIS-Tools package.
data_K5As4
_symmetry_space_group_name_H-M  'P-1'
_cell_length_a       6.15531
_cell_length_b       6.3765
_cell_length_c       7.53445
_cell_angle_alpha    86.9487
_cell_angle_beta     89.5023
_cell_angle_gamma    96.9982

_symmetry_Int_Tables_number  2
_chemical_formula_structural  K5As4
_chemical_formula_sum  K5As4
_cell_volume  293.0684354503622
_cell_formula_units_Z  1
loop_
  _symmetry_equiv_pos_site_id
 _symmetry_equiv_pos_as_xyz
 1  'x, y, z'
loop_
 _atom_site_type_symbol
 _atom_site_label
 _atom_site_symmetry_multiplicity
 _atom_site_fract_x
 _atom_site_fract_y
 _atom_site_fract_z
 _atom_site_fract_occupancy
 As  As1  1  0.01102  -0.04022  0.66206  1
 As  As2  1  0.26776  0.32058  0.21395  1
 As  As3  1  0.72697  0.68194  0.77952  1
 As  As4  1  -0.01630  0.04274  0.33141  1
 K  K1  1  0.74775  0.19587  0.96535  1
 K  K2  1  0.78773  0.53874  0.33242  1
 K  K3  1  0.49737  0.00130  0.49675  1
 K  K4  1  0.20699  0.46380  0.66102  1
 K  K5  1  0.24702  0.80666  0.02813  1
