CIF file written using JARVIS-Tools package.
data_MoCl2
_symmetry_space_group_name_H-M  'Cmce'
_cell_length_a       8.9588
_cell_length_b       8.9588
_cell_length_c       11.3252
_cell_angle_alpha    90
_cell_angle_beta     90
_cell_angle_gamma    101.732

_symmetry_Int_Tables_number  64
_chemical_formula_structural  MoCl2
_chemical_formula_sum  Mo2Cl24
_cell_volume  889.9763123838338
_cell_formula_units_Z  12
loop_
  _symmetry_equiv_pos_site_id
 _symmetry_equiv_pos_as_xyz
 1  'x, y, z'
loop_
 _atom_site_type_symbol
 _atom_site_label
 _atom_site_symmetry_multiplicity
 _atom_site_fract_x
 _atom_site_fract_y
 _atom_site_fract_z
 _atom_site_fract_occupancy
 Cl  Cl1  1  0.79198  0.04433  0.79540  1
 Cl  Cl2  1  0.66838  0.92186  0.08169  1
 Cl  Cl3  1  0.42186  0.16838  0.41831  1
 Cl  Cl4  1  0.70802  0.45567  0.29540  1
 Cl  Cl5  1  0.33162  0.07814  0.91831  1
 Cl  Cl6  1  0.19510  0.80490  0.50000  1
 Cl  Cl7  1  0.64233  0.64233  0.85743  1
 Cl  Cl8  1  0.57814  0.83162  0.58169  1
 Cl  Cl9  1  0.69510  0.30490  0.00000  1
 Cl  Cl10  1  0.29198  0.54433  0.70460  1
 Cl  Cl11  1  0.95567  0.20802  0.20460  1
 Cl  Cl12  1  0.35767  0.35767  0.14257  1
 Cl  Cl13  1  0.07814  0.33162  0.91831  1
 Cl  Cl14  1  0.16838  0.42186  0.41831  1
 Cl  Cl15  1  0.20802  0.95567  0.20460  1
 Cl  Cl16  1  0.04433  0.79198  0.79540  1
 Cl  Cl17  1  0.54433  0.29198  0.70460  1
 Cl  Cl18  1  0.45567  0.70802  0.29540  1
 Cl  Cl19  1  0.30490  0.69510  0.00000  1
 Cl  Cl20  1  0.92186  0.66838  0.08169  1
 Cl  Cl21  1  0.80490  0.19510  0.50000  1
 Cl  Cl22  1  0.14233  0.14233  0.64257  1
 Cl  Cl23  1  0.83162  0.57814  0.58169  1
 Cl  Cl24  1  0.85767  0.85767  0.35743  1
 Mo  Mo1  1  0.43520  0.43520  0.35021  1
 Mo  Mo2  1  0.13347  0.86653  0.00000  1
 Mo  Mo3  1  0.84996  0.84996  0.93544  1
 Mo  Mo4  1  0.06480  0.06480  0.85021  1
 Mo  Mo5  1  0.56480  0.56480  0.64979  1
 Mo  Mo6  1  0.15004  0.15004  0.06456  1
 Mo  Mo7  1  0.93520  0.93520  0.14979  1
 Mo  Mo8  1  0.65004  0.65004  0.43544  1
 Mo  Mo9  1  0.34996  0.34996  0.56456  1
 Mo  Mo10  1  0.86653  0.13347  0.00000  1
 Mo  Mo11  1  0.36653  0.63347  0.50000  1
 Mo  Mo12  1  0.63347  0.36653  0.50000  1
