CIF file written using JARVIS-Tools package.
data_LiSc2Al
_symmetry_space_group_name_H-M  'Fm-3m'
_cell_length_a       11.8142
_cell_length_b       4.82312
_cell_length_c       8.35375
_cell_angle_alpha    29.9997
_cell_angle_beta     19.4702
_cell_angle_gamma    35.2616

_symmetry_Int_Tables_number  225
_chemical_formula_structural  LiSc2Al
_chemical_formula_sum  LiSc2Al
_cell_volume  79.3303956877053
_cell_formula_units_Z  1
loop_
  _symmetry_equiv_pos_site_id
 _symmetry_equiv_pos_as_xyz
 1  'x, y, z'
loop_
 _atom_site_type_symbol
 _atom_site_label
 _atom_site_symmetry_multiplicity
 _atom_site_fract_x
 _atom_site_fract_y
 _atom_site_fract_z
 _atom_site_fract_occupancy
 Al  Al1  1  0.50000  0.00000  -0.00000  1
 Li  Li1  1  0.00000  0.00000  0.00000  1
 Sc  Sc1  1  0.74999  0.99999  0.00001  1
 Sc  Sc2  1  0.25001  0.00001  0.99999  1
