CIF file written using JARVIS-Tools package.
data_Li3CrCo3O8
_symmetry_space_group_name_H-M  'R-3m'
_cell_length_a       5.75874
_cell_length_b       5.67181
_cell_length_c       5.67181
_cell_angle_alpha    60
_cell_angle_beta     60.4982
_cell_angle_gamma    90

_symmetry_Int_Tables_number  166
_chemical_formula_structural  Li3CrCo3O8
_chemical_formula_sum  Li3CrCo3O8
_cell_volume  131.97291236659217
_cell_formula_units_Z  1
loop_
  _symmetry_equiv_pos_site_id
 _symmetry_equiv_pos_as_xyz
 1  'x, y, z'
loop_
 _atom_site_type_symbol
 _atom_site_label
 _atom_site_symmetry_multiplicity
 _atom_site_fract_x
 _atom_site_fract_y
 _atom_site_fract_z
 _atom_site_fract_occupancy
 Co  Co1  1  -0.00000  0.00000  0.50000  1
 Co  Co2  1  -0.00000  0.50000  0.00000  1
 Co  Co3  1  -0.00000  0.50000  0.50000  1
 Cr  Cr1  1  0.00000  0.00000  0.00000  1
 Li  Li1  1  0.50000  -0.00000  0.00000  1
 Li  Li2  1  0.50000  0.00000  0.50000  1
 Li  Li3  1  0.50000  0.50000  0.50000  1
 O  O1  1  0.21584  0.23790  0.02206  1
 O  O2  1  0.21584  0.23790  0.52419  1
 O  O3  1  0.21584  0.74003  0.02206  1
 O  O4  1  0.21525  0.73842  0.52317  1
 O  O5  1  0.78475  0.26158  0.47683  1
 O  O6  1  0.78416  0.25997  0.97794  1
 O  O7  1  0.78416  0.76210  0.47581  1
 O  O8  1  0.78416  0.76210  0.97794  1
