CIF file written using JARVIS-Tools package.
data_LiNdO2
_symmetry_space_group_name_H-M  'P2_1/c'
_cell_length_a       6.60999
_cell_length_b       6.10429
_cell_length_c       6.81768
_cell_angle_alpha    90
_cell_angle_beta     121.057
_cell_angle_gamma    90

_symmetry_Int_Tables_number  14
_chemical_formula_structural  LiNdO2
_chemical_formula_sum  Li4Nd4O8
_cell_volume  235.6553180653752
_cell_formula_units_Z  4
loop_
  _symmetry_equiv_pos_site_id
 _symmetry_equiv_pos_as_xyz
 1  'x, y, z'
loop_
 _atom_site_type_symbol
 _atom_site_label
 _atom_site_symmetry_multiplicity
 _atom_site_fract_x
 _atom_site_fract_y
 _atom_site_fract_z
 _atom_site_fract_occupancy
 Li  Li1  1  0.68188  0.83182  0.28625  1
 Li  Li2  1  0.31812  0.33182  0.21375  1
 Li  Li3  1  0.68188  0.66818  0.78625  1
 Li  Li4  1  0.31812  0.16818  0.71375  1
 Nd  Nd1  1  0.77856  0.13831  0.73885  1
 Nd  Nd2  1  0.77856  0.36169  0.23885  1
 Nd  Nd3  1  0.22144  0.63831  0.76115  1
 Nd  Nd4  1  0.22144  0.86169  0.26115  1
 O  O1  1  0.96435  0.80020  0.85593  1
 O  O2  1  0.96435  0.69980  0.35593  1
 O  O3  1  0.55413  0.10222  0.31801  1
 O  O4  1  0.44587  0.60222  0.18199  1
 O  O5  1  0.55413  0.39778  0.81801  1
 O  O6  1  0.44587  0.89778  0.68199  1
 O  O7  1  0.03565  0.30020  0.64407  1
 O  O8  1  0.03565  0.19980  0.14407  1
