CIF file written using JARVIS-Tools package.
data_TiO2
_symmetry_space_group_name_H-M  'Pnma'
_cell_length_a       2.97934
_cell_length_b       8.92689
_cell_length_c       10.7336
_cell_angle_alpha    90
_cell_angle_beta     90
_cell_angle_gamma    90

_symmetry_Int_Tables_number  62
_chemical_formula_structural  TiO2
_chemical_formula_sum  Ti8O6
_cell_volume  285.4729911701481
_cell_formula_units_Z  8
loop_
  _symmetry_equiv_pos_site_id
 _symmetry_equiv_pos_as_xyz
 1  'x, y, z'
loop_
 _atom_site_type_symbol
 _atom_site_label
 _atom_site_symmetry_multiplicity
 _atom_site_fract_x
 _atom_site_fract_y
 _atom_site_fract_z
 _atom_site_fract_occupancy
 O  O1  1  0.25000  0.61428  0.98533  1
 O  O2  1  0.25000  0.03104  0.28607  1
 O  O3  1  0.75000  0.07759  0.07161  1
 O  O4  1  0.25000  0.11428  0.51467  1
 O  O5  1  0.25000  0.92241  0.92839  1
 O  O6  1  0.75000  0.30213  0.35852  1
 O  O7  1  0.75000  0.38572  0.01467  1
 O  O8  1  0.25000  0.19787  0.85852  1
 O  O9  1  0.75000  0.46896  0.78607  1
 O  O10  1  0.25000  0.53104  0.21393  1
 O  O11  1  0.75000  0.57759  0.42839  1
 O  O12  1  0.75000  0.96896  0.71393  1
 O  O13  1  0.25000  0.69787  0.64148  1
 O  O14  1  0.75000  0.80213  0.14148  1
 O  O15  1  0.75000  0.88572  0.48533  1
 O  O16  1  0.25000  0.42241  0.57161  1
 Ti  Ti1  1  0.25000  0.95512  0.12085  1
 Ti  Ti2  1  0.25000  0.90519  0.59807  1
 Ti  Ti3  1  0.75000  0.59481  0.09807  1
 Ti  Ti4  1  0.75000  0.54488  0.62085  1
 Ti  Ti5  1  0.25000  0.45512  0.37915  1
 Ti  Ti6  1  0.25000  0.40519  0.90193  1
 Ti  Ti7  1  0.75000  0.09481  0.40193  1
 Ti  Ti8  1  0.75000  0.04488  0.87915  1
