CIF file written using JARVIS-Tools package.
data_Si3N4
_symmetry_space_group_name_H-M  'P6_3/m'
_cell_length_a       7.66591
_cell_length_b       7.66591
_cell_length_c       2.93133
_cell_angle_alpha    90
_cell_angle_beta     90
_cell_angle_gamma    120

_symmetry_Int_Tables_number  176
_chemical_formula_structural  Si3N4
_chemical_formula_sum  Si6N8
_cell_volume  149.18419389831078
_cell_formula_units_Z  2
loop_
  _symmetry_equiv_pos_site_id
 _symmetry_equiv_pos_as_xyz
 1  'x, y, z'
loop_
 _atom_site_type_symbol
 _atom_site_label
 _atom_site_symmetry_multiplicity
 _atom_site_fract_x
 _atom_site_fract_y
 _atom_site_fract_z
 _atom_site_fract_occupancy
 N  N1  1  0.33333  0.66667  0.25000  1
 N  N2  1  0.66667  0.33333  0.75000  1
 N  N3  1  0.33022  0.03066  0.25000  1
 N  N4  1  0.03066  0.70043  0.75000  1
 N  N5  1  0.29957  0.33022  0.75000  1
 N  N6  1  0.70043  0.66978  0.25000  1
 N  N7  1  0.66978  0.96934  0.75000  1
 N  N8  1  0.96934  0.29957  0.25000  1
 Si  Si1  1  0.17471  0.76869  0.25000  1
 Si  Si2  1  0.76869  0.59398  0.75000  1
 Si  Si3  1  0.40602  0.17471  0.75000  1
 Si  Si4  1  0.59398  0.82529  0.25000  1
 Si  Si5  1  0.23131  0.40602  0.25000  1
 Si  Si6  1  0.82529  0.23131  0.75000  1
