CIF file written using JARVIS-Tools package.
data_Ca2Mn3O8
_symmetry_space_group_name_H-M  'C2/m'
_cell_length_a       4.9712
_cell_length_b       5.86901
_cell_length_c       6.25432
_cell_angle_alpha    117.982
_cell_angle_beta     107.319
_cell_angle_gamma    90.0001

_symmetry_Int_Tables_number  12
_chemical_formula_structural  Ca2Mn3O8
_chemical_formula_sum  Ca2Mn3O8
_cell_volume  151.71176423575403
_cell_formula_units_Z  1
loop_
  _symmetry_equiv_pos_site_id
 _symmetry_equiv_pos_as_xyz
 1  'x, y, z'
loop_
 _atom_site_type_symbol
 _atom_site_label
 _atom_site_symmetry_multiplicity
 _atom_site_fract_x
 _atom_site_fract_y
 _atom_site_fract_z
 _atom_site_fract_occupancy
 Ca  Ca1  1  0.66657  0.72499  0.44998  1
 Ca  Ca2  1  0.33343  0.27501  0.55002  1
 Mn  Mn1  1  0.50000  1.00000  0.00000  1
 Mn  Mn2  1  1.00000  0.74077  0.00000  1
 Mn  Mn3  1  1.00000  0.25923  -0.00000  1
 O  O1  1  0.04144  0.39662  0.79323  1
 O  O2  1  0.95856  0.60338  0.20677  1
 O  O3  1  0.09764  0.90305  0.80611  1
 O  O4  1  0.90236  0.09694  0.19389  1
 O  O5  1  0.39186  0.32334  0.20128  1
 O  O6  1  0.39186  0.87793  0.20128  1
 O  O7  1  0.60814  0.12207  0.79872  1
 O  O8  1  0.60814  0.67666  0.79872  1
