CIF file written using JARVIS-Tools package.
data_BaNa2
_symmetry_space_group_name_H-M  'P6_3/mmc'
_cell_length_a       7.23009
_cell_length_b       7.23009
_cell_length_c       11.676
_cell_angle_alpha    90
_cell_angle_beta     90
_cell_angle_gamma    120

_symmetry_Int_Tables_number  194
_chemical_formula_structural  BaNa2
_chemical_formula_sum  Ba4Na8
_cell_volume  528.5824943227087
_cell_formula_units_Z  4
loop_
  _symmetry_equiv_pos_site_id
 _symmetry_equiv_pos_as_xyz
 1  'x, y, z'
loop_
 _atom_site_type_symbol
 _atom_site_label
 _atom_site_symmetry_multiplicity
 _atom_site_fract_x
 _atom_site_fract_y
 _atom_site_fract_z
 _atom_site_fract_occupancy
 Ba  Ba1  1  0.66667  0.33333  0.56063  1
 Ba  Ba2  1  0.33333  0.66667  0.06063  1
 Ba  Ba3  1  0.33333  0.66667  0.43937  1
 Ba  Ba4  1  0.66667  0.33333  0.93937  1
 Na  Na1  1  0.83069  0.66138  0.25000  1
 Na  Na2  1  0.66138  0.83069  0.75000  1
 Na  Na3  1  0.16931  0.83069  0.75000  1
 Na  Na4  1  0.83069  0.16931  0.25000  1
 Na  Na5  1  0.00000  0.00000  0.00000  1
 Na  Na6  1  0.00000  0.00000  0.50000  1
 Na  Na7  1  0.16931  0.33862  0.75000  1
 Na  Na8  1  0.33862  0.16931  0.25000  1
