CIF file written using JARVIS-Tools package.
data_V2N
_symmetry_space_group_name_H-M  'P-31m'
_cell_length_a       4.91474
_cell_length_b       4.91474
_cell_length_c       4.54198
_cell_angle_alpha    90
_cell_angle_beta     90
_cell_angle_gamma    120

_symmetry_Int_Tables_number  162
_chemical_formula_structural  V2N
_chemical_formula_sum  V6N3
_cell_volume  95.0118490962243
_cell_formula_units_Z  3
loop_
  _symmetry_equiv_pos_site_id
 _symmetry_equiv_pos_as_xyz
 1  'x, y, z'
loop_
 _atom_site_type_symbol
 _atom_site_label
 _atom_site_symmetry_multiplicity
 _atom_site_fract_x
 _atom_site_fract_y
 _atom_site_fract_z
 _atom_site_fract_occupancy
 N  N1  1  0.00000  0.00000  0.00000  1
 N  N2  1  0.33333  0.66667  0.50000  1
 N  N3  1  0.66667  0.33333  0.50000  1
 V  V1  1  0.66330  -0.00000  0.75428  1
 V  V2  1  0.66330  0.66330  0.24572  1
 V  V3  1  0.00000  0.33670  0.24572  1
 V  V4  1  -0.00000  0.66330  0.75428  1
 V  V5  1  0.33670  0.33670  0.75428  1
 V  V6  1  0.33670  0.00000  0.24572  1
