CIF file written using JARVIS-Tools package.
data_Bi2TeO6
_symmetry_space_group_name_H-M  'Cmce'
_cell_length_a       5.46361
_cell_length_b       5.44195
_cell_length_c       8.7705
_cell_angle_alpha    108.074
_cell_angle_beta     90
_cell_angle_gamma    90

_symmetry_Int_Tables_number  64
_chemical_formula_structural  Bi2TeO6
_chemical_formula_sum  Bi4Te2O2
_cell_volume  247.90319238845296
_cell_formula_units_Z  2
loop_
  _symmetry_equiv_pos_site_id
 _symmetry_equiv_pos_as_xyz
 1  'x, y, z'
loop_
 _atom_site_type_symbol
 _atom_site_label
 _atom_site_symmetry_multiplicity
 _atom_site_fract_x
 _atom_site_fract_y
 _atom_site_fract_z
 _atom_site_fract_occupancy
 Bi  Bi1  1  0.49155  0.82760  0.65521  1
 Bi  Bi2  1  0.50845  0.17240  0.34479  1
 Bi  Bi3  1  0.00845  0.32760  0.65521  1
 Bi  Bi4  1  0.99155  0.67240  0.34479  1
 O  O1  1  0.91891  0.11038  0.22075  1
 O  O2  1  0.58109  0.61038  0.22075  1
 O  O3  1  0.08109  0.88962  0.77925  1
 O  O4  1  0.25000  0.28131  0.06262  1
 O  O5  1  0.75000  0.21869  0.93738  1
 O  O6  1  0.75000  0.99987  0.49973  1
 O  O7  1  0.75000  0.49987  0.49973  1
 O  O8  1  0.25000  0.50013  0.50027  1
 O  O9  1  0.25000  0.78131  0.06262  1
 O  O10  1  0.75000  0.71869  0.93738  1
 O  O11  1  0.41891  0.38962  0.77925  1
 O  O12  1  0.25000  0.00013  0.50027  1
 Te  Te1  1  0.50000  0.50000  -0.00000  1
 Te  Te2  1  0.00000  0.00000  0.00000  1
