CIF file written using JARVIS-Tools package.
data_KRb2Na
_symmetry_space_group_name_H-M  'Immm'
_cell_length_a       22.0464
_cell_length_b       11.6588
_cell_length_c       11.6588
_cell_angle_alpha    23.5709
_cell_angle_beta     19.0062
_cell_angle_gamma    19.0061

_symmetry_Int_Tables_number  71
_chemical_formula_structural  KRb2Na
_chemical_formula_sum  KRb2Na
_cell_volume  310.5161626172602
_cell_formula_units_Z  1
loop_
  _symmetry_equiv_pos_site_id
 _symmetry_equiv_pos_as_xyz
 1  'x, y, z'
loop_
 _atom_site_type_symbol
 _atom_site_label
 _atom_site_symmetry_multiplicity
 _atom_site_fract_x
 _atom_site_fract_y
 _atom_site_fract_z
 _atom_site_fract_occupancy
 K  K1  1  0.50000  0.00000  -0.00000  1
 Na  Na1  1  0.00000  0.00000  0.00000  1
 Rb  Rb1  1  0.82252  0.00000  -0.00000  1
 Rb  Rb2  1  0.17748  -0.00000  0.00000  1
