CIF file written using JARVIS-Tools package.
data_ZnWF6
_symmetry_space_group_name_H-M  'R-3'
_cell_length_a       5.58734
_cell_length_b       5.58734
_cell_length_c       5.58734
_cell_angle_alpha    53.7145
_cell_angle_beta     53.7146
_cell_angle_gamma    53.7145

_symmetry_Int_Tables_number  148
_chemical_formula_structural  ZnWF6
_chemical_formula_sum  ZnWF6
_cell_volume  105.21233999716748
_cell_formula_units_Z  1
loop_
  _symmetry_equiv_pos_site_id
 _symmetry_equiv_pos_as_xyz
 1  'x, y, z'
loop_
 _atom_site_type_symbol
 _atom_site_label
 _atom_site_symmetry_multiplicity
 _atom_site_fract_x
 _atom_site_fract_y
 _atom_site_fract_z
 _atom_site_fract_occupancy
 F  F1  1  0.39002  0.10112  0.75667  1
 F  F2  1  0.10112  0.75667  0.39002  1
 F  F3  1  0.24333  0.60998  0.89888  1
 F  F4  1  0.89888  0.24333  0.60998  1
 F  F5  1  0.60998  0.89888  0.24333  1
 F  F6  1  0.75667  0.39002  0.10112  1
 W  W1  1  0.00000  0.00000  0.00000  1
 Zn  Zn1  1  0.50000  0.50000  0.50000  1
