CIF file written using JARVIS-Tools package.
data_Y3I7O
_symmetry_space_group_name_H-M  'P6_3mc'
_cell_length_a       8.30232
_cell_length_b       8.30221
_cell_length_c       14.017
_cell_angle_alpha    89.9901
_cell_angle_beta     90.0013
_cell_angle_gamma    119.999

_symmetry_Int_Tables_number  186
_chemical_formula_structural  Y3I7O
_chemical_formula_sum  Y6I4O2
_cell_volume  836.7245514043786
_cell_formula_units_Z  2
loop_
  _symmetry_equiv_pos_site_id
 _symmetry_equiv_pos_as_xyz
 1  'x, y, z'
loop_
 _atom_site_type_symbol
 _atom_site_label
 _atom_site_symmetry_multiplicity
 _atom_site_fract_x
 _atom_site_fract_y
 _atom_site_fract_z
 _atom_site_fract_occupancy
 I  I1  1  0.50290  0.00593  0.87948  1
 I  I2  1  0.65708  0.82861  0.12141  1
 I  I3  1  0.17149  0.82851  0.12142  1
 I  I4  1  0.00593  0.50295  0.37948  1
 I  I5  1  0.33335  0.66673  0.63496  1
 I  I6  1  0.17159  0.34305  0.12145  1
 I  I7  1  0.82854  0.17163  0.62146  1
 I  I8  1  0.99403  0.49696  0.87949  1
 I  I9  1  0.82848  0.65712  0.62142  1
 I  I10  1  0.66670  0.33336  0.13495  1
 I  I11  1  0.49697  0.50287  0.37947  1
 I  I12  1  0.50300  0.49704  0.87948  1
 I  I13  1  0.34298  0.17153  0.62143  1
 I  I14  1  0.49707  0.99398  0.37948  1
 O  O1  1  -0.00002  0.00001  0.79954  1
 O  O2  1  0.00001  0.99996  0.29953  1
 Y  Y1  1  0.85259  0.14749  0.25987  1
 Y  Y2  1  0.85250  0.70504  0.25986  1
 Y  Y3  1  0.70506  0.85260  0.75988  1
 Y  Y4  1  0.29495  0.14739  0.25987  1
 Y  Y5  1  0.14751  0.29496  0.75988  1
 Y  Y6  1  0.14741  0.85251  0.75987  1
