CIF file written using JARVIS-Tools package.
data_AlBiO3
_symmetry_space_group_name_H-M  'R3c'
_cell_length_a       5.43216
_cell_length_b       5.4322
_cell_length_c       5.43213
_cell_angle_alpha    59.6726
_cell_angle_beta     59.6725
_cell_angle_gamma    59.6727

_symmetry_Int_Tables_number  161
_chemical_formula_structural  AlBiO3
_chemical_formula_sum  Al2Bi2O6
_cell_volume  112.50173131508669
_cell_formula_units_Z  2
loop_
  _symmetry_equiv_pos_site_id
 _symmetry_equiv_pos_as_xyz
 1  'x, y, z'
loop_
 _atom_site_type_symbol
 _atom_site_label
 _atom_site_symmetry_multiplicity
 _atom_site_fract_x
 _atom_site_fract_y
 _atom_site_fract_z
 _atom_site_fract_occupancy
 Al  Al1  1  0.72125  0.72125  0.72125  1
 Al  Al2  1  0.22125  0.22125  0.22125  1
 Bi  Bi1  1  0.99189  0.99189  0.99189  1
 Bi  Bi2  1  0.49189  0.49189  0.49189  1
 O  O1  1  0.45142  0.91848  0.01346  1
 O  O2  1  0.95142  0.51346  0.41848  1
 O  O3  1  0.01346  0.45142  0.91848  1
 O  O4  1  0.51346  0.41848  0.95142  1
 O  O5  1  0.41848  0.95142  0.51346  1
 O  O6  1  0.91848  0.01346  0.45142  1
