CIF file written using JARVIS-Tools package.
data_Ag2PdCl4
_symmetry_space_group_name_H-M  'Cmce'
_cell_length_a       6.45538
_cell_length_b       6.45538
_cell_length_c       8.06878
_cell_angle_alpha    90
_cell_angle_beta     90
_cell_angle_gamma    101.29

_symmetry_Int_Tables_number  64
_chemical_formula_structural  Ag2PdCl4
_chemical_formula_sum  Ag4Pd2Cl8
_cell_volume  329.7355830144138
_cell_formula_units_Z  2
loop_
  _symmetry_equiv_pos_site_id
 _symmetry_equiv_pos_as_xyz
 1  'x, y, z'
loop_
 _atom_site_type_symbol
 _atom_site_label
 _atom_site_symmetry_multiplicity
 _atom_site_fract_x
 _atom_site_fract_y
 _atom_site_fract_z
 _atom_site_fract_occupancy
 Ag  Ag1  1  0.52961  0.02961  0.75000  1
 Ag  Ag2  1  0.97039  0.47039  0.25000  1
 Ag  Ag3  1  0.02961  0.52961  0.75000  1
 Ag  Ag4  1  0.47039  0.97039  0.25000  1
 Cl  Cl1  1  0.18913  0.18913  0.78388  1
 Cl  Cl2  1  0.31087  0.31087  0.28388  1
 Cl  Cl3  1  0.68913  0.68913  0.71612  1
 Cl  Cl4  1  0.81087  0.81087  0.21612  1
 Cl  Cl5  1  0.26620  0.73380  0.50000  1
 Cl  Cl6  1  0.23380  0.76620  0.00000  1
 Cl  Cl7  1  0.76620  0.23380  0.00000  1
 Cl  Cl8  1  0.73380  0.26620  0.50000  1
 Pd  Pd1  1  0.00000  0.00000  0.00000  1
 Pd  Pd2  1  0.50000  0.50000  0.50000  1
