CIF file written using JARVIS-Tools package.
data_SmCd2
_symmetry_space_group_name_H-M  'P6/mmm'
_cell_length_a       5.01856
_cell_length_b       5.01878
_cell_length_c       3.41064
_cell_angle_alpha    89.9999
_cell_angle_beta     89.9935
_cell_angle_gamma    120.001

_symmetry_Int_Tables_number  191
_chemical_formula_structural  SmCd2
_chemical_formula_sum  SmCd2
_cell_volume  74.39395957335806
_cell_formula_units_Z  1
loop_
  _symmetry_equiv_pos_site_id
 _symmetry_equiv_pos_as_xyz
 1  'x, y, z'
loop_
 _atom_site_type_symbol
 _atom_site_label
 _atom_site_symmetry_multiplicity
 _atom_site_fract_x
 _atom_site_fract_y
 _atom_site_fract_z
 _atom_site_fract_occupancy
 Cd  Cd1  1  0.66664  0.33332  0.50006  1
 Cd  Cd2  1  0.33336  0.66668  0.49994  1
 Sm  Sm1  1  0.00000  0.00000  0.00000  1
