CIF file written using JARVIS-Tools package.
data_K3VSO3
_symmetry_space_group_name_H-M  'P2_1/m'
_cell_length_a       6.50766
_cell_length_b       5.89223
_cell_length_c       8.76863
_cell_angle_alpha    90
_cell_angle_beta     102.476
_cell_angle_gamma    90

_symmetry_Int_Tables_number  11
_chemical_formula_structural  K3VSO3
_chemical_formula_sum  K6V2S2O6
_cell_volume  328.290464460818
_cell_formula_units_Z  2
loop_
  _symmetry_equiv_pos_site_id
 _symmetry_equiv_pos_as_xyz
 1  'x, y, z'
loop_
 _atom_site_type_symbol
 _atom_site_label
 _atom_site_symmetry_multiplicity
 _atom_site_fract_x
 _atom_site_fract_y
 _atom_site_fract_z
 _atom_site_fract_occupancy
 K  K1  1  0.68124  0.75000  0.53208  1
 K  K2  1  0.25502  0.25000  0.99439  1
 K  K3  1  0.31876  0.25000  0.46792  1
 K  K4  1  0.74498  0.75000  0.00561  1
 K  K5  1  0.79084  0.25000  0.27863  1
 K  K6  1  0.20916  0.75000  0.72137  1
 O  O1  1  0.81624  0.25000  0.98721  1
 O  O2  1  0.18376  0.75000  0.01279  1
 O  O3  1  0.45670  0.98581  0.25432  1
 O  O4  1  0.54330  0.01419  0.74568  1
 O  O5  1  0.45670  0.51419  0.25432  1
 O  O6  1  0.54330  0.48581  0.74568  1
 S  S1  1  0.05637  0.75000  0.35077  1
 S  S2  1  0.94363  0.25000  0.64923  1
 V  V1  1  0.30173  0.75000  0.20732  1
 V  V2  1  0.69827  0.25000  0.79268  1
