CIF file written using JARVIS-Tools package.
data_MgCrSiO5
_symmetry_space_group_name_H-M  'P-1'
_cell_length_a       5.08701
_cell_length_b       5.40736
_cell_length_c       6.77245
_cell_angle_alpha    105.375
_cell_angle_beta     100.295
_cell_angle_gamma    109.326

_symmetry_Int_Tables_number  2
_chemical_formula_structural  MgCrSiO5
_chemical_formula_sum  Mg2Cr2Si2O0
_cell_volume  162.07236284763565
_cell_formula_units_Z  2
loop_
  _symmetry_equiv_pos_site_id
 _symmetry_equiv_pos_as_xyz
 1  'x, y, z'
loop_
 _atom_site_type_symbol
 _atom_site_label
 _atom_site_symmetry_multiplicity
 _atom_site_fract_x
 _atom_site_fract_y
 _atom_site_fract_z
 _atom_site_fract_occupancy
 Cr  Cr1  1  0.00429  0.49491  0.51453  1
 Cr  Cr2  1  0.00424  0.49490  0.01455  1
 Mg  Mg1  1  0.36144  0.21495  0.78630  1
 Mg  Mg2  1  0.64703  0.77496  0.24299  1
 O  O1  1  0.69718  0.63189  0.91754  1
 O  O2  1  -0.00959  0.85461  0.67425  1
 O  O3  1  0.31127  0.35790  0.11153  1
 O  O4  1  0.01813  0.13527  0.35484  1
 O  O5  1  0.59561  0.29092  0.48453  1
 O  O6  1  0.30808  0.86812  0.13519  1
 O  O7  1  0.41296  0.69887  0.54450  1
 O  O8  1  0.70039  0.12168  0.89390  1
 O  O9  1  0.90397  0.55464  0.26671  1
 O  O10  1  0.10445  0.43531  0.76241  1
 Si  Si1  1  0.69816  0.81896  0.75700  1
 Si  Si2  1  0.31037  0.17086  0.27210  1
