CIF file written using JARVIS-Tools package.
data_FeHO2
_symmetry_space_group_name_H-M  'Pnma'
_cell_length_a       8.48047
_cell_length_b       2.89489
_cell_length_c       4.84796
_cell_angle_alpha    90
_cell_angle_beta     90
_cell_angle_gamma    90

_symmetry_Int_Tables_number  62
_chemical_formula_structural  FeHO2
_chemical_formula_sum  Fe4H4O8
_cell_volume  119.01765333175877
_cell_formula_units_Z  4
loop_
  _symmetry_equiv_pos_site_id
 _symmetry_equiv_pos_as_xyz
 1  'x, y, z'
loop_
 _atom_site_type_symbol
 _atom_site_label
 _atom_site_symmetry_multiplicity
 _atom_site_fract_x
 _atom_site_fract_y
 _atom_site_fract_z
 _atom_site_fract_occupancy
 Fe  Fe1  1  0.64588  0.25000  0.89047  1
 Fe  Fe2  1  0.14588  0.25000  -0.39047  1
 Fe  Fe3  1  0.35412  0.75000  0.10953  1
 Fe  Fe4  1  0.85412  0.75000  0.39047  1
 H  H1  1  0.57613  0.25000  0.37498  1
 H  H2  1  0.07613  0.25000  0.12502  1
 H  H3  1  0.42387  0.75000  0.62502  1
 H  H4  1  -0.07613  0.75000  0.87498  1
 O  O1  1  0.24250  0.25000  -0.04391  1
 O  O2  1  0.74250  0.25000  0.54391  1
 O  O3  1  0.75750  0.75000  0.04391  1
 O  O4  1  0.25750  0.75000  0.45609  1
 O  O5  1  0.50078  0.25000  0.21343  1
 O  O6  1  0.00078  0.25000  0.28657  1
 O  O7  1  0.49922  0.75000  0.78657  1
 O  O8  1  -0.00078  0.75000  -0.28657  1
