CIF file written using JARVIS-Tools package.
data_ErCd2
_symmetry_space_group_name_H-M  'P6/mmm'
_cell_length_a       3.37512
_cell_length_b       5.96935
_cell_length_c       4.92392
_cell_angle_alpha    114.358
_cell_angle_beta     90.0001
_cell_angle_gamma    55.5705

_symmetry_Int_Tables_number  191
_chemical_formula_structural  ErCd2
_chemical_formula_sum  ErCd2
_cell_volume  70.86166269586177
_cell_formula_units_Z  1
loop_
  _symmetry_equiv_pos_site_id
 _symmetry_equiv_pos_as_xyz
 1  'x, y, z'
loop_
 _atom_site_type_symbol
 _atom_site_label
 _atom_site_symmetry_multiplicity
 _atom_site_fract_x
 _atom_site_fract_y
 _atom_site_fract_z
 _atom_site_fract_occupancy
 Cd  Cd1  1  0.16672  0.33331  0.66665  1
 Cd  Cd2  1  0.83328  0.66669  0.33335  1
 Er  Er1  1  0.00000  0.00000  0.00000  1
