CIF file written using JARVIS-Tools package.
data_MgCl2
_symmetry_space_group_name_H-M  'C2/m'
_cell_length_a       7.05651
_cell_length_b       7.08755
_cell_length_c       7.08724
_cell_angle_alpha    63.4098
_cell_angle_beta     42.6415
_cell_angle_gamma    44.0728

_symmetry_Int_Tables_number  12
_chemical_formula_structural  MgCl2
_chemical_formula_sum  Mg2Cl4
_cell_volume  164.53549780436109
_cell_formula_units_Z  2
loop_
  _symmetry_equiv_pos_site_id
 _symmetry_equiv_pos_as_xyz
 1  'x, y, z'
loop_
 _atom_site_type_symbol
 _atom_site_label
 _atom_site_symmetry_multiplicity
 _atom_site_fract_x
 _atom_site_fract_y
 _atom_site_fract_z
 _atom_site_fract_occupancy
 Cl  Cl1  1  0.97700  0.76239  0.76064  1
 Cl  Cl2  1  0.02300  0.23761  0.23936  1
 Cl  Cl3  1  0.50000  -0.00000  0.50000  1
 Cl  Cl4  1  0.50000  0.50000  -0.00000  1
 Mg  Mg1  1  0.50011  0.86783  0.86784  1
 Mg  Mg2  1  0.49989  0.13217  0.13216  1
