CIF file written using JARVIS-Tools package.
data_CrF5
_symmetry_space_group_name_H-M  'C2/c'
_cell_length_a       5.25464
_cell_length_b       5.25561
_cell_length_c       7.09001
_cell_angle_alpha    70.5439
_cell_angle_beta     70.5649
_cell_angle_gamma    55.4681

_symmetry_Int_Tables_number  15
_chemical_formula_structural  CrF5
_chemical_formula_sum  Cr2F0
_cell_volume  149.45753998808163
_cell_formula_units_Z  2
loop_
  _symmetry_equiv_pos_site_id
 _symmetry_equiv_pos_as_xyz
 1  'x, y, z'
loop_
 _atom_site_type_symbol
 _atom_site_label
 _atom_site_symmetry_multiplicity
 _atom_site_fract_x
 _atom_site_fract_y
 _atom_site_fract_z
 _atom_site_fract_occupancy
 Cr  Cr1  1  0.00147  0.00014  0.00118  1
 Cr  Cr2  1  0.00146  0.00014  0.50118  1
 F  F1  1  0.85469  0.14680  0.75116  1
 F  F2  1  0.14823  0.85345  0.25120  1
 F  F3  1  0.96538  0.67218  0.63120  1
 F  F4  1  0.32944  0.03621  0.87114  1
 F  F5  1  0.21030  0.61174  0.96387  1
 F  F6  1  0.38988  0.79125  0.53870  1
 F  F7  1  0.79265  0.38854  0.03849  1
 F  F8  1  0.61307  0.20904  0.46363  1
 F  F9  1  0.67349  0.96408  0.13123  1
 F  F10  1  0.03757  0.32809  0.37114  1
