CIF file written using JARVIS-Tools package.
data_Ca2TlSn
_symmetry_space_group_name_H-M  'Immm'
_cell_length_a       12.3987
_cell_length_b       13.1473
_cell_length_c       13.1473
_cell_angle_alpha    61.3081
_cell_angle_beta     61.866
_cell_angle_gamma    61.866

_symmetry_Int_Tables_number  71
_chemical_formula_structural  Ca2TlSn
_chemical_formula_sum  Ca2TlSn
_cell_volume  1572.418721732001
_cell_formula_units_Z  1
loop_
  _symmetry_equiv_pos_site_id
 _symmetry_equiv_pos_as_xyz
 1  'x, y, z'
loop_
 _atom_site_type_symbol
 _atom_site_label
 _atom_site_symmetry_multiplicity
 _atom_site_fract_x
 _atom_site_fract_y
 _atom_site_fract_z
 _atom_site_fract_occupancy
 Ca  Ca1  1  0.75622  0.00000  0.00000  1
 Ca  Ca2  1  0.24378  -0.00000  -0.00000  1
 Sn  Sn1  1  -0.00000  -0.00000  0.00000  1
 Tl  Tl1  1  0.50000  -0.00000  0.00000  1
