CIF file written using JARVIS-Tools package.
data_UCd
_symmetry_space_group_name_H-M  'R3m'
_cell_length_a       2.94253
_cell_length_b       2.94253
_cell_length_c       6.45929
_cell_angle_alpha    76.8339
_cell_angle_beta     76.8339
_cell_angle_gamma    59.9997

_symmetry_Int_Tables_number  160
_chemical_formula_structural  UCd
_chemical_formula_sum  UCd
_cell_volume  46.72941240852034
_cell_formula_units_Z  1
loop_
  _symmetry_equiv_pos_site_id
 _symmetry_equiv_pos_as_xyz
 1  'x, y, z'
loop_
 _atom_site_type_symbol
 _atom_site_label
 _atom_site_symmetry_multiplicity
 _atom_site_fract_x
 _atom_site_fract_y
 _atom_site_fract_z
 _atom_site_fract_occupancy
 Cd  Cd1  1  0.86630  0.86630  0.40111  1
 U  U1  1  0.68870  0.68870  0.93389  1
