CIF file written using JARVIS-Tools package.
data_P3N5
_symmetry_space_group_name_H-M  'C2/c'
_cell_length_a       5.03669
_cell_length_b       5.03669
_cell_length_c       8.80635
_cell_angle_alpha    100.947
_cell_angle_beta     101.562
_cell_angle_gamma    108.514

_symmetry_Int_Tables_number  15
_chemical_formula_structural  P3N5
_chemical_formula_sum  P6N0
_cell_volume  199.66146549711323
_cell_formula_units_Z  2
loop_
  _symmetry_equiv_pos_site_id
 _symmetry_equiv_pos_as_xyz
 1  'x, y, z'
loop_
 _atom_site_type_symbol
 _atom_site_label
 _atom_site_symmetry_multiplicity
 _atom_site_fract_x
 _atom_site_fract_y
 _atom_site_fract_z
 _atom_site_fract_occupancy
 N  N1  1  0.61238  0.50088  0.40060  1
 N  N2  1  0.29998  0.22758  0.80732  1
 N  N3  1  0.38762  0.49912  0.59940  1
 N  N4  1  0.60029  0.21178  0.09940  1
 N  N5  1  0.92026  0.49266  0.69268  1
 N  N6  1  0.70002  0.77242  0.19268  1
 N  N7  1  0.50000  -0.00000  0.50000  1
 N  N8  1  0.39971  0.78822  0.90060  1
 N  N9  1  0.07974  0.50734  0.30732  1
 N  N10  1  0.00000  0.00000  0.00000  1
 P  P1  1  0.23150  0.48150  0.75000  1
 P  P2  1  0.37489  0.66196  0.44428  1
 P  P3  1  0.28232  0.06939  0.94428  1
 P  P4  1  0.62511  0.33804  0.55572  1
 P  P5  1  0.71768  0.93061  0.05572  1
 P  P6  1  0.76850  0.51850  0.25000  1
