CIF file written using JARVIS-Tools package.
data_CaWF6
_symmetry_space_group_name_H-M  'R-3'
_cell_length_a       5.95606
_cell_length_b       5.95606
_cell_length_c       5.95606
_cell_angle_alpha    52.5564
_cell_angle_beta     52.5564
_cell_angle_gamma    52.5564

_symmetry_Int_Tables_number  148
_chemical_formula_structural  CaWF6
_chemical_formula_sum  CaWF6
_cell_volume  123.3010399201324
_cell_formula_units_Z  1
loop_
  _symmetry_equiv_pos_site_id
 _symmetry_equiv_pos_as_xyz
 1  'x, y, z'
loop_
 _atom_site_type_symbol
 _atom_site_label
 _atom_site_symmetry_multiplicity
 _atom_site_fract_x
 _atom_site_fract_y
 _atom_site_fract_z
 _atom_site_fract_occupancy
 Ca  Ca1  1  0.50000  0.50000  0.50000  1
 F  F1  1  0.37469  0.08700  0.77144  1
 F  F2  1  0.08700  0.77144  0.37469  1
 F  F3  1  0.22856  0.62531  0.91300  1
 F  F4  1  0.91300  0.22856  0.62531  1
 F  F5  1  0.62531  0.91300  0.22856  1
 F  F6  1  0.77144  0.37469  0.08700  1
 W  W1  1  0.00000  0.00000  0.00000  1
