CIF file written using JARVIS-Tools package.
data_SmHg2
_symmetry_space_group_name_H-M  'C2/m'
_cell_length_a       4.33374
_cell_length_b       4.43529
_cell_length_c       5.43813
_cell_angle_alpha    127.811
_cell_angle_beta     90.0001
_cell_angle_gamma    103.422

_symmetry_Int_Tables_number  12
_chemical_formula_structural  SmHg2
_chemical_formula_sum  SmHg2
_cell_volume  78.93681846844666
_cell_formula_units_Z  1
loop_
  _symmetry_equiv_pos_site_id
 _symmetry_equiv_pos_as_xyz
 1  'x, y, z'
loop_
 _atom_site_type_symbol
 _atom_site_label
 _atom_site_symmetry_multiplicity
 _atom_site_fract_x
 _atom_site_fract_y
 _atom_site_fract_z
 _atom_site_fract_occupancy
 Hg  Hg1  1  0.33771  0.32608  0.66304  1
 Hg  Hg2  1  0.66229  0.67392  0.33696  1
 Sm  Sm1  1  0.00000  0.00000  0.00000  1
