CIF file written using JARVIS-Tools package.
data_ZrTiO4
_symmetry_space_group_name_H-M  'P1'
_cell_length_a       4.94114
_cell_length_b       5.41692
_cell_length_c       10.0626
_cell_angle_alpha    94.7374
_cell_angle_beta     92.3483
_cell_angle_gamma    91.1806

_symmetry_Int_Tables_number  1
_chemical_formula_structural  ZrTiO4
_chemical_formula_sum  Zr4Ti4O6
_cell_volume  268.1081646781845
_cell_formula_units_Z  4
loop_
  _symmetry_equiv_pos_site_id
 _symmetry_equiv_pos_as_xyz
 1  'x, y, z'
loop_
 _atom_site_type_symbol
 _atom_site_label
 _atom_site_symmetry_multiplicity
 _atom_site_fract_x
 _atom_site_fract_y
 _atom_site_fract_z
 _atom_site_fract_occupancy
 O  O1  1  0.72844  0.12225  0.71048  1
 O  O2  1  0.24934  0.58863  0.04478  1
 O  O3  1  0.29207  0.53826  0.53607  1
 O  O4  1  0.19696  0.40363  0.28301  1
 O  O5  1  0.75884  0.42200  0.94730  1
 O  O6  1  0.32933  0.87432  0.77541  1
 O  O7  1  0.25247  0.90831  0.26947  1
 O  O8  1  0.23322  0.37646  0.78684  1
 O  O9  1  0.25567  0.07225  0.00699  1
 O  O10  1  0.67544  0.88666  0.46396  1
 O  O11  1  0.74293  0.94333  0.98500  1
 O  O12  1  0.81921  0.62785  0.70587  1
 O  O13  1  0.68455  0.13155  0.22495  1
 O  O14  1  0.76004  0.62856  0.21031  1
 O  O15  1  0.80522  0.39549  0.47176  1
 O  O16  1  0.19576  0.04036  0.53083  1
 Ti  Ti1  1  0.53937  0.78689  0.62499  1
 Ti  Ti2  1  0.51210  0.82704  0.13318  1
 Ti  Ti3  1  0.49322  0.18829  0.87001  1
 Ti  Ti4  1  -0.00431  0.29978  0.62794  1
 Zr  Zr1  1  0.45489  0.21248  0.39580  1
 Zr  Zr2  1  0.01936  0.71030  0.39149  1
 Zr  Zr3  1  0.96687  0.28749  0.11136  1
 Zr  Zr4  1  0.03900  0.72781  0.89220  1
