CIF file written using JARVIS-Tools package.
data_Sc2AlAu
_symmetry_space_group_name_H-M  'I4/mmm'
_cell_length_a       11.9061
_cell_length_b       5.10679
_cell_length_c       5.10678
_cell_angle_alpha    50.2974
_cell_angle_beta     31.0003
_cell_angle_gamma    31

_symmetry_Int_Tables_number  139
_chemical_formula_structural  Sc2AlAu
_chemical_formula_sum  Sc2AlAu
_cell_volume  76.7910612920394
_cell_formula_units_Z  1
loop_
  _symmetry_equiv_pos_site_id
 _symmetry_equiv_pos_as_xyz
 1  'x, y, z'
loop_
 _atom_site_type_symbol
 _atom_site_label
 _atom_site_symmetry_multiplicity
 _atom_site_fract_x
 _atom_site_fract_y
 _atom_site_fract_z
 _atom_site_fract_occupancy
 Al  Al1  1  0.00001  -0.00001  -0.00002  1
 Au  Au1  1  0.49999  0.00001  0.00002  1
 Sc  Sc1  1  0.75010  -0.00020  -0.00020  1
 Sc  Sc2  1  0.24990  0.00020  0.00020  1
