CIF file written using JARVIS-Tools package.
data_Ba2GeSe4
_symmetry_space_group_name_H-M  'P2_1/m'
_cell_length_a       7.098
_cell_length_b       7.11289
_cell_length_c       9.20374
_cell_angle_alpha    90
_cell_angle_beta     109.044
_cell_angle_gamma    90

_symmetry_Int_Tables_number  11
_chemical_formula_structural  Ba2GeSe4
_chemical_formula_sum  Ba4Ge2Se8
_cell_volume  439.2406731792219
_cell_formula_units_Z  2
loop_
  _symmetry_equiv_pos_site_id
 _symmetry_equiv_pos_as_xyz
 1  'x, y, z'
loop_
 _atom_site_type_symbol
 _atom_site_label
 _atom_site_symmetry_multiplicity
 _atom_site_fract_x
 _atom_site_fract_y
 _atom_site_fract_z
 _atom_site_fract_occupancy
 Ba  Ba1  1  0.71743  0.25000  0.92426  1
 Ba  Ba2  1  0.28257  0.75000  0.07574  1
 Ba  Ba3  1  0.78258  0.25000  0.45137  1
 Ba  Ba4  1  0.21742  0.75000  0.54863  1
 Ge  Ge1  1  0.79248  0.75000  0.70991  1
 Ge  Ge2  1  0.20752  0.25000  0.29009  1
 Se  Se1  1  0.01162  0.01110  0.77190  1
 Se  Se2  1  0.98838  0.51110  0.22810  1
 Se  Se3  1  0.98838  0.98890  0.22810  1
 Se  Se4  1  0.01162  0.48890  0.77190  1
 Se  Se5  1  0.62791  0.75000  0.43716  1
 Se  Se6  1  0.37209  0.25000  0.56284  1
 Se  Se7  1  0.58887  0.75000  0.87176  1
 Se  Se8  1  0.41113  0.25000  0.12824  1
