CIF file written using JARVIS-Tools package.
data_Tl4O3
_symmetry_space_group_name_H-M  'P2_1/m'
_cell_length_a       7.69693
_cell_length_b       3.53601
_cell_length_c       11.0539
_cell_angle_alpha    90
_cell_angle_beta     109.107
_cell_angle_gamma    90

_symmetry_Int_Tables_number  11
_chemical_formula_structural  Tl4O3
_chemical_formula_sum  Tl8O6
_cell_volume  284.27369372892116
_cell_formula_units_Z  2
loop_
  _symmetry_equiv_pos_site_id
 _symmetry_equiv_pos_as_xyz
 1  'x, y, z'
loop_
 _atom_site_type_symbol
 _atom_site_label
 _atom_site_symmetry_multiplicity
 _atom_site_fract_x
 _atom_site_fract_y
 _atom_site_fract_z
 _atom_site_fract_occupancy
 O  O1  1  0.77653  0.75000  0.39893  1
 O  O2  1  0.22347  0.25000  0.60107  1
 O  O3  1  0.52481  0.75000  0.82696  1
 O  O4  1  0.47519  0.25000  0.17304  1
 O  O5  1  0.36395  0.75000  0.38909  1
 O  O6  1  0.63605  0.25000  0.61091  1
 Tl  Tl1  1  0.57414  0.25000  0.39063  1
 Tl  Tl2  1  0.42586  0.75000  0.60937  1
 Tl  Tl3  1  0.93181  0.75000  0.63084  1
 Tl  Tl4  1  0.06819  0.25000  0.36916  1
 Tl  Tl5  1  0.69556  0.75000  0.14601  1
 Tl  Tl6  1  0.30444  0.25000  0.85399  1
 Tl  Tl7  1  0.22578  0.75000  0.13445  1
 Tl  Tl8  1  0.77422  0.25000  0.86555  1
