CIF file written using JARVIS-Tools package.
data_LuTe3
_symmetry_space_group_name_H-M  'Cmcm'
_cell_length_a       3.99175
_cell_length_b       4.57787
_cell_length_c       13.9237
_cell_angle_alpha    90
_cell_angle_beta     98.2414
_cell_angle_gamma    90

_symmetry_Int_Tables_number  63
_chemical_formula_structural  LuTe3
_chemical_formula_sum  Lu2Te6
_cell_volume  251.809375636524
_cell_formula_units_Z  2
loop_
  _symmetry_equiv_pos_site_id
 _symmetry_equiv_pos_as_xyz
 1  'x, y, z'
loop_
 _atom_site_type_symbol
 _atom_site_label
 _atom_site_symmetry_multiplicity
 _atom_site_fract_x
 _atom_site_fract_y
 _atom_site_fract_z
 _atom_site_fract_occupancy
 Lu  Lu1  1  0.94999  0.25000  0.89999  1
 Lu  Lu2  1  0.05001  0.75000  0.10001  1
 Te  Te1  1  0.83713  0.25000  0.67426  1
 Te  Te2  1  0.16287  0.75000  0.32574  1
 Te  Te3  1  0.68704  0.25000  0.37408  1
 Te  Te4  1  0.31296  0.75000  0.62592  1
 Te  Te5  1  0.55237  0.25000  0.10473  1
 Te  Te6  1  0.44763  0.75000  0.89527  1
