CIF file written using JARVIS-Tools package.
data_Ti9O10
_symmetry_space_group_name_H-M  'P-1'
_cell_length_a       4.4402
_cell_length_b       5.51296
_cell_length_c       8.98196
_cell_angle_alpha    98.7863
_cell_angle_beta     90.477
_cell_angle_gamma    112.152

_symmetry_Int_Tables_number  2
_chemical_formula_structural  Ti9O10
_chemical_formula_sum  Ti9O0
_cell_volume  200.72460915086296
_cell_formula_units_Z  1
loop_
  _symmetry_equiv_pos_site_id
 _symmetry_equiv_pos_as_xyz
 1  'x, y, z'
loop_
 _atom_site_type_symbol
 _atom_site_label
 _atom_site_symmetry_multiplicity
 _atom_site_fract_x
 _atom_site_fract_y
 _atom_site_fract_z
 _atom_site_fract_occupancy
 O  O1  1  0.38347  0.70316  0.95832  1
 O  O2  1  0.61653  0.29684  0.04168  1
 O  O3  1  0.71414  0.81153  0.39113  1
 O  O4  1  0.75779  0.27697  0.44162  1
 O  O5  1  0.28671  0.27545  0.28426  1
 O  O6  1  0.90117  0.32193  0.79212  1
 O  O7  1  0.24221  0.72303  0.55838  1
 O  O8  1  0.71329  0.72455  0.71574  1
 O  O9  1  0.28586  0.18847  0.60887  1
 O  O10  1  0.09883  0.67807  0.20788  1
 Ti  Ti1  1  0.56779  0.65513  0.16094  1
 Ti  Ti2  1  0.43221  0.34487  0.83906  1
 Ti  Ti3  1  0.77159  0.01630  0.91127  1
 Ti  Ti4  1  0.50000  0.50000  0.50000  1
 Ti  Ti5  1  0.70709  0.03509  0.60199  1
 Ti  Ti6  1  0.13555  0.71041  0.77106  1
 Ti  Ti7  1  0.86445  0.28959  0.22894  1
 Ti  Ti8  1  0.22841  0.98370  0.08873  1
 Ti  Ti9  1  0.29291  0.96491  0.39801  1
