CIF file written using JARVIS-Tools package.
data_AlVNi
_symmetry_space_group_name_H-M  'F-43m'
_cell_length_a       4.03212
_cell_length_b       4.03212
_cell_length_c       4.03212
_cell_angle_alpha    59.9997
_cell_angle_beta     59.9997
_cell_angle_gamma    59.9997

_symmetry_Int_Tables_number  216
_chemical_formula_structural  AlVNi
_chemical_formula_sum  AlVNi
_cell_volume  46.35346215305645
_cell_formula_units_Z  1
loop_
  _symmetry_equiv_pos_site_id
 _symmetry_equiv_pos_as_xyz
 1  'x, y, z'
loop_
 _atom_site_type_symbol
 _atom_site_label
 _atom_site_symmetry_multiplicity
 _atom_site_fract_x
 _atom_site_fract_y
 _atom_site_fract_z
 _atom_site_fract_occupancy
 Al  Al1  1  -0.00000  0.00000  1.00000  1
 Ni  Ni1  1  0.50000  0.50000  0.50000  1
 V  V1  1  0.25000  0.25000  0.25000  1
