CIF file written using JARVIS-Tools package.
data_CaBr2
_symmetry_space_group_name_H-M  'Pnnm'
_cell_length_a       4.30582
_cell_length_b       6.50561
_cell_length_c       6.91367
_cell_angle_alpha    90
_cell_angle_beta     90
_cell_angle_gamma    90

_symmetry_Int_Tables_number  58
_chemical_formula_structural  CaBr2
_chemical_formula_sum  Ca2Br4
_cell_volume  193.6656029511536
_cell_formula_units_Z  2
loop_
  _symmetry_equiv_pos_site_id
 _symmetry_equiv_pos_as_xyz
 1  'x, y, z'
loop_
 _atom_site_type_symbol
 _atom_site_label
 _atom_site_symmetry_multiplicity
 _atom_site_fract_x
 _atom_site_fract_y
 _atom_site_fract_z
 _atom_site_fract_occupancy
 Br  Br1  1  0.50000  0.24515  0.84417  1
 Br  Br2  1  0.00000  0.74515  0.65583  1
 Br  Br3  1  0.00000  0.25485  0.34417  1
 Br  Br4  1  0.50000  0.75485  0.15583  1
 Ca  Ca1  1  0.00000  0.00000  0.00000  1
 Ca  Ca2  1  0.50000  0.50000  0.50000  1
