CIF file written using JARVIS-Tools package.
data_ZnMo2O4
_symmetry_space_group_name_H-M  'F-43m'
_cell_length_a       6.08716
_cell_length_b       6.0876
_cell_length_c       6.0871
_cell_angle_alpha    89.9989
_cell_angle_beta     119.995
_cell_angle_gamma    120.003

_symmetry_Int_Tables_number  216
_chemical_formula_structural  ZnMo2O4
_chemical_formula_sum  Zn2Mo4O8
_cell_volume  159.50383611638807
_cell_formula_units_Z  2
loop_
  _symmetry_equiv_pos_site_id
 _symmetry_equiv_pos_as_xyz
 1  'x, y, z'
loop_
 _atom_site_type_symbol
 _atom_site_label
 _atom_site_symmetry_multiplicity
 _atom_site_fract_x
 _atom_site_fract_y
 _atom_site_fract_z
 _atom_site_fract_occupancy
 Mo  Mo1  1  0.52952  0.04428  0.51476  1
 Mo  Mo2  1  0.52952  0.48524  0.51476  1
 Mo  Mo3  1  -0.02952  0.48524  0.95572  1
 Mo  Mo4  1  0.97050  0.48525  0.51475  1
 O  O1  1  0.02174  0.73914  0.26086  1
 O  O2  1  0.47827  0.73913  0.71739  1
 O  O3  1  0.47824  0.73912  0.26088  1
 O  O4  1  0.00406  0.75609  0.75202  1
 O  O5  1  0.49594  0.24796  0.75204  1
 O  O6  1  0.49595  0.24798  0.24391  1
 O  O7  1  0.02175  0.28261  0.26087  1
 O  O8  1  0.00406  0.24797  0.75202  1
 Zn  Zn1  1  0.24997  0.12499  0.87501  1
 Zn  Zn2  1  0.75000  0.87500  0.12500  1
