CIF file written using JARVIS-Tools package.
data_Ca2Ag2O5
_symmetry_space_group_name_H-M  'Pbam'
_cell_length_a       5.92281
_cell_length_b       4.00192
_cell_length_c       9.81032
_cell_angle_alpha    90
_cell_angle_beta     89.9992
_cell_angle_gamma    90

_symmetry_Int_Tables_number  55
_chemical_formula_structural  Ca2Ag2O5
_chemical_formula_sum  Ca4Ag4O0
_cell_volume  232.53047430496034
_cell_formula_units_Z  2
loop_
  _symmetry_equiv_pos_site_id
 _symmetry_equiv_pos_as_xyz
 1  'x, y, z'
loop_
 _atom_site_type_symbol
 _atom_site_label
 _atom_site_symmetry_multiplicity
 _atom_site_fract_x
 _atom_site_fract_y
 _atom_site_fract_z
 _atom_site_fract_occupancy
 Ag  Ag1  1  0.81052  0.00000  0.40341  1
 Ag  Ag2  1  0.18941  0.00000  0.59660  1
 Ag  Ag3  1  0.68949  0.00000  0.90340  1
 Ag  Ag4  1  0.31058  0.00000  0.09661  1
 Ca  Ca1  1  0.85259  0.50000  0.14334  1
 Ca  Ca2  1  0.14748  0.50000  0.85669  1
 Ca  Ca3  1  0.35255  0.50000  0.35668  1
 Ca  Ca4  1  0.64738  0.50000  0.64335  1
 O  O1  1  0.00007  0.00000  -0.00003  1
 O  O2  1  0.88028  0.00000  0.68489  1
 O  O3  1  0.38040  0.00000  0.81506  1
 O  O4  1  0.49993  0.00000  0.49997  1
 O  O5  1  0.76123  0.50000  0.38891  1
 O  O6  1  0.26129  0.50000  0.11110  1
 O  O7  1  0.11962  0.00000  0.31508  1
 O  O8  1  0.61971  0.00000  0.18490  1
 O  O9  1  0.73877  0.50000  0.88892  1
 O  O10  1  0.23870  0.50000  0.61111  1
