CIF file written using JARVIS-Tools package.
data_Na4CO4
_symmetry_space_group_name_H-M  'P-43m'
_cell_length_a       4.66204
_cell_length_b       4.66204
_cell_length_c       4.66204
_cell_angle_alpha    90
_cell_angle_beta     90
_cell_angle_gamma    90

_symmetry_Int_Tables_number  215
_chemical_formula_structural  Na4CO4
_chemical_formula_sum  Na4CO4
_cell_volume  101.32767815831824
_cell_formula_units_Z  1
loop_
  _symmetry_equiv_pos_site_id
 _symmetry_equiv_pos_as_xyz
 1  'x, y, z'
loop_
 _atom_site_type_symbol
 _atom_site_label
 _atom_site_symmetry_multiplicity
 _atom_site_fract_x
 _atom_site_fract_y
 _atom_site_fract_z
 _atom_site_fract_occupancy
 C  C1  1  0.50000  0.50000  0.50000  1
 Na  Na1  1  0.78405  0.78405  0.21595  1
 Na  Na2  1  0.21595  0.78405  0.78405  1
 Na  Na3  1  0.21595  0.21595  0.21595  1
 Na  Na4  1  0.78405  0.21595  0.78405  1
 O  O1  1  0.67994  0.67994  0.67994  1
 O  O2  1  0.67994  0.32006  0.32006  1
 O  O3  1  0.32006  0.67994  0.32006  1
 O  O4  1  0.32006  0.32006  0.67994  1
