CIF file written using JARVIS-Tools package.
data_LiVP2O7
_symmetry_space_group_name_H-M  'P-1'
_cell_length_a       5.76792
_cell_length_b       7.05186
_cell_length_c       7.11894
_cell_angle_alpha    75.8481
_cell_angle_beta     66.6079
_cell_angle_gamma    84.0133

_symmetry_Int_Tables_number  2
_chemical_formula_structural  LiVP2O7
_chemical_formula_sum  Li2V2P4O4
_cell_volume  257.6872145737886
_cell_formula_units_Z  2
loop_
  _symmetry_equiv_pos_site_id
 _symmetry_equiv_pos_as_xyz
 1  'x, y, z'
loop_
 _atom_site_type_symbol
 _atom_site_label
 _atom_site_symmetry_multiplicity
 _atom_site_fract_x
 _atom_site_fract_y
 _atom_site_fract_z
 _atom_site_fract_occupancy
 Li  Li1  1  0.90981  0.34920  0.17524  1
 Li  Li2  1  0.09019  0.65080  0.82476  1
 O  O1  1  0.97347  0.95348  0.21531  1
 O  O2  1  0.40962  0.08374  0.86746  1
 O  O3  1  0.59038  0.91626  0.13254  1
 O  O4  1  0.11047  0.26296  0.32610  1
 O  O5  1  0.07433  0.35611  0.85995  1
 O  O6  1  0.40116  0.25875  0.52229  1
 O  O7  1  0.67307  0.42529  0.69776  1
 O  O8  1  0.32693  0.57471  0.30224  1
 O  O9  1  0.40833  0.69169  0.85983  1
 O  O10  1  0.92567  0.64389  0.14005  1
 O  O11  1  0.88953  0.73704  0.67390  1
 O  O12  1  0.59884  0.74125  0.47771  1
 O  O13  1  0.59167  0.30831  0.14017  1
 O  O14  1  0.02653  0.04652  0.78469  1
 P  P1  1  0.77362  0.81079  0.23667  1
 P  P2  1  0.66099  0.64745  0.68699  1
 P  P3  1  0.33901  0.35255  0.31301  1
 P  P4  1  0.22638  0.18921  0.76333  1
 V  V1  1  0.29169  0.80652  0.10763  1
 V  V2  1  0.70831  0.19348  0.89237  1
