CIF file written using JARVIS-Tools package.
data_Ta2O5
_symmetry_space_group_name_H-M  'Cmcm'
_cell_length_a       10.3614
_cell_length_b       5.38929
_cell_length_c       3.83787
_cell_angle_alpha    110.859
_cell_angle_beta     90
_cell_angle_gamma    90

_symmetry_Int_Tables_number  63
_chemical_formula_structural  Ta2O5
_chemical_formula_sum  Ta4O0
_cell_volume  200.2647044409574
_cell_formula_units_Z  2
loop_
  _symmetry_equiv_pos_site_id
 _symmetry_equiv_pos_as_xyz
 1  'x, y, z'
loop_
 _atom_site_type_symbol
 _atom_site_label
 _atom_site_symmetry_multiplicity
 _atom_site_fract_x
 _atom_site_fract_y
 _atom_site_fract_z
 _atom_site_fract_occupancy
 O  O1  1  0.00000  -0.11444  -0.05722  1
 O  O2  1  0.13834  0.40627  0.70313  1
 O  O3  1  0.20632  0.85799  0.42899  1
 O  O4  1  0.29368  0.14201  0.07100  1
 O  O5  1  0.36166  0.59373  0.79687  1
 O  O6  1  0.50000  0.11444  0.55722  1
 O  O7  1  0.63834  0.59373  0.79687  1
 O  O8  1  0.86166  0.40627  0.70313  1
 O  O9  1  0.70632  0.14201  0.07100  1
 O  O10  1  0.79368  0.85799  0.42899  1
 Ta  Ta1  1  0.17691  0.76496  0.88248  1
 Ta  Ta2  1  0.32309  0.23504  0.61752  1
 Ta  Ta3  1  0.67691  0.23504  0.61752  1
 Ta  Ta4  1  0.82309  0.76496  0.88248  1
