CIF file written using JARVIS-Tools package.
data_Li4CO4
_symmetry_space_group_name_H-M  'C2'
_cell_length_a       4.60117
_cell_length_b       4.71341
_cell_length_c       5.07907
_cell_angle_alpha    122.419
_cell_angle_beta     116.932
_cell_angle_gamma    90.0021

_symmetry_Int_Tables_number  5
_chemical_formula_structural  Li4CO4
_chemical_formula_sum  Li4CO4
_cell_volume  78.4644187161289
_cell_formula_units_Z  1
loop_
  _symmetry_equiv_pos_site_id
 _symmetry_equiv_pos_as_xyz
 1  'x, y, z'
loop_
 _atom_site_type_symbol
 _atom_site_label
 _atom_site_symmetry_multiplicity
 _atom_site_fract_x
 _atom_site_fract_y
 _atom_site_fract_z
 _atom_site_fract_occupancy
 C  C1  1  0.74537  0.00001  -0.00001  1
 Li  Li1  1  0.28589  0.35474  0.25444  1
 Li  Li2  1  0.76572  0.77066  0.30938  1
 Li  Li3  1  0.45630  0.22934  0.69063  1
 Li  Li4  1  0.03143  0.64523  0.74557  1
 O  O1  1  0.81437  0.02844  0.76742  1
 O  O2  1  0.04695  0.97158  0.23257  1
 O  O3  1  0.67338  0.30755  0.20320  1
 O  O4  1  0.47017  0.69246  0.79680  1
