CIF file written using JARVIS-Tools package.
data_V2O5
_symmetry_space_group_name_H-M  'Cmcm'
_cell_length_a       11.5297
_cell_length_b       5.23521
_cell_length_c       3.55932
_cell_angle_alpha    109.873
_cell_angle_beta     90
_cell_angle_gamma    90

_symmetry_Int_Tables_number  63
_chemical_formula_structural  V2O5
_chemical_formula_sum  V4O0
_cell_volume  202.04645718503758
_cell_formula_units_Z  2
loop_
  _symmetry_equiv_pos_site_id
 _symmetry_equiv_pos_as_xyz
 1  'x, y, z'
loop_
 _atom_site_type_symbol
 _atom_site_label
 _atom_site_symmetry_multiplicity
 _atom_site_fract_x
 _atom_site_fract_y
 _atom_site_fract_z
 _atom_site_fract_occupancy
 O  O1  1  0.00000  0.03776  0.01888  1
 O  O2  1  0.13003  0.58175  0.79087  1
 O  O3  1  0.18236  -0.00380  0.49810  1
 O  O4  1  0.31764  0.00380  0.00190  1
 O  O5  1  0.36997  0.41825  0.70913  1
 O  O6  1  0.50000  0.96224  0.48112  1
 O  O7  1  0.63003  0.41825  0.70913  1
 O  O8  1  0.86997  0.58175  0.79087  1
 O  O9  1  0.68236  0.00380  0.00190  1
 O  O10  1  0.81764  -0.00380  0.49810  1
 V  V1  1  0.14528  0.90492  0.95246  1
 V  V2  1  0.35472  0.09508  0.54754  1
 V  V3  1  0.64528  0.09508  0.54754  1
 V  V4  1  0.85472  0.90492  0.95246  1
