CIF file written using JARVIS-Tools package.
data_K2NaAlAs2
_symmetry_space_group_name_H-M  'Ibam'
_cell_length_a       6.48952
_cell_length_b       6.70818
_cell_length_c       8.81399
_cell_angle_alpha    112.367
_cell_angle_beta     111.601
_cell_angle_gamma    90

_symmetry_Int_Tables_number  72
_chemical_formula_structural  K2NaAlAs2
_chemical_formula_sum  K4Na2Al2As4
_cell_volume  325.5020443879405
_cell_formula_units_Z  2
loop_
  _symmetry_equiv_pos_site_id
 _symmetry_equiv_pos_as_xyz
 1  'x, y, z'
loop_
 _atom_site_type_symbol
 _atom_site_label
 _atom_site_symmetry_multiplicity
 _atom_site_fract_x
 _atom_site_fract_y
 _atom_site_fract_z
 _atom_site_fract_occupancy
 Al  Al1  1  0.25000  0.00000  0.00000  1
 Al  Al2  1  0.75000  0.00000  0.00000  1
 As  As1  1  0.90402  0.70141  0.80804  1
 As  As2  1  0.09598  0.29859  0.19196  1
 As  As3  1  0.59598  0.89337  0.19196  1
 As  As4  1  0.40402  0.10663  0.80804  1
 K  K1  1  0.32426  0.55877  0.64851  1
 K  K2  1  0.17574  0.91025  0.35149  1
 K  K3  1  0.67574  0.44123  0.35149  1
 K  K4  1  0.82426  0.08975  0.64851  1
 Na  Na1  1  0.25000  0.50000  -0.00000  1
 Na  Na2  1  0.75000  0.50000  0.00000  1
