CIF file written using JARVIS-Tools package.
data_LuB4
_symmetry_space_group_name_H-M  'P4/mbm'
_cell_length_a       7.016
_cell_length_b       7.016
_cell_length_c       3.96678
_cell_angle_alpha    90
_cell_angle_beta     90
_cell_angle_gamma    90

_symmetry_Int_Tables_number  127
_chemical_formula_structural  LuB4
_chemical_formula_sum  Lu4B6
_cell_volume  195.26166474189125
_cell_formula_units_Z  4
loop_
  _symmetry_equiv_pos_site_id
 _symmetry_equiv_pos_as_xyz
 1  'x, y, z'
loop_
 _atom_site_type_symbol
 _atom_site_label
 _atom_site_symmetry_multiplicity
 _atom_site_fract_x
 _atom_site_fract_y
 _atom_site_fract_z
 _atom_site_fract_occupancy
 B  B1  1  0.00000  0.00000  0.20200  1
 B  B2  1  0.96143  0.82290  0.50000  1
 B  B3  1  0.08664  0.41336  0.50000  1
 B  B4  1  0.67710  0.53857  0.50000  1
 B  B5  1  0.41336  0.91336  0.50000  1
 B  B6  1  0.53857  0.32290  0.50000  1
 B  B7  1  0.50000  0.50000  0.79800  1
 B  B8  1  0.58664  0.08664  0.50000  1
 B  B9  1  0.82290  0.03857  0.50000  1
 B  B10  1  0.32290  0.46143  0.50000  1
 B  B11  1  0.50000  0.50000  0.20200  1
 B  B12  1  0.00000  0.00000  0.79800  1
 B  B13  1  0.17710  0.96143  0.50000  1
 B  B14  1  0.03857  0.17710  0.50000  1
 B  B15  1  0.91336  0.58664  0.50000  1
 B  B16  1  0.46143  0.67710  0.50000  1
 Lu  Lu1  1  0.31992  0.18008  0.00000  1
 Lu  Lu2  1  0.18008  0.68008  0.00000  1
 Lu  Lu3  1  0.68008  0.81992  0.00000  1
 Lu  Lu4  1  0.81992  0.31992  0.00000  1
