CIF file written using JARVIS-Tools package.
data_BaCN2
_symmetry_space_group_name_H-M  'R-3m'
_cell_length_a       5.74589
_cell_length_b       5.74589
_cell_length_c       5.74589
_cell_angle_alpha    43.8593
_cell_angle_beta     43.8593
_cell_angle_gamma    43.8593

_symmetry_Int_Tables_number  166
_chemical_formula_structural  BaCN2
_chemical_formula_sum  BaCN2
_cell_volume  82.69685038763848
_cell_formula_units_Z  1
loop_
  _symmetry_equiv_pos_site_id
 _symmetry_equiv_pos_as_xyz
 1  'x, y, z'
loop_
 _atom_site_type_symbol
 _atom_site_label
 _atom_site_symmetry_multiplicity
 _atom_site_fract_x
 _atom_site_fract_y
 _atom_site_fract_z
 _atom_site_fract_occupancy
 Ba  Ba1  1  0.00000  0.00000  0.00000  1
 C  C1  1  0.50000  0.50000  0.50000  1
 N  N1  1  0.57963  0.57963  0.57963  1
 N  N2  1  0.42037  0.42037  0.42037  1
