CIF file written using JARVIS-Tools package.
data_S3N2O2
_symmetry_space_group_name_H-M  'C2/c'
_cell_length_a       4.47806
_cell_length_b       6.60611
_cell_length_c       8.40547
_cell_angle_alpha    98.0638
_cell_angle_beta     105.449
_cell_angle_gamma    90

_symmetry_Int_Tables_number  15
_chemical_formula_structural  S3N2O2
_chemical_formula_sum  S6N4O4
_cell_volume  237.1195317163715
_cell_formula_units_Z  2
loop_
  _symmetry_equiv_pos_site_id
 _symmetry_equiv_pos_as_xyz
 1  'x, y, z'
loop_
 _atom_site_type_symbol
 _atom_site_label
 _atom_site_symmetry_multiplicity
 _atom_site_fract_x
 _atom_site_fract_y
 _atom_site_fract_z
 _atom_site_fract_occupancy
 N  N1  1  0.80487  0.80317  0.85864  1
 N  N2  1  0.05376  0.30317  0.85864  1
 N  N3  1  0.19513  0.19683  0.14136  1
 N  N4  1  0.94624  0.69683  0.14136  1
 O  O1  1  0.65911  0.60333  0.35009  1
 O  O2  1  0.69098  0.10333  0.35009  1
 O  O3  1  0.30902  0.89667  0.64991  1
 O  O4  1  0.34089  0.39667  0.64991  1
 S  S1  1  0.35287  0.12858  0.31122  1
 S  S2  1  0.04165  0.37142  0.68878  1
 S  S3  1  0.64713  0.87142  0.68878  1
 S  S4  1  0.95835  0.62858  0.31122  1
 S  S5  1  0.36196  0.25000  -0.00000  1
 S  S6  1  0.63804  0.75000  0.00000  1
