CIF file written using JARVIS-Tools package.
data_MoWSe2S2
_symmetry_space_group_name_H-M  'P3m1'
_cell_length_a       3.25735
_cell_length_b       3.25738
_cell_length_c       33.7541
_cell_angle_alpha    89.9988
_cell_angle_beta     90.0152
_cell_angle_gamma    120

_symmetry_Int_Tables_number  156
_chemical_formula_structural  MoWSe2S2
_chemical_formula_sum  Mo2W2Se4S4
_cell_volume  310.16310562902936
_cell_formula_units_Z  2
loop_
  _symmetry_equiv_pos_site_id
 _symmetry_equiv_pos_as_xyz
 1  'x, y, z'
loop_
 _atom_site_type_symbol
 _atom_site_label
 _atom_site_symmetry_multiplicity
 _atom_site_fract_x
 _atom_site_fract_y
 _atom_site_fract_z
 _atom_site_fract_occupancy
 Mo  Mo1  1  0.33320  0.66654  0.09038  1
 Mo  Mo2  1  0.66672  0.33329  0.28051  1
 S  S1  1  0.33355  0.66675  0.32632  1
 S  S2  1  0.33354  0.66691  0.70743  1
 S  S3  1  0.33315  0.66647  0.23470  1
 S  S4  1  0.33316  0.66666  0.61541  1
 Se  Se1  1  0.66643  0.33324  0.04012  1
 Se  Se2  1  0.66660  0.33329  0.41997  1
 Se  Se3  1  0.66664  0.33313  0.14069  1
 Se  Se4  1  0.66694  0.33354  0.52119  1
 W  W1  1  0.33342  0.66671  0.47058  1
 W  W2  1  0.66666  0.33345  0.66144  1
