CIF file written using JARVIS-Tools package.
data_Cu
_symmetry_space_group_name_H-M  'Cmcm'
_cell_length_a       2.48073
_cell_length_b       2.52318
_cell_length_c       4.21428
_cell_angle_alpha    89.9986
_cell_angle_beta     107.117
_cell_angle_gamma    90

_symmetry_Int_Tables_number  63
_chemical_formula_structural  Cu
_chemical_formula_sum  Cu2
_cell_volume  25.210140252689012
_cell_formula_units_Z  2
loop_
  _symmetry_equiv_pos_site_id
 _symmetry_equiv_pos_as_xyz
 1  'x, y, z'
loop_
 _atom_site_type_symbol
 _atom_site_label
 _atom_site_symmetry_multiplicity
 _atom_site_fract_x
 _atom_site_fract_y
 _atom_site_fract_z
 _atom_site_fract_occupancy
 Cu  Cu1  1  0.86613  0.75001  0.73225  1
 Cu  Cu2  1  0.13387  0.24999  0.26775  1
