CIF file written using JARVIS-Tools package.
data_NaZr2MnF11
_symmetry_space_group_name_H-M  'C2/m'
_cell_length_a       5.75874
_cell_length_b       5.75875
_cell_length_c       7.87568
_cell_angle_alpha    69.2387
_cell_angle_beta     69.2387
_cell_angle_gamma    72.9361

_symmetry_Int_Tables_number  12
_chemical_formula_structural  NaZr2MnF11
_chemical_formula_sum  NaZr2MnF
_cell_volume  224.11975796963262
_cell_formula_units_Z  1
loop_
  _symmetry_equiv_pos_site_id
 _symmetry_equiv_pos_as_xyz
 1  'x, y, z'
loop_
 _atom_site_type_symbol
 _atom_site_label
 _atom_site_symmetry_multiplicity
 _atom_site_fract_x
 _atom_site_fract_y
 _atom_site_fract_z
 _atom_site_fract_occupancy
 F  F1  1  0.80643  0.22215  0.69267  1
 F  F2  1  0.77785  0.19357  0.30733  1
 F  F3  1  0.19357  0.77785  0.30733  1
 F  F4  1  0.22215  0.80643  0.69267  1
 F  F5  1  0.50000  0.50000  0.50000  1
 F  F6  1  0.32978  0.67022  0.00000  1
 F  F7  1  0.67022  0.32978  -0.00000  1
 F  F8  1  0.25269  0.25269  0.34772  1
 F  F9  1  0.74731  0.74731  0.65228  1
 F  F10  1  0.26512  0.26512  0.89282  1
 F  F11  1  0.73488  0.73488  0.10718  1
 Mn  Mn1  1  0.00000  -0.00000  0.50000  1
 Na  Na1  1  0.00000  0.00000  0.00000  1
 Zr  Zr1  1  0.50261  0.50261  0.76699  1
 Zr  Zr2  1  0.49739  0.49739  0.23301  1
