CIF file written using JARVIS-Tools package.
data_Sr2FeSO3
_symmetry_space_group_name_H-M  'P4/nmm'
_cell_length_a       3.97177
_cell_length_b       3.97177
_cell_length_c       13.4752
_cell_angle_alpha    90
_cell_angle_beta     90
_cell_angle_gamma    90

_symmetry_Int_Tables_number  129
_chemical_formula_structural  Sr2FeSO3
_chemical_formula_sum  Sr4Fe2S2O6
_cell_volume  212.57166239264666
_cell_formula_units_Z  2
loop_
  _symmetry_equiv_pos_site_id
 _symmetry_equiv_pos_as_xyz
 1  'x, y, z'
loop_
 _atom_site_type_symbol
 _atom_site_label
 _atom_site_symmetry_multiplicity
 _atom_site_fract_x
 _atom_site_fract_y
 _atom_site_fract_z
 _atom_site_fract_occupancy
 Fe  Fe1  1  0.50000  0.00000  0.72480  1
 Fe  Fe2  1  0.00000  0.50000  0.27520  1
 O  O1  1  0.50000  0.50000  0.72726  1
 O  O2  1  0.00000  0.00000  0.72726  1
 O  O3  1  0.00000  0.00000  0.27274  1
 O  O4  1  0.50000  0.50000  0.27274  1
 O  O5  1  0.50000  0.00000  0.58354  1
 O  O6  1  0.00000  0.50000  0.41646  1
 S  S1  1  0.50000  0.00000  0.90518  1
 S  S2  1  0.00000  0.50000  0.09482  1
 Sr  Sr1  1  0.00000  0.50000  0.86061  1
 Sr  Sr2  1  0.50000  0.00000  0.13939  1
 Sr  Sr3  1  0.00000  0.50000  0.60039  1
 Sr  Sr4  1  0.50000  0.00000  0.39961  1
