CIF file written using JARVIS-Tools package.
data_ZnCrF5
_symmetry_space_group_name_H-M  'C2/c'
_cell_length_a       5.20961
_cell_length_b       5.2096
_cell_length_c       7.42784
_cell_angle_alpha    98.1351
_cell_angle_beta     111.061
_cell_angle_gamma    106.611

_symmetry_Int_Tables_number  15
_chemical_formula_structural  ZnCrF5
_chemical_formula_sum  Zn2Cr2F0
_cell_volume  173.42062945352856
_cell_formula_units_Z  2
loop_
  _symmetry_equiv_pos_site_id
 _symmetry_equiv_pos_as_xyz
 1  'x, y, z'
loop_
 _atom_site_type_symbol
 _atom_site_label
 _atom_site_symmetry_multiplicity
 _atom_site_fract_x
 _atom_site_fract_y
 _atom_site_fract_z
 _atom_site_fract_occupancy
 Cr  Cr1  1  0.00000  0.00000  0.00000  1
 Cr  Cr2  1  0.50000  0.00000  0.50000  1
 F  F1  1  0.34688  0.09688  0.25000  1
 F  F2  1  0.65312  0.90312  0.75000  1
 F  F3  1  0.54873  0.69283  0.36244  1
 F  F4  1  0.83038  0.18629  0.13756  1
 F  F5  1  0.76996  0.66476  0.03177  1
 F  F6  1  0.13299  0.73819  0.46823  1
 F  F7  1  0.23004  0.33524  0.96823  1
 F  F8  1  0.86701  0.26181  0.53177  1
 F  F9  1  0.16962  0.81371  0.86244  1
 F  F10  1  0.45127  0.30717  0.63756  1
 Zn  Zn1  1  0.26946  0.51946  0.75000  1
 Zn  Zn2  1  0.73054  0.48054  0.25000  1
