CIF file written using JARVIS-Tools package.
data_CaNiO2
_symmetry_space_group_name_H-M  'C2/m'
_cell_length_a       2.99104
_cell_length_b       8.15911
_cell_length_c       8.675
_cell_angle_alpha    87.6461
_cell_angle_beta     89.9375
_cell_angle_gamma    79.5835

_symmetry_Int_Tables_number  12
_chemical_formula_structural  CaNiO2
_chemical_formula_sum  Ca4Ni4O8
_cell_volume  208.0372532260086
_cell_formula_units_Z  4
loop_
  _symmetry_equiv_pos_site_id
 _symmetry_equiv_pos_as_xyz
 1  'x, y, z'
loop_
 _atom_site_type_symbol
 _atom_site_label
 _atom_site_symmetry_multiplicity
 _atom_site_fract_x
 _atom_site_fract_y
 _atom_site_fract_z
 _atom_site_fract_occupancy
 Ca  Ca1  1  0.14072  0.20853  0.97845  1
 Ca  Ca2  1  0.83523  0.81969  0.04164  1
 Ca  Ca3  1  0.68841  0.11477  0.34363  1
 Ca  Ca4  1  0.28746  0.91343  0.67645  1
 Ni  Ni1  1  0.97011  0.54970  0.83086  1
 Ni  Ni2  1  0.62605  0.24025  0.66683  1
 Ni  Ni3  1  0.34977  0.78793  0.35326  1
 Ni  Ni4  1  0.00598  0.47852  0.18921  1
 O  O1  1  0.43063  0.63059  0.19498  1
 O  O2  1  0.82085  0.84666  0.48508  1
 O  O3  1  0.15502  0.18152  0.53501  1
 O  O4  1  0.54542  0.39762  0.82508  1
 O  O5  1  0.39636  0.69840  0.85661  1
 O  O6  1  0.72199  0.04536  0.84107  1
 O  O7  1  0.57969  0.32981  0.16348  1
 O  O8  1  0.25392  0.98284  0.17903  1
