CIF file written using JARVIS-Tools package.
data_FeSO4
_symmetry_space_group_name_H-M  'Cmcm'
_cell_length_a       4.82751
_cell_length_b       4.82751
_cell_length_c       6.26293
_cell_angle_alpha    90
_cell_angle_beta     90
_cell_angle_gamma    112.098

_symmetry_Int_Tables_number  63
_chemical_formula_structural  FeSO4
_chemical_formula_sum  Fe2S2O8
_cell_volume  135.23500512080065
_cell_formula_units_Z  2
loop_
  _symmetry_equiv_pos_site_id
 _symmetry_equiv_pos_as_xyz
 1  'x, y, z'
loop_
 _atom_site_type_symbol
 _atom_site_label
 _atom_site_symmetry_multiplicity
 _atom_site_fract_x
 _atom_site_fract_y
 _atom_site_fract_z
 _atom_site_fract_occupancy
 Fe  Fe1  1  0.00000  0.00000  0.50000  1
 Fe  Fe2  1  0.00000  0.00000  0.00000  1
 O  O1  1  0.23673  0.31119  0.75000  1
 O  O2  1  0.76327  0.68881  0.25000  1
 O  O3  1  0.31119  0.23673  0.25000  1
 O  O4  1  0.68881  0.76327  0.75000  1
 O  O5  1  0.25127  0.74873  0.94542  1
 O  O6  1  0.74873  0.25127  0.44542  1
 O  O7  1  0.74873  0.25127  0.05458  1
 O  O8  1  0.25127  0.74873  0.55458  1
 S  S1  1  0.64768  0.35232  0.25000  1
 S  S2  1  0.35232  0.64768  0.75000  1
