CIF file written using JARVIS-Tools package.
data_CeMg
_symmetry_space_group_name_H-M  'Pmmn'
_cell_length_a       3.11686
_cell_length_b       5.15116
_cell_length_c       6.21552
_cell_angle_alpha    90
_cell_angle_beta     90
_cell_angle_gamma    90

_symmetry_Int_Tables_number  59
_chemical_formula_structural  CeMg
_chemical_formula_sum  Ce2Mg2
_cell_volume  99.79290265317353
_cell_formula_units_Z  2
loop_
  _symmetry_equiv_pos_site_id
 _symmetry_equiv_pos_as_xyz
 1  'x, y, z'
loop_
 _atom_site_type_symbol
 _atom_site_label
 _atom_site_symmetry_multiplicity
 _atom_site_fract_x
 _atom_site_fract_y
 _atom_site_fract_z
 _atom_site_fract_occupancy
 Ce  Ce1  1  0.50000  0.00000  0.55288  1
 Ce  Ce2  1  0.00000  0.50000  0.44712  1
 Mg  Mg1  1  0.00000  0.00000  0.06901  1
 Mg  Mg2  1  0.50000  0.50000  0.93099  1
