CIF file written using JARVIS-Tools package.
data_SnF4
_symmetry_space_group_name_H-M  'C2/c'
_cell_length_a       5.59043
_cell_length_b       5.20483
_cell_length_c       7.45846
_cell_angle_alpha    132.55
_cell_angle_beta     112.04
_cell_angle_gamma    89.9955

_symmetry_Int_Tables_number  15
_chemical_formula_structural  SnF4
_chemical_formula_sum  Sn2F8
_cell_volume  137.5865316982602
_cell_formula_units_Z  2
loop_
  _symmetry_equiv_pos_site_id
 _symmetry_equiv_pos_as_xyz
 1  'x, y, z'
loop_
 _atom_site_type_symbol
 _atom_site_label
 _atom_site_symmetry_multiplicity
 _atom_site_fract_x
 _atom_site_fract_y
 _atom_site_fract_z
 _atom_site_fract_occupancy
 F  F1  1  0.95581  0.38484  0.21903  1
 F  F2  1  0.54111  0.11363  0.77842  1
 F  F3  1  0.21458  0.57411  0.73827  1
 F  F4  1  0.02164  0.07413  0.73830  1
 F  F5  1  0.28232  0.92447  0.25928  1
 F  F6  1  0.47537  0.42445  0.25926  1
 F  F7  1  0.76158  0.88476  0.21897  1
 F  F8  1  0.73532  0.61373  0.77849  1
 Sn  Sn1  1  0.94280  0.49925  -0.00126  1
 Sn  Sn2  1  0.55412  -0.00073  -0.00127  1
