CIF file written using JARVIS-Tools package.
data_MgFeSiO5
_symmetry_space_group_name_H-M  'P-1'
_cell_length_a       5.02517
_cell_length_b       5.37366
_cell_length_c       6.70693
_cell_angle_alpha    105.705
_cell_angle_beta     100.184
_cell_angle_gamma    109.358

_symmetry_Int_Tables_number  2
_chemical_formula_structural  MgFeSiO5
_chemical_formula_sum  Mg2Fe2Si2O0
_cell_volume  157.2501604168662
_cell_formula_units_Z  2
loop_
  _symmetry_equiv_pos_site_id
 _symmetry_equiv_pos_as_xyz
 1  'x, y, z'
loop_
 _atom_site_type_symbol
 _atom_site_label
 _atom_site_symmetry_multiplicity
 _atom_site_fract_x
 _atom_site_fract_y
 _atom_site_fract_z
 _atom_site_fract_occupancy
 Fe  Fe1  1  0.00425  0.49492  0.51456  1
 Fe  Fe2  1  0.00425  0.49492  0.01456  1
 Mg  Mg1  1  0.36385  0.21593  0.77917  1
 Mg  Mg2  1  0.64465  0.77392  0.24992  1
 O  O1  1  0.70306  0.63216  0.92091  1
 O  O2  1  0.99078  0.85086  0.66832  1
 O  O3  1  0.30543  0.35768  0.10819  1
 O  O4  1  0.01772  0.13898  0.36079  1
 O  O5  1  0.59780  0.29136  0.48715  1
 O  O6  1  0.30480  0.86565  0.13450  1
 O  O7  1  0.41069  0.69848  0.54196  1
 O  O8  1  0.70370  0.12419  0.89461  1
 O  O9  1  0.89849  0.54945  0.26392  1
 O  O10  1  0.11001  0.44039  0.76519  1
 Si  Si1  1  0.70008  0.81751  0.75785  1
 Si  Si2  1  0.30842  0.17233  0.27126  1
