CIF file written using JARVIS-Tools package.
data_NbNiTe2
_symmetry_space_group_name_H-M  'Pmna'
_cell_length_a       6.32877
_cell_length_b       7.36656
_cell_length_c       8.03146
_cell_angle_alpha    90
_cell_angle_beta     90
_cell_angle_gamma    90

_symmetry_Int_Tables_number  53
_chemical_formula_structural  NbNiTe2
_chemical_formula_sum  Nb4Ni4Te8
_cell_volume  374.4362901125948
_cell_formula_units_Z  4
loop_
  _symmetry_equiv_pos_site_id
 _symmetry_equiv_pos_as_xyz
 1  'x, y, z'
loop_
 _atom_site_type_symbol
 _atom_site_label
 _atom_site_symmetry_multiplicity
 _atom_site_fract_x
 _atom_site_fract_y
 _atom_site_fract_z
 _atom_site_fract_occupancy
 Nb  Nb1  1  0.75000  0.46261  0.95615  1
 Nb  Nb2  1  0.25000  0.46261  0.04385  1
 Nb  Nb3  1  0.25000  0.46261  0.45615  1
 Nb  Nb4  1  0.75000  0.46261  0.54385  1
 Ni  Ni1  1  0.10726  0.34370  0.75000  1
 Ni  Ni2  1  0.89274  0.34370  0.25000  1
 Ni  Ni3  1  0.39271  0.58152  0.75000  1
 Ni  Ni4  1  0.60729  0.58152  0.25000  1
 Te  Te1  1  0.99749  0.68594  0.75000  1
 Te  Te2  1  0.00251  0.68594  0.25000  1
 Te  Te3  1  0.00000  0.14394  0.00000  1
 Te  Te4  1  0.00000  0.14394  0.50000  1
 Te  Te5  1  0.50250  0.23929  0.75000  1
 Te  Te6  1  0.49750  0.23929  0.25000  1
 Te  Te7  1  0.50000  0.78128  0.00000  1
 Te  Te8  1  0.50000  0.78128  0.50000  1
