CIF file written using JARVIS-Tools package.
data_MgCl2
_symmetry_space_group_name_H-M  'R-3m'
_cell_length_a       6.18891
_cell_length_b       6.18892
_cell_length_c       6.18891
_cell_angle_alpha    34.2583
_cell_angle_beta     34.2582
_cell_angle_gamma    34.2583

_symmetry_Int_Tables_number  166
_chemical_formula_structural  MgCl2
_chemical_formula_sum  MgCl2
_cell_volume  66.98732290165566
_cell_formula_units_Z  1
loop_
  _symmetry_equiv_pos_site_id
 _symmetry_equiv_pos_as_xyz
 1  'x, y, z'
loop_
 _atom_site_type_symbol
 _atom_site_label
 _atom_site_symmetry_multiplicity
 _atom_site_fract_x
 _atom_site_fract_y
 _atom_site_fract_z
 _atom_site_fract_occupancy
 Cl  Cl1  1  0.25481  0.25481  0.25481  1
 Cl  Cl2  1  0.74519  0.74519  0.74519  1
 Mg  Mg1  1  0.00000  0.00000  0.00000  1
