CIF file written using JARVIS-Tools package.
data_ErNi3
_symmetry_space_group_name_H-M  'R-3m'
_cell_length_a       8.56559
_cell_length_b       8.56558
_cell_length_c       8.56559
_cell_angle_alpha    33.3771
_cell_angle_beta     33.3772
_cell_angle_gamma    33.3772

_symmetry_Int_Tables_number  166
_chemical_formula_structural  ErNi3
_chemical_formula_sum  Er3Ni9
_cell_volume  169.37318354790867
_cell_formula_units_Z  3
loop_
  _symmetry_equiv_pos_site_id
 _symmetry_equiv_pos_as_xyz
 1  'x, y, z'
loop_
 _atom_site_type_symbol
 _atom_site_label
 _atom_site_symmetry_multiplicity
 _atom_site_fract_x
 _atom_site_fract_y
 _atom_site_fract_z
 _atom_site_fract_occupancy
 Er  Er1  1  0.86126  0.86126  0.86126  1
 Er  Er2  1  0.13874  0.13874  0.13874  1
 Er  Er3  1  0.00000  0.00000  0.00000  1
 Ni  Ni1  1  0.41665  0.41665  0.91914  1
 Ni  Ni2  1  0.41665  0.91914  0.41665  1
 Ni  Ni3  1  0.91914  0.41665  0.41665  1
 Ni  Ni4  1  0.50000  0.50000  0.50000  1
 Ni  Ni5  1  0.33319  0.33319  0.33319  1
 Ni  Ni6  1  0.66681  0.66681  0.66681  1
 Ni  Ni7  1  0.58335  0.08086  0.58335  1
 Ni  Ni8  1  0.58335  0.58335  0.08086  1
 Ni  Ni9  1  0.08086  0.58335  0.58335  1
