CIF file written using JARVIS-Tools package.
data_VH
_symmetry_space_group_name_H-M  'Fm-3m'
_cell_length_a       2.78938
_cell_length_b       2.78938
_cell_length_c       2.78938
_cell_angle_alpha    60
_cell_angle_beta     60
_cell_angle_gamma    60

_symmetry_Int_Tables_number  225
_chemical_formula_structural  VH
_chemical_formula_sum  VH
_cell_volume  15.346362596679379
_cell_formula_units_Z  1
loop_
  _symmetry_equiv_pos_site_id
 _symmetry_equiv_pos_as_xyz
 1  'x, y, z'
loop_
 _atom_site_type_symbol
 _atom_site_label
 _atom_site_symmetry_multiplicity
 _atom_site_fract_x
 _atom_site_fract_y
 _atom_site_fract_z
 _atom_site_fract_occupancy
 H  H1  1  0.50000  0.50000  0.50000  1
 V  V1  1  0.00000  0.00000  0.00000  1
