CIF file written using JARVIS-Tools package.
data_URh2O6
_symmetry_space_group_name_H-M  'P4_2/mnm'
_cell_length_a       4.79315
_cell_length_b       4.79315
_cell_length_c       9.41884
_cell_angle_alpha    90
_cell_angle_beta     90
_cell_angle_gamma    90

_symmetry_Int_Tables_number  136
_chemical_formula_structural  URh2O6
_chemical_formula_sum  U2Rh4O2
_cell_volume  216.39110729682687
_cell_formula_units_Z  2
loop_
  _symmetry_equiv_pos_site_id
 _symmetry_equiv_pos_as_xyz
 1  'x, y, z'
loop_
 _atom_site_type_symbol
 _atom_site_label
 _atom_site_symmetry_multiplicity
 _atom_site_fract_x
 _atom_site_fract_y
 _atom_site_fract_z
 _atom_site_fract_occupancy
 O  O1  1  0.18667  0.81333  0.50000  1
 O  O2  1  0.70240  0.70240  0.66779  1
 O  O3  1  0.29760  0.29760  0.66779  1
 O  O4  1  0.29760  0.29760  0.33221  1
 O  O5  1  0.20240  0.79760  0.16779  1
 O  O6  1  0.70240  0.70240  0.33221  1
 O  O7  1  0.79760  0.20240  0.83221  1
 O  O8  1  0.31333  0.31333  0.00000  1
 O  O9  1  0.20240  0.79760  0.83221  1
 O  O10  1  0.81333  0.18667  0.50000  1
 O  O11  1  0.68667  0.68667  0.00000  1
 O  O12  1  0.79760  0.20240  0.16779  1
 Rh  Rh1  1  0.50000  0.50000  0.17009  1
 Rh  Rh2  1  0.00000  0.00000  0.67009  1
 Rh  Rh3  1  0.50000  0.50000  0.82991  1
 Rh  Rh4  1  0.00000  0.00000  0.32991  1
 U  U1  1  0.50000  0.50000  0.50000  1
 U  U2  1  0.00000  0.00000  0.00000  1
