CIF file written using JARVIS-Tools package.
data_Na2PtSe2
_symmetry_space_group_name_H-M  'Cmc2_1'
_cell_length_a       3.73755
_cell_length_b       5.68143
_cell_length_c       11.2937
_cell_angle_alpha    90
_cell_angle_beta     90
_cell_angle_gamma    109.204

_symmetry_Int_Tables_number  36
_chemical_formula_structural  Na2PtSe2
_chemical_formula_sum  Na4Pt2Se4
_cell_volume  226.4740373187949
_cell_formula_units_Z  2
loop_
  _symmetry_equiv_pos_site_id
 _symmetry_equiv_pos_as_xyz
 1  'x, y, z'
loop_
 _atom_site_type_symbol
 _atom_site_label
 _atom_site_symmetry_multiplicity
 _atom_site_fract_x
 _atom_site_fract_y
 _atom_site_fract_z
 _atom_site_fract_occupancy
 Na  Na1  1  0.43834  0.87667  0.86821  1
 Na  Na2  1  0.56166  0.12333  0.36821  1
 Na  Na3  1  0.82709  0.65419  0.59810  1
 Na  Na4  1  0.17291  0.34581  0.09810  1
 Pt  Pt1  1  0.13807  0.27614  0.75194  1
 Pt  Pt2  1  0.86193  0.72386  0.25194  1
 Se  Se1  1  0.55215  0.10431  0.62866  1
 Se  Se2  1  0.44785  0.89569  0.12866  1
 Se  Se3  1  0.72359  0.44717  0.87538  1
 Se  Se4  1  0.27641  0.55283  0.37538  1
