CIF file written using JARVIS-Tools package.
data_PrCoC2
_symmetry_space_group_name_H-M  'Cc'
_cell_length_a       3.83037
_cell_length_b       3.83037
_cell_length_c       7.43929
_cell_angle_alpha    98.5436
_cell_angle_beta     98.5437
_cell_angle_gamma    90.0355

_symmetry_Int_Tables_number  9
_chemical_formula_structural  PrCoC2
_chemical_formula_sum  Pr2Co2C4
_cell_volume  106.70937197121533
_cell_formula_units_Z  2
loop_
  _symmetry_equiv_pos_site_id
 _symmetry_equiv_pos_as_xyz
 1  'x, y, z'
loop_
 _atom_site_type_symbol
 _atom_site_label
 _atom_site_symmetry_multiplicity
 _atom_site_fract_x
 _atom_site_fract_y
 _atom_site_fract_z
 _atom_site_fract_occupancy
 C  C1  1  0.84953  0.49078  0.72440  1
 C  C2  1  0.44206  0.59511  0.07282  1
 C  C3  1  0.59511  0.44206  0.57282  1
 C  C4  1  0.49078  0.84953  0.22440  1
 Co  Co1  1  0.37017  0.51488  0.80461  1
 Co  Co2  1  0.51488  0.37017  0.30461  1
 Pr  Pr1  1  0.07592  0.92553  0.49717  1
 Pr  Pr2  1  0.92553  0.07592  0.99717  1
