CIF file written using JARVIS-Tools package.
data_BaAs2Rh2
_symmetry_space_group_name_H-M  'I4/mmm'
_cell_length_a       4.10308
_cell_length_b       4.10308
_cell_length_c       7.08137
_cell_angle_alpha    106.841
_cell_angle_beta     106.841
_cell_angle_gamma    90.0001

_symmetry_Int_Tables_number  139
_chemical_formula_structural  BaAs2Rh2
_chemical_formula_sum  BaAs2Rh2
_cell_volume  108.75118440462975
_cell_formula_units_Z  1
loop_
  _symmetry_equiv_pos_site_id
 _symmetry_equiv_pos_as_xyz
 1  'x, y, z'
loop_
 _atom_site_type_symbol
 _atom_site_label
 _atom_site_symmetry_multiplicity
 _atom_site_fract_x
 _atom_site_fract_y
 _atom_site_fract_z
 _atom_site_fract_occupancy
 As  As1  1  0.35700  0.35700  0.71400  1
 As  As2  1  0.64300  0.64300  0.28600  1
 Ba  Ba1  1  0.00000  0.00000  0.00000  1
 Rh  Rh1  1  0.25000  0.75000  0.50000  1
 Rh  Rh2  1  0.75000  0.25000  0.50000  1
