CIF file written using JARVIS-Tools package.
data_ZrSO
_symmetry_space_group_name_H-M  'P2_13'
_cell_length_a       5.73945
_cell_length_b       5.73945
_cell_length_c       5.73945
_cell_angle_alpha    90
_cell_angle_beta     90
_cell_angle_gamma    90

_symmetry_Int_Tables_number  198
_chemical_formula_structural  ZrSO
_chemical_formula_sum  Zr4S4O4
_cell_volume  189.06469803343916
_cell_formula_units_Z  4
loop_
  _symmetry_equiv_pos_site_id
 _symmetry_equiv_pos_as_xyz
 1  'x, y, z'
loop_
 _atom_site_type_symbol
 _atom_site_label
 _atom_site_symmetry_multiplicity
 _atom_site_fract_x
 _atom_site_fract_y
 _atom_site_fract_z
 _atom_site_fract_occupancy
 O  O1  1  0.15554  0.84446  0.34446  1
 O  O2  1  0.84446  0.34446  0.15554  1
 O  O3  1  0.65554  0.65554  0.65554  1
 O  O4  1  0.34446  0.15554  0.84446  1
 S  S1  1  0.16747  0.66747  0.83253  1
 S  S2  1  0.83253  0.16747  0.66747  1
 S  S3  1  0.66747  0.83253  0.16747  1
 S  S4  1  0.33253  0.33253  0.33253  1
 Zr  Zr1  1  0.92948  0.57052  0.42948  1
 Zr  Zr2  1  0.57052  0.42948  0.92948  1
 Zr  Zr3  1  0.42948  0.92948  0.57052  1
 Zr  Zr4  1  0.07052  0.07052  0.07052  1
