CIF file written using JARVIS-Tools package.
data_FeO2
_symmetry_space_group_name_H-M  'Fd-3m'
_cell_length_a       5.6135
_cell_length_b       5.61346
_cell_length_c       5.61451
_cell_angle_alpha    119.998
_cell_angle_beta     119.997
_cell_angle_gamma    89.994

_symmetry_Int_Tables_number  227
_chemical_formula_structural  FeO2
_chemical_formula_sum  Fe4O8
_cell_volume  125.1175212961156
_cell_formula_units_Z  4
loop_
  _symmetry_equiv_pos_site_id
 _symmetry_equiv_pos_as_xyz
 1  'x, y, z'
loop_
 _atom_site_type_symbol
 _atom_site_label
 _atom_site_symmetry_multiplicity
 _atom_site_fract_x
 _atom_site_fract_y
 _atom_site_fract_z
 _atom_site_fract_occupancy
 Fe  Fe1  1  0.50000  -0.00000  0.50000  1
 Fe  Fe2  1  0.50000  0.00000  0.00000  1
 Fe  Fe3  1  0.50000  0.50000  0.00000  1
 Fe  Fe4  1  -0.00000  -0.00000  0.50000  1
 O  O1  1  0.26289  0.78851  0.52574  1
 O  O2  1  0.28851  0.76290  0.02576  1
 O  O3  1  0.73723  0.76286  0.02574  1
 O  O4  1  0.71149  0.23710  0.97424  1
 O  O5  1  0.73715  0.76276  0.47425  1
 O  O6  1  0.26285  0.23724  0.52575  1
 O  O7  1  0.26277  0.23714  0.97426  1
 O  O8  1  0.73711  0.21149  0.47426  1
