CIF file written using JARVIS-Tools package.
data_Te2W2SeS
_symmetry_space_group_name_H-M  'P3m1'
_cell_length_a       3.40014
_cell_length_b       3.40014
_cell_length_c       38.7695
_cell_angle_alpha    90.0003
_cell_angle_beta     90
_cell_angle_gamma    120

_symmetry_Int_Tables_number  156
_chemical_formula_structural  Te2W2SeS
_chemical_formula_sum  Te4W4Se2S2
_cell_volume  388.16257979665573
_cell_formula_units_Z  2
loop_
  _symmetry_equiv_pos_site_id
 _symmetry_equiv_pos_as_xyz
 1  'x, y, z'
loop_
 _atom_site_type_symbol
 _atom_site_label
 _atom_site_symmetry_multiplicity
 _atom_site_fract_x
 _atom_site_fract_y
 _atom_site_fract_z
 _atom_site_fract_occupancy
 S  S1  1  0.66665  0.33329  0.05510  1
 S  S2  1  0.66665  0.33329  0.13294  1
 Se  Se1  1  0.33335  0.66671  0.32461  1
 Se  Se2  1  0.33335  0.66670  0.23895  1
 Te  Te1  1  0.33336  0.66672  0.70614  1
 Te  Te2  1  0.66664  0.33328  0.42081  1
 Te  Te3  1  0.66665  0.33329  0.51823  1
 Te  Te4  1  0.33335  0.66671  0.60899  1
 W  W1  1  0.33331  0.66662  0.09397  1
 W  W2  1  0.33331  0.66661  0.46961  1
 W  W3  1  0.66669  0.33338  0.28180  1
 W  W4  1  0.66669  0.33339  0.65759  1
