CIF file written using JARVIS-Tools package.
data_Al2O3
_symmetry_space_group_name_H-M  'R-3'
_cell_length_a       4.84906
_cell_length_b       5.29795
_cell_length_c       4.84906
_cell_angle_alpha    117.235
_cell_angle_beta     60
_cell_angle_gamma    117.235

_symmetry_Int_Tables_number  148
_chemical_formula_structural  Al2O3
_chemical_formula_sum  Al4O6
_cell_volume  91.59013672583552
_cell_formula_units_Z  2
loop_
  _symmetry_equiv_pos_site_id
 _symmetry_equiv_pos_as_xyz
 1  'x, y, z'
loop_
 _atom_site_type_symbol
 _atom_site_label
 _atom_site_symmetry_multiplicity
 _atom_site_fract_x
 _atom_site_fract_y
 _atom_site_fract_z
 _atom_site_fract_occupancy
 Al  Al1  1  0.00000  0.00000  0.00000  1
 Al  Al2  1  0.50000  0.50000  0.50000  1
 Al  Al3  1  0.30563  0.91689  0.30563  1
 Al  Al4  1  0.69437  0.08311  0.69437  1
 O  O1  1  0.27947  0.77534  0.60409  1
 O  O2  1  0.39591  0.22466  0.10822  1
 O  O3  1  0.10822  0.22466  0.72053  1
 O  O4  1  0.89178  0.77534  0.27947  1
 O  O5  1  0.60409  0.77534  0.89178  1
 O  O6  1  0.72053  0.22466  0.39591  1
