CIF file written using JARVIS-Tools package.
data_AlAsO4
_symmetry_space_group_name_H-M  'P3_121'
_cell_length_a       5.03778
_cell_length_b       5.03778
_cell_length_c       11.3689
_cell_angle_alpha    90
_cell_angle_beta     90
_cell_angle_gamma    120

_symmetry_Int_Tables_number  152
_chemical_formula_structural  AlAsO4
_chemical_formula_sum  Al3As3O2
_cell_volume  249.87876951107935
_cell_formula_units_Z  3
loop_
  _symmetry_equiv_pos_site_id
 _symmetry_equiv_pos_as_xyz
 1  'x, y, z'
loop_
 _atom_site_type_symbol
 _atom_site_label
 _atom_site_symmetry_multiplicity
 _atom_site_fract_x
 _atom_site_fract_y
 _atom_site_fract_z
 _atom_site_fract_occupancy
 Al  Al1  1  0.45345  0.00000  0.83333  1
 Al  Al2  1  0.54655  0.54655  0.50000  1
 Al  Al3  1  0.00000  0.45345  0.16667  1
 As  As1  1  0.45086  0.00000  0.33333  1
 As  As2  1  0.54914  0.54914  0.00000  1
 As  As3  1  0.00000  0.45086  0.66667  1
 O  O1  1  0.89412  0.60045  0.04490  1
 O  O2  1  0.70633  0.10588  0.71156  1
 O  O3  1  0.69600  0.09979  0.21661  1
 O  O4  1  0.29367  0.39955  0.62177  1
 O  O5  1  0.39955  0.29367  0.37823  1
 O  O6  1  0.59622  0.90021  0.45006  1
 O  O7  1  0.09979  0.69600  0.78339  1
 O  O8  1  0.60045  0.89412  0.95510  1
 O  O9  1  0.30400  0.40378  0.11673  1
 O  O10  1  0.40378  0.30400  0.88327  1
 O  O11  1  0.10588  0.70633  0.28844  1
 O  O12  1  0.90021  0.59622  0.54994  1
