CIF file written using JARVIS-Tools package.
data_KPO3
_symmetry_space_group_name_H-M  'Pnma'
_cell_length_a       4.47645
_cell_length_b       5.82221
_cell_length_c       12.3185
_cell_angle_alpha    90
_cell_angle_beta     90
_cell_angle_gamma    90

_symmetry_Int_Tables_number  62
_chemical_formula_structural  KPO3
_chemical_formula_sum  K4P4O2
_cell_volume  321.0539996698924
_cell_formula_units_Z  4
loop_
  _symmetry_equiv_pos_site_id
 _symmetry_equiv_pos_as_xyz
 1  'x, y, z'
loop_
 _atom_site_type_symbol
 _atom_site_label
 _atom_site_symmetry_multiplicity
 _atom_site_fract_x
 _atom_site_fract_y
 _atom_site_fract_z
 _atom_site_fract_occupancy
 K  K1  1  0.21993  0.75000  0.59488  1
 K  K2  1  0.71993  0.75000  0.90512  1
 K  K3  1  0.78007  0.25000  0.40512  1
 K  K4  1  0.28007  0.25000  0.09488  1
 O  O1  1  0.31855  0.25000  0.70841  1
 O  O2  1  0.22878  0.02776  0.88553  1
 O  O3  1  0.68145  0.75000  0.29159  1
 O  O4  1  0.18145  0.75000  0.20841  1
 O  O5  1  0.81855  0.25000  0.79159  1
 O  O6  1  0.77122  0.97224  0.11447  1
 O  O7  1  0.72878  0.02776  0.61447  1
 O  O8  1  0.77122  0.52776  0.11447  1
 O  O9  1  0.27122  0.52776  0.38553  1
 O  O10  1  0.27122  0.97224  0.38553  1
 O  O11  1  0.22878  0.47224  0.88553  1
 O  O12  1  0.72878  0.47224  0.61447  1
 P  P1  1  0.83238  0.75000  0.17121  1
 P  P2  1  0.33238  0.75000  0.32879  1
 P  P3  1  0.16762  0.25000  0.82879  1
 P  P4  1  0.66762  0.25000  0.67121  1
