CIF file written using JARVIS-Tools package.
data_RbSm2CuSe4
_symmetry_space_group_name_H-M  'Cmcm'
_cell_length_a       4.18928
_cell_length_b       7.49528
_cell_length_c       14.5265
_cell_angle_alpha    90
_cell_angle_beta     90
_cell_angle_gamma    106.228

_symmetry_Int_Tables_number  63
_chemical_formula_structural  RbSm2CuSe4
_chemical_formula_sum  Rb2Sm4Cu2Se8
_cell_volume  437.9552478500109
_cell_formula_units_Z  2
loop_
  _symmetry_equiv_pos_site_id
 _symmetry_equiv_pos_as_xyz
 1  'x, y, z'
loop_
 _atom_site_type_symbol
 _atom_site_label
 _atom_site_symmetry_multiplicity
 _atom_site_fract_x
 _atom_site_fract_y
 _atom_site_fract_z
 _atom_site_fract_occupancy
 Cu  Cu1  1  0.83870  0.67741  0.75000  1
 Cu  Cu2  1  0.16130  0.32259  0.25000  1
 Rb  Rb1  1  0.10991  0.21982  0.75000  1
 Rb  Rb2  1  0.89009  0.78018  0.25000  1
 Se  Se1  1  0.56804  0.13609  0.25000  1
 Se  Se2  1  0.43196  0.86391  0.75000  1
 Se  Se3  1  0.26403  0.52806  0.11225  1
 Se  Se4  1  0.73597  0.47194  0.88775  1
 Se  Se5  1  0.00000  0.00000  0.50000  1
 Se  Se6  1  0.00000  0.00000  0.00000  1
 Se  Se7  1  0.26403  0.52806  0.38775  1
 Se  Se8  1  0.73597  0.47194  0.61225  1
 Sm  Sm1  1  0.63437  0.26873  0.06335  1
 Sm  Sm2  1  0.36563  0.73127  0.93665  1
 Sm  Sm3  1  0.63437  0.26873  0.43665  1
 Sm  Sm4  1  0.36563  0.73127  0.56335  1
