CIF file written using JARVIS-Tools package.
data_LiFeF4
_symmetry_space_group_name_H-M  'Cmcm'
_cell_length_a       5.15903
_cell_length_b       5.15903
_cell_length_c       6.04793
_cell_angle_alpha    90
_cell_angle_beta     90
_cell_angle_gamma    66.9856

_symmetry_Int_Tables_number  63
_chemical_formula_structural  LiFeF4
_chemical_formula_sum  Li2Fe2F8
_cell_volume  148.15770370278688
_cell_formula_units_Z  2
loop_
  _symmetry_equiv_pos_site_id
 _symmetry_equiv_pos_as_xyz
 1  'x, y, z'
loop_
 _atom_site_type_symbol
 _atom_site_label
 _atom_site_symmetry_multiplicity
 _atom_site_fract_x
 _atom_site_fract_y
 _atom_site_fract_z
 _atom_site_fract_occupancy
 F  F1  1  0.25642  0.76676  0.75000  1
 F  F2  1  0.23324  0.74358  0.25000  1
 F  F3  1  0.77062  0.77062  0.50678  1
 F  F4  1  0.22938  0.22938  0.00678  1
 F  F5  1  0.22938  0.22938  0.49322  1
 F  F6  1  0.77062  0.77062  0.99322  1
 F  F7  1  0.74358  0.23324  0.25000  1
 F  F8  1  0.76676  0.25642  0.75000  1
 Fe  Fe1  1  0.64634  0.64634  0.75000  1
 Fe  Fe2  1  0.35366  0.35366  0.25000  1
 Li  Li1  1  0.00000  0.00000  0.00000  1
 Li  Li2  1  0.00000  0.00000  0.50000  1
