CIF file written using JARVIS-Tools package.
data_Hf2Al3
_symmetry_space_group_name_H-M  'Fdd2'
_cell_length_a       5.52012
_cell_length_b       5.52012
_cell_length_c       7.44726
_cell_angle_alpha    100.711
_cell_angle_beta     100.711
_cell_angle_gamma    119.902

_symmetry_Int_Tables_number  43
_chemical_formula_structural  Hf2Al3
_chemical_formula_sum  Hf4Al6
_cell_volume  182.66994031637628
_cell_formula_units_Z  2
loop_
  _symmetry_equiv_pos_site_id
 _symmetry_equiv_pos_as_xyz
 1  'x, y, z'
loop_
 _atom_site_type_symbol
 _atom_site_label
 _atom_site_symmetry_multiplicity
 _atom_site_fract_x
 _atom_site_fract_y
 _atom_site_fract_z
 _atom_site_fract_occupancy
 Al  Al1  1  0.62708  0.62708  0.00000  1
 Al  Al2  1  0.87708  0.37708  0.50000  1
 Al  Al3  1  0.54273  0.17706  0.72799  1
 Al  Al4  1  0.44907  0.81474  0.27201  1
 Al  Al5  1  0.42706  0.29273  0.22799  1
 Al  Al6  1  0.06474  0.19907  0.77201  1
 Hf  Hf1  1  0.13806  0.76700  0.89394  1
 Hf  Hf2  1  0.87306  0.24413  0.10606  1
 Hf  Hf3  1  0.01700  0.88806  0.39394  1
 Hf  Hf4  1  0.49413  0.62306  0.60606  1
