CIF file written using JARVIS-Tools package.
data_BaPr2MnS5
_symmetry_space_group_name_H-M  'I4/mcm'
_cell_length_a       7.94184
_cell_length_b       7.94185
_cell_length_c       8.86505
_cell_angle_alpha    116.611
_cell_angle_beta     116.611
_cell_angle_gamma    90

_symmetry_Int_Tables_number  140
_chemical_formula_structural  BaPr2MnS5
_chemical_formula_sum  Ba2Pr4Mn2S0
_cell_volume  432.64820539943014
_cell_formula_units_Z  2
loop_
  _symmetry_equiv_pos_site_id
 _symmetry_equiv_pos_as_xyz
 1  'x, y, z'
loop_
 _atom_site_type_symbol
 _atom_site_label
 _atom_site_symmetry_multiplicity
 _atom_site_fract_x
 _atom_site_fract_y
 _atom_site_fract_z
 _atom_site_fract_occupancy
 Ba  Ba1  1  0.25000  0.25000  0.50000  1
 Ba  Ba2  1  0.75000  0.75000  0.50000  1
 Mn  Mn1  1  0.25000  0.75000  0.50000  1
 Mn  Mn2  1  0.75000  0.25000  0.50000  1
 Pr  Pr1  1  0.33910  0.16090  0.00000  1
 Pr  Pr2  1  0.16090  0.66090  -0.00000  1
 Pr  Pr3  1  0.66090  0.83910  -0.00000  1
 Pr  Pr4  1  0.83910  0.33910  0.00000  1
 S  S1  1  0.21380  0.71380  0.73005  1
 S  S2  1  0.51626  0.01626  0.73005  1
 S  S3  1  0.71380  0.51626  0.73005  1
 S  S4  1  0.01626  0.21380  0.73005  1
 S  S5  1  0.50000  0.50000  0.00000  1
 S  S6  1  0.98374  0.78620  0.26995  1
 S  S7  1  0.48374  0.98374  0.26995  1
 S  S8  1  0.78620  0.28620  0.26995  1
 S  S9  1  0.28620  0.48374  0.26995  1
 S  S10  1  0.00000  0.00000  0.00000  1
