CIF file written using JARVIS-Tools package.
data_TbVO4
_symmetry_space_group_name_H-M  'I4_1/amd'
_cell_length_a       5.99438
_cell_length_b       5.99437
_cell_length_c       5.99437
_cell_angle_alpha    106.266
_cell_angle_beta     106.266
_cell_angle_gamma    116.093

_symmetry_Int_Tables_number  141
_chemical_formula_structural  TbVO4
_chemical_formula_sum  Tb2V2O8
_cell_volume  164.12999488948657
_cell_formula_units_Z  2
loop_
  _symmetry_equiv_pos_site_id
 _symmetry_equiv_pos_as_xyz
 1  'x, y, z'
loop_
 _atom_site_type_symbol
 _atom_site_label
 _atom_site_symmetry_multiplicity
 _atom_site_fract_x
 _atom_site_fract_y
 _atom_site_fract_z
 _atom_site_fract_occupancy
 O  O1  1  0.79929  0.73385  0.43456  1
 O  O2  1  0.36473  0.79929  0.56544  1
 O  O3  1  0.73385  0.79929  0.93456  1
 O  O4  1  0.79929  0.36473  0.06544  1
 O  O5  1  0.63527  0.20071  0.43456  1
 O  O6  1  0.20071  0.26615  0.56544  1
 O  O7  1  0.20071  0.63527  0.93456  1
 O  O8  1  0.26615  0.20071  0.06544  1
 Tb  Tb1  1  0.12500  0.87500  0.25000  1
 Tb  Tb2  1  0.87500  0.12500  0.75000  1
 V  V1  1  0.37500  0.62500  0.75000  1
 V  V2  1  0.62500  0.37500  0.25000  1
