CIF file written using JARVIS-Tools package.
data_NaMgF3
_symmetry_space_group_name_H-M  'Cmcm'
_cell_length_a       3.01197
_cell_length_b       5.23935
_cell_length_c       7.38221
_cell_angle_alpha    90
_cell_angle_beta     90
_cell_angle_gamma    106.705

_symmetry_Int_Tables_number  63
_chemical_formula_structural  NaMgF3
_chemical_formula_sum  Na2Mg2F6
_cell_volume  111.58052950883659
_cell_formula_units_Z  2
loop_
  _symmetry_equiv_pos_site_id
 _symmetry_equiv_pos_as_xyz
 1  'x, y, z'
loop_
 _atom_site_type_symbol
 _atom_site_label
 _atom_site_symmetry_multiplicity
 _atom_site_fract_x
 _atom_site_fract_y
 _atom_site_fract_z
 _atom_site_fract_occupancy
 F  F1  1  0.37267  0.74533  0.70113  1
 F  F2  1  0.62733  0.25467  0.20113  1
 F  F3  1  0.37267  0.74534  0.31708  1
 F  F4  1  0.62733  0.25466  0.81708  1
 F  F5  1  0.92815  0.85631  0.00910  1
 F  F6  1  0.07185  0.14369  0.50910  1
 Mg  Mg1  1  1.00000  1.00000  0.75911  1
 Mg  Mg2  1  0.00000  0.00000  0.25911  1
 Na  Na1  1  0.25578  0.51156  0.00908  1
 Na  Na2  1  0.74422  0.48844  0.50908  1
