CIF file written using JARVIS-Tools package.
data_RbGeBr3
_symmetry_space_group_name_H-M  'Pna2_1'
_cell_length_a       7.47795
_cell_length_b       8.10749
_cell_length_c       11.1375
_cell_angle_alpha    90
_cell_angle_beta     90
_cell_angle_gamma    90

_symmetry_Int_Tables_number  33
_chemical_formula_structural  RbGeBr3
_chemical_formula_sum  Rb4Ge4Br2
_cell_volume  675.2357838865017
_cell_formula_units_Z  4
loop_
  _symmetry_equiv_pos_site_id
 _symmetry_equiv_pos_as_xyz
 1  'x, y, z'
loop_
 _atom_site_type_symbol
 _atom_site_label
 _atom_site_symmetry_multiplicity
 _atom_site_fract_x
 _atom_site_fract_y
 _atom_site_fract_z
 _atom_site_fract_occupancy
 Br  Br1  1  0.92164  0.00237  0.24557  1
 Br  Br2  1  0.32196  0.79628  0.03859  1
 Br  Br3  1  0.07836  -0.00237  0.74557  1
 Br  Br4  1  0.82196  0.70372  0.53859  1
 Br  Br5  1  0.30785  0.81307  0.46484  1
 Br  Br6  1  0.17804  0.29628  0.03859  1
 Br  Br7  1  0.80785  0.68693  0.96484  1
 Br  Br8  1  0.42164  0.49763  0.74557  1
 Br  Br9  1  0.69215  0.18693  0.96484  1
 Br  Br10  1  0.67804  0.20372  0.53859  1
 Br  Br11  1  0.57836  0.50237  0.24557  1
 Br  Br12  1  0.19215  0.31307  0.46484  1
 Ge  Ge1  1  0.98480  0.02774  0.01659  1
 Ge  Ge2  1  0.01520  0.97226  0.51659  1
 Ge  Ge3  1  0.51520  0.52774  0.01659  1
 Ge  Ge4  1  0.48480  0.47226  0.51659  1
 Rb  Rb1  1  0.03354  0.58368  0.24962  1
 Rb  Rb2  1  0.53354  0.91632  0.74962  1
 Rb  Rb3  1  0.46646  0.08368  0.24962  1
 Rb  Rb4  1  0.96646  0.41632  0.74962  1
