CIF file written using JARVIS-Tools package.
data_RbBi
_symmetry_space_group_name_H-M  'P4/mmm'
_cell_length_a       3.32957
_cell_length_b       6.96656
_cell_length_c       6.96654
_cell_angle_alpha    90
_cell_angle_beta     90
_cell_angle_gamma    90

_symmetry_Int_Tables_number  123
_chemical_formula_structural  RbBi
_chemical_formula_sum  Rb2Bi2
_cell_volume  161.5933514242413
_cell_formula_units_Z  2
loop_
  _symmetry_equiv_pos_site_id
 _symmetry_equiv_pos_as_xyz
 1  'x, y, z'
loop_
 _atom_site_type_symbol
 _atom_site_label
 _atom_site_symmetry_multiplicity
 _atom_site_fract_x
 _atom_site_fract_y
 _atom_site_fract_z
 _atom_site_fract_occupancy
 Bi  Bi1  1  0.99976  0.50000  0.50000  1
 Bi  Bi2  1  0.00024  0.00000  0.00000  1
 Rb  Rb1  1  0.50022  0.00000  0.50000  1
 Rb  Rb2  1  0.49978  0.50000  0.00000  1
