CIF file written using JARVIS-Tools package.
data_SnPS3
_symmetry_space_group_name_H-M  'Pc'
_cell_length_a       6.62619
_cell_length_b       7.50843
_cell_length_c       11.3853
_cell_angle_alpha    90
_cell_angle_beta     124.111
_cell_angle_gamma    90

_symmetry_Int_Tables_number  7
_chemical_formula_structural  SnPS3
_chemical_formula_sum  Sn4P4S2
_cell_volume  468.98763039180795
_cell_formula_units_Z  4
loop_
  _symmetry_equiv_pos_site_id
 _symmetry_equiv_pos_as_xyz
 1  'x, y, z'
loop_
 _atom_site_type_symbol
 _atom_site_label
 _atom_site_symmetry_multiplicity
 _atom_site_fract_x
 _atom_site_fract_y
 _atom_site_fract_z
 _atom_site_fract_occupancy
 P  P1  1  0.87008  0.64346  0.68320  1
 P  P2  1  0.87008  0.35654  0.18320  1
 P  P3  1  0.12958  0.86345  0.81671  1
 P  P4  1  0.12958  0.13655  0.31671  1
 S  S1  1  0.90096  0.94554  0.30841  1
 S  S2  1  0.71779  0.43883  0.28925  1
 S  S3  1  0.63094  0.25577  0.98617  1
 S  S4  1  0.09233  0.55381  0.19486  1
 S  S5  1  0.09233  0.44619  0.69486  1
 S  S6  1  0.71779  0.56117  0.78925  1
 S  S7  1  0.36543  0.75088  0.01066  1
 S  S8  1  0.63094  0.74423  0.48617  1
 S  S9  1  0.29397  0.94866  0.71999  1
 S  S10  1  0.36543  0.24912  0.51066  1
 S  S11  1  0.90096  0.05446  0.80841  1
 S  S12  1  0.29397  0.05134  0.21999  1
 Sn  Sn1  1  0.20043  0.62073  0.47137  1
 Sn  Sn2  1  0.20043  0.37927  0.97137  1
 Sn  Sn3  1  0.75339  0.86786  0.96609  1
 Sn  Sn4  1  0.75339  0.13214  0.46609  1
