CIF file written using JARVIS-Tools package.
data_Ag3SI
_symmetry_space_group_name_H-M  'P2_1'
_cell_length_a       4.76973
_cell_length_b       7.05431
_cell_length_c       7.04574
_cell_angle_alpha    90
_cell_angle_beta     86.8196
_cell_angle_gamma    90

_symmetry_Int_Tables_number  4
_chemical_formula_structural  Ag3SI
_chemical_formula_sum  Ag6S2I2
_cell_volume  236.7040290880362
_cell_formula_units_Z  2
loop_
  _symmetry_equiv_pos_site_id
 _symmetry_equiv_pos_as_xyz
 1  'x, y, z'
loop_
 _atom_site_type_symbol
 _atom_site_label
 _atom_site_symmetry_multiplicity
 _atom_site_fract_x
 _atom_site_fract_y
 _atom_site_fract_z
 _atom_site_fract_occupancy
 Ag  Ag1  1  0.44660  0.74841  0.51158  1
 Ag  Ag2  1  0.57306  0.70547  0.91566  1
 Ag  Ag3  1  0.42694  0.20547  0.08434  1
 Ag  Ag4  1  0.55340  0.24841  0.48842  1
 Ag  Ag5  1  0.06042  0.55020  0.11086  1
 Ag  Ag6  1  0.93958  0.05020  0.88914  1
 I  I1  1  -0.00441  0.97793  0.31130  1
 I  I2  1  0.00441  0.47793  0.68870  1
 S  S1  1  0.54962  0.51798  0.22970  1
 S  S2  1  0.45038  0.01798  0.77030  1
