CIF file written using JARVIS-Tools package.
data_Mn4ZnS8
_symmetry_space_group_name_H-M  'R-3m'
_cell_length_a       6.87644
_cell_length_b       6.88077
_cell_length_c       6.88076
_cell_angle_alpha    60
_cell_angle_beta     59.9792
_cell_angle_gamma    59.9792

_symmetry_Int_Tables_number  166
_chemical_formula_structural  Mn4ZnS8
_chemical_formula_sum  Mn4ZnS8
_cell_volume  230.1368209396141
_cell_formula_units_Z  1
loop_
  _symmetry_equiv_pos_site_id
 _symmetry_equiv_pos_as_xyz
 1  'x, y, z'
loop_
 _atom_site_type_symbol
 _atom_site_label
 _atom_site_symmetry_multiplicity
 _atom_site_fract_x
 _atom_site_fract_y
 _atom_site_fract_z
 _atom_site_fract_occupancy
 Mn  Mn1  1  -0.00000  0.50000  0.50000  1
 Mn  Mn2  1  0.50000  0.50000  -0.00000  1
 Mn  Mn3  1  0.50000  0.50000  0.50000  1
 Mn  Mn4  1  0.50000  -0.00000  0.50000  1
 S  S1  1  0.26314  0.25408  0.25408  1
 S  S2  1  0.26314  0.25408  0.72870  1
 S  S3  1  0.26314  0.72870  0.25408  1
 S  S4  1  0.72906  0.25698  0.25698  1
 S  S5  1  0.27094  0.74302  0.74302  1
 S  S6  1  0.73686  0.74592  0.27130  1
 S  S7  1  0.73686  0.27130  0.74592  1
 S  S8  1  0.73686  0.74592  0.74592  1
 Zn  Zn1  1  0.50000  -0.00000  -0.00000  1
