CIF file written using JARVIS-Tools package.
data_MoWO6
_symmetry_space_group_name_H-M  'P1'
_cell_length_a       5.25934
_cell_length_b       5.37848
_cell_length_c       5.28366
_cell_angle_alpha    90.3496
_cell_angle_beta     119.621
_cell_angle_gamma    119.067

_symmetry_Int_Tables_number  1
_chemical_formula_structural  MoWO6
_chemical_formula_sum  MoWO6
_cell_volume  107.4355239913485
_cell_formula_units_Z  1
loop_
  _symmetry_equiv_pos_site_id
 _symmetry_equiv_pos_as_xyz
 1  'x, y, z'
loop_
 _atom_site_type_symbol
 _atom_site_label
 _atom_site_symmetry_multiplicity
 _atom_site_fract_x
 _atom_site_fract_y
 _atom_site_fract_z
 _atom_site_fract_occupancy
 Mo  Mo1  1  0.00157  0.46740  0.50408  1
 O  O1  1  0.86839  0.69831  0.19753  1
 O  O2  1  0.02483  0.19977  0.69542  1
 O  O3  1  0.86770  0.20459  0.11817  1
 O  O4  1  0.44580  0.19563  0.26959  1
 O  O5  1  0.45023  0.70093  0.61926  1
 O  O6  1  0.01620  0.69550  0.76426  1
 W  W1  1  0.97366  0.96718  0.00409  1
