CIF file written using JARVIS-Tools package.
data_CaBe2N2
_symmetry_space_group_name_H-M  'I4/mcm'
_cell_length_a       5.21283
_cell_length_b       5.21284
_cell_length_c       5.21283
_cell_angle_alpha    98.0883
_cell_angle_beta     115.445
_cell_angle_gamma    115.445

_symmetry_Int_Tables_number  140
_chemical_formula_structural  CaBe2N2
_chemical_formula_sum  Ca2Be4N4
_cell_volume  105.91324827950429
_cell_formula_units_Z  2
loop_
  _symmetry_equiv_pos_site_id
 _symmetry_equiv_pos_as_xyz
 1  'x, y, z'
loop_
 _atom_site_type_symbol
 _atom_site_label
 _atom_site_symmetry_multiplicity
 _atom_site_fract_x
 _atom_site_fract_y
 _atom_site_fract_z
 _atom_site_fract_occupancy
 Be  Be1  1  0.75198  0.12599  0.62599  1
 Be  Be2  1  0.50000  0.62599  0.87401  1
 Be  Be3  1  0.24802  0.87401  0.37401  1
 Be  Be4  1  0.50000  0.37401  0.12599  1
 Ca  Ca1  1  -0.00000  0.75000  0.75000  1
 Ca  Ca2  1  -0.00000  0.25000  0.25000  1
 N  N1  1  0.50000  0.16953  0.33047  1
 N  N2  1  0.83906  0.66953  0.16953  1
 N  N3  1  0.16094  0.33047  0.83047  1
 N  N4  1  0.50000  0.83047  0.66953  1
