CIF file written using JARVIS-Tools package.
data_CuO2
_symmetry_space_group_name_H-M  'Fmmm'
_cell_length_a       2.83573
_cell_length_b       3.35035
_cell_length_c       4.60096
_cell_angle_alpha    82.5064
_cell_angle_beta     72.0513
_cell_angle_gamma    64.9632

_symmetry_Int_Tables_number  69
_chemical_formula_structural  CuO2
_chemical_formula_sum  CuO2
_cell_volume  37.67744399135634
_cell_formula_units_Z  1
loop_
  _symmetry_equiv_pos_site_id
 _symmetry_equiv_pos_as_xyz
 1  'x, y, z'
loop_
 _atom_site_type_symbol
 _atom_site_label
 _atom_site_symmetry_multiplicity
 _atom_site_fract_x
 _atom_site_fract_y
 _atom_site_fract_z
 _atom_site_fract_occupancy
 Cu  Cu1  1  0.75000  0.50000  0.50000  1
 O  O1  1  0.12038  0.50000  0.75925  1
 O  O2  1  0.37962  0.50000  0.24075  1
