CIF file written using JARVIS-Tools package.
data_Y2CuAu
_symmetry_space_group_name_H-M  'C2/m'
_cell_length_a       10.8833
_cell_length_b       10.7695
_cell_length_c       10.7695
_cell_angle_alpha    60.6275
_cell_angle_beta     59.4731
_cell_angle_gamma    59.4731

_symmetry_Int_Tables_number  12
_chemical_formula_structural  Y2CuAu
_chemical_formula_sum  Y2CuAu
_cell_volume  889.4438590166678
_cell_formula_units_Z  1
loop_
  _symmetry_equiv_pos_site_id
 _symmetry_equiv_pos_as_xyz
 1  'x, y, z'
loop_
 _atom_site_type_symbol
 _atom_site_label
 _atom_site_symmetry_multiplicity
 _atom_site_fract_x
 _atom_site_fract_y
 _atom_site_fract_z
 _atom_site_fract_occupancy
 Au  Au1  1  0.50000  -0.00000  -0.00000  1
 Cu  Cu1  1  0.00000  0.00000  0.00000  1
 Y  Y1  1  0.75213  0.00014  0.00014  1
 Y  Y2  1  0.24787  0.99986  0.99986  1
