CIF file written using JARVIS-Tools package.
data_Bi2WO6
_symmetry_space_group_name_H-M  'P-1'
_cell_length_a       3.8701
_cell_length_b       8.27533
_cell_length_c       8.34381
_cell_angle_alpha    101.845
_cell_angle_beta     102.791
_cell_angle_gamma    89.7186

_symmetry_Int_Tables_number  2
_chemical_formula_structural  Bi2WO6
_chemical_formula_sum  Bi4W2O2
_cell_volume  254.8118929135823
_cell_formula_units_Z  2
loop_
  _symmetry_equiv_pos_site_id
 _symmetry_equiv_pos_as_xyz
 1  'x, y, z'
loop_
 _atom_site_type_symbol
 _atom_site_label
 _atom_site_symmetry_multiplicity
 _atom_site_fract_x
 _atom_site_fract_y
 _atom_site_fract_z
 _atom_site_fract_occupancy
 Bi  Bi1  1  0.68912  0.60469  0.35927  1
 Bi  Bi2  1  0.31088  0.39531  0.64073  1
 Bi  Bi3  1  0.31994  0.92846  0.66783  1
 Bi  Bi4  1  0.68006  0.07154  0.33217  1
 O  O1  1  0.75142  0.88124  0.50466  1
 O  O2  1  0.73713  0.36395  0.46428  1
 O  O3  1  0.51211  0.68633  0.01227  1
 O  O4  1  0.26287  0.63605  0.53572  1
 O  O5  1  0.91930  0.48745  0.84394  1
 O  O6  1  0.91104  0.15874  0.78380  1
 O  O7  1  0.08896  0.84126  0.21620  1
 O  O8  1  0.07354  0.16918  0.14575  1
 O  O9  1  0.24858  0.11876  0.49534  1
 O  O10  1  0.92646  0.83082  0.85425  1
 O  O11  1  0.08070  0.51255  0.15606  1
 O  O12  1  0.48789  0.31367  0.98773  1
 W  W1  1  0.96354  0.29639  0.99270  1
 W  W2  1  0.03646  0.70361  0.00730  1
