CIF file written using JARVIS-Tools package.
data_CuO2F
_symmetry_space_group_name_H-M  'C222_1'
_cell_length_a       4.61743
_cell_length_b       4.34444
_cell_length_c       4.34444
_cell_angle_alpha    85.4239
_cell_angle_beta     90
_cell_angle_gamma    90

_symmetry_Int_Tables_number  20
_chemical_formula_structural  CuO2F
_chemical_formula_sum  Cu2O4F2
_cell_volume  86.87235466312184
_cell_formula_units_Z  2
loop_
  _symmetry_equiv_pos_site_id
 _symmetry_equiv_pos_as_xyz
 1  'x, y, z'
loop_
 _atom_site_type_symbol
 _atom_site_label
 _atom_site_symmetry_multiplicity
 _atom_site_fract_x
 _atom_site_fract_y
 _atom_site_fract_z
 _atom_site_fract_occupancy
 Cu  Cu1  1  0.00000  0.71381  0.71381  1
 Cu  Cu2  1  0.50000  0.28619  0.28619  1
 F  F1  1  0.25000  0.37902  0.62098  1
 F  F2  1  0.75000  0.62098  0.37902  1
 O  O1  1  0.72697  0.03067  0.76595  1
 O  O2  1  0.77303  0.23405  0.96933  1
 O  O3  1  0.22697  0.96933  0.23405  1
 O  O4  1  0.27303  0.76595  0.03067  1
