CIF file written using JARVIS-Tools package.
data_DyTe3
_symmetry_space_group_name_H-M  'Cmcm'
_cell_length_a       4.04541
_cell_length_b       4.59957
_cell_length_c       14.1038
_cell_angle_alpha    90
_cell_angle_beta     98.2455
_cell_angle_gamma    90

_symmetry_Int_Tables_number  63
_chemical_formula_structural  DyTe3
_chemical_formula_sum  Dy2Te6
_cell_volume  259.71951146091527
_cell_formula_units_Z  2
loop_
  _symmetry_equiv_pos_site_id
 _symmetry_equiv_pos_as_xyz
 1  'x, y, z'
loop_
 _atom_site_type_symbol
 _atom_site_label
 _atom_site_symmetry_multiplicity
 _atom_site_fract_x
 _atom_site_fract_y
 _atom_site_fract_z
 _atom_site_fract_occupancy
 Dy  Dy1  1  0.94858  0.25000  0.89717  1
 Dy  Dy2  1  0.05142  0.75000  0.10283  1
 Te  Te1  1  0.83553  0.25000  0.67106  1
 Te  Te2  1  0.16447  0.75000  0.32894  1
 Te  Te3  1  0.68736  0.25000  0.37472  1
 Te  Te4  1  0.31264  0.75000  0.62528  1
 Te  Te5  1  0.55275  0.25000  0.10551  1
 Te  Te6  1  0.44725  0.75000  0.89449  1
