CIF file written using JARVIS-Tools package.
data_NdCd2
_symmetry_space_group_name_H-M  'P6/mmm'
_cell_length_a       3.45933
_cell_length_b       6.12494
_cell_length_c       5.0542
_cell_angle_alpha    114.368
_cell_angle_beta     89.9999
_cell_angle_gamma    55.6094

_symmetry_Int_Tables_number  191
_chemical_formula_structural  NdCd2
_chemical_formula_sum  NdCd2
_cell_volume  76.53218580958595
_cell_formula_units_Z  1
loop_
  _symmetry_equiv_pos_site_id
 _symmetry_equiv_pos_as_xyz
 1  'x, y, z'
loop_
 _atom_site_type_symbol
 _atom_site_label
 _atom_site_symmetry_multiplicity
 _atom_site_fract_x
 _atom_site_fract_y
 _atom_site_fract_z
 _atom_site_fract_occupancy
 Cd  Cd1  1  0.16666  0.33333  0.66666  1
 Cd  Cd2  1  0.83334  0.66668  0.33334  1
 Nd  Nd1  1  0.00000  0.00000  0.00000  1
