CIF file written using JARVIS-Tools package.
data_NaCu2O3
_symmetry_space_group_name_H-M  'Cmmm'
_cell_length_a       3.75693
_cell_length_b       6.10062
_cell_length_c       3.30703
_cell_angle_alpha    90
_cell_angle_beta     90
_cell_angle_gamma    107.933

_symmetry_Int_Tables_number  65
_chemical_formula_structural  NaCu2O3
_chemical_formula_sum  NaCu2O3
_cell_volume  72.11328425401612
_cell_formula_units_Z  1
loop_
  _symmetry_equiv_pos_site_id
 _symmetry_equiv_pos_as_xyz
 1  'x, y, z'
loop_
 _atom_site_type_symbol
 _atom_site_label
 _atom_site_symmetry_multiplicity
 _atom_site_fract_x
 _atom_site_fract_y
 _atom_site_fract_z
 _atom_site_fract_occupancy
 Cu  Cu1  1  0.34193  0.68387  0.00000  1
 Cu  Cu2  1  0.65807  0.31613  0.00000  1
 Na  Na1  1  0.00000  0.00000  0.50000  1
 O  O1  1  0.17941  0.35883  0.00000  1
 O  O2  1  0.50000  0.00000  0.00000  1
 O  O3  1  0.82059  0.64117  0.00000  1
