CIF file written using JARVIS-Tools package.
data_Lu2C3N6
_symmetry_space_group_name_H-M  'R32'
_cell_length_a       6.15372
_cell_length_b       6.15372
_cell_length_c       6.15372
_cell_angle_alpha    60.2114
_cell_angle_beta     60.2114
_cell_angle_gamma    60.2114

_symmetry_Int_Tables_number  155
_chemical_formula_structural  Lu2C3N6
_chemical_formula_sum  Lu2C3N6
_cell_volume  165.56589357587686
_cell_formula_units_Z  1
loop_
  _symmetry_equiv_pos_site_id
 _symmetry_equiv_pos_as_xyz
 1  'x, y, z'
loop_
 _atom_site_type_symbol
 _atom_site_label
 _atom_site_symmetry_multiplicity
 _atom_site_fract_x
 _atom_site_fract_y
 _atom_site_fract_z
 _atom_site_fract_occupancy
 C  C1  1  0.71045  0.28955  0.00000  1
 C  C2  1  0.28955  -0.00000  0.71045  1
 C  C3  1  0.00000  0.71045  0.28955  1
 Lu  Lu1  1  0.17227  0.17227  0.17227  1
 Lu  Lu2  1  0.82773  0.82773  0.82773  1
 N  N1  1  0.59594  0.16662  0.01071  1
 N  N2  1  0.98929  0.83338  0.40406  1
 N  N3  1  0.83338  0.40406  0.98929  1
 N  N4  1  0.16662  0.01071  0.59594  1
 N  N5  1  0.40406  0.98929  0.83338  1
 N  N6  1  0.01071  0.59594  0.16662  1
