CIF file written using JARVIS-Tools package.
data_Cr
_symmetry_space_group_name_H-M  'Cmcm'
_cell_length_a       2.28727
_cell_length_b       2.69128
_cell_length_c       4.21205
_cell_angle_alpha    90
_cell_angle_beta     90
_cell_angle_gamma    115.147

_symmetry_Int_Tables_number  63
_chemical_formula_structural  Cr
_chemical_formula_sum  Cr2
_cell_volume  23.470600364609147
_cell_formula_units_Z  2
loop_
  _symmetry_equiv_pos_site_id
 _symmetry_equiv_pos_as_xyz
 1  'x, y, z'
loop_
 _atom_site_type_symbol
 _atom_site_label
 _atom_site_symmetry_multiplicity
 _atom_site_fract_x
 _atom_site_fract_y
 _atom_site_fract_z
 _atom_site_fract_occupancy
 Cr  Cr1  1  0.86106  0.72212  0.75000  1
 Cr  Cr2  1  0.13894  0.27788  0.25000  1
