CIF file written using JARVIS-Tools package.
data_BaIn2Pd
_symmetry_space_group_name_H-M  'Cmcm'
_cell_length_a       4.58043
_cell_length_b       6.32642
_cell_length_c       8.14562
_cell_angle_alpha    90
_cell_angle_beta     90
_cell_angle_gamma    111.224

_symmetry_Int_Tables_number  63
_chemical_formula_structural  BaIn2Pd
_chemical_formula_sum  Ba2In4Pd2
_cell_volume  220.03209921973468
_cell_formula_units_Z  2
loop_
  _symmetry_equiv_pos_site_id
 _symmetry_equiv_pos_as_xyz
 1  'x, y, z'
loop_
 _atom_site_type_symbol
 _atom_site_label
 _atom_site_symmetry_multiplicity
 _atom_site_fract_x
 _atom_site_fract_y
 _atom_site_fract_z
 _atom_site_fract_occupancy
 Ba  Ba1  1  0.44796  0.89592  0.25000  1
 Ba  Ba2  1  0.55204  0.10408  0.75000  1
 In  In1  1  0.16198  0.32395  0.05566  1
 In  In2  1  0.83802  0.67605  0.94434  1
 In  In3  1  0.83802  0.67605  0.55566  1
 In  In4  1  0.16198  0.32395  0.44434  1
 Pd  Pd1  1  0.72379  0.44758  0.25000  1
 Pd  Pd2  1  0.27621  0.55242  0.75000  1
