CIF file written using JARVIS-Tools package.
data_SrSc2O4
_symmetry_space_group_name_H-M  'Fd-3m'
_cell_length_a       6.57453
_cell_length_b       6.57453
_cell_length_c       6.57453
_cell_angle_alpha    120.001
_cell_angle_beta     120.001
_cell_angle_gamma    89.9977

_symmetry_Int_Tables_number  227
_chemical_formula_structural  SrSc2O4
_chemical_formula_sum  Sr2Sc4O8
_cell_volume  200.94166280752276
_cell_formula_units_Z  2
loop_
  _symmetry_equiv_pos_site_id
 _symmetry_equiv_pos_as_xyz
 1  'x, y, z'
loop_
 _atom_site_type_symbol
 _atom_site_label
 _atom_site_symmetry_multiplicity
 _atom_site_fract_x
 _atom_site_fract_y
 _atom_site_fract_z
 _atom_site_fract_occupancy
 O  O1  1  0.77002  0.31008  0.04004  1
 O  O2  1  0.81008  0.27004  0.54006  1
 O  O3  1  0.22998  0.27002  0.95994  1
 O  O4  1  0.22996  0.27002  0.54004  1
 O  O5  1  0.77004  0.72998  0.45996  1
 O  O6  1  0.77002  0.72998  0.04006  1
 O  O7  1  0.18992  0.72996  0.45994  1
 O  O8  1  0.22998  0.68992  0.95996  1
 Sc  Sc1  1  0.50000  0.50000  0.00000  1
 Sc  Sc2  1  0.00000  0.00000  0.50000  1
 Sc  Sc3  1  0.00000  0.50000  0.00000  1
 Sc  Sc4  1  0.00000  0.50000  0.50000  1
 Sr  Sr1  1  0.37500  0.12500  0.25000  1
 Sr  Sr2  1  0.62500  0.87500  0.75000  1
