CIF file written using JARVIS-Tools package.
data_Li4CO4
_symmetry_space_group_name_H-M  'C2'
_cell_length_a       4.60121
_cell_length_b       4.71322
_cell_length_c       5.07913
_cell_angle_alpha    122.42
_cell_angle_beta     116.935
_cell_angle_gamma    89.9966

_symmetry_Int_Tables_number  5
_chemical_formula_structural  Li4CO4
_chemical_formula_sum  Li4CO4
_cell_volume  78.46184128743462
_cell_formula_units_Z  1
loop_
  _symmetry_equiv_pos_site_id
 _symmetry_equiv_pos_as_xyz
 1  'x, y, z'
loop_
 _atom_site_type_symbol
 _atom_site_label
 _atom_site_symmetry_multiplicity
 _atom_site_fract_x
 _atom_site_fract_y
 _atom_site_fract_z
 _atom_site_fract_occupancy
 C  C1  1  0.46574  0.53032  0.45047  1
 Li  Li1  1  0.00623  0.88504  0.70485  1
 Li  Li2  1  0.48606  0.30100  0.75989  1
 Li  Li3  1  0.75185  0.17556  0.19606  1
 Li  Li4  1  0.17668  0.75968  0.14110  1
 O  O1  1  0.76731  0.50185  0.68304  1
 O  O2  1  0.53479  0.55881  0.21794  1
 O  O3  1  0.19053  0.22277  0.24723  1
 O  O4  1  0.39374  0.83788  0.65368  1
