CIF file written using JARVIS-Tools package.
data_CuSbPd2
_symmetry_space_group_name_H-M  'Immm'
_cell_length_a       9.62492
_cell_length_b       10.1894
_cell_length_c       10.1894
_cell_angle_alpha    61.2448
_cell_angle_beta     61.8164
_cell_angle_gamma    61.8163

_symmetry_Int_Tables_number  71
_chemical_formula_structural  CuSbPd2
_chemical_formula_sum  CuSbPd2
_cell_volume  732.3339294491826
_cell_formula_units_Z  1
loop_
  _symmetry_equiv_pos_site_id
 _symmetry_equiv_pos_as_xyz
 1  'x, y, z'
loop_
 _atom_site_type_symbol
 _atom_site_label
 _atom_site_symmetry_multiplicity
 _atom_site_fract_x
 _atom_site_fract_y
 _atom_site_fract_z
 _atom_site_fract_occupancy
 Cu  Cu1  1  0.00000  0.00000  0.00000  1
 Pd  Pd1  1  0.74783  0.00000  -0.00000  1
 Pd  Pd2  1  0.25217  -0.00000  0.00000  1
 Sb  Sb1  1  0.50000  -0.00000  -0.00000  1
