CIF file written using JARVIS-Tools package.
data_LuNiC2
_symmetry_space_group_name_H-M  'Amm2'
_cell_length_a       3.43875
_cell_length_b       3.73483
_cell_length_c       3.73483
_cell_angle_alpha    106.16
_cell_angle_beta     90
_cell_angle_gamma    90

_symmetry_Int_Tables_number  38
_chemical_formula_structural  LuNiC2
_chemical_formula_sum  LuNiC2
_cell_volume  46.071477598008265
_cell_formula_units_Z  1
loop_
  _symmetry_equiv_pos_site_id
 _symmetry_equiv_pos_as_xyz
 1  'x, y, z'
loop_
 _atom_site_type_symbol
 _atom_site_label
 _atom_site_symmetry_multiplicity
 _atom_site_fract_x
 _atom_site_fract_y
 _atom_site_fract_z
 _atom_site_fract_occupancy
 C  C1  1  0.50000  0.85142  0.45352  1
 C  C2  1  0.50000  0.54648  0.14858  1
 Lu  Lu1  1  0.00000  0.99966  0.00034  1
 Ni  Ni1  1  0.50000  0.38744  0.61256  1
