CIF file written using JARVIS-Tools package.
data_InCl
_symmetry_space_group_name_H-M  'Cmcm'
_cell_length_a       4.30276
_cell_length_b       4.5042
_cell_length_c       6.49424
_cell_angle_alpha    90
_cell_angle_beta     109.346
_cell_angle_gamma    90

_symmetry_Int_Tables_number  63
_chemical_formula_structural  InCl
_chemical_formula_sum  In2Cl2
_cell_volume  118.7546650990842
_cell_formula_units_Z  2
loop_
  _symmetry_equiv_pos_site_id
 _symmetry_equiv_pos_as_xyz
 1  'x, y, z'
loop_
 _atom_site_type_symbol
 _atom_site_label
 _atom_site_symmetry_multiplicity
 _atom_site_fract_x
 _atom_site_fract_y
 _atom_site_fract_z
 _atom_site_fract_occupancy
 Cl  Cl1  1  0.84636  0.24194  0.69272  1
 Cl  Cl2  1  0.15364  0.74194  0.30728  1
 In  In1  1  0.61116  0.24206  0.22233  1
 In  In2  1  0.38884  0.74206  0.77767  1
