CIF file written using JARVIS-Tools package.
data_Na4WN2O2
_symmetry_space_group_name_H-M  'P-1'
_cell_length_a       5.8701
_cell_length_b       5.89898
_cell_length_c       8.92637
_cell_angle_alpha    83.0545
_cell_angle_beta     71.5116
_cell_angle_gamma    69.4906

_symmetry_Int_Tables_number  2
_chemical_formula_structural  Na4WN2O2
_chemical_formula_sum  Na8W2N4O4
_cell_volume  274.5482360676421
_cell_formula_units_Z  2
loop_
  _symmetry_equiv_pos_site_id
 _symmetry_equiv_pos_as_xyz
 1  'x, y, z'
loop_
 _atom_site_type_symbol
 _atom_site_label
 _atom_site_symmetry_multiplicity
 _atom_site_fract_x
 _atom_site_fract_y
 _atom_site_fract_z
 _atom_site_fract_occupancy
 N  N1  1  0.29781  0.03793  0.36027  1
 N  N2  1  0.15764  0.54260  0.64552  1
 N  N3  1  0.84236  0.45740  0.35448  1
 N  N4  1  0.70219  0.96207  0.63973  1
 Na  Na1  1  0.24203  0.76337  0.98302  1
 Na  Na2  1  0.75797  0.23663  0.01698  1
 Na  Na3  1  0.05375  0.75974  0.40359  1
 Na  Na4  1  0.94625  0.24026  0.59641  1
 Na  Na5  1  0.47918  0.74138  0.55315  1
 Na  Na6  1  0.52082  0.25862  0.44685  1
 Na  Na7  1  0.61289  0.72238  0.18683  1
 Na  Na8  1  0.38711  0.27762  0.81317  1
 O  O1  1  0.15050  0.15820  0.05197  1
 O  O2  1  0.64042  0.51138  0.81645  1
 O  O3  1  0.84950  0.84180  0.94803  1
 O  O4  1  0.35958  0.48862  0.18355  1
 W  W1  1  0.84020  0.71782  0.76494  1
 W  W2  1  0.15980  0.28218  0.23506  1
