CIF file written using JARVIS-Tools package.
data_Te6Mo3WSe2
_symmetry_space_group_name_H-M  'P3m1'
_cell_length_a       3.50631
_cell_length_b       3.50633
_cell_length_c       37.1606
_cell_angle_alpha    90.0016
_cell_angle_beta     89.9998
_cell_angle_gamma    120

_symmetry_Int_Tables_number  156
_chemical_formula_structural  Te6Mo3WSe2
_chemical_formula_sum  Te6Mo3WSe2
_cell_volume  395.65565817471287
_cell_formula_units_Z  1
loop_
  _symmetry_equiv_pos_site_id
 _symmetry_equiv_pos_as_xyz
 1  'x, y, z'
loop_
 _atom_site_type_symbol
 _atom_site_label
 _atom_site_symmetry_multiplicity
 _atom_site_fract_x
 _atom_site_fract_y
 _atom_site_fract_z
 _atom_site_fract_occupancy
 Mo  Mo1  1  0.33327  0.66653  0.09340  1
 Mo  Mo2  1  0.66668  0.33336  0.27607  1
 Mo  Mo3  1  0.66672  0.33345  0.66359  1
 Se  Se1  1  0.66660  0.33318  0.04995  1
 Se  Se2  1  0.66662  0.33323  0.13693  1
 Te  Te1  1  0.33335  0.66671  0.32545  1
 Te  Te2  1  0.33339  0.66679  0.71290  1
 Te  Te3  1  0.66664  0.33330  0.42025  1
 Te  Te4  1  0.66667  0.33336  0.51945  1
 Te  Te5  1  0.33334  0.66668  0.22669  1
 Te  Te6  1  0.33339  0.66677  0.61419  1
 W  W1  1  0.33332  0.66666  0.46986  1
