CIF file written using JARVIS-Tools package.
data_ZrO2
_symmetry_space_group_name_H-M  'Pnma'
_cell_length_a       3.28012
_cell_length_b       4.95183
_cell_length_c       20.1909
_cell_angle_alpha    90
_cell_angle_beta     90
_cell_angle_gamma    90

_symmetry_Int_Tables_number  62
_chemical_formula_structural  ZrO2
_chemical_formula_sum  Zr8O6
_cell_volume  327.95286529654135
_cell_formula_units_Z  8
loop_
  _symmetry_equiv_pos_site_id
 _symmetry_equiv_pos_as_xyz
 1  'x, y, z'
loop_
 _atom_site_type_symbol
 _atom_site_label
 _atom_site_symmetry_multiplicity
 _atom_site_fract_x
 _atom_site_fract_y
 _atom_site_fract_z
 _atom_site_fract_occupancy
 O  O1  1  0.25000  0.20266  0.38518  1
 O  O2  1  0.25000  0.69039  0.97739  1
 O  O3  1  0.75000  0.80833  0.85657  1
 O  O4  1  0.25000  0.29734  0.88518  1
 O  O5  1  0.25000  0.19167  0.14343  1
 O  O6  1  0.75000  0.19766  0.76358  1
 O  O7  1  0.75000  0.79734  0.61482  1
 O  O8  1  0.25000  0.69766  0.73642  1
 O  O9  1  0.75000  0.19039  0.52261  1
 O  O10  1  0.25000  0.80961  0.47739  1
 O  O11  1  0.75000  0.69167  0.35657  1
 O  O12  1  0.75000  0.30961  0.02261  1
 O  O13  1  0.25000  0.80234  0.23642  1
 O  O14  1  0.75000  0.30234  0.26358  1
 O  O15  1  0.75000  0.70266  0.11482  1
 O  O16  1  0.25000  0.30833  0.64343  1
 Zr  Zr1  1  0.25000  0.49467  0.07075  1
 Zr  Zr2  1  0.75000  0.99610  0.18985  1
 Zr  Zr3  1  0.25000  0.49610  0.31015  1
 Zr  Zr4  1  0.75000  0.99467  0.42925  1
 Zr  Zr5  1  0.25000  0.00533  0.57075  1
 Zr  Zr6  1  0.75000  0.50390  0.68985  1
 Zr  Zr7  1  0.25000  0.00390  0.81015  1
 Zr  Zr8  1  0.75000  0.50533  0.92925  1
