CIF file written using JARVIS-Tools package.
data_HoF3
_symmetry_space_group_name_H-M  'Pnma'
_cell_length_a       4.37305
_cell_length_b       6.36364
_cell_length_c       6.85391
_cell_angle_alpha    90
_cell_angle_beta     90
_cell_angle_gamma    90

_symmetry_Int_Tables_number  62
_chemical_formula_structural  HoF3
_chemical_formula_sum  Ho4F2
_cell_volume  190.73449057130915
_cell_formula_units_Z  4
loop_
  _symmetry_equiv_pos_site_id
 _symmetry_equiv_pos_as_xyz
 1  'x, y, z'
loop_
 _atom_site_type_symbol
 _atom_site_label
 _atom_site_symmetry_multiplicity
 _atom_site_fract_x
 _atom_site_fract_y
 _atom_site_fract_z
 _atom_site_fract_occupancy
 F  F1  1  0.87942  0.33419  0.93745  1
 F  F2  1  0.08791  0.97782  0.75000  1
 F  F3  1  0.62058  0.83419  0.56255  1
 F  F4  1  0.91209  0.02218  0.25000  1
 F  F5  1  0.41209  0.47782  0.75000  1
 F  F6  1  0.37942  0.16581  0.43745  1
 F  F7  1  0.12058  0.66581  0.43745  1
 F  F8  1  0.62058  0.83419  0.93745  1
 F  F9  1  0.37942  0.16581  0.06255  1
 F  F10  1  0.58791  0.52218  0.25000  1
 F  F11  1  0.12058  0.66581  0.06255  1
 F  F12  1  0.87942  0.33419  0.56255  1
 Ho  Ho1  1  0.56292  0.13053  0.75000  1
 Ho  Ho2  1  0.93708  0.63053  0.75000  1
 Ho  Ho3  1  0.06292  0.36947  0.25000  1
 Ho  Ho4  1  0.43708  0.86947  0.25000  1
