CIF file written using JARVIS-Tools package.
data_Yb2KF7
_symmetry_space_group_name_H-M  'P2/m'
_cell_length_a       5.69538
_cell_length_b       4.30747
_cell_length_c       7.19379
_cell_angle_alpha    90
_cell_angle_beta     115.895
_cell_angle_gamma    90

_symmetry_Int_Tables_number  10
_chemical_formula_structural  Yb2KF7
_chemical_formula_sum  Yb2KF7
_cell_volume  158.76382299838164
_cell_formula_units_Z  1
loop_
  _symmetry_equiv_pos_site_id
 _symmetry_equiv_pos_as_xyz
 1  'x, y, z'
loop_
 _atom_site_type_symbol
 _atom_site_label
 _atom_site_symmetry_multiplicity
 _atom_site_fract_x
 _atom_site_fract_y
 _atom_site_fract_z
 _atom_site_fract_occupancy
 F  F1  1  0.14117  0.98943  0.87895  1
 F  F2  1  0.71233  0.98924  0.46285  1
 F  F3  1  0.26952  0.48922  0.24227  1
 F  F4  1  0.85883  0.98943  0.12105  1
 F  F5  1  0.28767  0.98924  0.53715  1
 F  F6  1  0.50000  -0.01064  -0.00000  1
 F  F7  1  0.73048  0.48922  0.75773  1
 K  K1  1  0.00000  0.48923  0.50000  1
 Yb  Yb1  1  0.69133  0.98921  0.76210  1
 Yb  Yb2  1  0.30867  0.98921  0.23790  1
