CIF file written using JARVIS-Tools package.
data_Mn2CoIr
_symmetry_space_group_name_H-M  'Immm'
_cell_length_a       9.08868
_cell_length_b       9.3015
_cell_length_c       9.3015
_cell_angle_alpha    60.4045
_cell_angle_beta     60.753
_cell_angle_gamma    60.753

_symmetry_Int_Tables_number  71
_chemical_formula_structural  Mn2CoIr
_chemical_formula_sum  Mn2CoIr
_cell_volume  564.0029461143818
_cell_formula_units_Z  1
loop_
  _symmetry_equiv_pos_site_id
 _symmetry_equiv_pos_as_xyz
 1  'x, y, z'
loop_
 _atom_site_type_symbol
 _atom_site_label
 _atom_site_symmetry_multiplicity
 _atom_site_fract_x
 _atom_site_fract_y
 _atom_site_fract_z
 _atom_site_fract_occupancy
 Co  Co1  1  -0.00000  -0.00000  0.00000  1
 Ir  Ir1  1  0.50000  -0.00000  -0.00000  1
 Mn  Mn1  1  0.75371  -0.00000  -0.00000  1
 Mn  Mn2  1  0.24629  0.00000  0.00000  1
