CIF file written using JARVIS-Tools package.
data_LiN
_symmetry_space_group_name_H-M  'I-4m2'
_cell_length_a       3.19814
_cell_length_b       3.19814
_cell_length_c       3.31792
_cell_angle_alpha    118.813
_cell_angle_beta     118.813
_cell_angle_gamma    90

_symmetry_Int_Tables_number  119
_chemical_formula_structural  LiN
_chemical_formula_sum  LiN
_cell_volume  24.83262307841711
_cell_formula_units_Z  1
loop_
  _symmetry_equiv_pos_site_id
 _symmetry_equiv_pos_as_xyz
 1  'x, y, z'
loop_
 _atom_site_type_symbol
 _atom_site_label
 _atom_site_symmetry_multiplicity
 _atom_site_fract_x
 _atom_site_fract_y
 _atom_site_fract_z
 _atom_site_fract_occupancy
 Li  Li1  1  0.50000  0.50000  0.00000  1
 N  N1  1  0.75000  0.25000  0.50000  1
