CIF file written using JARVIS-Tools package.
data_KNaMnO2
_symmetry_space_group_name_H-M  'Cccm'
_cell_length_a       6.68796
_cell_length_b       6.68796
_cell_length_c       7.02317
_cell_angle_alpha    90
_cell_angle_beta     90
_cell_angle_gamma    91.097

_symmetry_Int_Tables_number  66
_chemical_formula_structural  KNaMnO2
_chemical_formula_sum  K4Na4Mn4O8
_cell_volume  314.0804912139802
_cell_formula_units_Z  4
loop_
  _symmetry_equiv_pos_site_id
 _symmetry_equiv_pos_as_xyz
 1  'x, y, z'
loop_
 _atom_site_type_symbol
 _atom_site_label
 _atom_site_symmetry_multiplicity
 _atom_site_fract_x
 _atom_site_fract_y
 _atom_site_fract_z
 _atom_site_fract_occupancy
 K  K1  1  0.00000  0.50000  0.00000  1
 K  K2  1  0.50000  0.00000  0.50000  1
 K  K3  1  0.00000  0.00000  0.25000  1
 K  K4  1  0.00000  0.00000  0.75000  1
 Mn  Mn1  1  0.83572  0.36874  0.50000  1
 Mn  Mn2  1  0.36874  0.83572  0.00000  1
 Mn  Mn3  1  0.63126  0.16428  0.00000  1
 Mn  Mn4  1  0.16428  0.63126  0.50000  1
 Na  Na1  1  0.64938  0.64938  0.75000  1
 Na  Na2  1  0.35062  0.35062  0.25000  1
 Na  Na3  1  0.64938  0.64938  0.25000  1
 Na  Na4  1  0.35062  0.35062  0.75000  1
 O  O1  1  0.30993  0.13571  0.00000  1
 O  O2  1  0.30134  0.69866  0.75000  1
 O  O3  1  0.86429  0.69007  0.50000  1
 O  O4  1  0.30134  0.69866  0.25000  1
 O  O5  1  0.69866  0.30134  0.25000  1
 O  O6  1  0.13571  0.30993  0.50000  1
 O  O7  1  0.69007  0.86429  0.00000  1
 O  O8  1  0.69866  0.30134  0.75000  1
