CIF file written using JARVIS-Tools package.
data_KMgP3O9
_symmetry_space_group_name_H-M  'P-6c2'
_cell_length_a       6.64341
_cell_length_b       6.64341
_cell_length_c       9.86344
_cell_angle_alpha    90
_cell_angle_beta     90
_cell_angle_gamma    120

_symmetry_Int_Tables_number  188
_chemical_formula_structural  KMgP3O9
_chemical_formula_sum  K2Mg2P6O8
_cell_volume  376.99899202175544
_cell_formula_units_Z  2
loop_
  _symmetry_equiv_pos_site_id
 _symmetry_equiv_pos_as_xyz
 1  'x, y, z'
loop_
 _atom_site_type_symbol
 _atom_site_label
 _atom_site_symmetry_multiplicity
 _atom_site_fract_x
 _atom_site_fract_y
 _atom_site_fract_z
 _atom_site_fract_occupancy
 K  K1  1  0.66667  0.33333  0.50000  1
 K  K2  1  0.66667  0.33333  0.00000  1
 Mg  Mg1  1  0.33333  0.66667  0.50000  1
 Mg  Mg2  1  0.33333  0.66667  0.00000  1
 O  O1  1  0.07663  0.40796  0.38031  1
 O  O2  1  0.33134  0.40796  0.61969  1
 O  O3  1  0.33134  0.92337  0.38031  1
 O  O4  1  0.33134  0.40796  0.88031  1
 O  O5  1  0.33134  0.92337  0.11969  1
 O  O6  1  0.59204  0.66866  0.11969  1
 O  O7  1  0.07663  0.40796  0.11969  1
 O  O8  1  0.59204  0.66866  0.38031  1
 O  O9  1  0.07663  0.66866  0.88031  1
 O  O10  1  0.23939  0.04853  0.75000  1
 O  O11  1  0.95147  0.19086  0.75000  1
 O  O12  1  0.80914  0.04853  0.25000  1
 O  O13  1  0.59204  0.92337  0.88031  1
 O  O14  1  0.95147  0.76061  0.25000  1
 O  O15  1  0.23939  0.19086  0.25000  1
 O  O16  1  0.07663  0.66866  0.61969  1
 O  O17  1  0.80914  0.76061  0.75000  1
 O  O18  1  0.59204  0.92337  0.61969  1
 P  P1  1  0.71498  0.94197  0.75000  1
 P  P2  1  0.05803  0.28502  0.25000  1
 P  P3  1  0.05803  0.77301  0.75000  1
 P  P4  1  0.22699  0.94197  0.25000  1
 P  P5  1  0.22699  0.28502  0.75000  1
 P  P6  1  0.71498  0.77301  0.25000  1
