CIF file written using JARVIS-Tools package.
data_Pr
_symmetry_space_group_name_H-M  'Fm-3m'
_cell_length_a       3.68472
_cell_length_b       3.68521
_cell_length_c       6.383
_cell_angle_alpha    106.765
_cell_angle_beta     90
_cell_angle_gamma    119.996

_symmetry_Int_Tables_number  225
_chemical_formula_structural  Pr
_chemical_formula_sum  Pr2
_cell_volume  70.78013196545643
_cell_formula_units_Z  2
loop_
  _symmetry_equiv_pos_site_id
 _symmetry_equiv_pos_as_xyz
 1  'x, y, z'
loop_
 _atom_site_type_symbol
 _atom_site_label
 _atom_site_symmetry_multiplicity
 _atom_site_fract_x
 _atom_site_fract_y
 _atom_site_fract_z
 _atom_site_fract_occupancy
 Pr  Pr1  1  0.25001  0.50002  0.74999  1
 Pr  Pr2  1  0.74999  0.49998  0.25001  1
