CIF file written using JARVIS-Tools package.
data_LiBiF4
_symmetry_space_group_name_H-M  'I4_1/a'
_cell_length_a       5.28793
_cell_length_b       5.28793
_cell_length_c       6.77738
_cell_angle_alpha    112.961
_cell_angle_beta     112.96
_cell_angle_gamma    90.002

_symmetry_Int_Tables_number  88
_chemical_formula_structural  LiBiF4
_chemical_formula_sum  Li2Bi2F8
_cell_volume  158.06101847076948
_cell_formula_units_Z  2
loop_
  _symmetry_equiv_pos_site_id
 _symmetry_equiv_pos_as_xyz
 1  'x, y, z'
loop_
 _atom_site_type_symbol
 _atom_site_label
 _atom_site_symmetry_multiplicity
 _atom_site_fract_x
 _atom_site_fract_y
 _atom_site_fract_z
 _atom_site_fract_occupancy
 Bi  Bi1  1  0.87500  0.62500  0.75000  1
 Bi  Bi2  1  0.12500  0.37500  0.25000  1
 F  F1  1  0.27212  0.95227  0.08982  1
 F  F2  1  0.13756  0.77212  0.58983  1
 F  F3  1  0.45227  0.31770  0.58983  1
 F  F4  1  0.81770  0.63755  0.08982  1
 F  F5  1  0.72788  0.04773  0.91018  1
 F  F6  1  0.86244  0.22788  0.41017  1
 F  F7  1  0.54773  0.68230  0.41017  1
 F  F8  1  0.18230  0.36245  0.91018  1
 Li  Li1  1  0.37501  0.12500  0.75001  1
 Li  Li2  1  0.62499  0.87500  0.24999  1
