CIF file written using JARVIS-Tools package.
data_ZnSb
_symmetry_space_group_name_H-M  'Pbca'
_cell_length_a       6.32284
_cell_length_b       7.80748
_cell_length_c       8.19533
_cell_angle_alpha    90
_cell_angle_beta     90
_cell_angle_gamma    90

_symmetry_Int_Tables_number  61
_chemical_formula_structural  ZnSb
_chemical_formula_sum  Zn8Sb8
_cell_volume  404.5656148652619
_cell_formula_units_Z  8
loop_
  _symmetry_equiv_pos_site_id
 _symmetry_equiv_pos_as_xyz
 1  'x, y, z'
loop_
 _atom_site_type_symbol
 _atom_site_label
 _atom_site_symmetry_multiplicity
 _atom_site_fract_x
 _atom_site_fract_y
 _atom_site_fract_z
 _atom_site_fract_occupancy
 Sb  Sb1  1  0.14180  0.08351  0.10952  1
 Sb  Sb2  1  0.64180  0.41649  0.89048  1
 Sb  Sb3  1  0.85820  0.58351  0.39048  1
 Sb  Sb4  1  0.35820  0.91649  0.60952  1
 Sb  Sb5  1  0.85820  0.91649  0.89048  1
 Sb  Sb6  1  0.35820  0.58351  0.10952  1
 Sb  Sb7  1  0.14180  0.41649  0.60952  1
 Sb  Sb8  1  0.64180  0.08351  0.39048  1
 Zn  Zn1  1  0.45616  0.10791  0.87274  1
 Zn  Zn2  1  0.95616  0.39209  0.12726  1
 Zn  Zn3  1  0.54384  0.60791  0.62726  1
 Zn  Zn4  1  0.04384  0.89209  0.37274  1
 Zn  Zn5  1  0.54384  0.89209  0.12726  1
 Zn  Zn6  1  0.04384  0.60791  0.87274  1
 Zn  Zn7  1  0.45616  0.39209  0.37274  1
 Zn  Zn8  1  0.95616  0.10791  0.62726  1
