CIF file written using JARVIS-Tools package.
data_CeBiPd
_symmetry_space_group_name_H-M  'F-43m'
_cell_length_a       4.84039
_cell_length_b       4.84052
_cell_length_c       4.84069
_cell_angle_alpha    60.0038
_cell_angle_beta     60.0045
_cell_angle_gamma    60.007

_symmetry_Int_Tables_number  216
_chemical_formula_structural  CeBiPd
_chemical_formula_sum  CeBiPd
_cell_volume  80.20762004809094
_cell_formula_units_Z  1
loop_
  _symmetry_equiv_pos_site_id
 _symmetry_equiv_pos_as_xyz
 1  'x, y, z'
loop_
 _atom_site_type_symbol
 _atom_site_label
 _atom_site_symmetry_multiplicity
 _atom_site_fract_x
 _atom_site_fract_y
 _atom_site_fract_z
 _atom_site_fract_occupancy
 Bi  Bi1  1  -0.00000  0.99999  -0.00001  1
 Ce  Ce1  1  0.50000  0.50001  0.50001  1
 Pd  Pd1  1  0.25000  0.25000  0.25000  1
