CIF file written using JARVIS-Tools package.
data_Cu3SbS4
_symmetry_space_group_name_H-M  'Pmn2_1'
_cell_length_a       6.34829
_cell_length_b       6.60341
_cell_length_c       7.64261
_cell_angle_alpha    90
_cell_angle_beta     90
_cell_angle_gamma    90

_symmetry_Int_Tables_number  31
_chemical_formula_structural  Cu3SbS4
_chemical_formula_sum  Cu6Sb2S8
_cell_volume  320.38106620374106
_cell_formula_units_Z  2
loop_
  _symmetry_equiv_pos_site_id
 _symmetry_equiv_pos_as_xyz
 1  'x, y, z'
loop_
 _atom_site_type_symbol
 _atom_site_label
 _atom_site_symmetry_multiplicity
 _atom_site_fract_x
 _atom_site_fract_y
 _atom_site_fract_z
 _atom_site_fract_occupancy
 Cu  Cu1  1  0.50576  0.33166  0.24871  1
 Cu  Cu2  1  0.00702  0.16807  0.50000  1
 Cu  Cu3  1  0.00576  0.66834  0.74871  1
 Cu  Cu4  1  0.50576  0.33166  0.75129  1
 Cu  Cu5  1  0.00576  0.66834  0.25129  1
 Cu  Cu6  1  0.50702  0.83193  0.00000  1
 S  S1  1  0.36827  0.65550  0.76536  1
 S  S2  1  0.86827  0.34450  0.73464  1
 S  S3  1  0.86827  0.34450  0.26536  1
 S  S4  1  0.36827  0.65550  0.23464  1
 S  S5  1  0.36939  0.18538  0.50000  1
 S  S6  1  0.86939  0.81462  0.00000  1
 S  S7  1  0.39984  0.16552  0.00000  1
 S  S8  1  0.89984  0.83448  0.50000  1
 Sb  Sb1  1  0.00458  0.16755  0.00000  1
 Sb  Sb2  1  0.50458  0.83245  0.50000  1
