CIF file written using JARVIS-Tools package.
data_K2TeI6
_symmetry_space_group_name_H-M  'P2_1/c'
_cell_length_a       7.91708
_cell_length_b       8.2843
_cell_length_c       13.8076
_cell_angle_alpha    90
_cell_angle_beta     124.403
_cell_angle_gamma    90

_symmetry_Int_Tables_number  14
_chemical_formula_structural  K2TeI6
_chemical_formula_sum  K4Te2I2
_cell_volume  747.2001523422135
_cell_formula_units_Z  2
loop_
  _symmetry_equiv_pos_site_id
 _symmetry_equiv_pos_as_xyz
 1  'x, y, z'
loop_
 _atom_site_type_symbol
 _atom_site_label
 _atom_site_symmetry_multiplicity
 _atom_site_fract_x
 _atom_site_fract_y
 _atom_site_fract_z
 _atom_site_fract_occupancy
 I  I1  1  0.64386  0.80159  0.95192  1
 I  I2  1  0.83790  0.99577  0.74550  1
 I  I3  1  0.16210  0.49577  0.75450  1
 I  I4  1  0.76778  0.30500  0.96092  1
 I  I5  1  0.83790  0.50423  0.24550  1
 I  I6  1  0.16210  0.00423  0.25450  1
 I  I7  1  0.35614  0.19841  0.04808  1
 I  I8  1  0.35614  0.30159  0.54808  1
 I  I9  1  0.23222  0.80500  0.53908  1
 I  I10  1  0.23222  0.69500  0.03908  1
 I  I11  1  0.76778  0.19500  0.46092  1
 I  I12  1  0.64386  0.69841  0.45192  1
 K  K1  1  0.71733  0.91385  0.24606  1
 K  K2  1  0.28267  0.41385  0.25394  1
 K  K3  1  0.28267  0.08615  0.75394  1
 K  K4  1  0.71733  0.58615  0.74606  1
 Te  Te1  1  -0.00000  0.50000  0.50000  1
 Te  Te2  1  0.00000  0.00000  0.00000  1
