CIF file written using JARVIS-Tools package.
data_LiIn2Ag
_symmetry_space_group_name_H-M  'Immm'
_cell_length_a       14.1496
_cell_length_b       7.56028
_cell_length_c       7.56028
_cell_angle_alpha    31.8207
_cell_angle_beta     20.645
_cell_angle_gamma    20.645

_symmetry_Int_Tables_number  71
_chemical_formula_structural  LiIn2Ag
_chemical_formula_sum  LiIn2Ag
_cell_volume  98.31538487604821
_cell_formula_units_Z  1
loop_
  _symmetry_equiv_pos_site_id
 _symmetry_equiv_pos_as_xyz
 1  'x, y, z'
loop_
 _atom_site_type_symbol
 _atom_site_label
 _atom_site_symmetry_multiplicity
 _atom_site_fract_x
 _atom_site_fract_y
 _atom_site_fract_z
 _atom_site_fract_occupancy
 Ag  Ag1  1  0.50000  -0.00000  -0.00000  1
 In  In1  1  0.69205  0.00000  0.00000  1
 In  In2  1  0.30795  -0.00000  -0.00000  1
 Li  Li1  1  0.00000  0.00000  0.00000  1
