CIF file written using JARVIS-Tools package.
data_MgSn2O4
_symmetry_space_group_name_H-M  'P-1'
_cell_length_a       3.20029
_cell_length_b       6.79228
_cell_length_c       9.42779
_cell_angle_alpha    99.217
_cell_angle_beta     96.7244
_cell_angle_gamma    103.225

_symmetry_Int_Tables_number  2
_chemical_formula_structural  MgSn2O4
_chemical_formula_sum  Mg2Sn4O8
_cell_volume  194.38728451021595
_cell_formula_units_Z  2
loop_
  _symmetry_equiv_pos_site_id
 _symmetry_equiv_pos_as_xyz
 1  'x, y, z'
loop_
 _atom_site_type_symbol
 _atom_site_label
 _atom_site_symmetry_multiplicity
 _atom_site_fract_x
 _atom_site_fract_y
 _atom_site_fract_z
 _atom_site_fract_occupancy
 Mg  Mg1  1  0.54168  0.17829  0.77977  1
 Mg  Mg2  1  0.49368  0.85477  0.24212  1
 O  O1  1  0.36015  0.54818  0.24963  1
 O  O2  1  0.36201  0.87389  0.78820  1
 O  O3  1  0.67338  0.15917  0.23368  1
 O  O4  1  0.67527  0.48488  0.77226  1
 O  O5  1  0.87635  0.70741  0.05021  1
 O  O6  1  0.95726  0.11891  0.64266  1
 O  O7  1  0.15906  0.32565  0.97168  1
 O  O8  1  0.07811  0.91415  0.37923  1
 Sn  Sn1  1  0.28523  0.62977  0.88688  1
 Sn  Sn2  1  0.19303  0.23837  0.44216  1
 Sn  Sn3  1  0.84235  0.79469  0.57973  1
 Sn  Sn4  1  0.75020  0.40330  0.13501  1
