CIF file written using JARVIS-Tools package.
data_Bi
_symmetry_space_group_name_H-M  'Cmcm'
_cell_length_a       4.63541
_cell_length_b       4.6354
_cell_length_c       6.55375
_cell_angle_alpha    89.9948
_cell_angle_beta     90
_cell_angle_gamma    90

_symmetry_Int_Tables_number  63
_chemical_formula_structural  Bi
_chemical_formula_sum  Bi4
_cell_volume  140.8200888337317
_cell_formula_units_Z  4
loop_
  _symmetry_equiv_pos_site_id
 _symmetry_equiv_pos_as_xyz
 1  'x, y, z'
loop_
 _atom_site_type_symbol
 _atom_site_label
 _atom_site_symmetry_multiplicity
 _atom_site_fract_x
 _atom_site_fract_y
 _atom_site_fract_z
 _atom_site_fract_occupancy
 Bi  Bi1  1  0.75000  0.24734  0.24983  1
 Bi  Bi2  1  0.75000  0.25266  0.74982  1
 Bi  Bi3  1  0.25000  0.74734  0.25018  1
 Bi  Bi4  1  0.25000  0.75266  0.75017  1
