CIF file written using JARVIS-Tools package.
data_Rb2TaCuS4
_symmetry_space_group_name_H-M  'Fddd'
_cell_length_a       5.60408
_cell_length_b       7.27884
_cell_length_c       12.1562
_cell_angle_alpha    84.9092
_cell_angle_beta     76.6732
_cell_angle_gamma    67.3589

_symmetry_Int_Tables_number  70
_chemical_formula_structural  Rb2TaCuS4
_chemical_formula_sum  Rb4Ta2Cu2S8
_cell_volume  445.3263552421049
_cell_formula_units_Z  2
loop_
  _symmetry_equiv_pos_site_id
 _symmetry_equiv_pos_as_xyz
 1  'x, y, z'
loop_
 _atom_site_type_symbol
 _atom_site_label
 _atom_site_symmetry_multiplicity
 _atom_site_fract_x
 _atom_site_fract_y
 _atom_site_fract_z
 _atom_site_fract_occupancy
 Cu  Cu1  1  0.12500  0.75000  0.75000  1
 Cu  Cu2  1  0.87500  0.25000  0.25000  1
 Rb  Rb1  1  0.80338  0.75000  0.39324  1
 Rb  Rb2  1  0.44662  0.75000  0.10676  1
 Rb  Rb3  1  0.19662  0.25000  0.60676  1
 Rb  Rb4  1  0.55338  0.25000  0.89324  1
 S  S1  1  0.09084  0.44726  0.13974  1
 S  S2  1  0.17783  0.05274  0.36026  1
 S  S3  1  0.82217  0.94726  0.63974  1
 S  S4  1  0.90916  0.55274  0.86026  1
 S  S5  1  0.23058  0.94726  0.86026  1
 S  S6  1  0.53810  0.55274  0.63974  1
 S  S7  1  0.46190  0.44726  0.36026  1
 S  S8  1  0.76942  0.05274  0.13974  1
 Ta  Ta1  1  0.62500  0.75000  0.75000  1
 Ta  Ta2  1  0.37500  0.25000  0.25000  1
