CIF file written using JARVIS-Tools package.
data_MoF5
_symmetry_space_group_name_H-M  'P-1'
_cell_length_a       5.1966
_cell_length_b       5.34616
_cell_length_c       7.28655
_cell_angle_alpha    98.2961
_cell_angle_beta     73.4401
_cell_angle_gamma    119.007

_symmetry_Int_Tables_number  2
_chemical_formula_structural  MoF5
_chemical_formula_sum  Mo2F0
_cell_volume  169.69398848141552
_cell_formula_units_Z  2
loop_
  _symmetry_equiv_pos_site_id
 _symmetry_equiv_pos_as_xyz
 1  'x, y, z'
loop_
 _atom_site_type_symbol
 _atom_site_label
 _atom_site_symmetry_multiplicity
 _atom_site_fract_x
 _atom_site_fract_y
 _atom_site_fract_z
 _atom_site_fract_occupancy
 F  F1  1  0.68716  0.86584  0.24861  1
 F  F2  1  0.31812  0.13388  0.74904  1
 F  F3  1  0.58622  0.31677  0.36923  1
 F  F4  1  0.18932  0.80356  0.04876  1
 F  F5  1  0.23609  0.31762  0.13009  1
 F  F6  1  0.88356  0.19664  0.55188  1
 F  F7  1  0.76922  0.68211  0.86755  1
 F  F8  1  0.12173  0.80309  0.44577  1
 F  F9  1  0.81598  0.19615  0.94889  1
 F  F10  1  0.41906  0.68295  0.62841  1
 Mo  Mo1  1  0.00265  -0.00014  0.99882  1
 Mo  Mo2  1  0.50264  -0.00014  0.49882  1
