CIF file written using JARVIS-Tools package.
data_Rb2TaCuSe4
_symmetry_space_group_name_H-M  'Fddd'
_cell_length_a       5.79279
_cell_length_b       7.51119
_cell_length_c       12.5849
_cell_angle_alpha    84.9084
_cell_angle_beta     76.6942
_cell_angle_gamma    67.3184

_symmetry_Int_Tables_number  70
_chemical_formula_structural  Rb2TaCuSe4
_chemical_formula_sum  Rb4Ta2Cu2Se8
_cell_volume  491.6643634117126
_cell_formula_units_Z  2
loop_
  _symmetry_equiv_pos_site_id
 _symmetry_equiv_pos_as_xyz
 1  'x, y, z'
loop_
 _atom_site_type_symbol
 _atom_site_label
 _atom_site_symmetry_multiplicity
 _atom_site_fract_x
 _atom_site_fract_y
 _atom_site_fract_z
 _atom_site_fract_occupancy
 Cu  Cu1  1  0.12500  0.75000  0.75000  1
 Cu  Cu2  1  0.87500  0.25000  0.25000  1
 Rb  Rb1  1  0.80439  0.75000  0.39121  1
 Rb  Rb2  1  0.44561  0.75000  0.10879  1
 Rb  Rb3  1  0.19561  0.25000  0.60879  1
 Rb  Rb4  1  0.55439  0.25000  0.89121  1
 Se  Se1  1  0.82295  0.95239  0.63628  1
 Se  Se2  1  0.91163  0.54761  0.86372  1
 Se  Se3  1  0.22465  0.95239  0.86372  1
 Se  Se4  1  0.54076  0.54761  0.63628  1
 Se  Se5  1  0.45924  0.45239  0.36372  1
 Se  Se6  1  0.77535  0.04761  0.13628  1
 Se  Se7  1  0.08837  0.45239  0.13628  1
 Se  Se8  1  0.17705  0.04761  0.36372  1
 Ta  Ta1  1  0.62500  0.75000  0.75000  1
 Ta  Ta2  1  0.37500  0.25000  0.25000  1
