CIF file written using JARVIS-Tools package.
data_Mn4ZnO8
_symmetry_space_group_name_H-M  'R-3m'
_cell_length_a       5.97129
_cell_length_b       5.97129
_cell_length_c       5.97129
_cell_angle_alpha    56.7914
_cell_angle_beta     56.7914
_cell_angle_gamma    56.7914

_symmetry_Int_Tables_number  166
_chemical_formula_structural  Mn4ZnO8
_chemical_formula_sum  Mn4ZnO8
_cell_volume  139.40313437709273
_cell_formula_units_Z  1
loop_
  _symmetry_equiv_pos_site_id
 _symmetry_equiv_pos_as_xyz
 1  'x, y, z'
loop_
 _atom_site_type_symbol
 _atom_site_label
 _atom_site_symmetry_multiplicity
 _atom_site_fract_x
 _atom_site_fract_y
 _atom_site_fract_z
 _atom_site_fract_occupancy
 Mn  Mn1  1  0.50000  1.00000  0.50000  1
 Mn  Mn2  1  1.00000  0.50000  0.50000  1
 Mn  Mn3  1  0.50000  0.50000  0.00000  1
 Mn  Mn4  1  0.00000  0.00000  0.00000  1
 O  O1  1  0.75831  0.27439  0.75831  1
 O  O2  1  0.24169  0.24169  0.72561  1
 O  O3  1  0.24169  0.72561  0.24169  1
 O  O4  1  0.72561  0.24169  0.24169  1
 O  O5  1  0.26754  0.26754  0.26754  1
 O  O6  1  0.73246  0.73246  0.73246  1
 O  O7  1  0.27439  0.75831  0.75831  1
 O  O8  1  0.75831  0.75831  0.27439  1
 Zn  Zn1  1  0.50000  0.50000  0.50000  1
