CIF file written using JARVIS-Tools package.
data_Rb3CuO2
_symmetry_space_group_name_H-M  'P2_1/c'
_cell_length_a       6.72793
_cell_length_b       9.71112
_cell_length_c       9.40259
_cell_angle_alpha    90
_cell_angle_beta     111.923
_cell_angle_gamma    90

_symmetry_Int_Tables_number  14
_chemical_formula_structural  Rb3CuO2
_chemical_formula_sum  Rb2Cu4O8
_cell_volume  569.9005993313503
_cell_formula_units_Z  4
loop_
  _symmetry_equiv_pos_site_id
 _symmetry_equiv_pos_as_xyz
 1  'x, y, z'
loop_
 _atom_site_type_symbol
 _atom_site_label
 _atom_site_symmetry_multiplicity
 _atom_site_fract_x
 _atom_site_fract_y
 _atom_site_fract_z
 _atom_site_fract_occupancy
 Cu  Cu1  1  0.29225  0.17958  0.82724  1
 Cu  Cu2  1  0.70775  0.67958  0.67276  1
 Cu  Cu3  1  0.70775  0.82042  0.17276  1
 Cu  Cu4  1  0.29225  0.32042  0.32724  1
 O  O1  1  0.48757  0.80202  0.62067  1
 O  O2  1  0.48757  0.69798  0.12067  1
 O  O3  1  0.06775  0.43945  0.27796  1
 O  O4  1  0.93225  0.93945  0.22204  1
 O  O5  1  0.93225  0.56055  0.72204  1
 O  O6  1  0.06775  0.06055  0.77796  1
 O  O7  1  0.51243  0.30202  0.87933  1
 O  O8  1  0.51243  0.19798  0.37933  1
 Rb  Rb1  1  0.23858  0.70962  0.31226  1
 Rb  Rb2  1  0.76142  0.29038  0.68774  1
 Rb  Rb3  1  0.23858  0.79038  0.81226  1
 Rb  Rb4  1  0.73466  0.97764  0.87512  1
 Rb  Rb5  1  0.75458  0.96400  0.49488  1
 Rb  Rb6  1  0.26534  0.02236  0.12488  1
 Rb  Rb7  1  0.73466  0.52236  0.37512  1
 Rb  Rb8  1  0.75458  0.53600  0.99488  1
 Rb  Rb9  1  0.24542  0.03600  0.50512  1
 Rb  Rb10  1  0.24542  0.46400  0.00512  1
 Rb  Rb11  1  0.76142  0.20962  0.18774  1
 Rb  Rb12  1  0.26534  0.47764  0.62488  1
