CIF file written using JARVIS-Tools package.
data_Zn2Bi2O5
_symmetry_space_group_name_H-M  'Pmc2_1'
_cell_length_a       3.57012
_cell_length_b       6.25998
_cell_length_c       12.2092
_cell_angle_alpha    89.9993
_cell_angle_beta     106.98
_cell_angle_gamma    90.0014

_symmetry_Int_Tables_number  26
_chemical_formula_structural  Zn2Bi2O5
_chemical_formula_sum  Zn4Bi4O0
_cell_volume  260.96703643972677
_cell_formula_units_Z  2
loop_
  _symmetry_equiv_pos_site_id
 _symmetry_equiv_pos_as_xyz
 1  'x, y, z'
loop_
 _atom_site_type_symbol
 _atom_site_label
 _atom_site_symmetry_multiplicity
 _atom_site_fract_x
 _atom_site_fract_y
 _atom_site_fract_z
 _atom_site_fract_occupancy
 Bi  Bi1  1  0.64109  0.35931  0.39128  1
 Bi  Bi2  1  -0.11751  0.76148  0.63236  1
 Bi  Bi3  1  0.14122  0.14068  0.89127  1
 Bi  Bi4  1  0.38243  0.73853  0.13237  1
 O  O1  1  0.06700  0.15160  0.31712  1
 O  O2  1  0.78467  0.03243  0.03489  1
 O  O3  1  -0.05509  0.10045  0.69492  1
 O  O4  1  0.09800  0.77135  0.84779  1
 O  O5  1  -0.71542  0.46757  0.53488  1
 O  O6  1  0.56714  0.34839  0.81713  1
 O  O7  1  0.30104  0.92329  0.55088  1
 O  O8  1  0.59788  0.72864  0.34779  1
 O  O9  1  0.44483  0.39955  0.19492  1
 O  O10  1  0.80098  0.57671  0.05089  1
 Zn  Zn1  1  0.39689  0.23665  0.64682  1
 Zn  Zn2  1  0.13397  0.86624  0.38393  1
 Zn  Zn3  1  0.63408  0.63375  0.88394  1
 Zn  Zn4  1  0.89680  0.26337  0.14682  1
