CIF file written using JARVIS-Tools package.
data_CoRh2O4
_symmetry_space_group_name_H-M  'Fd-3m'
_cell_length_a       6.03667
_cell_length_b       6.03671
_cell_length_c       6.03672
_cell_angle_alpha    59.9994
_cell_angle_beta     60.0013
_cell_angle_gamma    60.0014

_symmetry_Int_Tables_number  227
_chemical_formula_structural  CoRh2O4
_chemical_formula_sum  Co2Rh4O8
_cell_volume  155.5571668412162
_cell_formula_units_Z  2
loop_
  _symmetry_equiv_pos_site_id
 _symmetry_equiv_pos_as_xyz
 1  'x, y, z'
loop_
 _atom_site_type_symbol
 _atom_site_label
 _atom_site_symmetry_multiplicity
 _atom_site_fract_x
 _atom_site_fract_y
 _atom_site_fract_z
 _atom_site_fract_occupancy
 Co  Co1  1  0.12500  0.12500  0.12500  1
 Co  Co2  1  0.87500  0.87500  0.87500  1
 O  O1  1  0.74160  0.74156  0.74156  1
 O  O2  1  0.74156  0.27528  0.74159  1
 O  O3  1  0.74156  0.74160  0.27528  1
 O  O4  1  0.25844  0.25840  0.72472  1
 O  O5  1  0.25840  0.25844  0.25844  1
 O  O6  1  0.27528  0.74156  0.74156  1
 O  O7  1  0.25844  0.72472  0.25841  1
 O  O8  1  0.72472  0.25844  0.25844  1
 Rh  Rh1  1  0.50000  0.50000  -0.00000  1
 Rh  Rh2  1  0.50000  0.00000  0.50000  1
 Rh  Rh3  1  0.50000  0.50000  0.50000  1
 Rh  Rh4  1  -0.00000  0.50000  0.50000  1
