CIF file written using JARVIS-Tools package.
data_RbPrMo2O8
_symmetry_space_group_name_H-M  'P4/nnc'
_cell_length_a       6.3361
_cell_length_b       6.33577
_cell_length_c       9.67083
_cell_angle_alpha    90
_cell_angle_beta     90
_cell_angle_gamma    90

_symmetry_Int_Tables_number  126
_chemical_formula_structural  RbPrMo2O8
_chemical_formula_sum  Rb2Pr2Mo4O6
_cell_volume  388.22635582812256
_cell_formula_units_Z  2
loop_
  _symmetry_equiv_pos_site_id
 _symmetry_equiv_pos_as_xyz
 1  'x, y, z'
loop_
 _atom_site_type_symbol
 _atom_site_label
 _atom_site_symmetry_multiplicity
 _atom_site_fract_x
 _atom_site_fract_y
 _atom_site_fract_z
 _atom_site_fract_occupancy
 Mo  Mo1  1  0.50000  0.00000  0.25000  1
 Mo  Mo2  1  0.00000  0.50000  0.75000  1
 Mo  Mo3  1  0.00000  0.50000  0.25000  1
 Mo  Mo4  1  0.50000  0.00000  0.75000  1
 O  O1  1  0.80792  0.38259  0.13964  1
 O  O2  1  0.19208  0.61741  0.13964  1
 O  O3  1  0.38261  0.80789  0.86035  1
 O  O4  1  0.69208  0.88259  0.63964  1
 O  O5  1  0.69208  0.11741  0.36036  1
 O  O6  1  0.11739  0.30789  0.36035  1
 O  O7  1  0.80792  0.61741  0.86036  1
 O  O8  1  0.30792  0.88259  0.36036  1
 O  O9  1  0.11739  0.69211  0.63965  1
 O  O10  1  0.38261  0.19211  0.13965  1
 O  O11  1  0.88261  0.69211  0.36035  1
 O  O12  1  0.19208  0.38259  0.86036  1
 O  O13  1  0.61739  0.19211  0.86035  1
 O  O14  1  0.61739  0.80789  0.13965  1
 O  O15  1  0.88261  0.30789  0.63965  1
 O  O16  1  0.30792  0.11741  0.63964  1
 Pr  Pr1  1  0.50000  0.50000  0.00000  1
 Pr  Pr2  1  0.00000  0.00000  0.50000  1
 Rb  Rb1  1  0.50000  0.50000  0.50000  1
 Rb  Rb2  1  0.00000  0.00000  0.00000  1
