CIF file written using JARVIS-Tools package.
data_PbCClO2
_symmetry_space_group_name_H-M  'C2/m'
_cell_length_a       4.18222
_cell_length_b       4.18225
_cell_length_c       9.4453
_cell_angle_alpha    85.9752
_cell_angle_beta     85.973
_cell_angle_gamma    89.5613

_symmetry_Int_Tables_number  12
_chemical_formula_structural  PbCClO2
_chemical_formula_sum  Pb2C2Cl2O4
_cell_volume  164.39368798157602
_cell_formula_units_Z  2
loop_
  _symmetry_equiv_pos_site_id
 _symmetry_equiv_pos_as_xyz
 1  'x, y, z'
loop_
 _atom_site_type_symbol
 _atom_site_label
 _atom_site_symmetry_multiplicity
 _atom_site_fract_x
 _atom_site_fract_y
 _atom_site_fract_z
 _atom_site_fract_occupancy
 C  C1  1  0.63181  0.36818  0.50000  1
 C  C2  1  0.36819  0.63181  0.50000  1
 Cl  Cl1  1  0.72950  0.72949  0.11444  1
 Cl  Cl2  1  0.27050  0.27051  0.88556  1
 O  O1  1  0.32802  0.78975  0.60949  1
 O  O2  1  0.21025  0.67198  0.39051  1
 O  O3  1  0.78975  0.32802  0.60949  1
 O  O4  1  0.67198  0.21025  0.39051  1
 Pb  Pb1  1  0.78077  0.78079  0.77734  1
 Pb  Pb2  1  0.21923  0.21921  0.22266  1
