CIF file written using JARVIS-Tools package.
data_SrCu2GeSe4
_symmetry_space_group_name_H-M  'Ama2'
_cell_length_a       6.30784
_cell_length_b       6.30785
_cell_length_c       10.8908
_cell_angle_alpha    90
_cell_angle_beta     90
_cell_angle_gamma    116.821

_symmetry_Int_Tables_number  40
_chemical_formula_structural  SrCu2GeSe4
_chemical_formula_sum  Sr2Cu4Ge2Se8
_cell_volume  386.71427539179217
_cell_formula_units_Z  2
loop_
  _symmetry_equiv_pos_site_id
 _symmetry_equiv_pos_as_xyz
 1  'x, y, z'
loop_
 _atom_site_type_symbol
 _atom_site_label
 _atom_site_symmetry_multiplicity
 _atom_site_fract_x
 _atom_site_fract_y
 _atom_site_fract_z
 _atom_site_fract_occupancy
 Cu  Cu1  1  0.37080  0.80484  0.37008  1
 Cu  Cu2  1  0.80484  0.37080  0.62992  1
 Cu  Cu3  1  0.80484  0.37080  0.87008  1
 Cu  Cu4  1  0.37080  0.80484  0.12992  1
 Ge  Ge1  1  0.73473  0.43824  0.25000  1
 Ge  Ge2  1  0.43824  0.73473  0.75000  1
 Se  Se1  1  0.70446  0.80731  0.25000  1
 Se  Se2  1  0.80731  0.70446  0.75000  1
 Se  Se3  1  0.98968  0.47701  0.42439  1
 Se  Se4  1  0.47701  0.98968  0.57561  1
 Se  Se5  1  0.98968  0.47701  0.07561  1
 Se  Se6  1  0.47701  0.98968  0.92439  1
 Se  Se7  1  0.12828  0.33082  0.75000  1
 Se  Se8  1  0.33082  0.12828  0.25000  1
 Sr  Sr1  1  0.98904  0.98904  0.50000  1
 Sr  Sr2  1  0.98904  0.98904  0.00000  1
