CIF file written using JARVIS-Tools package.
data_SrBe2N2
_symmetry_space_group_name_H-M  'I4/mcm'
_cell_length_a       5.48971
_cell_length_b       5.48972
_cell_length_c       5.48971
_cell_angle_alpha    92.9697
_cell_angle_beta     118.3
_cell_angle_gamma    118.3

_symmetry_Int_Tables_number  140
_chemical_formula_structural  SrBe2N2
_chemical_formula_sum  Sr2Be4N4
_cell_volume  119.8171186666135
_cell_formula_units_Z  2
loop_
  _symmetry_equiv_pos_site_id
 _symmetry_equiv_pos_as_xyz
 1  'x, y, z'
loop_
 _atom_site_type_symbol
 _atom_site_label
 _atom_site_symmetry_multiplicity
 _atom_site_fract_x
 _atom_site_fract_y
 _atom_site_fract_z
 _atom_site_fract_occupancy
 Be  Be1  1  0.75406  0.12703  0.62703  1
 Be  Be2  1  0.50000  0.62703  0.87297  1
 Be  Be3  1  0.24594  0.87297  0.37297  1
 Be  Be4  1  0.50000  0.37297  0.12703  1
 N  N1  1  0.50000  0.16795  0.33205  1
 N  N2  1  0.83589  0.66795  0.16795  1
 N  N3  1  0.16411  0.33205  0.83205  1
 N  N4  1  0.50000  0.83205  0.66795  1
 Sr  Sr1  1  -0.00000  0.75000  0.75000  1
 Sr  Sr2  1  -0.00000  0.25000  0.25000  1
