CIF file written using JARVIS-Tools package.
data_ZrO2
_symmetry_space_group_name_H-M  'Pbca'
_cell_length_a       5.58106
_cell_length_b       5.81174
_cell_length_c       10.0306
_cell_angle_alpha    90
_cell_angle_beta     90
_cell_angle_gamma    90

_symmetry_Int_Tables_number  61
_chemical_formula_structural  ZrO2
_chemical_formula_sum  Zr8O6
_cell_volume  325.3488726856684
_cell_formula_units_Z  8
loop_
  _symmetry_equiv_pos_site_id
 _symmetry_equiv_pos_as_xyz
 1  'x, y, z'
loop_
 _atom_site_type_symbol
 _atom_site_label
 _atom_site_symmetry_multiplicity
 _atom_site_fract_x
 _atom_site_fract_y
 _atom_site_fract_z
 _atom_site_fract_occupancy
 O  O1  1  0.02442  0.87669  0.73198  1
 O  O2  1  0.82879  0.84493  0.01448  1
 O  O3  1  0.32879  0.65507  0.01448  1
 O  O4  1  0.47558  0.87669  0.23198  1
 O  O5  1  0.67121  0.34493  0.98552  1
 O  O6  1  0.47558  0.37669  0.26802  1
 O  O7  1  0.97558  0.12331  0.26802  1
 O  O8  1  0.97558  0.62331  0.23198  1
 O  O9  1  0.82879  0.34493  0.48552  1
 O  O10  1  0.67121  0.84493  0.51448  1
 O  O11  1  0.17121  0.65507  0.51448  1
 O  O12  1  0.17121  0.15507  0.98552  1
 O  O13  1  0.52442  0.62331  0.73198  1
 O  O14  1  0.02442  0.37669  0.76802  1
 O  O15  1  0.52442  0.12331  0.76802  1
 O  O16  1  0.32879  0.15507  0.48552  1
 Zr  Zr1  1  0.85196  0.09344  0.87017  1
 Zr  Zr2  1  0.35196  0.40656  0.87017  1
 Zr  Zr3  1  0.85196  0.59344  0.62983  1
 Zr  Zr4  1  0.35196  0.90656  0.62983  1
 Zr  Zr5  1  0.64804  0.09344  0.37017  1
 Zr  Zr6  1  0.14804  0.40656  0.37017  1
 Zr  Zr7  1  0.64804  0.59344  0.12983  1
 Zr  Zr8  1  0.14804  0.90656  0.12983  1
