CIF file written using JARVIS-Tools package.
data_CaO2
_symmetry_space_group_name_H-M  'C2/m'
_cell_length_a       3.99487
_cell_length_b       3.35988
_cell_length_c       3.32856
_cell_angle_alpha    90
_cell_angle_beta     66.6293
_cell_angle_gamma    114.868

_symmetry_Int_Tables_number  12
_chemical_formula_structural  CaO2
_chemical_formula_sum  CaO2
_cell_volume  36.454843872554434
_cell_formula_units_Z  1
loop_
  _symmetry_equiv_pos_site_id
 _symmetry_equiv_pos_as_xyz
 1  'x, y, z'
loop_
 _atom_site_type_symbol
 _atom_site_label
 _atom_site_symmetry_multiplicity
 _atom_site_fract_x
 _atom_site_fract_y
 _atom_site_fract_z
 _atom_site_fract_occupancy
 Ca  Ca1  1  0.00000  0.00000  0.00000  1
 O  O1  1  0.22589  0.61294  0.44409  1
 O  O2  1  0.77411  0.38706  0.55591  1
