CIF file written using JARVIS-Tools package.
data_Rb2LiVO4
_symmetry_space_group_name_H-M  'Cmc2_1'
_cell_length_a       5.88214
_cell_length_b       6.53172
_cell_length_c       7.90662
_cell_angle_alpha    90
_cell_angle_beta     90
_cell_angle_gamma    116.761

_symmetry_Int_Tables_number  36
_chemical_formula_structural  Rb2LiVO4
_chemical_formula_sum  Rb4Li2V2O8
_cell_volume  271.23867537608186
_cell_formula_units_Z  2
loop_
  _symmetry_equiv_pos_site_id
 _symmetry_equiv_pos_as_xyz
 1  'x, y, z'
loop_
 _atom_site_type_symbol
 _atom_site_label
 _atom_site_symmetry_multiplicity
 _atom_site_fract_x
 _atom_site_fract_y
 _atom_site_fract_z
 _atom_site_fract_occupancy
 Li  Li1  1  0.79926  0.59853  0.82924  1
 Li  Li2  1  0.20074  0.40147  0.32924  1
 O  O1  1  0.40439  0.28961  0.21831  1
 O  O2  1  0.59561  0.71039  0.71831  1
 O  O3  1  0.63363  0.26725  0.90801  1
 O  O4  1  0.36637  0.73275  0.40801  1
 O  O5  1  0.88522  0.28961  0.21831  1
 O  O6  1  0.11478  0.71039  0.71831  1
 O  O7  1  0.16231  0.32461  0.57764  1
 O  O8  1  0.83769  0.67539  0.07764  1
 Rb  Rb1  1  0.60495  0.20990  0.55022  1
 Rb  Rb2  1  0.39505  0.79010  0.05022  1
 Rb  Rb3  1  0.93815  0.87630  0.40857  1
 Rb  Rb4  1  0.06185  0.12370  0.90857  1
 V  V1  1  0.30974  0.61948  0.61100  1
 V  V2  1  0.69026  0.38052  0.11100  1
