CIF file written using JARVIS-Tools package.
data_Na3AgO2
_symmetry_space_group_name_H-M  'Ibam'
_cell_length_a       5.45971
_cell_length_b       5.9424
_cell_length_c       6.78
_cell_angle_alpha    115.991
_cell_angle_beta     113.743
_cell_angle_gamma    90

_symmetry_Int_Tables_number  72
_chemical_formula_structural  Na3AgO2
_chemical_formula_sum  Na6Ag2O4
_cell_volume  176.77577440259904
_cell_formula_units_Z  2
loop_
  _symmetry_equiv_pos_site_id
 _symmetry_equiv_pos_as_xyz
 1  'x, y, z'
loop_
 _atom_site_type_symbol
 _atom_site_label
 _atom_site_symmetry_multiplicity
 _atom_site_fract_x
 _atom_site_fract_y
 _atom_site_fract_z
 _atom_site_fract_occupancy
 Ag  Ag1  1  0.00000  0.50000  0.00000  1
 Ag  Ag2  1  0.00000  0.00000  0.00000  1
 Na  Na1  1  0.76069  0.01069  0.52137  1
 Na  Na2  1  0.50000  0.25000  0.00000  1
 Na  Na3  1  0.76069  0.51069  0.52137  1
 Na  Na4  1  0.23931  0.98931  0.47863  1
 Na  Na5  1  0.50000  0.75000  0.00000  1
 Na  Na6  1  0.23931  0.48931  0.47863  1
 O  O1  1  0.13909  0.36460  0.72920  1
 O  O2  1  0.40988  0.13540  0.27080  1
 O  O3  1  0.86091  0.63540  0.27080  1
 O  O4  1  0.59012  0.86460  0.72920  1
