CIF file written using JARVIS-Tools package.
data_ErBiO3
_symmetry_space_group_name_H-M  'R-3'
_cell_length_a       5.97347
_cell_length_b       5.97382
_cell_length_c       6.04881
_cell_angle_alpha    60.4055
_cell_angle_beta     119.589
_cell_angle_gamma    120.002

_symmetry_Int_Tables_number  148
_chemical_formula_structural  ErBiO3
_chemical_formula_sum  Er2Bi2O6
_cell_volume  153.56111692339164
_cell_formula_units_Z  2
loop_
  _symmetry_equiv_pos_site_id
 _symmetry_equiv_pos_as_xyz
 1  'x, y, z'
loop_
 _atom_site_type_symbol
 _atom_site_label
 _atom_site_symmetry_multiplicity
 _atom_site_fract_x
 _atom_site_fract_y
 _atom_site_fract_z
 _atom_site_fract_occupancy
 Bi  Bi1  1  0.63939  0.36061  0.91816  1
 Bi  Bi2  1  0.36061  0.63939  0.08184  1
 Er  Er1  1  0.85822  0.14180  0.57463  1
 Er  Er2  1  0.14178  0.85820  0.42537  1
 O  O1  1  0.99148  0.78464  0.75213  1
 O  O2  1  0.54528  0.00854  0.75212  1
 O  O3  1  0.21534  0.45468  0.75214  1
 O  O4  1  0.78466  0.54532  0.24786  1
 O  O5  1  0.45472  0.99146  0.24788  1
 O  O6  1  0.00852  0.21536  0.24787  1
