CIF file written using JARVIS-Tools package.
data_MgBi
_symmetry_space_group_name_H-M  'P4/mmm'
_cell_length_a       5.67673
_cell_length_b       3.35111
_cell_length_c       5.6768
_cell_angle_alpha    90
_cell_angle_beta     90
_cell_angle_gamma    90

_symmetry_Int_Tables_number  123
_chemical_formula_structural  MgBi
_chemical_formula_sum  Mg2Bi2
_cell_volume  107.9916681036874
_cell_formula_units_Z  2
loop_
  _symmetry_equiv_pos_site_id
 _symmetry_equiv_pos_as_xyz
 1  'x, y, z'
loop_
 _atom_site_type_symbol
 _atom_site_label
 _atom_site_symmetry_multiplicity
 _atom_site_fract_x
 _atom_site_fract_y
 _atom_site_fract_z
 _atom_site_fract_occupancy
 Bi  Bi1  1  0.75000  0.50000  0.24997  1
 Bi  Bi2  1  0.25000  0.50000  0.75003  1
 Mg  Mg1  1  0.75000  0.00000  0.74995  1
 Mg  Mg2  1  0.25000  0.00000  0.25005  1
