CIF file written using JARVIS-Tools package.
data_V2S5
_symmetry_space_group_name_H-M  'P2_1'
_cell_length_a       4.16985
_cell_length_b       5.91021
_cell_length_c       13.8753
_cell_angle_alpha    89.9977
_cell_angle_beta     90.0002
_cell_angle_gamma    87.6875

_symmetry_Int_Tables_number  4
_chemical_formula_structural  V2S5
_chemical_formula_sum  V4S0
_cell_volume  341.67395857753814
_cell_formula_units_Z  2
loop_
  _symmetry_equiv_pos_site_id
 _symmetry_equiv_pos_as_xyz
 1  'x, y, z'
loop_
 _atom_site_type_symbol
 _atom_site_label
 _atom_site_symmetry_multiplicity
 _atom_site_fract_x
 _atom_site_fract_y
 _atom_site_fract_z
 _atom_site_fract_occupancy
 S  S1  1  0.53678  0.90877  0.17970  1
 S  S2  1  -0.06090  0.08255  0.32742  1
 S  S3  1  0.00038  0.09121  0.67970  1
 S  S4  1  0.59803  0.91745  0.82742  1
 S  S5  1  0.16250  0.42063  0.87442  1
 S  S6  1  0.48649  0.58496  0.62884  1
 S  S7  1  0.37459  0.57937  0.37443  1
 S  S8  1  0.50652  0.05777  0.49885  1
 S  S9  1  0.03061  0.94223  -0.00114  1
 S  S10  1  0.05066  0.41505  0.12883  1
 V  V1  1  0.03842  0.07503  0.14528  1
 V  V2  1  0.41658  0.91271  0.34549  1
 V  V3  1  0.49876  0.92498  0.64528  1
 V  V4  1  0.12058  0.08729  0.84549  1
