CIF file written using JARVIS-Tools package.
data_LiSc2Ga
_symmetry_space_group_name_H-M  'I4/mmm'
_cell_length_a       15.3253
_cell_length_b       8.03178
_cell_length_c       8.03178
_cell_angle_alpha    24.4714
_cell_angle_beta     17.4386
_cell_angle_gamma    17.4386

_symmetry_Int_Tables_number  139
_chemical_formula_structural  LiSc2Ga
_chemical_formula_sum  LiSc2Ga
_cell_volume  88.78835330826759
_cell_formula_units_Z  1
loop_
  _symmetry_equiv_pos_site_id
 _symmetry_equiv_pos_as_xyz
 1  'x, y, z'
loop_
 _atom_site_type_symbol
 _atom_site_label
 _atom_site_symmetry_multiplicity
 _atom_site_fract_x
 _atom_site_fract_y
 _atom_site_fract_z
 _atom_site_fract_occupancy
 Ga  Ga1  1  0.50000  0.00000  -0.00000  1
 Li  Li1  1  0.00000  0.00000  0.00000  1
 Sc  Sc1  1  0.68098  -0.00000  0.00000  1
 Sc  Sc2  1  0.31902  0.00000  -0.00000  1
