CIF file written using JARVIS-Tools package.
data_Ba2PrNbO6
_symmetry_space_group_name_H-M  'R-3'
_cell_length_a       6.1127
_cell_length_b       6.11281
_cell_length_c       6.11252
_cell_angle_alpha    60.7628
_cell_angle_beta     60.7635
_cell_angle_gamma    60.7628

_symmetry_Int_Tables_number  148
_chemical_formula_structural  Ba2PrNbO6
_chemical_formula_sum  Ba2PrNbO6
_cell_volume  164.2830590189923
_cell_formula_units_Z  1
loop_
  _symmetry_equiv_pos_site_id
 _symmetry_equiv_pos_as_xyz
 1  'x, y, z'
loop_
 _atom_site_type_symbol
 _atom_site_label
 _atom_site_symmetry_multiplicity
 _atom_site_fract_x
 _atom_site_fract_y
 _atom_site_fract_z
 _atom_site_fract_occupancy
 Ba  Ba1  1  0.25196  0.25197  0.25196  1
 Ba  Ba2  1  0.74804  0.74803  0.74804  1
 Nb  Nb1  1  0.50000  0.50000  0.50000  1
 O  O1  1  0.78819  0.67238  0.27444  1
 O  O2  1  0.27443  0.78817  0.67239  1
 O  O3  1  0.67238  0.27442  0.78819  1
 O  O4  1  0.21181  0.32762  0.72556  1
 O  O5  1  0.32762  0.72558  0.21181  1
 O  O6  1  0.72557  0.21183  0.32761  1
 Pr  Pr1  1  0.00000  0.00000  -0.00000  1
