CIF file written using JARVIS-Tools package.
data_Tb3Ni
_symmetry_space_group_name_H-M  'Pnma'
_cell_length_a       6.27541
_cell_length_b       6.80728
_cell_length_c       9.56138
_cell_angle_alpha    90
_cell_angle_beta     90
_cell_angle_gamma    90

_symmetry_Int_Tables_number  62
_chemical_formula_structural  Tb3Ni
_chemical_formula_sum  Tb2Ni4
_cell_volume  408.4481450139625
_cell_formula_units_Z  4
loop_
  _symmetry_equiv_pos_site_id
 _symmetry_equiv_pos_as_xyz
 1  'x, y, z'
loop_
 _atom_site_type_symbol
 _atom_site_label
 _atom_site_symmetry_multiplicity
 _atom_site_fract_x
 _atom_site_fract_y
 _atom_site_fract_z
 _atom_site_fract_occupancy
 Ni  Ni1  1  0.56040  0.88900  0.25000  1
 Ni  Ni2  1  0.06040  0.61100  0.75000  1
 Ni  Ni3  1  0.43960  0.11100  0.75000  1
 Ni  Ni4  1  0.93960  0.38900  0.25000  1
 Tb  Tb1  1  0.14145  0.03142  0.25000  1
 Tb  Tb2  1  0.64145  0.46858  0.75000  1
 Tb  Tb3  1  0.32391  0.82091  0.56504  1
 Tb  Tb4  1  0.67609  0.17909  0.43496  1
 Tb  Tb5  1  0.35855  0.53142  0.25000  1
 Tb  Tb6  1  0.85855  0.96858  0.75000  1
 Tb  Tb7  1  0.82391  0.67909  0.06504  1
 Tb  Tb8  1  0.67609  0.17909  0.06504  1
 Tb  Tb9  1  0.32391  0.82091  0.93496  1
 Tb  Tb10  1  0.82391  0.67909  0.43496  1
 Tb  Tb11  1  0.17609  0.32091  0.93496  1
 Tb  Tb12  1  0.17609  0.32091  0.56504  1
