CIF file written using JARVIS-Tools package.
data_ZnCrSi2O6
_symmetry_space_group_name_H-M  'C2/c'
_cell_length_a       5.32582
_cell_length_b       6.85471
_cell_length_c       6.85471
_cell_angle_alpha    87.6697
_cell_angle_beta     74.8988
_cell_angle_gamma    74.8988

_symmetry_Int_Tables_number  15
_chemical_formula_structural  ZnCrSi2O6
_chemical_formula_sum  Zn2Cr2Si4O2
_cell_volume  233.16036371037436
_cell_formula_units_Z  2
loop_
  _symmetry_equiv_pos_site_id
 _symmetry_equiv_pos_as_xyz
 1  'x, y, z'
loop_
 _atom_site_type_symbol
 _atom_site_label
 _atom_site_symmetry_multiplicity
 _atom_site_fract_x
 _atom_site_fract_y
 _atom_site_fract_z
 _atom_site_fract_occupancy
 Cr  Cr1  1  0.25000  0.10083  0.89917  1
 Cr  Cr2  1  0.75000  0.89917  0.10083  1
 O  O1  1  0.85346  0.21270  0.03377  1
 O  O2  1  0.47916  0.32483  0.38097  1
 O  O3  1  0.35346  0.03377  0.21270  1
 O  O4  1  0.52084  0.67517  0.61903  1
 O  O5  1  0.97916  0.38097  0.32483  1
 O  O6  1  0.02084  0.61903  0.67517  1
 O  O7  1  0.37703  0.38466  0.85496  1
 O  O8  1  0.87703  0.85497  0.38466  1
 O  O9  1  0.14654  0.78730  0.96623  1
 O  O10  1  0.12297  0.14503  0.61534  1
 O  O11  1  0.64654  0.96623  0.78730  1
 O  O12  1  0.62297  0.61534  0.14504  1
 Si  Si1  1  0.76680  0.78194  0.61260  1
 Si  Si2  1  0.73320  0.38740  0.21806  1
 Si  Si3  1  0.26679  0.61260  0.78194  1
 Si  Si4  1  0.23320  0.21806  0.38740  1
 Zn  Zn1  1  0.25000  0.75957  0.24043  1
 Zn  Zn2  1  0.75000  0.24043  0.75957  1
