CIF file written using JARVIS-Tools package.
data_NiPb2N6O12
_symmetry_space_group_name_H-M  'Fm-3m'
_cell_length_a       7.19006
_cell_length_b       7.19006
_cell_length_c       7.19006
_cell_angle_alpha    60
_cell_angle_beta     60
_cell_angle_gamma    60

_symmetry_Int_Tables_number  225
_chemical_formula_structural  NiPb2N6O12
_chemical_formula_sum  NiPb2N6O2
_cell_volume  262.8341344694282
_cell_formula_units_Z  1
loop_
  _symmetry_equiv_pos_site_id
 _symmetry_equiv_pos_as_xyz
 1  'x, y, z'
loop_
 _atom_site_type_symbol
 _atom_site_label
 _atom_site_symmetry_multiplicity
 _atom_site_fract_x
 _atom_site_fract_y
 _atom_site_fract_z
 _atom_site_fract_occupancy
 N  N1  1  0.18763  0.18763  0.81237  1
 N  N2  1  0.18763  0.81237  0.81237  1
 N  N3  1  0.81237  0.18763  0.18763  1
 N  N4  1  0.81237  0.18763  0.81237  1
 N  N5  1  0.18763  0.81237  0.18763  1
 N  N6  1  0.81237  0.81237  0.18763  1
 Ni  Ni1  1  0.00000  0.00000  0.00000  1
 O  O1  1  0.65860  0.34140  0.00000  1
 O  O2  1  0.34140  -0.00000  0.65860  1
 O  O3  1  0.00000  0.34140  1.00000  1
 O  O4  1  0.00000  0.65860  0.34140  1
 O  O5  1  0.00000  0.34140  0.65860  1
 O  O6  1  0.34140  0.65860  0.00000  1
 O  O7  1  1.00000  -0.00000  0.65860  1
 O  O8  1  0.65860  0.00000  0.34140  1
 O  O9  1  0.00000  0.00000  0.34140  1
 O  O10  1  0.65860  0.00000  -0.00000  1
 O  O11  1  0.34140  -0.00000  0.00000  1
 O  O12  1  0.00000  0.65860  0.00000  1
 Pb  Pb1  1  0.75000  0.75000  0.75000  1
 Pb  Pb2  1  0.25000  0.25000  0.25000  1
