CIF file written using JARVIS-Tools package.
data_TaAgO3
_symmetry_space_group_name_H-M  'R-3c'
_cell_length_a       5.63399
_cell_length_b       5.63399
_cell_length_c       5.63399
_cell_angle_alpha    58.9437
_cell_angle_beta     58.9437
_cell_angle_gamma    58.9437

_symmetry_Int_Tables_number  167
_chemical_formula_structural  TaAgO3
_chemical_formula_sum  Ta2Ag2O6
_cell_volume  123.40628363481322
_cell_formula_units_Z  2
loop_
  _symmetry_equiv_pos_site_id
 _symmetry_equiv_pos_as_xyz
 1  'x, y, z'
loop_
 _atom_site_type_symbol
 _atom_site_label
 _atom_site_symmetry_multiplicity
 _atom_site_fract_x
 _atom_site_fract_y
 _atom_site_fract_z
 _atom_site_fract_occupancy
 Ag  Ag1  1  0.25037  0.25037  0.25037  1
 Ag  Ag2  1  0.75037  0.75037  0.75037  1
 O  O1  1  0.31448  0.75056  0.18648  1
 O  O2  1  0.75056  0.18648  0.31448  1
 O  O3  1  0.18648  0.31448  0.75056  1
 O  O4  1  0.68648  0.25056  0.81448  1
 O  O5  1  0.81448  0.68648  0.25056  1
 O  O6  1  0.25056  0.81448  0.68648  1
 Ta  Ta1  1  0.00031  0.00031  0.00031  1
 Ta  Ta2  1  0.50031  0.50031  0.50031  1
