CIF file written using JARVIS-Tools package.
data_Ho
_symmetry_space_group_name_H-M  'R-3m'
_cell_length_a       3.51125
_cell_length_b       3.51125
_cell_length_c       8.64533
_cell_angle_alpha    78.2834
_cell_angle_beta     78.2834
_cell_angle_gamma    60.0002

_symmetry_Int_Tables_number  166
_chemical_formula_structural  Ho
_chemical_formula_sum  Ho3
_cell_volume  89.73382019281304
_cell_formula_units_Z  3
loop_
  _symmetry_equiv_pos_site_id
 _symmetry_equiv_pos_as_xyz
 1  'x, y, z'
loop_
 _atom_site_type_symbol
 _atom_site_label
 _atom_site_symmetry_multiplicity
 _atom_site_fract_x
 _atom_site_fract_y
 _atom_site_fract_z
 _atom_site_fract_occupancy
 Ho  Ho1  1  0.00000  0.00000  0.00000  1
 Ho  Ho2  1  0.22207  0.22207  0.33380  1
 Ho  Ho3  1  0.77793  0.77793  0.66620  1
