CIF file written using JARVIS-Tools package.
data_CoBr
_symmetry_space_group_name_H-M  'P6/mmm'
_cell_length_a       3.43908
_cell_length_b       3.43908
_cell_length_c       4.50365
_cell_angle_alpha    90
_cell_angle_beta     90
_cell_angle_gamma    120

_symmetry_Int_Tables_number  191
_chemical_formula_structural  CoBr
_chemical_formula_sum  CoBr
_cell_volume  46.12961395832314
_cell_formula_units_Z  1
loop_
  _symmetry_equiv_pos_site_id
 _symmetry_equiv_pos_as_xyz
 1  'x, y, z'
loop_
 _atom_site_type_symbol
 _atom_site_label
 _atom_site_symmetry_multiplicity
 _atom_site_fract_x
 _atom_site_fract_y
 _atom_site_fract_z
 _atom_site_fract_occupancy
 Br  Br1  1  0.00000  0.00000  0.50000  1
 Co  Co1  1  0.00000  0.00000  0.00000  1
