CIF file written using JARVIS-Tools package.
data_Zn2Mo3O8
_symmetry_space_group_name_H-M  'C2/m'
_cell_length_a       5.28971
_cell_length_b       5.76976
_cell_length_c       6.73977
_cell_angle_alpha    115.343
_cell_angle_beta     120.04
_cell_angle_gamma    90

_symmetry_Int_Tables_number  12
_chemical_formula_structural  Zn2Mo3O8
_chemical_formula_sum  Zn2Mo3O8
_cell_volume  154.77742253018826
_cell_formula_units_Z  1
loop_
  _symmetry_equiv_pos_site_id
 _symmetry_equiv_pos_as_xyz
 1  'x, y, z'
loop_
 _atom_site_type_symbol
 _atom_site_label
 _atom_site_symmetry_multiplicity
 _atom_site_fract_x
 _atom_site_fract_y
 _atom_site_fract_z
 _atom_site_fract_occupancy
 Mo  Mo1  1  0.50001  1.00000  0.00000  1
 Mo  Mo2  1  -0.00000  0.70884  0.00000  1
 Mo  Mo3  1  -0.00000  0.29116  0.00000  1
 O  O1  1  -0.01179  0.36697  0.73395  1
 O  O2  1  0.01179  0.63303  0.26606  1
 O  O3  1  0.02193  0.89152  0.78304  1
 O  O4  1  0.97808  0.10848  0.21697  1
 O  O5  1  0.44852  0.35140  0.20618  1
 O  O6  1  0.44852  0.85478  0.20618  1
 O  O7  1  0.55148  0.14521  0.79381  1
 O  O8  1  0.55148  0.64860  0.79381  1
 Zn  Zn1  1  0.74301  0.70026  0.40053  1
 Zn  Zn2  1  0.25699  0.29974  0.59948  1
