CIF file written using JARVIS-Tools package.
data_LiNdTiO4
_symmetry_space_group_name_H-M  'P4/nmm'
_cell_length_a       3.73312
_cell_length_b       3.73312
_cell_length_c       12.1801
_cell_angle_alpha    90
_cell_angle_beta     90
_cell_angle_gamma    90

_symmetry_Int_Tables_number  129
_chemical_formula_structural  LiNdTiO4
_chemical_formula_sum  Li2Nd2Ti2O8
_cell_volume  169.74316285548386
_cell_formula_units_Z  2
loop_
  _symmetry_equiv_pos_site_id
 _symmetry_equiv_pos_as_xyz
 1  'x, y, z'
loop_
 _atom_site_type_symbol
 _atom_site_label
 _atom_site_symmetry_multiplicity
 _atom_site_fract_x
 _atom_site_fract_y
 _atom_site_fract_z
 _atom_site_fract_occupancy
 Li  Li1  1  0.00000  0.00000  0.50000  1
 Li  Li2  1  0.50000  0.50000  0.50000  1
 Nd  Nd1  1  0.50000  0.00000  0.11662  1
 Nd  Nd2  1  0.00000  0.50000  0.88338  1
 O  O1  1  0.50000  0.00000  0.92434  1
 O  O2  1  0.00000  0.50000  0.07566  1
 O  O3  1  0.50000  0.00000  0.55960  1
 O  O4  1  0.00000  0.50000  0.44040  1
 O  O5  1  0.50000  0.50000  0.74864  1
 O  O6  1  0.00000  0.00000  0.74864  1
 O  O7  1  0.00000  0.00000  0.25136  1
 O  O8  1  0.50000  0.50000  0.25136  1
 Ti  Ti1  1  0.50000  0.00000  0.70725  1
 Ti  Ti2  1  0.00000  0.50000  0.29275  1
