CIF file written using JARVIS-Tools package.
data_KCN
_symmetry_space_group_name_H-M  'Imm2'
_cell_length_a       6.08019
_cell_length_b       4.53686
_cell_length_c       4.53687
_cell_angle_alpha    71.8538
_cell_angle_beta     47.926
_cell_angle_gamma    47.9259

_symmetry_Int_Tables_number  44
_chemical_formula_structural  KCN
_chemical_formula_sum  KCN
_cell_volume  66.77055944164687
_cell_formula_units_Z  1
loop_
  _symmetry_equiv_pos_site_id
 _symmetry_equiv_pos_as_xyz
 1  'x, y, z'
loop_
 _atom_site_type_symbol
 _atom_site_label
 _atom_site_symmetry_multiplicity
 _atom_site_fract_x
 _atom_site_fract_y
 _atom_site_fract_z
 _atom_site_fract_occupancy
 C  C1  1  0.50000  0.10293  0.89707  1
 K  K1  1  0.00000  0.01514  0.98486  1
 N  N1  1  0.50000  0.88192  0.11808  1
