CIF file written using JARVIS-Tools package.
data_InPO4
_symmetry_space_group_name_H-M  'Cmcm'
_cell_length_a       4.84088
_cell_length_b       4.84088
_cell_length_c       6.85452
_cell_angle_alpha    90
_cell_angle_beta     90
_cell_angle_gamma    112.441

_symmetry_Int_Tables_number  63
_chemical_formula_structural  InPO4
_chemical_formula_sum  In2P2O8
_cell_volume  148.46542366073956
_cell_formula_units_Z  2
loop_
  _symmetry_equiv_pos_site_id
 _symmetry_equiv_pos_as_xyz
 1  'x, y, z'
loop_
 _atom_site_type_symbol
 _atom_site_label
 _atom_site_symmetry_multiplicity
 _atom_site_fract_x
 _atom_site_fract_y
 _atom_site_fract_z
 _atom_site_fract_occupancy
 In  In1  1  0.00000  0.00000  0.50000  1
 In  In2  1  0.00000  0.00000  0.00000  1
 O  O1  1  0.25563  0.74437  0.56016  1
 O  O2  1  0.74437  0.25563  0.06016  1
 O  O3  1  0.74437  0.25563  0.43984  1
 O  O4  1  0.25563  0.74437  0.93984  1
 O  O5  1  0.70703  0.76982  0.75000  1
 O  O6  1  0.29297  0.23018  0.25000  1
 O  O7  1  0.76982  0.70703  0.25000  1
 O  O8  1  0.23018  0.29297  0.75000  1
 P  P1  1  0.64574  0.35426  0.25000  1
 P  P2  1  0.35426  0.64574  0.75000  1
