CIF file written using JARVIS-Tools package.
data_TlV3Cr2S8
_symmetry_space_group_name_H-M  'C2/m'
_cell_length_a       3.35841
_cell_length_b       8.70283
_cell_length_c       8.80449
_cell_angle_alpha    102.514
_cell_angle_beta     100.995
_cell_angle_gamma    90.0002

_symmetry_Int_Tables_number  12
_chemical_formula_structural  TlV3Cr2S8
_chemical_formula_sum  TlV3Cr2S8
_cell_volume  246.38029153874794
_cell_formula_units_Z  1
loop_
  _symmetry_equiv_pos_site_id
 _symmetry_equiv_pos_as_xyz
 1  'x, y, z'
loop_
 _atom_site_type_symbol
 _atom_site_label
 _atom_site_symmetry_multiplicity
 _atom_site_fract_x
 _atom_site_fract_y
 _atom_site_fract_z
 _atom_site_fract_occupancy
 Cr  Cr1  1  0.20454  0.83156  0.40908  1
 Cr  Cr2  1  0.79546  0.16844  0.59092  1
 S  S1  1  0.07137  0.67204  0.14274  1
 S  S2  1  0.33062  0.00659  0.66124  1
 S  S3  1  0.26212  0.35052  0.52425  1
 S  S4  1  0.41364  0.68404  0.82733  1
 S  S5  1  0.58636  0.31596  0.17267  1
 S  S6  1  0.92863  0.32796  0.85726  1
 S  S7  1  0.73788  0.64948  0.47575  1
 S  S8  1  0.66938  0.99341  0.33876  1
 Tl  Tl1  1  0.00000  0.00000  0.00000  1
 V  V1  1  0.14631  0.48553  0.29257  1
 V  V2  1  0.85369  0.51446  0.70743  1
 V  V3  1  0.50000  0.50000  0.00000  1
