CIF file written using JARVIS-Tools package.
data_FeCuS2
_symmetry_space_group_name_H-M  'R3m'
_cell_length_a       3.40828
_cell_length_b       3.40828
_cell_length_c       6.28588
_cell_angle_alpha    74.2699
_cell_angle_beta     74.2699
_cell_angle_gamma    60

_symmetry_Int_Tables_number  160
_chemical_formula_structural  FeCuS2
_chemical_formula_sum  FeCuS2
_cell_volume  60.058206034446194
_cell_formula_units_Z  1
loop_
  _symmetry_equiv_pos_site_id
 _symmetry_equiv_pos_as_xyz
 1  'x, y, z'
loop_
 _atom_site_type_symbol
 _atom_site_label
 _atom_site_symmetry_multiplicity
 _atom_site_fract_x
 _atom_site_fract_y
 _atom_site_fract_z
 _atom_site_fract_occupancy
 Cu  Cu1  1  0.85365  0.85365  0.43906  1
 Fe  Fe1  1  0.00065  0.00065  0.99806  1
 S  S1  1  0.73101  0.73101  0.80696  1
 S  S2  1  0.26169  0.26169  0.21493  1
