CIF file written using JARVIS-Tools package.
data_MgCrF4
_symmetry_space_group_name_H-M  'C2/c'
_cell_length_a       4.98337
_cell_length_b       5.68443
_cell_length_c       6.2183
_cell_angle_alpha    117.198
_cell_angle_beta     109.875
_cell_angle_gamma    89.9997

_symmetry_Int_Tables_number  15
_chemical_formula_structural  MgCrF4
_chemical_formula_sum  Mg2Cr2F8
_cell_volume  144.77614429416792
_cell_formula_units_Z  2
loop_
  _symmetry_equiv_pos_site_id
 _symmetry_equiv_pos_as_xyz
 1  'x, y, z'
loop_
 _atom_site_type_symbol
 _atom_site_label
 _atom_site_symmetry_multiplicity
 _atom_site_fract_x
 _atom_site_fract_y
 _atom_site_fract_z
 _atom_site_fract_occupancy
 Cr  Cr1  1  0.99808  0.50074  0.99900  1
 Cr  Cr2  1  0.49807  0.00073  0.99900  1
 F  F1  1  0.81272  0.49805  0.23441  1
 F  F2  1  0.66785  0.20934  0.70543  1
 F  F3  1  0.18346  0.50346  0.76360  1
 F  F4  1  0.16785  0.99859  0.70544  1
 F  F5  1  0.32828  0.79215  0.29256  1
 F  F6  1  0.31270  0.23885  0.23440  1
 F  F7  1  0.82828  0.00291  0.29257  1
 F  F8  1  0.68345  0.76265  0.76361  1
 Mg  Mg1  1  0.24806  0.17948  0.49900  1
 Mg  Mg2  1  0.74807  0.82201  0.49900  1
