CIF file written using JARVIS-Tools package.
data_Ge3N4
_symmetry_space_group_name_H-M  'P6_3/m'
_cell_length_a       8.1286
_cell_length_b       8.1286
_cell_length_c       3.11571
_cell_angle_alpha    90
_cell_angle_beta     90
_cell_angle_gamma    120

_symmetry_Int_Tables_number  176
_chemical_formula_structural  Ge3N4
_chemical_formula_sum  Ge6N8
_cell_volume  178.2868882978588
_cell_formula_units_Z  2
loop_
  _symmetry_equiv_pos_site_id
 _symmetry_equiv_pos_as_xyz
 1  'x, y, z'
loop_
 _atom_site_type_symbol
 _atom_site_label
 _atom_site_symmetry_multiplicity
 _atom_site_fract_x
 _atom_site_fract_y
 _atom_site_fract_z
 _atom_site_fract_occupancy
 Ge  Ge1  1  0.59369  0.82992  0.75000  1
 Ge  Ge2  1  0.76377  0.59369  0.25000  1
 Ge  Ge3  1  0.82992  0.23623  0.25000  1
 Ge  Ge4  1  0.17008  0.76377  0.75000  1
 Ge  Ge5  1  0.23623  0.40631  0.75000  1
 Ge  Ge6  1  0.40631  0.17008  0.25000  1
 N  N1  1  0.33333  0.66667  0.75000  1
 N  N2  1  0.66667  0.33333  0.25000  1
 N  N3  1  0.69602  0.66939  0.75000  1
 N  N4  1  0.02663  0.69602  0.25000  1
 N  N5  1  0.66939  0.97337  0.25000  1
 N  N6  1  0.33061  0.02663  0.75000  1
 N  N7  1  0.30398  0.33061  0.25000  1
 N  N8  1  0.97337  0.30398  0.75000  1
