CIF file written using JARVIS-Tools package.
data_NaFeO2
_symmetry_space_group_name_H-M  'Pna2_1'
_cell_length_a       5.38546
_cell_length_b       5.73759
_cell_length_c       7.19961
_cell_angle_alpha    90
_cell_angle_beta     90
_cell_angle_gamma    90

_symmetry_Int_Tables_number  33
_chemical_formula_structural  NaFeO2
_chemical_formula_sum  Na4Fe4O8
_cell_volume  222.4647649492777
_cell_formula_units_Z  4
loop_
  _symmetry_equiv_pos_site_id
 _symmetry_equiv_pos_as_xyz
 1  'x, y, z'
loop_
 _atom_site_type_symbol
 _atom_site_label
 _atom_site_symmetry_multiplicity
 _atom_site_fract_x
 _atom_site_fract_y
 _atom_site_fract_z
 _atom_site_fract_occupancy
 Fe  Fe1  1  -0.00044  0.56867  0.37350  1
 Fe  Fe2  1  0.49956  0.43133  0.62650  1
 Fe  Fe3  1  0.49956  0.93133  0.87350  1
 Fe  Fe4  1  -0.00044  0.06867  0.12650  1
 Na  Na1  1  0.48757  0.92414  0.37824  1
 Na  Na2  1  0.98757  0.07586  0.62176  1
 Na  Na3  1  0.98757  0.57586  0.87824  1
 Na  Na4  1  0.48757  0.42414  0.12176  1
 O  O1  1  0.91809  0.89034  0.34130  1
 O  O2  1  0.41809  0.10966  0.65870  1
 O  O3  1  0.41809  0.60966  0.84130  1
 O  O4  1  0.91809  0.39034  0.15870  1
 O  O5  1  0.34978  0.54569  0.40690  1
 O  O6  1  0.84978  0.45431  0.59310  1
 O  O7  1  0.84978  0.95431  0.90690  1
 O  O8  1  0.34978  0.04569  0.09310  1
