CIF file written using JARVIS-Tools package.
data_N
_symmetry_space_group_name_H-M  'I4/mmm'
_cell_length_a       3.25115
_cell_length_b       3.25115
_cell_length_c       2.25168
_cell_angle_alpha    90
_cell_angle_beta     90
_cell_angle_gamma    139.484

_symmetry_Int_Tables_number  139
_chemical_formula_structural  N
_chemical_formula_sum  N2
_cell_volume  15.462057114974058
_cell_formula_units_Z  2
loop_
  _symmetry_equiv_pos_site_id
 _symmetry_equiv_pos_as_xyz
 1  'x, y, z'
loop_
 _atom_site_type_symbol
 _atom_site_label
 _atom_site_symmetry_multiplicity
 _atom_site_fract_x
 _atom_site_fract_y
 _atom_site_fract_z
 _atom_site_fract_occupancy
 N  N1  1  0.74997  0.25003  0.75000  1
 N  N2  1  0.25003  0.74997  0.25000  1
