CIF file written using JARVIS-Tools package.
data_Sb2Te3
_symmetry_space_group_name_H-M  'R-3m'
_cell_length_a       10.5463
_cell_length_b       10.5463
_cell_length_c       10.5463
_cell_angle_alpha    23.7912
_cell_angle_beta     23.7913
_cell_angle_gamma    23.7912

_symmetry_Int_Tables_number  166
_chemical_formula_structural  Sb2Te3
_chemical_formula_sum  Sb2Te3
_cell_volume  167.69235686015577
_cell_formula_units_Z  1
loop_
  _symmetry_equiv_pos_site_id
 _symmetry_equiv_pos_as_xyz
 1  'x, y, z'
loop_
 _atom_site_type_symbol
 _atom_site_label
 _atom_site_symmetry_multiplicity
 _atom_site_fract_x
 _atom_site_fract_y
 _atom_site_fract_z
 _atom_site_fract_occupancy
 Sb  Sb1  1  0.60165  0.60165  0.60165  1
 Sb  Sb2  1  0.39835  0.39835  0.39835  1
 Te  Te1  1  0.78746  0.78746  0.78746  1
 Te  Te2  1  0.21254  0.21254  0.21254  1
 Te  Te3  1  0.00000  0.00000  0.00000  1
