CIF file written using JARVIS-Tools package.
data_Te4Mo2WSe2
_symmetry_space_group_name_H-M  'Cm'
_cell_length_a       3.48891
_cell_length_b       3.48891
_cell_length_c       21.0142
_cell_angle_alpha    85.2071
_cell_angle_beta     90
_cell_angle_gamma    120

_symmetry_Int_Tables_number  8
_chemical_formula_structural  Te4Mo2WSe2
_chemical_formula_sum  Te4Mo2WSe2
_cell_volume  220.4911519053992
_cell_formula_units_Z  1
loop_
  _symmetry_equiv_pos_site_id
 _symmetry_equiv_pos_as_xyz
 1  'x, y, z'
loop_
 _atom_site_type_symbol
 _atom_site_label
 _atom_site_symmetry_multiplicity
 _atom_site_fract_x
 _atom_site_fract_y
 _atom_site_fract_z
 _atom_site_fract_occupancy
 Mo  Mo1  1  0.44157  0.88314  0.02130  1
 Mo  Mo2  1  0.66725  0.33449  0.34689  1
 Se  Se1  1  0.30787  0.61573  0.42445  1
 Se  Se2  1  0.35996  0.71993  0.26933  1
 Te  Te1  1  0.80446  0.60893  0.93323  1
 Te  Te2  1  0.58755  0.17509  0.58431  1
 Te  Te3  1  0.74534  0.49068  0.10933  1
 Te  Te4  1  0.52812  0.05625  0.76120  1
 W  W1  1  0.22448  0.44896  0.67280  1
