CIF file written using JARVIS-Tools package.
data_Rb
_symmetry_space_group_name_H-M  'Cmcm'
_cell_length_a       4.95018
_cell_length_b       4.9613
_cell_length_c       9.46647
_cell_angle_alpha    121.565
_cell_angle_beta     105.212
_cell_angle_gamma    59.8923

_symmetry_Int_Tables_number  63
_chemical_formula_structural  Rb
_chemical_formula_sum  Rb2
_cell_volume  171.36724899493672
_cell_formula_units_Z  2
loop_
  _symmetry_equiv_pos_site_id
 _symmetry_equiv_pos_as_xyz
 1  'x, y, z'
loop_
 _atom_site_type_symbol
 _atom_site_label
 _atom_site_symmetry_multiplicity
 _atom_site_fract_x
 _atom_site_fract_y
 _atom_site_fract_z
 _atom_site_fract_occupancy
 Rb  Rb1  1  0.15531  0.40466  0.75156  1
 Rb  Rb2  1  0.82663  0.56932  0.25138  1
