CIF file written using JARVIS-Tools package.
data_Na6S2O9
_symmetry_space_group_name_H-M  'Fm-3m'
_cell_length_a       6.8357
_cell_length_b       6.8357
_cell_length_c       6.83571
_cell_angle_alpha    60
_cell_angle_beta     60
_cell_angle_gamma    60

_symmetry_Int_Tables_number  225
_chemical_formula_structural  Na6S2O9
_chemical_formula_sum  Na6S2O9
_cell_volume  225.85777274137203
_cell_formula_units_Z  1
loop_
  _symmetry_equiv_pos_site_id
 _symmetry_equiv_pos_as_xyz
 1  'x, y, z'
loop_
 _atom_site_type_symbol
 _atom_site_label
 _atom_site_symmetry_multiplicity
 _atom_site_fract_x
 _atom_site_fract_y
 _atom_site_fract_z
 _atom_site_fract_occupancy
 Na  Na1  1  0.76291  0.76291  0.23709  1
 Na  Na2  1  0.23709  0.76291  0.76291  1
 Na  Na3  1  0.76291  0.23709  0.23709  1
 Na  Na4  1  0.23709  0.76291  0.23709  1
 Na  Na5  1  0.76291  0.23709  0.76291  1
 Na  Na6  1  0.23709  0.23709  0.76291  1
 O  O1  1  0.66117  0.66117  0.01650  1
 O  O2  1  0.33883  0.33883  0.33883  1
 O  O3  1  0.33883  0.98350  0.33883  1
 O  O4  1  0.98350  0.33883  0.33883  1
 O  O5  1  0.00000  0.00000  0.00000  1
 O  O6  1  0.66117  0.66117  0.66117  1
 O  O7  1  0.66117  0.01650  0.66117  1
 O  O8  1  0.01650  0.66117  0.66117  1
 O  O9  1  0.33883  0.33883  0.98350  1
 S  S1  1  0.75000  0.75000  0.75000  1
 S  S2  1  0.25000  0.25000  0.25000  1
