CIF file written using JARVIS-Tools package.
data_Bi2O5
_symmetry_space_group_name_H-M  'Cmcm'
_cell_length_a       10.0833
_cell_length_b       5.94958
_cell_length_c       4.26972
_cell_angle_alpha    111.028
_cell_angle_beta     90
_cell_angle_gamma    90

_symmetry_Int_Tables_number  63
_chemical_formula_structural  Bi2O5
_chemical_formula_sum  Bi4O0
_cell_volume  239.089130555283
_cell_formula_units_Z  2
loop_
  _symmetry_equiv_pos_site_id
 _symmetry_equiv_pos_as_xyz
 1  'x, y, z'
loop_
 _atom_site_type_symbol
 _atom_site_label
 _atom_site_symmetry_multiplicity
 _atom_site_fract_x
 _atom_site_fract_y
 _atom_site_fract_z
 _atom_site_fract_occupancy
 Bi  Bi1  1  0.18810  0.77353  0.88676  1
 Bi  Bi2  1  0.31190  0.22647  0.61324  1
 Bi  Bi3  1  0.68810  0.22647  0.61324  1
 Bi  Bi4  1  0.81190  0.77353  0.88676  1
 O  O1  1  0.00000  0.94081  0.97040  1
 O  O2  1  0.12258  0.40741  0.70370  1
 O  O3  1  0.21380  0.86842  0.43421  1
 O  O4  1  0.28620  0.13158  0.06579  1
 O  O5  1  0.37742  0.59259  0.79630  1
 O  O6  1  0.50000  0.05919  0.52960  1
 O  O7  1  0.62258  0.59259  0.79630  1
 O  O8  1  0.87742  0.40741  0.70370  1
 O  O9  1  0.71380  0.13158  0.06579  1
 O  O10  1  0.78620  0.86842  0.43421  1
