CIF file written using JARVIS-Tools package.
data_In6Ge2PtO9
_symmetry_space_group_name_H-M  'Fm-3m'
_cell_length_a       7.22726
_cell_length_b       7.22727
_cell_length_c       7.22726
_cell_angle_alpha    60
_cell_angle_beta     60
_cell_angle_gamma    60

_symmetry_Int_Tables_number  225
_chemical_formula_structural  In6Ge2PtO9
_chemical_formula_sum  In6Ge2PtO9
_cell_volume  266.93562424353
_cell_formula_units_Z  1
loop_
  _symmetry_equiv_pos_site_id
 _symmetry_equiv_pos_as_xyz
 1  'x, y, z'
loop_
 _atom_site_type_symbol
 _atom_site_label
 _atom_site_symmetry_multiplicity
 _atom_site_fract_x
 _atom_site_fract_y
 _atom_site_fract_z
 _atom_site_fract_occupancy
 Ge  Ge1  1  0.75000  0.75000  0.75000  1
 Ge  Ge2  1  0.25000  0.25000  0.25000  1
 In  In1  1  0.73894  0.73894  0.26106  1
 In  In2  1  0.73894  0.26106  0.73894  1
 In  In3  1  0.73894  0.26106  0.26106  1
 In  In4  1  0.26106  0.73894  0.73894  1
 In  In5  1  0.26106  0.73894  0.26106  1
 In  In6  1  0.26106  0.26106  0.73894  1
 O  O1  1  0.05212  0.64929  0.64929  1
 O  O2  1  0.35071  0.35071  0.35071  1
 O  O3  1  0.35071  0.35071  0.94788  1
 O  O4  1  0.35071  0.94788  0.35071  1
 O  O5  1  0.64929  0.64929  0.05212  1
 O  O6  1  0.64929  0.05212  0.64929  1
 O  O7  1  0.50000  0.50000  0.50000  1
 O  O8  1  0.64929  0.64929  0.64929  1
 O  O9  1  0.94788  0.35071  0.35071  1
 Pt  Pt1  1  0.00000  0.00000  0.00000  1
