CIF file written using JARVIS-Tools package.
data_RbBrF4
_symmetry_space_group_name_H-M  'I4/mcm'
_cell_length_a       6.98738
_cell_length_b       6.98738
_cell_length_c       6.82228
_cell_angle_alpha    120.804
_cell_angle_beta     120.804
_cell_angle_gamma    90

_symmetry_Int_Tables_number  140
_chemical_formula_structural  RbBrF4
_chemical_formula_sum  Rb2Br2F8
_cell_volume  229.6869007699496
_cell_formula_units_Z  2
loop_
  _symmetry_equiv_pos_site_id
 _symmetry_equiv_pos_as_xyz
 1  'x, y, z'
loop_
 _atom_site_type_symbol
 _atom_site_label
 _atom_site_symmetry_multiplicity
 _atom_site_fract_x
 _atom_site_fract_y
 _atom_site_fract_z
 _atom_site_fract_occupancy
 Br  Br1  1  0.50000  -0.00000  0.00000  1
 Br  Br2  1  0.00000  0.50000  0.00000  1
 F  F1  1  0.99207  0.49207  0.27650  1
 F  F2  1  0.71557  0.21557  0.72350  1
 F  F3  1  0.00793  0.50793  0.72350  1
 F  F4  1  0.21557  0.00793  0.72350  1
 F  F5  1  0.28443  0.78443  0.27650  1
 F  F6  1  0.49207  0.28443  0.27650  1
 F  F7  1  0.78443  0.99207  0.27650  1
 F  F8  1  0.50793  0.71557  0.72350  1
 Rb  Rb1  1  0.50000  0.50000  0.00000  1
 Rb  Rb2  1  0.00000  0.00000  0.00000  1
