CIF file written using JARVIS-Tools package.
data_MgWO3
_symmetry_space_group_name_H-M  'Cm'
_cell_length_a       4.02139
_cell_length_b       4.02135
_cell_length_c       3.95262
_cell_angle_alpha    97.4087
_cell_angle_beta     97.4052
_cell_angle_gamma    94.5125

_symmetry_Int_Tables_number  8
_chemical_formula_structural  MgWO3
_chemical_formula_sum  MgWO3
_cell_volume  62.56134674246306
_cell_formula_units_Z  1
loop_
  _symmetry_equiv_pos_site_id
 _symmetry_equiv_pos_as_xyz
 1  'x, y, z'
loop_
 _atom_site_type_symbol
 _atom_site_label
 _atom_site_symmetry_multiplicity
 _atom_site_fract_x
 _atom_site_fract_y
 _atom_site_fract_z
 _atom_site_fract_occupancy
 Mg  Mg1  1  0.52097  0.53265  0.30801  1
 O  O1  1  -0.01779  0.47889  0.08825  1
 O  O2  1  0.46722  -0.00612  0.08825  1
 O  O3  1  0.94943  0.96110  0.56607  1
 W  W1  1  0.96683  0.97850  0.06277  1
