CIF file written using JARVIS-Tools package.
data_MgMnSiO5
_symmetry_space_group_name_H-M  'P-1'
_cell_length_a       5.05407
_cell_length_b       5.37807
_cell_length_c       6.7819
_cell_angle_alpha    105.521
_cell_angle_beta     100.352
_cell_angle_gamma    109.288

_symmetry_Int_Tables_number  2
_chemical_formula_structural  MgMnSiO5
_chemical_formula_sum  Mg2Mn2Si2O0
_cell_volume  160.1988851922403
_cell_formula_units_Z  2
loop_
  _symmetry_equiv_pos_site_id
 _symmetry_equiv_pos_as_xyz
 1  'x, y, z'
loop_
 _atom_site_type_symbol
 _atom_site_label
 _atom_site_symmetry_multiplicity
 _atom_site_fract_x
 _atom_site_fract_y
 _atom_site_fract_z
 _atom_site_fract_occupancy
 Mg  Mg1  1  0.35652  0.21786  0.77151  1
 Mg  Mg2  1  0.64254  0.78308  0.24125  1
 Mn  Mn1  1  -0.00048  0.50049  0.50647  1
 Mn  Mn2  1  -0.00046  0.50048  0.00647  1
 O  O1  1  0.69969  0.63616  0.90989  1
 O  O2  1  0.98367  0.85542  0.66182  1
 O  O3  1  0.29937  0.36485  0.10305  1
 O  O4  1  0.01538  0.14556  0.35111  1
 O  O5  1  0.59343  0.29464  0.47703  1
 O  O6  1  0.30048  0.87267  0.12621  1
 O  O7  1  0.40559  0.70636  0.53593  1
 O  O8  1  0.69859  0.12833  0.88671  1
 O  O9  1  0.88829  0.55894  0.25506  1
 O  O10  1  0.11076  0.44201  0.75787  1
 Si  Si1  1  0.69322  0.82248  0.74823  1
 Si  Si2  1  0.30583  0.17852  0.26470  1
