CIF file written using JARVIS-Tools package.
data_TmLuRu2
_symmetry_space_group_name_H-M  'Fm-3m'
_cell_length_a       4.71009
_cell_length_b       4.71027
_cell_length_c       4.71021
_cell_angle_alpha    59.9963
_cell_angle_beta     59.9992
_cell_angle_gamma    59.9977

_symmetry_Int_Tables_number  225
_chemical_formula_structural  TmLuRu2
_chemical_formula_sum  TmLuRu2
_cell_volume  73.88888894294267
_cell_formula_units_Z  1
loop_
  _symmetry_equiv_pos_site_id
 _symmetry_equiv_pos_as_xyz
 1  'x, y, z'
loop_
 _atom_site_type_symbol
 _atom_site_label
 _atom_site_symmetry_multiplicity
 _atom_site_fract_x
 _atom_site_fract_y
 _atom_site_fract_z
 _atom_site_fract_occupancy
 Lu  Lu1  1  0.25001  0.24999  0.24999  1
 Ru  Ru1  1  0.99998  0.00001  0.00002  1
 Ru  Ru2  1  0.50001  0.50000  0.50000  1
 Tm  Tm1  1  0.75000  0.75001  0.74999  1
