CIF file written using JARVIS-Tools package.
data_CaFe4O8
_symmetry_space_group_name_H-M  'R-3m'
_cell_length_a       6.39739
_cell_length_b       6.39738
_cell_length_c       6.39739
_cell_angle_alpha    51.917
_cell_angle_beta     51.917
_cell_angle_gamma    51.917

_symmetry_Int_Tables_number  166
_chemical_formula_structural  CaFe4O8
_chemical_formula_sum  CaFe4O8
_cell_volume  149.94593016653118
_cell_formula_units_Z  1
loop_
  _symmetry_equiv_pos_site_id
 _symmetry_equiv_pos_as_xyz
 1  'x, y, z'
loop_
 _atom_site_type_symbol
 _atom_site_label
 _atom_site_symmetry_multiplicity
 _atom_site_fract_x
 _atom_site_fract_y
 _atom_site_fract_z
 _atom_site_fract_occupancy
 Ca  Ca1  1  0.50000  0.50000  0.50000  1
 Fe  Fe1  1  0.50000  1.00000  0.50000  1
 Fe  Fe2  1  1.00000  0.50000  0.50000  1
 Fe  Fe3  1  0.50000  0.50000  0.00000  1
 Fe  Fe4  1  0.00000  0.00000  0.00000  1
 O  O1  1  0.77115  0.27248  0.77115  1
 O  O2  1  0.22885  0.22885  0.72752  1
 O  O3  1  0.22885  0.72752  0.22885  1
 O  O4  1  0.72751  0.22885  0.22885  1
 O  O5  1  0.27342  0.27342  0.27342  1
 O  O6  1  0.72658  0.72658  0.72658  1
 O  O7  1  0.27249  0.77115  0.77115  1
 O  O8  1  0.77115  0.77115  0.27248  1
