CIF file written using JARVIS-Tools package.
data_Au2O3
_symmetry_space_group_name_H-M  'Fdd2'
_cell_length_a       3.90817
_cell_length_b       5.66665
_cell_length_c       6.78753
_cell_angle_alpha    84.3025
_cell_angle_beta     73.2681
_cell_angle_gamma    69.828

_symmetry_Int_Tables_number  43
_chemical_formula_structural  Au2O3
_chemical_formula_sum  Au4O6
_cell_volume  135.12400188524276
_cell_formula_units_Z  2
loop_
  _symmetry_equiv_pos_site_id
 _symmetry_equiv_pos_as_xyz
 1  'x, y, z'
loop_
 _atom_site_type_symbol
 _atom_site_label
 _atom_site_symmetry_multiplicity
 _atom_site_fract_x
 _atom_site_fract_y
 _atom_site_fract_z
 _atom_site_fract_occupancy
 Au  Au1  1  0.93429  0.23351  0.40827  1
 Au  Au2  1  0.57606  0.76649  0.59173  1
 Au  Au3  1  0.41779  0.26649  0.90827  1
 Au  Au4  1  0.59256  0.73351  0.09173  1
 O  O1  1  0.43684  0.50000  0.50000  1
 O  O2  1  0.18684  0.00000  0.00000  1
 O  O3  1  0.77214  0.03734  0.66410  1
 O  O4  1  0.47357  0.96266  0.33590  1
 O  O5  1  0.68623  0.53734  0.83590  1
 O  O6  1  0.05948  0.46266  0.16410  1
