CIF file written using JARVIS-Tools package.
data_Mg3Mn
_symmetry_space_group_name_H-M  'Pmm2'
_cell_length_a       6.08349
_cell_length_b       3.10505
_cell_length_c       4.85011
_cell_angle_alpha    90
_cell_angle_beta     90
_cell_angle_gamma    120.691

_symmetry_Int_Tables_number  25
_chemical_formula_structural  Mg3Mn
_chemical_formula_sum  Mg3Mn
_cell_volume  78.783922850202
_cell_formula_units_Z  1
loop_
  _symmetry_equiv_pos_site_id
 _symmetry_equiv_pos_as_xyz
 1  'x, y, z'
loop_
 _atom_site_type_symbol
 _atom_site_label
 _atom_site_symmetry_multiplicity
 _atom_site_fract_x
 _atom_site_fract_y
 _atom_site_fract_z
 _atom_site_fract_occupancy
 Mg  Mg1  1  0.66915  0.66915  0.25000  1
 Mg  Mg2  1  0.31895  0.31895  0.75000  1
 Mg  Mg3  1  0.84009  0.34009  0.75000  1
 Mn  Mn1  1  0.17182  0.67182  0.25000  1
