CIF file written using JARVIS-Tools package.
data_UH2O4
_symmetry_space_group_name_H-M  'Cmce'
_cell_length_a       5.53897
_cell_length_b       5.53897
_cell_length_c       6.85008
_cell_angle_alpha    90
_cell_angle_beta     90
_cell_angle_gamma    44.7916

_symmetry_Int_Tables_number  64
_chemical_formula_structural  UH2O4
_chemical_formula_sum  U2H4O8
_cell_volume  148.06515393791304
_cell_formula_units_Z  2
loop_
  _symmetry_equiv_pos_site_id
 _symmetry_equiv_pos_as_xyz
 1  'x, y, z'
loop_
 _atom_site_type_symbol
 _atom_site_label
 _atom_site_symmetry_multiplicity
 _atom_site_fract_x
 _atom_site_fract_y
 _atom_site_fract_z
 _atom_site_fract_occupancy
 H  H1  1  0.16881  0.16881  0.64343  1
 H  H2  1  0.83119  0.83119  0.35657  1
 H  H3  1  0.33119  0.33119  0.14343  1
 H  H4  1  0.66881  0.66881  0.85657  1
 O  O1  1  0.33504  0.33504  0.60140  1
 O  O2  1  0.66496  0.66496  0.39860  1
 O  O3  1  0.16496  0.16496  0.10140  1
 O  O4  1  0.83504  0.83504  0.89860  1
 O  O5  1  0.07128  0.07128  0.65003  1
 O  O6  1  0.92872  0.92872  0.34997  1
 O  O7  1  0.42872  0.42872  0.15003  1
 O  O8  1  0.57128  0.57128  0.84997  1
 U  U1  1  0.50000  0.50000  0.50000  1
 U  U2  1  0.00000  0.00000  0.00000  1
