CIF file written using JARVIS-Tools package.
data_PH4Br
_symmetry_space_group_name_H-M  'P4/nmm'
_cell_length_a       5.97286
_cell_length_b       5.97286
_cell_length_c       4.34581
_cell_angle_alpha    90
_cell_angle_beta     90
_cell_angle_gamma    90

_symmetry_Int_Tables_number  129
_chemical_formula_structural  PH4Br
_chemical_formula_sum  P2H8Br2
_cell_volume  155.03694054396914
_cell_formula_units_Z  2
loop_
  _symmetry_equiv_pos_site_id
 _symmetry_equiv_pos_as_xyz
 1  'x, y, z'
loop_
 _atom_site_type_symbol
 _atom_site_label
 _atom_site_symmetry_multiplicity
 _atom_site_fract_x
 _atom_site_fract_y
 _atom_site_fract_z
 _atom_site_fract_occupancy
 Br  Br1  1  0.50000  0.00000  0.38879  1
 Br  Br2  1  0.00000  0.50000  0.61121  1
 H  H1  1  0.50000  0.69182  0.80883  1
 H  H2  1  0.80818  0.00000  0.80883  1
 H  H3  1  0.00000  0.19182  0.19117  1
 H  H4  1  0.69182  0.50000  0.19117  1
 H  H5  1  0.30818  0.50000  0.19117  1
 H  H6  1  0.00000  0.80818  0.19117  1
 H  H7  1  0.50000  0.30818  0.80883  1
 H  H8  1  0.19182  0.00000  0.80883  1
 P  P1  1  0.00000  0.00000  0.00000  1
 P  P2  1  0.50000  0.50000  0.00000  1
