CIF file written using JARVIS-Tools package.
data_In6TeO12
_symmetry_space_group_name_H-M  'R-3'
_cell_length_a       6.30685
_cell_length_b       6.30684
_cell_length_c       6.30684
_cell_angle_alpha    98.7115
_cell_angle_beta     98.7115
_cell_angle_gamma    98.7115

_symmetry_Int_Tables_number  148
_chemical_formula_structural  In6TeO12
_chemical_formula_sum  In6TeO2
_cell_volume  241.17184343860768
_cell_formula_units_Z  1
loop_
  _symmetry_equiv_pos_site_id
 _symmetry_equiv_pos_as_xyz
 1  'x, y, z'
loop_
 _atom_site_type_symbol
 _atom_site_label
 _atom_site_symmetry_multiplicity
 _atom_site_fract_x
 _atom_site_fract_y
 _atom_site_fract_z
 _atom_site_fract_occupancy
 In  In1  1  0.14062  0.60577  0.31849  1
 In  In2  1  0.31849  0.14062  0.60577  1
 In  In3  1  0.39423  0.68151  0.85938  1
 In  In4  1  0.85938  0.39423  0.68151  1
 In  In5  1  0.68151  0.85938  0.39423  1
 In  In6  1  0.60577  0.31849  0.14062  1
 O  O1  1  0.58124  0.40513  0.82447  1
 O  O2  1  0.40513  0.82447  0.58124  1
 O  O3  1  0.17553  0.41876  0.59487  1
 O  O4  1  0.41876  0.59487  0.17553  1
 O  O5  1  0.59487  0.17553  0.41876  1
 O  O6  1  0.82447  0.58124  0.40513  1
 O  O7  1  0.30109  0.08721  0.95874  1
 O  O8  1  0.95874  0.30109  0.08721  1
 O  O9  1  0.69891  0.91279  0.04126  1
 O  O10  1  0.04126  0.69891  0.91279  1
 O  O11  1  0.91279  0.04126  0.69891  1
 O  O12  1  0.08721  0.95874  0.30109  1
 Te  Te1  1  0.00000  0.00000  0.00000  1
