CIF file written using JARVIS-Tools package.
data_TiMnO3
_symmetry_space_group_name_H-M  'Pnma'
_cell_length_a       5.16313
_cell_length_b       5.34649
_cell_length_c       7.53198
_cell_angle_alpha    90
_cell_angle_beta     90
_cell_angle_gamma    90

_symmetry_Int_Tables_number  62
_chemical_formula_structural  TiMnO3
_chemical_formula_sum  Ti4Mn4O2
_cell_volume  207.91771917694683
_cell_formula_units_Z  4
loop_
  _symmetry_equiv_pos_site_id
 _symmetry_equiv_pos_as_xyz
 1  'x, y, z'
loop_
 _atom_site_type_symbol
 _atom_site_label
 _atom_site_symmetry_multiplicity
 _atom_site_fract_x
 _atom_site_fract_y
 _atom_site_fract_z
 _atom_site_fract_occupancy
 Mn  Mn1  1  0.00960  0.95093  0.75000  1
 Mn  Mn2  1  0.99040  0.04907  0.25000  1
 Mn  Mn3  1  0.50960  0.54907  0.25000  1
 Mn  Mn4  1  0.49040  0.45093  0.75000  1
 O  O1  1  0.11861  0.44897  0.25000  1
 O  O2  1  0.81633  0.81117  0.06225  1
 O  O3  1  0.68367  0.31117  0.43775  1
 O  O4  1  0.18367  0.18883  0.93775  1
 O  O5  1  0.81633  0.81117  0.43775  1
 O  O6  1  0.31633  0.68883  0.93775  1
 O  O7  1  0.88139  0.55103  0.75000  1
 O  O8  1  0.31633  0.68883  0.56225  1
 O  O9  1  0.61861  0.05103  0.75000  1
 O  O10  1  0.18367  0.18883  0.56225  1
 O  O11  1  0.38139  0.94897  0.25000  1
 O  O12  1  0.68367  0.31117  0.06225  1
 Ti  Ti1  1  0.00000  0.50000  0.50000  1
 Ti  Ti2  1  0.50000  0.00000  0.00000  1
 Ti  Ti3  1  0.00000  0.50000  0.00000  1
 Ti  Ti4  1  0.50000  0.00000  0.50000  1
