CIF file written using JARVIS-Tools package.
data_AgHgSI
_symmetry_space_group_name_H-M  'Pmma'
_cell_length_a       4.63959
_cell_length_b       10.2369
_cell_length_c       9.96073
_cell_angle_alpha    90
_cell_angle_beta     90
_cell_angle_gamma    90

_symmetry_Int_Tables_number  51
_chemical_formula_structural  AgHgSI
_chemical_formula_sum  Ag4Hg4S4I4
_cell_volume  473.085538991232
_cell_formula_units_Z  4
loop_
  _symmetry_equiv_pos_site_id
 _symmetry_equiv_pos_as_xyz
 1  'x, y, z'
loop_
 _atom_site_type_symbol
 _atom_site_label
 _atom_site_symmetry_multiplicity
 _atom_site_fract_x
 _atom_site_fract_y
 _atom_site_fract_z
 _atom_site_fract_occupancy
 Ag  Ag1  1  0.00000  0.21065  0.41695  1
 Ag  Ag2  1  0.00000  0.78935  0.91695  1
 Ag  Ag3  1  0.00000  0.78935  0.58305  1
 Ag  Ag4  1  0.00000  0.21065  0.08305  1
 Hg  Hg1  1  0.50000  0.23591  0.75000  1
 Hg  Hg2  1  0.50000  0.50000  0.00000  1
 Hg  Hg3  1  0.50000  0.76409  0.25000  1
 Hg  Hg4  1  0.50000  0.50000  0.50000  1
 I  I1  1  0.00000  0.52618  0.75000  1
 I  I2  1  0.00000  0.98754  0.25000  1
 I  I3  1  0.00000  0.47382  0.25000  1
 I  I4  1  0.00000  0.01246  0.75000  1
 S  S1  1  0.50000  0.26183  0.50742  1
 S  S2  1  0.50000  0.73817  0.49258  1
 S  S3  1  0.50000  0.26183  0.99258  1
 S  S4  1  0.50000  0.73817  0.00742  1
