CIF file written using JARVIS-Tools package.
data_K2S
_symmetry_space_group_name_H-M  'P6_3/mmc'
_cell_length_a       5.25652
_cell_length_b       9.10533
_cell_length_c       7.01034
_cell_angle_alpha    90
_cell_angle_beta     90
_cell_angle_gamma    90

_symmetry_Int_Tables_number  194
_chemical_formula_structural  K2S
_chemical_formula_sum  K8S4
_cell_volume  335.53144416100423
_cell_formula_units_Z  4
loop_
  _symmetry_equiv_pos_site_id
 _symmetry_equiv_pos_as_xyz
 1  'x, y, z'
loop_
 _atom_site_type_symbol
 _atom_site_label
 _atom_site_symmetry_multiplicity
 _atom_site_fract_x
 _atom_site_fract_y
 _atom_site_fract_z
 _atom_site_fract_occupancy
 K  K1  1  0.50000  0.83332  0.25000  1
 K  K2  1  0.00000  0.00000  0.50000  1
 K  K3  1  0.00000  0.00000  0.00000  1
 K  K4  1  0.50000  0.16668  0.75000  1
 K  K5  1  0.00000  0.33332  0.25000  1
 K  K6  1  0.50000  0.50000  0.50000  1
 K  K7  1  0.50000  0.50000  0.00000  1
 K  K8  1  0.00000  0.66668  0.75000  1
 S  S1  1  0.50000  0.16666  0.25000  1
 S  S2  1  0.50000  0.83334  0.75000  1
 S  S3  1  0.00000  0.66666  0.25000  1
 S  S4  1  0.00000  0.33334  0.75000  1
