CIF file written using JARVIS-Tools package.
data_LiNbO3
_symmetry_space_group_name_H-M  'R3c'
_cell_length_a       5.56125
_cell_length_b       5.56143
_cell_length_c       5.56135
_cell_angle_alpha    55.5048
_cell_angle_beta     55.5098
_cell_angle_gamma    55.5087

_symmetry_Int_Tables_number  161
_chemical_formula_structural  LiNbO3
_chemical_formula_sum  Li2Nb2O6
_cell_volume  108.93984668723203
_cell_formula_units_Z  2
loop_
  _symmetry_equiv_pos_site_id
 _symmetry_equiv_pos_as_xyz
 1  'x, y, z'
loop_
 _atom_site_type_symbol
 _atom_site_label
 _atom_site_symmetry_multiplicity
 _atom_site_fract_x
 _atom_site_fract_y
 _atom_site_fract_z
 _atom_site_fract_occupancy
 Li  Li1  1  0.78666  0.78667  0.78684  1
 Li  Li2  1  0.28669  0.28683  0.28665  1
 Nb  Nb1  1  0.00544  0.00551  0.00555  1
 Nb  Nb2  1  0.50545  0.50557  0.50549  1
 O  O1  1  0.87385  0.60909  0.22465  1
 O  O2  1  0.22484  0.87390  0.60899  1
 O  O3  1  0.10910  0.37384  0.72478  1
 O  O4  1  0.37385  0.72463  0.10910  1
 O  O5  1  0.72483  0.10900  0.37391  1
 O  O6  1  0.60911  0.22475  0.87385  1
