CIF file written using JARVIS-Tools package.
data_FeAgO2
_symmetry_space_group_name_H-M  'R3m'
_cell_length_a       2.8305
_cell_length_b       2.83051
_cell_length_c       6.65632
_cell_angle_alpha    77.7242
_cell_angle_beta     77.7242
_cell_angle_gamma    60

_symmetry_Int_Tables_number  160
_chemical_formula_structural  FeAgO2
_chemical_formula_sum  FeAgO2
_cell_volume  44.77072363992185
_cell_formula_units_Z  1
loop_
  _symmetry_equiv_pos_site_id
 _symmetry_equiv_pos_as_xyz
 1  'x, y, z'
loop_
 _atom_site_type_symbol
 _atom_site_label
 _atom_site_symmetry_multiplicity
 _atom_site_fract_x
 _atom_site_fract_y
 _atom_site_fract_z
 _atom_site_fract_occupancy
 Ag  Ag1  1  0.83726  0.83726  0.48821  1
 Fe  Fe1  1  0.00168  0.00168  0.99497  1
 O  O1  1  0.71989  0.71989  0.84034  1
 O  O2  1  0.28217  0.28217  0.15348  1
