CIF file written using JARVIS-Tools package.
data_NdCrO4
_symmetry_space_group_name_H-M  'I4_1/amd'
_cell_length_a       6.12295
_cell_length_b       6.12295
_cell_length_c       6.12295
_cell_angle_alpha    106.075
_cell_angle_beta     106.075
_cell_angle_gamma    116.501

_symmetry_Int_Tables_number  141
_chemical_formula_structural  NdCrO4
_chemical_formula_sum  Nd2Cr2O8
_cell_volume  174.69093725397096
_cell_formula_units_Z  2
loop_
  _symmetry_equiv_pos_site_id
 _symmetry_equiv_pos_as_xyz
 1  'x, y, z'
loop_
 _atom_site_type_symbol
 _atom_site_label
 _atom_site_symmetry_multiplicity
 _atom_site_fract_x
 _atom_site_fract_y
 _atom_site_fract_z
 _atom_site_fract_occupancy
 Cr  Cr1  1  0.37500  0.62500  0.75000  1
 Cr  Cr2  1  0.62500  0.37500  0.25000  1
 Nd  Nd1  1  0.12500  0.87500  0.25000  1
 Nd  Nd2  1  0.87500  0.12500  0.75000  1
 O  O1  1  0.79427  0.72348  0.42921  1
 O  O2  1  0.36506  0.79427  0.57079  1
 O  O3  1  0.72348  0.79427  0.92921  1
 O  O4  1  0.79427  0.36506  0.07079  1
 O  O5  1  0.63494  0.20573  0.42921  1
 O  O6  1  0.20573  0.27652  0.57079  1
 O  O7  1  0.20573  0.63494  0.92921  1
 O  O8  1  0.27652  0.20573  0.07079  1
