CIF file written using JARVIS-Tools package.
data_Mg3C
_symmetry_space_group_name_H-M  'P4mm'
_cell_length_a       6.26129
_cell_length_b       3.86439
_cell_length_c       3.86447
_cell_angle_alpha    90
_cell_angle_beta     90
_cell_angle_gamma    128.111

_symmetry_Int_Tables_number  99
_chemical_formula_structural  Mg3C
_chemical_formula_sum  Mg3C
_cell_volume  73.57129412248179
_cell_formula_units_Z  1
loop_
  _symmetry_equiv_pos_site_id
 _symmetry_equiv_pos_as_xyz
 1  'x, y, z'
loop_
 _atom_site_type_symbol
 _atom_site_label
 _atom_site_symmetry_multiplicity
 _atom_site_fract_x
 _atom_site_fract_y
 _atom_site_fract_z
 _atom_site_fract_occupancy
 C  C1  1  0.04021  0.54021  0.25000  1
 Mg  Mg1  1  0.82950  0.82950  0.25000  1
 Mg  Mg2  1  0.30079  0.30079  0.75000  1
 Mg  Mg3  1  0.82950  0.32950  0.75000  1
