CIF file written using JARVIS-Tools package.
data_NaPH3NO3
_symmetry_space_group_name_H-M  'P6_3'
_cell_length_a       5.78589
_cell_length_b       5.94682
_cell_length_c       5.78589
_cell_angle_alpha    90
_cell_angle_beta     120
_cell_angle_gamma    90

_symmetry_Int_Tables_number  173
_chemical_formula_structural  NaPH3NO3
_chemical_formula_sum  Na2P2H6N2O6
_cell_volume  172.40691612814342
_cell_formula_units_Z  2
loop_
  _symmetry_equiv_pos_site_id
 _symmetry_equiv_pos_as_xyz
 1  'x, y, z'
loop_
 _atom_site_type_symbol
 _atom_site_label
 _atom_site_symmetry_multiplicity
 _atom_site_fract_x
 _atom_site_fract_y
 _atom_site_fract_z
 _atom_site_fract_occupancy
 H  H1  1  0.64948  0.16825  0.15453  1
 H  H2  1  0.84547  0.16825  0.49495  1
 H  H3  1  0.15453  0.66825  0.50505  1
 H  H4  1  0.35052  0.66825  0.84547  1
 H  H5  1  0.49495  0.66825  0.64948  1
 H  H6  1  0.50505  0.16825  0.35052  1
 N  N1  1  0.33333  0.60678  0.66667  1
 N  N2  1  0.66667  0.10678  0.33333  1
 Na  Na1  1  -0.00000  0.49397  0.00000  1
 Na  Na2  1  0.00000  0.99397  -0.00000  1
 O  O1  1  0.14789  0.24519  0.77343  1
 O  O2  1  0.77343  0.74520  0.62555  1
 O  O3  1  0.85211  0.74519  0.22657  1
 O  O4  1  0.37445  0.74520  0.14789  1
 O  O5  1  0.22657  0.24520  0.37445  1
 O  O6  1  0.62555  0.24520  0.85211  1
 P  P1  1  0.33333  0.30512  0.66667  1
 P  P2  1  0.66667  0.80512  0.33333  1
