CIF file written using JARVIS-Tools package.
data_KNO2
_symmetry_space_group_name_H-M  'Imm2'
_cell_length_a       4.72563
_cell_length_b       4.72563
_cell_length_c       3.95458
_cell_angle_alpha    65.3617
_cell_angle_beta     65.3617
_cell_angle_gamma    77.0603

_symmetry_Int_Tables_number  44
_chemical_formula_structural  KNO2
_chemical_formula_sum  KNO2
_cell_volume  72.82942695338514
_cell_formula_units_Z  1
loop_
  _symmetry_equiv_pos_site_id
 _symmetry_equiv_pos_as_xyz
 1  'x, y, z'
loop_
 _atom_site_type_symbol
 _atom_site_label
 _atom_site_symmetry_multiplicity
 _atom_site_fract_x
 _atom_site_fract_y
 _atom_site_fract_z
 _atom_site_fract_occupancy
 K  K1  1  0.01619  0.01619  0.00059  1
 N  N1  1  0.48181  0.48181  0.53556  1
 O  O1  1  0.77329  0.40870  0.42592  1
 O  O2  1  0.40870  0.77329  0.42592  1
