CIF file written using JARVIS-Tools package.
data_Y6UO12
_symmetry_space_group_name_H-M  'R-3'
_cell_length_a       6.56074
_cell_length_b       6.56074
_cell_length_c       6.56073
_cell_angle_alpha    99.0609
_cell_angle_beta     99.061
_cell_angle_gamma    99.061

_symmetry_Int_Tables_number  148
_chemical_formula_structural  Y6UO12
_chemical_formula_sum  Y6UO2
_cell_volume  270.53735350144757
_cell_formula_units_Z  1
loop_
  _symmetry_equiv_pos_site_id
 _symmetry_equiv_pos_as_xyz
 1  'x, y, z'
loop_
 _atom_site_type_symbol
 _atom_site_label
 _atom_site_symmetry_multiplicity
 _atom_site_fract_x
 _atom_site_fract_y
 _atom_site_fract_z
 _atom_site_fract_occupancy
 O  O1  1  0.42738  0.17722  0.58766  1
 O  O2  1  0.17722  0.58766  0.42738  1
 O  O3  1  0.58766  0.42738  0.17722  1
 O  O4  1  0.57262  0.82278  0.41234  1
 O  O5  1  0.82278  0.41234  0.57262  1
 O  O6  1  0.41234  0.57262  0.82278  1
 O  O7  1  0.04685  0.92242  0.69040  1
 O  O8  1  0.30960  0.95315  0.07758  1
 O  O9  1  0.07758  0.30960  0.95315  1
 O  O10  1  0.95315  0.07758  0.30960  1
 O  O11  1  0.92242  0.69040  0.04685  1
 O  O12  1  0.69040  0.04685  0.92242  1
 U  U1  1  0.00000  0.00000  0.00000  1
 Y  Y1  1  0.14479  0.32067  0.60941  1
 Y  Y2  1  0.67933  0.39059  0.85521  1
 Y  Y3  1  0.39059  0.85521  0.67933  1
 Y  Y4  1  0.85521  0.67933  0.39059  1
 Y  Y5  1  0.32067  0.60941  0.14479  1
 Y  Y6  1  0.60941  0.14479  0.32067  1
