CIF file written using JARVIS-Tools package.
data_CeSiO4
_symmetry_space_group_name_H-M  'I4_1/amd'
_cell_length_a       5.87066
_cell_length_b       5.87065
_cell_length_c       5.87066
_cell_angle_alpha    106.683
_cell_angle_beta     106.683
_cell_angle_gamma    115.204

_symmetry_Int_Tables_number  141
_chemical_formula_structural  CeSiO4
_chemical_formula_sum  Ce2Si2O8
_cell_volume  154.57253605156546
_cell_formula_units_Z  2
loop_
  _symmetry_equiv_pos_site_id
 _symmetry_equiv_pos_as_xyz
 1  'x, y, z'
loop_
 _atom_site_type_symbol
 _atom_site_label
 _atom_site_symmetry_multiplicity
 _atom_site_fract_x
 _atom_site_fract_y
 _atom_site_fract_z
 _atom_site_fract_occupancy
 Ce  Ce1  1  0.12500  0.87500  0.25000  1
 Ce  Ce2  1  0.87500  0.12500  0.75000  1
 O  O1  1  0.79395  0.36414  0.07018  1
 O  O2  1  0.72377  0.79395  0.92982  1
 O  O3  1  0.36414  0.79395  0.57018  1
 O  O4  1  0.79395  0.72377  0.42982  1
 O  O5  1  0.27623  0.20605  0.07018  1
 O  O6  1  0.20605  0.63586  0.92982  1
 O  O7  1  0.20605  0.27623  0.57018  1
 O  O8  1  0.63586  0.20605  0.42982  1
 Si  Si1  1  0.62500  0.37500  0.25000  1
 Si  Si2  1  0.37500  0.62500  0.75000  1
