CIF file written using JARVIS-Tools package.
data_K2O
_symmetry_space_group_name_H-M  'P-1'
_cell_length_a       5.16496
_cell_length_b       5.16488
_cell_length_c       7.51709
_cell_angle_alpha    109.959
_cell_angle_beta     109.838
_cell_angle_gamma    90.002

_symmetry_Int_Tables_number  2
_chemical_formula_structural  K2O
_chemical_formula_sum  K4O2
_cell_volume  175.76956559878312
_cell_formula_units_Z  2
loop_
  _symmetry_equiv_pos_site_id
 _symmetry_equiv_pos_as_xyz
 1  'x, y, z'
loop_
 _atom_site_type_symbol
 _atom_site_label
 _atom_site_symmetry_multiplicity
 _atom_site_fract_x
 _atom_site_fract_y
 _atom_site_fract_z
 _atom_site_fract_occupancy
 K  K1  1  0.04955  0.05071  0.10179  1
 K  K2  1  0.45223  0.45246  0.90330  1
 K  K3  1  0.69850  0.20446  0.40336  1
 K  K4  1  0.29573  0.80262  0.60175  1
 O  O1  1  0.50063  0.00172  0.00255  1
 O  O2  1  0.24742  0.25340  0.50255  1
