CIF file written using JARVIS-Tools package.
data_MgFePO5
_symmetry_space_group_name_H-M  'P1'
_cell_length_a       5.32562
_cell_length_b       5.33419
_cell_length_c       6.86321
_cell_angle_alpha    104.193
_cell_angle_beta     105.238
_cell_angle_gamma    100.737

_symmetry_Int_Tables_number  1
_chemical_formula_structural  MgFePO5
_chemical_formula_sum  Mg2Fe2P2O0
_cell_volume  175.69825388118468
_cell_formula_units_Z  2
loop_
  _symmetry_equiv_pos_site_id
 _symmetry_equiv_pos_as_xyz
 1  'x, y, z'
loop_
 _atom_site_type_symbol
 _atom_site_label
 _atom_site_symmetry_multiplicity
 _atom_site_fract_x
 _atom_site_fract_y
 _atom_site_fract_z
 _atom_site_fract_occupancy
 Fe  Fe1  1  -0.00326  0.50867  0.51027  1
 Fe  Fe2  1  0.01469  0.48424  0.01163  1
 Mg  Mg1  1  0.38488  0.23843  0.80921  1
 Mg  Mg2  1  0.75712  0.88779  0.31907  1
 O  O1  1  0.65768  0.60437  0.86317  1
 O  O2  1  0.80364  0.80967  0.60180  1
 O  O3  1  0.30861  0.28484  0.09222  1
 O  O4  1  0.12710  0.15488  0.36955  1
 O  O5  1  0.63162  0.23314  0.42300  1
 O  O6  1  0.33626  0.83555  0.14908  1
 O  O7  1  0.33987  0.81651  0.63708  1
 O  O8  1  0.73008  0.10936  0.92399  1
 O  O9  1  0.91477  0.57935  0.25861  1
 O  O10  1  0.08459  0.41423  0.75114  1
 P  P1  1  0.63736  0.82708  0.75610  1
 P  P2  1  0.34297  0.13064  0.25696  1
