CIF file written using JARVIS-Tools package.
data_Na4CO4
_symmetry_space_group_name_H-M  'R3m'
_cell_length_a       5.29117
_cell_length_b       5.2911
_cell_length_c       5.29105
_cell_angle_alpha    71.9747
_cell_angle_beta     71.9785
_cell_angle_gamma    71.9749

_symmetry_Int_Tables_number  160
_chemical_formula_structural  Na4CO4
_chemical_formula_sum  Na4CO4
_cell_volume  130.15386859665554
_cell_formula_units_Z  1
loop_
  _symmetry_equiv_pos_site_id
 _symmetry_equiv_pos_as_xyz
 1  'x, y, z'
loop_
 _atom_site_type_symbol
 _atom_site_label
 _atom_site_symmetry_multiplicity
 _atom_site_fract_x
 _atom_site_fract_y
 _atom_site_fract_z
 _atom_site_fract_occupancy
 C  C1  1  0.04046  0.04046  0.04045  1
 Na  Na1  1  0.94222  0.42684  0.42684  1
 Na  Na2  1  0.42684  0.94220  0.42684  1
 Na  Na3  1  0.42684  0.42683  0.94223  1
 Na  Na4  1  0.82209  0.82212  0.82211  1
 O  O1  1  0.15756  0.15757  0.15756  1
 O  O2  1  0.87168  0.87167  0.24898  1
 O  O3  1  0.87167  0.24899  0.87165  1
 O  O4  1  0.24900  0.87167  0.87167  1
