CIF file written using JARVIS-Tools package.
data_Ba2AlSn3O7
_symmetry_space_group_name_H-M  'Pmmm'
_cell_length_a       4.14014
_cell_length_b       4.37331
_cell_length_c       11.5352
_cell_angle_alpha    90
_cell_angle_beta     90
_cell_angle_gamma    90

_symmetry_Int_Tables_number  47
_chemical_formula_structural  Ba2AlSn3O7
_chemical_formula_sum  Ba2AlSn3O7
_cell_volume  208.8584532899527
_cell_formula_units_Z  1
loop_
  _symmetry_equiv_pos_site_id
 _symmetry_equiv_pos_as_xyz
 1  'x, y, z'
loop_
 _atom_site_type_symbol
 _atom_site_label
 _atom_site_symmetry_multiplicity
 _atom_site_fract_x
 _atom_site_fract_y
 _atom_site_fract_z
 _atom_site_fract_occupancy
 Al  Al1  1  0.50000  0.50000  0.50000  1
 Ba  Ba1  1  0.50000  0.50000  0.81111  1
 Ba  Ba2  1  0.50000  0.50000  0.18889  1
 O  O1  1  0.00000  0.50000  0.00000  1
 O  O2  1  0.50000  0.00000  0.62808  1
 O  O3  1  0.50000  0.00000  0.37192  1
 O  O4  1  0.00000  0.50000  0.61946  1
 O  O5  1  0.00000  0.50000  0.38054  1
 O  O6  1  0.00000  0.00000  0.80167  1
 O  O7  1  0.00000  0.00000  0.19833  1
 Sn  Sn1  1  0.00000  0.00000  0.62209  1
 Sn  Sn2  1  0.00000  0.00000  0.37791  1
 Sn  Sn3  1  0.00000  0.00000  0.00000  1
