CIF file written using JARVIS-Tools package.
data_RbTaCu2Se4
_symmetry_space_group_name_H-M  'Ama2'
_cell_length_a       5.73
_cell_length_b       7.75289
_cell_length_c       10.0474
_cell_angle_alpha    90
_cell_angle_beta     106.568
_cell_angle_gamma    90

_symmetry_Int_Tables_number  40
_chemical_formula_structural  RbTaCu2Se4
_chemical_formula_sum  Rb2Ta2Cu4Se8
_cell_volume  427.816261855147
_cell_formula_units_Z  2
loop_
  _symmetry_equiv_pos_site_id
 _symmetry_equiv_pos_as_xyz
 1  'x, y, z'
loop_
 _atom_site_type_symbol
 _atom_site_label
 _atom_site_symmetry_multiplicity
 _atom_site_fract_x
 _atom_site_fract_y
 _atom_site_fract_z
 _atom_site_fract_occupancy
 Cu  Cu1  1  0.56249  0.50000  -0.00000  1
 Cu  Cu2  1  0.56249  0.00000  -0.00000  1
 Cu  Cu3  1  0.15124  0.75000  0.21411  1
 Cu  Cu4  1  0.93713  0.25000  0.78589  1
 Rb  Rb1  1  0.48191  0.25000  0.36566  1
 Rb  Rb2  1  0.11626  0.75000  0.63434  1
 Se  Se1  1  0.08713  0.25000  0.57931  1
 Se  Se2  1  0.29987  0.75000  0.00679  1
 Se  Se3  1  0.89911  0.00682  0.21575  1
 Se  Se4  1  0.68336  0.99318  0.78425  1
 Se  Se5  1  0.89911  0.49318  0.21575  1
 Se  Se6  1  0.68336  0.50682  0.78425  1
 Se  Se7  1  0.29308  0.25000  0.99321  1
 Se  Se8  1  0.50781  0.75000  0.42069  1
 Ta  Ta1  1  0.43599  0.25000  0.78283  1
 Ta  Ta2  1  0.65315  0.75000  0.21717  1
