CIF file written using JARVIS-Tools package.
data_Tl5Se2Br
_symmetry_space_group_name_H-M  'I4/mcm'
_cell_length_a       8.71355
_cell_length_b       8.71355
_cell_length_c       9.00477
_cell_angle_alpha    118.936
_cell_angle_beta     118.936
_cell_angle_gamma    90

_symmetry_Int_Tables_number  140
_chemical_formula_structural  Tl5Se2Br
_chemical_formula_sum  Tl0Se4Br2
_cell_volume  498.5903398152261
_cell_formula_units_Z  2
loop_
  _symmetry_equiv_pos_site_id
 _symmetry_equiv_pos_as_xyz
 1  'x, y, z'
loop_
 _atom_site_type_symbol
 _atom_site_label
 _atom_site_symmetry_multiplicity
 _atom_site_fract_x
 _atom_site_fract_y
 _atom_site_fract_z
 _atom_site_fract_occupancy
 Br  Br1  1  0.75000  0.75000  0.50000  1
 Br  Br2  1  0.25000  0.25000  0.50000  1
 Se  Se1  1  0.65736  0.15736  0.00000  1
 Se  Se2  1  0.84264  0.65736  -0.00000  1
 Se  Se3  1  0.15736  0.34264  0.00000  1
 Se  Se4  1  0.34264  0.84264  -0.00000  1
 Tl  Tl1  1  0.20711  0.00230  0.70940  1
 Tl  Tl2  1  0.00230  0.50230  0.70940  1
 Tl  Tl3  1  0.70711  0.20711  0.70940  1
 Tl  Tl4  1  -0.00230  0.49770  0.29060  1
 Tl  Tl5  1  0.50230  0.70711  0.70940  1
 Tl  Tl6  1  0.79289  -0.00230  0.29060  1
 Tl  Tl7  1  0.49770  0.29289  0.29060  1
 Tl  Tl8  1  0.29289  0.79289  0.29060  1
 Tl  Tl9  1  0.50000  0.50000  0.00000  1
 Tl  Tl10  1  0.00000  0.00000  0.00000  1
