CIF file written using JARVIS-Tools package.
data_Na4Ti3O8
_symmetry_space_group_name_H-M  'C2/m'
_cell_length_a       6.45381
_cell_length_b       6.08827
_cell_length_c       6.13202
_cell_angle_alpha    59.7619
_cell_angle_beta     118.364
_cell_angle_gamma    90.8852

_symmetry_Int_Tables_number  12
_chemical_formula_structural  Na4Ti3O8
_chemical_formula_sum  Na4Ti3O8
_cell_volume  175.05356035382675
_cell_formula_units_Z  1
loop_
  _symmetry_equiv_pos_site_id
 _symmetry_equiv_pos_as_xyz
 1  'x, y, z'
loop_
 _atom_site_type_symbol
 _atom_site_label
 _atom_site_symmetry_multiplicity
 _atom_site_fract_x
 _atom_site_fract_y
 _atom_site_fract_z
 _atom_site_fract_occupancy
 Na  Na1  1  0.12500  0.62500  0.75000  1
 Na  Na2  1  0.12500  0.12500  0.25000  1
 Na  Na3  1  0.12500  0.12500  0.75000  1
 Na  Na4  1  0.62500  0.12500  0.75000  1
 O  O1  1  0.42361  0.85785  0.28288  1
 O  O2  1  0.43009  0.82339  0.80335  1
 O  O3  1  0.81441  0.88172  0.24411  1
 O  O4  1  0.81441  0.88172  0.68858  1
 O  O5  1  0.43559  0.36827  0.25589  1
 O  O6  1  0.43559  0.36827  0.81142  1
 O  O7  1  0.81991  0.42661  0.69665  1
 O  O8  1  0.82639  0.39215  0.21712  1
 Ti  Ti1  1  0.62500  0.62500  0.75000  1
 Ti  Ti2  1  0.62500  0.62500  0.25000  1
 Ti  Ti3  1  0.62500  0.12500  0.25000  1
