CIF file written using JARVIS-Tools package.
data_HfNiSn
_symmetry_space_group_name_H-M  'P-6m2'
_cell_length_a       4.39305
_cell_length_b       5.44144
_cell_length_c       4.39291
_cell_angle_alpha    36.1682
_cell_angle_beta     59.999
_cell_angle_gamma    66.1916

_symmetry_Int_Tables_number  187
_chemical_formula_structural  HfNiSn
_chemical_formula_sum  HfNiSn
_cell_volume  53.66925310787466
_cell_formula_units_Z  1
loop_
  _symmetry_equiv_pos_site_id
 _symmetry_equiv_pos_as_xyz
 1  'x, y, z'
loop_
 _atom_site_type_symbol
 _atom_site_label
 _atom_site_symmetry_multiplicity
 _atom_site_fract_x
 _atom_site_fract_y
 _atom_site_fract_z
 _atom_site_fract_occupancy
 Hf  Hf1  1  0.25001  0.25001  0.24998  1
 Ni  Ni1  1  0.58333  0.75003  0.08331  1
 Sn  Sn1  1  0.91666  0.74996  0.41671  1
