CIF file written using JARVIS-Tools package.
data_MnO2
_symmetry_space_group_name_H-M  'R3m'
_cell_length_a       5.69478
_cell_length_b       5.68673
_cell_length_c       5.68674
_cell_angle_alpha    60
_cell_angle_beta     60.0468
_cell_angle_gamma    60.0467

_symmetry_Int_Tables_number  160
_chemical_formula_structural  MnO2
_chemical_formula_sum  Mn4O8
_cell_volume  130.31503386185284
_cell_formula_units_Z  4
loop_
  _symmetry_equiv_pos_site_id
 _symmetry_equiv_pos_as_xyz
 1  'x, y, z'
loop_
 _atom_site_type_symbol
 _atom_site_label
 _atom_site_symmetry_multiplicity
 _atom_site_fract_x
 _atom_site_fract_y
 _atom_site_fract_z
 _atom_site_fract_occupancy
 Mn  Mn1  1  0.27067  0.24311  0.24311  1
 Mn  Mn2  1  0.63593  0.10855  0.62776  1
 Mn  Mn3  1  0.63593  0.62776  0.10855  1
 Mn  Mn4  1  0.63593  0.62776  0.62776  1
 O  O1  1  0.39769  0.36984  0.36984  1
 O  O2  1  0.39769  0.36984  0.86262  1
 O  O3  1  0.39769  0.86262  0.36984  1
 O  O4  1  0.85182  0.38273  0.38273  1
 O  O5  1  0.41033  0.86322  0.86322  1
 O  O6  1  0.83289  0.41268  0.87721  1
 O  O7  1  0.83289  0.87721  0.41268  1
 O  O8  1  0.83289  0.87721  0.87721  1
