CIF file written using JARVIS-Tools package.
data_KCrF3
_symmetry_space_group_name_H-M  'I4/mcm'
_cell_length_a       5.87553
_cell_length_b       5.87552
_cell_length_c       5.87543
_cell_angle_alpha    120.071
_cell_angle_beta     120.07
_cell_angle_gamma    89.8795

_symmetry_Int_Tables_number  140
_chemical_formula_structural  KCrF3
_chemical_formula_sum  K2Cr2F6
_cell_volume  143.2676492439267
_cell_formula_units_Z  2
loop_
  _symmetry_equiv_pos_site_id
 _symmetry_equiv_pos_as_xyz
 1  'x, y, z'
loop_
 _atom_site_type_symbol
 _atom_site_label
 _atom_site_symmetry_multiplicity
 _atom_site_fract_x
 _atom_site_fract_y
 _atom_site_fract_z
 _atom_site_fract_occupancy
 Cr  Cr1  1  -0.00000  0.50000  0.50000  1
 Cr  Cr2  1  0.50000  -0.00000  0.50000  1
 F  F1  1  0.25002  0.75002  0.50000  1
 F  F2  1  0.74998  0.24998  0.50000  1
 F  F3  1  0.25986  0.25988  0.51974  1
 F  F4  1  0.74014  0.74012  0.48026  1
 F  F5  1  0.75987  0.24018  0.00005  1
 F  F6  1  0.24013  0.75982  0.99995  1
 K  K1  1  0.74998  0.74998  -0.00000  1
 K  K2  1  0.25002  0.25002  0.00000  1
