CIF file written using JARVIS-Tools package.
data_SmTmO3
_symmetry_space_group_name_H-M  'Pnma'
_cell_length_a       5.69774
_cell_length_b       5.97392
_cell_length_c       8.33601
_cell_angle_alpha    90
_cell_angle_beta     90
_cell_angle_gamma    90

_symmetry_Int_Tables_number  62
_chemical_formula_structural  SmTmO3
_chemical_formula_sum  Sm4Tm4O2
_cell_volume  283.73964238803745
_cell_formula_units_Z  4
loop_
  _symmetry_equiv_pos_site_id
 _symmetry_equiv_pos_as_xyz
 1  'x, y, z'
loop_
 _atom_site_type_symbol
 _atom_site_label
 _atom_site_symmetry_multiplicity
 _atom_site_fract_x
 _atom_site_fract_y
 _atom_site_fract_z
 _atom_site_fract_occupancy
 O  O1  1  0.31105  0.69239  0.57297  1
 O  O2  1  0.63799  0.06544  0.75000  1
 O  O3  1  0.81105  0.80761  0.42703  1
 O  O4  1  0.18895  0.19239  0.92703  1
 O  O5  1  0.68895  0.30761  0.42703  1
 O  O6  1  0.18895  0.19239  0.57297  1
 O  O7  1  0.13799  0.43456  0.25000  1
 O  O8  1  0.86201  0.56544  0.75000  1
 O  O9  1  0.31105  0.69239  0.92703  1
 O  O10  1  0.36201  0.93456  0.25000  1
 O  O11  1  0.81105  0.80761  0.07297  1
 O  O12  1  0.68895  0.30761  0.07297  1
 Sm  Sm1  1  0.01949  0.94318  0.75000  1
 Sm  Sm2  1  0.51949  0.55682  0.25000  1
 Sm  Sm3  1  0.48051  0.44318  0.75000  1
 Sm  Sm4  1  0.98051  0.05682  0.25000  1
 Tm  Tm1  1  0.00000  0.50000  0.50000  1
 Tm  Tm2  1  0.00000  0.50000  0.00000  1
 Tm  Tm3  1  0.50000  0.00000  0.50000  1
 Tm  Tm4  1  0.50000  0.00000  0.00000  1
