CIF file written using JARVIS-Tools package.
data_CdBiO3
_symmetry_space_group_name_H-M  'R3'
_cell_length_a       5.89372
_cell_length_b       5.89375
_cell_length_c       6.0215
_cell_angle_alpha    60.6986
_cell_angle_beta     60.7005
_cell_angle_gamma    59.9996

_symmetry_Int_Tables_number  146
_chemical_formula_structural  CdBiO3
_chemical_formula_sum  Cd2Bi2O6
_cell_volume  149.44519210287925
_cell_formula_units_Z  2
loop_
  _symmetry_equiv_pos_site_id
 _symmetry_equiv_pos_as_xyz
 1  'x, y, z'
loop_
 _atom_site_type_symbol
 _atom_site_label
 _atom_site_symmetry_multiplicity
 _atom_site_fract_x
 _atom_site_fract_y
 _atom_site_fract_z
 _atom_site_fract_occupancy
 Bi  Bi1  1  0.13835  0.13835  0.58495  1
 Bi  Bi2  1  0.85113  0.85113  0.44661  1
 Cd  Cd1  1  0.36368  0.36367  0.90897  1
 Cd  Cd2  1  0.63238  0.63238  0.10285  1
 O  O1  1  0.04337  0.48471  0.73544  1
 O  O2  1  0.48470  0.73649  0.73546  1
 O  O3  1  0.73649  0.04336  0.73545  1
 O  O4  1  0.21855  0.96562  0.25009  1
 O  O5  1  0.56574  0.21855  0.25009  1
 O  O6  1  0.96561  0.56574  0.25010  1
