CIF file written using JARVIS-Tools package.
data_Ti6O
_symmetry_space_group_name_H-M  'P-31m'
_cell_length_a       5.09192
_cell_length_b       5.09193
_cell_length_c       9.4813
_cell_angle_alpha    90
_cell_angle_beta     90
_cell_angle_gamma    120

_symmetry_Int_Tables_number  162
_chemical_formula_structural  Ti6O
_chemical_formula_sum  Ti2O2
_cell_volume  212.89354835951175
_cell_formula_units_Z  2
loop_
  _symmetry_equiv_pos_site_id
 _symmetry_equiv_pos_as_xyz
 1  'x, y, z'
loop_
 _atom_site_type_symbol
 _atom_site_label
 _atom_site_symmetry_multiplicity
 _atom_site_fract_x
 _atom_site_fract_y
 _atom_site_fract_z
 _atom_site_fract_occupancy
 O  O1  1  0.00000  0.00000  0.50000  1
 O  O2  1  0.00000  0.00000  0.00000  1
 Ti  Ti1  1  0.66824  0.66824  0.13060  1
 Ti  Ti2  1  0.00000  0.66824  0.36940  1
 Ti  Ti3  1  0.66824  0.00000  0.36940  1
 Ti  Ti4  1  0.33176  0.33176  0.36940  1
 Ti  Ti5  1  0.66824  0.00000  0.86940  1
 Ti  Ti6  1  0.00000  0.66824  0.86940  1
 Ti  Ti7  1  0.33176  0.33176  0.86940  1
 Ti  Ti8  1  -0.00000  0.33176  0.63060  1
 Ti  Ti9  1  0.33176  0.00000  0.63060  1
 Ti  Ti10  1  0.66824  0.66824  0.63060  1
 Ti  Ti11  1  -0.00000  0.33176  0.13060  1
 Ti  Ti12  1  0.33176  0.00000  0.13060  1
