CIF file written using JARVIS-Tools package.
data_CoSi2O6
_symmetry_space_group_name_H-M  'C2/c'
_cell_length_a       5.28301
_cell_length_b       6.29596
_cell_length_c       6.29596
_cell_angle_alpha    83.8717
_cell_angle_beta     74.5784
_cell_angle_gamma    74.5785

_symmetry_Int_Tables_number  15
_chemical_formula_structural  CoSi2O6
_chemical_formula_sum  Co2Si4O2
_cell_volume  194.45888786657983
_cell_formula_units_Z  2
loop_
  _symmetry_equiv_pos_site_id
 _symmetry_equiv_pos_as_xyz
 1  'x, y, z'
loop_
 _atom_site_type_symbol
 _atom_site_label
 _atom_site_symmetry_multiplicity
 _atom_site_fract_x
 _atom_site_fract_y
 _atom_site_fract_z
 _atom_site_fract_occupancy
 Co  Co1  1  0.75369  0.58585  0.91513  1
 Co  Co2  1  0.25369  0.41584  0.08514  1
 O  O1  1  0.45839  0.85507  0.36840  1
 O  O2  1  0.78861  0.86707  0.91815  1
 O  O3  1  0.36770  0.69086  0.02878  1
 O  O4  1  0.54900  0.14663  0.63188  1
 O  O5  1  0.86770  0.52949  0.19016  1
 O  O6  1  0.13969  0.47221  0.81012  1
 O  O7  1  0.71877  0.58284  0.63392  1
 O  O8  1  0.63969  0.31083  0.97149  1
 O  O9  1  0.95841  0.86910  0.35436  1
 O  O10  1  0.04902  0.13257  0.64593  1
 O  O11  1  0.21875  0.13464  0.08214  1
 O  O12  1  0.28863  0.41884  0.36635  1
 Si  Si1  1  0.25517  0.29057  0.60600  1
 Si  Si2  1  0.75222  0.71112  0.39427  1
 Si  Si3  1  0.25223  0.89498  0.21041  1
 Si  Si4  1  0.75518  0.10671  0.78986  1
