CIF file written using JARVIS-Tools package.
data_Mg3Zn
_symmetry_space_group_name_H-M  'Pmm2'
_cell_length_a       6.1216
_cell_length_b       3.16239
_cell_length_c       4.87706
_cell_angle_alpha    90
_cell_angle_beta     90
_cell_angle_gamma    121.104

_symmetry_Int_Tables_number  25
_chemical_formula_structural  Mg3Zn
_chemical_formula_sum  Mg3Zn
_cell_volume  80.84022118399817
_cell_formula_units_Z  1
loop_
  _symmetry_equiv_pos_site_id
 _symmetry_equiv_pos_as_xyz
 1  'x, y, z'
loop_
 _atom_site_type_symbol
 _atom_site_label
 _atom_site_symmetry_multiplicity
 _atom_site_fract_x
 _atom_site_fract_y
 _atom_site_fract_z
 _atom_site_fract_occupancy
 Mg  Mg1  1  0.67192  0.67192  0.25000  1
 Mg  Mg2  1  0.32337  0.32337  0.75000  1
 Mg  Mg3  1  0.83670  0.33670  0.75000  1
 Zn  Zn1  1  0.16801  0.66801  0.25000  1
