CIF file written using JARVIS-Tools package.
data_Ba2Ti6N2O11
_symmetry_space_group_name_H-M  'Cm'
_cell_length_a       3.90472
_cell_length_b       7.97025
_cell_length_c       9.25596
_cell_angle_alpha    97.6698
_cell_angle_beta     89.9986
_cell_angle_gamma    104.181

_symmetry_Int_Tables_number  8
_chemical_formula_structural  Ba2Ti6N2O11
_chemical_formula_sum  Ba2Ti6N2O
_cell_volume  276.62381133913414
_cell_formula_units_Z  1
loop_
  _symmetry_equiv_pos_site_id
 _symmetry_equiv_pos_as_xyz
 1  'x, y, z'
loop_
 _atom_site_type_symbol
 _atom_site_label
 _atom_site_symmetry_multiplicity
 _atom_site_fract_x
 _atom_site_fract_y
 _atom_site_fract_z
 _atom_site_fract_occupancy
 Ba  Ba1  1  0.54783  0.09585  0.77356  1
 Ba  Ba2  1  0.44826  0.89678  0.23564  1
 N  N1  1  0.63942  0.27909  0.11131  1
 N  N2  1  0.99754  0.99528  0.00014  1
 O  O1  1  0.87527  0.75081  0.39058  1
 O  O2  1  0.13087  0.26192  0.61700  1
 O  O3  1  0.16727  0.33475  0.90853  1
 O  O4  1  0.70244  0.40512  0.42885  1
 O  O5  1  0.07410  0.14845  0.30293  1
 O  O6  1  0.24397  0.48818  0.25137  1
 O  O7  1  0.29801  0.59623  0.57115  1
 O  O8  1  0.83157  0.66334  0.08854  1
 O  O9  1  0.75576  0.51171  0.75363  1
 O  O10  1  0.35815  0.71647  0.88284  1
 O  O11  1  0.92520  0.85059  0.70429  1
 Ti  Ti1  1  0.88335  0.76688  0.91159  1
 Ti  Ti2  1  0.83165  0.66352  0.55930  1
 Ti  Ti3  1  0.75074  0.50174  0.22082  1
 Ti  Ti4  1  0.23908  0.47831  0.77172  1
 Ti  Ti5  1  0.17066  0.34157  0.43950  1
 Ti  Ti6  1  0.11400  0.22824  0.09434  1
