CIF file written using JARVIS-Tools package.
data_Hg3S2F2
_symmetry_space_group_name_H-M  'I2_13'
_cell_length_a       7.13345
_cell_length_b       7.13345
_cell_length_c       7.13345
_cell_angle_alpha    109.471
_cell_angle_beta     109.471
_cell_angle_gamma    109.471

_symmetry_Int_Tables_number  199
_chemical_formula_structural  Hg3S2F2
_chemical_formula_sum  Hg6S4F4
_cell_volume  279.4325378182986
_cell_formula_units_Z  2
loop_
  _symmetry_equiv_pos_site_id
 _symmetry_equiv_pos_as_xyz
 1  'x, y, z'
loop_
 _atom_site_type_symbol
 _atom_site_label
 _atom_site_symmetry_multiplicity
 _atom_site_fract_x
 _atom_site_fract_y
 _atom_site_fract_z
 _atom_site_fract_occupancy
 F  F1  1  0.43196  0.50000  0.00000  1
 F  F2  1  0.50000  -0.00000  0.43196  1
 F  F3  1  -0.00000  0.43196  0.50000  1
 F  F4  1  0.06804  0.06804  0.06804  1
 Hg  Hg1  1  0.75000  0.92151  0.17151  1
 Hg  Hg2  1  0.32849  0.25000  0.57849  1
 Hg  Hg3  1  0.57849  0.32849  0.25000  1
 Hg  Hg4  1  0.17151  0.75000  0.92151  1
 Hg  Hg5  1  0.92151  0.17151  0.75000  1
 Hg  Hg6  1  0.25000  0.57849  0.32849  1
 S  S1  1  0.91992  0.50000  0.00000  1
 S  S2  1  0.50000  -0.00000  0.91992  1
 S  S3  1  0.58008  0.58008  0.58008  1
 S  S4  1  -0.00000  0.91992  0.50000  1
