CIF file written using JARVIS-Tools package.
data_V2O3
_symmetry_space_group_name_H-M  'R-3c'
_cell_length_a       4.86426
_cell_length_b       4.86426
_cell_length_c       5.52741
_cell_angle_alpha    90.0029
_cell_angle_beta     116.099
_cell_angle_gamma    120.001

_symmetry_Int_Tables_number  167
_chemical_formula_structural  V2O3
_chemical_formula_sum  V4O6
_cell_volume  97.5569415374003
_cell_formula_units_Z  2
loop_
  _symmetry_equiv_pos_site_id
 _symmetry_equiv_pos_as_xyz
 1  'x, y, z'
loop_
 _atom_site_type_symbol
 _atom_site_label
 _atom_site_symmetry_multiplicity
 _atom_site_fract_x
 _atom_site_fract_y
 _atom_site_fract_z
 _atom_site_fract_occupancy
 O  O1  1  0.17573  0.92744  0.74796  1
 O  O2  1  0.82412  0.07581  0.24795  1
 O  O3  1  0.49988  0.42743  0.24792  1
 O  O4  1  0.49997  0.57582  0.74800  1
 O  O5  1  0.82408  0.25164  0.74790  1
 O  O6  1  0.17577  0.75161  0.24801  1
 V  V1  1  0.31811  0.16073  0.47526  1
 V  V2  1  0.68175  0.34251  0.02065  1
 V  V3  1  0.68174  0.84251  0.52065  1
 V  V4  1  0.31810  0.66073  0.97526  1
