CIF file written using JARVIS-Tools package.
data_MgMn2O4
_symmetry_space_group_name_H-M  'Fd-3m'
_cell_length_a       5.9932
_cell_length_b       5.99326
_cell_length_c       5.99328
_cell_angle_alpha    59.9994
_cell_angle_beta     59.9998
_cell_angle_gamma    60.0007

_symmetry_Int_Tables_number  227
_chemical_formula_structural  MgMn2O4
_chemical_formula_sum  Mg2Mn4O8
_cell_volume  152.21966590910202
_cell_formula_units_Z  2
loop_
  _symmetry_equiv_pos_site_id
 _symmetry_equiv_pos_as_xyz
 1  'x, y, z'
loop_
 _atom_site_type_symbol
 _atom_site_label
 _atom_site_symmetry_multiplicity
 _atom_site_fract_x
 _atom_site_fract_y
 _atom_site_fract_z
 _atom_site_fract_occupancy
 Mg  Mg1  1  0.12500  0.12501  0.12500  1
 Mg  Mg2  1  0.87500  0.87499  0.87500  1
 Mn  Mn1  1  0.50000  0.50000  -0.00000  1
 Mn  Mn2  1  0.50000  0.50000  0.50000  1
 Mn  Mn3  1  1.00000  0.50000  0.50000  1
 Mn  Mn4  1  0.50000  0.00000  0.50000  1
 O  O1  1  0.73894  0.73892  0.73895  1
 O  O2  1  0.26106  0.26108  0.71681  1
 O  O3  1  0.26106  0.71683  0.26106  1
 O  O4  1  0.71681  0.26107  0.26106  1
 O  O5  1  0.73894  0.28317  0.73894  1
 O  O6  1  0.28319  0.73893  0.73894  1
 O  O7  1  0.26106  0.26108  0.26105  1
 O  O8  1  0.73894  0.73892  0.28319  1
