CIF file written using JARVIS-Tools package.
data_TbHg2
_symmetry_space_group_name_H-M  'I4/mmm'
_cell_length_a       3.89859
_cell_length_b       5.61187
_cell_length_c       3.89464
_cell_angle_alpha    110.304
_cell_angle_beta     90
_cell_angle_gamma    69.7392

_symmetry_Int_Tables_number  139
_chemical_formula_structural  TbHg2
_chemical_formula_sum  TbHg2
_cell_volume  74.26691138144649
_cell_formula_units_Z  1
loop_
  _symmetry_equiv_pos_site_id
 _symmetry_equiv_pos_as_xyz
 1  'x, y, z'
loop_
 _atom_site_type_symbol
 _atom_site_label
 _atom_site_symmetry_multiplicity
 _atom_site_fract_x
 _atom_site_fract_y
 _atom_site_fract_z
 _atom_site_fract_occupancy
 Hg  Hg1  1  0.33278  0.33446  0.66723  1
 Hg  Hg2  1  0.66722  0.66554  0.33277  1
 Tb  Tb1  1  0.00000  0.00000  0.00000  1
