CIF file written using JARVIS-Tools package.
data_Ba2AlV3O8
_symmetry_space_group_name_H-M  'Amm2'
_cell_length_a       3.80976
_cell_length_b       4.08326
_cell_length_c       11.4477
_cell_angle_alpha    90
_cell_angle_beta     99.5652
_cell_angle_gamma    90

_symmetry_Int_Tables_number  38
_chemical_formula_structural  Ba2AlV3O8
_chemical_formula_sum  Ba2AlV3O8
_cell_volume  175.60725140617748
_cell_formula_units_Z  1
loop_
  _symmetry_equiv_pos_site_id
 _symmetry_equiv_pos_as_xyz
 1  'x, y, z'
loop_
 _atom_site_type_symbol
 _atom_site_label
 _atom_site_symmetry_multiplicity
 _atom_site_fract_x
 _atom_site_fract_y
 _atom_site_fract_z
 _atom_site_fract_occupancy
 Al  Al1  1  0.28616  0.50000  0.53663  1
 Ba  Ba1  1  0.43926  0.50000  0.84259  1
 Ba  Ba2  1  0.61420  0.50000  0.19271  1
 O  O1  1  -0.18538  0.50000  0.59372  1
 O  O2  1  0.30138  0.00000  0.56709  1
 O  O3  1  0.52067  0.00000  0.00551  1
 O  O4  1  0.91846  0.00000  0.80096  1
 O  O5  1  0.20899  0.50000  0.38238  1
 O  O6  1  0.70482  0.00000  0.37404  1
 O  O7  1  0.11203  0.00000  0.18836  1
 O  O8  1  0.02186  0.50000  0.00791  1
 V  V1  1  -0.16611  0.00000  0.63217  1
 V  V2  1  0.02601  0.00000  0.01620  1
 V  V3  1  0.19766  0.00000  0.35973  1
