CIF file written using JARVIS-Tools package.
data_Ag2S
_symmetry_space_group_name_H-M  'Cmcm'
_cell_length_a       4.22919
_cell_length_b       7.38954
_cell_length_c       4.22767
_cell_angle_alpha    90
_cell_angle_beta     111.186
_cell_angle_gamma    90

_symmetry_Int_Tables_number  63
_chemical_formula_structural  Ag2S
_chemical_formula_sum  Ag4S2
_cell_volume  123.19263812748989
_cell_formula_units_Z  2
loop_
  _symmetry_equiv_pos_site_id
 _symmetry_equiv_pos_as_xyz
 1  'x, y, z'
loop_
 _atom_site_type_symbol
 _atom_site_label
 _atom_site_symmetry_multiplicity
 _atom_site_fract_x
 _atom_site_fract_y
 _atom_site_fract_z
 _atom_site_fract_occupancy
 Ag  Ag1  1  0.11541  0.75000  0.88443  1
 Ag  Ag2  1  0.88459  0.25000  0.11557  1
 Ag  Ag3  1  0.50000  0.00000  0.50000  1
 Ag  Ag4  1  0.50000  0.50000  0.50000  1
 S  S1  1  0.72454  0.75000  0.27514  1
 S  S2  1  0.27546  0.25000  0.72486  1
