CIF file written using JARVIS-Tools package.
data_NaAgN2O4
_symmetry_space_group_name_H-M  'Fdd2'
_cell_length_a       6.49648
_cell_length_b       6.49648
_cell_length_c       6.73951
_cell_angle_alpha    108.842
_cell_angle_beta     108.842
_cell_angle_gamma    109.263

_symmetry_Int_Tables_number  43
_chemical_formula_structural  NaAgN2O4
_chemical_formula_sum  Na2Ag2N4O8
_cell_volume  222.8284626754702
_cell_formula_units_Z  2
loop_
  _symmetry_equiv_pos_site_id
 _symmetry_equiv_pos_as_xyz
 1  'x, y, z'
loop_
 _atom_site_type_symbol
 _atom_site_label
 _atom_site_symmetry_multiplicity
 _atom_site_fract_x
 _atom_site_fract_y
 _atom_site_fract_z
 _atom_site_fract_occupancy
 Ag  Ag1  1  0.24914  0.75086  0.50000  1
 Ag  Ag2  1  0.99914  0.00086  0.00000  1
 N  N1  1  0.51937  0.48063  0.50000  1
 N  N2  1  0.26937  0.73063  -0.00000  1
 N  N3  1  0.79394  0.20606  -0.00000  1
 N  N4  1  0.04394  0.95606  0.50000  1
 Na  Na1  1  0.76357  0.23643  0.50000  1
 Na  Na2  1  0.51357  0.48643  0.00000  1
 O  O1  1  0.79126  0.32982  0.18687  1
 O  O2  1  0.67018  0.20874  0.81313  1
 O  O3  1  0.85439  0.89295  0.31313  1
 O  O4  1  0.41034  0.50292  0.32073  1
 O  O5  1  0.10705  0.14561  0.68687  1
 O  O6  1  0.06781  0.66039  0.82073  1
 O  O7  1  0.49708  0.58966  0.67927  1
 O  O8  1  0.33961  0.93219  0.17927  1
