CIF file written using JARVIS-Tools package.
data_BaTe2O6
_symmetry_space_group_name_H-M  'Cmcm'
_cell_length_a       5.6558
_cell_length_b       7.0314
_cell_length_c       7.45186
_cell_angle_alpha    90
_cell_angle_beta     90
_cell_angle_gamma    113.715

_symmetry_Int_Tables_number  63
_chemical_formula_structural  BaTe2O6
_chemical_formula_sum  Ba2Te4O2
_cell_volume  271.3234937257482
_cell_formula_units_Z  2
loop_
  _symmetry_equiv_pos_site_id
 _symmetry_equiv_pos_as_xyz
 1  'x, y, z'
loop_
 _atom_site_type_symbol
 _atom_site_label
 _atom_site_symmetry_multiplicity
 _atom_site_fract_x
 _atom_site_fract_y
 _atom_site_fract_z
 _atom_site_fract_occupancy
 Ba  Ba1  1  0.71938  0.43876  0.25000  1
 Ba  Ba2  1  0.28062  0.56124  0.75000  1
 O  O1  1  0.86985  0.21387  0.95589  1
 O  O2  1  0.34403  0.21387  0.54411  1
 O  O3  1  0.13015  0.78613  0.45589  1
 O  O4  1  0.34403  0.21387  0.95589  1
 O  O5  1  0.13015  0.78613  0.04411  1
 O  O6  1  0.95169  0.90338  0.75000  1
 O  O7  1  0.65597  0.78613  0.04411  1
 O  O8  1  0.27048  0.54097  0.25000  1
 O  O9  1  0.86985  0.21387  0.54411  1
 O  O10  1  0.65597  0.78613  0.45589  1
 O  O11  1  0.04831  0.09662  0.25000  1
 O  O12  1  0.72952  0.45903  0.75000  1
 Te  Te1  1  0.00000  0.00000  0.00000  1
 Te  Te2  1  0.00000  0.00000  0.50000  1
 Te  Te3  1  0.41411  0.82822  0.25000  1
 Te  Te4  1  0.58589  0.17178  0.75000  1
