CIF file written using JARVIS-Tools package.
data_MgCoO2
_symmetry_space_group_name_H-M  'P2_1/m'
_cell_length_a       2.96929
_cell_length_b       7.43067
_cell_length_c       7.29545
_cell_angle_alpha    110.018
_cell_angle_beta     90.0037
_cell_angle_gamma    89.9987

_symmetry_Int_Tables_number  11
_chemical_formula_structural  MgCoO2
_chemical_formula_sum  Mg4Co4O8
_cell_volume  151.24093658066133
_cell_formula_units_Z  4
loop_
  _symmetry_equiv_pos_site_id
 _symmetry_equiv_pos_as_xyz
 1  'x, y, z'
loop_
 _atom_site_type_symbol
 _atom_site_label
 _atom_site_symmetry_multiplicity
 _atom_site_fract_x
 _atom_site_fract_y
 _atom_site_fract_z
 _atom_site_fract_occupancy
 Co  Co1  1  0.25887  0.41969  0.82146  1
 Co  Co2  1  0.25896  0.66701  0.54881  1
 Co  Co3  1  0.75915  0.30730  0.47036  1
 Co  Co4  1  0.75924  0.55461  0.19771  1
 Mg  Mg1  1  0.75909  0.79793  0.93989  1
 Mg  Mg2  1  0.25902  0.17637  0.07928  1
 Mg  Mg3  1  0.25910  0.92898  0.31811  1
 Mg  Mg4  1  0.75902  0.04533  0.70107  1
 O  O1  1  0.25914  0.41650  0.32079  1
 O  O2  1  0.25905  0.16601  0.57591  1
 O  O3  1  0.75907  0.80830  0.44326  1
 O  O4  1  0.75897  0.55781  0.69838  1
 O  O5  1  0.75896  0.29468  0.94965  1
 O  O6  1  0.25904  0.92616  0.82293  1
 O  O7  1  0.25915  0.67963  0.06953  1
 O  O8  1  0.75907  0.04815  0.19624  1
