CIF file written using JARVIS-Tools package.
data_SrAl4O7
_symmetry_space_group_name_H-M  'Cmme'
_cell_length_a       4.83166
_cell_length_b       8.18801
_cell_length_c       8.18801
_cell_angle_alpha    111.65
_cell_angle_beta     90
_cell_angle_gamma    90

_symmetry_Int_Tables_number  67
_chemical_formula_structural  SrAl4O7
_chemical_formula_sum  Sr2Al8O4
_cell_volume  301.0783160184078
_cell_formula_units_Z  2
loop_
  _symmetry_equiv_pos_site_id
 _symmetry_equiv_pos_as_xyz
 1  'x, y, z'
loop_
 _atom_site_type_symbol
 _atom_site_label
 _atom_site_symmetry_multiplicity
 _atom_site_fract_x
 _atom_site_fract_y
 _atom_site_fract_z
 _atom_site_fract_occupancy
 Al  Al1  1  0.55742  0.36881  0.63119  1
 Al  Al2  1  0.44258  0.63119  0.36881  1
 Al  Al3  1  0.50000  0.25000  0.25000  1
 Al  Al4  1  0.55742  0.13119  0.86881  1
 Al  Al5  1  0.44258  0.86881  0.13119  1
 Al  Al6  1  0.00000  0.50000  0.50000  1
 Al  Al7  1  0.00000  0.00000  0.00000  1
 Al  Al8  1  0.50000  0.75000  0.75000  1
 O  O1  1  0.26628  0.07326  0.21222  1
 O  O2  1  0.73372  0.92674  0.78778  1
 O  O3  1  0.79769  0.88304  0.11696  1
 O  O4  1  0.79769  0.61696  0.38304  1
 O  O5  1  0.20231  0.11696  0.88304  1
 O  O6  1  0.20231  0.38304  0.61696  1
 O  O7  1  0.73372  0.21222  0.07326  1
 O  O8  1  0.68209  0.25000  0.75000  1
 O  O9  1  0.26628  0.78778  0.92674  1
 O  O10  1  0.26628  0.42674  0.28778  1
 O  O11  1  0.26628  0.71222  0.57326  1
 O  O12  1  0.73372  0.28778  0.42674  1
 O  O13  1  0.31791  0.75000  0.25000  1
 O  O14  1  0.73372  0.57326  0.71222  1
 Sr  Sr1  1  0.00000  0.00000  0.50000  1
 Sr  Sr2  1  0.00000  0.50000  -0.00000  1
