CIF file written using JARVIS-Tools package.
data_Ta2NiS5
_symmetry_space_group_name_H-M  'Cmcm'
_cell_length_a       3.42487
_cell_length_b       6.37334
_cell_length_c       15.1997
_cell_angle_alpha    90
_cell_angle_beta     90
_cell_angle_gamma    105.586

_symmetry_Int_Tables_number  63
_chemical_formula_structural  Ta2NiS5
_chemical_formula_sum  Ta4Ni2S0
_cell_volume  319.57571975549365
_cell_formula_units_Z  2
loop_
  _symmetry_equiv_pos_site_id
 _symmetry_equiv_pos_as_xyz
 1  'x, y, z'
loop_
 _atom_site_type_symbol
 _atom_site_label
 _atom_site_symmetry_multiplicity
 _atom_site_fract_x
 _atom_site_fract_y
 _atom_site_fract_z
 _atom_site_fract_occupancy
 Ni  Ni1  1  0.30176  0.60352  0.25000  1
 Ni  Ni2  1  0.69824  0.39648  0.75000  1
 S  S1  1  0.68050  0.36099  0.25000  1
 S  S2  1  0.31950  0.63901  0.75000  1
 S  S3  1  0.14874  0.29748  0.45033  1
 S  S4  1  0.85126  0.70252  0.54967  1
 S  S5  1  0.85126  0.70252  0.95033  1
 S  S6  1  0.14874  0.29748  0.04967  1
 S  S7  1  0.58379  0.16759  0.86415  1
 S  S8  1  0.41621  0.83241  0.13585  1
 S  S9  1  0.41621  0.83241  0.36415  1
 S  S10  1  0.58379  0.16759  0.63585  1
 Ta  Ta1  1  0.22114  0.44228  0.60854  1
 Ta  Ta2  1  0.77886  0.55772  0.39146  1
 Ta  Ta3  1  0.77886  0.55772  0.10854  1
 Ta  Ta4  1  0.22114  0.44228  0.89146  1
