CIF file written using JARVIS-Tools package.
data_TiO2
_symmetry_space_group_name_H-M  'R3m'
_cell_length_a       5.83409
_cell_length_b       6.0055
_cell_length_c       6.0055
_cell_angle_alpha    60
_cell_angle_beta     59.0232
_cell_angle_gamma    59.0233

_symmetry_Int_Tables_number  160
_chemical_formula_structural  TiO2
_chemical_formula_sum  Ti4O8
_cell_volume  146.54944365027333
_cell_formula_units_Z  4
loop_
  _symmetry_equiv_pos_site_id
 _symmetry_equiv_pos_as_xyz
 1  'x, y, z'
loop_
 _atom_site_type_symbol
 _atom_site_label
 _atom_site_symmetry_multiplicity
 _atom_site_fract_x
 _atom_site_fract_y
 _atom_site_fract_z
 _atom_site_fract_occupancy
 O  O1  1  0.39686  0.36743  0.36743  1
 O  O2  1  0.39686  0.36743  0.86827  1
 O  O3  1  0.39686  0.86827  0.36743  1
 O  O4  1  0.85379  0.38207  0.38207  1
 O  O5  1  0.40191  0.86603  0.86603  1
 O  O6  1  0.83246  0.41983  0.87385  1
 O  O7  1  0.83246  0.87385  0.41983  1
 O  O8  1  0.83246  0.87385  0.87385  1
 Ti  Ti1  1  0.27345  0.24218  0.24218  1
 Ti  Ti2  1  0.63841  0.10011  0.63074  1
 Ti  Ti3  1  0.63841  0.63074  0.10010  1
 Ti  Ti4  1  0.63841  0.63074  0.63074  1
