CIF file written using JARVIS-Tools package.
data_Li2ZrF6
_symmetry_space_group_name_H-M  'C2/c'
_cell_length_a       5.12823
_cell_length_b       6.40781
_cell_length_c       6.40781
_cell_angle_alpha    75.747
_cell_angle_beta     71.3651
_cell_angle_gamma    71.365

_symmetry_Int_Tables_number  15
_chemical_formula_structural  Li2ZrF6
_chemical_formula_sum  Li4Zr2F2
_cell_volume  186.61474279300077
_cell_formula_units_Z  2
loop_
  _symmetry_equiv_pos_site_id
 _symmetry_equiv_pos_as_xyz
 1  'x, y, z'
loop_
 _atom_site_type_symbol
 _atom_site_label
 _atom_site_symmetry_multiplicity
 _atom_site_fract_x
 _atom_site_fract_y
 _atom_site_fract_z
 _atom_site_fract_occupancy
 F  F1  1  0.85523  0.67256  0.57227  1
 F  F2  1  0.00251  0.99505  0.75115  1
 F  F3  1  0.55055  0.11429  0.63126  1
 F  F4  1  0.35523  0.57227  0.67256  1
 F  F5  1  0.44945  0.88571  0.36874  1
 F  F6  1  0.05055  0.63126  0.11429  1
 F  F7  1  0.64477  0.42773  0.32744  1
 F  F8  1  0.94945  0.36874  0.88571  1
 F  F9  1  0.14477  0.32744  0.42773  1
 F  F10  1  0.99749  0.00495  0.24885  1
 F  F11  1  0.49749  0.24885  0.00495  1
 F  F12  1  0.50251  0.75115  0.99505  1
 Li  Li1  1  0.59523  0.13166  0.29375  1
 Li  Li2  1  0.90477  0.70625  0.86834  1
 Li  Li3  1  0.40477  0.86834  0.70625  1
 Li  Li4  1  0.09523  0.29375  0.13166  1
 Zr  Zr1  1  0.25000  0.68286  0.31714  1
 Zr  Zr2  1  0.75000  0.31714  0.68286  1
