CIF file written using JARVIS-Tools package.
data_YCd2
_symmetry_space_group_name_H-M  'P6/mmm'
_cell_length_a       3.46723
_cell_length_b       4.92
_cell_length_c       4.92
_cell_angle_alpha    120
_cell_angle_beta     90
_cell_angle_gamma    90.0001

_symmetry_Int_Tables_number  191
_chemical_formula_structural  YCd2
_chemical_formula_sum  YCd2
_cell_volume  72.68466318406047
_cell_formula_units_Z  1
loop_
  _symmetry_equiv_pos_site_id
 _symmetry_equiv_pos_as_xyz
 1  'x, y, z'
loop_
 _atom_site_type_symbol
 _atom_site_label
 _atom_site_symmetry_multiplicity
 _atom_site_fract_x
 _atom_site_fract_y
 _atom_site_fract_z
 _atom_site_fract_occupancy
 Cd  Cd1  1  0.50000  0.33333  0.66667  1
 Cd  Cd2  1  0.50000  0.66667  0.33333  1
 Y  Y1  1  0.00000  0.00000  0.00000  1
