CIF file written using JARVIS-Tools package.
data_SiAg4O4
_symmetry_space_group_name_H-M  'P4_2/n'
_cell_length_a       7.46497
_cell_length_b       7.46497
_cell_length_c       4.7738
_cell_angle_alpha    90
_cell_angle_beta     90
_cell_angle_gamma    90

_symmetry_Int_Tables_number  86
_chemical_formula_structural  SiAg4O4
_chemical_formula_sum  Si2Ag8O8
_cell_volume  266.023785948882
_cell_formula_units_Z  2
loop_
  _symmetry_equiv_pos_site_id
 _symmetry_equiv_pos_as_xyz
 1  'x, y, z'
loop_
 _atom_site_type_symbol
 _atom_site_label
 _atom_site_symmetry_multiplicity
 _atom_site_fract_x
 _atom_site_fract_y
 _atom_site_fract_z
 _atom_site_fract_occupancy
 Ag  Ag1  1  0.32450  0.88805  0.95552  1
 Ag  Ag2  1  0.88805  0.67550  0.04448  1
 Ag  Ag3  1  0.11195  0.32450  0.04448  1
 Ag  Ag4  1  0.61195  0.82450  0.45552  1
 Ag  Ag5  1  0.67550  0.11195  0.95552  1
 Ag  Ag6  1  0.17550  0.61195  0.54448  1
 Ag  Ag7  1  0.82450  0.38805  0.54448  1
 Ag  Ag8  1  0.38805  0.17550  0.45552  1
 O  O1  1  0.82766  0.93798  0.69545  1
 O  O2  1  0.93798  0.17234  0.30455  1
 O  O3  1  0.67234  0.56202  0.80455  1
 O  O4  1  0.17234  0.06202  0.69545  1
 O  O5  1  0.06202  0.82766  0.30455  1
 O  O6  1  0.32766  0.43798  0.80455  1
 O  O7  1  0.43798  0.67234  0.19545  1
 O  O8  1  0.56202  0.32766  0.19545  1
 Si  Si1  1  0.50000  0.50000  0.00000  1
 Si  Si2  1  0.00000  0.00000  0.50000  1
