CIF file written using JARVIS-Tools package.
data_Nd2Co17
_symmetry_space_group_name_H-M  'R-3m'
_cell_length_a       6.29796
_cell_length_b       6.29797
_cell_length_c       6.29796
_cell_angle_alpha    83.135
_cell_angle_beta     83.1349
_cell_angle_gamma    83.1349

_symmetry_Int_Tables_number  166
_chemical_formula_structural  Nd2Co17
_chemical_formula_sum  Nd2Co7
_cell_volume  244.82777574922025
_cell_formula_units_Z  1
loop_
  _symmetry_equiv_pos_site_id
 _symmetry_equiv_pos_as_xyz
 1  'x, y, z'
loop_
 _atom_site_type_symbol
 _atom_site_label
 _atom_site_symmetry_multiplicity
 _atom_site_fract_x
 _atom_site_fract_y
 _atom_site_fract_z
 _atom_site_fract_occupancy
 Co  Co1  1  0.09609  0.09609  0.09609  1
 Co  Co2  1  0.90391  0.90391  0.90391  1
 Co  Co3  1  -0.00000  0.00000  0.50000  1
 Co  Co4  1  0.50000  -0.00000  0.00000  1
 Co  Co5  1  -0.00000  0.50000  0.00000  1
 Co  Co6  1  0.28528  0.71472  0.00000  1
 Co  Co7  1  0.00000  0.28528  0.71472  1
 Co  Co8  1  0.71472  -0.00000  0.28528  1
 Co  Co9  1  0.71472  0.28528  -0.00000  1
 Co  Co10  1  -0.00000  0.71472  0.28528  1
 Co  Co11  1  0.65676  0.14832  0.65676  1
 Co  Co12  1  0.65676  0.65676  0.14832  1
 Co  Co13  1  0.14832  0.65676  0.65676  1
 Co  Co14  1  0.85168  0.34324  0.34324  1
 Co  Co15  1  0.34324  0.85168  0.34324  1
 Co  Co16  1  0.34324  0.34324  0.85168  1
 Co  Co17  1  0.28528  0.00000  0.71472  1
 Nd  Nd1  1  0.34475  0.34475  0.34475  1
 Nd  Nd2  1  0.65525  0.65525  0.65525  1
