CIF file written using JARVIS-Tools package.
data_TbKGeS4
_symmetry_space_group_name_H-M  'P2_1'
_cell_length_a       6.50774
_cell_length_b       6.66936
_cell_length_c       8.55049
_cell_angle_alpha    90
_cell_angle_beta     107.977
_cell_angle_gamma    90

_symmetry_Int_Tables_number  4
_chemical_formula_structural  TbKGeS4
_chemical_formula_sum  Tb2K2Ge2S8
_cell_volume  352.99532286732085
_cell_formula_units_Z  2
loop_
  _symmetry_equiv_pos_site_id
 _symmetry_equiv_pos_as_xyz
 1  'x, y, z'
loop_
 _atom_site_type_symbol
 _atom_site_label
 _atom_site_symmetry_multiplicity
 _atom_site_fract_x
 _atom_site_fract_y
 _atom_site_fract_z
 _atom_site_fract_occupancy
 Ge  Ge1  1  0.22070  0.89733  0.32111  1
 Ge  Ge2  1  0.77930  0.39733  0.67889  1
 K  K1  1  0.73822  0.87713  0.93712  1
 K  K2  1  0.26178  0.37713  0.06288  1
 S  S1  1  0.03192  0.63764  0.72336  1
 S  S2  1  0.42335  0.90070  0.15718  1
 S  S3  1  0.56599  0.46429  0.42419  1
 S  S4  1  0.43401  0.96429  0.57581  1
 S  S5  1  0.57665  0.40070  0.84282  1
 S  S6  1  0.01169  0.62479  0.29268  1
 S  S7  1  0.96808  0.13764  0.27664  1
 S  S8  1  0.98831  0.12479  0.70732  1
 Tb  Tb1  1  0.22957  0.36385  0.55226  1
 Tb  Tb2  1  0.77043  0.86385  0.44774  1
