CIF file written using JARVIS-Tools package.
data_CoO2
_symmetry_space_group_name_H-M  'Cm'
_cell_length_a       2.74382
_cell_length_b       2.7269
_cell_length_c       4.84987
_cell_angle_alpha    81.8522
_cell_angle_beta     73.6052
_cell_angle_gamma    59.8861

_symmetry_Int_Tables_number  8
_chemical_formula_structural  CoO2
_chemical_formula_sum  CoO2
_cell_volume  30.113372508473347
_cell_formula_units_Z  1
loop_
  _symmetry_equiv_pos_site_id
 _symmetry_equiv_pos_as_xyz
 1  'x, y, z'
loop_
 _atom_site_type_symbol
 _atom_site_label
 _atom_site_symmetry_multiplicity
 _atom_site_fract_x
 _atom_site_fract_y
 _atom_site_fract_z
 _atom_site_fract_occupancy
 Co  Co1  1  0.01857  0.00277  0.00000  1
 O  O1  1  0.43466  0.35109  0.75904  1
 O  O2  1  0.19437  0.35094  0.24096  1
