CIF file written using JARVIS-Tools package.
data_V2ZnO4
_symmetry_space_group_name_H-M  'Fd-3m'
_cell_length_a       5.96744
_cell_length_b       5.9679
_cell_length_c       5.96766
_cell_angle_alpha    90.0006
_cell_angle_beta     119.999
_cell_angle_gamma    119.999

_symmetry_Int_Tables_number  227
_chemical_formula_structural  V2ZnO4
_chemical_formula_sum  V4Zn2O8
_cell_volume  150.28286439179374
_cell_formula_units_Z  2
loop_
  _symmetry_equiv_pos_site_id
 _symmetry_equiv_pos_as_xyz
 1  'x, y, z'
loop_
 _atom_site_type_symbol
 _atom_site_label
 _atom_site_symmetry_multiplicity
 _atom_site_fract_x
 _atom_site_fract_y
 _atom_site_fract_z
 _atom_site_fract_occupancy
 O  O1  1  0.48004  0.22005  0.74003  1
 O  O2  1  0.98006  0.24004  0.72005  1
 O  O3  1  0.51995  0.24000  0.25999  1
 O  O4  1  0.98005  0.24003  0.26000  1
 O  O5  1  0.48005  0.76000  0.74001  1
 O  O6  1  0.01995  0.75997  0.74000  1
 O  O7  1  0.51996  0.77995  0.25997  1
 O  O8  1  0.01994  0.75996  0.27995  1
 V  V1  1  0.00000  -0.00000  0.50000  1
 V  V2  1  0.50000  0.00000  0.50000  1
 V  V3  1  0.50000  0.00000  0.00000  1
 V  V4  1  -0.00000  0.50000  0.50000  1
 Zn  Zn1  1  0.75000  0.62500  0.87500  1
 Zn  Zn2  1  0.25000  0.37500  0.12500  1
