CIF file written using JARVIS-Tools package.
data_Ho5Re2O12
_symmetry_space_group_name_H-M  'C2/m'
_cell_length_a       5.64448
_cell_length_b       6.80634
_cell_length_c       7.4994
_cell_angle_alpha    106.258
_cell_angle_beta     90
_cell_angle_gamma    114.497

_symmetry_Int_Tables_number  12
_chemical_formula_structural  Ho5Re2O12
_chemical_formula_sum  Ho5Re2O2
_cell_volume  249.46144116045878
_cell_formula_units_Z  1
loop_
  _symmetry_equiv_pos_site_id
 _symmetry_equiv_pos_as_xyz
 1  'x, y, z'
loop_
 _atom_site_type_symbol
 _atom_site_label
 _atom_site_symmetry_multiplicity
 _atom_site_fract_x
 _atom_site_fract_y
 _atom_site_fract_z
 _atom_site_fract_occupancy
 Ho  Ho1  1  0.30305  0.60610  0.64119  1
 Ho  Ho2  1  0.69695  0.39390  0.35881  1
 Ho  Ho3  1  0.00000  0.00000  0.50000  1
 Ho  Ho4  1  0.68550  0.37101  0.82427  1
 Ho  Ho5  1  0.31450  0.62899  0.17573  1
 O  O1  1  0.50117  0.00234  0.17899  1
 O  O2  1  0.00142  0.00283  0.79261  1
 O  O3  1  0.99858  0.99717  0.20739  1
 O  O4  1  0.91254  0.33238  0.08530  1
 O  O5  1  0.58016  0.66762  0.91470  1
 O  O6  1  0.08746  0.66762  0.91470  1
 O  O7  1  0.49883  0.99766  0.82101  1
 O  O8  1  0.90143  0.30742  0.57307  1
 O  O9  1  0.09857  0.69258  0.42693  1
 O  O10  1  0.41984  0.33238  0.08530  1
 O  O11  1  0.59401  0.69258  0.42693  1
 O  O12  1  0.40599  0.30742  0.57307  1
 Re  Re1  1  0.21516  0.00000  0.00000  1
 Re  Re2  1  0.78484  0.00000  0.00000  1
