CIF file written using JARVIS-Tools package.
data_MoSeS
_symmetry_space_group_name_H-M  'Cm'
_cell_length_a       3.25784
_cell_length_b       3.25785
_cell_length_c       25.6666
_cell_angle_alpha    89.9974
_cell_angle_beta     90.002
_cell_angle_gamma    120.001

_symmetry_Int_Tables_number  8
_chemical_formula_structural  MoSeS
_chemical_formula_sum  Mo4Se4S4
_cell_volume  235.91622445018078
_cell_formula_units_Z  4
loop_
  _symmetry_equiv_pos_site_id
 _symmetry_equiv_pos_as_xyz
 1  'x, y, z'
loop_
 _atom_site_type_symbol
 _atom_site_label
 _atom_site_symmetry_multiplicity
 _atom_site_fract_x
 _atom_site_fract_y
 _atom_site_fract_z
 _atom_site_fract_occupancy
 Mo  Mo1  1  0.33399  0.66699  0.00529  1
 Mo  Mo2  1  0.33270  0.66640  0.49605  1
 Mo  Mo3  1  0.66795  0.33406  0.24617  1
 Mo  Mo4  1  0.66536  0.33256  0.75541  1
 S  S1  1  0.33463  0.66737  0.30642  1
 S  S2  1  0.66729  0.33366  -0.05496  1
 S  S3  1  0.66734  0.33364  0.06551  1
 S  S4  1  0.33462  0.66741  0.18595  1
 Se  Se1  1  0.33205  0.66586  0.82156  1
 Se  Se2  1  0.66603  0.33309  0.42990  1
 Se  Se3  1  0.66601  0.33303  0.56222  1
 Se  Se4  1  0.33202  0.66592  0.68923  1
