CIF file written using JARVIS-Tools package.
data_Nb2Co2O9
_symmetry_space_group_name_H-M  'P6_3/mcm'
_cell_length_a       4.83276
_cell_length_b       4.83276
_cell_length_c       14.3157
_cell_angle_alpha    90
_cell_angle_beta     90
_cell_angle_gamma    120

_symmetry_Int_Tables_number  193
_chemical_formula_structural  Nb2Co2O9
_chemical_formula_sum  Nb4Co4O8
_cell_volume  289.556826159598
_cell_formula_units_Z  2
loop_
  _symmetry_equiv_pos_site_id
 _symmetry_equiv_pos_as_xyz
 1  'x, y, z'
loop_
 _atom_site_type_symbol
 _atom_site_label
 _atom_site_symmetry_multiplicity
 _atom_site_fract_x
 _atom_site_fract_y
 _atom_site_fract_z
 _atom_site_fract_occupancy
 Co  Co1  1  0.33333  0.66667  0.99714  1
 Co  Co2  1  0.33333  0.66667  0.49714  1
 Co  Co3  1  0.66667  0.33333  0.99714  1
 Co  Co4  1  0.66667  0.33333  0.49714  1
 Nb  Nb1  1  0.00000  0.00000  0.34125  1
 Nb  Nb2  1  0.00000  0.00000  0.84125  1
 Nb  Nb3  1  0.00000  0.00000  0.15287  1
 Nb  Nb4  1  0.00000  0.00000  0.65287  1
 O  O1  1  0.64749  -0.00000  0.42556  1
 O  O2  1  0.00017  0.30314  0.24716  1
 O  O3  1  0.64760  0.64760  0.56880  1
 O  O4  1  0.35240  -0.00000  0.56880  1
 O  O5  1  0.00017  0.69703  0.74716  1
 O  O6  1  0.69686  0.99983  0.74716  1
 O  O7  1  0.00000  0.64760  0.06880  1
 O  O8  1  0.00000  0.64749  0.42556  1
 O  O9  1  0.64749  0.64749  0.92556  1
 O  O10  1  0.00000  0.35240  0.56880  1
 O  O11  1  0.64760  -0.00000  0.06880  1
 O  O12  1  0.35251  0.35251  0.42556  1
 O  O13  1  0.69686  0.69703  0.24716  1
 O  O14  1  0.30297  0.99983  0.24716  1
 O  O15  1  0.30297  0.30314  0.74716  1
 O  O16  1  0.00000  0.35251  0.92556  1
 O  O17  1  0.35251  -0.00000  0.92556  1
 O  O18  1  0.35240  0.35240  0.06880  1
