CIF file written using JARVIS-Tools package.
data_CaGe2
_symmetry_space_group_name_H-M  'Cmmm'
_cell_length_a       18.32
_cell_length_b       4.23022
_cell_length_c       9.46669
_cell_angle_alpha    153.36
_cell_angle_beta     165.375
_cell_angle_gamma    22.5163

_symmetry_Int_Tables_number  65
_chemical_formula_structural  CaGe2
_chemical_formula_sum  CaGe2
_cell_volume  70.9341495065771
_cell_formula_units_Z  1
loop_
  _symmetry_equiv_pos_site_id
 _symmetry_equiv_pos_as_xyz
 1  'x, y, z'
loop_
 _atom_site_type_symbol
 _atom_site_label
 _atom_site_symmetry_multiplicity
 _atom_site_fract_x
 _atom_site_fract_y
 _atom_site_fract_z
 _atom_site_fract_occupancy
 Ca  Ca1  1  0.00000  0.00000  0.00000  1
 Ge  Ge1  1  0.67789  0.78877  -0.00000  1
 Ge  Ge2  1  0.32211  0.21123  0.00000  1
