CIF file written using JARVIS-Tools package.
data_MgNi2
_symmetry_space_group_name_H-M  'I4/mmm'
_cell_length_a       2.77109
_cell_length_b       2.77109
_cell_length_c       5.39914
_cell_angle_alpha    104.87
_cell_angle_beta     104.87
_cell_angle_gamma    89.9977

_symmetry_Int_Tables_number  139
_chemical_formula_structural  MgNi2
_chemical_formula_sum  MgNi2
_cell_volume  38.632935854150325
_cell_formula_units_Z  1
loop_
  _symmetry_equiv_pos_site_id
 _symmetry_equiv_pos_as_xyz
 1  'x, y, z'
loop_
 _atom_site_type_symbol
 _atom_site_label
 _atom_site_symmetry_multiplicity
 _atom_site_fract_x
 _atom_site_fract_y
 _atom_site_fract_z
 _atom_site_fract_occupancy
 Mg  Mg1  1  0.00000  0.00000  0.00000  1
 Ni  Ni1  1  0.67826  0.67826  0.35653  1
 Ni  Ni2  1  0.32174  0.32174  0.64347  1
