CIF file written using JARVIS-Tools package.
data_InAgP2Se6
_symmetry_space_group_name_H-M  'P-31c'
_cell_length_a       6.5636
_cell_length_b       6.5636
_cell_length_c       13.3986
_cell_angle_alpha    90
_cell_angle_beta     90
_cell_angle_gamma    120

_symmetry_Int_Tables_number  163
_chemical_formula_structural  InAgP2Se6
_chemical_formula_sum  In2Ag2P4Se2
_cell_volume  499.8884776920739
_cell_formula_units_Z  2
loop_
  _symmetry_equiv_pos_site_id
 _symmetry_equiv_pos_as_xyz
 1  'x, y, z'
loop_
 _atom_site_type_symbol
 _atom_site_label
 _atom_site_symmetry_multiplicity
 _atom_site_fract_x
 _atom_site_fract_y
 _atom_site_fract_z
 _atom_site_fract_occupancy
 Ag  Ag1  1  0.66667  0.33333  0.75000  1
 Ag  Ag2  1  0.33333  0.66667  0.25000  1
 In  In1  1  0.00000  0.00000  0.75000  1
 In  In2  1  0.00000  0.00000  0.25000  1
 P  P1  1  0.66667  0.33333  0.33579  1
 P  P2  1  0.66667  0.33333  0.16421  1
 P  P3  1  0.33333  0.66667  0.66421  1
 P  P4  1  0.33333  0.66667  0.83579  1
 Se  Se1  1  0.67712  0.01447  0.11629  1
 Se  Se2  1  0.33734  0.32288  0.11629  1
 Se  Se3  1  0.33734  0.01447  0.38371  1
 Se  Se4  1  0.98553  0.32288  0.38371  1
 Se  Se5  1  0.67712  0.66266  0.38371  1
 Se  Se6  1  0.66266  0.98553  0.61629  1
 Se  Se7  1  0.32288  0.98553  0.88371  1
 Se  Se8  1  0.32288  0.33734  0.61629  1
 Se  Se9  1  0.66266  0.67712  0.88371  1
 Se  Se10  1  0.01447  0.67712  0.61629  1
 Se  Se11  1  0.01447  0.33734  0.88371  1
 Se  Se12  1  0.98553  0.66266  0.11629  1
