CIF file written using JARVIS-Tools package.
data_CeSe2
_symmetry_space_group_name_H-M  'C2'
_cell_length_a       4.03691
_cell_length_b       4.03691
_cell_length_c       24.5949
_cell_angle_alpha    91.6849
_cell_angle_beta     91.6849
_cell_angle_gamma    120.02

_symmetry_Int_Tables_number  5
_chemical_formula_structural  CeSe2
_chemical_formula_sum  CeSe2
_cell_volume  346.44582122000526
_cell_formula_units_Z  1
loop_
  _symmetry_equiv_pos_site_id
 _symmetry_equiv_pos_as_xyz
 1  'x, y, z'
loop_
 _atom_site_type_symbol
 _atom_site_label
 _atom_site_symmetry_multiplicity
 _atom_site_fract_x
 _atom_site_fract_y
 _atom_site_fract_z
 _atom_site_fract_occupancy
 Ce  Ce1  1  0.07013  0.92987  -0.00000  1
 Se  Se1  1  0.76175  0.28808  0.06945  1
 Se  Se2  1  0.71192  0.23825  0.93055  1
