CIF file written using JARVIS-Tools package.
data_NdZrO3
_symmetry_space_group_name_H-M  'I-4m2'
_cell_length_a       7.59261
_cell_length_b       7.54039
_cell_length_c       7.59261
_cell_angle_alpha    60.2273
_cell_angle_beta     89.2145
_cell_angle_gamma    119.773

_symmetry_Int_Tables_number  119
_chemical_formula_structural  NdZrO3
_chemical_formula_sum  Nd4Zr4O2
_cell_volume  307.3403842017163
_cell_formula_units_Z  4
loop_
  _symmetry_equiv_pos_site_id
 _symmetry_equiv_pos_as_xyz
 1  'x, y, z'
loop_
 _atom_site_type_symbol
 _atom_site_label
 _atom_site_symmetry_multiplicity
 _atom_site_fract_x
 _atom_site_fract_y
 _atom_site_fract_z
 _atom_site_fract_occupancy
 Nd  Nd1  1  0.99315  0.00709  0.99315  1
 Nd  Nd2  1  0.49976  0.49291  0.01394  1
 Nd  Nd3  1  0.01394  0.00709  0.49976  1
 Nd  Nd4  1  0.99315  0.49291  0.99315  1
 O  O1  1  0.59593  0.19186  0.15407  1
 O  O2  1  0.15407  0.75000  0.59593  1
 O  O3  1  0.40886  0.25000  0.40886  1
 O  O4  1  0.12500  0.25000  0.12500  1
 O  O5  1  0.83159  0.25000  0.41841  1
 O  O6  1  0.83159  0.66319  0.41841  1
 O  O7  1  0.59593  0.75000  0.15407  1
 O  O8  1  0.15407  0.30814  0.59593  1
 O  O9  1  0.84114  0.25000  0.84114  1
 O  O10  1  0.87500  0.75000  0.87500  1
 O  O11  1  0.41841  0.25000  0.83159  1
 O  O12  1  0.41841  0.83681  0.83159  1
 Zr  Zr1  1  0.00877  0.50361  0.50155  1
 Zr  Zr2  1  0.49484  0.50361  0.49484  1
 Zr  Zr3  1  0.49484  0.99639  0.49484  1
 Zr  Zr4  1  0.50155  0.99639  0.00877  1
