CIF file written using JARVIS-Tools package.
data_Mg3B
_symmetry_space_group_name_H-M  'Pm-3m'
_cell_length_a       5.69867
_cell_length_b       4.02955
_cell_length_c       4.02994
_cell_angle_alpha    90
_cell_angle_beta     90
_cell_angle_gamma    135

_symmetry_Int_Tables_number  221
_chemical_formula_structural  Mg3B
_chemical_formula_sum  Mg3B
_cell_volume  65.43579171928701
_cell_formula_units_Z  1
loop_
  _symmetry_equiv_pos_site_id
 _symmetry_equiv_pos_as_xyz
 1  'x, y, z'
loop_
 _atom_site_type_symbol
 _atom_site_label
 _atom_site_symmetry_multiplicity
 _atom_site_fract_x
 _atom_site_fract_y
 _atom_site_fract_z
 _atom_site_fract_occupancy
 B  B1  1  0.24949  0.74949  0.25000  1
 Mg  Mg1  1  0.75022  0.75022  0.25000  1
 Mg  Mg2  1  0.25012  0.25012  0.75000  1
 Mg  Mg3  1  0.75017  0.25017  0.75000  1
