CIF file written using JARVIS-Tools package.
data_K4CO4
_symmetry_space_group_name_H-M  'I-42m'
_cell_length_a       5.28518
_cell_length_b       6.4796
_cell_length_c       6.47963
_cell_angle_alpha    80.4279
_cell_angle_beta     65.9311
_cell_angle_gamma    65.9321

_symmetry_Int_Tables_number  121
_chemical_formula_structural  K4CO4
_chemical_formula_sum  K4CO4
_cell_volume  184.99353008921076
_cell_formula_units_Z  1
loop_
  _symmetry_equiv_pos_site_id
 _symmetry_equiv_pos_as_xyz
 1  'x, y, z'
loop_
 _atom_site_type_symbol
 _atom_site_label
 _atom_site_symmetry_multiplicity
 _atom_site_fract_x
 _atom_site_fract_y
 _atom_site_fract_z
 _atom_site_fract_occupancy
 C  C1  1  0.50000  0.00000  -0.00000  1
 K  K1  1  0.02683  -0.00001  0.64849  1
 K  K2  1  0.97317  0.35151  0.00000  1
 K  K3  1  0.32469  0.64849  -0.00001  1
 K  K4  1  0.67531  0.00001  0.35151  1
 O  O1  1  0.44717  -0.00000  0.79916  1
 O  O2  1  0.75367  0.79916  -0.00000  1
 O  O3  1  0.55283  0.20084  0.00000  1
 O  O4  1  0.24633  0.00001  0.20084  1
