CIF file written using JARVIS-Tools package.
data_ZnCo4S8
_symmetry_space_group_name_H-M  'R-3m'
_cell_length_a       6.62423
_cell_length_b       6.79996
_cell_length_c       6.79996
_cell_angle_alpha    60
_cell_angle_beta     59.1185
_cell_angle_gamma    59.1185

_symmetry_Int_Tables_number  166
_chemical_formula_structural  ZnCo4S8
_chemical_formula_sum  ZnCo4S8
_cell_volume  213.6565487560178
_cell_formula_units_Z  1
loop_
  _symmetry_equiv_pos_site_id
 _symmetry_equiv_pos_as_xyz
 1  'x, y, z'
loop_
 _atom_site_type_symbol
 _atom_site_label
 _atom_site_symmetry_multiplicity
 _atom_site_fract_x
 _atom_site_fract_y
 _atom_site_fract_z
 _atom_site_fract_occupancy
 Co  Co1  1  0.00000  0.50000  0.50000  1
 Co  Co2  1  0.50000  0.50000  -0.00000  1
 Co  Co3  1  0.50000  0.50000  0.50000  1
 Co  Co4  1  0.50000  -0.00000  0.50000  1
 S  S1  1  0.26640  0.26032  0.26032  1
 S  S2  1  0.26640  0.26032  0.71297  1
 S  S3  1  0.26640  0.71297  0.26032  1
 S  S4  1  0.72051  0.25983  0.25983  1
 S  S5  1  0.27949  0.74017  0.74017  1
 S  S6  1  0.73360  0.73968  0.28703  1
 S  S7  1  0.73360  0.28703  0.73968  1
 S  S8  1  0.73360  0.73968  0.73968  1
 Zn  Zn1  1  0.50000  0.00000  0.00000  1
