CIF file written using JARVIS-Tools package.
data_LiMnBO3
_symmetry_space_group_name_H-M  'P-6'
_cell_length_a       8.19041
_cell_length_b       8.19041
_cell_length_c       3.13313
_cell_angle_alpha    90
_cell_angle_beta     90
_cell_angle_gamma    120

_symmetry_Int_Tables_number  174
_chemical_formula_structural  LiMnBO3
_chemical_formula_sum  Li3Mn3B3O9
_cell_volume  182.02033399907648
_cell_formula_units_Z  3
loop_
  _symmetry_equiv_pos_site_id
 _symmetry_equiv_pos_as_xyz
 1  'x, y, z'
loop_
 _atom_site_type_symbol
 _atom_site_label
 _atom_site_symmetry_multiplicity
 _atom_site_fract_x
 _atom_site_fract_y
 _atom_site_fract_z
 _atom_site_fract_occupancy
 B  B1  1  0.33333  0.66667  0.50000  1
 B  B2  1  0.66667  0.33333  0.50000  1
 B  B3  1  0.00000  0.00000  0.00000  1
 Li  Li1  1  0.28514  0.29978  0.50000  1
 Li  Li2  1  0.70022  0.98537  0.50000  1
 Li  Li3  1  0.01463  0.71486  0.50000  1
 Mn  Mn1  1  0.37023  0.00982  0.00000  1
 Mn  Mn2  1  0.63959  0.62977  0.00000  1
 Mn  Mn3  1  0.99018  0.36041  0.00000  1
 O  O1  1  0.77991  0.25141  0.50000  1
 O  O2  1  0.74859  0.52850  0.50000  1
 O  O3  1  0.42404  0.86183  0.50000  1
 O  O4  1  0.13817  0.56221  0.50000  1
 O  O5  1  0.43779  0.57596  0.50000  1
 O  O6  1  0.08018  0.88504  0.00000  1
 O  O7  1  0.11496  0.19514  0.00000  1
 O  O8  1  0.80486  0.91982  0.00000  1
 O  O9  1  0.47150  0.22009  0.50000  1
