CIF file written using JARVIS-Tools package.
data_YAl4Ni
_symmetry_space_group_name_H-M  'Cmcm'
_cell_length_a       4.07284
_cell_length_b       6.6433
_cell_length_c       7.99614
_cell_angle_alpha    90
_cell_angle_beta     104.754
_cell_angle_gamma    90

_symmetry_Int_Tables_number  63
_chemical_formula_structural  YAl4Ni
_chemical_formula_sum  Y2Al8Ni2
_cell_volume  209.2182880077031
_cell_formula_units_Z  2
loop_
  _symmetry_equiv_pos_site_id
 _symmetry_equiv_pos_as_xyz
 1  'x, y, z'
loop_
 _atom_site_type_symbol
 _atom_site_label
 _atom_site_symmetry_multiplicity
 _atom_site_fract_x
 _atom_site_fract_y
 _atom_site_fract_z
 _atom_site_fract_occupancy
 Al  Al1  1  0.81101  0.05225  0.62203  1
 Al  Al2  1  0.18899  0.94775  0.37797  1
 Al  Al3  1  0.18899  0.55225  0.37797  1
 Al  Al4  1  0.81101  0.44775  0.62203  1
 Al  Al5  1  0.00000  0.50000  0.00000  1
 Al  Al6  1  0.00000  0.00000  0.00000  1
 Al  Al7  1  0.42368  0.25000  0.84736  1
 Al  Al8  1  0.57632  0.75000  0.15264  1
 Ni  Ni1  1  0.27380  0.25000  0.54761  1
 Ni  Ni2  1  0.72620  0.75000  0.45239  1
 Y  Y1  1  0.38321  0.75000  0.76642  1
 Y  Y2  1  0.61679  0.25000  0.23358  1
