CIF file written using JARVIS-Tools package.
data_HfPt
_symmetry_space_group_name_H-M  'Cmcm'
_cell_length_a       3.4097
_cell_length_b       4.27629
_cell_length_c       5.4382
_cell_angle_alpha    90
_cell_angle_beta     71.73
_cell_angle_gamma    90

_symmetry_Int_Tables_number  63
_chemical_formula_structural  HfPt
_chemical_formula_sum  Hf2Pt2
_cell_volume  75.29622887984833
_cell_formula_units_Z  2
loop_
  _symmetry_equiv_pos_site_id
 _symmetry_equiv_pos_as_xyz
 1  'x, y, z'
loop_
 _atom_site_type_symbol
 _atom_site_label
 _atom_site_symmetry_multiplicity
 _atom_site_fract_x
 _atom_site_fract_y
 _atom_site_fract_z
 _atom_site_fract_occupancy
 Hf  Hf1  1  0.14230  0.75000  0.71540  1
 Hf  Hf2  1  0.85770  0.25000  0.28460  1
 Pt  Pt1  1  0.40611  0.75000  0.18777  1
 Pt  Pt2  1  0.59389  0.25000  0.81223  1
