CIF file written using JARVIS-Tools package.
data_RbAgO2
_symmetry_space_group_name_H-M  'Cmcm'
_cell_length_a       4.43686
_cell_length_b       6.00865
_cell_length_c       6.65958
_cell_angle_alpha    90
_cell_angle_beta     70.5418
_cell_angle_gamma    90

_symmetry_Int_Tables_number  63
_chemical_formula_structural  RbAgO2
_chemical_formula_sum  Rb2Ag2O4
_cell_volume  167.4012737168137
_cell_formula_units_Z  2
loop_
  _symmetry_equiv_pos_site_id
 _symmetry_equiv_pos_as_xyz
 1  'x, y, z'
loop_
 _atom_site_type_symbol
 _atom_site_label
 _atom_site_symmetry_multiplicity
 _atom_site_fract_x
 _atom_site_fract_y
 _atom_site_fract_z
 _atom_site_fract_occupancy
 Ag  Ag1  1  0.00303  0.25000  0.99393  1
 Ag  Ag2  1  0.99697  0.75000  0.00607  1
 O  O1  1  0.10732  0.99420  0.78537  1
 O  O2  1  0.89268  0.00580  0.21463  1
 O  O3  1  0.89268  0.49420  0.21463  1
 O  O4  1  0.10732  0.50580  0.78537  1
 Rb  Rb1  1  0.29473  0.25000  0.41053  1
 Rb  Rb2  1  0.70527  0.75000  0.58947  1
