CIF file written using JARVIS-Tools package.
data_YTaO4
_symmetry_space_group_name_H-M  'C2/c'
_cell_length_a       5.09187
_cell_length_b       5.35327
_cell_length_c       6.53114
_cell_angle_alpha    111.862
_cell_angle_beta     110.514
_cell_angle_gamma    95.5134

_symmetry_Int_Tables_number  15
_chemical_formula_structural  YTaO4
_chemical_formula_sum  Y2Ta2O8
_cell_volume  149.39655282644418
_cell_formula_units_Z  2
loop_
  _symmetry_equiv_pos_site_id
 _symmetry_equiv_pos_as_xyz
 1  'x, y, z'
loop_
 _atom_site_type_symbol
 _atom_site_label
 _atom_site_symmetry_multiplicity
 _atom_site_fract_x
 _atom_site_fract_y
 _atom_site_fract_z
 _atom_site_fract_occupancy
 O  O1  1  0.56078  0.27464  0.56245  1
 O  O2  1  0.79199  0.63178  0.07910  1
 O  O3  1  0.43922  0.72536  0.43755  1
 O  O4  1  0.71289  0.05268  0.92090  1
 O  O5  1  0.00167  0.78781  0.56245  1
 O  O6  1  0.28711  0.94732  0.07910  1
 O  O7  1  0.20801  0.36822  0.92090  1
 O  O8  1  -0.00167  0.21219  0.43755  1
 Ta  Ta1  1  0.85173  0.10173  0.70345  1
 Ta  Ta2  1  0.14827  0.89827  0.29655  1
 Y  Y1  1  0.38140  0.63140  0.76280  1
 Y  Y2  1  0.61860  0.36860  0.23720  1
