CIF file written using JARVIS-Tools package.
data_YMg3
_symmetry_space_group_name_H-M  'P4/mmm'
_cell_length_a       6.53873
_cell_length_b       4.52595
_cell_length_c       4.71766
_cell_angle_alpha    90
_cell_angle_beta     90
_cell_angle_gamma    133.803

_symmetry_Int_Tables_number  123
_chemical_formula_structural  YMg3
_chemical_formula_sum  YMg3
_cell_volume  100.76343944787195
_cell_formula_units_Z  1
loop_
  _symmetry_equiv_pos_site_id
 _symmetry_equiv_pos_as_xyz
 1  'x, y, z'
loop_
 _atom_site_type_symbol
 _atom_site_label
 _atom_site_symmetry_multiplicity
 _atom_site_fract_x
 _atom_site_fract_y
 _atom_site_fract_z
 _atom_site_fract_occupancy
 Mg  Mg1  1  0.75002  0.75002  0.25000  1
 Mg  Mg2  1  0.25001  0.25001  0.75000  1
 Mg  Mg3  1  0.74996  0.24996  0.75000  1
 Y  Y1  1  0.25001  0.75001  0.25000  1
