CIF file written using JARVIS-Tools package.
data_MgAl2S4
_symmetry_space_group_name_H-M  'R-3m'
_cell_length_a       12.398
_cell_length_b       12.398
_cell_length_c       12.398
_cell_angle_alpha    17.1995
_cell_angle_beta     17.1995
_cell_angle_gamma    17.1995

_symmetry_Int_Tables_number  166
_chemical_formula_structural  MgAl2S4
_chemical_formula_sum  MgAl2S4
_cell_volume  145.3884099660466
_cell_formula_units_Z  1
loop_
  _symmetry_equiv_pos_site_id
 _symmetry_equiv_pos_as_xyz
 1  'x, y, z'
loop_
 _atom_site_type_symbol
 _atom_site_label
 _atom_site_symmetry_multiplicity
 _atom_site_fract_x
 _atom_site_fract_y
 _atom_site_fract_z
 _atom_site_fract_occupancy
 Al  Al1  1  0.23644  0.23644  0.23644  1
 Al  Al2  1  0.76356  0.76356  0.76356  1
 Mg  Mg1  1  0.00000  0.00000  0.00000  1
 S  S1  1  0.12308  0.12308  0.12308  1
 S  S2  1  0.87692  0.87692  0.87692  1
 S  S3  1  0.29570  0.29570  0.29570  1
 S  S4  1  0.70430  0.70430  0.70430  1
