CIF file written using JARVIS-Tools package.
data_BaCaI4
_symmetry_space_group_name_H-M  'I4_1/a'
_cell_length_a       8.02804
_cell_length_b       10.0728
_cell_length_c       8.02804
_cell_angle_alpha    66.5155
_cell_angle_beta     90
_cell_angle_gamma    113.484

_symmetry_Int_Tables_number  88
_chemical_formula_structural  BaCaI4
_chemical_formula_sum  Ba2Ca2I8
_cell_volume  536.2727582159671
_cell_formula_units_Z  2
loop_
  _symmetry_equiv_pos_site_id
 _symmetry_equiv_pos_as_xyz
 1  'x, y, z'
loop_
 _atom_site_type_symbol
 _atom_site_label
 _atom_site_symmetry_multiplicity
 _atom_site_fract_x
 _atom_site_fract_y
 _atom_site_fract_z
 _atom_site_fract_occupancy
 Ba  Ba1  1  0.87500  0.25000  0.37500  1
 Ba  Ba2  1  0.12500  0.75000  0.62500  1
 Ca  Ca1  1  0.62500  0.75000  0.12500  1
 Ca  Ca2  1  0.37500  0.25000  0.87500  1
 I  I1  1  0.08049  0.05605  0.22493  1
 I  I2  1  0.27507  0.55605  0.02443  1
 I  I3  1  0.78099  0.55605  0.41951  1
 I  I4  1  0.52443  0.94395  0.28099  1
 I  I5  1  0.47557  0.05605  0.71901  1
 I  I6  1  0.21901  0.44395  0.58049  1
 I  I7  1  0.72493  0.44395  0.97557  1
 I  I8  1  0.91951  0.94395  0.77507  1
