CIF file written using JARVIS-Tools package.
data_TlSbTe2
_symmetry_space_group_name_H-M  'R-3m'
_cell_length_a       33.995
_cell_length_b       9.41068
_cell_length_c       17.1456
_cell_angle_alpha    166.671
_cell_angle_beta     172.464
_cell_angle_gamma    11.0256

_symmetry_Int_Tables_number  166
_chemical_formula_structural  TlSbTe2
_chemical_formula_sum  TlSbTe2
_cell_volume  137.58376014120844
_cell_formula_units_Z  1
loop_
  _symmetry_equiv_pos_site_id
 _symmetry_equiv_pos_as_xyz
 1  'x, y, z'
loop_
 _atom_site_type_symbol
 _atom_site_label
 _atom_site_symmetry_multiplicity
 _atom_site_fract_x
 _atom_site_fract_y
 _atom_site_fract_z
 _atom_site_fract_occupancy
 Sb  Sb1  1  -0.00000  0.50000  -0.00000  1
 Te  Te1  1  0.51977  0.20018  0.00000  1
 Te  Te2  1  0.48023  -0.20018  -0.00000  1
 Tl  Tl1  1  0.00000  0.00000  0.00000  1
