CIF file written using JARVIS-Tools package.
data_Ge4PbO9
_symmetry_space_group_name_H-M  'C2'
_cell_length_a       4.71324
_cell_length_b       6.88622
_cell_length_c       6.88622
_cell_angle_alpha    114.759
_cell_angle_beta     103.179
_cell_angle_gamma    103.179

_symmetry_Int_Tables_number  5
_chemical_formula_structural  Ge4PbO9
_chemical_formula_sum  Ge4PbO9
_cell_volume  183.91256794612687
_cell_formula_units_Z  1
loop_
  _symmetry_equiv_pos_site_id
 _symmetry_equiv_pos_as_xyz
 1  'x, y, z'
loop_
 _atom_site_type_symbol
 _atom_site_label
 _atom_site_symmetry_multiplicity
 _atom_site_fract_x
 _atom_site_fract_y
 _atom_site_fract_z
 _atom_site_fract_occupancy
 Ge  Ge1  1  0.50000  0.48739  0.51261  1
 Ge  Ge2  1  0.67999  0.48695  0.06913  1
 Ge  Ge3  1  0.00000  0.30791  0.69209  1
 Ge  Ge4  1  0.32001  0.93087  0.51305  1
 O  O1  1  0.60524  0.09150  0.45656  1
 O  O2  1  0.39476  0.54344  0.90850  1
 O  O3  1  0.84057  0.28541  0.92244  1
 O  O4  1  0.86619  0.55518  0.71361  1
 O  O5  1  0.15943  0.07756  0.71459  1
 O  O6  1  0.13381  0.28639  0.44482  1
 O  O7  1  0.51330  0.37544  0.22776  1
 O  O8  1  0.00000  0.75612  0.24388  1
 O  O9  1  0.48670  0.77224  0.62456  1
 Pb  Pb1  1  0.00000  -0.00299  0.00299  1
