CIF file written using JARVIS-Tools package.
data_Na4CO4
_symmetry_space_group_name_H-M  'P-43m'
_cell_length_a       4.66238
_cell_length_b       4.66234
_cell_length_c       4.66233
_cell_angle_alpha    90.0022
_cell_angle_beta     90
_cell_angle_gamma    90.0038

_symmetry_Int_Tables_number  215
_chemical_formula_structural  Na4CO4
_chemical_formula_sum  Na4CO4
_cell_volume  101.34756524279659
_cell_formula_units_Z  1
loop_
  _symmetry_equiv_pos_site_id
 _symmetry_equiv_pos_as_xyz
 1  'x, y, z'
loop_
 _atom_site_type_symbol
 _atom_site_label
 _atom_site_symmetry_multiplicity
 _atom_site_fract_x
 _atom_site_fract_y
 _atom_site_fract_z
 _atom_site_fract_occupancy
 C  C1  1  0.12271  0.12270  0.12272  1
 Na  Na1  1  0.83871  0.40686  0.40666  1
 Na  Na2  1  0.83867  0.83866  0.83864  1
 Na  Na3  1  0.40685  0.40667  0.83870  1
 Na  Na4  1  0.40667  0.83871  0.40685  1
 O  O1  1  0.30265  0.30265  0.30265  1
 O  O2  1  0.94274  0.94281  0.30263  1
 O  O3  1  0.94282  0.30263  0.94276  1
 O  O4  1  0.30263  0.94274  0.94283  1
