CIF file written using JARVIS-Tools package.
data_Y2NCl3
_symmetry_space_group_name_H-M  'C2/m'
_cell_length_a       3.8278
_cell_length_b       7.97272
_cell_length_c       9.65088
_cell_angle_alpha    71.0741
_cell_angle_beta     78.5616
_cell_angle_gamma    76.1102

_symmetry_Int_Tables_number  12
_chemical_formula_structural  Y2NCl3
_chemical_formula_sum  Y4N2Cl6
_cell_volume  268.1198145156419
_cell_formula_units_Z  2
loop_
  _symmetry_equiv_pos_site_id
 _symmetry_equiv_pos_as_xyz
 1  'x, y, z'
loop_
 _atom_site_type_symbol
 _atom_site_label
 _atom_site_symmetry_multiplicity
 _atom_site_fract_x
 _atom_site_fract_y
 _atom_site_fract_z
 _atom_site_fract_occupancy
 Cl  Cl1  1  0.94692  0.36648  0.73968  1
 Cl  Cl2  1  0.05308  0.63352  0.26032  1
 Cl  Cl3  1  0.33817  0.80632  0.51735  1
 Cl  Cl4  1  0.66183  0.19368  0.48265  1
 Cl  Cl5  1  0.22764  0.65877  0.88595  1
 Cl  Cl6  1  0.77236  0.34123  0.11405  1
 N  N1  1  0.57579  0.00601  0.84241  1
 N  N2  1  0.42421  0.99399  0.15759  1
 Y  Y1  1  0.13604  0.02270  0.70523  1
 Y  Y2  1  0.86396  0.97730  0.29477  1
 Y  Y3  1  0.41090  0.22784  0.95036  1
 Y  Y4  1  0.58910  0.77216  0.04964  1
