CIF file written using JARVIS-Tools package.
data_Sr3Li
_symmetry_space_group_name_H-M  'I4/mmm'
_cell_length_a       7.13259
_cell_length_b       7.13259
_cell_length_c       7.13259
_cell_angle_alpha    134.222
_cell_angle_beta     134.222
_cell_angle_gamma    66.7418

_symmetry_Int_Tables_number  139
_chemical_formula_structural  Sr3Li
_chemical_formula_sum  Sr3Li
_cell_volume  183.37390601382853
_cell_formula_units_Z  1
loop_
  _symmetry_equiv_pos_site_id
 _symmetry_equiv_pos_as_xyz
 1  'x, y, z'
loop_
 _atom_site_type_symbol
 _atom_site_label
 _atom_site_symmetry_multiplicity
 _atom_site_fract_x
 _atom_site_fract_y
 _atom_site_fract_z
 _atom_site_fract_occupancy
 Li  Li1  1  0.00000  0.00000  0.00000  1
 Sr  Sr1  1  0.75000  0.25000  0.50000  1
 Sr  Sr2  1  0.25000  0.75000  0.50000  1
 Sr  Sr3  1  0.50000  0.50000  0.00000  1
