CIF file written using JARVIS-Tools package.
data_HfMg
_symmetry_space_group_name_H-M  'P6_3mc'
_cell_length_a       3.01207
_cell_length_b       3.01207
_cell_length_c       11.389
_cell_angle_alpha    90
_cell_angle_beta     90
_cell_angle_gamma    120

_symmetry_Int_Tables_number  186
_chemical_formula_structural  HfMg
_chemical_formula_sum  Hf2Mg2
_cell_volume  89.48391173338997
_cell_formula_units_Z  2
loop_
  _symmetry_equiv_pos_site_id
 _symmetry_equiv_pos_as_xyz
 1  'x, y, z'
loop_
 _atom_site_type_symbol
 _atom_site_label
 _atom_site_symmetry_multiplicity
 _atom_site_fract_x
 _atom_site_fract_y
 _atom_site_fract_z
 _atom_site_fract_occupancy
 Hf  Hf1  1  0.33333  0.66667  0.94640  1
 Hf  Hf2  1  0.66667  0.33333  0.44640  1
 Mg  Mg1  1  0.33333  0.66667  0.67860  1
 Mg  Mg2  1  0.66667  0.33333  0.17860  1
