CIF file written using JARVIS-Tools package.
data_Nb3FeS6
_symmetry_space_group_name_H-M  'P6_322'
_cell_length_a       5.78683
_cell_length_b       5.78683
_cell_length_c       11.6042
_cell_angle_alpha    90
_cell_angle_beta     90
_cell_angle_gamma    120

_symmetry_Int_Tables_number  182
_chemical_formula_structural  Nb3FeS6
_chemical_formula_sum  Nb6Fe2S2
_cell_volume  336.5333449816973
_cell_formula_units_Z  2
loop_
  _symmetry_equiv_pos_site_id
 _symmetry_equiv_pos_as_xyz
 1  'x, y, z'
loop_
 _atom_site_type_symbol
 _atom_site_label
 _atom_site_symmetry_multiplicity
 _atom_site_fract_x
 _atom_site_fract_y
 _atom_site_fract_z
 _atom_site_fract_occupancy
 Fe  Fe1  1  0.33333  0.66667  0.25000  1
 Fe  Fe2  1  0.66667  0.33333  0.75000  1
 Nb  Nb1  1  0.66667  0.33333  0.49592  1
 Nb  Nb2  1  0.33333  0.66667  0.99592  1
 Nb  Nb3  1  0.00000  0.00000  0.50000  1
 Nb  Nb4  1  0.00000  0.00000  0.00000  1
 Nb  Nb5  1  0.66667  0.33333  0.00408  1
 Nb  Nb6  1  0.33333  0.66667  0.50408  1
 S  S1  1  0.33159  0.33724  0.13690  1
 S  S2  1  0.99435  0.66276  0.86310  1
 S  S3  1  0.00565  0.66841  0.13690  1
 S  S4  1  0.99435  0.33159  0.63690  1
 S  S5  1  0.66276  0.99435  0.13690  1
 S  S6  1  0.33159  0.99435  0.36310  1
 S  S7  1  0.33724  0.00565  0.63690  1
 S  S8  1  0.66276  0.66841  0.36310  1
 S  S9  1  0.66841  0.00565  0.86310  1
 S  S10  1  0.33724  0.33159  0.86310  1
 S  S11  1  0.66841  0.66276  0.63690  1
 S  S12  1  0.00565  0.33724  0.36310  1
