CIF file written using JARVIS-Tools package.
data_Zr3N2O3
_symmetry_space_group_name_H-M  'Cmc2_1'
_cell_length_a       3.98669
_cell_length_b       5.75149
_cell_length_c       10.8363
_cell_angle_alpha    90
_cell_angle_beta     90
_cell_angle_gamma    69.7218

_symmetry_Int_Tables_number  36
_chemical_formula_structural  Zr3N2O3
_chemical_formula_sum  Zr6N4O6
_cell_volume  233.07061623551186
_cell_formula_units_Z  2
loop_
  _symmetry_equiv_pos_site_id
 _symmetry_equiv_pos_as_xyz
 1  'x, y, z'
loop_
 _atom_site_type_symbol
 _atom_site_label
 _atom_site_symmetry_multiplicity
 _atom_site_fract_x
 _atom_site_fract_y
 _atom_site_fract_z
 _atom_site_fract_occupancy
 N  N1  1  0.04828  0.90345  0.38628  1
 N  N2  1  0.70751  0.58497  0.57508  1
 N  N3  1  0.29249  0.41503  0.07508  1
 N  N4  1  0.95172  0.09655  0.88628  1
 O  O1  1  0.04311  0.91378  0.11731  1
 O  O2  1  0.69125  0.61750  0.91874  1
 O  O3  1  0.75530  0.48941  0.25932  1
 O  O4  1  0.24470  0.51059  0.75932  1
 O  O5  1  0.30875  0.38250  0.41874  1
 O  O6  1  0.95689  0.08622  0.61731  1
 Zr  Zr1  1  0.13487  0.73027  0.93899  1
 Zr  Zr2  1  0.13765  0.72470  0.55537  1
 Zr  Zr3  1  0.18453  0.63094  0.24892  1
 Zr  Zr4  1  0.81547  0.36906  0.74892  1
 Zr  Zr5  1  0.86235  0.27530  0.05537  1
 Zr  Zr6  1  0.86513  0.26973  0.43899  1
