CIF file written using JARVIS-Tools package.
data_NdCrS2O
_symmetry_space_group_name_H-M  'C2/m'
_cell_length_a       3.69913
_cell_length_b       6.04101
_cell_length_c       7.92258
_cell_angle_alpha    90.2377
_cell_angle_beta     90.0019
_cell_angle_gamma    107.828

_symmetry_Int_Tables_number  12
_chemical_formula_structural  NdCrS2O
_chemical_formula_sum  Nd2Cr2S4O2
_cell_volume  168.53845479184181
_cell_formula_units_Z  2
loop_
  _symmetry_equiv_pos_site_id
 _symmetry_equiv_pos_as_xyz
 1  'x, y, z'
loop_
 _atom_site_type_symbol
 _atom_site_label
 _atom_site_symmetry_multiplicity
 _atom_site_fract_x
 _atom_site_fract_y
 _atom_site_fract_z
 _atom_site_fract_occupancy
 Cr  Cr1  1  0.00001  0.99999  -0.00000  1
 Cr  Cr2  1  0.49999  0.00001  0.50000  1
 Nd  Nd1  1  0.73471  0.46943  0.79216  1
 Nd  Nd2  1  0.26529  0.53057  0.20784  1
 O  O1  1  0.16540  0.33080  0.93944  1
 O  O2  1  0.83460  0.66919  0.06057  1
 S  S1  1  0.86453  0.72907  0.47084  1
 S  S2  1  0.54415  0.08830  0.19872  1
 S  S3  1  0.45585  0.91169  0.80128  1
 S  S4  1  0.13546  0.27095  0.52916  1
