CIF file written using JARVIS-Tools package.
data_NiH2O2
_symmetry_space_group_name_H-M  'P-3m1'
_cell_length_a       4.46828
_cell_length_b       5.46968
_cell_length_c       5.46968
_cell_angle_alpha    33.5181
_cell_angle_beta     35.2199
_cell_angle_gamma    35.2199

_symmetry_Int_Tables_number  164
_chemical_formula_structural  NiH2O2
_chemical_formula_sum  NiH2O2
_cell_volume  38.50426170902963
_cell_formula_units_Z  1
loop_
  _symmetry_equiv_pos_site_id
 _symmetry_equiv_pos_as_xyz
 1  'x, y, z'
loop_
 _atom_site_type_symbol
 _atom_site_label
 _atom_site_symmetry_multiplicity
 _atom_site_fract_x
 _atom_site_fract_y
 _atom_site_fract_z
 _atom_site_fract_occupancy
 H  H1  1  0.22299  0.55397  0.77937  1
 H  H2  1  0.77701  0.22063  0.44603  1
 Ni  Ni1  1  0.00000  0.88729  0.11271  1
 O  O1  1  0.44209  0.55396  0.77938  1
 O  O2  1  0.55791  0.22062  0.44604  1
