CIF file written using JARVIS-Tools package.
data_CeSe2
_symmetry_space_group_name_H-M  'P-3m1'
_cell_length_a       4.24524
_cell_length_b       4.24449
_cell_length_c       6.03179
_cell_angle_alpha    90.0436
_cell_angle_beta     90
_cell_angle_gamma    120.006

_symmetry_Int_Tables_number  164
_chemical_formula_structural  CeSe2
_chemical_formula_sum  CeSe2
_cell_volume  94.11917497770764
_cell_formula_units_Z  1
loop_
  _symmetry_equiv_pos_site_id
 _symmetry_equiv_pos_as_xyz
 1  'x, y, z'
loop_
 _atom_site_type_symbol
 _atom_site_label
 _atom_site_symmetry_multiplicity
 _atom_site_fract_x
 _atom_site_fract_y
 _atom_site_fract_z
 _atom_site_fract_occupancy
 Ce  Ce1  1  0.00000  0.00000  0.00000  1
 Se  Se1  1  0.66682  0.33363  0.24508  1
 Se  Se2  1  0.33318  0.66637  0.75492  1
