CIF file written using JARVIS-Tools package.
data_CuAgO2
_symmetry_space_group_name_H-M  'P-1'
_cell_length_a       3.33004
_cell_length_b       2.87952
_cell_length_c       6.12279
_cell_angle_alpha    117.803
_cell_angle_beta     89.4017
_cell_angle_gamma    92.8466

_symmetry_Int_Tables_number  2
_chemical_formula_structural  CuAgO2
_chemical_formula_sum  CuAgO2
_cell_volume  51.86340285556539
_cell_formula_units_Z  1
loop_
  _symmetry_equiv_pos_site_id
 _symmetry_equiv_pos_as_xyz
 1  'x, y, z'
loop_
 _atom_site_type_symbol
 _atom_site_label
 _atom_site_symmetry_multiplicity
 _atom_site_fract_x
 _atom_site_fract_y
 _atom_site_fract_z
 _atom_site_fract_occupancy
 Ag  Ag1  1  0.00000  0.00000  0.00000  1
 Cu  Cu1  1  0.50000  0.00000  0.50000  1
 O  O1  1  0.50575  0.27015  0.26819  1
 O  O2  1  0.49425  0.72985  0.73181  1
