CIF file written using JARVIS-Tools package.
data_PbO
_symmetry_space_group_name_H-M  'Cmc2_1'
_cell_length_a       3.59193
_cell_length_b       3.59195
_cell_length_c       7.61645
_cell_angle_alpha    76.3414
_cell_angle_beta     103.645
_cell_angle_gamma    60.0497

_symmetry_Int_Tables_number  36
_chemical_formula_structural  PbO
_chemical_formula_sum  Pb2O2
_cell_volume  75.07814300094809
_cell_formula_units_Z  2
loop_
  _symmetry_equiv_pos_site_id
 _symmetry_equiv_pos_as_xyz
 1  'x, y, z'
loop_
 _atom_site_type_symbol
 _atom_site_label
 _atom_site_symmetry_multiplicity
 _atom_site_fract_x
 _atom_site_fract_y
 _atom_site_fract_z
 _atom_site_fract_occupancy
 O  O1  1  0.03633  0.46477  0.28569  1
 O  O2  1  0.53521  0.96376  0.78569  1
 Pb  Pb1  1  0.04704  0.11861  0.96431  1
 Pb  Pb2  1  0.88141  0.95286  0.46431  1
