CIF file written using JARVIS-Tools package.
data_RbHS
_symmetry_space_group_name_H-M  'Amm2'
_cell_length_a       4.30834
_cell_length_b       4.30835
_cell_length_c       6.89519
_cell_angle_alpha    51.9759
_cell_angle_beta     51.9758
_cell_angle_gamma    90.7213

_symmetry_Int_Tables_number  38
_chemical_formula_structural  RbHS
_chemical_formula_sum  RbHS
_cell_volume  61.56630520681321
_cell_formula_units_Z  1
loop_
  _symmetry_equiv_pos_site_id
 _symmetry_equiv_pos_as_xyz
 1  'x, y, z'
loop_
 _atom_site_type_symbol
 _atom_site_label
 _atom_site_symmetry_multiplicity
 _atom_site_fract_x
 _atom_site_fract_y
 _atom_site_fract_z
 _atom_site_fract_occupancy
 H  H1  1  0.09619  0.90381  -0.00000  1
 Rb  Rb1  1  0.62982  0.37018  -0.00000  1
 S  S1  1  0.64199  0.35801  0.50000  1
