CIF file written using JARVIS-Tools package.
data_YCuS2
_symmetry_space_group_name_H-M  'Pnma'
_cell_length_a       3.95757
_cell_length_b       6.26527
_cell_length_c       13.409
_cell_angle_alpha    90
_cell_angle_beta     90
_cell_angle_gamma    90

_symmetry_Int_Tables_number  62
_chemical_formula_structural  YCuS2
_chemical_formula_sum  Y4Cu4S8
_cell_volume  332.47860388150383
_cell_formula_units_Z  4
loop_
  _symmetry_equiv_pos_site_id
 _symmetry_equiv_pos_as_xyz
 1  'x, y, z'
loop_
 _atom_site_type_symbol
 _atom_site_label
 _atom_site_symmetry_multiplicity
 _atom_site_fract_x
 _atom_site_fract_y
 _atom_site_fract_z
 _atom_site_fract_occupancy
 Cu  Cu1  1  0.25000  0.12226  0.95349  1
 Cu  Cu2  1  0.75000  0.62226  0.54651  1
 Cu  Cu3  1  0.75000  0.87774  0.04651  1
 Cu  Cu4  1  0.25000  0.37774  0.45349  1
 S  S1  1  0.25000  0.26100  0.79439  1
 S  S2  1  0.75000  0.73900  0.20561  1
 S  S3  1  0.75000  0.76100  0.70561  1
 S  S4  1  0.25000  0.23900  0.29439  1
 S  S5  1  0.25000  0.74489  0.95979  1
 S  S6  1  0.25000  0.75511  0.45979  1
 S  S7  1  0.75000  0.24489  0.54021  1
 S  S8  1  0.75000  0.25511  0.04021  1
 Y  Y1  1  0.25000  0.49960  0.13373  1
 Y  Y2  1  0.75000  0.50040  0.86627  1
 Y  Y3  1  0.75000  -0.00040  0.36627  1
 Y  Y4  1  0.25000  0.00040  0.63373  1
