CIF file written using JARVIS-Tools package.
data_BPPbO5
_symmetry_space_group_name_H-M  'P3_121'
_cell_length_a       6.94956
_cell_length_b       6.94956
_cell_length_c       6.91298
_cell_angle_alpha    90
_cell_angle_beta     90
_cell_angle_gamma    120

_symmetry_Int_Tables_number  152
_chemical_formula_structural  BPPbO5
_chemical_formula_sum  B3P3Pb3O5
_cell_volume  289.1414908429126
_cell_formula_units_Z  3
loop_
  _symmetry_equiv_pos_site_id
 _symmetry_equiv_pos_as_xyz
 1  'x, y, z'
loop_
 _atom_site_type_symbol
 _atom_site_label
 _atom_site_symmetry_multiplicity
 _atom_site_fract_x
 _atom_site_fract_y
 _atom_site_fract_z
 _atom_site_fract_occupancy
 B  B1  1  0.09854  0.09854  0.00000  1
 B  B2  1  0.00000  0.90146  0.66667  1
 B  B3  1  0.90146  0.00000  0.33333  1
 O  O1  1  0.86287  0.44653  0.02178  1
 O  O2  1  0.55347  0.41634  0.35511  1
 O  O3  1  0.13713  0.58366  0.31155  1
 O  O4  1  0.95672  0.00000  0.83333  1
 O  O5  1  0.00000  0.95672  0.16667  1
 O  O6  1  0.04328  0.04328  0.50000  1
 O  O7  1  0.58366  0.13713  0.68845  1
 O  O8  1  0.85179  0.18589  0.29319  1
 O  O9  1  0.81411  0.66590  0.62652  1
 O  O10  1  0.66590  0.81411  0.37348  1
 O  O11  1  0.33410  0.14821  0.95986  1
 O  O12  1  0.14821  0.33410  0.04014  1
 O  O13  1  0.44653  0.86287  0.97822  1
 O  O14  1  0.18589  0.85179  0.70681  1
 O  O15  1  0.41634  0.55347  0.64489  1
 P  P1  1  0.40256  -0.00000  0.83333  1
 P  P2  1  -0.00000  0.40256  0.16667  1
 P  P3  1  0.59744  0.59744  0.50000  1
 Pb  Pb1  1  0.39102  -0.00000  0.33333  1
 Pb  Pb2  1  -0.00000  0.39102  0.66667  1
 Pb  Pb3  1  0.60898  0.60898  0.00000  1
