CIF file written using JARVIS-Tools package.
data_KHS
_symmetry_space_group_name_H-M  'R3m'
_cell_length_a       4.29073
_cell_length_b       4.29073
_cell_length_c       4.29073
_cell_angle_alpha    70.372
_cell_angle_beta     70.372
_cell_angle_gamma    70.3719

_symmetry_Int_Tables_number  160
_chemical_formula_structural  KHS
_chemical_formula_sum  KHS
_cell_volume  67.82899217595885
_cell_formula_units_Z  1
loop_
  _symmetry_equiv_pos_site_id
 _symmetry_equiv_pos_as_xyz
 1  'x, y, z'
loop_
 _atom_site_type_symbol
 _atom_site_label
 _atom_site_symmetry_multiplicity
 _atom_site_fract_x
 _atom_site_fract_y
 _atom_site_fract_z
 _atom_site_fract_occupancy
 H  H1  1  0.64300  0.64300  0.64300  1
 K  K1  1  0.00577  0.00577  0.00577  1
 S  S1  1  0.50223  0.50223  0.50223  1
