CIF file written using JARVIS-Tools package.
data_TiCdO3
_symmetry_space_group_name_H-M  'Pmc2_1'
_cell_length_a       5.3679
_cell_length_b       5.48417
_cell_length_c       7.68166
_cell_angle_alpha    90
_cell_angle_beta     90
_cell_angle_gamma    90

_symmetry_Int_Tables_number  26
_chemical_formula_structural  TiCdO3
_chemical_formula_sum  Ti4Cd4O2
_cell_volume  226.13598286829202
_cell_formula_units_Z  4
loop_
  _symmetry_equiv_pos_site_id
 _symmetry_equiv_pos_as_xyz
 1  'x, y, z'
loop_
 _atom_site_type_symbol
 _atom_site_label
 _atom_site_symmetry_multiplicity
 _atom_site_fract_x
 _atom_site_fract_y
 _atom_site_fract_z
 _atom_site_fract_occupancy
 Cd  Cd1  1  0.26192  0.69271  0.50000  1
 Cd  Cd2  1  0.73808  0.19271  0.50000  1
 Cd  Cd3  1  0.75251  0.11435  0.00000  1
 Cd  Cd4  1  0.24749  0.61435  0.00000  1
 O  O1  1  0.15822  0.11377  0.50000  1
 O  O2  1  0.05019  0.84490  0.79679  1
 O  O3  1  0.33885  0.17260  0.00000  1
 O  O4  1  0.94981  0.34490  0.79679  1
 O  O5  1  0.05019  0.84490  0.20321  1
 O  O6  1  0.94981  0.34490  0.20321  1
 O  O7  1  0.55233  0.94035  0.29836  1
 O  O8  1  0.66115  0.67260  0.00000  1
 O  O9  1  0.44767  0.44035  0.29836  1
 O  O10  1  0.44767  0.44035  0.70164  1
 O  O11  1  0.84178  0.61377  0.50000  1
 O  O12  1  0.55233  0.94035  0.70164  1
 Ti  Ti1  1  0.75519  0.66309  0.74932  1
 Ti  Ti2  1  0.24481  0.16309  0.25068  1
 Ti  Ti3  1  0.24481  0.16309  0.74932  1
 Ti  Ti4  1  0.75519  0.66309  0.25068  1
