CIF file written using JARVIS-Tools package.
data_MgFe2O4
_symmetry_space_group_name_H-M  'Pnma'
_cell_length_a       8.75104
_cell_length_b       2.78712
_cell_length_c       10.0387
_cell_angle_alpha    90
_cell_angle_beta     89.9979
_cell_angle_gamma    90

_symmetry_Int_Tables_number  62
_chemical_formula_structural  MgFe2O4
_chemical_formula_sum  Mg4Fe8O6
_cell_volume  244.84544018653406
_cell_formula_units_Z  4
loop_
  _symmetry_equiv_pos_site_id
 _symmetry_equiv_pos_as_xyz
 1  'x, y, z'
loop_
 _atom_site_type_symbol
 _atom_site_label
 _atom_site_symmetry_multiplicity
 _atom_site_fract_x
 _atom_site_fract_y
 _atom_site_fract_z
 _atom_site_fract_occupancy
 Fe  Fe1  1  0.94601  0.50000  0.88046  1
 Fe  Fe2  1  0.44601  0.50000  0.61955  1
 Fe  Fe3  1  0.05399  0.00000  0.11955  1
 Fe  Fe4  1  0.55399  0.00000  0.38044  1
 Fe  Fe5  1  0.40870  0.50000  0.09965  1
 Fe  Fe6  1  0.59130  0.00000  0.90035  1
 Fe  Fe7  1  0.09130  0.00000  0.59966  1
 Fe  Fe8  1  0.90870  0.50000  0.40035  1
 Mg  Mg1  1  0.24276  0.00000  0.34195  1
 Mg  Mg2  1  0.74276  0.00000  0.15804  1
 Mg  Mg3  1  0.75724  0.50000  0.65805  1
 Mg  Mg4  1  0.25723  0.50000  0.84196  1
 O  O1  1  0.61913  0.50000  0.03794  1
 O  O2  1  0.30067  0.00000  0.67540  1
 O  O3  1  0.59276  0.00000  0.57020  1
 O  O4  1  0.80067  0.00000  0.82462  1
 O  O5  1  0.19933  0.50000  0.17539  1
 O  O6  1  0.38087  0.00000  0.96205  1
 O  O7  1  0.69934  0.50000  0.32460  1
 O  O8  1  0.90723  0.50000  0.07022  1
 O  O9  1  0.54387  0.50000  0.78459  1
 O  O10  1  0.95616  0.00000  0.28460  1
 O  O11  1  0.04384  0.50000  0.71541  1
 O  O12  1  0.09276  0.00000  0.92979  1
 O  O13  1  0.88087  0.00000  0.53795  1
 O  O14  1  0.45614  0.00000  0.21540  1
 O  O15  1  0.11913  0.50000  0.46206  1
 O  O16  1  0.40724  0.50000  0.42979  1
