CIF file written using JARVIS-Tools package.
data_Al2O3
_symmetry_space_group_name_H-M  'R3m'
_cell_length_a       3.03306
_cell_length_b       6.07769
_cell_length_c       3.03306
_cell_angle_alpha    104.449
_cell_angle_beta     60
_cell_angle_gamma    104.449

_symmetry_Int_Tables_number  160
_chemical_formula_structural  Al2O3
_chemical_formula_sum  Al2O3
_cell_volume  46.36735367614884
_cell_formula_units_Z  1
loop_
  _symmetry_equiv_pos_site_id
 _symmetry_equiv_pos_as_xyz
 1  'x, y, z'
loop_
 _atom_site_type_symbol
 _atom_site_label
 _atom_site_symmetry_multiplicity
 _atom_site_fract_x
 _atom_site_fract_y
 _atom_site_fract_z
 _atom_site_fract_occupancy
 Al  Al1  1  0.19300  0.57901  0.19300  1
 Al  Al2  1  0.69333  0.07998  0.69333  1
 O  O1  1  0.02810  0.08429  0.02810  1
 O  O2  1  0.58208  0.74625  0.58208  1
 O  O3  1  0.80649  0.41946  0.80649  1
