CIF file written using JARVIS-Tools package.
data_InSiTe3
_symmetry_space_group_name_H-M  'P-31m'
_cell_length_a       7.16034
_cell_length_b       7.16033
_cell_length_c       7.19427
_cell_angle_alpha    90
_cell_angle_beta     90
_cell_angle_gamma    120

_symmetry_Int_Tables_number  162
_chemical_formula_structural  InSiTe3
_chemical_formula_sum  In2Si2Te6
_cell_volume  319.4360975566042
_cell_formula_units_Z  2
loop_
  _symmetry_equiv_pos_site_id
 _symmetry_equiv_pos_as_xyz
 1  'x, y, z'
loop_
 _atom_site_type_symbol
 _atom_site_label
 _atom_site_symmetry_multiplicity
 _atom_site_fract_x
 _atom_site_fract_y
 _atom_site_fract_z
 _atom_site_fract_occupancy
 In  In1  1  0.66667  0.33333  0.49987  1
 In  In2  1  0.33333  0.66667  0.50013  1
 Si  Si1  1  0.00000  0.00000  0.33727  1
 Si  Si2  1  0.00000  0.00000  0.66273  1
 Te  Te1  1  0.00009  0.66130  0.23204  1
 Te  Te2  1  0.33870  0.33879  0.23204  1
 Te  Te3  1  0.99991  0.33870  0.76796  1
 Te  Te4  1  0.33879  0.00009  0.76796  1
 Te  Te5  1  0.66121  0.99991  0.23204  1
 Te  Te6  1  0.66130  0.66121  0.76796  1
