CIF file written using JARVIS-Tools package.
data_IrPb
_symmetry_space_group_name_H-M  'P6_3/mmc'
_cell_length_a       4.20229
_cell_length_b       4.20229
_cell_length_c       5.67224
_cell_angle_alpha    90
_cell_angle_beta     90
_cell_angle_gamma    120

_symmetry_Int_Tables_number  194
_chemical_formula_structural  IrPb
_chemical_formula_sum  Ir2Pb2
_cell_volume  86.74743040058713
_cell_formula_units_Z  2
loop_
  _symmetry_equiv_pos_site_id
 _symmetry_equiv_pos_as_xyz
 1  'x, y, z'
loop_
 _atom_site_type_symbol
 _atom_site_label
 _atom_site_symmetry_multiplicity
 _atom_site_fract_x
 _atom_site_fract_y
 _atom_site_fract_z
 _atom_site_fract_occupancy
 Ir  Ir1  1  0.00000  0.00000  0.00000  1
 Ir  Ir2  1  0.00000  0.00000  0.50000  1
 Pb  Pb1  1  0.33333  0.66667  0.25000  1
 Pb  Pb2  1  0.66667  0.33333  0.75000  1
