CIF file written using JARVIS-Tools package.
data_Hf3N4
_symmetry_space_group_name_H-M  'Pnma'
_cell_length_a       3.24021
_cell_length_b       9.79322
_cell_length_c       10.7114
_cell_angle_alpha    90
_cell_angle_beta     90
_cell_angle_gamma    90

_symmetry_Int_Tables_number  62
_chemical_formula_structural  Hf3N4
_chemical_formula_sum  Hf2N6
_cell_volume  339.8951896838325
_cell_formula_units_Z  4
loop_
  _symmetry_equiv_pos_site_id
 _symmetry_equiv_pos_as_xyz
 1  'x, y, z'
loop_
 _atom_site_type_symbol
 _atom_site_label
 _atom_site_symmetry_multiplicity
 _atom_site_fract_x
 _atom_site_fract_y
 _atom_site_fract_z
 _atom_site_fract_occupancy
 Hf  Hf1  1  0.75298  0.06968  0.12451  1
 Hf  Hf2  1  0.25298  0.43032  0.62451  1
 Hf  Hf3  1  0.75303  0.10659  0.59326  1
 Hf  Hf4  1  0.25298  0.27241  0.35336  1
 Hf  Hf5  1  0.25303  0.39341  0.09326  1
 Hf  Hf6  1  0.25298  0.77241  0.14664  1
 Hf  Hf7  1  0.75298  0.22759  0.85336  1
 Hf  Hf8  1  0.75303  0.60659  0.90674  1
 Hf  Hf9  1  0.75298  0.72759  0.64664  1
 Hf  Hf10  1  0.25303  0.89341  0.40674  1
 Hf  Hf11  1  0.25298  0.93032  0.87549  1
 Hf  Hf12  1  0.75298  0.56968  0.37549  1
 N  N1  1  0.75301  0.35824  0.48223  1
 N  N2  1  0.75299  0.00795  0.77508  1
 N  N3  1  0.75303  0.89682  0.52999  1
 N  N4  1  0.25301  0.14176  0.98223  1
 N  N5  1  0.25299  0.23813  0.71451  1
 N  N6  1  0.75299  0.26187  0.21451  1
 N  N7  1  0.25303  0.10318  0.47001  1
 N  N8  1  0.75301  0.85824  0.01777  1
 N  N9  1  0.25303  0.60318  0.02999  1
 N  N10  1  0.25301  0.64176  0.51777  1
 N  N11  1  0.25299  0.73813  0.78549  1
 N  N12  1  0.75299  0.76187  0.28549  1
 N  N13  1  0.75303  0.39682  0.97001  1
 N  N14  1  0.75299  0.50795  0.72492  1
 N  N15  1  0.25299  0.49205  0.27508  1
 N  N16  1  0.25299  0.99205  0.22492  1
