CIF file written using JARVIS-Tools package.
data_KRbO
_symmetry_space_group_name_H-M  'P4/nmm'
_cell_length_a       4.61341
_cell_length_b       4.61341
_cell_length_c       6.7118
_cell_angle_alpha    90
_cell_angle_beta     90
_cell_angle_gamma    90

_symmetry_Int_Tables_number  129
_chemical_formula_structural  KRbO
_chemical_formula_sum  K2Rb2O2
_cell_volume  142.85076648753477
_cell_formula_units_Z  2
loop_
  _symmetry_equiv_pos_site_id
 _symmetry_equiv_pos_as_xyz
 1  'x, y, z'
loop_
 _atom_site_type_symbol
 _atom_site_label
 _atom_site_symmetry_multiplicity
 _atom_site_fract_x
 _atom_site_fract_y
 _atom_site_fract_z
 _atom_site_fract_occupancy
 K  K1  1  0.00000  0.50000  0.39308  1
 K  K2  1  0.50000  0.00000  0.60692  1
 O  O1  1  0.00000  0.50000  0.76048  1
 O  O2  1  0.50000  0.00000  0.23952  1
 Rb  Rb1  1  0.00000  0.00000  0.00000  1
 Rb  Rb2  1  0.50000  0.50000  0.00000  1
