CIF file written using JARVIS-Tools package.
data_Mg3W
_symmetry_space_group_name_H-M  'Pmm2'
_cell_length_a       6.10834
_cell_length_b       2.8191
_cell_length_c       4.91065
_cell_angle_alpha    90
_cell_angle_beta     90
_cell_angle_gamma    117.485

_symmetry_Int_Tables_number  25
_chemical_formula_structural  Mg3W
_chemical_formula_sum  Mg3W
_cell_volume  75.01711053679482
_cell_formula_units_Z  1
loop_
  _symmetry_equiv_pos_site_id
 _symmetry_equiv_pos_as_xyz
 1  'x, y, z'
loop_
 _atom_site_type_symbol
 _atom_site_label
 _atom_site_symmetry_multiplicity
 _atom_site_fract_x
 _atom_site_fract_y
 _atom_site_fract_z
 _atom_site_fract_occupancy
 Mg  Mg1  1  0.65067  0.65067  0.25000  1
 Mg  Mg2  1  0.32996  0.32996  0.75000  1
 Mg  Mg3  1  0.86816  0.36816  0.75000  1
 W  W1  1  0.15120  0.65120  0.25000  1
