CIF file written using JARVIS-Tools package.
data_GeF2
_symmetry_space_group_name_H-M  'P2_12_12_1'
_cell_length_a       4.55616
_cell_length_b       5.19313
_cell_length_c       7.92054
_cell_angle_alpha    90
_cell_angle_beta     90
_cell_angle_gamma    90

_symmetry_Int_Tables_number  19
_chemical_formula_structural  GeF2
_chemical_formula_sum  Ge4F8
_cell_volume  187.40572066959052
_cell_formula_units_Z  4
loop_
  _symmetry_equiv_pos_site_id
 _symmetry_equiv_pos_as_xyz
 1  'x, y, z'
loop_
 _atom_site_type_symbol
 _atom_site_label
 _atom_site_symmetry_multiplicity
 _atom_site_fract_x
 _atom_site_fract_y
 _atom_site_fract_z
 _atom_site_fract_occupancy
 F  F1  1  0.42430  0.77485  0.79472  1
 F  F2  1  0.92430  0.72515  0.20528  1
 F  F3  1  0.57570  0.27485  0.70528  1
 F  F4  1  0.07570  0.22515  0.29472  1
 F  F5  1  0.96215  0.10496  0.96193  1
 F  F6  1  0.46215  0.39504  0.03807  1
 F  F7  1  0.03785  0.60496  0.53807  1
 F  F8  1  0.53785  0.89504  0.46193  1
 Ge  Ge1  1  0.24446  0.98971  0.62371  1
 Ge  Ge2  1  0.74446  0.51029  0.37629  1
 Ge  Ge3  1  0.75554  0.48971  0.87629  1
 Ge  Ge4  1  0.25554  0.01029  0.12371  1
