CIF file written using JARVIS-Tools package.
data_HgCN2
_symmetry_space_group_name_H-M  'P2_1/c'
_cell_length_a       5.59708
_cell_length_b       6.91378
_cell_length_c       7.06583
_cell_angle_alpha    90
_cell_angle_beta     90
_cell_angle_gamma    112.478

_symmetry_Int_Tables_number  14
_chemical_formula_structural  HgCN2
_chemical_formula_sum  Hg4C4N8
_cell_volume  252.6532292050662
_cell_formula_units_Z  4
loop_
  _symmetry_equiv_pos_site_id
 _symmetry_equiv_pos_as_xyz
 1  'x, y, z'
loop_
 _atom_site_type_symbol
 _atom_site_label
 _atom_site_symmetry_multiplicity
 _atom_site_fract_x
 _atom_site_fract_y
 _atom_site_fract_z
 _atom_site_fract_occupancy
 C  C1  1  0.43143  0.77608  0.36122  1
 C  C2  1  0.43143  0.27608  0.13878  1
 C  C3  1  0.56857  0.22392  0.63878  1
 C  C4  1  0.56857  0.72392  0.86122  1
 Hg  Hg1  1  0.00730  0.25570  0.88614  1
 Hg  Hg2  1  0.99270  0.74430  0.11386  1
 Hg  Hg3  1  0.99270  0.24430  0.38614  1
 Hg  Hg4  1  0.00730  0.75570  0.61386  1
 N  N1  1  0.81660  0.28468  0.63837  1
 N  N2  1  0.33981  0.67422  0.86314  1
 N  N3  1  0.66019  0.82578  0.36314  1
 N  N4  1  0.18340  0.71532  0.36163  1
 N  N5  1  0.66019  0.32578  0.13686  1
 N  N6  1  0.81660  0.78468  0.86163  1
 N  N7  1  0.18340  0.21532  0.13837  1
 N  N8  1  0.33981  0.17422  0.63686  1
