CIF file written using JARVIS-Tools package.
data_YHO2
_symmetry_space_group_name_H-M  'Pmn2_1'
_cell_length_a       3.50183
_cell_length_b       4.85819
_cell_length_c       5.47979
_cell_angle_alpha    90
_cell_angle_beta     90
_cell_angle_gamma    90

_symmetry_Int_Tables_number  31
_chemical_formula_structural  YHO2
_chemical_formula_sum  Y2H2O4
_cell_volume  93.22520644864684
_cell_formula_units_Z  2
loop_
  _symmetry_equiv_pos_site_id
 _symmetry_equiv_pos_as_xyz
 1  'x, y, z'
loop_
 _atom_site_type_symbol
 _atom_site_label
 _atom_site_symmetry_multiplicity
 _atom_site_fract_x
 _atom_site_fract_y
 _atom_site_fract_z
 _atom_site_fract_occupancy
 H  H1  1  0.50000  0.18719  0.96230  1
 H  H2  1  0.00000  0.81281  0.46230  1
 O  O1  1  0.50000  0.01729  0.85402  1
 O  O2  1  0.00000  0.51910  0.62207  1
 O  O3  1  0.00000  0.98271  0.35402  1
 O  O4  1  0.50000  0.48090  0.12207  1
 Y  Y1  1  0.00000  0.72115  0.98440  1
 Y  Y2  1  0.50000  0.27885  0.48440  1
