CIF file written using JARVIS-Tools package.
data_PrLuO3
_symmetry_space_group_name_H-M  'Pnma'
_cell_length_a       5.759
_cell_length_b       6.00043
_cell_length_c       8.32515
_cell_angle_alpha    90
_cell_angle_beta     90
_cell_angle_gamma    90

_symmetry_Int_Tables_number  62
_chemical_formula_structural  PrLuO3
_chemical_formula_sum  Pr4Lu4O2
_cell_volume  287.6879955221386
_cell_formula_units_Z  4
loop_
  _symmetry_equiv_pos_site_id
 _symmetry_equiv_pos_as_xyz
 1  'x, y, z'
loop_
 _atom_site_type_symbol
 _atom_site_label
 _atom_site_symmetry_multiplicity
 _atom_site_fract_x
 _atom_site_fract_y
 _atom_site_fract_z
 _atom_site_fract_occupancy
 Lu  Lu1  1  0.00000  0.50000  0.00000  1
 Lu  Lu2  1  0.50000  0.00000  0.00000  1
 Lu  Lu3  1  0.50000  0.00000  0.50000  1
 Lu  Lu4  1  0.00000  0.50000  0.50000  1
 O  O1  1  0.12283  0.44775  0.25000  1
 O  O2  1  0.69442  0.30313  0.43490  1
 O  O3  1  0.37717  0.94775  0.25000  1
 O  O4  1  0.80558  0.80313  0.06510  1
 O  O5  1  0.30558  0.69687  0.93490  1
 O  O6  1  0.19442  0.19687  0.56510  1
 O  O7  1  0.80558  0.80313  0.43490  1
 O  O8  1  0.87717  0.55225  0.75000  1
 O  O9  1  0.69442  0.30313  0.06510  1
 O  O10  1  0.30558  0.69687  0.56510  1
 O  O11  1  0.62283  0.05225  0.75000  1
 O  O12  1  0.19442  0.19687  0.93490  1
 Pr  Pr1  1  0.01710  0.94483  0.75000  1
 Pr  Pr2  1  0.51710  0.55517  0.25000  1
 Pr  Pr3  1  0.48290  0.44483  0.75000  1
 Pr  Pr4  1  0.98290  0.05517  0.25000  1
