CIF file written using JARVIS-Tools package.
data_AgXeF9
_symmetry_space_group_name_H-M  'I4/m'
_cell_length_a       5.56621
_cell_length_b       5.56621
_cell_length_c       11.1976
_cell_angle_alpha    104.391
_cell_angle_beta     104.391
_cell_angle_gamma    90

_symmetry_Int_Tables_number  87
_chemical_formula_structural  AgXeF9
_chemical_formula_sum  Ag2Xe2F8
_cell_volume  324.79576390437705
_cell_formula_units_Z  2
loop_
  _symmetry_equiv_pos_site_id
 _symmetry_equiv_pos_as_xyz
 1  'x, y, z'
loop_
 _atom_site_type_symbol
 _atom_site_label
 _atom_site_symmetry_multiplicity
 _atom_site_fract_x
 _atom_site_fract_y
 _atom_site_fract_z
 _atom_site_fract_occupancy
 Ag  Ag1  1  0.50000  -0.00000  0.00000  1
 Ag  Ag2  1  0.00000  0.50000  0.00000  1
 F  F1  1  0.22354  0.36595  0.12735  1
 F  F2  1  0.24584  0.24584  0.49168  1
 F  F3  1  0.75416  0.75416  0.50832  1
 F  F4  1  0.32523  0.85575  0.34081  1
 F  F5  1  0.48505  0.32523  0.34081  1
 F  F6  1  0.85575  0.01557  0.34081  1
 F  F7  1  0.01557  0.48505  0.34081  1
 F  F8  1  0.67477  0.14425  0.65919  1
 F  F9  1  0.36595  0.90380  0.12735  1
 F  F10  1  0.98443  0.51495  0.65919  1
 F  F11  1  0.90380  0.76140  0.12735  1
 F  F12  1  0.76140  0.22354  0.12735  1
 F  F13  1  0.23860  0.77646  0.87265  1
 F  F14  1  0.09620  0.23860  0.87265  1
 F  F15  1  0.77646  0.63405  0.87265  1
 F  F16  1  0.63405  0.09620  0.87265  1
 F  F17  1  0.51495  0.67477  0.65919  1
 F  F18  1  0.14425  0.98443  0.65919  1
 Xe  Xe1  1  0.84889  0.84889  0.69779  1
 Xe  Xe2  1  0.15111  0.15111  0.30221  1
