CIF file written using JARVIS-Tools package.
data_Li2BeSiO4
_symmetry_space_group_name_H-M  'C222_1'
_cell_length_a       4.89833
_cell_length_b       4.89834
_cell_length_c       6.1083
_cell_angle_alpha    90
_cell_angle_beta     90
_cell_angle_gamma    90.5578

_symmetry_Int_Tables_number  20
_chemical_formula_structural  Li2BeSiO4
_chemical_formula_sum  Li4Be2Si2O8
_cell_volume  146.5535710862816
_cell_formula_units_Z  2
loop_
  _symmetry_equiv_pos_site_id
 _symmetry_equiv_pos_as_xyz
 1  'x, y, z'
loop_
 _atom_site_type_symbol
 _atom_site_label
 _atom_site_symmetry_multiplicity
 _atom_site_fract_x
 _atom_site_fract_y
 _atom_site_fract_z
 _atom_site_fract_occupancy
 Be  Be1  1  0.67995  0.67995  0.50000  1
 Be  Be2  1  0.32005  0.32005  0.00000  1
 Li  Li1  1  0.68155  0.68155  0.00000  1
 Li  Li2  1  0.80360  0.19640  0.75000  1
 Li  Li3  1  0.31845  0.31845  0.50000  1
 Li  Li4  1  0.19640  0.80360  0.25000  1
 O  O1  1  0.71580  0.34380  0.46842  1
 O  O2  1  0.65620  0.28420  0.03158  1
 O  O3  1  0.15450  0.21982  0.22031  1
 O  O4  1  0.84550  0.78018  0.72031  1
 O  O5  1  0.78018  0.84550  0.27969  1
 O  O6  1  0.28420  0.65620  0.96842  1
 O  O7  1  0.21982  0.15450  0.77969  1
 O  O8  1  0.34380  0.71580  0.53158  1
 Si  Si1  1  0.17948  0.82052  0.75000  1
 Si  Si2  1  0.82052  0.17948  0.25000  1
