CIF file written using JARVIS-Tools package.
data_TbOF
_symmetry_space_group_name_H-M  'C2/m'
_cell_length_a       16.1688
_cell_length_b       4.34022
_cell_length_c       8.37389
_cell_angle_alpha    133.732
_cell_angle_beta     164.891
_cell_angle_gamma    44.2718

_symmetry_Int_Tables_number  12
_chemical_formula_structural  TbOF
_chemical_formula_sum  Tb2O2F2
_cell_volume  106.92719662825347
_cell_formula_units_Z  2
loop_
  _symmetry_equiv_pos_site_id
 _symmetry_equiv_pos_as_xyz
 1  'x, y, z'
loop_
 _atom_site_type_symbol
 _atom_site_label
 _atom_site_symmetry_multiplicity
 _atom_site_fract_x
 _atom_site_fract_y
 _atom_site_fract_z
 _atom_site_fract_occupancy
 F  F1  1  0.17558  0.25976  -0.00000  1
 F  F2  1  0.82442  0.74024  0.00000  1
 O  O1  1  0.42242  -0.04236  -0.00000  1
 O  O2  1  0.57758  0.04236  0.00000  1
 Tb  Tb1  1  0.38420  0.55792  0.00000  1
 Tb  Tb2  1  0.61580  0.44208  -0.00000  1
