CIF file written using JARVIS-Tools package.
data_CeMg3
_symmetry_space_group_name_H-M  'Pmm2'
_cell_length_a       6.93099
_cell_length_b       3.10625
_cell_length_c       5.27263
_cell_angle_alpha    90
_cell_angle_beta     90
_cell_angle_gamma    116.626

_symmetry_Int_Tables_number  25
_chemical_formula_structural  CeMg3
_chemical_formula_sum  CeMg3
_cell_volume  101.47802815972433
_cell_formula_units_Z  1
loop_
  _symmetry_equiv_pos_site_id
 _symmetry_equiv_pos_as_xyz
 1  'x, y, z'
loop_
 _atom_site_type_symbol
 _atom_site_label
 _atom_site_symmetry_multiplicity
 _atom_site_fract_x
 _atom_site_fract_y
 _atom_site_fract_z
 _atom_site_fract_occupancy
 Ce  Ce1  1  0.15443  0.65443  0.25000  1
 Mg  Mg1  1  0.65300  0.65300  0.25000  1
 Mg  Mg2  1  0.35959  0.35959  0.75000  1
 Mg  Mg3  1  0.83298  0.33298  0.75000  1
