CIF file written using JARVIS-Tools package.
data_Tm2O3
_symmetry_space_group_name_H-M  'C2/m'
_cell_length_a       3.42029
_cell_length_b       7.10639
_cell_length_c       8.47533
_cell_angle_alpha    99.8988
_cell_angle_beta     90
_cell_angle_gamma    103.925

_symmetry_Int_Tables_number  12
_chemical_formula_structural  Tm2O3
_chemical_formula_sum  Tm6O9
_cell_volume  196.78556992111396
_cell_formula_units_Z  3
loop_
  _symmetry_equiv_pos_site_id
 _symmetry_equiv_pos_as_xyz
 1  'x, y, z'
loop_
 _atom_site_type_symbol
 _atom_site_label
 _atom_site_symmetry_multiplicity
 _atom_site_fract_x
 _atom_site_fract_y
 _atom_site_fract_z
 _atom_site_fract_occupancy
 O  O1  1  0.12752  0.25505  0.28158  1
 O  O2  1  0.20720  0.41440  0.62304  1
 O  O3  1  0.52973  0.05947  0.65659  1
 O  O4  1  0.87248  0.74495  0.71842  1
 O  O5  1  0.82547  0.65094  0.03141  1
 O  O6  1  0.50000  0.00000  0.00000  1
 O  O7  1  0.17453  0.34906  0.96859  1
 O  O8  1  0.79280  0.58560  0.37696  1
 O  O9  1  0.47027  0.94053  0.34341  1
 Tm  Tm1  1  0.63516  0.27032  0.48672  1
 Tm  Tm2  1  0.69105  0.38209  0.13733  1
 Tm  Tm3  1  0.30895  0.61791  0.86267  1
 Tm  Tm4  1  0.03260  0.06521  0.81406  1
 Tm  Tm5  1  0.36484  0.72968  0.51328  1
 Tm  Tm6  1  0.96740  0.93479  0.18594  1
