CIF file written using JARVIS-Tools package.
data_AlWO4
_symmetry_space_group_name_H-M  'C2/m'
_cell_length_a       4.59628
_cell_length_b       5.4246
_cell_length_c       5.42461
_cell_angle_alpha    64.3133
_cell_angle_beta     88.109
_cell_angle_gamma    88.109

_symmetry_Int_Tables_number  12
_chemical_formula_structural  AlWO4
_chemical_formula_sum  Al2W2O8
_cell_volume  121.79319775288995
_cell_formula_units_Z  2
loop_
  _symmetry_equiv_pos_site_id
 _symmetry_equiv_pos_as_xyz
 1  'x, y, z'
loop_
 _atom_site_type_symbol
 _atom_site_label
 _atom_site_symmetry_multiplicity
 _atom_site_fract_x
 _atom_site_fract_y
 _atom_site_fract_z
 _atom_site_fract_occupancy
 Al  Al1  1  0.51072  0.26063  0.26063  1
 Al  Al2  1  0.48928  0.73937  0.73937  1
 O  O1  1  0.20028  0.59784  0.59784  1
 O  O2  1  0.79972  0.40216  0.40216  1
 O  O3  1  0.77701  0.88475  0.88475  1
 O  O4  1  0.22299  0.11525  0.11525  1
 O  O5  1  0.69762  0.39645  0.90448  1
 O  O6  1  0.30238  0.09552  0.60355  1
 O  O7  1  0.30238  0.60355  0.09552  1
 O  O8  1  0.69762  0.90448  0.39645  1
 W  W1  1  -0.00000  0.77184  0.22816  1
 W  W2  1  0.00000  0.22816  0.77184  1
