CIF file written using JARVIS-Tools package.
data_CoSb3
_symmetry_space_group_name_H-M  'Im-3'
_cell_length_a       7.91233
_cell_length_b       7.91233
_cell_length_c       7.91233
_cell_angle_alpha    109.471
_cell_angle_beta     109.471
_cell_angle_gamma    109.471

_symmetry_Int_Tables_number  204
_chemical_formula_structural  CoSb3
_chemical_formula_sum  Co4Sb2
_cell_volume  381.32210675902815
_cell_formula_units_Z  4
loop_
  _symmetry_equiv_pos_site_id
 _symmetry_equiv_pos_as_xyz
 1  'x, y, z'
loop_
 _atom_site_type_symbol
 _atom_site_label
 _atom_site_symmetry_multiplicity
 _atom_site_fract_x
 _atom_site_fract_y
 _atom_site_fract_z
 _atom_site_fract_occupancy
 Co  Co1  1  0.50000  0.50000  0.50000  1
 Co  Co2  1  0.00000  0.50000  -0.00000  1
 Co  Co3  1  0.00000  0.00000  0.50000  1
 Co  Co4  1  0.50000  0.00000  0.00000  1
 Sb  Sb1  1  0.49206  0.15905  0.33301  1
 Sb  Sb2  1  0.15905  0.66699  0.82604  1
 Sb  Sb3  1  0.33301  0.17396  0.84095  1
 Sb  Sb4  1  0.84095  0.66699  0.50794  1
 Sb  Sb5  1  0.66699  0.82604  0.15905  1
 Sb  Sb6  1  0.84095  0.33301  0.17396  1
 Sb  Sb7  1  0.66699  0.50794  0.84095  1
 Sb  Sb8  1  0.33301  0.49206  0.15905  1
 Sb  Sb9  1  0.15905  0.33301  0.49206  1
 Sb  Sb10  1  0.82604  0.15905  0.66699  1
 Sb  Sb11  1  0.17396  0.84095  0.33301  1
 Sb  Sb12  1  0.50794  0.84095  0.66699  1
