CIF file written using JARVIS-Tools package.
data_Ba
_symmetry_space_group_name_H-M  'P6/mmm'
_cell_length_a       3.77555
_cell_length_b       6.75181
_cell_length_c       6.75181
_cell_angle_alpha    120
_cell_angle_beta     90
_cell_angle_gamma    90

_symmetry_Int_Tables_number  191
_chemical_formula_structural  Ba
_chemical_formula_sum  Ba2
_cell_volume  149.0566657237724
_cell_formula_units_Z  2
loop_
  _symmetry_equiv_pos_site_id
 _symmetry_equiv_pos_as_xyz
 1  'x, y, z'
loop_
 _atom_site_type_symbol
 _atom_site_label
 _atom_site_symmetry_multiplicity
 _atom_site_fract_x
 _atom_site_fract_y
 _atom_site_fract_z
 _atom_site_fract_occupancy
 Ba  Ba1  1  0.50000  0.33333  0.66667  1
 Ba  Ba2  1  0.50000  0.66667  0.33333  1
