CIF file written using JARVIS-Tools package.
data_ReTeS
_symmetry_space_group_name_H-M  'F-43m'
_cell_length_a       7.19476
_cell_length_b       7.19476
_cell_length_c       7.19477
_cell_angle_alpha    60
_cell_angle_beta     60
_cell_angle_gamma    60

_symmetry_Int_Tables_number  216
_chemical_formula_structural  ReTeS
_chemical_formula_sum  Re4Te4S4
_cell_volume  263.35117387514106
_cell_formula_units_Z  4
loop_
  _symmetry_equiv_pos_site_id
 _symmetry_equiv_pos_as_xyz
 1  'x, y, z'
loop_
 _atom_site_type_symbol
 _atom_site_label
 _atom_site_symmetry_multiplicity
 _atom_site_fract_x
 _atom_site_fract_y
 _atom_site_fract_z
 _atom_site_fract_occupancy
 Re  Re1  1  0.09782  0.70654  0.09782  1
 Re  Re2  1  0.70654  0.09782  0.09782  1
 Re  Re3  1  0.09782  0.09782  0.70654  1
 Re  Re4  1  0.09782  0.09782  0.09782  1
 S  S1  1  0.87045  0.38866  0.87045  1
 S  S2  1  0.38866  0.87045  0.87045  1
 S  S3  1  0.87045  0.87045  0.38866  1
 S  S4  1  0.87045  0.87045  0.87045  1
 Te  Te1  1  0.37322  0.37322  0.37322  1
 Te  Te2  1  0.37322  0.37322  0.88034  1
 Te  Te3  1  0.88034  0.37322  0.37322  1
 Te  Te4  1  0.37322  0.88034  0.37322  1
