CIF file written using JARVIS-Tools package.
data_Al2O3
_symmetry_space_group_name_H-M  'P2_1/c'
_cell_length_a       3.18764
_cell_length_b       12.1275
_cell_length_c       5.25811
_cell_angle_alpha    90
_cell_angle_beta     105.576
_cell_angle_gamma    90

_symmetry_Int_Tables_number  14
_chemical_formula_structural  Al2O3
_chemical_formula_sum  Al8O2
_cell_volume  195.80401528389368
_cell_formula_units_Z  4
loop_
  _symmetry_equiv_pos_site_id
 _symmetry_equiv_pos_as_xyz
 1  'x, y, z'
loop_
 _atom_site_type_symbol
 _atom_site_label
 _atom_site_symmetry_multiplicity
 _atom_site_fract_x
 _atom_site_fract_y
 _atom_site_fract_z
 _atom_site_fract_occupancy
 Al  Al1  1  0.58090  0.16603  0.15835  1
 Al  Al2  1  0.81993  0.43322  0.17900  1
 Al  Al3  1  0.18007  0.93322  0.32100  1
 Al  Al4  1  0.41910  0.66603  0.34165  1
 Al  Al5  1  0.58090  0.33397  0.65835  1
 Al  Al6  1  0.81993  0.06678  0.67900  1
 Al  Al7  1  0.18007  0.56678  0.82100  1
 Al  Al8  1  0.41910  0.83397  0.84165  1
 O  O1  1  0.01880  0.12634  0.00659  1
 O  O2  1  0.40346  0.69429  0.99439  1
 O  O3  1  0.67288  0.00779  0.30985  1
 O  O4  1  0.32712  0.50779  0.19015  1
 O  O5  1  0.59654  0.30571  0.00561  1
 O  O6  1  0.67288  0.49221  0.80985  1
 O  O7  1  0.59654  0.19429  0.50561  1
 O  O8  1  0.01880  0.37366  0.50659  1
 O  O9  1  0.98120  0.62634  0.49341  1
 O  O10  1  0.32712  -0.00779  0.69015  1
 O  O11  1  0.40346  0.80571  0.49439  1
 O  O12  1  0.98120  0.87366  0.99341  1
