CIF file written using JARVIS-Tools package.
data_YF3
_symmetry_space_group_name_H-M  'Pm-3m'
_cell_length_a       5.34468
_cell_length_b       5.34468
_cell_length_c       5.34468
_cell_angle_alpha    90
_cell_angle_beta     90
_cell_angle_gamma    90

_symmetry_Int_Tables_number  221
_chemical_formula_structural  YF3
_chemical_formula_sum  Y3F9
_cell_volume  152.67378429256968
_cell_formula_units_Z  3
loop_
  _symmetry_equiv_pos_site_id
 _symmetry_equiv_pos_as_xyz
 1  'x, y, z'
loop_
 _atom_site_type_symbol
 _atom_site_label
 _atom_site_symmetry_multiplicity
 _atom_site_fract_x
 _atom_site_fract_y
 _atom_site_fract_z
 _atom_site_fract_occupancy
 F  F1  1  0.24206  0.75794  0.75794  1
 F  F2  1  0.75794  0.75794  0.24206  1
 F  F3  1  0.75794  0.24206  0.24206  1
 F  F4  1  0.75794  0.24206  0.75794  1
 F  F5  1  0.50000  0.50000  0.50000  1
 F  F6  1  0.24206  0.75794  0.24206  1
 F  F7  1  0.24206  0.24206  0.75794  1
 F  F8  1  0.75794  0.75794  0.75794  1
 F  F9  1  0.24206  0.24206  0.24206  1
 Y  Y1  1  0.00000  0.50000  0.50000  1
 Y  Y2  1  0.50000  0.50000  0.00000  1
 Y  Y3  1  0.50000  0.00000  0.50000  1
