CIF file written using JARVIS-Tools package.
data_Ga2TeS2
_symmetry_space_group_name_H-M  'I4_1md'
_cell_length_a       7.14788
_cell_length_b       7.14788
_cell_length_c       7.17781
_cell_angle_alpha    119.862
_cell_angle_beta     119.862
_cell_angle_gamma    90.0001

_symmetry_Int_Tables_number  109
_chemical_formula_structural  Ga2TeS2
_chemical_formula_sum  Ga4Te2S4
_cell_volume  260.39390273481354
_cell_formula_units_Z  2
loop_
  _symmetry_equiv_pos_site_id
 _symmetry_equiv_pos_as_xyz
 1  'x, y, z'
loop_
 _atom_site_type_symbol
 _atom_site_label
 _atom_site_symmetry_multiplicity
 _atom_site_fract_x
 _atom_site_fract_y
 _atom_site_fract_z
 _atom_site_fract_occupancy
 Ga  Ga1  1  0.88396  0.16082  0.32164  1
 Ga  Ga2  1  0.41082  0.18768  0.82164  1
 Ga  Ga3  1  0.43768  0.16082  0.32164  1
 Ga  Ga4  1  0.41082  0.63396  0.82164  1
 S  S1  1  0.63640  0.37871  0.27280  1
 S  S2  1  0.14409  0.38640  0.77280  1
 S  S3  1  0.62871  0.38640  0.77280  1
 S  S4  1  0.63640  0.89409  0.27280  1
 Te  Te1  1  0.24716  0.74716  0.49432  1
 Te  Te2  1  -0.00284  -0.00284  -0.00568  1
