CIF file written using JARVIS-Tools package.
data_K2MnSe2O6
_symmetry_space_group_name_H-M  'R-3m'
_cell_length_a       6.9959
_cell_length_b       6.9959
_cell_length_c       6.99589
_cell_angle_alpha    47.6447
_cell_angle_beta     47.6447
_cell_angle_gamma    47.6447

_symmetry_Int_Tables_number  166
_chemical_formula_structural  K2MnSe2O6
_chemical_formula_sum  K2MnSe2O6
_cell_volume  171.16355621060998
_cell_formula_units_Z  1
loop_
  _symmetry_equiv_pos_site_id
 _symmetry_equiv_pos_as_xyz
 1  'x, y, z'
loop_
 _atom_site_type_symbol
 _atom_site_label
 _atom_site_symmetry_multiplicity
 _atom_site_fract_x
 _atom_site_fract_y
 _atom_site_fract_z
 _atom_site_fract_occupancy
 K  K1  1  0.19507  0.19507  0.19507  1
 K  K2  1  0.80493  0.80493  0.80493  1
 Mn  Mn1  1  0.00000  0.00000  0.00000  1
 O  O1  1  0.24966  0.24966  0.73130  1
 O  O2  1  0.24966  0.73130  0.24966  1
 O  O3  1  0.73130  0.24966  0.24966  1
 O  O4  1  0.26870  0.75034  0.75034  1
 O  O5  1  0.75034  0.75034  0.26870  1
 O  O6  1  0.75034  0.26870  0.75034  1
 Se  Se1  1  0.62846  0.62846  0.62846  1
 Se  Se2  1  0.37154  0.37154  0.37154  1
