CIF file written using JARVIS-Tools package.
data_YVO4
_symmetry_space_group_name_H-M  'I4_1/amd'
_cell_length_a       5.97487
_cell_length_b       5.97487
_cell_length_c       5.97487
_cell_angle_alpha    106.317
_cell_angle_beta     106.316
_cell_angle_gamma    115.984

_symmetry_Int_Tables_number  141
_chemical_formula_structural  YVO4
_chemical_formula_sum  Y2V2O8
_cell_volume  162.58822855541325
_cell_formula_units_Z  2
loop_
  _symmetry_equiv_pos_site_id
 _symmetry_equiv_pos_as_xyz
 1  'x, y, z'
loop_
 _atom_site_type_symbol
 _atom_site_label
 _atom_site_symmetry_multiplicity
 _atom_site_fract_x
 _atom_site_fract_y
 _atom_site_fract_z
 _atom_site_fract_occupancy
 O  O1  1  0.73481  0.79956  0.93525  1
 O  O2  1  0.79956  0.73481  0.43525  1
 O  O3  1  0.79956  0.36431  0.06475  1
 O  O4  1  0.36431  0.79956  0.56475  1
 O  O5  1  0.20044  0.63569  0.93525  1
 O  O6  1  0.63569  0.20044  0.43525  1
 O  O7  1  0.26519  0.20044  0.06475  1
 O  O8  1  0.20044  0.26519  0.56475  1
 V  V1  1  0.62500  0.37500  0.25000  1
 V  V2  1  0.37500  0.62500  0.75000  1
 Y  Y1  1  0.12500  0.87500  0.25000  1
 Y  Y2  1  0.87500  0.12500  0.75000  1
