CIF file written using JARVIS-Tools package.
data_KPrGeSe4
_symmetry_space_group_name_H-M  'P2_1'
_cell_length_a       6.91594
_cell_length_b       7.07131
_cell_length_c       8.91857
_cell_angle_alpha    90
_cell_angle_beta     107.997
_cell_angle_gamma    90

_symmetry_Int_Tables_number  4
_chemical_formula_structural  KPrGeSe4
_chemical_formula_sum  K2Pr2Ge2Se8
_cell_volume  414.8196670003835
_cell_formula_units_Z  2
loop_
  _symmetry_equiv_pos_site_id
 _symmetry_equiv_pos_as_xyz
 1  'x, y, z'
loop_
 _atom_site_type_symbol
 _atom_site_label
 _atom_site_symmetry_multiplicity
 _atom_site_fract_x
 _atom_site_fract_y
 _atom_site_fract_z
 _atom_site_fract_occupancy
 Ge  Ge1  1  0.21763  0.96812  0.31514  1
 Ge  Ge2  1  0.78237  0.46812  0.68486  1
 K  K1  1  0.25493  0.49547  0.06223  1
 K  K2  1  0.74507  0.99547  0.93777  1
 Pr  Pr1  1  0.23064  0.49849  0.55413  1
 Pr  Pr2  1  0.76936  -0.00151  0.44587  1
 Se  Se1  1  0.00902  0.24381  0.27897  1
 Se  Se2  1  0.96511  0.72440  0.26492  1
 Se  Se3  1  0.58232  0.46252  0.85530  1
 Se  Se4  1  0.41768  0.96252  0.14470  1
 Se  Se5  1  0.42368  0.91048  0.58065  1
 Se  Se6  1  0.57632  0.41048  0.41935  1
 Se  Se7  1  0.03489  0.22440  0.73508  1
 Se  Se8  1  0.99098  0.74381  0.72103  1
