CIF file written using JARVIS-Tools package.
data_Te4Mo3WSe4
_symmetry_space_group_name_H-M  'P3m1'
_cell_length_a       3.4426
_cell_length_b       3.4426
_cell_length_c       36.6824
_cell_angle_alpha    90.0007
_cell_angle_beta     90
_cell_angle_gamma    120

_symmetry_Int_Tables_number  156
_chemical_formula_structural  Te4Mo3WSe4
_chemical_formula_sum  Te4Mo3WSe4
_cell_volume  376.4969147622651
_cell_formula_units_Z  1
loop_
  _symmetry_equiv_pos_site_id
 _symmetry_equiv_pos_as_xyz
 1  'x, y, z'
loop_
 _atom_site_type_symbol
 _atom_site_label
 _atom_site_symmetry_multiplicity
 _atom_site_fract_x
 _atom_site_fract_y
 _atom_site_fract_z
 _atom_site_fract_occupancy
 Mo  Mo1  1  0.33331  0.66662  0.09491  1
 Mo  Mo2  1  0.66667  0.33334  0.28169  1
 Mo  Mo3  1  0.66670  0.33340  0.65700  1
 Se  Se1  1  0.66664  0.33328  0.05037  1
 Se  Se2  1  0.66665  0.33331  0.42452  1
 Se  Se3  1  0.66665  0.33330  0.13954  1
 Se  Se4  1  0.66665  0.33330  0.51411  1
 Te  Te1  1  0.33334  0.66669  0.33238  1
 Te  Te2  1  0.33338  0.66675  0.70764  1
 Te  Te3  1  0.33333  0.66666  0.23099  1
 Te  Te4  1  0.33336  0.66672  0.60629  1
 W  W1  1  0.33332  0.66664  0.46932  1
