CIF file written using JARVIS-Tools package.
data_MgTi2O5
_symmetry_space_group_name_H-M  'Pmmn'
_cell_length_a       4.82974
_cell_length_b       3.39364
_cell_length_c       11.9684
_cell_angle_alpha    90
_cell_angle_beta     89.9787
_cell_angle_gamma    90

_symmetry_Int_Tables_number  59
_chemical_formula_structural  MgTi2O5
_chemical_formula_sum  Mg2Ti4O0
_cell_volume  196.16721720211493
_cell_formula_units_Z  2
loop_
  _symmetry_equiv_pos_site_id
 _symmetry_equiv_pos_as_xyz
 1  'x, y, z'
loop_
 _atom_site_type_symbol
 _atom_site_label
 _atom_site_symmetry_multiplicity
 _atom_site_fract_x
 _atom_site_fract_y
 _atom_site_fract_z
 _atom_site_fract_occupancy
 Mg  Mg1  1  0.12321  0.25000  0.24993  1
 Mg  Mg2  1  0.87679  0.75000  0.75007  1
 O  O1  1  0.57552  0.25000  0.75002  1
 O  O2  1  0.42448  0.75000  0.24998  1
 O  O3  1  0.42415  0.25000  0.07266  1
 O  O4  1  0.57585  0.75000  0.92734  1
 O  O5  1  0.42407  0.25000  0.42737  1
 O  O6  1  0.57593  0.75000  0.57263  1
 O  O7  1  0.93583  0.75000  0.35922  1
 O  O8  1  0.06417  0.25000  0.64078  1
 O  O9  1  0.06404  0.25000  0.85935  1
 O  O10  1  0.93596  0.75000  0.14065  1
 Ti  Ti1  1  0.58834  0.75000  0.10300  1
 Ti  Ti2  1  0.41166  0.25000  0.89700  1
 Ti  Ti3  1  0.41180  0.25000  0.60304  1
 Ti  Ti4  1  0.58820  0.75000  0.39696  1
