CIF file written using JARVIS-Tools package.
data_SrHo2O4
_symmetry_space_group_name_H-M  'Pnma'
_cell_length_a       3.40419
_cell_length_b       10.0605
_cell_length_c       11.9092
_cell_angle_alpha    90
_cell_angle_beta     90
_cell_angle_gamma    90

_symmetry_Int_Tables_number  62
_chemical_formula_structural  SrHo2O4
_chemical_formula_sum  Sr4Ho8O6
_cell_volume  407.8649032941082
_cell_formula_units_Z  4
loop_
  _symmetry_equiv_pos_site_id
 _symmetry_equiv_pos_as_xyz
 1  'x, y, z'
loop_
 _atom_site_type_symbol
 _atom_site_label
 _atom_site_symmetry_multiplicity
 _atom_site_fract_x
 _atom_site_fract_y
 _atom_site_fract_z
 _atom_site_fract_occupancy
 Ho  Ho1  1  0.75000  0.42222  0.61161  1
 Ho  Ho2  1  0.25000  0.57778  0.38839  1
 Ho  Ho3  1  0.25000  0.57677  0.88953  1
 Ho  Ho4  1  0.75000  0.92323  0.38953  1
 Ho  Ho5  1  0.75000  0.92222  0.88839  1
 Ho  Ho6  1  0.25000  0.07677  0.61047  1
 Ho  Ho7  1  0.25000  0.07778  0.11161  1
 Ho  Ho8  1  0.75000  0.42323  0.11047  1
 O  O1  1  0.75000  0.62591  0.01955  1
 O  O2  1  0.75000  0.01453  0.71662  1
 O  O3  1  0.75000  0.51453  0.78338  1
 O  O4  1  0.75000  0.42571  0.42229  1
 O  O5  1  0.25000  0.48547  0.21662  1
 O  O6  1  0.25000  0.07429  0.92229  1
 O  O7  1  0.25000  0.57429  0.57771  1
 O  O8  1  0.75000  0.12591  0.48045  1
 O  O9  1  0.75000  0.92571  0.07771  1
 O  O10  1  0.25000  0.37409  0.98045  1
 O  O11  1  0.75000  0.71189  0.32549  1
 O  O12  1  0.25000  0.78811  0.82549  1
 O  O13  1  0.25000  0.98547  0.28338  1
 O  O14  1  0.25000  0.28811  0.67451  1
 O  O15  1  0.75000  0.21189  0.17451  1
 O  O16  1  0.25000  0.87409  0.51955  1
 Sr  Sr1  1  0.75000  0.25212  0.85004  1
 Sr  Sr2  1  0.75000  0.75212  0.64996  1
 Sr  Sr3  1  0.25000  0.24788  0.35004  1
 Sr  Sr4  1  0.25000  0.74788  0.14996  1
