CIF file written using JARVIS-Tools package.
data_V2Zn3O7
_symmetry_space_group_name_H-M  'Cmc2_1'
_cell_length_a       5.17298
_cell_length_b       5.15158
_cell_length_c       9.47147
_cell_angle_alpha    105.781
_cell_angle_beta     90
_cell_angle_gamma    90

_symmetry_Int_Tables_number  36
_chemical_formula_structural  V2Zn3O7
_chemical_formula_sum  V4Zn6O4
_cell_volume  242.89248986058305
_cell_formula_units_Z  2
loop_
  _symmetry_equiv_pos_site_id
 _symmetry_equiv_pos_as_xyz
 1  'x, y, z'
loop_
 _atom_site_type_symbol
 _atom_site_label
 _atom_site_symmetry_multiplicity
 _atom_site_fract_x
 _atom_site_fract_y
 _atom_site_fract_z
 _atom_site_fract_occupancy
 O  O1  1  0.80052  0.37073  0.00000  1
 O  O2  1  0.68295  0.94358  0.59430  1
 O  O3  1  0.94342  0.01188  0.15375  1
 O  O4  1  0.18295  0.65071  0.59430  1
 O  O5  1  0.68295  0.34929  0.40570  1
 O  O6  1  0.07224  0.29539  0.74555  1
 O  O7  1  0.18295  0.05642  0.40570  1
 O  O8  1  0.57224  0.45015  0.74555  1
 O  O9  1  0.07224  0.54985  0.25445  1
 O  O10  1  0.94342  0.85813  0.84625  1
 O  O11  1  0.44342  0.14187  0.15375  1
 O  O12  1  0.44342  -0.01188  0.84625  1
 O  O13  1  0.30052  0.62927  -0.00000  1
 O  O14  1  0.57224  0.70461  0.25445  1
 V  V1  1  0.75629  0.15450  0.79740  1
 V  V2  1  0.25629  0.84550  0.20260  1
 V  V3  1  0.25629  0.64290  0.79740  1
 V  V4  1  0.75629  0.35710  0.20260  1
 Zn  Zn1  1  0.29584  0.02575  0.60109  1
 Zn  Zn2  1  0.79584  0.97425  0.39891  1
 Zn  Zn3  1  0.29584  0.42466  0.39891  1
 Zn  Zn4  1  0.79584  0.57534  0.60109  1
 Zn  Zn5  1  0.21801  0.24192  -0.00000  1
 Zn  Zn6  1  0.71801  0.75808  0.00000  1
