CIF file written using JARVIS-Tools package.
data_Rb2SnSe3
_symmetry_space_group_name_H-M  'P-1'
_cell_length_a       7.13011
_cell_length_b       7.85004
_cell_length_c       8.95167
_cell_angle_alpha    74.266
_cell_angle_beta     72.586
_cell_angle_gamma    66.8973

_symmetry_Int_Tables_number  2
_chemical_formula_structural  Rb2SnSe3
_chemical_formula_sum  Rb4Sn2Se6
_cell_volume  432.93571447553154
_cell_formula_units_Z  2
loop_
  _symmetry_equiv_pos_site_id
 _symmetry_equiv_pos_as_xyz
 1  'x, y, z'
loop_
 _atom_site_type_symbol
 _atom_site_label
 _atom_site_symmetry_multiplicity
 _atom_site_fract_x
 _atom_site_fract_y
 _atom_site_fract_z
 _atom_site_fract_occupancy
 Rb  Rb1  1  0.64035  0.46720  0.68665  1
 Rb  Rb2  1  0.35965  0.53280  0.31335  1
 Rb  Rb3  1  0.90516  0.79776  0.87798  1
 Rb  Rb4  1  0.09484  0.20224  0.12202  1
 Se  Se1  1  0.26823  0.94667  0.47572  1
 Se  Se2  1  0.73177  0.05333  0.52428  1
 Se  Se3  1  0.37457  0.80882  0.93241  1
 Se  Se4  1  0.62543  0.19118  0.06759  1
 Se  Se5  1  0.14944  0.39813  0.71755  1
 Se  Se6  1  0.85056  0.60187  0.28245  1
 Sn  Sn1  1  0.64375  0.93739  0.30852  1
 Sn  Sn2  1  0.35625  0.06261  0.69148  1
