CIF file written using JARVIS-Tools package.
data_CeSe2
_symmetry_space_group_name_H-M  'P2/m'
_cell_length_a       5.35412
_cell_length_b       4.07355
_cell_length_c       29.3336
_cell_angle_alpha    74.9487
_cell_angle_beta     90
_cell_angle_gamma    90

_symmetry_Int_Tables_number  10
_chemical_formula_structural  CeSe2
_chemical_formula_sum  CeSe2
_cell_volume  617.8248006731832
_cell_formula_units_Z  1
loop_
  _symmetry_equiv_pos_site_id
 _symmetry_equiv_pos_as_xyz
 1  'x, y, z'
loop_
 _atom_site_type_symbol
 _atom_site_label
 _atom_site_symmetry_multiplicity
 _atom_site_fract_x
 _atom_site_fract_y
 _atom_site_fract_z
 _atom_site_fract_occupancy
 Ce  Ce1  1  0.50000  -0.00000  0.50000  1
 Se  Se1  1  0.50000  0.37852  0.56497  1
 Se  Se2  1  0.50000  0.62148  0.43503  1
