CIF file written using JARVIS-Tools package.
data_BiPd2O4
_symmetry_space_group_name_H-M  'P4/nmm'
_cell_length_a       6.75643
_cell_length_b       6.75643
_cell_length_c       4.5612
_cell_angle_alpha    90
_cell_angle_beta     90
_cell_angle_gamma    90

_symmetry_Int_Tables_number  129
_chemical_formula_structural  BiPd2O4
_chemical_formula_sum  Bi2Pd4O8
_cell_volume  208.21576475632835
_cell_formula_units_Z  2
loop_
  _symmetry_equiv_pos_site_id
 _symmetry_equiv_pos_as_xyz
 1  'x, y, z'
loop_
 _atom_site_type_symbol
 _atom_site_label
 _atom_site_symmetry_multiplicity
 _atom_site_fract_x
 _atom_site_fract_y
 _atom_site_fract_z
 _atom_site_fract_occupancy
 Bi  Bi1  1  0.00000  0.50000  0.49680  1
 Bi  Bi2  1  0.50000  0.00000  0.50320  1
 O  O1  1  0.27831  0.50000  0.77240  1
 O  O2  1  0.50000  0.72169  0.22760  1
 O  O3  1  0.00000  0.77831  0.77240  1
 O  O4  1  0.77831  0.00000  0.22760  1
 O  O5  1  0.22169  0.00000  0.22760  1
 O  O6  1  0.72169  0.50000  0.77240  1
 O  O7  1  0.50000  0.27831  0.22760  1
 O  O8  1  0.00000  0.22169  0.77240  1
 Pd  Pd1  1  0.75000  0.75000  0.00000  1
 Pd  Pd2  1  0.75000  0.25000  0.00000  1
 Pd  Pd3  1  0.25000  0.75000  0.00000  1
 Pd  Pd4  1  0.25000  0.25000  0.00000  1
