CIF file written using JARVIS-Tools package.
data_LiBO2
_symmetry_space_group_name_H-M  'I-42d'
_cell_length_a       4.18213
_cell_length_b       4.18212
_cell_length_c       4.43219
_cell_angle_alpha    118.15
_cell_angle_beta     118.15
_cell_angle_gamma    90

_symmetry_Int_Tables_number  122
_chemical_formula_structural  LiBO2
_chemical_formula_sum  Li2B2O4
_cell_volume  57.74209692835055
_cell_formula_units_Z  2
loop_
  _symmetry_equiv_pos_site_id
 _symmetry_equiv_pos_as_xyz
 1  'x, y, z'
loop_
 _atom_site_type_symbol
 _atom_site_label
 _atom_site_symmetry_multiplicity
 _atom_site_fract_x
 _atom_site_fract_y
 _atom_site_fract_z
 _atom_site_fract_occupancy
 B  B1  1  0.00000  0.00000  0.00000  1
 B  B2  1  0.25000  0.75000  0.50000  1
 Li  Li1  1  0.50000  0.50000  -0.00000  1
 Li  Li2  1  0.75000  0.25000  0.50000  1
 O  O1  1  0.96474  0.87500  0.25000  1
 O  O2  1  0.62500  0.03526  0.75000  1
 O  O3  1  0.12500  0.71474  0.75000  1
 O  O4  1  0.28526  0.37500  0.25000  1
