CIF file written using JARVIS-Tools package.
data_Lu4B6O15
_symmetry_space_group_name_H-M  'R3'
_cell_length_a       7.96221
_cell_length_b       7.96221
_cell_length_c       7.96221
_cell_angle_alpha    112.081
_cell_angle_beta     112.081
_cell_angle_gamma    112.081

_symmetry_Int_Tables_number  146
_chemical_formula_structural  Lu4B6O15
_chemical_formula_sum  Lu4B6O5
_cell_volume  345.99882069305295
_cell_formula_units_Z  1
loop_
  _symmetry_equiv_pos_site_id
 _symmetry_equiv_pos_as_xyz
 1  'x, y, z'
loop_
 _atom_site_type_symbol
 _atom_site_label
 _atom_site_symmetry_multiplicity
 _atom_site_fract_x
 _atom_site_fract_y
 _atom_site_fract_z
 _atom_site_fract_occupancy
 B  B1  1  0.50138  0.80610  0.72890  1
 B  B2  1  0.15577  0.39621  0.49462  1
 B  B3  1  0.39621  0.49462  0.15577  1
 B  B4  1  0.80610  0.72890  0.50138  1
 B  B5  1  0.72890  0.50138  0.80610  1
 B  B6  1  0.49462  0.15577  0.39621  1
 Lu  Lu1  1  0.19797  0.72034  0.89826  1
 Lu  Lu2  1  0.72034  0.89826  0.19797  1
 Lu  Lu3  1  0.00476  0.00476  0.00476  1
 Lu  Lu4  1  0.89826  0.19797  0.72034  1
 O  O1  1  0.28631  0.01652  0.18781  1
 O  O2  1  0.49624  0.88206  0.91356  1
 O  O3  1  0.65129  0.11715  0.40699  1
 O  O4  1  0.31957  0.58603  0.53015  1
 O  O5  1  0.68917  0.94618  0.74869  1
 O  O6  1  0.40699  0.65129  0.11715  1
 O  O7  1  0.53015  0.31957  0.58603  1
 O  O8  1  0.88206  0.91356  0.49624  1
 O  O9  1  0.74869  0.68917  0.94618  1
 O  O10  1  0.58603  0.53015  0.31957  1
 O  O11  1  0.18781  0.28631  0.01652  1
 O  O12  1  0.94618  0.74869  0.68917  1
 O  O13  1  0.91356  0.49624  0.88206  1
 O  O14  1  0.11715  0.40699  0.65129  1
 O  O15  1  0.01652  0.18781  0.28631  1
