CIF file written using JARVIS-Tools package.
data_LiTaOs2
_symmetry_space_group_name_H-M  'Immm'
_cell_length_a       9.86031
_cell_length_b       5.55277
_cell_length_c       5.55278
_cell_angle_alpha    29.0509
_cell_angle_beta     27.393
_cell_angle_gamma    27.393

_symmetry_Int_Tables_number  71
_chemical_formula_structural  LiTaOs2
_chemical_formula_sum  LiTaOs2
_cell_volume  58.82413526806438
_cell_formula_units_Z  1
loop_
  _symmetry_equiv_pos_site_id
 _symmetry_equiv_pos_as_xyz
 1  'x, y, z'
loop_
 _atom_site_type_symbol
 _atom_site_label
 _atom_site_symmetry_multiplicity
 _atom_site_fract_x
 _atom_site_fract_y
 _atom_site_fract_z
 _atom_site_fract_occupancy
 Li  Li1  1  0.00000  0.00000  0.00000  1
 Os  Os1  1  0.78320  -0.00000  0.00000  1
 Os  Os2  1  0.21680  0.00000  -0.00000  1
 Ta  Ta1  1  0.50000  0.00000  -0.00000  1
