CIF file written using JARVIS-Tools package.
data_CaCr2S4
_symmetry_space_group_name_H-M  'Fd-3m'
_cell_length_a       7.43891
_cell_length_b       7.43892
_cell_length_c       7.4475
_cell_angle_alpha    119.962
_cell_angle_beta     119.962
_cell_angle_gamma    89.9999

_symmetry_Int_Tables_number  227
_chemical_formula_structural  CaCr2S4
_chemical_formula_sum  Ca2Cr4S8
_cell_volume  291.752329286638
_cell_formula_units_Z  2
loop_
  _symmetry_equiv_pos_site_id
 _symmetry_equiv_pos_as_xyz
 1  'x, y, z'
loop_
 _atom_site_type_symbol
 _atom_site_label
 _atom_site_symmetry_multiplicity
 _atom_site_fract_x
 _atom_site_fract_y
 _atom_site_fract_z
 _atom_site_fract_occupancy
 Ca  Ca1  1  0.37500  0.62500  0.75000  1
 Ca  Ca2  1  0.62500  0.37500  0.25000  1
 Cr  Cr1  1  0.00000  0.00000  0.50000  1
 Cr  Cr2  1  0.00000  0.50000  -0.00000  1
 Cr  Cr3  1  0.50000  0.00000  0.50000  1
 Cr  Cr4  1  0.00000  0.00000  0.00000  1
 S  S1  1  0.76928  0.80699  0.53855  1
 S  S2  1  0.76844  0.23072  0.96145  1
 S  S3  1  0.19301  0.23072  0.96145  1
 S  S4  1  0.23072  0.19301  0.46145  1
 S  S5  1  0.23072  0.76844  0.46145  1
 S  S6  1  0.23156  0.76928  0.03855  1
 S  S7  1  0.76928  0.23156  0.53855  1
 S  S8  1  0.80699  0.76928  0.03855  1
