CIF file written using JARVIS-Tools package.
data_CaMn4S8
_symmetry_space_group_name_H-M  'R-3m'
_cell_length_a       6.91564
_cell_length_b       7.0385
_cell_length_c       7.03851
_cell_angle_alpha    60
_cell_angle_beta     59.4106
_cell_angle_gamma    59.4106

_symmetry_Int_Tables_number  166
_chemical_formula_structural  CaMn4S8
_chemical_formula_sum  CaMn4S8
_cell_volume  240.0772287729743
_cell_formula_units_Z  1
loop_
  _symmetry_equiv_pos_site_id
 _symmetry_equiv_pos_as_xyz
 1  'x, y, z'
loop_
 _atom_site_type_symbol
 _atom_site_label
 _atom_site_symmetry_multiplicity
 _atom_site_fract_x
 _atom_site_fract_y
 _atom_site_fract_z
 _atom_site_fract_occupancy
 Ca  Ca1  1  0.50000  -0.00000  -0.00000  1
 Mn  Mn1  1  0.00000  0.50000  0.50000  1
 Mn  Mn2  1  0.50000  0.50000  -0.00000  1
 Mn  Mn3  1  0.50000  0.50000  0.50000  1
 Mn  Mn4  1  0.50000  0.00000  0.50000  1
 S  S1  1  0.25123  0.26720  0.26720  1
 S  S2  1  0.25123  0.26720  0.71438  1
 S  S3  1  0.25123  0.71438  0.26720  1
 S  S4  1  0.72373  0.25876  0.25876  1
 S  S5  1  0.27627  0.74124  0.74124  1
 S  S6  1  0.74877  0.73280  0.28562  1
 S  S7  1  0.74877  0.28562  0.73280  1
 S  S8  1  0.74877  0.73280  0.73280  1
