CIF file written using JARVIS-Tools package.
data_DyHg2
_symmetry_space_group_name_H-M  'P6/mmm'
_cell_length_a       3.38611
_cell_length_b       4.93669
_cell_length_c       4.9368
_cell_angle_alpha    119.999
_cell_angle_beta     90
_cell_angle_gamma    90

_symmetry_Int_Tables_number  191
_chemical_formula_structural  DyHg2
_chemical_formula_sum  DyHg2
_cell_volume  71.46878677587135
_cell_formula_units_Z  1
loop_
  _symmetry_equiv_pos_site_id
 _symmetry_equiv_pos_as_xyz
 1  'x, y, z'
loop_
 _atom_site_type_symbol
 _atom_site_label
 _atom_site_symmetry_multiplicity
 _atom_site_fract_x
 _atom_site_fract_y
 _atom_site_fract_z
 _atom_site_fract_occupancy
 Dy  Dy1  1  0.00000  0.99997  0.00000  1
 Hg  Hg1  1  0.50000  0.33330  0.66667  1
 Hg  Hg2  1  0.50000  0.66663  0.33333  1
