CIF file written using JARVIS-Tools package.
data_SmZrF7
_symmetry_space_group_name_H-M  'P2_1'
_cell_length_a       6.17801
_cell_length_b       5.78509
_cell_length_c       8.36105
_cell_angle_alpha    90
_cell_angle_beta     102.254
_cell_angle_gamma    90

_symmetry_Int_Tables_number  4
_chemical_formula_structural  SmZrF7
_chemical_formula_sum  Sm2Zr2F4
_cell_volume  292.0182942655876
_cell_formula_units_Z  2
loop_
  _symmetry_equiv_pos_site_id
 _symmetry_equiv_pos_as_xyz
 1  'x, y, z'
loop_
 _atom_site_type_symbol
 _atom_site_label
 _atom_site_symmetry_multiplicity
 _atom_site_fract_x
 _atom_site_fract_y
 _atom_site_fract_z
 _atom_site_fract_occupancy
 F  F1  1  0.54014  0.49010  0.73889  1
 F  F2  1  0.05586  0.41559  0.02936  1
 F  F3  1  0.94414  0.91559  0.97064  1
 F  F4  1  0.43434  0.46765  0.27532  1
 F  F5  1  0.56566  0.96765  0.72468  1
 F  F6  1  0.36502  0.74636  0.97298  1
 F  F7  1  0.25057  0.73607  0.47792  1
 F  F8  1  0.45986  -0.00990  0.26111  1
 F  F9  1  0.63498  0.24636  0.02702  1
 F  F10  1  0.87592  0.53879  0.28209  1
 F  F11  1  0.12408  0.03879  0.71791  1
 F  F12  1  0.04558  0.53671  0.71454  1
 F  F13  1  0.95442  0.03671  0.28546  1
 F  F14  1  0.74943  0.23607  0.52208  1
 Sm  Sm1  1  0.15656  0.73620  0.18624  1
 Sm  Sm2  1  0.84344  0.23620  0.81376  1
 Zr  Zr1  1  0.31110  0.74699  0.72458  1
 Zr  Zr2  1  0.68890  0.24699  0.27542  1
