data_image0
_chemical_formula_structural       IrNa4O4
_chemical_formula_sum              "Ir1 Na4 O4"
_cell_length_a       4.69595
_cell_length_b       5.55222
_cell_length_c       5.55222
_cell_angle_alpha    100.302
_cell_angle_beta     64.9829
_cell_angle_gamma    115.017

_space_group_name_H-M_alt    "P 1"
_space_group_IT_number       1

loop_
  _space_group_symop_operation_xyz
  'x, y, z'

loop_
  _atom_site_type_symbol
  _atom_site_label
  _atom_site_symmetry_multiplicity
  _atom_site_fract_x
  _atom_site_fract_y
  _atom_site_fract_z
  _atom_site_occupancy
  Ir  Ir1       1.0  0.00000  0.00000  0.00000  1.0000
  Na  Na1       1.0  0.19800  0.60600  0.21000  1.0000
  Na  Na2       1.0  0.40800  0.21000  0.39400  1.0000
  Na  Na3       1.0  0.59200  0.79000  0.60600  1.0000
  Na  Na4       1.0  0.80200  0.39400  0.79000  1.0000
  O   O1        1.0  0.74200  0.65700  0.17300  1.0000
  O   O2        1.0  0.91500  0.17300  0.34300  1.0000
  O   O3        1.0  0.08470  0.82700  0.65700  1.0000
  O   O4        1.0  0.25800  0.34300  0.82700  1.0000
