CIF file written using JARVIS-Tools package.
data_ZnO2
_symmetry_space_group_name_H-M  'P-3m1'
_cell_length_a       3.12176
_cell_length_b       3.122
_cell_length_c       3.89936
_cell_angle_alpha    90
_cell_angle_beta     90.0224
_cell_angle_gamma    120.002

_symmetry_Int_Tables_number  164
_chemical_formula_structural  ZnO2
_chemical_formula_sum  ZnO2
_cell_volume  32.911330185908014
_cell_formula_units_Z  1
loop_
  _symmetry_equiv_pos_site_id
 _symmetry_equiv_pos_as_xyz
 1  'x, y, z'
loop_
 _atom_site_type_symbol
 _atom_site_label
 _atom_site_symmetry_multiplicity
 _atom_site_fract_x
 _atom_site_fract_y
 _atom_site_fract_z
 _atom_site_fract_occupancy
 O  O1  1  0.33360  0.66680  0.24266  1
 O  O2  1  0.66640  0.33320  0.75734  1
 Zn  Zn1  1  0.00000  0.00000  0.00000  1
