CIF file written using JARVIS-Tools package.
data_TaS2
_symmetry_space_group_name_H-M  'R3m'
_cell_length_a       3.3422
_cell_length_b       3.3422
_cell_length_c       6.44596
_cell_angle_alpha    74.9746
_cell_angle_beta     74.9746
_cell_angle_gamma    60

_symmetry_Int_Tables_number  160
_chemical_formula_structural  TaS2
_chemical_formula_sum  TaS2
_cell_volume  59.49717032982508
_cell_formula_units_Z  1
loop_
  _symmetry_equiv_pos_site_id
 _symmetry_equiv_pos_as_xyz
 1  'x, y, z'
loop_
 _atom_site_type_symbol
 _atom_site_label
 _atom_site_symmetry_multiplicity
 _atom_site_fract_x
 _atom_site_fract_y
 _atom_site_fract_z
 _atom_site_fract_occupancy
 S  S1  1  0.75138  0.75138  0.74585  1
 S  S2  1  0.58165  0.58165  0.25506  1
 Ta  Ta1  1  0.99997  0.99997  0.00009  1
