CIF file written using JARVIS-Tools package.
data_HoHg2
_symmetry_space_group_name_H-M  'C2/m'
_cell_length_a       4.50135
_cell_length_b       5.35519
_cell_length_c       3.98238
_cell_angle_alpha    90.0001
_cell_angle_beta     102.365
_cell_angle_gamma    126.501

_symmetry_Int_Tables_number  12
_chemical_formula_structural  HoHg2
_chemical_formula_sum  HoHg2
_cell_volume  74.37832958616143
_cell_formula_units_Z  1
loop_
  _symmetry_equiv_pos_site_id
 _symmetry_equiv_pos_as_xyz
 1  'x, y, z'
loop_
 _atom_site_type_symbol
 _atom_site_label
 _atom_site_symmetry_multiplicity
 _atom_site_fract_x
 _atom_site_fract_y
 _atom_site_fract_z
 _atom_site_fract_occupancy
 Hg  Hg1  1  0.66660  0.33330  0.66496  1
 Hg  Hg2  1  0.33340  0.66670  0.33504  1
 Ho  Ho1  1  0.00000  0.00000  0.00000  1
