CIF file written using JARVIS-Tools package.
data_SnF3
_symmetry_space_group_name_H-M  'P-1'
_cell_length_a       4.08899
_cell_length_b       7.98015
_cell_length_c       8.49307
_cell_angle_alpha    108.637
_cell_angle_beta     77.1943
_cell_angle_gamma    106.077

_symmetry_Int_Tables_number  2
_chemical_formula_structural  SnF3
_chemical_formula_sum  Sn4F2
_cell_volume  249.61983021897333
_cell_formula_units_Z  4
loop_
  _symmetry_equiv_pos_site_id
 _symmetry_equiv_pos_as_xyz
 1  'x, y, z'
loop_
 _atom_site_type_symbol
 _atom_site_label
 _atom_site_symmetry_multiplicity
 _atom_site_fract_x
 _atom_site_fract_y
 _atom_site_fract_z
 _atom_site_fract_occupancy
 F  F1  1  0.88402  0.32155  0.54407  1
 F  F2  1  0.11598  0.67845  0.45593  1
 F  F3  1  0.38585  0.81752  0.03013  1
 F  F4  1  0.61415  0.18248  -0.03013  1
 F  F5  1  0.75728  0.75943  0.24298  1
 F  F6  1  0.24272  0.24057  0.75702  1
 F  F7  1  0.66244  -0.01391  0.63440  1
 F  F8  1  0.33756  0.01391  0.36560  1
 F  F9  1  0.51490  0.37711  0.31577  1
 F  F10  1  0.48510  0.62289  0.68423  1
 F  F11  1  0.83245  0.51013  0.87290  1
 F  F12  1  0.16755  0.48987  0.12710  1
 Sn  Sn1  1  0.25350  0.75408  0.24477  1
 Sn  Sn2  1  0.74650  0.24592  0.75523  1
 Sn  Sn3  1  0.06400  0.75172  0.74987  1
 Sn  Sn4  1  -0.06400  0.24828  0.25013  1
