CIF file written using JARVIS-Tools package.
data_SbF4
_symmetry_space_group_name_H-M  'C2'
_cell_length_a       5.16228
_cell_length_b       5.16293
_cell_length_c       5.09963
_cell_angle_alpha    106.666
_cell_angle_beta     106.622
_cell_angle_gamma    89.8576

_symmetry_Int_Tables_number  5
_chemical_formula_structural  SbF4
_chemical_formula_sum  Sb2F8
_cell_volume  124.29798386099424
_cell_formula_units_Z  2
loop_
  _symmetry_equiv_pos_site_id
 _symmetry_equiv_pos_as_xyz
 1  'x, y, z'
loop_
 _atom_site_type_symbol
 _atom_site_label
 _atom_site_symmetry_multiplicity
 _atom_site_fract_x
 _atom_site_fract_y
 _atom_site_fract_z
 _atom_site_fract_occupancy
 F  F1  1  0.26714  0.22244  0.23008  1
 F  F2  1  0.27729  0.23226  0.76750  1
 F  F3  1  0.59243  0.64049  0.76385  1
 F  F4  1  0.13847  0.77239  0.75463  1
 F  F5  1  0.85884  0.90745  0.23366  1
 F  F6  1  0.40272  0.76870  0.22944  1
 F  F7  1  0.72699  0.36135  0.24270  1
 F  F8  1  0.73105  0.09666  0.76804  1
 Sb  Sb1  1  0.49898  0.00045  -0.00129  1
 Sb  Sb2  1  -0.00128  0.50064  -0.00115  1
