CIF file written using JARVIS-Tools package.
data_CeHfO4
_symmetry_space_group_name_H-M  'I4_1/a'
_cell_length_a       5.28573
_cell_length_b       6.55421
_cell_length_c       5.28573
_cell_angle_alpha    66.2197
_cell_angle_beta     90
_cell_angle_gamma    113.78

_symmetry_Int_Tables_number  88
_chemical_formula_structural  CeHfO4
_chemical_formula_sum  Ce2Hf2O8
_cell_volume  150.42502863555808
_cell_formula_units_Z  2
loop_
  _symmetry_equiv_pos_site_id
 _symmetry_equiv_pos_as_xyz
 1  'x, y, z'
loop_
 _atom_site_type_symbol
 _atom_site_label
 _atom_site_symmetry_multiplicity
 _atom_site_fract_x
 _atom_site_fract_y
 _atom_site_fract_z
 _atom_site_fract_occupancy
 Ce  Ce1  1  0.87500  0.25000  0.37500  1
 Ce  Ce2  1  0.12500  0.75000  0.62500  1
 Hf  Hf1  1  0.62500  0.75000  0.12500  1
 Hf  Hf2  1  0.37500  0.25000  0.87500  1
 O  O1  1  0.05564  0.04357  0.22028  1
 O  O2  1  0.27972  0.54357  0.01207  1
 O  O3  1  0.76385  0.54357  0.44436  1
 O  O4  1  0.51207  0.95643  0.26385  1
 O  O5  1  0.48793  0.04357  0.73615  1
 O  O6  1  0.23615  0.45643  0.55564  1
 O  O7  1  0.72028  0.45643  0.98793  1
 O  O8  1  0.94436  0.95643  0.77972  1
