CIF file written using JARVIS-Tools package.
data_SiO2
_symmetry_space_group_name_H-M  'R-3'
_cell_length_a       6.04073
_cell_length_b       6.04073
_cell_length_c       6.04073
_cell_angle_alpha    88.1229
_cell_angle_beta     88.1229
_cell_angle_gamma    88.1229

_symmetry_Int_Tables_number  148
_chemical_formula_structural  SiO2
_chemical_formula_sum  Si6O2
_cell_volume  220.08078992566388
_cell_formula_units_Z  6
loop_
  _symmetry_equiv_pos_site_id
 _symmetry_equiv_pos_as_xyz
 1  'x, y, z'
loop_
 _atom_site_type_symbol
 _atom_site_label
 _atom_site_symmetry_multiplicity
 _atom_site_fract_x
 _atom_site_fract_y
 _atom_site_fract_z
 _atom_site_fract_occupancy
 O  O1  1  0.50000  0.00000  0.50000  1
 O  O2  1  0.24855  0.72632  0.72715  1
 O  O3  1  0.72632  0.72715  0.24855  1
 O  O4  1  -0.00000  0.00000  0.50000  1
 O  O5  1  0.00000  0.50000  0.00000  1
 O  O6  1  0.27368  0.27285  0.75145  1
 O  O7  1  0.50000  -0.00000  -0.00000  1
 O  O8  1  0.72715  0.24855  0.72632  1
 O  O9  1  0.50000  0.50000  0.00000  1
 O  O10  1  0.75145  0.27368  0.27285  1
 O  O11  1  0.00000  0.50000  0.50000  1
 O  O12  1  0.27285  0.75145  0.27368  1
 Si  Si1  1  0.74735  0.49566  0.11043  1
 Si  Si2  1  0.11043  0.74735  0.49566  1
 Si  Si3  1  0.88957  0.25265  0.50434  1
 Si  Si4  1  0.49566  0.11043  0.74735  1
 Si  Si5  1  0.50434  0.88957  0.25265  1
 Si  Si6  1  0.25265  0.50434  0.88957  1
