CIF file written using JARVIS-Tools package.
data_Li7Br3O2
_symmetry_space_group_name_H-M  'I4/mmm'
_cell_length_a       3.9295
_cell_length_b       3.9295
_cell_length_c       11.1031
_cell_angle_alpha    100.192
_cell_angle_beta     100.192
_cell_angle_gamma    90

_symmetry_Int_Tables_number  139
_chemical_formula_structural  Li7Br3O2
_chemical_formula_sum  Li7Br3O2
_cell_volume  165.98771881306638
_cell_formula_units_Z  1
loop_
  _symmetry_equiv_pos_site_id
 _symmetry_equiv_pos_as_xyz
 1  'x, y, z'
loop_
 _atom_site_type_symbol
 _atom_site_label
 _atom_site_symmetry_multiplicity
 _atom_site_fract_x
 _atom_site_fract_y
 _atom_site_fract_z
 _atom_site_fract_occupancy
 Br  Br1  1  0.50000  0.50000  0.00000  1
 Br  Br2  1  0.68914  0.68914  0.37827  1
 Br  Br3  1  0.31086  0.31086  0.62173  1
 Li  Li1  1  0.59290  0.09290  0.18580  1
 Li  Li2  1  0.09290  0.59290  0.18580  1
 Li  Li3  1  0.40710  0.90710  0.81420  1
 Li  Li4  1  0.90710  0.40710  0.81420  1
 Li  Li5  1  0.17981  0.17981  0.35962  1
 Li  Li6  1  0.82019  0.82019  0.64038  1
 Li  Li7  1  0.00000  0.00000  0.00000  1
 O  O1  1  0.90818  0.90818  0.81636  1
 O  O2  1  0.09182  0.09182  0.18364  1
