CIF file written using JARVIS-Tools package.
data_CaV4S8
_symmetry_space_group_name_H-M  'R-3m'
_cell_length_a       6.93286
_cell_length_b       7.15306
_cell_length_c       7.15306
_cell_angle_alpha    60
_cell_angle_beta     58.9437
_cell_angle_gamma    58.9436

_symmetry_Int_Tables_number  166
_chemical_formula_structural  CaV4S8
_chemical_formula_sum  CaV4S8
_cell_volume  246.75107421968403
_cell_formula_units_Z  1
loop_
  _symmetry_equiv_pos_site_id
 _symmetry_equiv_pos_as_xyz
 1  'x, y, z'
loop_
 _atom_site_type_symbol
 _atom_site_label
 _atom_site_symmetry_multiplicity
 _atom_site_fract_x
 _atom_site_fract_y
 _atom_site_fract_z
 _atom_site_fract_occupancy
 Ca  Ca1  1  0.50000  -0.00000  0.00000  1
 S  S1  1  0.24378  0.26429  0.26429  1
 S  S2  1  0.24378  0.26429  0.72763  1
 S  S3  1  0.24378  0.72763  0.26429  1
 S  S4  1  0.73149  0.25617  0.25617  1
 S  S5  1  0.26851  0.74383  0.74383  1
 S  S6  1  0.75622  0.73571  0.27237  1
 S  S7  1  0.75622  0.27237  0.73571  1
 S  S8  1  0.75622  0.73571  0.73571  1
 V  V1  1  -0.00000  0.50000  0.50000  1
 V  V2  1  0.50000  0.50000  0.00000  1
 V  V3  1  0.50000  0.50000  0.50000  1
 V  V4  1  0.50000  -0.00000  0.50000  1
