CIF file written using JARVIS-Tools package.
data_Li4TiO4
_symmetry_space_group_name_H-M  'Cmcm'
_cell_length_a       5.40898
_cell_length_b       5.40898
_cell_length_c       6.15204
_cell_angle_alpha    90
_cell_angle_beta     90
_cell_angle_gamma    94.0492

_symmetry_Int_Tables_number  63
_chemical_formula_structural  Li4TiO4
_chemical_formula_sum  Li8Ti2O8
_cell_volume  179.5412357533592
_cell_formula_units_Z  2
loop_
  _symmetry_equiv_pos_site_id
 _symmetry_equiv_pos_as_xyz
 1  'x, y, z'
loop_
 _atom_site_type_symbol
 _atom_site_label
 _atom_site_symmetry_multiplicity
 _atom_site_fract_x
 _atom_site_fract_y
 _atom_site_fract_z
 _atom_site_fract_occupancy
 Li  Li1  1  0.15903  0.84097  0.00000  1
 Li  Li2  1  0.84097  0.15903  0.50000  1
 Li  Li3  1  0.84097  0.15903  0.00000  1
 Li  Li4  1  0.15903  0.84097  0.50000  1
 Li  Li5  1  0.58626  0.87773  0.25000  1
 Li  Li6  1  0.41374  0.12227  0.75000  1
 Li  Li7  1  0.87773  0.58626  0.25000  1
 Li  Li8  1  0.12227  0.41374  0.75000  1
 O  O1  1  0.66981  0.27123  0.25000  1
 O  O2  1  0.79695  0.79695  -0.00049  1
 O  O3  1  0.20305  0.20305  0.49951  1
 O  O4  1  0.79695  0.79695  0.50049  1
 O  O5  1  0.27123  0.66981  0.25000  1
 O  O6  1  0.72877  0.33019  0.75000  1
 O  O7  1  0.33019  0.72877  0.75000  1
 O  O8  1  0.20305  0.20305  0.00049  1
 Ti  Ti1  1  0.34163  0.34163  0.25000  1
 Ti  Ti2  1  0.65837  0.65837  0.75000  1
