CIF file written using JARVIS-Tools package.
data_P3Ir
_symmetry_space_group_name_H-M  'Im-3'
_cell_length_a       7.029
_cell_length_b       7.029
_cell_length_c       7.029
_cell_angle_alpha    109.471
_cell_angle_beta     109.471
_cell_angle_gamma    109.471

_symmetry_Int_Tables_number  204
_chemical_formula_structural  P3Ir
_chemical_formula_sum  P2Ir4
_cell_volume  267.3369259887982
_cell_formula_units_Z  4
loop_
  _symmetry_equiv_pos_site_id
 _symmetry_equiv_pos_as_xyz
 1  'x, y, z'
loop_
 _atom_site_type_symbol
 _atom_site_label
 _atom_site_symmetry_multiplicity
 _atom_site_fract_x
 _atom_site_fract_y
 _atom_site_fract_z
 _atom_site_fract_occupancy
 Ir  Ir1  1  0.50000  0.00000  -0.00000  1
 Ir  Ir2  1  0.00000  0.00000  0.50000  1
 Ir  Ir3  1  0.00000  0.50000  0.00000  1
 Ir  Ir4  1  0.50000  0.50000  0.50000  1
 P  P1  1  0.50687  0.86077  0.64610  1
 P  P2  1  0.21468  0.86077  0.35390  1
 P  P3  1  0.78532  0.13923  0.64610  1
 P  P4  1  0.13923  0.35390  0.49313  1
 P  P5  1  0.49313  0.13923  0.35390  1
 P  P6  1  0.13923  0.64610  0.78532  1
 P  P7  1  0.35390  0.21468  0.86077  1
 P  P8  1  0.86077  0.64610  0.50687  1
 P  P9  1  0.64610  0.78532  0.13923  1
 P  P10  1  0.86077  0.35390  0.21468  1
 P  P11  1  0.64610  0.50687  0.86077  1
 P  P12  1  0.35390  0.49313  0.13923  1
