CIF file written using JARVIS-Tools package.
data_Na2SnO3
_symmetry_space_group_name_H-M  'P6_3/mcm'
_cell_length_a       5.57056
_cell_length_b       5.57056
_cell_length_c       11.1097
_cell_angle_alpha    90
_cell_angle_beta     90
_cell_angle_gamma    120

_symmetry_Int_Tables_number  193
_chemical_formula_structural  Na2SnO3
_chemical_formula_sum  Na8Sn4O2
_cell_volume  298.56013873378015
_cell_formula_units_Z  4
loop_
  _symmetry_equiv_pos_site_id
 _symmetry_equiv_pos_as_xyz
 1  'x, y, z'
loop_
 _atom_site_type_symbol
 _atom_site_label
 _atom_site_symmetry_multiplicity
 _atom_site_fract_x
 _atom_site_fract_y
 _atom_site_fract_z
 _atom_site_fract_occupancy
 Na  Na1  1  -0.00000  0.32008  0.75000  1
 Na  Na2  1  0.32008  0.32008  0.25000  1
 Na  Na3  1  0.00000  0.67992  0.25000  1
 Na  Na4  1  0.00000  0.00000  0.00000  1
 Na  Na5  1  0.00000  0.00000  0.50000  1
 Na  Na6  1  0.32008  -0.00000  0.75000  1
 Na  Na7  1  0.67992  0.67992  0.75000  1
 Na  Na8  1  0.67992  0.00000  0.25000  1
 O  O1  1  0.36697  -0.00000  0.39407  1
 O  O2  1  0.63303  0.63303  0.10593  1
 O  O3  1  0.63303  0.63303  0.39407  1
 O  O4  1  0.36697  0.36697  0.60593  1
 O  O5  1  0.36697  0.36697  0.89407  1
 O  O6  1  0.00000  0.63303  0.60593  1
 O  O7  1  0.00000  0.63303  0.89407  1
 O  O8  1  0.63303  0.00000  0.60593  1
 O  O9  1  -0.00000  0.36697  0.39407  1
 O  O10  1  0.63303  0.00000  0.89407  1
 O  O11  1  0.36697  -0.00000  0.10593  1
 O  O12  1  -0.00000  0.36697  0.10593  1
 Sn  Sn1  1  0.33333  0.66667  0.00000  1
 Sn  Sn2  1  0.33333  0.66667  0.50000  1
 Sn  Sn3  1  0.66667  0.33333  0.50000  1
 Sn  Sn4  1  0.66667  0.33333  0.00000  1
