CIF file written using JARVIS-Tools package.
data_BaPbO3
_symmetry_space_group_name_H-M  'Imma'
_cell_length_a       6.10286
_cell_length_b       6.13046
_cell_length_c       6.13045
_cell_angle_alpha    60.8169
_cell_angle_beta     60.1488
_cell_angle_gamma    60.1488

_symmetry_Int_Tables_number  74
_chemical_formula_structural  BaPbO3
_chemical_formula_sum  Ba2Pb2O6
_cell_volume  163.53037178799616
_cell_formula_units_Z  2
loop_
  _symmetry_equiv_pos_site_id
 _symmetry_equiv_pos_as_xyz
 1  'x, y, z'
loop_
 _atom_site_type_symbol
 _atom_site_label
 _atom_site_symmetry_multiplicity
 _atom_site_fract_x
 _atom_site_fract_y
 _atom_site_fract_z
 _atom_site_fract_occupancy
 Ba  Ba1  1  0.75000  0.74439  0.75561  1
 Ba  Ba2  1  0.25000  0.25561  0.24439  1
 O  O1  1  0.71009  0.28991  0.78991  1
 O  O2  1  0.78991  0.71009  0.21009  1
 O  O3  1  0.28991  0.71009  0.21009  1
 O  O4  1  0.21009  0.28991  0.78991  1
 O  O5  1  0.25000  0.82007  0.67993  1
 O  O6  1  0.75000  0.17993  0.32007  1
 Pb  Pb1  1  0.50000  0.50000  0.50000  1
 Pb  Pb2  1  0.00000  0.00000  0.00000  1
