CIF file written using JARVIS-Tools package.
data_Li4NpO5
_symmetry_space_group_name_H-M  'I4/m'
_cell_length_a       4.41742
_cell_length_b       5.21903
_cell_length_c       5.21931
_cell_angle_alpha    79.6855
_cell_angle_beta     64.9653
_cell_angle_gamma    64.9676

_symmetry_Int_Tables_number  87
_chemical_formula_structural  Li4NpO5
_chemical_formula_sum  Li4NpO5
_cell_volume  98.78394332578209
_cell_formula_units_Z  1
loop_
  _symmetry_equiv_pos_site_id
 _symmetry_equiv_pos_as_xyz
 1  'x, y, z'
loop_
 _atom_site_type_symbol
 _atom_site_label
 _atom_site_symmetry_multiplicity
 _atom_site_fract_x
 _atom_site_fract_y
 _atom_site_fract_z
 _atom_site_fract_occupancy
 Li  Li1  1  0.18664  0.22989  0.39684  1
 Li  Li2  1  0.58350  0.60316  0.22986  1
 Li  Li3  1  0.41650  0.39684  0.77014  1
 Li  Li4  1  0.81336  0.77011  0.60316  1
 Np  Np1  1  0.00000  0.00000  0.00000  1
 O  O1  1  0.50000  -0.00000  0.00000  1
 O  O2  1  0.91251  0.37597  0.79901  1
 O  O3  1  0.28850  0.79899  0.62403  1
 O  O4  1  0.08749  0.62403  0.20099  1
 O  O5  1  0.71150  0.20101  0.37597  1
