CIF file written using JARVIS-Tools package.
data_CrPtO2
_symmetry_space_group_name_H-M  'R-3m'
_cell_length_a       2.94141
_cell_length_b       6.31782
_cell_length_c       2.94141
_cell_angle_alpha    103.461
_cell_angle_beta     60.0001
_cell_angle_gamma    103.461

_symmetry_Int_Tables_number  166
_chemical_formula_structural  CrPtO2
_chemical_formula_sum  CrPtO2
_cell_volume  45.595658597826
_cell_formula_units_Z  1
loop_
  _symmetry_equiv_pos_site_id
 _symmetry_equiv_pos_as_xyz
 1  'x, y, z'
loop_
 _atom_site_type_symbol
 _atom_site_label
 _atom_site_symmetry_multiplicity
 _atom_site_fract_x
 _atom_site_fract_y
 _atom_site_fract_z
 _atom_site_fract_occupancy
 Cr  Cr1  1  0.50000  0.50000  0.50000  1
 O  O1  1  0.11103  0.33308  0.11103  1
 O  O2  1  0.88897  0.66692  0.88897  1
 Pt  Pt1  1  0.00000  0.00000  0.00000  1
