CIF file written using JARVIS-Tools package.
data_MgO2
_symmetry_space_group_name_H-M  'C2/m'
_cell_length_a       3.40106
_cell_length_b       3.06144
_cell_length_c       3.78711
_cell_angle_alpha    90
_cell_angle_beta     98.503
_cell_angle_gamma    116.748

_symmetry_Int_Tables_number  12
_chemical_formula_structural  MgO2
_chemical_formula_sum  MgO2
_cell_volume  34.72626865646526
_cell_formula_units_Z  1
loop_
  _symmetry_equiv_pos_site_id
 _symmetry_equiv_pos_as_xyz
 1  'x, y, z'
loop_
 _atom_site_type_symbol
 _atom_site_label
 _atom_site_symmetry_multiplicity
 _atom_site_fract_x
 _atom_site_fract_y
 _atom_site_fract_z
 _atom_site_fract_occupancy
 Mg  Mg1  1  0.00000  0.00000  0.00000  1
 O  O1  1  0.65099  0.32550  0.21860  1
 O  O2  1  0.34901  0.67450  0.78140  1
