CIF file written using JARVIS-Tools package.
data_NaCN
_symmetry_space_group_name_H-M  'Imm2'
_cell_length_a       5.4713
_cell_length_b       4.07468
_cell_length_c       4.07468
_cell_angle_alpha    73.271
_cell_angle_beta     47.8428
_cell_angle_gamma    47.8428

_symmetry_Int_Tables_number  44
_chemical_formula_structural  NaCN
_chemical_formula_sum  NaCN
_cell_volume  47.68408493686938
_cell_formula_units_Z  1
loop_
  _symmetry_equiv_pos_site_id
 _symmetry_equiv_pos_as_xyz
 1  'x, y, z'
loop_
 _atom_site_type_symbol
 _atom_site_label
 _atom_site_symmetry_multiplicity
 _atom_site_fract_x
 _atom_site_fract_y
 _atom_site_fract_z
 _atom_site_fract_occupancy
 C  C1  1  0.50000  0.11298  0.88702  1
 N  N1  1  0.50000  0.87131  0.12869  1
 Na  Na1  1  -0.00000  0.01570  0.98430  1
