CIF file written using JARVIS-Tools package.
data_HfPd
_symmetry_space_group_name_H-M  'Cmcm'
_cell_length_a       3.33379
_cell_length_b       4.34228
_cell_length_c       5.40484
_cell_angle_alpha    90
_cell_angle_beta     72.0368
_cell_angle_gamma    90

_symmetry_Int_Tables_number  63
_chemical_formula_structural  HfPd
_chemical_formula_sum  Hf2Pd2
_cell_volume  74.42777514616637
_cell_formula_units_Z  2
loop_
  _symmetry_equiv_pos_site_id
 _symmetry_equiv_pos_as_xyz
 1  'x, y, z'
loop_
 _atom_site_type_symbol
 _atom_site_label
 _atom_site_symmetry_multiplicity
 _atom_site_fract_x
 _atom_site_fract_y
 _atom_site_fract_z
 _atom_site_fract_occupancy
 Hf  Hf1  1  0.14238  0.75000  0.71524  1
 Hf  Hf2  1  0.85762  0.25000  0.28476  1
 Pd  Pd1  1  0.40976  0.75000  0.18049  1
 Pd  Pd2  1  0.59024  0.25000  0.81951  1
