CIF file written using JARVIS-Tools package.
data_Te4Mo3WSe4
_symmetry_space_group_name_H-M  'P3m1'
_cell_length_a       3.44583
_cell_length_b       3.44583
_cell_length_c       37.3608
_cell_angle_alpha    90.0017
_cell_angle_beta     89.9991
_cell_angle_gamma    120

_symmetry_Int_Tables_number  156
_chemical_formula_structural  Te4Mo3WSe4
_chemical_formula_sum  Te4Mo3WSe4
_cell_volume  384.18024782099445
_cell_formula_units_Z  1
loop_
  _symmetry_equiv_pos_site_id
 _symmetry_equiv_pos_as_xyz
 1  'x, y, z'
loop_
 _atom_site_type_symbol
 _atom_site_label
 _atom_site_symmetry_multiplicity
 _atom_site_fract_x
 _atom_site_fract_y
 _atom_site_fract_z
 _atom_site_fract_occupancy
 Mo  Mo1  1  0.33337  0.66660  0.09501  1
 Mo  Mo2  1  0.66666  0.33330  0.27841  1
 Mo  Mo3  1  0.66664  0.33340  0.65655  1
 Se  Se1  1  0.33331  0.66675  0.70026  1
 Se  Se2  1  0.66671  0.33328  0.05131  1
 Se  Se3  1  0.66669  0.33326  0.13881  1
 Se  Se4  1  0.33330  0.66671  0.61276  1
 Te  Te1  1  0.33333  0.66666  0.32816  1
 Te  Te2  1  0.66667  0.33336  0.42293  1
 Te  Te3  1  0.66666  0.33338  0.52294  1
 Te  Te4  1  0.33332  0.66660  0.22866  1
 W  W1  1  0.33333  0.66670  0.47294  1
