CIF file written using JARVIS-Tools package.
data_MnSiN2
_symmetry_space_group_name_H-M  'Pna2_1'
_cell_length_a       5.11947
_cell_length_b       5.31869
_cell_length_c       6.52185
_cell_angle_alpha    90
_cell_angle_beta     90
_cell_angle_gamma    90

_symmetry_Int_Tables_number  33
_chemical_formula_structural  MnSiN2
_chemical_formula_sum  Mn4Si4N8
_cell_volume  177.58252694141183
_cell_formula_units_Z  4
loop_
  _symmetry_equiv_pos_site_id
 _symmetry_equiv_pos_as_xyz
 1  'x, y, z'
loop_
 _atom_site_type_symbol
 _atom_site_label
 _atom_site_symmetry_multiplicity
 _atom_site_fract_x
 _atom_site_fract_y
 _atom_site_fract_z
 _atom_site_fract_occupancy
 Mn  Mn1  1  0.00169  0.57983  0.87598  1
 Mn  Mn2  1  0.50169  0.42017  0.12402  1
 Mn  Mn3  1  0.50169  0.92017  0.37598  1
 Mn  Mn4  1  0.00169  0.07983  0.62402  1
 N  N1  1  0.34797  0.54910  0.40710  1
 N  N2  1  0.84797  0.45090  0.59290  1
 N  N3  1  0.84797  0.95090  0.90710  1
 N  N4  1  0.34797  0.04910  0.09290  1
 N  N5  1  0.41776  0.61267  0.84168  1
 N  N6  1  0.41776  0.11267  0.65832  1
 N  N7  1  0.91776  0.88733  0.34168  1
 N  N8  1  0.91776  0.38733  0.15832  1
 Si  Si1  1  0.00658  0.06875  0.12523  1
 Si  Si2  1  0.50658  0.43125  0.62523  1
 Si  Si3  1  0.50658  0.93125  0.87477  1
 Si  Si4  1  0.00658  0.56875  0.37477  1
