CIF file written using JARVIS-Tools package.
data_YMnW2O8
_symmetry_space_group_name_H-M  'P1'
_cell_length_a       5.09624
_cell_length_b       5.90321
_cell_length_c       5.96426
_cell_angle_alpha    110.025
_cell_angle_beta     112.103
_cell_angle_gamma    90.2069

_symmetry_Int_Tables_number  1
_chemical_formula_structural  YMnW2O8
_chemical_formula_sum  YMnW2O8
_cell_volume  154.37436504141616
_cell_formula_units_Z  1
loop_
  _symmetry_equiv_pos_site_id
 _symmetry_equiv_pos_as_xyz
 1  'x, y, z'
loop_
 _atom_site_type_symbol
 _atom_site_label
 _atom_site_symmetry_multiplicity
 _atom_site_fract_x
 _atom_site_fract_y
 _atom_site_fract_z
 _atom_site_fract_occupancy
 Mn  Mn1  1  0.03231  0.74953  0.88386  1
 O  O1  1  0.29702  0.32597  0.16812  1
 O  O2  1  0.25948  0.50897  0.67427  1
 O  O3  1  0.37329  0.80514  0.20537  1
 O  O4  1  0.17334  0.95015  0.61072  1
 O  O5  1  0.78757  0.05776  0.13610  1
 O  O6  1  0.74601  0.23148  0.63168  1
 O  O7  1  0.67770  0.74909  0.60101  1
 O  O8  1  0.87635  0.60870  0.18996  1
 W  W1  1  0.27927  0.60267  0.41320  1
 W  W2  1  0.77193  0.95554  0.38785  1
 Y  Y1  1  0.52563  0.27649  0.90177  1
