CIF file written using JARVIS-Tools package.
data_TiF3
_symmetry_space_group_name_H-M  'Pm-3m'
_cell_length_a       3.93526
_cell_length_b       3.93527
_cell_length_c       3.93526
_cell_angle_alpha    89.9774
_cell_angle_beta     89.9773
_cell_angle_gamma    89.9773

_symmetry_Int_Tables_number  221
_chemical_formula_structural  TiF3
_chemical_formula_sum  TiF3
_cell_volume  60.942855311788826
_cell_formula_units_Z  1
loop_
  _symmetry_equiv_pos_site_id
 _symmetry_equiv_pos_as_xyz
 1  'x, y, z'
loop_
 _atom_site_type_symbol
 _atom_site_label
 _atom_site_symmetry_multiplicity
 _atom_site_fract_x
 _atom_site_fract_y
 _atom_site_fract_z
 _atom_site_fract_occupancy
 F  F1  1  0.00000  0.50000  0.00000  1
 F  F2  1  0.00000  -0.00000  0.50000  1
 F  F3  1  0.50000  0.00000  0.00000  1
 Ti  Ti1  1  0.00000  0.00000  0.00000  1
