CIF file written using JARVIS-Tools package.
data_YFeW2O8
_symmetry_space_group_name_H-M  'P-1'
_cell_length_a       5.02686
_cell_length_b       5.93656
_cell_length_c       5.96935
_cell_angle_alpha    109.572
_cell_angle_beta     89.9284
_cell_angle_gamma    112.25

_symmetry_Int_Tables_number  2
_chemical_formula_structural  YFeW2O8
_chemical_formula_sum  YFeW2O8
_cell_volume  153.72953959428938
_cell_formula_units_Z  1
loop_
  _symmetry_equiv_pos_site_id
 _symmetry_equiv_pos_as_xyz
 1  'x, y, z'
loop_
 _atom_site_type_symbol
 _atom_site_label
 _atom_site_symmetry_multiplicity
 _atom_site_fract_x
 _atom_site_fract_y
 _atom_site_fract_z
 _atom_site_fract_occupancy
 Fe  Fe1  1  0.97545  0.09934  0.22355  1
 O  O1  1  0.68966  0.82176  0.66758  1
 O  O2  1  0.74594  0.33084  0.49779  1
 O  O3  1  0.62914  0.80158  0.19713  1
 O  O4  1  0.82354  0.39168  0.05297  1
 O  O5  1  0.20425  0.86852  0.94841  1
 O  O6  1  0.26026  0.37742  0.77888  1
 O  O7  1  0.32061  0.39784  0.24943  1
 O  O8  1  0.12626  0.80813  0.39331  1
 W  W1  1  0.72034  0.58265  0.39778  1
 W  W2  1  0.22951  0.61665  0.04854  1
 Y  Y1  1  0.47512  0.09967  0.72313  1
