CIF file written using JARVIS-Tools package.
data_CrSiO5
_symmetry_space_group_name_H-M  'P1'
_cell_length_a       5.04476
_cell_length_b       5.02832
_cell_length_c       7.32515
_cell_angle_alpha    107.96
_cell_angle_beta     102.085
_cell_angle_gamma    93.2063

_symmetry_Int_Tables_number  1
_chemical_formula_structural  CrSiO5
_chemical_formula_sum  Cr2Si2O0
_cell_volume  171.38564610676232
_cell_formula_units_Z  2
loop_
  _symmetry_equiv_pos_site_id
 _symmetry_equiv_pos_as_xyz
 1  'x, y, z'
loop_
 _atom_site_type_symbol
 _atom_site_label
 _atom_site_symmetry_multiplicity
 _atom_site_fract_x
 _atom_site_fract_y
 _atom_site_fract_z
 _atom_site_fract_occupancy
 Cr  Cr1  1  0.49876  0.94975  0.46412  1
 Cr  Cr2  1  0.93395  0.50160  0.97903  1
 O  O1  1  0.11973  0.20053  0.92203  1
 O  O2  1  0.73374  0.82494  0.63416  1
 O  O3  1  0.87818  0.85589  0.10439  1
 O  O4  1  0.29655  0.20586  0.39404  1
 O  O5  1  0.79363  0.15819  0.44963  1
 O  O6  1  0.89838  0.41868  0.19991  1
 O  O7  1  0.23817  0.87225  0.58171  1
 O  O8  1  0.13983  0.64923  0.84841  1
 O  O9  1  0.43170  0.69523  0.26394  1
 O  O10  1  0.64977  0.38272  0.82572  1
 Si  Si1  1  0.05938  0.89109  0.74583  1
 Si  Si2  1  0.96990  0.16008  0.28485  1
