CIF file written using JARVIS-Tools package.
data_CaCl2O4
_symmetry_space_group_name_H-M  'Ccce'
_cell_length_a       5.71674
_cell_length_b       5.74543
_cell_length_c       6.79591
_cell_angle_alpha    115.006
_cell_angle_beta     90
_cell_angle_gamma    90

_symmetry_Int_Tables_number  68
_chemical_formula_structural  CaCl2O4
_chemical_formula_sum  Ca2Cl4O8
_cell_volume  202.289621043801
_cell_formula_units_Z  2
loop_
  _symmetry_equiv_pos_site_id
 _symmetry_equiv_pos_as_xyz
 1  'x, y, z'
loop_
 _atom_site_type_symbol
 _atom_site_label
 _atom_site_symmetry_multiplicity
 _atom_site_fract_x
 _atom_site_fract_y
 _atom_site_fract_z
 _atom_site_fract_occupancy
 Ca  Ca1  1  0.75000  0.25000  0.50000  1
 Ca  Ca2  1  0.25000  0.75000  0.50000  1
 Cl  Cl1  1  0.25000  0.07689  0.15378  1
 Cl  Cl2  1  0.75000  0.57689  0.15378  1
 Cl  Cl3  1  0.25000  0.42311  0.84622  1
 Cl  Cl4  1  0.75000  0.92311  0.84622  1
 O  O1  1  0.40968  0.98807  0.30018  1
 O  O2  1  0.40968  0.51193  0.69982  1
 O  O3  1  0.59032  0.01193  0.69982  1
 O  O4  1  0.09032  0.18789  0.69982  1
 O  O5  1  0.90968  0.68789  0.69982  1
 O  O6  1  0.90968  0.81211  0.30018  1
 O  O7  1  0.59032  0.48807  0.30018  1
 O  O8  1  0.09032  0.31211  0.30018  1
