CIF file written using JARVIS-Tools package.
data_Na4CO4
_symmetry_space_group_name_H-M  'R3m'
_cell_length_a       4.78107
_cell_length_b       4.7813
_cell_length_c       4.7813
_cell_angle_alpha    90.8414
_cell_angle_beta     90.8454
_cell_angle_gamma    90.8503

_symmetry_Int_Tables_number  160
_chemical_formula_structural  Na4CO4
_chemical_formula_sum  Na4CO4
_cell_volume  109.26296329296262
_cell_formula_units_Z  1
loop_
  _symmetry_equiv_pos_site_id
 _symmetry_equiv_pos_as_xyz
 1  'x, y, z'
loop_
 _atom_site_type_symbol
 _atom_site_label
 _atom_site_symmetry_multiplicity
 _atom_site_fract_x
 _atom_site_fract_y
 _atom_site_fract_z
 _atom_site_fract_occupancy
 C  C1  1  0.91067  0.91064  0.91060  1
 Na  Na1  1  0.98520  0.53520  0.53527  1
 Na  Na2  1  0.53515  0.53523  0.98522  1
 Na  Na3  1  0.19789  0.19802  0.19818  1
 Na  Na4  1  0.53527  0.98521  0.53516  1
 O  O1  1  0.02274  0.69081  0.02269  1
 O  O2  1  0.69087  0.02275  0.02270  1
 O  O3  1  0.02273  0.02269  0.69072  1
 O  O4  1  0.48168  0.48167  0.48167  1
