CIF file written using JARVIS-Tools package.
data_BaS3
_symmetry_space_group_name_H-M  'P2_12_12'
_cell_length_a       5.07103
_cell_length_b       8.46634
_cell_length_c       10.0667
_cell_angle_alpha    90
_cell_angle_beta     90
_cell_angle_gamma    90

_symmetry_Int_Tables_number  18
_chemical_formula_structural  BaS3
_chemical_formula_sum  Ba4S2
_cell_volume  432.19294553781083
_cell_formula_units_Z  4
loop_
  _symmetry_equiv_pos_site_id
 _symmetry_equiv_pos_as_xyz
 1  'x, y, z'
loop_
 _atom_site_type_symbol
 _atom_site_label
 _atom_site_symmetry_multiplicity
 _atom_site_fract_x
 _atom_site_fract_y
 _atom_site_fract_z
 _atom_site_fract_occupancy
 Ba  Ba1  1  0.01568  0.50000  0.00000  1
 Ba  Ba2  1  0.98432  0.00000  0.50000  1
 Ba  Ba3  1  0.02668  0.00000  0.00000  1
 Ba  Ba4  1  0.97332  0.50000  0.50000  1
 S  S1  1  0.47043  0.24500  0.49172  1
 S  S2  1  0.41108  0.18675  0.28951  1
 S  S3  1  0.52957  0.25500  0.99172  1
 S  S4  1  0.41108  0.81325  0.71049  1
 S  S5  1  0.58892  0.68675  0.21049  1
 S  S6  1  0.98437  0.75020  0.24954  1
 S  S7  1  0.01563  0.25020  0.25046  1
 S  S8  1  0.98437  0.24980  0.75046  1
 S  S9  1  0.52957  0.74500  0.00828  1
 S  S10  1  0.01563  0.74980  0.74954  1
 S  S11  1  0.47043  0.75500  0.50828  1
 S  S12  1  0.58892  0.31325  0.78951  1
