CIF file written using JARVIS-Tools package.
data_MnAlF5
_symmetry_space_group_name_H-M  'Cmcm'
_cell_length_a       3.6176
_cell_length_b       5.29344
_cell_length_c       9.58419
_cell_angle_alpha    90
_cell_angle_beta     90
_cell_angle_gamma    109.981

_symmetry_Int_Tables_number  63
_chemical_formula_structural  MnAlF5
_chemical_formula_sum  Mn2Al2F0
_cell_volume  172.4855064350159
_cell_formula_units_Z  2
loop_
  _symmetry_equiv_pos_site_id
 _symmetry_equiv_pos_as_xyz
 1  'x, y, z'
loop_
 _atom_site_type_symbol
 _atom_site_label
 _atom_site_symmetry_multiplicity
 _atom_site_fract_x
 _atom_site_fract_y
 _atom_site_fract_z
 _atom_site_fract_occupancy
 Al  Al1  1  0.79428  0.58855  0.25000  1
 Al  Al2  1  0.20572  0.41145  0.75000  1
 F  F1  1  0.30554  0.61108  0.25000  1
 F  F2  1  0.69446  0.38892  0.75000  1
 F  F3  1  0.07242  0.14483  0.61511  1
 F  F4  1  0.92758  0.85517  0.38489  1
 F  F5  1  0.33087  0.66173  0.88433  1
 F  F6  1  0.66913  0.33827  0.11567  1
 F  F7  1  0.66913  0.33827  0.38433  1
 F  F8  1  0.33087  0.66173  0.61567  1
 F  F9  1  0.07242  0.14483  0.88489  1
 F  F10  1  0.92758  0.85517  0.11511  1
 Mn  Mn1  1  0.50000  0.00000  0.50000  1
 Mn  Mn2  1  0.50000  0.00000  0.00000  1
