CIF file written using JARVIS-Tools package.
data_FeP4
_symmetry_space_group_name_H-M  'C222_1'
_cell_length_a       5.03809
_cell_length_b       5.57191
_cell_length_c       5.73393
_cell_angle_alpha    90
_cell_angle_beta     116.061
_cell_angle_gamma    90

_symmetry_Int_Tables_number  20
_chemical_formula_structural  FeP4
_chemical_formula_sum  Fe2P8
_cell_volume  144.59648760937182
_cell_formula_units_Z  2
loop_
  _symmetry_equiv_pos_site_id
 _symmetry_equiv_pos_as_xyz
 1  'x, y, z'
loop_
 _atom_site_type_symbol
 _atom_site_label
 _atom_site_symmetry_multiplicity
 _atom_site_fract_x
 _atom_site_fract_y
 _atom_site_fract_z
 _atom_site_fract_occupancy
 Fe  Fe1  1  0.17410  0.75000  0.34820  1
 Fe  Fe2  1  0.82590  0.25000  0.65180  1
 P  P1  1  0.00308  0.13296  0.36640  1
 P  P2  1  0.30726  0.80218  0.03771  1
 P  P3  1  0.99692  0.63296  0.63360  1
 P  P4  1  0.26955  0.19782  0.96229  1
 P  P5  1  0.63668  0.86704  0.63360  1
 P  P6  1  0.36332  0.36704  0.36640  1
 P  P7  1  0.69274  0.30218  0.96229  1
 P  P8  1  0.73045  0.69782  0.03771  1
