CIF file written using JARVIS-Tools package.
data_Rb2HgSe
_symmetry_space_group_name_H-M  'Fm-3m'
_cell_length_a       14.2451
_cell_length_b       5.81621
_cell_length_c       5.81621
_cell_angle_alpha    60.0149
_cell_angle_beta     35.2746
_cell_angle_gamma    35.2747

_symmetry_Int_Tables_number  225
_chemical_formula_structural  Rb2HgSe
_chemical_formula_sum  Rb2HgSe
_cell_volume  139.18664116140903
_cell_formula_units_Z  1
loop_
  _symmetry_equiv_pos_site_id
 _symmetry_equiv_pos_as_xyz
 1  'x, y, z'
loop_
 _atom_site_type_symbol
 _atom_site_label
 _atom_site_symmetry_multiplicity
 _atom_site_fract_x
 _atom_site_fract_y
 _atom_site_fract_z
 _atom_site_fract_occupancy
 Hg  Hg1  1  0.50000  -0.00000  0.00000  1
 Rb  Rb1  1  0.74997  0.00008  0.00008  1
 Rb  Rb2  1  0.25003  -0.00008  -0.00008  1
 Se  Se1  1  0.00000  0.00000  0.00000  1
