CIF file written using JARVIS-Tools package.
data_MgCu2O4
_symmetry_space_group_name_H-M  'Fd-3m'
_cell_length_a       5.93982
_cell_length_b       5.93964
_cell_length_c       5.93975
_cell_angle_alpha    119.999
_cell_angle_beta     120.001
_cell_angle_gamma    89.9998

_symmetry_Int_Tables_number  227
_chemical_formula_structural  MgCu2O4
_chemical_formula_sum  Mg2Cu4O8
_cell_volume  148.17960738838036
_cell_formula_units_Z  2
loop_
  _symmetry_equiv_pos_site_id
 _symmetry_equiv_pos_as_xyz
 1  'x, y, z'
loop_
 _atom_site_type_symbol
 _atom_site_label
 _atom_site_symmetry_multiplicity
 _atom_site_fract_x
 _atom_site_fract_y
 _atom_site_fract_z
 _atom_site_fract_occupancy
 Cu  Cu1  1  0.50000  0.00000  0.50000  1
 Cu  Cu2  1  0.50000  0.50000  0.50000  1
 Cu  Cu3  1  0.00000  0.50000  0.00000  1
 Cu  Cu4  1  0.50000  0.50000  0.00000  1
 Mg  Mg1  1  0.12499  0.87499  0.74997  1
 Mg  Mg2  1  0.87501  0.12501  0.25003  1
 O  O1  1  0.73904  0.26095  0.97809  1
 O  O2  1  0.28288  0.26097  0.52194  1
 O  O3  1  0.73904  0.26096  0.52193  1
 O  O4  1  0.26096  0.28287  0.02191  1
 O  O5  1  0.26096  0.73904  0.47807  1
 O  O6  1  0.71712  0.73903  0.47806  1
 O  O7  1  0.73904  0.71713  0.97809  1
 O  O8  1  0.26096  0.73905  0.02191  1
