CIF file written using JARVIS-Tools package.
data_CaTi4S8
_symmetry_space_group_name_H-M  'R-3m'
_cell_length_a       7.09587
_cell_length_b       7.23044
_cell_length_c       7.23044
_cell_angle_alpha    60
_cell_angle_beta     59.3707
_cell_angle_gamma    59.3707

_symmetry_Int_Tables_number  166
_chemical_formula_structural  CaTi4S8
_chemical_formula_sum  CaTi4S8
_cell_volume  259.79074367863643
_cell_formula_units_Z  1
loop_
  _symmetry_equiv_pos_site_id
 _symmetry_equiv_pos_as_xyz
 1  'x, y, z'
loop_
 _atom_site_type_symbol
 _atom_site_label
 _atom_site_symmetry_multiplicity
 _atom_site_fract_x
 _atom_site_fract_y
 _atom_site_fract_z
 _atom_site_fract_occupancy
 Ca  Ca1  1  0.50000  -0.00000  -0.00000  1
 S  S1  1  0.24775  0.26159  0.26159  1
 S  S2  1  0.24775  0.26159  0.72906  1
 S  S3  1  0.24775  0.72906  0.26159  1
 S  S4  1  0.73233  0.25589  0.25589  1
 S  S5  1  0.26767  0.74411  0.74411  1
 S  S6  1  0.75225  0.73841  0.27094  1
 S  S7  1  0.75225  0.27094  0.73841  1
 S  S8  1  0.75225  0.73841  0.73841  1
 Ti  Ti1  1  -0.00000  0.50000  0.50000  1
 Ti  Ti2  1  0.50000  0.50000  -0.00000  1
 Ti  Ti3  1  0.50000  0.50000  0.50000  1
 Ti  Ti4  1  0.50000  -0.00000  0.50000  1
