CIF file written using JARVIS-Tools package.
data_ReSbO6
_symmetry_space_group_name_H-M  'P2_1/m'
_cell_length_a       5.11965
_cell_length_b       7.30231
_cell_length_c       5.3475
_cell_angle_alpha    90
_cell_angle_beta     90.0225
_cell_angle_gamma    90

_symmetry_Int_Tables_number  11
_chemical_formula_structural  ReSbO6
_chemical_formula_sum  Re2Sb2O2
_cell_volume  199.91787911081482
_cell_formula_units_Z  2
loop_
  _symmetry_equiv_pos_site_id
 _symmetry_equiv_pos_as_xyz
 1  'x, y, z'
loop_
 _atom_site_type_symbol
 _atom_site_label
 _atom_site_symmetry_multiplicity
 _atom_site_fract_x
 _atom_site_fract_y
 _atom_site_fract_z
 _atom_site_fract_occupancy
 O  O1  1  0.68127  0.55672  0.70700  1
 O  O2  1  0.79953  0.94275  0.18643  1
 O  O3  1  0.31873  0.05672  0.29300  1
 O  O4  1  0.20047  0.44275  0.81357  1
 O  O5  1  0.79953  0.55725  0.18643  1
 O  O6  1  0.20047  0.05725  0.81357  1
 O  O7  1  0.13356  0.75000  0.52689  1
 O  O8  1  0.68127  0.94328  0.70700  1
 O  O9  1  0.60573  0.25000  0.97873  1
 O  O10  1  0.31873  0.44328  0.29300  1
 O  O11  1  0.86644  0.25000  0.47311  1
 O  O12  1  0.39427  0.75000  0.02127  1
 Re  Re1  1  0.50000  0.50000  0.00000  1
 Re  Re2  1  0.50000  0.00000  0.00000  1
 Sb  Sb1  1  -0.00000  0.50000  0.50000  1
 Sb  Sb2  1  -0.00000  0.00000  0.50000  1
