CIF file written using JARVIS-Tools package.
data_InSb
_symmetry_space_group_name_H-M  'Imm2'
_cell_length_a       3.23663
_cell_length_b       4.49809
_cell_length_c       4.49809
_cell_angle_alpha    82.6375
_cell_angle_beta     68.9347
_cell_angle_gamma    68.9346

_symmetry_Int_Tables_number  44
_chemical_formula_structural  InSb
_chemical_formula_sum  InSb
_cell_volume  57.02577013611712
_cell_formula_units_Z  1
loop_
  _symmetry_equiv_pos_site_id
 _symmetry_equiv_pos_as_xyz
 1  'x, y, z'
loop_
 _atom_site_type_symbol
 _atom_site_label
 _atom_site_symmetry_multiplicity
 _atom_site_fract_x
 _atom_site_fract_y
 _atom_site_fract_z
 _atom_site_fract_occupancy
 In  In1  1  0.00133  0.50004  0.50004  1
 Sb  Sb1  1  0.24867  -0.00004  -0.00004  1
