CIF file written using JARVIS-Tools package.
data_MnS
_symmetry_space_group_name_H-M  'P6_3mc'
_cell_length_a       3.44543
_cell_length_b       3.44543
_cell_length_c       6.06482
_cell_angle_alpha    90
_cell_angle_beta     90
_cell_angle_gamma    60.0001

_symmetry_Int_Tables_number  186
_chemical_formula_structural  MnS
_chemical_formula_sum  Mn2S2
_cell_volume  62.34976833773358
_cell_formula_units_Z  2
loop_
  _symmetry_equiv_pos_site_id
 _symmetry_equiv_pos_as_xyz
 1  'x, y, z'
loop_
 _atom_site_type_symbol
 _atom_site_label
 _atom_site_symmetry_multiplicity
 _atom_site_fract_x
 _atom_site_fract_y
 _atom_site_fract_z
 _atom_site_fract_occupancy
 Mn  Mn1  1  0.66667  0.66667  0.00661  1
 Mn  Mn2  1  0.33333  0.33333  0.50660  1
 S  S1  1  0.33333  0.33333  0.86839  1
 S  S2  1  0.66667  0.66667  0.36841  1
