CIF file written using JARVIS-Tools package.
data_YbCuSb
_symmetry_space_group_name_H-M  'P6_3mc'
_cell_length_a       4.50113
_cell_length_b       4.50113
_cell_length_c       7.39085
_cell_angle_alpha    90
_cell_angle_beta     90
_cell_angle_gamma    120

_symmetry_Int_Tables_number  186
_chemical_formula_structural  YbCuSb
_chemical_formula_sum  Yb2Cu2Sb2
_cell_volume  129.67851772746275
_cell_formula_units_Z  2
loop_
  _symmetry_equiv_pos_site_id
 _symmetry_equiv_pos_as_xyz
 1  'x, y, z'
loop_
 _atom_site_type_symbol
 _atom_site_label
 _atom_site_symmetry_multiplicity
 _atom_site_fract_x
 _atom_site_fract_y
 _atom_site_fract_z
 _atom_site_fract_occupancy
 Cu  Cu1  1  0.66667  0.33333  0.44396  1
 Cu  Cu2  1  0.33333  0.66667  0.94396  1
 Sb  Sb1  1  0.33333  0.66667  0.53788  1
 Sb  Sb2  1  0.66667  0.33333  0.03788  1
 Yb  Yb1  1  0.00000  0.00000  0.26716  1
 Yb  Yb2  1  0.00000  0.00000  0.76716  1
