CIF file written using JARVIS-Tools package.
data_Rb4CO4
_symmetry_space_group_name_H-M  'P-42m'
_cell_length_a       5.60024
_cell_length_b       5.61341
_cell_length_c       5.6116
_cell_angle_alpha    89.9997
_cell_angle_beta     89.9398
_cell_angle_gamma    89.9835

_symmetry_Int_Tables_number  111
_chemical_formula_structural  Rb4CO4
_chemical_formula_sum  Rb4CO4
_cell_volume  176.40829514254867
_cell_formula_units_Z  1
loop_
  _symmetry_equiv_pos_site_id
 _symmetry_equiv_pos_as_xyz
 1  'x, y, z'
loop_
 _atom_site_type_symbol
 _atom_site_label
 _atom_site_symmetry_multiplicity
 _atom_site_fract_x
 _atom_site_fract_y
 _atom_site_fract_z
 _atom_site_fract_occupancy
 C  C1  1  0.49999  -0.00024  -0.00007  1
 O  O1  1  0.64941  0.85085  0.85083  1
 O  O2  1  0.35064  0.85084  0.14901  1
 O  O3  1  0.64920  0.14870  0.14889  1
 O  O4  1  0.35074  0.14879  0.85104  1
 Rb  Rb1  1  0.21576  0.28404  0.28400  1
 Rb  Rb2  1  0.78431  0.28423  0.71629  1
 Rb  Rb3  1  0.21547  0.71642  0.71596  1
 Rb  Rb4  1  0.78448  0.71637  0.28406  1
