CIF file written using JARVIS-Tools package.
data_In2Ge2O7
_symmetry_space_group_name_H-M  'C2/m'
_cell_length_a       4.9966
_cell_length_b       5.59391
_cell_length_c       5.59391
_cell_angle_alpha    105.534
_cell_angle_beta     97.4411
_cell_angle_gamma    97.4412

_symmetry_Int_Tables_number  12
_chemical_formula_structural  In2Ge2O7
_chemical_formula_sum  In2Ge2O7
_cell_volume  147.1499136349731
_cell_formula_units_Z  1
loop_
  _symmetry_equiv_pos_site_id
 _symmetry_equiv_pos_as_xyz
 1  'x, y, z'
loop_
 _atom_site_type_symbol
 _atom_site_label
 _atom_site_symmetry_multiplicity
 _atom_site_fract_x
 _atom_site_fract_y
 _atom_site_fract_z
 _atom_site_fract_occupancy
 Ge  Ge1  1  0.40771  0.23498  0.23498  1
 Ge  Ge2  1  0.59229  0.76502  0.76502  1
 In  In1  1  -0.00000  0.30630  0.69370  1
 In  In2  1  0.00000  0.69370  0.30630  1
 O  O1  1  0.78696  0.92594  0.59211  1
 O  O2  1  0.21304  0.40789  0.07406  1
 O  O3  1  0.21304  0.07406  0.40789  1
 O  O4  1  0.78696  0.59211  0.92594  1
 O  O5  1  0.50000  -0.00000  0.00000  1
 O  O6  1  0.27162  0.58943  0.58943  1
 O  O7  1  0.72838  0.41057  0.41057  1
