CIF file written using JARVIS-Tools package.
data_W2SeS3
_symmetry_space_group_name_H-M  'Cm'
_cell_length_a       3.22524
_cell_length_b       3.22527
_cell_length_c       34.0998
_cell_angle_alpha    90.0348
_cell_angle_beta     90
_cell_angle_gamma    120

_symmetry_Int_Tables_number  8
_chemical_formula_structural  W2SeS3
_chemical_formula_sum  W4Se2S6
_cell_volume  307.1933184853147
_cell_formula_units_Z  2
loop_
  _symmetry_equiv_pos_site_id
 _symmetry_equiv_pos_as_xyz
 1  'x, y, z'
loop_
 _atom_site_type_symbol
 _atom_site_label
 _atom_site_symmetry_multiplicity
 _atom_site_fract_x
 _atom_site_fract_y
 _atom_site_fract_z
 _atom_site_fract_occupancy
 S  S1  1  0.33046  0.66092  0.32515  1
 S  S2  1  0.33548  0.67096  0.70487  1
 S  S3  1  0.66640  0.33280  0.04935  1
 S  S4  1  0.66696  0.33392  0.14107  1
 S  S5  1  0.33015  0.66030  0.23340  1
 S  S6  1  0.33510  0.67021  0.61316  1
 Se  Se1  1  0.66752  0.33503  0.41894  1
 Se  Se2  1  0.66791  0.33582  0.51987  1
 W  W1  1  0.33333  0.66666  0.09519  1
 W  W2  1  0.33436  0.66871  0.46941  1
 W  W3  1  0.66368  0.32736  0.27927  1
 W  W4  1  0.66865  0.33730  0.65904  1
