CIF file written using JARVIS-Tools package.
data_CaMg
_symmetry_space_group_name_H-M  'P4/mmm'
_cell_length_a       5.57327
_cell_length_b       3.92929
_cell_length_c       5.57374
_cell_angle_alpha    90
_cell_angle_beta     90
_cell_angle_gamma    90

_symmetry_Int_Tables_number  123
_chemical_formula_structural  CaMg
_chemical_formula_sum  Ca2Mg2
_cell_volume  122.05949779639951
_cell_formula_units_Z  2
loop_
  _symmetry_equiv_pos_site_id
 _symmetry_equiv_pos_as_xyz
 1  'x, y, z'
loop_
 _atom_site_type_symbol
 _atom_site_label
 _atom_site_symmetry_multiplicity
 _atom_site_fract_x
 _atom_site_fract_y
 _atom_site_fract_z
 _atom_site_fract_occupancy
 Ca  Ca1  1  0.75000  0.50000  0.25011  1
 Ca  Ca2  1  0.25000  0.50000  0.74989  1
 Mg  Mg1  1  0.75000  0.00000  0.75014  1
 Mg  Mg2  1  0.25000  0.00000  0.24986  1
