CIF file written using JARVIS-Tools package.
data_Na2NbF6
_symmetry_space_group_name_H-M  'P4_2/mnm'
_cell_length_a       5.06599
_cell_length_b       5.06599
_cell_length_c       10.2987
_cell_angle_alpha    90
_cell_angle_beta     90
_cell_angle_gamma    90

_symmetry_Int_Tables_number  136
_chemical_formula_structural  Na2NbF6
_chemical_formula_sum  Na4Nb2F2
_cell_volume  264.30804505117754
_cell_formula_units_Z  2
loop_
  _symmetry_equiv_pos_site_id
 _symmetry_equiv_pos_as_xyz
 1  'x, y, z'
loop_
 _atom_site_type_symbol
 _atom_site_label
 _atom_site_symmetry_multiplicity
 _atom_site_fract_x
 _atom_site_fract_y
 _atom_site_fract_z
 _atom_site_fract_occupancy
 F  F1  1  0.22130  0.77870  0.50000  1
 F  F2  1  0.68677  0.68677  0.64862  1
 F  F3  1  0.31323  0.31323  0.64862  1
 F  F4  1  0.31323  0.31323  0.35138  1
 F  F5  1  0.18677  0.81323  0.14862  1
 F  F6  1  0.68677  0.68677  0.35138  1
 F  F7  1  0.81323  0.18677  0.85138  1
 F  F8  1  0.27870  0.27870  0.00000  1
 F  F9  1  0.18677  0.81323  0.85138  1
 F  F10  1  0.77870  0.22130  0.50000  1
 F  F11  1  0.72130  0.72130  0.00000  1
 F  F12  1  0.81323  0.18677  0.14862  1
 Na  Na1  1  0.50000  0.50000  0.16562  1
 Na  Na2  1  0.00000  0.00000  0.66562  1
 Na  Na3  1  0.50000  0.50000  0.83438  1
 Na  Na4  1  0.00000  0.00000  0.33438  1
 Nb  Nb1  1  0.50000  0.50000  0.50000  1
 Nb  Nb2  1  0.00000  0.00000  0.00000  1
