CIF file written using JARVIS-Tools package.
data_RbLaO2
_symmetry_space_group_name_H-M  'R-3m'
_cell_length_a       6.87985
_cell_length_b       6.87985
_cell_length_c       6.87984
_cell_angle_alpha    31.5569
_cell_angle_beta     31.5569
_cell_angle_gamma    31.5569

_symmetry_Int_Tables_number  166
_chemical_formula_structural  RbLaO2
_chemical_formula_sum  RbLaO2
_cell_volume  79.1890726295065
_cell_formula_units_Z  1
loop_
  _symmetry_equiv_pos_site_id
 _symmetry_equiv_pos_as_xyz
 1  'x, y, z'
loop_
 _atom_site_type_symbol
 _atom_site_label
 _atom_site_symmetry_multiplicity
 _atom_site_fract_x
 _atom_site_fract_y
 _atom_site_fract_z
 _atom_site_fract_occupancy
 La  La1  1  0.50000  0.50000  0.50000  1
 O  O1  1  0.77209  0.77209  0.77209  1
 O  O2  1  0.22791  0.22791  0.22791  1
 Rb  Rb1  1  0.00000  0.00000  0.00000  1
