CIF file written using JARVIS-Tools package.
data_Sr2HgGe
_symmetry_space_group_name_H-M  'Fm-3m'
_cell_length_a       13.4926
_cell_length_b       9.54132
_cell_length_c       9.54106
_cell_angle_alpha    33.5663
_cell_angle_beta     19.4769
_cell_angle_gamma    19.4764

_symmetry_Int_Tables_number  225
_chemical_formula_structural  Sr2HgGe
_chemical_formula_sum  Sr2HgGe
_cell_volume  118.25773376084504
_cell_formula_units_Z  1
loop_
  _symmetry_equiv_pos_site_id
 _symmetry_equiv_pos_as_xyz
 1  'x, y, z'
loop_
 _atom_site_type_symbol
 _atom_site_label
 _atom_site_symmetry_multiplicity
 _atom_site_fract_x
 _atom_site_fract_y
 _atom_site_fract_z
 _atom_site_fract_occupancy
 Ge  Ge1  1  0.00000  -0.00000  0.00000  1
 Hg  Hg1  1  0.50000  0.00000  -0.00000  1
 Sr  Sr1  1  0.75018  -0.00013  -0.00012  1
 Sr  Sr2  1  0.24982  0.00013  0.00012  1
