CIF file written using JARVIS-Tools package.
data_K4CO4
_symmetry_space_group_name_H-M  'I-42m'
_cell_length_a       5.36844
_cell_length_b       5.36844
_cell_length_c       6.26565
_cell_angle_alpha    115.36
_cell_angle_beta     115.36
_cell_angle_gamma    90.0002

_symmetry_Int_Tables_number  121
_chemical_formula_structural  K4CO4
_chemical_formula_sum  K4CO4
_cell_volume  143.68153354208368
_cell_formula_units_Z  1
loop_
  _symmetry_equiv_pos_site_id
 _symmetry_equiv_pos_as_xyz
 1  'x, y, z'
loop_
 _atom_site_type_symbol
 _atom_site_label
 _atom_site_symmetry_multiplicity
 _atom_site_fract_x
 _atom_site_fract_y
 _atom_site_fract_z
 _atom_site_fract_occupancy
 C  C1  1  0.00002  0.00003  -0.00000  1
 K  K1  1  0.55279  0.15848  0.71136  1
 K  K2  1  0.44716  0.44716  0.28867  1
 K  K3  1  0.15848  0.55279  0.71136  1
 K  K4  1  0.84145  0.84145  0.28862  1
 O  O1  1  0.93233  0.23917  0.17149  1
 O  O2  1  0.23916  0.93233  0.17149  1
 O  O3  1  0.76088  0.76088  0.82850  1
 O  O4  1  0.06773  0.06773  0.82852  1
