CIF file written using JARVIS-Tools package.
data_Rb2Pd
_symmetry_space_group_name_H-M  'Fm-3m'
_cell_length_a       5.69241
_cell_length_b       5.69283
_cell_length_c       5.69283
_cell_angle_alpha    59.9869
_cell_angle_beta     59.9986
_cell_angle_gamma    59.9986

_symmetry_Int_Tables_number  225
_chemical_formula_structural  Rb2Pd
_chemical_formula_sum  Rb2Pd
_cell_volume  130.4321687526654
_cell_formula_units_Z  1
loop_
  _symmetry_equiv_pos_site_id
 _symmetry_equiv_pos_as_xyz
 1  'x, y, z'
loop_
 _atom_site_type_symbol
 _atom_site_label
 _atom_site_symmetry_multiplicity
 _atom_site_fract_x
 _atom_site_fract_y
 _atom_site_fract_z
 _atom_site_fract_occupancy
 Pd  Pd1  1  0.00000  0.00000  0.00000  1
 Rb  Rb1  1  0.25000  0.24999  0.24999  1
 Rb  Rb2  1  0.75000  0.75001  0.75001  1
