CIF file written using JARVIS-Tools package.
data_CaO
_symmetry_space_group_name_H-M  'P6_3/mmc'
_cell_length_a       3.99054
_cell_length_b       3.99054
_cell_length_c       4.79508
_cell_angle_alpha    90
_cell_angle_beta     90
_cell_angle_gamma    120

_symmetry_Int_Tables_number  194
_chemical_formula_structural  CaO
_chemical_formula_sum  Ca2O2
_cell_volume  66.12859855329086
_cell_formula_units_Z  2
loop_
  _symmetry_equiv_pos_site_id
 _symmetry_equiv_pos_as_xyz
 1  'x, y, z'
loop_
 _atom_site_type_symbol
 _atom_site_label
 _atom_site_symmetry_multiplicity
 _atom_site_fract_x
 _atom_site_fract_y
 _atom_site_fract_z
 _atom_site_fract_occupancy
 Ca  Ca1  1  0.33333  0.66667  0.99987  1
 Ca  Ca2  1  0.66667  0.33333  0.49987  1
 O  O1  1  0.33333  0.66667  0.49983  1
 O  O2  1  0.66667  0.33333  0.99983  1
