CIF file written using JARVIS-Tools package.
data_MgNb2
_symmetry_space_group_name_H-M  'Fmmm'
_cell_length_a       2.85399
_cell_length_b       2.85399
_cell_length_c       7.63322
_cell_angle_alpha    76.202
_cell_angle_beta     76.202
_cell_angle_gamma    73.9127

_symmetry_Int_Tables_number  69
_chemical_formula_structural  MgNb2
_chemical_formula_sum  MgNb2
_cell_volume  57.01697305979766
_cell_formula_units_Z  1
loop_
  _symmetry_equiv_pos_site_id
 _symmetry_equiv_pos_as_xyz
 1  'x, y, z'
loop_
 _atom_site_type_symbol
 _atom_site_label
 _atom_site_symmetry_multiplicity
 _atom_site_fract_x
 _atom_site_fract_y
 _atom_site_fract_z
 _atom_site_fract_occupancy
 Mg  Mg1  1  0.00000  0.00000  0.00000  1
 Nb  Nb1  1  0.32757  0.32757  0.34466  1
 Nb  Nb2  1  0.67243  0.67243  0.65534  1
