CIF file written using JARVIS-Tools package.
data_Sc2Cu2O5
_symmetry_space_group_name_H-M  'Pna2_1'
_cell_length_a       3.23174
_cell_length_b       10.543
_cell_length_c       12.1032
_cell_angle_alpha    90
_cell_angle_beta     90
_cell_angle_gamma    90

_symmetry_Int_Tables_number  33
_chemical_formula_structural  Sc2Cu2O5
_chemical_formula_sum  Sc8Cu8O20
_cell_volume  412.38131701174416
_cell_formula_units_Z  4
loop_
  _symmetry_equiv_pos_site_id
 _symmetry_equiv_pos_as_xyz
 1  'x, y, z'
loop_
 _atom_site_type_symbol
 _atom_site_label
 _atom_site_symmetry_multiplicity
 _atom_site_fract_x
 _atom_site_fract_y
 _atom_site_fract_z
 _atom_site_fract_occupancy
 Cu  Cu1  1  0.65508  0.99034  0.39074  1
 Cu  Cu2  1  0.14821  0.23964  0.77860  1
 Cu  Cu3  1  0.64821  0.26036  0.27860  1
 Cu  Cu4  1  0.35179  0.73964  0.77860  1
 Cu  Cu5  1  0.84492  0.49034  0.39074  1
 Cu  Cu6  1  0.85179  0.76036  0.27860  1
 Cu  Cu7  1  0.34492  0.00966  0.89074  1
 Cu  Cu8  1  0.15508  0.50966  0.89074  1
 O  O1  1  0.28262  0.06754  0.73486  1
 O  O2  1  0.78262  0.43246  0.23486  1
 O  O3  1  0.28407  0.83098  0.63581  1
 O  O4  1  0.21593  0.33098  0.63581  1
 O  O5  1  0.21738  0.56754  0.73486  1
 O  O6  1  0.79067  0.37526  0.83463  1
 O  O7  1  0.29067  0.12474  0.33463  1
 O  O8  1  0.70933  0.87526  0.83463  1
 O  O9  1  0.78734  0.81808  0.43484  1
 O  O10  1  0.21266  0.18192  0.93484  1
 O  O11  1  0.71266  0.31808  0.43484  1
 O  O12  1  0.71738  0.93246  0.23486  1
 O  O13  1  0.77271  0.58116  0.53361  1
 O  O14  1  0.71593  0.16902  0.13581  1
 O  O15  1  0.72729  0.08116  0.53361  1
 O  O16  1  0.28734  0.68192  0.93484  1
 O  O17  1  0.27271  0.91884  0.03361  1
 O  O18  1  0.20933  0.62474  0.33463  1
 O  O19  1  0.78407  0.66902  0.13581  1
 O  O20  1  0.22729  0.41884  0.03361  1
 Sc  Sc1  1  0.28200  0.53950  0.16932  1
 Sc  Sc2  1  0.21800  0.03950  0.16932  1
 Sc  Sc3  1  0.78200  0.96050  0.66932  1
 Sc  Sc4  1  0.28178  0.71064  0.49958  1
 Sc  Sc5  1  0.71822  0.28936  0.99958  1
 Sc  Sc6  1  0.21822  0.21064  0.49958  1
 Sc  Sc7  1  0.78178  0.78936  0.99958  1
 Sc  Sc8  1  0.71800  0.46050  0.66932  1
