CIF file written using JARVIS-Tools package.
data_InCu
_symmetry_space_group_name_H-M  'P6_3/mmc'
_cell_length_a       4.23455
_cell_length_b       4.23455
_cell_length_c       4.99047
_cell_angle_alpha    90
_cell_angle_beta     90
_cell_angle_gamma    120.053

_symmetry_Int_Tables_number  194
_chemical_formula_structural  InCu
_chemical_formula_sum  In2Cu2
_cell_volume  77.45602442010895
_cell_formula_units_Z  2
loop_
  _symmetry_equiv_pos_site_id
 _symmetry_equiv_pos_as_xyz
 1  'x, y, z'
loop_
 _atom_site_type_symbol
 _atom_site_label
 _atom_site_symmetry_multiplicity
 _atom_site_fract_x
 _atom_site_fract_y
 _atom_site_fract_z
 _atom_site_fract_occupancy
 Cu  Cu1  1  0.00000  0.00000  0.50000  1
 Cu  Cu2  1  0.00000  0.00000  0.00000  1
 In  In1  1  0.66684  0.33316  0.75000  1
 In  In2  1  0.33316  0.66684  0.25000  1
