CIF file written using JARVIS-Tools package.
data_Mg3V
_symmetry_space_group_name_H-M  'Pmm2'
_cell_length_a       6.20247
_cell_length_b       2.97874
_cell_length_c       4.95597
_cell_angle_alpha    90
_cell_angle_beta     90
_cell_angle_gamma    118.702

_symmetry_Int_Tables_number  25
_chemical_formula_structural  Mg3V
_chemical_formula_sum  Mg3V
_cell_volume  80.31379151334447
_cell_formula_units_Z  1
loop_
  _symmetry_equiv_pos_site_id
 _symmetry_equiv_pos_as_xyz
 1  'x, y, z'
loop_
 _atom_site_type_symbol
 _atom_site_label
 _atom_site_symmetry_multiplicity
 _atom_site_fract_x
 _atom_site_fract_y
 _atom_site_fract_z
 _atom_site_fract_occupancy
 Mg  Mg1  1  0.65428  0.65428  0.25000  1
 Mg  Mg2  1  0.33382  0.33382  0.75000  1
 Mg  Mg3  1  0.85601  0.35601  0.75000  1
 V  V1  1  0.15589  0.65589  0.25000  1
