CIF file written using JARVIS-Tools package.
data_Y2ZnGa
_symmetry_space_group_name_H-M  'C2/m'
_cell_length_a       16.5339
_cell_length_b       9.41625
_cell_length_c       9.41625
_cell_angle_alpha    23.1545
_cell_angle_beta     15.4653
_cell_angle_gamma    15.4654

_symmetry_Int_Tables_number  12
_chemical_formula_structural  Y2ZnGa
_chemical_formula_sum  Y2ZnGa
_cell_volume  103.31565021116097
_cell_formula_units_Z  1
loop_
  _symmetry_equiv_pos_site_id
 _symmetry_equiv_pos_as_xyz
 1  'x, y, z'
loop_
 _atom_site_type_symbol
 _atom_site_label
 _atom_site_symmetry_multiplicity
 _atom_site_fract_x
 _atom_site_fract_y
 _atom_site_fract_z
 _atom_site_fract_occupancy
 Ga  Ga1  1  0.49995  0.00004  0.00004  1
 Y  Y1  1  0.49491  0.17000  0.17000  1
 Y  Y2  1  0.50514  -0.17006  -0.17006  1
 Zn  Zn1  1  -0.00001  0.00002  0.00002  1
