CIF file written using JARVIS-Tools package.
data_HfBiO4
_symmetry_space_group_name_H-M  'P-1'
_cell_length_a       5.46678
_cell_length_b       7.76185
_cell_length_c       7.77901
_cell_angle_alpha    98.1839
_cell_angle_beta     91.3467
_cell_angle_gamma    92.8356

_symmetry_Int_Tables_number  2
_chemical_formula_structural  HfBiO4
_chemical_formula_sum  Hf4Bi4O6
_cell_volume  326.16396710793936
_cell_formula_units_Z  4
loop_
  _symmetry_equiv_pos_site_id
 _symmetry_equiv_pos_as_xyz
 1  'x, y, z'
loop_
 _atom_site_type_symbol
 _atom_site_label
 _atom_site_symmetry_multiplicity
 _atom_site_fract_x
 _atom_site_fract_y
 _atom_site_fract_z
 _atom_site_fract_occupancy
 Bi  Bi1  1  0.27986  0.14638  0.81885  1
 Bi  Bi2  1  0.24263  0.63156  0.86439  1
 Bi  Bi3  1  0.75737  0.36844  0.13561  1
 Bi  Bi4  1  0.72014  0.85362  0.18115  1
 Hf  Hf1  1  0.78202  0.32442  0.63758  1
 Hf  Hf2  1  0.74296  0.82216  0.67241  1
 Hf  Hf3  1  0.25704  0.17784  0.32759  1
 Hf  Hf4  1  0.21798  0.67558  0.36242  1
 O  O1  1  0.99675  0.32285  0.88349  1
 O  O2  1  0.50651  0.38675  0.81202  1
 O  O3  1  0.58964  0.82561  0.91880  1
 O  O4  1  0.49349  0.61325  0.18798  1
 O  O5  1  0.07590  0.90706  0.81149  1
 O  O6  1  0.89511  0.57902  0.67216  1
 O  O7  1  0.61066  0.07116  0.68051  1
 O  O8  1  0.10489  0.42098  0.32784  1
 O  O9  1  0.41466  0.69681  0.58802  1
 O  O10  1  0.90469  0.81645  0.43283  1
 O  O11  1  0.09531  0.18355  0.56717  1
 O  O12  1  0.92410  0.09294  0.18851  1
 O  O13  1  0.38934  0.92884  0.31949  1
 O  O14  1  0.41036  0.17439  0.08120  1
 O  O15  1  0.58534  0.30319  0.41198  1
 O  O16  1  0.00325  0.67715  0.11651  1
