CIF file written using JARVIS-Tools package.
data_MnO2
_symmetry_space_group_name_H-M  'R-3m'
_cell_length_a       2.88146
_cell_length_b       9.04087
_cell_length_c       2.88149
_cell_angle_alpha    90.0002
_cell_angle_beta     59.9995
_cell_angle_gamma    99.1426

_symmetry_Int_Tables_number  166
_chemical_formula_structural  MnO2
_chemical_formula_sum  Mn2O4
_cell_volume  63.90443394671192
_cell_formula_units_Z  2
loop_
  _symmetry_equiv_pos_site_id
 _symmetry_equiv_pos_as_xyz
 1  'x, y, z'
loop_
 _atom_site_type_symbol
 _atom_site_label
 _atom_site_symmetry_multiplicity
 _atom_site_fract_x
 _atom_site_fract_y
 _atom_site_fract_z
 _atom_site_fract_occupancy
 Mn  Mn1  1  0.00004  0.50001  0.49999  1
 Mn  Mn2  1  0.99996  0.99999  0.00001  1
 O  O1  1  0.26206  0.89283  0.36896  1
 O  O2  1  0.40457  0.60714  0.79772  1
 O  O3  1  0.59550  0.39288  0.20225  1
 O  O4  1  0.73786  0.10715  0.63106  1
