CIF file written using JARVIS-Tools package.
data_CeF3
_symmetry_space_group_name_H-M  'P6_3/mcm'
_cell_length_a       7.10927
_cell_length_b       7.10927
_cell_length_c       7.09874
_cell_angle_alpha    90
_cell_angle_beta     90
_cell_angle_gamma    120

_symmetry_Int_Tables_number  193
_chemical_formula_structural  CeF3
_chemical_formula_sum  Ce6F8
_cell_volume  310.715339757905
_cell_formula_units_Z  6
loop_
  _symmetry_equiv_pos_site_id
 _symmetry_equiv_pos_as_xyz
 1  'x, y, z'
loop_
 _atom_site_type_symbol
 _atom_site_label
 _atom_site_symmetry_multiplicity
 _atom_site_fract_x
 _atom_site_fract_y
 _atom_site_fract_z
 _atom_site_fract_occupancy
 Ce  Ce1  1  0.00000  0.32310  0.00000  1
 Ce  Ce2  1  0.67690  1.00000  0.50000  1
 Ce  Ce3  1  0.32310  0.32310  0.50000  1
 Ce  Ce4  1  0.67690  0.67690  0.00000  1
 Ce  Ce5  1  0.32310  0.00000  0.00000  1
 Ce  Ce6  1  1.00000  0.67690  0.50000  1
 F  F1  1  0.34350  0.34342  0.16643  1
 F  F2  1  0.00007  0.34350  0.66643  1
 F  F3  1  0.34342  0.99993  0.66643  1
 F  F4  1  0.65658  0.00007  0.16643  1
 F  F5  1  0.99993  0.65650  0.16643  1
 F  F6  1  0.00000  0.00000  0.25000  1
 F  F7  1  0.00007  0.65658  0.83357  1
 F  F8  1  0.34342  0.34350  0.83357  1
 F  F9  1  0.65658  0.65650  0.33357  1
 F  F10  1  0.34350  0.00007  0.33357  1
 F  F11  1  0.65650  0.65658  0.66643  1
 F  F12  1  0.99993  0.34342  0.33357  1
 F  F13  1  0.66667  0.33333  0.99981  1
 F  F14  1  0.33333  0.66667  0.49981  1
 F  F15  1  0.33333  0.66667  0.00019  1
 F  F16  1  0.66667  0.33333  0.50019  1
 F  F17  1  0.65650  0.99993  0.83357  1
 F  F18  1  0.00000  0.00000  0.75000  1
