CIF file written using JARVIS-Tools package.
data_K3AlO3
_symmetry_space_group_name_H-M  'C2/m'
_cell_length_a       6.46489
_cell_length_b       6.51635
_cell_length_c       6.51635
_cell_angle_alpha    114.911
_cell_angle_beta     96.7232
_cell_angle_gamma    96.7232

_symmetry_Int_Tables_number  12
_chemical_formula_structural  K3AlO3
_chemical_formula_sum  K6Al2O6
_cell_volume  243.0087409288055
_cell_formula_units_Z  2
loop_
  _symmetry_equiv_pos_site_id
 _symmetry_equiv_pos_as_xyz
 1  'x, y, z'
loop_
 _atom_site_type_symbol
 _atom_site_label
 _atom_site_symmetry_multiplicity
 _atom_site_fract_x
 _atom_site_fract_y
 _atom_site_fract_z
 _atom_site_fract_occupancy
 Al  Al1  1  0.85429  0.83665  0.83665  1
 Al  Al2  1  0.14571  0.16335  0.16335  1
 K  K1  1  0.64725  0.37116  0.37116  1
 K  K2  1  0.35275  0.62884  0.62884  1
 K  K3  1  0.50000  0.19491  0.80509  1
 K  K4  1  0.50000  0.80509  0.19491  1
 K  K5  1  -0.00000  0.26713  0.73287  1
 K  K6  1  0.00000  0.73287  0.26713  1
 O  O1  1  0.73716  0.84841  0.58361  1
 O  O2  1  0.26284  0.41639  0.15159  1
 O  O3  1  0.26284  0.15159  0.41639  1
 O  O4  1  0.73716  0.58361  0.84841  1
 O  O5  1  0.14674  0.90057  0.90057  1
 O  O6  1  0.85326  0.09943  0.09943  1
