CIF file written using JARVIS-Tools package.
data_ZnCoSi2O6
_symmetry_space_group_name_H-M  'C2/c'
_cell_length_a       5.27615
_cell_length_b       6.69341
_cell_length_c       6.69341
_cell_angle_alpha    85.8556
_cell_angle_beta     75.6566
_cell_angle_gamma    75.6566

_symmetry_Int_Tables_number  15
_chemical_formula_structural  ZnCoSi2O6
_chemical_formula_sum  Zn2Co2Si4O2
_cell_volume  221.85841559134263
_cell_formula_units_Z  2
loop_
  _symmetry_equiv_pos_site_id
 _symmetry_equiv_pos_as_xyz
 1  'x, y, z'
loop_
 _atom_site_type_symbol
 _atom_site_label
 _atom_site_symmetry_multiplicity
 _atom_site_fract_x
 _atom_site_fract_y
 _atom_site_fract_z
 _atom_site_fract_occupancy
 Co  Co1  1  0.25000  0.09265  0.90735  1
 Co  Co2  1  0.75000  0.90735  0.09265  1
 O  O1  1  0.85235  0.21131  0.03869  1
 O  O2  1  0.48929  0.32469  0.39004  1
 O  O3  1  0.35234  0.03869  0.21131  1
 O  O4  1  0.51071  0.67532  0.60996  1
 O  O5  1  0.98929  0.39004  0.32468  1
 O  O6  1  0.01071  0.60996  0.67532  1
 O  O7  1  0.37398  0.37654  0.86335  1
 O  O8  1  0.87398  0.86335  0.37654  1
 O  O9  1  0.14766  0.78869  0.96131  1
 O  O10  1  0.12602  0.13665  0.62346  1
 O  O11  1  0.64765  0.96131  0.78869  1
 O  O12  1  0.62602  0.62346  0.13665  1
 Si  Si1  1  0.76008  0.78273  0.60923  1
 Si  Si2  1  0.73992  0.39077  0.21727  1
 Si  Si3  1  0.26008  0.60923  0.78273  1
 Si  Si4  1  0.23992  0.21727  0.39077  1
 Zn  Zn1  1  0.25000  0.75791  0.24209  1
 Zn  Zn2  1  0.75000  0.24209  0.75791  1
