CIF file written using JARVIS-Tools package.
data_KFeS2O8
_symmetry_space_group_name_H-M  'C2/m'
_cell_length_a       4.69058
_cell_length_b       4.69058
_cell_length_c       7.72577
_cell_angle_alpha    84.854
_cell_angle_beta     84.854
_cell_angle_gamma    65.7429

_symmetry_Int_Tables_number  12
_chemical_formula_structural  KFeS2O8
_chemical_formula_sum  KFeS2O8
_cell_volume  154.08546208883624
_cell_formula_units_Z  1
loop_
  _symmetry_equiv_pos_site_id
 _symmetry_equiv_pos_as_xyz
 1  'x, y, z'
loop_
 _atom_site_type_symbol
 _atom_site_label
 _atom_site_symmetry_multiplicity
 _atom_site_fract_x
 _atom_site_fract_y
 _atom_site_fract_z
 _atom_site_fract_occupancy
 Fe  Fe1  1  0.00000  0.00000  0.00000  1
 K  K1  1  0.00000  -0.00000  0.50000  1
 O  O1  1  0.24989  0.72649  0.82036  1
 O  O2  1  0.27351  0.75011  0.17964  1
 O  O3  1  0.75011  0.27351  0.17964  1
 O  O4  1  0.72649  0.24989  0.82036  1
 O  O5  1  0.24338  0.24338  0.95594  1
 O  O6  1  0.75662  0.75662  0.04406  1
 O  O7  1  0.31719  0.31719  0.63484  1
 O  O8  1  0.68281  0.68281  0.36516  1
 S  S1  1  0.62338  0.62338  0.19397  1
 S  S2  1  0.37662  0.37662  0.80603  1
