CIF file written using JARVIS-Tools package.
data_K3SbO4
_symmetry_space_group_name_H-M  'P2/c'
_cell_length_a       5.74238
_cell_length_b       7.36332
_cell_length_c       6.56234
_cell_angle_alpha    90
_cell_angle_beta     108.585
_cell_angle_gamma    90

_symmetry_Int_Tables_number  13
_chemical_formula_structural  K3SbO4
_chemical_formula_sum  K6Sb2O8
_cell_volume  263.0060006397836
_cell_formula_units_Z  2
loop_
  _symmetry_equiv_pos_site_id
 _symmetry_equiv_pos_as_xyz
 1  'x, y, z'
loop_
 _atom_site_type_symbol
 _atom_site_label
 _atom_site_symmetry_multiplicity
 _atom_site_fract_x
 _atom_site_fract_y
 _atom_site_fract_z
 _atom_site_fract_occupancy
 K  K1  1  0.25000  0.61169  0.00000  1
 K  K2  1  0.75000  0.38831  0.00000  1
 K  K3  1  0.75000  0.61043  0.50000  1
 K  K4  1  0.25000  0.38957  0.50000  1
 K  K5  1  0.75000  0.89327  0.00000  1
 K  K6  1  0.25000  0.10673  0.00000  1
 O  O1  1  0.00593  0.08940  0.32957  1
 O  O2  1  0.49407  0.08940  0.67043  1
 O  O3  1  0.43222  0.70000  0.71092  1
 O  O4  1  0.06778  0.70000  0.28908  1
 O  O5  1  0.56778  0.30000  0.28908  1
 O  O6  1  0.93222  0.30000  0.71092  1
 O  O7  1  0.99407  0.91060  0.67043  1
 O  O8  1  0.50593  0.91060  0.32957  1
 Sb  Sb1  1  0.25000  0.88437  0.50000  1
 Sb  Sb2  1  0.75000  0.11563  0.50000  1
