CIF file written using JARVIS-Tools package.
data_CaTi2O5
_symmetry_space_group_name_H-M  'Pmmn'
_cell_length_a       3.63258
_cell_length_b       4.89762
_cell_length_c       11.653
_cell_angle_alpha    90
_cell_angle_beta     90
_cell_angle_gamma    90

_symmetry_Int_Tables_number  59
_chemical_formula_structural  CaTi2O5
_chemical_formula_sum  Ca2Ti4O0
_cell_volume  207.31879946277496
_cell_formula_units_Z  2
loop_
  _symmetry_equiv_pos_site_id
 _symmetry_equiv_pos_as_xyz
 1  'x, y, z'
loop_
 _atom_site_type_symbol
 _atom_site_label
 _atom_site_symmetry_multiplicity
 _atom_site_fract_x
 _atom_site_fract_y
 _atom_site_fract_z
 _atom_site_fract_occupancy
 Ca  Ca1  1  0.00000  0.14420  0.00000  1
 Ca  Ca2  1  0.50000  0.85580  0.50000  1
 O  O1  1  0.00000  0.53144  0.50000  1
 O  O2  1  0.50000  0.46856  0.00000  1
 O  O3  1  0.00000  0.47092  0.82619  1
 O  O4  1  0.50000  0.52908  0.67381  1
 O  O5  1  0.00000  0.47092  0.17381  1
 O  O6  1  0.50000  0.52908  0.32619  1
 O  O7  1  0.50000  0.95793  0.12393  1
 O  O8  1  0.00000  0.04207  0.37607  1
 O  O9  1  0.00000  0.04207  0.62393  1
 O  O10  1  0.50000  0.95793  0.87607  1
 Ti  Ti1  1  0.50000  0.61149  0.84731  1
 Ti  Ti2  1  0.00000  0.38851  0.65269  1
 Ti  Ti3  1  0.00000  0.38851  0.34731  1
 Ti  Ti4  1  0.50000  0.61149  0.15269  1
