CIF file written using JARVIS-Tools package.
data_Y2HgRu
_symmetry_space_group_name_H-M  'Immm'
_cell_length_a       15.3795
_cell_length_b       8.89794
_cell_length_c       8.89786
_cell_angle_alpha    29.2264
_cell_angle_beta     17.8472
_cell_angle_gamma    17.8467

_symmetry_Int_Tables_number  71
_chemical_formula_structural  Y2HgRu
_chemical_formula_sum  Y2HgRu
_cell_volume  106.90512060393857
_cell_formula_units_Z  1
loop_
  _symmetry_equiv_pos_site_id
 _symmetry_equiv_pos_as_xyz
 1  'x, y, z'
loop_
 _atom_site_type_symbol
 _atom_site_label
 _atom_site_symmetry_multiplicity
 _atom_site_fract_x
 _atom_site_fract_y
 _atom_site_fract_z
 _atom_site_fract_occupancy
 Hg  Hg1  1  0.50000  -0.00000  0.00000  1
 Ru  Ru1  1  0.00000  0.00000  0.00000  1
 Y  Y1  1  0.02689  0.81540  0.81536  1
 Y  Y2  1  -0.02689  0.18460  0.18464  1
