CIF file written using JARVIS-Tools package.
data_CoO
_symmetry_space_group_name_H-M  'R-3m'
_cell_length_a       2.88822
_cell_length_b       5.43977
_cell_length_c       2.88825
_cell_angle_alpha    90.0006
_cell_angle_beta     120.025
_cell_angle_gamma    74.6172

_symmetry_Int_Tables_number  166
_chemical_formula_structural  CoO
_chemical_formula_sum  Co2O2
_cell_volume  37.39888853158877
_cell_formula_units_Z  2
loop_
  _symmetry_equiv_pos_site_id
 _symmetry_equiv_pos_as_xyz
 1  'x, y, z'
loop_
 _atom_site_type_symbol
 _atom_site_label
 _atom_site_symmetry_multiplicity
 _atom_site_fract_x
 _atom_site_fract_y
 _atom_site_fract_z
 _atom_site_fract_occupancy
 Co  Co1  1  0.99661  0.00111  0.00449  1
 Co  Co2  1  0.99661  0.50111  0.50450  1
 O  O1  1  0.49664  0.25112  0.25448  1
 O  O2  1  0.49660  0.75112  0.75449  1
