CIF file written using JARVIS-Tools package.
data_MnS
_symmetry_space_group_name_H-M  'Fm-3m'
_cell_length_a       3.59568
_cell_length_b       6.22788
_cell_length_c       3.59568
_cell_angle_alpha    106.779
_cell_angle_beta     60
_cell_angle_gamma    106.779

_symmetry_Int_Tables_number  225
_chemical_formula_structural  MnS
_chemical_formula_sum  Mn2S2
_cell_volume  65.74383699047952
_cell_formula_units_Z  2
loop_
  _symmetry_equiv_pos_site_id
 _symmetry_equiv_pos_as_xyz
 1  'x, y, z'
loop_
 _atom_site_type_symbol
 _atom_site_label
 _atom_site_symmetry_multiplicity
 _atom_site_fract_x
 _atom_site_fract_y
 _atom_site_fract_z
 _atom_site_fract_occupancy
 Mn  Mn1  1  0.00000  0.00000  0.00000  1
 Mn  Mn2  1  0.50000  0.50000  0.50000  1
 S  S1  1  0.75000  0.25000  0.75000  1
 S  S2  1  0.25000  0.75000  0.25000  1
