CIF file written using JARVIS-Tools package.
data_LiCuPO4F
_symmetry_space_group_name_H-M  'P-1'
_cell_length_a       5.19432
_cell_length_b       5.18922
_cell_length_c       7.16862
_cell_angle_alpha    104.261
_cell_angle_beta     109.218
_cell_angle_gamma    98.3903

_symmetry_Int_Tables_number  2
_chemical_formula_structural  LiCuPO4F
_chemical_formula_sum  Li2Cu2P2O8F2
_cell_volume  171.3100822588535
_cell_formula_units_Z  2
loop_
  _symmetry_equiv_pos_site_id
 _symmetry_equiv_pos_as_xyz
 1  'x, y, z'
loop_
 _atom_site_type_symbol
 _atom_site_label
 _atom_site_symmetry_multiplicity
 _atom_site_fract_x
 _atom_site_fract_y
 _atom_site_fract_z
 _atom_site_fract_occupancy
 Cu  Cu1  1  0.00000  0.00000  0.00000  1
 Cu  Cu2  1  0.50000  0.50000  0.50000  1
 F  F1  1  0.68469  0.89534  0.74250  1
 F  F2  1  0.31531  0.10466  0.25750  1
 Li  Li1  1  0.43217  0.07578  0.80309  1
 Li  Li2  1  0.56783  0.92422  0.19691  1
 O  O1  1  0.17546  0.31086  0.93075  1
 O  O2  1  0.32893  0.35540  0.66023  1
 O  O3  1  0.67107  0.64460  0.33977  1
 O  O4  1  0.81631  0.35400  0.60012  1
 O  O5  1  0.82454  0.68914  0.06925  1
 O  O6  1  0.18369  0.64600  0.39988  1
 O  O7  1  0.21926  0.77206  0.86795  1
 O  O8  1  0.78074  0.22794  0.13205  1
 P  P1  1  0.87927  0.54365  0.23806  1
 P  P2  1  0.12073  0.45635  0.76194  1
