CIF file written using JARVIS-Tools package.
data_Ti2MnRe
_symmetry_space_group_name_H-M  'Fm-3m'
_cell_length_a       4.31888
_cell_length_b       4.31888
_cell_length_c       4.31888
_cell_angle_alpha    59.9994
_cell_angle_beta     59.9994
_cell_angle_gamma    59.9994

_symmetry_Int_Tables_number  225
_chemical_formula_structural  Ti2MnRe
_chemical_formula_sum  Ti2MnRe
_cell_volume  56.96303348629997
_cell_formula_units_Z  1
loop_
  _symmetry_equiv_pos_site_id
 _symmetry_equiv_pos_as_xyz
 1  'x, y, z'
loop_
 _atom_site_type_symbol
 _atom_site_label
 _atom_site_symmetry_multiplicity
 _atom_site_fract_x
 _atom_site_fract_y
 _atom_site_fract_z
 _atom_site_fract_occupancy
 Mn  Mn1  1  0.25000  0.25000  0.25000  1
 Re  Re1  1  0.75000  0.75000  0.75000  1
 Ti  Ti1  1  -0.00000  -0.00000  -0.00000  1
 Ti  Ti2  1  0.50001  0.50001  0.50001  1
