CIF file written using JARVIS-Tools package.
data_KHg2Bi
_symmetry_space_group_name_H-M  'C2/m'
_cell_length_a       13.1996
_cell_length_b       7.95994
_cell_length_c       7.95994
_cell_angle_alpha    47.7797
_cell_angle_beta     26.7478
_cell_angle_gamma    26.7478

_symmetry_Int_Tables_number  12
_chemical_formula_structural  KHg2Bi
_chemical_formula_sum  KHg2Bi
_cell_volume  132.9989618188569
_cell_formula_units_Z  1
loop_
  _symmetry_equiv_pos_site_id
 _symmetry_equiv_pos_as_xyz
 1  'x, y, z'
loop_
 _atom_site_type_symbol
 _atom_site_label
 _atom_site_symmetry_multiplicity
 _atom_site_fract_x
 _atom_site_fract_y
 _atom_site_fract_z
 _atom_site_fract_occupancy
 Bi  Bi1  1  0.50000  -0.00000  0.00000  1
 Hg  Hg1  1  0.91824  0.82998  0.82998  1
 Hg  Hg2  1  0.08176  0.17002  0.17002  1
 K  K1  1  0.00000  0.00000  0.00000  1
