CIF file written using JARVIS-Tools package.
data_TlF
_symmetry_space_group_name_H-M  'P4/nmm'
_cell_length_a       3.7664
_cell_length_b       3.7664
_cell_length_c       6.11409
_cell_angle_alpha    90
_cell_angle_beta     90
_cell_angle_gamma    90

_symmetry_Int_Tables_number  129
_chemical_formula_structural  TlF
_chemical_formula_sum  Tl2F2
_cell_volume  86.73327233615355
_cell_formula_units_Z  2
loop_
  _symmetry_equiv_pos_site_id
 _symmetry_equiv_pos_as_xyz
 1  'x, y, z'
loop_
 _atom_site_type_symbol
 _atom_site_label
 _atom_site_symmetry_multiplicity
 _atom_site_fract_x
 _atom_site_fract_y
 _atom_site_fract_z
 _atom_site_fract_occupancy
 F  F1  1  0.25000  0.25000  0.85123  1
 F  F2  1  0.75000  0.75000  0.14877  1
 Tl  Tl1  1  0.75000  0.75000  0.74269  1
 Tl  Tl2  1  0.25000  0.25000  0.25731  1
