CIF file written using JARVIS-Tools package.
data_NiBrO
_symmetry_space_group_name_H-M  'P4/mmm'
_cell_length_a       2.79584
_cell_length_b       3.95327
_cell_length_c       5.86126
_cell_angle_alpha    90.0064
_cell_angle_beta     89.9948
_cell_angle_gamma    135.029

_symmetry_Int_Tables_number  123
_chemical_formula_structural  NiBrO
_chemical_formula_sum  NiBrO
_cell_volume  45.7851217240377
_cell_formula_units_Z  1
loop_
  _symmetry_equiv_pos_site_id
 _symmetry_equiv_pos_as_xyz
 1  'x, y, z'
loop_
 _atom_site_type_symbol
 _atom_site_label
 _atom_site_symmetry_multiplicity
 _atom_site_fract_x
 _atom_site_fract_y
 _atom_site_fract_z
 _atom_site_fract_occupancy
 Br  Br1  1  1.00000  0.50000  0.50011  1
 Ni  Ni1  1  -0.00001  0.50000  0.00014  1
 O  O1  1  0.00001  0.00000  0.00012  1
