CIF file written using JARVIS-Tools package.
data_WF4
_symmetry_space_group_name_H-M  'P-1'
_cell_length_a       4.73801
_cell_length_b       6.16298
_cell_length_c       5.68428
_cell_angle_alpha    123.557
_cell_angle_beta     90.4497
_cell_angle_gamma    90.0252

_symmetry_Int_Tables_number  2
_chemical_formula_structural  WF4
_chemical_formula_sum  W2F8
_cell_volume  138.31302945361398
_cell_formula_units_Z  2
loop_
  _symmetry_equiv_pos_site_id
 _symmetry_equiv_pos_as_xyz
 1  'x, y, z'
loop_
 _atom_site_type_symbol
 _atom_site_label
 _atom_site_symmetry_multiplicity
 _atom_site_fract_x
 _atom_site_fract_y
 _atom_site_fract_z
 _atom_site_fract_occupancy
 F  F1  1  0.75067  0.31457  0.12813  1
 F  F2  1  0.78433  0.32617  0.66133  1
 F  F3  1  0.24625  0.68395  0.86938  1
 F  F4  1  0.24975  0.18506  0.86986  1
 F  F5  1  0.21253  0.67241  0.33619  1
 F  F6  1  0.28624  0.17054  0.33341  1
 F  F7  1  0.74719  0.81344  0.12763  1
 F  F8  1  0.71076  0.82802  0.66408  1
 W  W1  1  -0.00154  0.49924  -0.00126  1
 W  W2  1  0.49847  -0.00076  -0.00127  1
