CIF file written using JARVIS-Tools package.
data_CeRh
_symmetry_space_group_name_H-M  'Cmcm'
_cell_length_a       3.84323
_cell_length_b       4.03709
_cell_length_c       5.94715
_cell_angle_alpha    90
_cell_angle_beta     108.851
_cell_angle_gamma    90

_symmetry_Int_Tables_number  63
_chemical_formula_structural  CeRh
_chemical_formula_sum  Ce2Rh2
_cell_volume  87.3232423488749
_cell_formula_units_Z  2
loop_
  _symmetry_equiv_pos_site_id
 _symmetry_equiv_pos_as_xyz
 1  'x, y, z'
loop_
 _atom_site_type_symbol
 _atom_site_label
 _atom_site_symmetry_multiplicity
 _atom_site_fract_x
 _atom_site_fract_y
 _atom_site_fract_z
 _atom_site_fract_occupancy
 Ce  Ce1  1  0.86315  0.75000  0.72630  1
 Ce  Ce2  1  0.13685  0.25000  0.27370  1
 Rh  Rh1  1  0.59812  0.75000  0.19623  1
 Rh  Rh2  1  0.40188  0.25000  0.80377  1
