CIF file written using JARVIS-Tools package.
data_KNaSe
_symmetry_space_group_name_H-M  'Pnma'
_cell_length_a       4.8007
_cell_length_b       8.0366
_cell_length_c       8.64024
_cell_angle_alpha    90
_cell_angle_beta     90
_cell_angle_gamma    90

_symmetry_Int_Tables_number  62
_chemical_formula_structural  KNaSe
_chemical_formula_sum  K4Na4Se4
_cell_volume  333.35166701149984
_cell_formula_units_Z  4
loop_
  _symmetry_equiv_pos_site_id
 _symmetry_equiv_pos_as_xyz
 1  'x, y, z'
loop_
 _atom_site_type_symbol
 _atom_site_label
 _atom_site_symmetry_multiplicity
 _atom_site_fract_x
 _atom_site_fract_y
 _atom_site_fract_z
 _atom_site_fract_occupancy
 K  K1  1  0.75000  0.51235  0.68521  1
 K  K2  1  0.75000  0.01235  0.81479  1
 K  K3  1  0.25000  0.48765  0.31479  1
 K  K4  1  0.25000  0.98765  0.18521  1
 Na  Na1  1  0.75000  0.14681  0.42507  1
 Na  Na2  1  0.25000  0.85319  0.57493  1
 Na  Na3  1  0.25000  0.35319  0.92507  1
 Na  Na4  1  0.75000  0.64681  0.07493  1
 Se  Se1  1  0.75000  0.77917  0.39447  1
 Se  Se2  1  0.25000  0.22083  0.60553  1
 Se  Se3  1  0.75000  0.27917  0.10553  1
 Se  Se4  1  0.25000  0.72083  0.89447  1
