CIF file written using JARVIS-Tools package.
data_MoH2O4
_symmetry_space_group_name_H-M  'P-1'
_cell_length_a       3.70431
_cell_length_b       6.4272
_cell_length_c       7.24662
_cell_angle_alpha    68.5134
_cell_angle_beta     84.9271
_cell_angle_gamma    77.184

_symmetry_Int_Tables_number  2
_chemical_formula_structural  MoH2O4
_chemical_formula_sum  Mo2H4O8
_cell_volume  156.53521391237234
_cell_formula_units_Z  2
loop_
  _symmetry_equiv_pos_site_id
 _symmetry_equiv_pos_as_xyz
 1  'x, y, z'
loop_
 _atom_site_type_symbol
 _atom_site_label
 _atom_site_symmetry_multiplicity
 _atom_site_fract_x
 _atom_site_fract_y
 _atom_site_fract_z
 _atom_site_fract_occupancy
 H  H1  1  0.52215  0.76639  0.67788  1
 H  H2  1  0.22054  0.66935  0.83866  1
 H  H3  1  0.77946  0.33065  0.16134  1
 H  H4  1  0.47785  0.23361  0.32212  1
 Mo  Mo1  1  0.22416  0.15423  0.79326  1
 Mo  Mo2  1  0.77584  0.84577  0.20674  1
 O  O1  1  0.25263  0.24714  0.54002  1
 O  O2  1  0.74737  0.75286  0.45998  1
 O  O3  1  0.25294  0.93541  0.13137  1
 O  O4  1  0.74706  0.06459  0.86863  1
 O  O5  1  0.11496  0.40285  0.84072  1
 O  O6  1  0.88504  0.59715  0.15928  1
 O  O7  1  0.36420  0.79194  0.78874  1
 O  O8  1  0.63580  0.20806  0.21126  1
