CIF file written using JARVIS-Tools package.
data_NbNO
_symmetry_space_group_name_H-M  'P2_1/c'
_cell_length_a       5.04038
_cell_length_b       5.10191
_cell_length_c       5.26543
_cell_angle_alpha    90
_cell_angle_beta     99.6522
_cell_angle_gamma    90

_symmetry_Int_Tables_number  14
_chemical_formula_structural  NbNO
_chemical_formula_sum  Nb4N4O4
_cell_volume  133.4866078934409
_cell_formula_units_Z  4
loop_
  _symmetry_equiv_pos_site_id
 _symmetry_equiv_pos_as_xyz
 1  'x, y, z'
loop_
 _atom_site_type_symbol
 _atom_site_label
 _atom_site_symmetry_multiplicity
 _atom_site_fract_x
 _atom_site_fract_y
 _atom_site_fract_z
 _atom_site_fract_occupancy
 N  N1  1  0.55757  0.25488  0.02355  1
 N  N2  1  0.44243  0.75488  0.47645  1
 N  N3  1  0.44243  0.74512  0.97645  1
 N  N4  1  0.55757  0.24512  0.52355  1
 Nb  Nb1  1  0.70672  0.54761  0.28048  1
 Nb  Nb2  1  0.29328  0.04761  0.21952  1
 Nb  Nb3  1  0.29328  0.45239  0.71952  1
 Nb  Nb4  1  0.70672  0.95239  0.78048  1
 O  O1  1  0.93788  0.67598  0.65161  1
 O  O2  1  0.06212  0.17598  0.84839  1
 O  O3  1  0.06212  0.32402  0.34839  1
 O  O4  1  0.93788  0.82402  0.15161  1
