CIF file written using JARVIS-Tools package.
data_Rb2SiS3
_symmetry_space_group_name_H-M  'C2/m'
_cell_length_a       6.83964
_cell_length_b       7.44041
_cell_length_c       8.59278
_cell_angle_alpha    72.4561
_cell_angle_beta     66.5475
_cell_angle_gamma    62.6369

_symmetry_Int_Tables_number  12
_chemical_formula_structural  Rb2SiS3
_chemical_formula_sum  Rb4Si2S6
_cell_volume  352.48607285833623
_cell_formula_units_Z  2
loop_
  _symmetry_equiv_pos_site_id
 _symmetry_equiv_pos_as_xyz
 1  'x, y, z'
loop_
 _atom_site_type_symbol
 _atom_site_label
 _atom_site_symmetry_multiplicity
 _atom_site_fract_x
 _atom_site_fract_y
 _atom_site_fract_z
 _atom_site_fract_occupancy
 Rb  Rb1  1  0.80378  0.57927  0.81318  1
 Rb  Rb2  1  0.19622  0.42073  0.18682  1
 Rb  Rb3  1  0.58042  0.20089  0.63827  1
 Rb  Rb4  1  0.41958  0.79911  0.36173  1
 S  S1  1  0.23823  -0.00000  0.00000  1
 S  S2  1  0.76177  0.00000  -0.00000  1
 S  S3  1  0.88847  0.82734  0.39572  1
 S  S4  1  0.11153  0.17266  0.60428  1
 S  S5  1  0.70988  0.35751  0.22273  1
 S  S6  1  0.29012  0.64249  0.77727  1
 Si  Si1  1  0.11637  0.94772  0.81954  1
 Si  Si2  1  0.88363  0.05228  0.18046  1
