CIF file written using JARVIS-Tools package.
data_BiO2
_symmetry_space_group_name_H-M  'Ibam'
_cell_length_a       8.46343
_cell_length_b       8.46342
_cell_length_c       8.46342
_cell_angle_alpha    53.8263
_cell_angle_beta     135.257
_cell_angle_gamma    151.638

_symmetry_Int_Tables_number  72
_chemical_formula_structural  BiO2
_chemical_formula_sum  Bi4O8
_cell_volume  201.62112511797832
_cell_formula_units_Z  4
loop_
  _symmetry_equiv_pos_site_id
 _symmetry_equiv_pos_as_xyz
 1  'x, y, z'
loop_
 _atom_site_type_symbol
 _atom_site_label
 _atom_site_symmetry_multiplicity
 _atom_site_fract_x
 _atom_site_fract_y
 _atom_site_fract_z
 _atom_site_fract_occupancy
 Bi  Bi1  1  0.27312  0.61012  0.88324  1
 Bi  Bi2  1  0.77312  0.88988  0.66300  1
 Bi  Bi3  1  0.22688  0.11012  0.33700  1
 Bi  Bi4  1  0.72688  0.38988  0.11676  1
 O  O1  1  0.29318  0.75238  0.04556  1
 O  O2  1  0.11244  0.91706  0.02949  1
 O  O3  1  0.38756  0.41706  0.80462  1
 O  O4  1  0.79318  0.74762  0.54080  1
 O  O5  1  0.70682  0.24762  0.95444  1
 O  O6  1  0.88756  0.08294  0.97051  1
 O  O7  1  0.61244  0.58294  0.19538  1
 O  O8  1  0.20682  0.25238  0.45920  1
