CIF file written using JARVIS-Tools package.
data_PPdSe
_symmetry_space_group_name_H-M  'Pbcn'
_cell_length_a       5.89915
_cell_length_b       5.9367
_cell_length_c       13.897
_cell_angle_alpha    90
_cell_angle_beta     90
_cell_angle_gamma    90

_symmetry_Int_Tables_number  60
_chemical_formula_structural  PPdSe
_chemical_formula_sum  P8Pd8Se8
_cell_volume  486.69213794508903
_cell_formula_units_Z  8
loop_
  _symmetry_equiv_pos_site_id
 _symmetry_equiv_pos_as_xyz
 1  'x, y, z'
loop_
 _atom_site_type_symbol
 _atom_site_label
 _atom_site_symmetry_multiplicity
 _atom_site_fract_x
 _atom_site_fract_y
 _atom_site_fract_z
 _atom_site_fract_occupancy
 P  P1  1  0.62383  0.28705  0.57837  1
 P  P2  1  0.62383  0.21295  0.42163  1
 P  P3  1  0.87617  0.78705  0.92163  1
 P  P4  1  0.87617  0.71295  0.07837  1
 P  P5  1  0.37617  0.71295  0.42163  1
 P  P6  1  0.37617  0.78705  0.57837  1
 P  P7  1  0.12383  0.21295  0.07837  1
 P  P8  1  0.12383  0.28705  0.92163  1
 Pd  Pd1  1  0.75930  0.15498  0.89133  1
 Pd  Pd2  1  0.75930  0.34502  0.10867  1
 Pd  Pd3  1  0.74070  0.65498  0.60867  1
 Pd  Pd4  1  0.74070  0.84502  0.39133  1
 Pd  Pd5  1  0.24070  0.84502  0.10867  1
 Pd  Pd6  1  0.24070  0.65498  0.89133  1
 Pd  Pd7  1  0.25930  0.34502  0.39133  1
 Pd  Pd8  1  0.25930  0.15498  0.60867  1
 Se  Se1  1  0.36610  0.04031  0.84352  1
 Se  Se2  1  0.36610  0.45969  0.15648  1
 Se  Se3  1  0.13390  0.54031  0.65648  1
 Se  Se4  1  0.13390  0.95969  0.34352  1
 Se  Se5  1  0.63390  0.95969  0.15648  1
 Se  Se6  1  0.63390  0.54031  0.84352  1
 Se  Se7  1  0.86610  0.45969  0.34352  1
 Se  Se8  1  0.86610  0.04031  0.65648  1
