CIF file written using JARVIS-Tools package.
data_Ca2CdHg
_symmetry_space_group_name_H-M  'Immm'
_cell_length_a       13.0326
_cell_length_b       5.34157
_cell_length_c       9.19683
_cell_angle_alpha    29.9417
_cell_angle_beta     19.5495
_cell_angle_gamma    35.1789

_symmetry_Int_Tables_number  71
_chemical_formula_structural  Ca2CdHg
_chemical_formula_sum  Ca2CdHg
_cell_volume  106.92801989452914
_cell_formula_units_Z  1
loop_
  _symmetry_equiv_pos_site_id
 _symmetry_equiv_pos_as_xyz
 1  'x, y, z'
loop_
 _atom_site_type_symbol
 _atom_site_label
 _atom_site_symmetry_multiplicity
 _atom_site_fract_x
 _atom_site_fract_y
 _atom_site_fract_z
 _atom_site_fract_occupancy
 Ca  Ca1  1  0.74985  -0.00036  0.00036  1
 Ca  Ca2  1  0.25015  0.00036  -0.00036  1
 Cd  Cd1  1  0.00000  0.00000  0.00000  1
 Hg  Hg1  1  0.50000  -0.00000  0.00000  1
