CIF file written using JARVIS-Tools package.
data_NaClO4
_symmetry_space_group_name_H-M  'Pnma'
_cell_length_a       5.48321
_cell_length_b       7.05757
_cell_length_c       7.80315
_cell_angle_alpha    90
_cell_angle_beta     90
_cell_angle_gamma    90

_symmetry_Int_Tables_number  62
_chemical_formula_structural  NaClO4
_chemical_formula_sum  Na4Cl4O6
_cell_volume  301.9670967082646
_cell_formula_units_Z  4
loop_
  _symmetry_equiv_pos_site_id
 _symmetry_equiv_pos_as_xyz
 1  'x, y, z'
loop_
 _atom_site_type_symbol
 _atom_site_label
 _atom_site_symmetry_multiplicity
 _atom_site_fract_x
 _atom_site_fract_y
 _atom_site_fract_z
 _atom_site_fract_occupancy
 Cl  Cl1  1  0.75000  0.82148  0.44855  1
 Cl  Cl2  1  0.75000  0.67852  0.94855  1
 Cl  Cl3  1  0.25000  0.17852  0.55145  1
 Cl  Cl4  1  0.25000  0.32148  0.05145  1
 Na  Na1  1  0.75000  0.19276  0.80456  1
 Na  Na2  1  0.75000  0.30724  0.30456  1
 Na  Na3  1  0.25000  0.80724  0.19544  1
 Na  Na4  1  0.25000  0.69276  0.69544  1
 O  O1  1  0.75000  0.57033  0.10589  1
 O  O2  1  0.03241  0.20171  0.05718  1
 O  O3  1  0.53241  0.79829  0.94282  1
 O  O4  1  0.96759  0.79829  0.94282  1
 O  O5  1  0.46759  0.20171  0.05718  1
 O  O6  1  0.03241  0.29829  0.55718  1
 O  O7  1  0.25000  0.42967  0.89411  1
 O  O8  1  0.75000  0.92967  0.60589  1
 O  O9  1  0.96759  0.70171  0.44282  1
 O  O10  1  0.25000  0.07033  0.39411  1
 O  O11  1  0.75000  0.55272  0.80085  1
 O  O12  1  0.46759  0.29829  0.55718  1
 O  O13  1  0.75000  0.94728  0.30085  1
 O  O14  1  0.25000  0.44728  0.19915  1
 O  O15  1  0.25000  0.05272  0.69915  1
 O  O16  1  0.53241  0.70171  0.44282  1
