CIF file written using JARVIS-Tools package.
data_Rb4CO4
_symmetry_space_group_name_H-M  'P-43m'
_cell_length_a       5.60787
_cell_length_b       5.60787
_cell_length_c       5.60788
_cell_angle_alpha    89.9722
_cell_angle_beta     89.9744
_cell_angle_gamma    89.9763

_symmetry_Int_Tables_number  215
_chemical_formula_structural  Rb4CO4
_chemical_formula_sum  Rb4CO4
_cell_volume  176.35778009263882
_cell_formula_units_Z  1
loop_
  _symmetry_equiv_pos_site_id
 _symmetry_equiv_pos_as_xyz
 1  'x, y, z'
loop_
 _atom_site_type_symbol
 _atom_site_label
 _atom_site_symmetry_multiplicity
 _atom_site_fract_x
 _atom_site_fract_y
 _atom_site_fract_z
 _atom_site_fract_occupancy
 C  C1  1  0.20460  0.20459  0.20458  1
 O  O1  1  0.35367  0.35369  0.05539  1
 O  O2  1  0.35369  0.05540  0.35366  1
 O  O3  1  0.05541  0.35365  0.35367  1
 O  O4  1  0.05554  0.05554  0.05553  1
 Rb  Rb1  1  0.48854  0.48856  0.48856  1
 Rb  Rb2  1  0.48837  0.92034  0.92026  1
 Rb  Rb3  1  0.92034  0.92027  0.48838  1
 Rb  Rb4  1  0.92024  0.48838  0.92036  1
