CIF file written using JARVIS-Tools package.
data_MnH4O2F4
_symmetry_space_group_name_H-M  'C2/c'
_cell_length_a       5.03745
_cell_length_b       6.96144
_cell_length_c       7.17779
_cell_angle_alpha    94.0387
_cell_angle_beta     110.543
_cell_angle_gamma    68.7886

_symmetry_Int_Tables_number  15
_chemical_formula_structural  MnH4O2F4
_chemical_formula_sum  Mn2H8O4F8
_cell_volume  219.27474371180955
_cell_formula_units_Z  2
loop_
  _symmetry_equiv_pos_site_id
 _symmetry_equiv_pos_as_xyz
 1  'x, y, z'
loop_
 _atom_site_type_symbol
 _atom_site_label
 _atom_site_symmetry_multiplicity
 _atom_site_fract_x
 _atom_site_fract_y
 _atom_site_fract_z
 _atom_site_fract_occupancy
 F  F1  1  0.23116  0.00085  0.77452  1
 F  F2  1  0.76410  0.49914  0.72546  1
 F  F3  1  0.08727  0.37881  0.16545  1
 F  F4  1  0.53778  0.50086  0.27454  1
 F  F5  1  0.30063  0.62119  0.83455  1
 F  F6  1  0.69464  0.87880  0.66543  1
 F  F7  1  0.90801  0.12120  0.33457  1
 F  F8  1  0.45750  0.99915  0.22548  1
 H  H1  1  0.10804  0.89947  0.41553  1
 H  H2  1  0.64037  0.82622  0.10997  1
 H  H3  1  0.35489  0.67379  0.39003  1
 H  H4  1  0.40328  0.39947  0.91553  1
 H  H5  1  0.88722  0.60053  0.08447  1
 H  H6  1  0.63865  0.32621  0.60997  1
 H  H7  1  0.35662  0.17378  0.89003  1
 H  H8  1  0.59199  0.10053  0.58447  1
 Mn  Mn1  1  0.49764  0.75000  0.75000  1
 Mn  Mn2  1  0.49764  0.25000  0.25000  1
 O  O1  1  0.23775  0.75363  0.47627  1
 O  O2  1  0.48016  0.25363  0.97626  1
 O  O3  1  0.75752  0.74637  0.02374  1
 O  O4  1  0.51511  0.24637  0.52373  1
