CIF file written using JARVIS-Tools package.
data_SrMg3
_symmetry_space_group_name_H-M  'Pmm2'
_cell_length_a       7.29139
_cell_length_b       3.60785
_cell_length_c       5.29768
_cell_angle_alpha    90
_cell_angle_beta     90
_cell_angle_gamma    119.657

_symmetry_Int_Tables_number  25
_chemical_formula_structural  SrMg3
_chemical_formula_sum  SrMg3
_cell_volume  121.1060293163615
_cell_formula_units_Z  1
loop_
  _symmetry_equiv_pos_site_id
 _symmetry_equiv_pos_as_xyz
 1  'x, y, z'
loop_
 _atom_site_type_symbol
 _atom_site_label
 _atom_site_symmetry_multiplicity
 _atom_site_fract_x
 _atom_site_fract_y
 _atom_site_fract_z
 _atom_site_fract_occupancy
 Mg  Mg1  1  0.65797  0.65797  0.25000  1
 Mg  Mg2  1  0.38367  0.38367  0.75000  1
 Mg  Mg3  1  0.79618  0.29618  0.75000  1
 Sr  Sr1  1  0.16219  0.66219  0.25000  1
