CIF file written using JARVIS-Tools package.
data_MgMoF5
_symmetry_space_group_name_H-M  'C2/c'
_cell_length_a       5.38405
_cell_length_b       5.38406
_cell_length_c       7.65013
_cell_angle_alpha    97.4693
_cell_angle_beta     111.828
_cell_angle_gamma    106.677

_symmetry_Int_Tables_number  15
_chemical_formula_structural  MgMoF5
_chemical_formula_sum  Mg2Mo2F0
_cell_volume  190.08979513575946
_cell_formula_units_Z  2
loop_
  _symmetry_equiv_pos_site_id
 _symmetry_equiv_pos_as_xyz
 1  'x, y, z'
loop_
 _atom_site_type_symbol
 _atom_site_label
 _atom_site_symmetry_multiplicity
 _atom_site_fract_x
 _atom_site_fract_y
 _atom_site_fract_z
 _atom_site_fract_occupancy
 F  F1  1  0.39119  0.14119  0.25000  1
 F  F2  1  0.60881  0.85881  0.75000  1
 F  F3  1  0.56367  0.69676  0.35508  1
 F  F4  1  0.84168  0.20859  0.14492  1
 F  F5  1  0.75918  0.66849  0.04935  1
 F  F6  1  0.11914  0.70983  0.45065  1
 F  F7  1  0.24082  0.33151  0.95065  1
 F  F8  1  0.88086  0.29017  0.54935  1
 F  F9  1  0.15832  0.79141  0.85508  1
 F  F10  1  0.43633  0.30324  0.64492  1
 Mg  Mg1  1  0.27184  0.52184  0.75000  1
 Mg  Mg2  1  0.72816  0.47816  0.25000  1
 Mo  Mo1  1  0.00000  0.00000  0.00000  1
 Mo  Mo2  1  0.50000  -0.00000  0.50000  1
