CIF file written using JARVIS-Tools package.
data_LiMg2
_symmetry_space_group_name_H-M  'I4/mmm'
_cell_length_a       3.44645
_cell_length_b       5.7682
_cell_length_c       3.44717
_cell_angle_alpha    72.6161
_cell_angle_beta     90
_cell_angle_gamma    107.382

_symmetry_Int_Tables_number  139
_chemical_formula_structural  LiMg2
_chemical_formula_sum  LiMg2
_cell_volume  62.11186278412052
_cell_formula_units_Z  1
loop_
  _symmetry_equiv_pos_site_id
 _symmetry_equiv_pos_as_xyz
 1  'x, y, z'
loop_
 _atom_site_type_symbol
 _atom_site_label
 _atom_site_symmetry_multiplicity
 _atom_site_fract_x
 _atom_site_fract_y
 _atom_site_fract_z
 _atom_site_fract_occupancy
 Li  Li1  1  0.69492  0.38983  0.21340  1
 Mg  Mg1  1  0.03643  0.07285  0.87201  1
 Mg  Mg2  1  0.35338  0.70675  0.55497  1
