CIF file written using JARVIS-Tools package.
data_Cd2GaAgS4
_symmetry_space_group_name_H-M  'Pmn2_1'
_cell_length_a       6.67973
_cell_length_b       6.96178
_cell_length_c       8.18908
_cell_angle_alpha    90
_cell_angle_beta     90
_cell_angle_gamma    90

_symmetry_Int_Tables_number  31
_chemical_formula_structural  Cd2GaAgS4
_chemical_formula_sum  Cd4Ga2Ag2S8
_cell_volume  380.81554040200274
_cell_formula_units_Z  2
loop_
  _symmetry_equiv_pos_site_id
 _symmetry_equiv_pos_as_xyz
 1  'x, y, z'
loop_
 _atom_site_type_symbol
 _atom_site_label
 _atom_site_symmetry_multiplicity
 _atom_site_fract_x
 _atom_site_fract_y
 _atom_site_fract_z
 _atom_site_fract_occupancy
 Ag  Ag1  1  0.98986  0.34100  0.50000  1
 Ag  Ag2  1  0.48986  0.65900  0.00000  1
 Cd  Cd1  1  0.48643  0.17544  0.25261  1
 Cd  Cd2  1  0.98643  0.82456  0.75261  1
 Cd  Cd3  1  0.48643  0.17544  0.74739  1
 Cd  Cd4  1  0.98643  0.82456  0.24739  1
 Ga  Ga1  1  0.49112  0.67694  0.50000  1
 Ga  Ga2  1  0.99112  0.32306  0.00000  1
 S  S1  1  0.10794  0.63453  0.00000  1
 S  S2  1  0.60794  0.36547  0.50000  1
 S  S3  1  0.14646  0.67770  0.50000  1
 S  S4  1  0.64646  0.32230  0.00000  1
 S  S5  1  0.60376  0.82471  0.26559  1
 S  S6  1  0.10376  0.17529  0.76559  1
 S  S7  1  0.10376  0.17529  0.23441  1
 S  S8  1  0.60376  0.82471  0.73441  1
