CIF file written using JARVIS-Tools package.
data_InPO4
_symmetry_space_group_name_H-M  'Pnma'
_cell_length_a       4.8499
_cell_length_b       6.96652
_cell_length_c       8.99393
_cell_angle_alpha    90
_cell_angle_beta     90
_cell_angle_gamma    90

_symmetry_Int_Tables_number  62
_chemical_formula_structural  InPO4
_chemical_formula_sum  In4P4O6
_cell_volume  303.87718296259055
_cell_formula_units_Z  4
loop_
  _symmetry_equiv_pos_site_id
 _symmetry_equiv_pos_as_xyz
 1  'x, y, z'
loop_
 _atom_site_type_symbol
 _atom_site_label
 _atom_site_symmetry_multiplicity
 _atom_site_fract_x
 _atom_site_fract_y
 _atom_site_fract_z
 _atom_site_fract_occupancy
 In  In1  1  0.50000  0.50000  0.50000  1
 In  In2  1  0.00000  0.50000  0.00000  1
 In  In3  1  0.50000  0.00000  0.50000  1
 In  In4  1  0.00000  0.00000  0.00000  1
 O  O1  1  0.15205  0.43671  0.37434  1
 O  O2  1  0.65205  0.56329  0.12566  1
 O  O3  1  0.84795  0.93671  0.62566  1
 O  O4  1  0.45841  0.25000  0.64731  1
 O  O5  1  0.84795  0.56329  0.62566  1
 O  O6  1  0.34795  0.43671  0.87434  1
 O  O7  1  0.34795  0.06329  0.87434  1
 O  O8  1  0.65205  0.93671  0.12566  1
 O  O9  1  0.21016  0.75000  0.12356  1
 O  O10  1  0.78984  0.25000  0.87644  1
 O  O11  1  0.15205  0.06329  0.37434  1
 O  O12  1  0.28984  0.75000  0.62356  1
 O  O13  1  0.54159  0.75000  0.35269  1
 O  O14  1  0.04159  0.25000  0.14731  1
 O  O15  1  0.71016  0.25000  0.37644  1
 O  O16  1  0.95841  0.75000  0.85269  1
 P  P1  1  0.51740  0.75000  0.17757  1
 P  P2  1  0.01740  0.25000  0.32243  1
 P  P3  1  0.48260  0.25000  0.82243  1
 P  P4  1  0.98260  0.75000  0.67757  1
