CIF file written using JARVIS-Tools package.
data_Li2NbOF5
_symmetry_space_group_name_H-M  'Cm'
_cell_length_a       4.97279
_cell_length_b       4.97923
_cell_length_c       4.59965
_cell_angle_alpha    90.6313
_cell_angle_beta     89.6844
_cell_angle_gamma    120.042

_symmetry_Int_Tables_number  8
_chemical_formula_structural  Li2NbOF5
_chemical_formula_sum  Li2NbOF5
_cell_volume  98.58406526929049
_cell_formula_units_Z  1
loop_
  _symmetry_equiv_pos_site_id
 _symmetry_equiv_pos_as_xyz
 1  'x, y, z'
loop_
 _atom_site_type_symbol
 _atom_site_label
 _atom_site_symmetry_multiplicity
 _atom_site_fract_x
 _atom_site_fract_y
 _atom_site_fract_z
 _atom_site_fract_occupancy
 F  F1  1  -0.00000  0.32437  0.25799  1
 F  F2  1  0.32650  0.33178  0.75636  1
 F  F3  1  0.32562  0.00862  0.25700  1
 F  F4  1  0.67438  0.68301  0.25699  1
 F  F5  1  0.67349  0.00528  0.75636  1
 Li  Li1  1  0.31930  0.65302  0.49191  1
 Li  Li2  1  0.68070  0.33372  0.49191  1
 Nb  Nb1  1  -0.00000  0.97488  0.98021  1
 O  O1  1  1.00000  0.68533  0.75126  1
