CIF file written using JARVIS-Tools package.
data_BaSb2
_symmetry_space_group_name_H-M  'Cmmm'
_cell_length_a       4.68093
_cell_length_b       5.25702
_cell_length_c       5.25702
_cell_angle_alpha    121.719
_cell_angle_beta     89.9999
_cell_angle_gamma    89.9999

_symmetry_Int_Tables_number  65
_chemical_formula_structural  BaSb2
_chemical_formula_sum  BaSb2
_cell_volume  110.0417118042502
_cell_formula_units_Z  1
loop_
  _symmetry_equiv_pos_site_id
 _symmetry_equiv_pos_as_xyz
 1  'x, y, z'
loop_
 _atom_site_type_symbol
 _atom_site_label
 _atom_site_symmetry_multiplicity
 _atom_site_fract_x
 _atom_site_fract_y
 _atom_site_fract_z
 _atom_site_fract_occupancy
 Ba  Ba1  1  0.00000  -0.00000  0.50000  1
 Sb  Sb1  1  0.50000  0.33964  0.16036  1
 Sb  Sb2  1  0.50000  0.66036  0.83964  1
