CIF file written using JARVIS-Tools package.
data_Ca2YSnO5
_symmetry_space_group_name_H-M  'P1'
_cell_length_a       5.85621
_cell_length_b       6.07371
_cell_length_c       8.64207
_cell_angle_alpha    109.086
_cell_angle_beta     107.891
_cell_angle_gamma    92.1856

_symmetry_Int_Tables_number  1
_chemical_formula_structural  Ca2YSnO5
_chemical_formula_sum  Ca4Y2Sn2O0
_cell_volume  273.14267315196435
_cell_formula_units_Z  2
loop_
  _symmetry_equiv_pos_site_id
 _symmetry_equiv_pos_as_xyz
 1  'x, y, z'
loop_
 _atom_site_type_symbol
 _atom_site_label
 _atom_site_symmetry_multiplicity
 _atom_site_fract_x
 _atom_site_fract_y
 _atom_site_fract_z
 _atom_site_fract_occupancy
 Ca  Ca1  1  0.34364  0.79776  0.72745  1
 Ca  Ca2  1  0.10872  0.61138  0.23418  1
 Ca  Ca3  1  0.63193  0.11575  0.21612  1
 Ca  Ca4  1  0.80763  0.24094  0.71564  1
 O  O1  1  0.60887  0.14381  0.90962  1
 O  O2  1  0.41353  0.87332  0.49537  1
 O  O3  1  0.20813  0.37202  0.73236  1
 O  O4  1  0.56594  0.35800  0.50502  1
 O  O5  1  0.96297  0.88366  0.73031  1
 O  O6  1  0.97306  0.41594  0.36928  1
 O  O7  1  0.80149  0.59445  0.94381  1
 O  O8  1  0.88375  0.90053  0.35065  1
 O  O9  1  0.35236  0.78888  0.01641  1
 O  O10  1  0.43465  0.43855  0.17947  1
 Sn  Sn1  1  0.00470  0.92778  0.98571  1
 Sn  Sn2  1  0.48089  0.46332  0.96537  1
 Y  Y1  1  0.21034  0.18393  0.47174  1
 Y  Y2  1  0.71417  0.66428  0.45506  1
