CIF file written using JARVIS-Tools package.
data_Li2HgAs
_symmetry_space_group_name_H-M  'Immm'
_cell_length_a       10.0777
_cell_length_b       5.88667
_cell_length_c       5.88667
_cell_angle_alpha    51.3321
_cell_angle_beta     31.1321
_cell_angle_gamma    31.1321

_symmetry_Int_Tables_number  71
_chemical_formula_structural  Li2HgAs
_chemical_formula_sum  Li2HgAs
_cell_volume  85.40559742780637
_cell_formula_units_Z  1
loop_
  _symmetry_equiv_pos_site_id
 _symmetry_equiv_pos_as_xyz
 1  'x, y, z'
loop_
 _atom_site_type_symbol
 _atom_site_label
 _atom_site_symmetry_multiplicity
 _atom_site_fract_x
 _atom_site_fract_y
 _atom_site_fract_z
 _atom_site_fract_occupancy
 As  As1  1  0.00000  0.00000  0.00000  1
 Hg  Hg1  1  0.50000  0.00000  0.00000  1
 Li  Li1  1  0.76017  1.00000  1.00000  1
 Li  Li2  1  0.23983  0.00000  0.00000  1
