CIF file written using JARVIS-Tools package.
data_Li2NiSnO4
_symmetry_space_group_name_H-M  'Imma'
_cell_length_a       6.06118
_cell_length_b       6.06119
_cell_length_c       6.19153
_cell_angle_alpha    120.716
_cell_angle_beta     120.716
_cell_angle_gamma    88.4925

_symmetry_Int_Tables_number  74
_chemical_formula_structural  Li2NiSnO4
_chemical_formula_sum  Li4Ni2Sn2O8
_cell_volume  159.42569665561692
_cell_formula_units_Z  2
loop_
  _symmetry_equiv_pos_site_id
 _symmetry_equiv_pos_as_xyz
 1  'x, y, z'
loop_
 _atom_site_type_symbol
 _atom_site_label
 _atom_site_symmetry_multiplicity
 _atom_site_fract_x
 _atom_site_fract_y
 _atom_site_fract_z
 _atom_site_fract_occupancy
 Li  Li1  1  -0.00000  0.50000  0.50000  1
 Li  Li2  1  0.50000  0.50000  0.50000  1
 Li  Li3  1  0.50000  -0.00000  0.00000  1
 Li  Li4  1  0.50000  0.50000  0.00000  1
 Ni  Ni1  1  -0.00000  0.50000  0.00000  1
 Ni  Ni2  1  0.50000  -0.00000  0.50000  1
 O  O1  1  0.24290  0.75708  0.01305  1
 O  O2  1  0.23874  0.24013  0.48944  1
 O  O3  1  0.24292  0.75710  0.48695  1
 O  O4  1  0.75987  0.76126  0.01056  1
 O  O5  1  0.24013  0.23874  0.98944  1
 O  O6  1  0.75708  0.24290  0.51305  1
 O  O7  1  0.76126  0.75987  0.51056  1
 O  O8  1  0.75710  0.24292  0.98695  1
 Sn  Sn1  1  -0.00000  -0.00000  0.50000  1
 Sn  Sn2  1  0.00000  0.00000  0.00000  1
