CIF file written using JARVIS-Tools package.
data_Sb2O5
_symmetry_space_group_name_H-M  'Cmcm'
_cell_length_a       9.76407
_cell_length_b       5.46953
_cell_length_c       3.98678
_cell_angle_alpha    111.374
_cell_angle_beta     90
_cell_angle_gamma    90

_symmetry_Int_Tables_number  63
_chemical_formula_structural  Sb2O5
_chemical_formula_sum  Sb4O0
_cell_volume  198.26972289892723
_cell_formula_units_Z  2
loop_
  _symmetry_equiv_pos_site_id
 _symmetry_equiv_pos_as_xyz
 1  'x, y, z'
loop_
 _atom_site_type_symbol
 _atom_site_label
 _atom_site_symmetry_multiplicity
 _atom_site_fract_x
 _atom_site_fract_y
 _atom_site_fract_z
 _atom_site_fract_occupancy
 O  O1  1  0.00000  0.92186  0.96093  1
 O  O2  1  0.12962  0.39914  0.69957  1
 O  O3  1  0.21346  0.86717  0.43358  1
 O  O4  1  0.28654  0.13283  0.06642  1
 O  O5  1  0.37038  0.60086  0.80043  1
 O  O6  1  0.50000  0.07814  0.53907  1
 O  O7  1  0.62962  0.60086  0.80043  1
 O  O8  1  0.87038  0.39914  0.69957  1
 O  O9  1  0.71346  0.13283  0.06642  1
 O  O10  1  0.78654  0.86717  0.43358  1
 Sb  Sb1  1  0.18496  0.77013  0.88507  1
 Sb  Sb2  1  0.31504  0.22987  0.61493  1
 Sb  Sb3  1  0.68496  0.22987  0.61493  1
 Sb  Sb4  1  0.81504  0.77013  0.88507  1
