CIF file written using JARVIS-Tools package.
data_HgBrN
_symmetry_space_group_name_H-M  'Pmm2'
_cell_length_a       4.00216
_cell_length_b       4.44926
_cell_length_c       3.75023
_cell_angle_alpha    90
_cell_angle_beta     90
_cell_angle_gamma    90

_symmetry_Int_Tables_number  25
_chemical_formula_structural  HgBrN
_chemical_formula_sum  HgBrN
_cell_volume  66.77893618312628
_cell_formula_units_Z  1
loop_
  _symmetry_equiv_pos_site_id
 _symmetry_equiv_pos_as_xyz
 1  'x, y, z'
loop_
 _atom_site_type_symbol
 _atom_site_label
 _atom_site_symmetry_multiplicity
 _atom_site_fract_x
 _atom_site_fract_y
 _atom_site_fract_z
 _atom_site_fract_occupancy
 Br  Br1  1  0.50000  0.50000  0.63494  1
 Hg  Hg1  1  0.00000  0.00000  0.00286  1
 N  N1  1  0.50000  0.00000  0.82221  1
