CIF file written using JARVIS-Tools package.
data_CdFe2O4
_symmetry_space_group_name_H-M  'Fd-3m'
_cell_length_a       5.98179
_cell_length_b       5.98179
_cell_length_c       5.98179
_cell_angle_alpha    60
_cell_angle_beta     60
_cell_angle_gamma    60.0001

_symmetry_Int_Tables_number  227
_chemical_formula_structural  CdFe2O4
_chemical_formula_sum  Cd2Fe4O8
_cell_volume  151.34842329840453
_cell_formula_units_Z  2
loop_
  _symmetry_equiv_pos_site_id
 _symmetry_equiv_pos_as_xyz
 1  'x, y, z'
loop_
 _atom_site_type_symbol
 _atom_site_label
 _atom_site_symmetry_multiplicity
 _atom_site_fract_x
 _atom_site_fract_y
 _atom_site_fract_z
 _atom_site_fract_occupancy
 Cd  Cd1  1  0.12500  0.12500  0.12500  1
 Cd  Cd2  1  0.87500  0.87500  0.87500  1
 Fe  Fe1  1  0.50000  0.00000  0.50000  1
 Fe  Fe2  1  0.00000  0.50000  0.50000  1
 Fe  Fe3  1  0.50000  0.50000  0.00000  1
 Fe  Fe4  1  0.50000  0.50000  0.50000  1
 O  O1  1  0.72897  0.72897  0.72897  1
 O  O2  1  0.27103  0.27103  0.68690  1
 O  O3  1  0.27103  0.68690  0.27103  1
 O  O4  1  0.68690  0.27103  0.27103  1
 O  O5  1  0.72897  0.31310  0.72897  1
 O  O6  1  0.31310  0.72897  0.72897  1
 O  O7  1  0.27103  0.27103  0.27103  1
 O  O8  1  0.72897  0.72897  0.31310  1
