CIF file written using JARVIS-Tools package.
data_Pu3In
_symmetry_space_group_name_H-M  'Pm-3m'
_cell_length_a       4.69806
_cell_length_b       4.69806
_cell_length_c       4.69806
_cell_angle_alpha    89.9995
_cell_angle_beta     89.9998
_cell_angle_gamma    89.9999

_symmetry_Int_Tables_number  221
_chemical_formula_structural  Pu3In
_chemical_formula_sum  Pu3In
_cell_volume  103.69457269659863
_cell_formula_units_Z  1
loop_
  _symmetry_equiv_pos_site_id
 _symmetry_equiv_pos_as_xyz
 1  'x, y, z'
loop_
 _atom_site_type_symbol
 _atom_site_label
 _atom_site_symmetry_multiplicity
 _atom_site_fract_x
 _atom_site_fract_y
 _atom_site_fract_z
 _atom_site_fract_occupancy
 In  In1  1  0.00000  0.00002  -0.00001  1
 Pu  Pu1  1  0.50000  0.49999  0.00001  1
 Pu  Pu2  1  0.50000  -0.00001  0.50000  1
 Pu  Pu3  1  -0.00000  0.50000  0.50000  1
