CIF file written using JARVIS-Tools package.
data_MgCd
_symmetry_space_group_name_H-M  'P6_3/mmc'
_cell_length_a       4.98264
_cell_length_b       4.98264
_cell_length_c       5.70827
_cell_angle_alpha    90
_cell_angle_beta     90
_cell_angle_gamma    120

_symmetry_Int_Tables_number  194
_chemical_formula_structural  MgCd
_chemical_formula_sum  Mg2Cd2
_cell_volume  122.73080907636819
_cell_formula_units_Z  2
loop_
  _symmetry_equiv_pos_site_id
 _symmetry_equiv_pos_as_xyz
 1  'x, y, z'
loop_
 _atom_site_type_symbol
 _atom_site_label
 _atom_site_symmetry_multiplicity
 _atom_site_fract_x
 _atom_site_fract_y
 _atom_site_fract_z
 _atom_site_fract_occupancy
 Cd  Cd1  1  0.33333  0.66667  0.93748  1
 Cd  Cd2  1  0.66667  0.33333  0.43748  1
 Mg  Mg1  1  0.33333  0.66667  0.43752  1
 Mg  Mg2  1  0.66667  0.33333  0.93752  1
