CIF file written using JARVIS-Tools package.
data_TiAu2
_symmetry_space_group_name_H-M  'I4/mmm'
_cell_length_a       3.46061
_cell_length_b       3.46061
_cell_length_c       4.93861
_cell_angle_alpha    110.51
_cell_angle_beta     110.51
_cell_angle_gamma    90

_symmetry_Int_Tables_number  139
_chemical_formula_structural  TiAu2
_chemical_formula_sum  TiAu2
_cell_volume  51.37330521469583
_cell_formula_units_Z  1
loop_
  _symmetry_equiv_pos_site_id
 _symmetry_equiv_pos_as_xyz
 1  'x, y, z'
loop_
 _atom_site_type_symbol
 _atom_site_label
 _atom_site_symmetry_multiplicity
 _atom_site_fract_x
 _atom_site_fract_y
 _atom_site_fract_z
 _atom_site_fract_occupancy
 Au  Au1  1  0.83597  0.83597  0.67194  1
 Au  Au2  1  0.16403  0.16403  0.32806  1
 Ti  Ti1  1  0.50000  0.50000  0.00000  1
