CIF file written using JARVIS-Tools package.
data_LiCu2O4
_symmetry_space_group_name_H-M  'Fd-3m'
_cell_length_a       5.84291
_cell_length_b       5.84291
_cell_length_c       5.84291
_cell_angle_alpha    60
_cell_angle_beta     60
_cell_angle_gamma    60

_symmetry_Int_Tables_number  227
_chemical_formula_structural  LiCu2O4
_chemical_formula_sum  Li2Cu4O8
_cell_volume  141.05000972939146
_cell_formula_units_Z  2
loop_
  _symmetry_equiv_pos_site_id
 _symmetry_equiv_pos_as_xyz
 1  'x, y, z'
loop_
 _atom_site_type_symbol
 _atom_site_label
 _atom_site_symmetry_multiplicity
 _atom_site_fract_x
 _atom_site_fract_y
 _atom_site_fract_z
 _atom_site_fract_occupancy
 Cu  Cu1  1  0.50000  0.50000  0.50000  1
 Cu  Cu2  1  0.50000  0.00000  0.50000  1
 Cu  Cu3  1  0.00000  0.50000  0.50000  1
 Cu  Cu4  1  0.50000  0.50000  -0.00000  1
 Li  Li1  1  0.12500  0.12500  0.12500  1
 Li  Li2  1  0.87500  0.87500  0.87500  1
 O  O1  1  0.73777  0.73777  0.28669  1
 O  O2  1  0.73777  0.73777  0.73777  1
 O  O3  1  0.26223  0.26223  0.71331  1
 O  O4  1  0.26223  0.71331  0.26223  1
 O  O5  1  0.26223  0.26223  0.26223  1
 O  O6  1  0.71331  0.26223  0.26223  1
 O  O7  1  0.73777  0.28669  0.73777  1
 O  O8  1  0.28669  0.73777  0.73777  1
