CIF file written using JARVIS-Tools package.
data_BaLi2Tl
_symmetry_space_group_name_H-M  'Immm'
_cell_length_a       12.9511
_cell_length_b       7.33436
_cell_length_c       7.33436
_cell_angle_alpha    30.6294
_cell_angle_beta     28.0047
_cell_angle_gamma    28.0047

_symmetry_Int_Tables_number  71
_chemical_formula_structural  BaLi2Tl
_chemical_formula_sum  BaLi2Tl
_cell_volume  142.86894578741436
_cell_formula_units_Z  1
loop_
  _symmetry_equiv_pos_site_id
 _symmetry_equiv_pos_as_xyz
 1  'x, y, z'
loop_
 _atom_site_type_symbol
 _atom_site_label
 _atom_site_symmetry_multiplicity
 _atom_site_fract_x
 _atom_site_fract_y
 _atom_site_fract_z
 _atom_site_fract_occupancy
 Ba  Ba1  1  0.00000  0.00000  0.00000  1
 Li  Li1  1  0.71162  -0.00000  -0.00000  1
 Li  Li2  1  0.28838  0.00000  0.00000  1
 Tl  Tl1  1  0.50000  -0.00000  -0.00000  1
