CIF file written using JARVIS-Tools package.
data_SiO2
_symmetry_space_group_name_H-M  'P6_522'
_cell_length_a       7.36804
_cell_length_b       7.36804
_cell_length_c       7.07251
_cell_angle_alpha    90
_cell_angle_beta     90
_cell_angle_gamma    120

_symmetry_Int_Tables_number  179
_chemical_formula_structural  SiO2
_chemical_formula_sum  Si6O2
_cell_volume  332.5126627353735
_cell_formula_units_Z  6
loop_
  _symmetry_equiv_pos_site_id
 _symmetry_equiv_pos_as_xyz
 1  'x, y, z'
loop_
 _atom_site_type_symbol
 _atom_site_label
 _atom_site_symmetry_multiplicity
 _atom_site_fract_x
 _atom_site_fract_y
 _atom_site_fract_z
 _atom_site_fract_occupancy
 O  O1  1  0.31694  0.31694  0.83333  1
 O  O2  1  0.22479  0.61240  0.91667  1
 O  O3  1  0.31694  -0.00000  0.00000  1
 O  O4  1  0.77521  0.38760  0.41667  1
 O  O5  1  0.00000  0.68306  0.16667  1
 O  O6  1  0.38760  0.77521  0.25000  1
 O  O7  1  0.38760  0.61240  0.58333  1
 O  O8  1  0.61240  0.22479  0.75000  1
 O  O9  1  0.68306  0.68306  0.33333  1
 O  O10  1  0.68306  0.00000  0.50000  1
 O  O11  1  0.61240  0.38760  0.08333  1
 O  O12  1  -0.00000  0.31694  0.66667  1
 Si  Si1  1  0.46612  0.23306  0.91667  1
 Si  Si2  1  0.23306  0.76694  0.08333  1
 Si  Si3  1  0.53388  0.76694  0.41667  1
 Si  Si4  1  0.76694  0.23306  0.58333  1
 Si  Si5  1  0.23306  0.46612  0.75000  1
 Si  Si6  1  0.76694  0.53388  0.25000  1
