CIF file written using JARVIS-Tools package.
data_NiS2
_symmetry_space_group_name_H-M  'I4/mmm'
_cell_length_a       3.22342
_cell_length_b       3.22342
_cell_length_c       5.1818
_cell_angle_alpha    108.121
_cell_angle_beta     108.121
_cell_angle_gamma    90

_symmetry_Int_Tables_number  139
_chemical_formula_structural  NiS2
_chemical_formula_sum  NiS2
_cell_volume  48.352771463178144
_cell_formula_units_Z  1
loop_
  _symmetry_equiv_pos_site_id
 _symmetry_equiv_pos_as_xyz
 1  'x, y, z'
loop_
 _atom_site_type_symbol
 _atom_site_label
 _atom_site_symmetry_multiplicity
 _atom_site_fract_x
 _atom_site_fract_y
 _atom_site_fract_z
 _atom_site_fract_occupancy
 Ni  Ni1  1  0.50000  0.50000  0.00000  1
 S  S1  1  0.11227  0.11227  0.22454  1
 S  S2  1  0.88773  0.88773  0.77546  1
