CIF file written using JARVIS-Tools package.
data_HfNi
_symmetry_space_group_name_H-M  'Cmcm'
_cell_length_a       3.25398
_cell_length_b       4.05262
_cell_length_c       5.15903
_cell_angle_alpha    90
_cell_angle_beta     108.383
_cell_angle_gamma    90

_symmetry_Int_Tables_number  63
_chemical_formula_structural  HfNi
_chemical_formula_sum  Hf2Ni2
_cell_volume  64.561154505892
_cell_formula_units_Z  2
loop_
  _symmetry_equiv_pos_site_id
 _symmetry_equiv_pos_as_xyz
 1  'x, y, z'
loop_
 _atom_site_type_symbol
 _atom_site_label
 _atom_site_symmetry_multiplicity
 _atom_site_fract_x
 _atom_site_fract_y
 _atom_site_fract_z
 _atom_site_fract_occupancy
 Hf  Hf1  1  0.86012  0.75000  0.72023  1
 Hf  Hf2  1  0.13988  0.25000  0.27977  1
 Ni  Ni1  1  0.58516  0.75000  0.17031  1
 Ni  Ni2  1  0.41484  0.25000  0.82969  1
