CIF file written using JARVIS-Tools package.
data_AgCO2
_symmetry_space_group_name_H-M  'P2_1/c'
_cell_length_a       3.3589
_cell_length_b       6.31188
_cell_length_c       9.50522
_cell_angle_alpha    90
_cell_angle_beta     103.04
_cell_angle_gamma    90

_symmetry_Int_Tables_number  14
_chemical_formula_structural  AgCO2
_chemical_formula_sum  Ag4C4O8
_cell_volume  196.32293123128028
_cell_formula_units_Z  4
loop_
  _symmetry_equiv_pos_site_id
 _symmetry_equiv_pos_as_xyz
 1  'x, y, z'
loop_
 _atom_site_type_symbol
 _atom_site_label
 _atom_site_symmetry_multiplicity
 _atom_site_fract_x
 _atom_site_fract_y
 _atom_site_fract_z
 _atom_site_fract_occupancy
 Ag  Ag1  1  0.86296  0.99244  0.34784  1
 Ag  Ag2  1  0.13704  0.49244  0.15216  1
 Ag  Ag3  1  0.13704  0.00756  0.65216  1
 Ag  Ag4  1  0.86296  0.50756  0.84784  1
 C  C1  1  0.39788  0.88998  0.00260  1
 C  C2  1  0.60212  0.11002  0.99740  1
 C  C3  1  0.39788  0.61002  0.50260  1
 C  C4  1  0.60212  0.38998  0.49740  1
 O  O1  1  0.85012  0.32997  0.61173  1
 O  O2  1  0.85012  0.17003  0.11173  1
 O  O3  1  0.14988  0.82997  0.88827  1
 O  O4  1  0.14988  0.67003  0.38827  1
 O  O5  1  0.49154  0.71167  0.62017  1
 O  O6  1  0.50846  0.21167  0.87983  1
 O  O7  1  0.50846  0.28833  0.37983  1
 O  O8  1  0.49154  0.78833  0.12017  1
