CIF file written using JARVIS-Tools package.
data_CeGa
_symmetry_space_group_name_H-M  'Cmcm'
_cell_length_a       4.07222
_cell_length_b       4.33649
_cell_length_c       5.96305
_cell_angle_alpha    111.322
_cell_angle_beta     90
_cell_angle_gamma    90

_symmetry_Int_Tables_number  63
_chemical_formula_structural  CeGa
_chemical_formula_sum  Ce2Ga2
_cell_volume  98.09432062890703
_cell_formula_units_Z  2
loop_
  _symmetry_equiv_pos_site_id
 _symmetry_equiv_pos_as_xyz
 1  'x, y, z'
loop_
 _atom_site_type_symbol
 _atom_site_label
 _atom_site_symmetry_multiplicity
 _atom_site_fract_x
 _atom_site_fract_y
 _atom_site_fract_z
 _atom_site_fract_occupancy
 Ce  Ce1  1  0.25000  0.14579  0.29157  1
 Ce  Ce2  1  0.75000  0.85421  0.70843  1
 Ga  Ga1  1  0.25000  0.42702  0.85404  1
 Ga  Ga2  1  0.75000  0.57298  0.14596  1
