CIF file written using JARVIS-Tools package.
data_Nb3B3C
_symmetry_space_group_name_H-M  'Cmcm'
_cell_length_a       3.14439
_cell_length_b       3.29858
_cell_length_c       14.5679
_cell_angle_alpha    96.5006
_cell_angle_beta     90
_cell_angle_gamma    90

_symmetry_Int_Tables_number  63
_chemical_formula_structural  Nb3B3C
_chemical_formula_sum  Nb6B6C2
_cell_volume  150.12761058517518
_cell_formula_units_Z  2
loop_
  _symmetry_equiv_pos_site_id
 _symmetry_equiv_pos_as_xyz
 1  'x, y, z'
loop_
 _atom_site_type_symbol
 _atom_site_label
 _atom_site_symmetry_multiplicity
 _atom_site_fract_x
 _atom_site_fract_y
 _atom_site_fract_z
 _atom_site_fract_occupancy
 B  B1  1  0.25000  0.01543  0.03085  1
 B  B2  1  0.75000  0.98457  0.96915  1
 B  B3  1  0.25000  0.88840  0.77680  1
 B  B4  1  0.75000  0.11160  0.22320  1
 B  B5  1  0.25000  0.07884  0.15768  1
 B  B6  1  0.75000  0.92116  0.84232  1
 C  C1  1  0.25000  0.71216  0.42433  1
 C  C2  1  0.75000  0.28784  0.57567  1
 Nb  Nb1  1  0.25000  0.45325  0.90649  1
 Nb  Nb2  1  0.75000  0.54675  0.09351  1
 Nb  Nb3  1  0.25000  0.78731  0.57462  1
 Nb  Nb4  1  0.75000  0.21269  0.42538  1
 Nb  Nb5  1  0.75000  0.36208  0.72417  1
 Nb  Nb6  1  0.25000  0.63792  0.27583  1
