CIF file written using JARVIS-Tools package.
data_HfGeO4
_symmetry_space_group_name_H-M  'I4_1/a'
_cell_length_a       4.88802
_cell_length_b       4.88803
_cell_length_c       6.30609
_cell_angle_alpha    112.803
_cell_angle_beta     112.803
_cell_angle_gamma    90

_symmetry_Int_Tables_number  88
_chemical_formula_structural  HfGeO4
_chemical_formula_sum  Hf2Ge2O8
_cell_volume  126.02255926551872
_cell_formula_units_Z  2
loop_
  _symmetry_equiv_pos_site_id
 _symmetry_equiv_pos_as_xyz
 1  'x, y, z'
loop_
 _atom_site_type_symbol
 _atom_site_label
 _atom_site_symmetry_multiplicity
 _atom_site_fract_x
 _atom_site_fract_y
 _atom_site_fract_z
 _atom_site_fract_occupancy
 Ge  Ge1  1  0.87500  0.62500  0.75000  1
 Ge  Ge2  1  0.12500  0.37500  0.25000  1
 Hf  Hf1  1  0.37500  0.12500  0.75000  1
 Hf  Hf2  1  0.62500  0.87500  0.25000  1
 O  O1  1  0.31272  0.46708  0.08506  1
 O  O2  1  0.61798  0.81272  0.58506  1
 O  O3  1  0.96708  0.27235  0.58506  1
 O  O4  1  0.77235  0.11798  0.08506  1
 O  O5  1  0.22765  0.88202  0.91494  1
 O  O6  1  0.03292  0.72765  0.41494  1
 O  O7  1  0.38202  0.18728  0.41494  1
 O  O8  1  0.68728  0.53292  0.91494  1
