CIF file written using JARVIS-Tools package.
data_Mn2V2O7
_symmetry_space_group_name_H-M  'C2/m'
_cell_length_a       5.05668
_cell_length_b       5.38012
_cell_length_c       5.38012
_cell_angle_alpha    107.782
_cell_angle_beta     96.9405
_cell_angle_gamma    96.9404

_symmetry_Int_Tables_number  12
_chemical_formula_structural  Mn2V2O7
_chemical_formula_sum  Mn2V2O7
_cell_volume  136.41442569762148
_cell_formula_units_Z  1
loop_
  _symmetry_equiv_pos_site_id
 _symmetry_equiv_pos_as_xyz
 1  'x, y, z'
loop_
 _atom_site_type_symbol
 _atom_site_label
 _atom_site_symmetry_multiplicity
 _atom_site_fract_x
 _atom_site_fract_y
 _atom_site_fract_z
 _atom_site_fract_occupancy
 Mn  Mn1  1  0.00000  0.81361  0.18639  1
 Mn  Mn2  1  -0.00000  0.18639  0.81361  1
 O  O1  1  0.79904  0.44242  0.10489  1
 O  O2  1  0.20096  0.89511  0.55758  1
 O  O3  1  0.20096  0.55758  0.89511  1
 O  O4  1  0.79904  0.10489  0.44242  1
 O  O5  1  0.50000  0.50000  0.50000  1
 O  O6  1  0.27479  0.07431  0.07431  1
 O  O7  1  0.72521  0.92569  0.92569  1
 V  V1  1  0.39421  0.74873  0.74873  1
 V  V2  1  0.60579  0.25127  0.25127  1
