CIF file written using JARVIS-Tools package.
data_BaPb2IF5
_symmetry_space_group_name_H-M  'P4/nmm'
_cell_length_a       6.07537
_cell_length_b       6.07537
_cell_length_c       9.99897
_cell_angle_alpha    90
_cell_angle_beta     90
_cell_angle_gamma    90

_symmetry_Int_Tables_number  129
_chemical_formula_structural  BaPb2IF5
_chemical_formula_sum  Ba2Pb4I2F0
_cell_volume  369.0629285434214
_cell_formula_units_Z  2
loop_
  _symmetry_equiv_pos_site_id
 _symmetry_equiv_pos_as_xyz
 1  'x, y, z'
loop_
 _atom_site_type_symbol
 _atom_site_label
 _atom_site_symmetry_multiplicity
 _atom_site_fract_x
 _atom_site_fract_y
 _atom_site_fract_z
 _atom_site_fract_occupancy
 Ba  Ba1  1  0.00000  0.00000  0.00000  1
 Ba  Ba2  1  0.50000  0.50000  0.00000  1
 F  F1  1  0.76378  0.26378  0.81982  1
 F  F2  1  0.26378  0.76378  0.18018  1
 F  F3  1  0.76378  0.73622  0.81982  1
 F  F4  1  0.00000  0.50000  0.03328  1
 F  F5  1  0.23622  0.26378  0.81982  1
 F  F6  1  0.73622  0.76378  0.18018  1
 F  F7  1  0.50000  0.00000  0.96672  1
 F  F8  1  0.23622  0.73622  0.81982  1
 F  F9  1  0.26378  0.23622  0.18018  1
 F  F10  1  0.73622  0.23622  0.18018  1
 I  I1  1  0.50000  0.50000  0.50000  1
 I  I2  1  0.00000  0.00000  0.50000  1
 Pb  Pb1  1  0.50000  0.00000  0.30796  1
 Pb  Pb2  1  0.00000  0.50000  0.26650  1
 Pb  Pb3  1  0.50000  0.00000  0.73350  1
 Pb  Pb4  1  0.00000  0.50000  0.69204  1
