CIF file written using JARVIS-Tools package.
data_B2Pd5
_symmetry_space_group_name_H-M  'C2/c'
_cell_length_a       5.01111
_cell_length_b       5.51589
_cell_length_c       6.9461
_cell_angle_alpha    96.6184
_cell_angle_beta     111.144
_cell_angle_gamma    90

_symmetry_Int_Tables_number  15
_chemical_formula_structural  B2Pd5
_chemical_formula_sum  B4Pd0
_cell_volume  177.6970687602212
_cell_formula_units_Z  2
loop_
  _symmetry_equiv_pos_site_id
 _symmetry_equiv_pos_as_xyz
 1  'x, y, z'
loop_
 _atom_site_type_symbol
 _atom_site_label
 _atom_site_symmetry_multiplicity
 _atom_site_fract_x
 _atom_site_fract_y
 _atom_site_fract_z
 _atom_site_fract_occupancy
 B  B1  1  0.58795  0.42191  0.77082  1
 B  B2  1  0.81712  0.07809  0.22918  1
 B  B3  1  0.41205  0.57809  0.22918  1
 B  B4  1  0.18288  0.92191  0.77082  1
 Pd  Pd1  1  0.00440  0.42011  0.19206  1
 Pd  Pd2  1  0.81234  0.07989  0.80794  1
 Pd  Pd3  1  0.35811  0.68596  0.57559  1
 Pd  Pd4  1  0.78252  0.81404  0.42441  1
 Pd  Pd5  1  0.64189  0.31404  0.42441  1
 Pd  Pd6  1  0.21748  0.18596  0.57559  1
 Pd  Pd7  1  0.18766  0.92011  0.19206  1
 Pd  Pd8  1  0.99560  0.57989  0.80794  1
 Pd  Pd9  1  0.43061  0.25000  0.00000  1
 Pd  Pd10  1  0.56939  0.75000  -0.00000  1
