CIF file written using JARVIS-Tools package.
data_MnAgPd2
_symmetry_space_group_name_H-M  'I4/mmm'
_cell_length_a       11.0725
_cell_length_b       7.4775
_cell_length_c       7.47751
_cell_angle_alpha    31.8518
_cell_angle_beta     19.2983
_cell_angle_gamma    19.2983

_symmetry_Int_Tables_number  139
_chemical_formula_structural  MnAgPd2
_chemical_formula_sum  MnAgPd2
_cell_volume  62.58205719087554
_cell_formula_units_Z  1
loop_
  _symmetry_equiv_pos_site_id
 _symmetry_equiv_pos_as_xyz
 1  'x, y, z'
loop_
 _atom_site_type_symbol
 _atom_site_label
 _atom_site_symmetry_multiplicity
 _atom_site_fract_x
 _atom_site_fract_y
 _atom_site_fract_z
 _atom_site_fract_occupancy
 Ag  Ag1  1  0.50000  0.00000  -0.00000  1
 Mn  Mn1  1  0.00000  0.00000  0.00000  1
 Pd  Pd1  1  0.74994  0.00004  0.00004  1
 Pd  Pd2  1  0.25006  -0.00004  -0.00004  1
