CIF file written using JARVIS-Tools package.
data_MgAg2O4
_symmetry_space_group_name_H-M  'P-1'
_cell_length_a       3.25946
_cell_length_b       7.52138
_cell_length_c       7.94598
_cell_angle_alpha    78.5887
_cell_angle_beta     83.7513
_cell_angle_gamma    78.93

_symmetry_Int_Tables_number  2
_chemical_formula_structural  MgAg2O4
_chemical_formula_sum  Mg2Ag4O8
_cell_volume  186.88773478338433
_cell_formula_units_Z  2
loop_
  _symmetry_equiv_pos_site_id
 _symmetry_equiv_pos_as_xyz
 1  'x, y, z'
loop_
 _atom_site_type_symbol
 _atom_site_label
 _atom_site_symmetry_multiplicity
 _atom_site_fract_x
 _atom_site_fract_y
 _atom_site_fract_z
 _atom_site_fract_occupancy
 Ag  Ag1  1  0.76867  0.55854  0.16408  1
 Ag  Ag2  1  0.72659  0.20224  0.52094  1
 Ag  Ag3  1  0.23801  0.83082  0.45717  1
 Ag  Ag4  1  0.19594  0.47452  0.81404  1
 Mg  Mg1  1  0.48769  0.19833  0.17709  1
 Mg  Mg2  1  0.47692  0.83474  0.80102  1
 O  O1  1  0.53240  0.63368  0.63903  1
 O  O2  1  0.61889  0.78985  0.25109  1
 O  O3  1  0.34572  0.24321  0.72702  1
 O  O4  1  0.43221  0.39938  0.33908  1
 O  O5  1  0.00114  0.70234  0.93636  1
 O  O6  1  0.01210  0.08234  0.31457  1
 O  O7  1  0.96346  0.33073  0.04175  1
 O  O8  1  0.95251  0.95072  0.66354  1
