CIF file written using JARVIS-Tools package.
data_LiCuPO4
_symmetry_space_group_name_H-M  'Pnma'
_cell_length_a       4.71746
_cell_length_b       6.04504
_cell_length_c       9.96249
_cell_angle_alpha    90
_cell_angle_beta     90
_cell_angle_gamma    90

_symmetry_Int_Tables_number  62
_chemical_formula_structural  LiCuPO4
_chemical_formula_sum  Li4Cu4P4O6
_cell_volume  284.10271829032223
_cell_formula_units_Z  4
loop_
  _symmetry_equiv_pos_site_id
 _symmetry_equiv_pos_as_xyz
 1  'x, y, z'
loop_
 _atom_site_type_symbol
 _atom_site_label
 _atom_site_symmetry_multiplicity
 _atom_site_fract_x
 _atom_site_fract_y
 _atom_site_fract_z
 _atom_site_fract_occupancy
 Cu  Cu1  1  0.03701  0.75000  0.28218  1
 Cu  Cu2  1  0.46299  0.75000  0.78218  1
 Cu  Cu3  1  0.96299  0.25000  0.71782  1
 Cu  Cu4  1  0.53701  0.25000  0.21782  1
 Li  Li1  1  0.00000  0.00000  0.00000  1
 Li  Li2  1  0.50000  0.00000  0.50000  1
 Li  Li3  1  0.00000  0.50000  0.00000  1
 Li  Li4  1  0.50000  0.50000  0.50000  1
 O  O1  1  0.21868  0.45455  0.33560  1
 O  O2  1  0.78132  0.54545  0.66440  1
 O  O3  1  0.28132  0.04545  0.83560  1
 O  O4  1  0.74694  0.25000  0.90132  1
 O  O5  1  0.71868  0.54545  0.16440  1
 O  O6  1  0.19807  0.25000  0.55175  1
 O  O7  1  0.21868  0.04545  0.33560  1
 O  O8  1  0.78132  0.95455  0.66440  1
 O  O9  1  0.25306  0.75000  0.09868  1
 O  O10  1  0.69807  0.75000  0.94825  1
 O  O11  1  0.71868  0.95455  0.16440  1
 O  O12  1  0.24694  0.75000  0.59868  1
 O  O13  1  0.28132  0.45455  0.83560  1
 O  O14  1  0.30193  0.25000  0.05175  1
 O  O15  1  0.75306  0.25000  0.40132  1
 O  O16  1  0.80193  0.75000  0.44825  1
 P  P1  1  0.57923  0.75000  0.09464  1
 P  P2  1  0.92077  0.75000  0.59464  1
 P  P3  1  0.42077  0.25000  0.90536  1
 P  P4  1  0.07923  0.25000  0.40536  1
