CIF file written using JARVIS-Tools package.
data_LiYF4
_symmetry_space_group_name_H-M  'I4_1/a'
_cell_length_a       5.17706
_cell_length_b       5.17805
_cell_length_c       6.52324
_cell_angle_alpha    113.375
_cell_angle_beta     113.371
_cell_angle_gamma    90.0201

_symmetry_Int_Tables_number  88
_chemical_formula_structural  LiYF4
_chemical_formula_sum  Li2Y2F8
_cell_volume  144.74285238799374
_cell_formula_units_Z  2
loop_
  _symmetry_equiv_pos_site_id
 _symmetry_equiv_pos_as_xyz
 1  'x, y, z'
loop_
 _atom_site_type_symbol
 _atom_site_label
 _atom_site_symmetry_multiplicity
 _atom_site_fract_x
 _atom_site_fract_y
 _atom_site_fract_z
 _atom_site_fract_occupancy
 F  F1  1  0.45748  0.76440  0.58826  1
 F  F2  1  0.26443  0.63098  0.08830  1
 F  F3  1  0.86921  0.67614  0.41174  1
 F  F4  1  0.82387  0.95732  0.08830  1
 F  F5  1  0.54252  0.23560  0.41174  1
 F  F6  1  0.13079  0.32386  0.58826  1
 F  F7  1  0.17613  0.04268  0.91170  1
 F  F8  1  0.73557  0.36902  0.91170  1
 Li  Li1  1  0.37490  0.12490  0.74979  1
 Li  Li2  1  0.62510  0.87510  0.25021  1
 Y  Y1  1  0.12498  0.37498  0.24997  1
 Y  Y2  1  0.87502  0.62502  0.75003  1
