CIF file written using JARVIS-Tools package.
data_CaCo4S8
_symmetry_space_group_name_H-M  'R-3m'
_cell_length_a       6.79421
_cell_length_b       6.9265
_cell_length_c       6.9265
_cell_angle_alpha    60
_cell_angle_beta     59.3538
_cell_angle_gamma    59.3538

_symmetry_Int_Tables_number  166
_chemical_formula_structural  CaCo4S8
_chemical_formula_sum  CaCo4S8
_cell_volume  228.21242804743954
_cell_formula_units_Z  1
loop_
  _symmetry_equiv_pos_site_id
 _symmetry_equiv_pos_as_xyz
 1  'x, y, z'
loop_
 _atom_site_type_symbol
 _atom_site_label
 _atom_site_symmetry_multiplicity
 _atom_site_fract_x
 _atom_site_fract_y
 _atom_site_fract_z
 _atom_site_fract_occupancy
 Ca  Ca1  1  0.50000  -0.00000  0.00000  1
 Co  Co1  1  0.00000  0.50000  0.50000  1
 Co  Co2  1  0.50000  0.50000  0.00000  1
 Co  Co3  1  0.50000  0.50000  0.50000  1
 Co  Co4  1  0.50000  0.00000  0.50000  1
 S  S1  1  0.25806  0.27110  0.27110  1
 S  S2  1  0.25806  0.27110  0.69974  1
 S  S3  1  0.25806  0.69974  0.27110  1
 S  S4  1  0.70758  0.26414  0.26414  1
 S  S5  1  0.29242  0.73586  0.73586  1
 S  S6  1  0.74194  0.72890  0.30026  1
 S  S7  1  0.74194  0.30026  0.72890  1
 S  S8  1  0.74194  0.72890  0.72890  1
