CIF file written using JARVIS-Tools package.
data_Ba2LiReN4
_symmetry_space_group_name_H-M  'P2_1/m'
_cell_length_a       6.55427
_cell_length_b       6.03066
_cell_length_c       7.52598
_cell_angle_alpha    90
_cell_angle_beta     109.69
_cell_angle_gamma    90

_symmetry_Int_Tables_number  11
_chemical_formula_structural  Ba2LiReN4
_chemical_formula_sum  Ba4Li2Re2N8
_cell_volume  280.08287574159004
_cell_formula_units_Z  2
loop_
  _symmetry_equiv_pos_site_id
 _symmetry_equiv_pos_as_xyz
 1  'x, y, z'
loop_
 _atom_site_type_symbol
 _atom_site_label
 _atom_site_symmetry_multiplicity
 _atom_site_fract_x
 _atom_site_fract_y
 _atom_site_fract_z
 _atom_site_fract_occupancy
 Ba  Ba1  1  0.26598  0.25000  0.94575  1
 Ba  Ba2  1  0.73402  0.75000  0.05425  1
 Ba  Ba3  1  0.81222  0.75000  0.57926  1
 Ba  Ba4  1  0.18778  0.25000  0.42074  1
 Li  Li1  1  0.34863  0.75000  0.63478  1
 Li  Li2  1  0.65137  0.25000  0.36522  1
 N  N1  1  0.47177  0.50667  0.26640  1
 N  N2  1  0.52823  0.00667  0.73360  1
 N  N3  1  0.52823  0.49333  0.73360  1
 N  N4  1  0.47177  0.99333  0.26640  1
 N  N5  1  0.11987  0.75000  0.36754  1
 N  N6  1  0.88013  0.25000  0.63246  1
 N  N7  1  0.12791  0.75000  0.96443  1
 N  N8  1  0.87209  0.25000  0.03557  1
 Re  Re1  1  0.70619  0.25000  0.78543  1
 Re  Re2  1  0.29381  0.75000  0.21457  1
