CIF file written using JARVIS-Tools package.
data_Y3Mg
_symmetry_space_group_name_H-M  'Pmm2'
_cell_length_a       3.57179
_cell_length_b       5.57974
_cell_length_c       5.98102
_cell_angle_alpha    90
_cell_angle_beta     90
_cell_angle_gamma    90

_symmetry_Int_Tables_number  25
_chemical_formula_structural  Y3Mg
_chemical_formula_sum  Y3Mg
_cell_volume  119.1996907417405
_cell_formula_units_Z  1
loop_
  _symmetry_equiv_pos_site_id
 _symmetry_equiv_pos_as_xyz
 1  'x, y, z'
loop_
 _atom_site_type_symbol
 _atom_site_label
 _atom_site_symmetry_multiplicity
 _atom_site_fract_x
 _atom_site_fract_y
 _atom_site_fract_z
 _atom_site_fract_occupancy
 Mg  Mg1  1  0.00000  0.50000  0.33599  1
 Y  Y1  1  0.00000  0.00000  -0.00546  1
 Y  Y2  1  0.50000  0.00000  0.49039  1
 Y  Y3  1  0.50000  0.50000  0.84575  1
