CIF file written using JARVIS-Tools package.
data_Na2PdF4
_symmetry_space_group_name_H-M  'P2_1/c'
_cell_length_a       3.43104
_cell_length_b       5.62989
_cell_length_c       9.99345
_cell_angle_alpha    90
_cell_angle_beta     94.2766
_cell_angle_gamma    90

_symmetry_Int_Tables_number  14
_chemical_formula_structural  Na2PdF4
_chemical_formula_sum  Na4Pd2F8
_cell_volume  192.49999716039787
_cell_formula_units_Z  2
loop_
  _symmetry_equiv_pos_site_id
 _symmetry_equiv_pos_as_xyz
 1  'x, y, z'
loop_
 _atom_site_type_symbol
 _atom_site_label
 _atom_site_symmetry_multiplicity
 _atom_site_fract_x
 _atom_site_fract_y
 _atom_site_fract_z
 _atom_site_fract_occupancy
 F  F1  1  0.78384  0.68047  0.33851  1
 F  F2  1  0.21616  0.18047  0.16149  1
 F  F3  1  0.21616  0.31953  0.66149  1
 F  F4  1  0.78384  0.81953  0.83851  1
 F  F5  1  0.21319  0.80584  0.57504  1
 F  F6  1  0.78681  0.30584  0.92496  1
 F  F7  1  0.21319  0.69416  0.07504  1
 F  F8  1  0.78681  0.19416  0.42496  1
 Na  Na1  1  0.71929  0.04425  0.65169  1
 Na  Na2  1  0.28071  0.54425  0.84831  1
 Na  Na3  1  0.28071  0.95575  0.34831  1
 Na  Na4  1  0.71929  0.45575  0.15169  1
 Pd  Pd1  1  0.00000  0.50000  0.50000  1
 Pd  Pd2  1  0.00000  0.00000  0.00000  1
