CIF file written using JARVIS-Tools package.
data_ZnS
_symmetry_space_group_name_H-M  'P3m1'
_cell_length_a       3.84059
_cell_length_b       3.84059
_cell_length_c       25.1269
_cell_angle_alpha    90
_cell_angle_beta     90
_cell_angle_gamma    120

_symmetry_Int_Tables_number  156
_chemical_formula_structural  ZnS
_chemical_formula_sum  Zn8S8
_cell_volume  320.97162582602573
_cell_formula_units_Z  8
loop_
  _symmetry_equiv_pos_site_id
 _symmetry_equiv_pos_as_xyz
 1  'x, y, z'
loop_
 _atom_site_type_symbol
 _atom_site_label
 _atom_site_symmetry_multiplicity
 _atom_site_fract_x
 _atom_site_fract_y
 _atom_site_fract_z
 _atom_site_fract_occupancy
 S  S1  1  0.66667  0.33333  0.65624  1
 S  S2  1  0.66667  0.33333  0.28161  1
 S  S3  1  0.33333  0.66667  0.78112  1
 S  S4  1  0.00000  0.00000  0.15632  1
 S  S5  1  0.66667  0.33333  0.03096  1
 S  S6  1  0.00000  0.00000  0.90600  1
 S  S7  1  0.33333  0.66667  0.40648  1
 S  S8  1  0.00000  0.00000  0.53136  1
 Zn  Zn1  1  0.33333  0.66667  0.87476  1
 Zn  Zn2  1  0.00000  0.00000  0.99961  1
 Zn  Zn3  1  0.66667  0.33333  0.37524  1
 Zn  Zn4  1  0.66667  0.33333  0.12475  1
 Zn  Zn5  1  0.00000  0.00000  0.25015  1
 Zn  Zn6  1  0.33333  0.66667  0.50012  1
 Zn  Zn7  1  0.00000  0.00000  0.62500  1
 Zn  Zn8  1  0.66667  0.33333  0.74988  1
