CIF file written using JARVIS-Tools package.
data_NdAl3B4O12
_symmetry_space_group_name_H-M  'R32'
_cell_length_a       5.95674
_cell_length_b       5.95675
_cell_length_c       5.95674
_cell_angle_alpha    104.293
_cell_angle_beta     104.293
_cell_angle_gamma    104.293

_symmetry_Int_Tables_number  155
_chemical_formula_structural  NdAl3B4O12
_chemical_formula_sum  NdAl3B4O2
_cell_volume  187.51238222504858
_cell_formula_units_Z  1
loop_
  _symmetry_equiv_pos_site_id
 _symmetry_equiv_pos_as_xyz
 1  'x, y, z'
loop_
 _atom_site_type_symbol
 _atom_site_label
 _atom_site_symmetry_multiplicity
 _atom_site_fract_x
 _atom_site_fract_y
 _atom_site_fract_z
 _atom_site_fract_occupancy
 Al  Al1  1  0.00000  0.55615  0.44385  1
 Al  Al2  1  0.44385  0.00000  0.55615  1
 Al  Al3  1  0.55615  0.44385  -0.00000  1
 B  B1  1  0.05850  0.50000  0.94150  1
 B  B2  1  0.50000  0.50000  0.50000  1
 B  B3  1  0.94150  0.05850  0.50000  1
 B  B4  1  0.50000  0.94150  0.05850  1
 Nd  Nd1  1  0.00000  0.00000  0.00000  1
 O  O1  1  0.37918  0.97221  0.22585  1
 O  O2  1  0.97221  0.22585  0.37918  1
 O  O3  1  0.91006  0.50000  0.08994  1
 O  O4  1  0.50000  0.08994  0.91006  1
 O  O5  1  0.08994  0.91006  0.50000  1
 O  O6  1  0.62082  0.77415  0.02779  1
 O  O7  1  0.35160  0.64840  0.50000  1
 O  O8  1  0.02779  0.62082  0.77415  1
 O  O9  1  0.22585  0.37918  0.97221  1
 O  O10  1  0.77415  0.02779  0.62082  1
 O  O11  1  0.64840  0.50000  0.35160  1
 O  O12  1  0.50000  0.35160  0.64840  1
