CIF file written using JARVIS-Tools package.
data_GaCo2Ni
_symmetry_space_group_name_H-M  'I4/mmm'
_cell_length_a       3.58493
_cell_length_b       3.58493
_cell_length_c       4.37064
_cell_angle_alpha    114.212
_cell_angle_beta     114.212
_cell_angle_gamma    90

_symmetry_Int_Tables_number  139
_chemical_formula_structural  GaCo2Ni
_chemical_formula_sum  GaCo2Ni
_cell_volume  45.75769260794474
_cell_formula_units_Z  1
loop_
  _symmetry_equiv_pos_site_id
 _symmetry_equiv_pos_as_xyz
 1  'x, y, z'
loop_
 _atom_site_type_symbol
 _atom_site_label
 _atom_site_symmetry_multiplicity
 _atom_site_fract_x
 _atom_site_fract_y
 _atom_site_fract_z
 _atom_site_fract_occupancy
 Co  Co1  1  0.25000  0.75000  0.50000  1
 Co  Co2  1  0.75000  0.25000  0.50000  1
 Ga  Ga1  1  0.00000  0.00000  0.00000  1
 Ni  Ni1  1  0.50000  0.50000  0.00000  1
