CIF file written using JARVIS-Tools package.
data_Rb3InS3
_symmetry_space_group_name_H-M  'C2/m'
_cell_length_a       7.89624
_cell_length_b       8.11845
_cell_length_c       8.11845
_cell_angle_alpha    112.722
_cell_angle_beta     96.1449
_cell_angle_gamma    96.1448

_symmetry_Int_Tables_number  12
_chemical_formula_structural  Rb3InS3
_chemical_formula_sum  Rb6In2S6
_cell_volume  470.9947166985647
_cell_formula_units_Z  2
loop_
  _symmetry_equiv_pos_site_id
 _symmetry_equiv_pos_as_xyz
 1  'x, y, z'
loop_
 _atom_site_type_symbol
 _atom_site_label
 _atom_site_symmetry_multiplicity
 _atom_site_fract_x
 _atom_site_fract_y
 _atom_site_fract_z
 _atom_site_fract_occupancy
 In  In1  1  0.14837  0.67819  0.67819  1
 In  In2  1  0.85163  0.32181  0.32181  1
 Rb  Rb1  1  -0.00000  0.25361  0.74639  1
 Rb  Rb2  1  0.50000  0.32384  0.67616  1
 Rb  Rb3  1  0.35331  0.11159  0.11159  1
 Rb  Rb4  1  0.50000  0.67616  0.32384  1
 Rb  Rb5  1  0.00000  0.74639  0.25361  1
 Rb  Rb6  1  0.64669  0.88841  0.88841  1
 S  S1  1  0.72207  0.04795  0.34799  1
 S  S2  1  0.81989  0.60089  0.60089  1
 S  S3  1  0.18011  0.39911  0.39911  1
 S  S4  1  0.27793  0.95205  0.65201  1
 S  S5  1  0.27793  0.65201  0.95205  1
 S  S6  1  0.72207  0.34799  0.04795  1
