CIF file written using JARVIS-Tools package.
data_Er3TaO7
_symmetry_space_group_name_H-M  'P-1'
_cell_length_a       6.30676
_cell_length_b       6.41753
_cell_length_c       7.51366
_cell_angle_alpha    106.819
_cell_angle_beta     89.738
_cell_angle_gamma    97.8109

_symmetry_Int_Tables_number  2
_chemical_formula_structural  Er3TaO7
_chemical_formula_sum  Er6Ta2O4
_cell_volume  288.20412581932504
_cell_formula_units_Z  2
loop_
  _symmetry_equiv_pos_site_id
 _symmetry_equiv_pos_as_xyz
 1  'x, y, z'
loop_
 _atom_site_type_symbol
 _atom_site_label
 _atom_site_symmetry_multiplicity
 _atom_site_fract_x
 _atom_site_fract_y
 _atom_site_fract_z
 _atom_site_fract_occupancy
 Er  Er1  1  0.73528  0.46179  0.11565  1
 Er  Er2  1  0.73392  0.45638  0.60836  1
 Er  Er3  1  0.54483  0.99260  0.75003  1
 Er  Er4  1  0.45517  0.00740  0.24997  1
 Er  Er5  1  0.26608  0.54362  0.39164  1
 Er  Er6  1  0.26472  0.53821  0.88435  1
 O  O1  1  0.70690  0.06981  0.48141  1
 O  O2  1  0.92002  0.67476  0.94987  1
 O  O3  1  0.07998  0.32524  0.05013  1
 O  O4  1  0.92542  0.66485  0.39133  1
 O  O5  1  0.90648  0.95202  0.73727  1
 O  O6  1  0.70619  0.07324  0.05255  1
 O  O7  1  0.53888  0.36125  0.34124  1
 O  O8  1  0.09352  0.04798  0.26273  1
 O  O9  1  0.44504  0.65299  0.16571  1
 O  O10  1  0.55496  0.34701  0.83429  1
 O  O11  1  0.07458  0.33515  0.60867  1
 O  O12  1  0.29381  0.92676  0.94745  1
 O  O13  1  0.46112  0.63875  0.65876  1
 O  O14  1  0.29310  0.93019  0.51859  1
 Ta  Ta1  1  -0.00000  0.00000  0.50000  1
 Ta  Ta2  1  0.00000  0.00000  0.00000  1
