CIF file written using JARVIS-Tools package.
data_SrAs2O6
_symmetry_space_group_name_H-M  'P-31m'
_cell_length_a       4.94878
_cell_length_b       4.94881
_cell_length_c       5.44721
_cell_angle_alpha    90.0003
_cell_angle_beta     89.9993
_cell_angle_gamma    120

_symmetry_Int_Tables_number  162
_chemical_formula_structural  SrAs2O6
_chemical_formula_sum  SrAs2O6
_cell_volume  115.53253256284589
_cell_formula_units_Z  1
loop_
  _symmetry_equiv_pos_site_id
 _symmetry_equiv_pos_as_xyz
 1  'x, y, z'
loop_
 _atom_site_type_symbol
 _atom_site_label
 _atom_site_symmetry_multiplicity
 _atom_site_fract_x
 _atom_site_fract_y
 _atom_site_fract_z
 _atom_site_fract_occupancy
 As  As1  1  0.33332  0.66666  0.50000  1
 As  As2  1  0.66666  0.33334  0.50000  1
 O  O1  1  -0.00001  0.61676  0.69410  1
 O  O2  1  0.99999  0.38324  0.30590  1
 O  O3  1  0.38323  0.38324  0.69410  1
 O  O4  1  0.61675  0.61676  0.30590  1
 O  O5  1  0.38323  -0.00000  0.30590  1
 O  O6  1  0.61675  0.00000  0.69410  1
 Sr  Sr1  1  -0.00001  0.00000  -0.00000  1
