CIF file written using JARVIS-Tools package.
data_MnCu2SiS4
_symmetry_space_group_name_H-M  'Pmn2_1'
_cell_length_a       6.19447
_cell_length_b       6.40277
_cell_length_c       7.49436
_cell_angle_alpha    90
_cell_angle_beta     90
_cell_angle_gamma    90

_symmetry_Int_Tables_number  31
_chemical_formula_structural  MnCu2SiS4
_chemical_formula_sum  Mn2Cu4Si2S8
_cell_volume  297.23962042297484
_cell_formula_units_Z  2
loop_
  _symmetry_equiv_pos_site_id
 _symmetry_equiv_pos_as_xyz
 1  'x, y, z'
loop_
 _atom_site_type_symbol
 _atom_site_label
 _atom_site_symmetry_multiplicity
 _atom_site_fract_x
 _atom_site_fract_y
 _atom_site_fract_z
 _atom_site_fract_occupancy
 Cu  Cu1  1  0.31978  0.67715  0.74872  1
 Cu  Cu2  1  0.81978  0.32285  0.75128  1
 Cu  Cu3  1  0.31978  0.67715  0.25128  1
 Cu  Cu4  1  0.81978  0.32285  0.24872  1
 Mn  Mn1  1  0.32974  0.15591  0.00000  1
 Mn  Mn2  1  0.82974  0.84409  0.50000  1
 S  S1  1  0.98230  0.18537  0.50000  1
 S  S2  1  0.48230  0.81463  0.00000  1
 S  S3  1  0.44969  0.33528  0.26623  1
 S  S4  1  0.94969  0.66472  0.23377  1
 S  S5  1  0.94322  0.14366  0.00000  1
 S  S6  1  0.44322  0.85634  0.50000  1
 S  S7  1  0.44969  0.33528  0.73377  1
 S  S8  1  0.94969  0.66472  0.76623  1
 Si  Si1  1  0.33089  0.17482  0.50000  1
 Si  Si2  1  0.83089  0.82518  0.00000  1
