CIF file written using JARVIS-Tools package.
data_Yb2K2O3
_symmetry_space_group_name_H-M  'P2_1/c'
_cell_length_a       6.50929
_cell_length_b       6.82185
_cell_length_c       6.55466
_cell_angle_alpha    90
_cell_angle_beta     115.652
_cell_angle_gamma    90

_symmetry_Int_Tables_number  14
_chemical_formula_structural  Yb2K2O3
_chemical_formula_sum  Yb4K4O6
_cell_volume  262.37411161744933
_cell_formula_units_Z  2
loop_
  _symmetry_equiv_pos_site_id
 _symmetry_equiv_pos_as_xyz
 1  'x, y, z'
loop_
 _atom_site_type_symbol
 _atom_site_label
 _atom_site_symmetry_multiplicity
 _atom_site_fract_x
 _atom_site_fract_y
 _atom_site_fract_z
 _atom_site_fract_occupancy
 K  K1  1  0.19113  0.34382  0.92231  1
 K  K2  1  0.19113  0.15618  0.42231  1
 K  K3  1  0.80887  0.84382  0.57769  1
 K  K4  1  0.80887  0.65618  0.07769  1
 O  O1  1  0.00000  0.50000  0.50000  1
 O  O2  1  0.00000  0.00000  0.00000  1
 O  O3  1  0.40685  0.89950  0.75828  1
 O  O4  1  0.59315  0.39950  0.74172  1
 O  O5  1  0.40685  0.60050  0.25828  1
 O  O6  1  0.59315  0.10050  0.24172  1
 Yb  Yb1  1  0.33000  0.62386  0.56014  1
 Yb  Yb2  1  0.67000  0.12386  0.93986  1
 Yb  Yb3  1  0.33000  0.87614  0.06014  1
 Yb  Yb4  1  0.67000  0.37614  0.43986  1
