CIF file written using JARVIS-Tools package.
data_KVCu2S4
_symmetry_space_group_name_H-M  'Ama2'
_cell_length_a       5.38337
_cell_length_b       7.29293
_cell_length_c       9.26826
_cell_angle_alpha    90
_cell_angle_beta     106.883
_cell_angle_gamma    90

_symmetry_Int_Tables_number  40
_chemical_formula_structural  KVCu2S4
_chemical_formula_sum  K2V2Cu4S8
_cell_volume  348.1934210291865
_cell_formula_units_Z  2
loop_
  _symmetry_equiv_pos_site_id
 _symmetry_equiv_pos_as_xyz
 1  'x, y, z'
loop_
 _atom_site_type_symbol
 _atom_site_label
 _atom_site_symmetry_multiplicity
 _atom_site_fract_x
 _atom_site_fract_y
 _atom_site_fract_z
 _atom_site_fract_occupancy
 Cu  Cu1  1  -0.00054  0.50000  -0.00000  1
 Cu  Cu2  1  -0.00054  0.00000  -0.00000  1
 Cu  Cu3  1  0.36651  0.75000  0.77938  1
 Cu  Cu4  1  0.58713  0.25000  0.22062  1
 K  K1  1  0.91532  0.75000  0.36239  1
 K  K2  1  0.55293  0.25000  0.63761  1
 S  S1  1  0.32425  0.49727  0.22384  1
 S  S2  1  0.10041  0.50273  0.77616  1
 S  S3  1  0.53244  0.75000  0.57765  1
 S  S4  1  0.95480  0.25000  0.42235  1
 S  S5  1  0.73169  0.75000  0.98388  1
 S  S6  1  0.74781  0.25000  0.01612  1
 S  S7  1  0.32425  0.00273  0.22384  1
 S  S8  1  0.10041  0.99727  0.77616  1
 V  V1  1  0.86537  0.75000  0.77619  1
 V  V2  1  0.08919  0.25000  0.22381  1
