CIF file written using JARVIS-Tools package.
data_BaPd
_symmetry_space_group_name_H-M  'P6_3/mmc'
_cell_length_a       5.56684
_cell_length_b       5.12822
_cell_length_c       5.12822
_cell_angle_alpha    119.997
_cell_angle_beta     90.0012
_cell_angle_gamma    90.0012

_symmetry_Int_Tables_number  194
_chemical_formula_structural  BaPd
_chemical_formula_sum  Ba2Pd2
_cell_volume  126.79056266467876
_cell_formula_units_Z  2
loop_
  _symmetry_equiv_pos_site_id
 _symmetry_equiv_pos_as_xyz
 1  'x, y, z'
loop_
 _atom_site_type_symbol
 _atom_site_label
 _atom_site_symmetry_multiplicity
 _atom_site_fract_x
 _atom_site_fract_y
 _atom_site_fract_z
 _atom_site_fract_occupancy
 Ba  Ba1  1  0.25000  0.33334  0.66666  1
 Ba  Ba2  1  0.75000  0.66666  0.33334  1
 Pd  Pd1  1  0.50000  -0.00000  0.00000  1
 Pd  Pd2  1  0.00000  0.00000  0.00000  1
