CIF file written using JARVIS-Tools package.
data_MgF2
_symmetry_space_group_name_H-M  'Amm2'
_cell_length_a       2.80957
_cell_length_b       3.74912
_cell_length_c       3.19594
_cell_angle_alpha    90
_cell_angle_beta     90
_cell_angle_gamma    112.005

_symmetry_Int_Tables_number  38
_chemical_formula_structural  MgF2
_chemical_formula_sum  MgF2
_cell_volume  31.21159324907712
_cell_formula_units_Z  1
loop_
  _symmetry_equiv_pos_site_id
 _symmetry_equiv_pos_as_xyz
 1  'x, y, z'
loop_
 _atom_site_type_symbol
 _atom_site_label
 _atom_site_symmetry_multiplicity
 _atom_site_fract_x
 _atom_site_fract_y
 _atom_site_fract_z
 _atom_site_fract_occupancy
 F  F1  1  0.56373  0.12747  0.00000  1
 F  F2  1  0.29908  0.59817  0.50000  1
 Mg  Mg1  1  0.01218  0.02436  0.50000  1
