CIF file written using JARVIS-Tools package.
data_ZnBi
_symmetry_space_group_name_H-M  'Cmc2_1'
_cell_length_a       4.77835
_cell_length_b       4.77835
_cell_length_c       6.18289
_cell_angle_alpha    90
_cell_angle_beta     90
_cell_angle_gamma    120.071

_symmetry_Int_Tables_number  36
_chemical_formula_structural  ZnBi
_chemical_formula_sum  Zn2Bi2
_cell_volume  122.1701537844084
_cell_formula_units_Z  2
loop_
  _symmetry_equiv_pos_site_id
 _symmetry_equiv_pos_as_xyz
 1  'x, y, z'
loop_
 _atom_site_type_symbol
 _atom_site_label
 _atom_site_symmetry_multiplicity
 _atom_site_fract_x
 _atom_site_fract_y
 _atom_site_fract_z
 _atom_site_fract_occupancy
 Bi  Bi1  1  0.42225  0.57775  0.05798  1
 Bi  Bi2  1  0.57775  0.42225  0.55798  1
 Zn  Zn1  1  0.24303  0.75697  0.56002  1
 Zn  Zn2  1  0.75697  0.24303  0.06002  1
