CIF file written using JARVIS-Tools package.
data_LiAl2Ru
_symmetry_space_group_name_H-M  'C2/m'
_cell_length_a       10.2896
_cell_length_b       7.18064
_cell_length_c       7.18059
_cell_angle_alpha    34.1424
_cell_angle_beta     19.9727
_cell_angle_gamma    19.9724

_symmetry_Int_Tables_number  12
_chemical_formula_structural  LiAl2Ru
_chemical_formula_sum  LiAl2Ru
_cell_volume  54.39295399957
_cell_formula_units_Z  1
loop_
  _symmetry_equiv_pos_site_id
 _symmetry_equiv_pos_as_xyz
 1  'x, y, z'
loop_
 _atom_site_type_symbol
 _atom_site_label
 _atom_site_symmetry_multiplicity
 _atom_site_fract_x
 _atom_site_fract_y
 _atom_site_fract_z
 _atom_site_fract_occupancy
 Al  Al1  1  0.75276  -0.00176  -0.00176  1
 Al  Al2  1  0.24724  0.00176  0.00176  1
 Li  Li1  1  0.00000  0.00000  0.00000  1
 Ru  Ru1  1  0.50000  0.00000  0.00000  1
