CIF file written using JARVIS-Tools package.
data_UV2
_symmetry_space_group_name_H-M  'Cmmm'
_cell_length_a       2.81938
_cell_length_b       4.28737
_cell_length_c       4.28737
_cell_angle_alpha    104.215
_cell_angle_beta     90
_cell_angle_gamma    90

_symmetry_Int_Tables_number  65
_chemical_formula_structural  UV2
_chemical_formula_sum  UV2
_cell_volume  50.23776423705054
_cell_formula_units_Z  1
loop_
  _symmetry_equiv_pos_site_id
 _symmetry_equiv_pos_as_xyz
 1  'x, y, z'
loop_
 _atom_site_type_symbol
 _atom_site_label
 _atom_site_symmetry_multiplicity
 _atom_site_fract_x
 _atom_site_fract_y
 _atom_site_fract_z
 _atom_site_fract_occupancy
 U  U1  1  0.00000  0.00000  0.00000  1
 V  V1  1  0.50000  0.66842  0.33158  1
 V  V2  1  0.50000  0.33158  0.66842  1
