CIF file written using JARVIS-Tools package.
data_SiO2
_symmetry_space_group_name_H-M  'P2'
_cell_length_a       4.33031
_cell_length_b       4.25409
_cell_length_c       7.94728
_cell_angle_alpha    90
_cell_angle_beta     93.7097
_cell_angle_gamma    90

_symmetry_Int_Tables_number  3
_chemical_formula_structural  SiO2
_chemical_formula_sum  Si4O8
_cell_volume  146.0940314059306
_cell_formula_units_Z  4
loop_
  _symmetry_equiv_pos_site_id
 _symmetry_equiv_pos_as_xyz
 1  'x, y, z'
loop_
 _atom_site_type_symbol
 _atom_site_label
 _atom_site_symmetry_multiplicity
 _atom_site_fract_x
 _atom_site_fract_y
 _atom_site_fract_z
 _atom_site_fract_occupancy
 O  O1  1  0.50000  0.32957  0.00000  1
 O  O2  1  0.37238  0.77107  0.79391  1
 O  O3  1  0.00000  0.85059  0.50000  1
 O  O4  1  0.89137  0.22527  0.78546  1
 O  O5  1  0.37509  0.28295  0.63368  1
 O  O6  1  0.62491  0.28295  0.36632  1
 O  O7  1  0.62762  0.77107  0.20609  1
 O  O8  1  0.10863  0.22527  0.21454  1
 Si  Si1  1  0.55411  0.41715  0.80535  1
 Si  Si2  1  0.86233  0.01032  0.32146  1
 Si  Si3  1  0.13767  0.01032  0.67854  1
 Si  Si4  1  0.44589  0.41715  0.19465  1
