CIF file written using JARVIS-Tools package.
data_PdF4
_symmetry_space_group_name_H-M  'Fdd2'
_cell_length_a       5.41554
_cell_length_b       5.41554
_cell_length_c       5.56436
_cell_angle_alpha    105.711
_cell_angle_beta     105.711
_cell_angle_gamma    116.331

_symmetry_Int_Tables_number  43
_chemical_formula_structural  PdF4
_chemical_formula_sum  Pd2F8
_cell_volume  125.51685285001592
_cell_formula_units_Z  2
loop_
  _symmetry_equiv_pos_site_id
 _symmetry_equiv_pos_as_xyz
 1  'x, y, z'
loop_
 _atom_site_type_symbol
 _atom_site_label
 _atom_site_symmetry_multiplicity
 _atom_site_fract_x
 _atom_site_fract_y
 _atom_site_fract_z
 _atom_site_fract_occupancy
 F  F1  1  0.97052  0.73591  0.17506  1
 F  F2  1  0.56085  0.79546  0.82494  1
 F  F3  1  0.03124  0.29740  0.32268  1
 F  F4  1  0.97473  0.70856  0.67732  1
 F  F5  1  0.04740  0.28124  0.82268  1
 F  F6  1  0.45856  0.22473  0.17732  1
 F  F7  1  0.54546  0.81085  0.32494  1
 F  F8  1  0.48591  0.22052  0.67506  1
 Pd  Pd1  1  0.73966  0.23966  0.50000  1
 Pd  Pd2  1  0.98966  0.98966  0.00000  1
