CIF file written using JARVIS-Tools package.
data_Ge2W
_symmetry_space_group_name_H-M  'I4/mmm'
_cell_length_a       3.35038
_cell_length_b       3.35038
_cell_length_c       4.78545
_cell_angle_alpha    110.491
_cell_angle_beta     110.491
_cell_angle_gamma    90

_symmetry_Int_Tables_number  139
_chemical_formula_structural  Ge2W
_chemical_formula_sum  Ge2W
_cell_volume  46.67238682666279
_cell_formula_units_Z  1
loop_
  _symmetry_equiv_pos_site_id
 _symmetry_equiv_pos_as_xyz
 1  'x, y, z'
loop_
 _atom_site_type_symbol
 _atom_site_label
 _atom_site_symmetry_multiplicity
 _atom_site_fract_x
 _atom_site_fract_y
 _atom_site_fract_z
 _atom_site_fract_occupancy
 Ge  Ge1  1  0.33830  0.33830  0.67660  1
 Ge  Ge2  1  0.66170  0.66170  0.32340  1
 W  W1  1  0.00000  0.00000  0.00000  1
