CIF file written using JARVIS-Tools package.
data_MoN
_symmetry_space_group_name_H-M  'P6_3/mmc'
_cell_length_a       2.86499
_cell_length_b       2.86499
_cell_length_c       5.69772
_cell_angle_alpha    90
_cell_angle_beta     90
_cell_angle_gamma    120

_symmetry_Int_Tables_number  194
_chemical_formula_structural  MoN
_chemical_formula_sum  Mo2N2
_cell_volume  40.502234690598954
_cell_formula_units_Z  2
loop_
  _symmetry_equiv_pos_site_id
 _symmetry_equiv_pos_as_xyz
 1  'x, y, z'
loop_
 _atom_site_type_symbol
 _atom_site_label
 _atom_site_symmetry_multiplicity
 _atom_site_fract_x
 _atom_site_fract_y
 _atom_site_fract_z
 _atom_site_fract_occupancy
 Mo  Mo1  1  1.00000  0.00000  0.94412  1
 Mo  Mo2  1  0.00000  1.00000  0.44412  1
 N  N1  1  0.66667  0.33333  0.69413  1
 N  N2  1  0.33333  0.66667  0.19413  1
