CIF file written using JARVIS-Tools package.
data_Ag2GeS3
_symmetry_space_group_name_H-M  'Cmc2_1'
_cell_length_a       6.53852
_cell_length_b       6.88081
_cell_length_c       6.88082
_cell_angle_alpha    118.552
_cell_angle_beta     90
_cell_angle_gamma    90

_symmetry_Int_Tables_number  36
_chemical_formula_structural  Ag2GeS3
_chemical_formula_sum  Ag4Ge2S6
_cell_volume  271.9199932509787
_cell_formula_units_Z  2
loop_
  _symmetry_equiv_pos_site_id
 _symmetry_equiv_pos_as_xyz
 1  'x, y, z'
loop_
 _atom_site_type_symbol
 _atom_site_label
 _atom_site_symmetry_multiplicity
 _atom_site_fract_x
 _atom_site_fract_y
 _atom_site_fract_z
 _atom_site_fract_occupancy
 Ag  Ag1  1  0.49182  0.30538  0.99506  1
 Ag  Ag2  1  0.99182  0.69462  0.00494  1
 Ag  Ag3  1  0.49182  0.99506  0.30538  1
 Ag  Ag4  1  0.99182  0.00494  0.69462  1
 Ge  Ge1  1  0.95948  0.33897  0.33897  1
 Ge  Ge2  1  0.45948  0.66103  0.66103  1
 S  S1  1  0.82336  0.64393  0.64393  1
 S  S2  1  0.32336  0.35607  0.35607  1
 S  S3  1  0.37526  0.64992  0.96639  1
 S  S4  1  0.37526  0.96639  0.64992  1
 S  S5  1  0.87526  0.03361  0.35008  1
 S  S6  1  0.87526  0.35008  0.03361  1
