CIF file written using JARVIS-Tools package.
data_Mn5CuO12
_symmetry_space_group_name_H-M  'C2/m'
_cell_length_a       5.00178
_cell_length_b       5.00193
_cell_length_c       8.92885
_cell_angle_alpha    95.3092
_cell_angle_beta     100.665
_cell_angle_gamma    60.0011

_symmetry_Int_Tables_number  12
_chemical_formula_structural  Mn5CuO12
_chemical_formula_sum  Mn5CuO2
_cell_volume  190.11882213470653
_cell_formula_units_Z  1
loop_
  _symmetry_equiv_pos_site_id
 _symmetry_equiv_pos_as_xyz
 1  'x, y, z'
loop_
 _atom_site_type_symbol
 _atom_site_label
 _atom_site_symmetry_multiplicity
 _atom_site_fract_x
 _atom_site_fract_y
 _atom_site_fract_z
 _atom_site_fract_occupancy
 Cu  Cu1  1  0.00000  0.00000  0.00000  1
 Mn  Mn1  1  0.16665  0.66671  0.50000  1
 Mn  Mn2  1  0.66666  0.66667  0.00000  1
 Mn  Mn3  1  0.33334  0.33333  -0.00000  1
 Mn  Mn4  1  0.83335  0.33329  0.50000  1
 Mn  Mn5  1  0.50000  -0.00000  0.50000  1
 O  O1  1  0.03606  0.65326  0.10912  1
 O  O2  1  0.31068  0.65326  0.89088  1
 O  O3  1  0.61716  0.00000  0.89087  1
 O  O4  1  0.46436  0.66669  0.39217  1
 O  O5  1  0.13104  0.33331  0.39217  1
 O  O6  1  0.68932  0.34674  0.10912  1
 O  O7  1  0.86896  0.66669  0.60783  1
 O  O8  1  0.53564  0.33331  0.60783  1
 O  O9  1  0.38283  -0.00000  0.10913  1
 O  O10  1  0.96394  0.34674  0.89088  1
 O  O11  1  0.20227  -0.00000  0.60785  1
 O  O12  1  0.79773  0.00000  0.39215  1
