CIF file written using JARVIS-Tools package.
data_Ca2Sn3O8
_symmetry_space_group_name_H-M  'C2/m'
_cell_length_a       5.38967
_cell_length_b       6.41748
_cell_length_c       6.54961
_cell_angle_alpha    119.335
_cell_angle_beta     108.015
_cell_angle_gamma    90

_symmetry_Int_Tables_number  12
_chemical_formula_structural  Ca2Sn3O8
_chemical_formula_sum  Ca2Sn3O8
_cell_volume  184.64510227425495
_cell_formula_units_Z  1
loop_
  _symmetry_equiv_pos_site_id
 _symmetry_equiv_pos_as_xyz
 1  'x, y, z'
loop_
 _atom_site_type_symbol
 _atom_site_label
 _atom_site_symmetry_multiplicity
 _atom_site_fract_x
 _atom_site_fract_y
 _atom_site_fract_z
 _atom_site_fract_occupancy
 Ca  Ca1  1  0.65454  0.71970  0.43940  1
 Ca  Ca2  1  0.34546  0.28030  0.56060  1
 O  O1  1  0.05840  0.39073  0.78147  1
 O  O2  1  0.94160  0.60927  0.21853  1
 O  O3  1  0.08484  0.89736  0.79471  1
 O  O4  1  0.91516  0.10264  0.20529  1
 O  O5  1  0.39868  0.33095  0.22023  1
 O  O6  1  0.39868  0.88929  0.22023  1
 O  O7  1  0.60133  0.11071  0.77977  1
 O  O8  1  0.60133  0.66905  0.77977  1
 Sn  Sn1  1  0.50000  1.00000  0.00000  1
 Sn  Sn2  1  1.00000  0.73769  -0.00000  1
 Sn  Sn3  1  1.00000  0.26231  0.00000  1
