CIF file written using JARVIS-Tools package.
data_LiOs2W
_symmetry_space_group_name_H-M  'Immm'
_cell_length_a       11.1968
_cell_length_b       6.17077
_cell_length_c       6.17076
_cell_angle_alpha    42.1678
_cell_angle_beta     24.8722
_cell_angle_gamma    24.8722

_symmetry_Int_Tables_number  71
_chemical_formula_structural  LiOs2W
_chemical_formula_sum  LiOs2W
_cell_volume  66.84846154321103
_cell_formula_units_Z  1
loop_
  _symmetry_equiv_pos_site_id
 _symmetry_equiv_pos_as_xyz
 1  'x, y, z'
loop_
 _atom_site_type_symbol
 _atom_site_label
 _atom_site_symmetry_multiplicity
 _atom_site_fract_x
 _atom_site_fract_y
 _atom_site_fract_z
 _atom_site_fract_occupancy
 Li  Li1  1  0.00000  0.00000  0.00000  1
 Os  Os1  1  0.71919  0.00000  0.00000  1
 Os  Os2  1  0.28081  -0.00000  -0.00000  1
 W  W1  1  0.50000  0.00000  0.00000  1
