CIF file written using JARVIS-Tools package.
data_MoSe2
_symmetry_space_group_name_H-M  'P-3m1'
_cell_length_a       3.32749
_cell_length_b       3.32749
_cell_length_c       34.7021
_cell_angle_alpha    90
_cell_angle_beta     90
_cell_angle_gamma    120

_symmetry_Int_Tables_number  164
_chemical_formula_structural  MoSe2
_chemical_formula_sum  Mo4Se8
_cell_volume  332.75235615095124
_cell_formula_units_Z  4
loop_
  _symmetry_equiv_pos_site_id
 _symmetry_equiv_pos_as_xyz
 1  'x, y, z'
loop_
 _atom_site_type_symbol
 _atom_site_label
 _atom_site_symmetry_multiplicity
 _atom_site_fract_x
 _atom_site_fract_y
 _atom_site_fract_z
 _atom_site_fract_occupancy
 Mo  Mo1  1  0.66667  0.33333  0.28291  1
 Mo  Mo2  1  0.66667  0.33333  0.66227  1
 Mo  Mo3  1  0.33333  0.66667  0.09324  1
 Mo  Mo4  1  0.33333  0.66667  0.47261  1
 Se  Se1  1  0.33333  0.66667  0.33113  1
 Se  Se2  1  0.33333  0.66667  0.71044  1
 Se  Se3  1  0.66667  0.33333  0.14148  1
 Se  Se4  1  0.66667  0.33333  0.52083  1
 Se  Se5  1  0.33333  0.66667  0.23469  1
 Se  Se6  1  0.33333  0.66667  0.61404  1
 Se  Se7  1  0.66667  0.33333  0.04508  1
 Se  Se8  1  0.66667  0.33333  0.42438  1
