CIF file written using JARVIS-Tools package.
data_CoF3
_symmetry_space_group_name_H-M  'Pm-3m'
_cell_length_a       5.36669
_cell_length_b       5.36669
_cell_length_c       6.5713
_cell_angle_alpha    90
_cell_angle_beta     90
_cell_angle_gamma    120

_symmetry_Int_Tables_number  221
_chemical_formula_structural  CoF3
_chemical_formula_sum  Co3F9
_cell_volume  163.90620519179004
_cell_formula_units_Z  3
loop_
  _symmetry_equiv_pos_site_id
 _symmetry_equiv_pos_as_xyz
 1  'x, y, z'
loop_
 _atom_site_type_symbol
 _atom_site_label
 _atom_site_symmetry_multiplicity
 _atom_site_fract_x
 _atom_site_fract_y
 _atom_site_fract_z
 _atom_site_fract_occupancy
 Co  Co1  1  0.66667  0.33333  0.33333  1
 Co  Co2  1  0.33333  0.66667  0.66667  1
 Co  Co3  1  0.00000  0.00000  0.00000  1
 F  F1  1  0.16671  0.83338  0.83332  1
 F  F2  1  0.16662  0.33332  0.83332  1
 F  F3  1  0.66668  0.83329  0.83332  1
 F  F4  1  0.50009  0.00000  0.50000  1
 F  F5  1  0.00000  0.50009  0.50000  1
 F  F6  1  0.49991  0.49991  0.50000  1
 F  F7  1  0.33332  0.16662  0.16668  1
 F  F8  1  0.83338  0.16671  0.16668  1
 F  F9  1  0.83329  0.66668  0.16668  1
