CIF file written using JARVIS-Tools package.
data_NaLiSe
_symmetry_space_group_name_H-M  'Pnma'
_cell_length_a       4.23875
_cell_length_b       7.14753
_cell_length_c       7.70221
_cell_angle_alpha    90
_cell_angle_beta     90
_cell_angle_gamma    90

_symmetry_Int_Tables_number  62
_chemical_formula_structural  NaLiSe
_chemical_formula_sum  Na4Li4Se4
_cell_volume  233.3510409819653
_cell_formula_units_Z  4
loop_
  _symmetry_equiv_pos_site_id
 _symmetry_equiv_pos_as_xyz
 1  'x, y, z'
loop_
 _atom_site_type_symbol
 _atom_site_label
 _atom_site_symmetry_multiplicity
 _atom_site_fract_x
 _atom_site_fract_y
 _atom_site_fract_z
 _atom_site_fract_occupancy
 Li  Li1  1  0.75000  0.35704  0.07138  1
 Li  Li2  1  0.25000  0.64296  0.92862  1
 Li  Li3  1  0.75000  0.85704  0.42862  1
 Li  Li4  1  0.25000  0.14296  0.57138  1
 Na  Na1  1  0.75000  0.48562  0.68261  1
 Na  Na2  1  0.25000  0.51438  0.31739  1
 Na  Na3  1  0.75000  0.98562  0.81739  1
 Na  Na4  1  0.25000  0.01438  0.18261  1
 Se  Se1  1  0.75000  0.72177  0.10756  1
 Se  Se2  1  0.25000  0.27823  0.89244  1
 Se  Se3  1  0.75000  0.22177  0.39244  1
 Se  Se4  1  0.25000  0.77823  0.60756  1
