CIF file written using JARVIS-Tools package.
data_YbHg2
_symmetry_space_group_name_H-M  'P6/mmm'
_cell_length_a       3.45471
_cell_length_b       4.94838
_cell_length_c       4.94792
_cell_angle_alpha    119.997
_cell_angle_beta     89.9999
_cell_angle_gamma    90.0096

_symmetry_Int_Tables_number  191
_chemical_formula_structural  YbHg2
_chemical_formula_sum  YbHg2
_cell_volume  73.25547762526412
_cell_formula_units_Z  1
loop_
  _symmetry_equiv_pos_site_id
 _symmetry_equiv_pos_as_xyz
 1  'x, y, z'
loop_
 _atom_site_type_symbol
 _atom_site_label
 _atom_site_symmetry_multiplicity
 _atom_site_fract_x
 _atom_site_fract_y
 _atom_site_fract_z
 _atom_site_fract_occupancy
 Hg  Hg1  1  0.49991  0.33330  0.66665  1
 Hg  Hg2  1  0.50009  0.66670  0.33335  1
 Yb  Yb1  1  0.00000  0.00000  0.00000  1
