CIF file written using JARVIS-Tools package.
data_CaAlSiH
_symmetry_space_group_name_H-M  'P3m1'
_cell_length_a       4.14325
_cell_length_b       4.14325
_cell_length_c       4.72404
_cell_angle_alpha    90
_cell_angle_beta     90
_cell_angle_gamma    120

_symmetry_Int_Tables_number  156
_chemical_formula_structural  CaAlSiH
_chemical_formula_sum  CaAlSiH
_cell_volume  70.23063150436026
_cell_formula_units_Z  1
loop_
  _symmetry_equiv_pos_site_id
 _symmetry_equiv_pos_as_xyz
 1  'x, y, z'
loop_
 _atom_site_type_symbol
 _atom_site_label
 _atom_site_symmetry_multiplicity
 _atom_site_fract_x
 _atom_site_fract_y
 _atom_site_fract_z
 _atom_site_fract_occupancy
 Al  Al1  1  0.66667  0.33333  0.54509  1
 Ca  Ca1  1  0.00000  0.00000  0.00167  1
 H  H1  1  0.66667  0.33333  0.91539  1
 Si  Si1  1  0.33333  0.66667  0.43114  1
