CIF file written using JARVIS-Tools package.
data_Sm2C3
_symmetry_space_group_name_H-M  'I-43d'
_cell_length_a       7.3267
_cell_length_b       7.3267
_cell_length_c       7.3267
_cell_angle_alpha    109.471
_cell_angle_beta     109.471
_cell_angle_gamma    109.471

_symmetry_Int_Tables_number  220
_chemical_formula_structural  Sm2C3
_chemical_formula_sum  Sm8C2
_cell_volume  302.7636423893017
_cell_formula_units_Z  4
loop_
  _symmetry_equiv_pos_site_id
 _symmetry_equiv_pos_as_xyz
 1  'x, y, z'
loop_
 _atom_site_type_symbol
 _atom_site_label
 _atom_site_symmetry_multiplicity
 _atom_site_fract_x
 _atom_site_fract_y
 _atom_site_fract_z
 _atom_site_fract_occupancy
 C  C1  1  0.04662  0.75000  0.79662  1
 C  C2  1  0.70338  0.45338  0.25000  1
 C  C3  1  0.25000  0.70338  0.45338  1
 C  C4  1  0.54662  0.29662  0.25000  1
 C  C5  1  0.25000  0.54662  0.29662  1
 C  C6  1  0.75000  0.79662  0.04662  1
 C  C7  1  0.75000  0.95338  0.20338  1
 C  C8  1  0.79662  0.04662  0.75000  1
 C  C9  1  0.20338  0.75000  0.95338  1
 C  C10  1  0.29662  0.25000  0.54662  1
 C  C11  1  0.45338  0.25000  0.70338  1
 C  C12  1  0.95338  0.20338  0.75000  1
 Sm  Sm1  1  0.50000  -0.00000  0.89685  1
 Sm  Sm2  1  0.60315  0.60315  0.60315  1
 Sm  Sm3  1  -0.00000  0.89685  0.50000  1
 Sm  Sm4  1  0.10315  0.10315  0.10315  1
 Sm  Sm5  1  0.89685  0.50000  -0.00000  1
 Sm  Sm6  1  0.50000  -0.00000  0.39685  1
 Sm  Sm7  1  -0.00000  0.39685  0.50000  1
 Sm  Sm8  1  0.39685  0.50000  -0.00000  1
