CIF file written using JARVIS-Tools package.
data_TiO2
_symmetry_space_group_name_H-M  'Pnma'
_cell_length_a       2.97818
_cell_length_b       4.89604
_cell_length_c       9.4003
_cell_angle_alpha    90
_cell_angle_beta     90
_cell_angle_gamma    90

_symmetry_Int_Tables_number  62
_chemical_formula_structural  TiO2
_chemical_formula_sum  Ti4O8
_cell_volume  137.06847710570239
_cell_formula_units_Z  4
loop_
  _symmetry_equiv_pos_site_id
 _symmetry_equiv_pos_as_xyz
 1  'x, y, z'
loop_
 _atom_site_type_symbol
 _atom_site_label
 _atom_site_symmetry_multiplicity
 _atom_site_fract_x
 _atom_site_fract_y
 _atom_site_fract_z
 _atom_site_fract_occupancy
 O  O1  1  0.25000  0.28657  0.47899  1
 O  O2  1  0.75000  0.71343  0.52101  1
 O  O3  1  0.75000  0.78657  0.02101  1
 O  O4  1  0.25000  0.21343  0.97899  1
 O  O5  1  0.25000  0.60135  0.26158  1
 O  O6  1  0.75000  0.39865  0.73842  1
 O  O7  1  0.75000  0.10135  0.23842  1
 O  O8  1  0.25000  0.89865  0.76158  1
 Ti  Ti1  1  0.25000  0.60328  0.63515  1
 Ti  Ti2  1  0.75000  0.39672  0.36485  1
 Ti  Ti3  1  0.75000  0.10328  0.86485  1
 Ti  Ti4  1  0.25000  0.89672  0.13515  1
