CIF file written using JARVIS-Tools package.
data_SiO2
_symmetry_space_group_name_H-M  'P6_422'
_cell_length_a       5.10174
_cell_length_b       5.10174
_cell_length_c       5.59497
_cell_angle_alpha    90
_cell_angle_beta     90
_cell_angle_gamma    120

_symmetry_Int_Tables_number  181
_chemical_formula_structural  SiO2
_chemical_formula_sum  Si3O6
_cell_volume  126.11493462356921
_cell_formula_units_Z  3
loop_
  _symmetry_equiv_pos_site_id
 _symmetry_equiv_pos_as_xyz
 1  'x, y, z'
loop_
 _atom_site_type_symbol
 _atom_site_label
 _atom_site_symmetry_multiplicity
 _atom_site_fract_x
 _atom_site_fract_y
 _atom_site_fract_z
 _atom_site_fract_occupancy
 O  O1  1  0.58408  0.79204  0.33333  1
 O  O2  1  0.79204  0.20796  0.66667  1
 O  O3  1  0.79204  0.58408  0.00000  1
 O  O4  1  0.41592  0.20796  0.33333  1
 O  O5  1  0.20796  0.79204  0.66667  1
 O  O6  1  0.20796  0.41592  0.00000  1
 Si  Si1  1  0.00000  0.50000  0.83333  1
 Si  Si2  1  0.50000  0.00000  0.50000  1
 Si  Si3  1  0.50000  0.50000  0.16667  1
