CIF file written using JARVIS-Tools package.
data_Sm4FeSe6O
_symmetry_space_group_name_H-M  'P6_3mc'
_cell_length_a       9.49441
_cell_length_b       9.49441
_cell_length_c       6.91623
_cell_angle_alpha    90
_cell_angle_beta     90
_cell_angle_gamma    120

_symmetry_Int_Tables_number  186
_chemical_formula_structural  Sm4FeSe6O
_chemical_formula_sum  Sm8Fe2Se2O2
_cell_volume  539.9289924596532
_cell_formula_units_Z  2
loop_
  _symmetry_equiv_pos_site_id
 _symmetry_equiv_pos_as_xyz
 1  'x, y, z'
loop_
 _atom_site_type_symbol
 _atom_site_label
 _atom_site_symmetry_multiplicity
 _atom_site_fract_x
 _atom_site_fract_y
 _atom_site_fract_z
 _atom_site_fract_occupancy
 Fe  Fe1  1  0.00000  0.00000  0.49283  1
 Fe  Fe2  1  0.00000  0.00000  0.99283  1
 O  O1  1  0.33333  0.66667  0.54312  1
 O  O2  1  0.66667  0.33333  0.04312  1
 Se  Se1  1  0.46929  0.53071  0.94728  1
 Se  Se2  1  0.53071  0.46929  0.44728  1
 Se  Se3  1  0.06142  0.53071  0.94728  1
 Se  Se4  1  0.53071  0.06142  0.44728  1
 Se  Se5  1  0.93858  0.46929  0.44728  1
 Se  Se6  1  0.46929  0.93858  0.94728  1
 Se  Se7  1  0.12480  0.87520  0.26578  1
 Se  Se8  1  0.24960  0.12480  0.76578  1
 Se  Se9  1  0.87520  0.12480  0.76578  1
 Se  Se10  1  0.75040  0.87520  0.26578  1
 Se  Se11  1  0.87520  0.75040  0.76578  1
 Se  Se12  1  0.12480  0.24960  0.26578  1
 Sm  Sm1  1  0.79996  0.20004  0.15917  1
 Sm  Sm2  1  0.59991  0.79996  0.65917  1
 Sm  Sm3  1  0.20004  0.40009  0.65917  1
 Sm  Sm4  1  0.79996  0.59991  0.15917  1
 Sm  Sm5  1  0.40009  0.20004  0.15917  1
 Sm  Sm6  1  0.20004  0.79996  0.65917  1
 Sm  Sm7  1  0.33333  0.66667  0.20971  1
 Sm  Sm8  1  0.66667  0.33333  0.70971  1
