CIF file written using JARVIS-Tools package.
data_Fe4OF7
_symmetry_space_group_name_H-M  'Amm2'
_cell_length_a       4.83349
_cell_length_b       4.83349
_cell_length_c       6.17711
_cell_angle_alpha    90
_cell_angle_beta     90
_cell_angle_gamma    88.6591

_symmetry_Int_Tables_number  38
_chemical_formula_structural  Fe4OF7
_chemical_formula_sum  Fe4OF7
_cell_volume  144.27406798343608
_cell_formula_units_Z  1
loop_
  _symmetry_equiv_pos_site_id
 _symmetry_equiv_pos_as_xyz
 1  'x, y, z'
loop_
 _atom_site_type_symbol
 _atom_site_label
 _atom_site_symmetry_multiplicity
 _atom_site_fract_x
 _atom_site_fract_y
 _atom_site_fract_z
 _atom_site_fract_occupancy
 F  F1  1  0.20302  0.79698  0.75000  1
 F  F2  1  0.29905  0.29452  0.99322  1
 F  F3  1  0.29905  0.29452  0.50678  1
 F  F4  1  0.70548  0.70095  0.99322  1
 F  F5  1  0.70548  0.70095  0.50678  1
 F  F6  1  0.77987  0.22013  0.25000  1
 F  F7  1  0.80947  0.19053  0.75000  1
 Fe  Fe1  1  0.00814  0.99186  0.01933  1
 Fe  Fe2  1  0.00814  0.99186  0.48067  1
 Fe  Fe3  1  0.47682  0.52318  0.25000  1
 Fe  Fe4  1  0.50488  0.49512  0.75000  1
 O  O1  1  0.20060  0.79940  0.25000  1
