CIF file written using JARVIS-Tools package.
data_S
_symmetry_space_group_name_H-M  'Im-3m'
_cell_length_a       3.19764
_cell_length_b       4.52301
_cell_length_c       4.52301
_cell_angle_alpha    90
_cell_angle_beta     90
_cell_angle_gamma    90

_symmetry_Int_Tables_number  229
_chemical_formula_structural  S
_chemical_formula_sum  S4
_cell_volume  65.41605154940878
_cell_formula_units_Z  4
loop_
  _symmetry_equiv_pos_site_id
 _symmetry_equiv_pos_as_xyz
 1  'x, y, z'
loop_
 _atom_site_type_symbol
 _atom_site_label
 _atom_site_symmetry_multiplicity
 _atom_site_fract_x
 _atom_site_fract_y
 _atom_site_fract_z
 _atom_site_fract_occupancy
 S  S1  1  0.50000  0.24996  0.75004  1
 S  S2  1  0.50000  0.75004  0.24996  1
 S  S3  1  0.00000  0.25004  0.25004  1
 S  S4  1  0.00000  0.74996  0.74996  1
