CIF file written using JARVIS-Tools package.
data_LiO2
_symmetry_space_group_name_H-M  'R-3m'
_cell_length_a       3.69121
_cell_length_b       3.69121
_cell_length_c       3.69121
_cell_angle_alpha    51.5442
_cell_angle_beta     51.5443
_cell_angle_gamma    51.5443

_symmetry_Int_Tables_number  166
_chemical_formula_structural  LiO2
_chemical_formula_sum  LiO2
_cell_volume  28.483579302542374
_cell_formula_units_Z  1
loop_
  _symmetry_equiv_pos_site_id
 _symmetry_equiv_pos_as_xyz
 1  'x, y, z'
loop_
 _atom_site_type_symbol
 _atom_site_label
 _atom_site_symmetry_multiplicity
 _atom_site_fract_x
 _atom_site_fract_y
 _atom_site_fract_z
 _atom_site_fract_occupancy
 Li  Li1  1  0.50000  0.50000  0.50000  1
 O  O1  1  0.27438  0.27438  0.27438  1
 O  O2  1  0.72562  0.72562  0.72562  1
