CIF file written using JARVIS-Tools package.
data_MnIn2W
_symmetry_space_group_name_H-M  'Cm'
_cell_length_a       4.92988
_cell_length_b       5.68015
_cell_length_c       5.68047
_cell_angle_alpha    30.3633
_cell_angle_beta     68.4215
_cell_angle_gamma    68.4192

_symmetry_Int_Tables_number  8
_chemical_formula_structural  MnIn2W
_chemical_formula_sum  MnIn2W
_cell_volume  74.33776735804523
_cell_formula_units_Z  1
loop_
  _symmetry_equiv_pos_site_id
 _symmetry_equiv_pos_as_xyz
 1  'x, y, z'
loop_
 _atom_site_type_symbol
 _atom_site_label
 _atom_site_symmetry_multiplicity
 _atom_site_fract_x
 _atom_site_fract_y
 _atom_site_fract_z
 _atom_site_fract_occupancy
 In  In1  1  0.94304  0.01871  0.01876  1
 In  In2  1  0.30862  0.23093  0.23100  1
 Mn  Mn1  1  0.47796  0.46894  0.46888  1
 W  W1  1  0.77038  0.78142  0.78137  1
