CIF file written using JARVIS-Tools package.
data_Li4CO4
_symmetry_space_group_name_H-M  'C2'
_cell_length_a       4.71502
_cell_length_b       4.60298
_cell_length_c       4.72648
_cell_angle_alpha    119.139
_cell_angle_beta     114.907
_cell_angle_gamma    90.0002

_symmetry_Int_Tables_number  5
_chemical_formula_structural  Li4CO4
_chemical_formula_sum  Li4CO4
_cell_volume  78.49364365546424
_cell_formula_units_Z  1
loop_
  _symmetry_equiv_pos_site_id
 _symmetry_equiv_pos_as_xyz
 1  'x, y, z'
loop_
 _atom_site_type_symbol
 _atom_site_label
 _atom_site_symmetry_multiplicity
 _atom_site_fract_x
 _atom_site_fract_y
 _atom_site_fract_z
 _atom_site_fract_occupancy
 C  C1  1  -0.00000  0.77383  -0.00000  1
 Li  Li1  1  0.10035  0.23323  0.74567  1
 Li  Li2  1  0.46113  0.75319  0.69052  1
 Li  Li3  1  0.89965  0.48755  0.25433  1
 Li  Li4  1  0.53888  0.06267  0.30949  1
 O  O1  1  0.10428  0.84575  0.79674  1
 O  O2  1  0.26097  0.70490  0.23260  1
 O  O3  1  0.73903  0.47231  0.76740  1
 O  O4  1  0.89572  0.04901  0.20326  1
