CIF file written using JARVIS-Tools package.
data_NaZr2AgF11
_symmetry_space_group_name_H-M  'P-1'
_cell_length_a       5.84469
_cell_length_b       5.5792
_cell_length_c       7.86137
_cell_angle_alpha    69.7241
_cell_angle_beta     108.456
_cell_angle_gamma    107.07

_symmetry_Int_Tables_number  2
_chemical_formula_structural  NaZr2AgF11
_chemical_formula_sum  NaZr2AgF
_cell_volume  223.1751987447182
_cell_formula_units_Z  1
loop_
  _symmetry_equiv_pos_site_id
 _symmetry_equiv_pos_as_xyz
 1  'x, y, z'
loop_
 _atom_site_type_symbol
 _atom_site_label
 _atom_site_symmetry_multiplicity
 _atom_site_fract_x
 _atom_site_fract_y
 _atom_site_fract_z
 _atom_site_fract_occupancy
 Ag  Ag1  1  -0.00000  0.00000  0.50000  1
 F  F1  1  0.31396  0.79407  0.11262  1
 F  F2  1  0.30143  0.36900  -0.01527  1
 F  F3  1  0.69857  0.63100  0.01527  1
 F  F4  1  0.84043  0.74820  0.72267  1
 F  F5  1  0.83151  0.74902  0.31249  1
 F  F6  1  0.16849  0.25098  0.68751  1
 F  F7  1  0.68604  0.20593  0.88738  1
 F  F8  1  0.15957  0.25180  0.27733  1
 F  F9  1  0.64095  0.18817  0.34036  1
 F  F10  1  0.35905  0.81183  0.65964  1
 F  F11  1  0.50000  0.50000  0.50000  1
 Na  Na1  1  0.00000  0.00000  0.00000  1
 Zr  Zr1  1  0.49658  0.50599  0.22920  1
 Zr  Zr2  1  0.50342  0.49401  0.77080  1
