CIF file written using JARVIS-Tools package.
data_TaTcPb2
_symmetry_space_group_name_H-M  'R3m'
_cell_length_a       5.77809
_cell_length_b       5.77806
_cell_length_c       5.77813
_cell_angle_alpha    46.3285
_cell_angle_beta     46.3266
_cell_angle_gamma    46.3302

_symmetry_Int_Tables_number  160
_chemical_formula_structural  TaTcPb2
_chemical_formula_sum  TaTcPb2
_cell_volume  92.12225788936964
_cell_formula_units_Z  1
loop_
  _symmetry_equiv_pos_site_id
 _symmetry_equiv_pos_as_xyz
 1  'x, y, z'
loop_
 _atom_site_type_symbol
 _atom_site_label
 _atom_site_symmetry_multiplicity
 _atom_site_fract_x
 _atom_site_fract_y
 _atom_site_fract_z
 _atom_site_fract_occupancy
 Pb  Pb1  1  0.01575  0.01569  0.01579  1
 Pb  Pb2  1  0.23289  0.23295  0.23287  1
 Ta  Ta1  1  0.44634  0.44634  0.44633  1
 Tc  Tc1  1  0.80501  0.80501  0.80500  1
