CIF file written using JARVIS-Tools package.
data_MoH2O4
_symmetry_space_group_name_H-M  'P1'
_cell_length_a       3.76467
_cell_length_b       5.93553
_cell_length_c       7.28151
_cell_angle_alpha    74.4157
_cell_angle_beta     89.299
_cell_angle_gamma    71.8296

_symmetry_Int_Tables_number  1
_chemical_formula_structural  MoH2O4
_chemical_formula_sum  Mo2H4O8
_cell_volume  148.45466628334503
_cell_formula_units_Z  2
loop_
  _symmetry_equiv_pos_site_id
 _symmetry_equiv_pos_as_xyz
 1  'x, y, z'
loop_
 _atom_site_type_symbol
 _atom_site_label
 _atom_site_symmetry_multiplicity
 _atom_site_fract_x
 _atom_site_fract_y
 _atom_site_fract_z
 _atom_site_fract_occupancy
 H  H1  1  0.68047  0.62137  0.81240  1
 H  H2  1  0.78870  0.48023  0.16756  1
 H  H3  1  0.25152  0.62371  0.81191  1
 H  H4  1  0.35342  0.35158  0.17446  1
 Mo  Mo1  1  0.23116  0.12094  0.76737  1
 Mo  Mo2  1  0.85388  0.90603  0.21147  1
 O  O1  1  0.19429  0.20652  0.52654  1
 O  O2  1  0.89705  0.81208  0.45173  1
 O  O3  1  0.30074  0.94390  0.13504  1
 O  O4  1  0.76072  0.04517  0.83562  1
 O  O5  1  0.07729  0.40370  0.82270  1
 O  O6  1  0.93553  0.59865  0.16099  1
 O  O7  1  0.41492  0.72881  0.80896  1
 O  O8  1  0.62168  0.25729  0.17082  1
