CIF file written using JARVIS-Tools package.
data_Na3BN2
_symmetry_space_group_name_H-M  'P2_1/c'
_cell_length_a       5.70406
_cell_length_b       7.93352
_cell_length_c       7.84171
_cell_angle_alpha    90
_cell_angle_beta     111.322
_cell_angle_gamma    90

_symmetry_Int_Tables_number  14
_chemical_formula_structural  Na3BN2
_chemical_formula_sum  Na2B4N8
_cell_volume  330.5722794592881
_cell_formula_units_Z  4
loop_
  _symmetry_equiv_pos_site_id
 _symmetry_equiv_pos_as_xyz
 1  'x, y, z'
loop_
 _atom_site_type_symbol
 _atom_site_label
 _atom_site_symmetry_multiplicity
 _atom_site_fract_x
 _atom_site_fract_y
 _atom_site_fract_z
 _atom_site_fract_occupancy
 B  B1  1  0.78598  0.32174  0.82363  1
 B  B2  1  0.21402  0.67826  0.17637  1
 B  B3  1  0.78598  0.17826  0.32363  1
 B  B4  1  0.21402  0.82174  0.67637  1
 N  N1  1  0.01017  0.72015  0.62980  1
 N  N2  1  0.98983  0.27985  0.37020  1
 N  N3  1  0.41667  0.57522  0.22330  1
 N  N4  1  0.41667  0.92478  0.72330  1
 N  N5  1  0.01017  0.77985  0.12980  1
 N  N6  1  0.58333  0.07522  0.27670  1
 N  N7  1  0.58333  0.42478  0.77670  1
 N  N8  1  0.98983  0.22015  0.87020  1
 Na  Na1  1  0.74177  0.70829  0.81342  1
 Na  Na2  1  0.25823  0.29171  0.18658  1
 Na  Na3  1  0.74177  0.79171  0.31342  1
 Na  Na4  1  0.24032  0.51976  0.87773  1
 Na  Na5  1  0.25135  0.53110  0.49193  1
 Na  Na6  1  0.75968  0.48024  0.12227  1
 Na  Na7  1  0.24032  0.98024  0.37773  1
 Na  Na8  1  0.25135  0.96890  0.99193  1
 Na  Na9  1  0.74865  0.46890  0.50807  1
 Na  Na10  1  0.74865  0.03110  0.00807  1
 Na  Na11  1  0.25823  0.20829  0.68658  1
 Na  Na12  1  0.75968  0.01976  0.62227  1
