CIF file written using JARVIS-Tools package.
data_Ge3Te
_symmetry_space_group_name_H-M  'I4/mmm'
_cell_length_a       6.08575
_cell_length_b       6.08575
_cell_length_c       6.08575
_cell_angle_alpha    139.743
_cell_angle_beta     139.743
_cell_angle_gamma    58.2432

_symmetry_Int_Tables_number  139
_chemical_formula_structural  Ge3Te
_chemical_formula_sum  Ge3Te
_cell_volume  93.26950036845274
_cell_formula_units_Z  1
loop_
  _symmetry_equiv_pos_site_id
 _symmetry_equiv_pos_as_xyz
 1  'x, y, z'
loop_
 _atom_site_type_symbol
 _atom_site_label
 _atom_site_symmetry_multiplicity
 _atom_site_fract_x
 _atom_site_fract_y
 _atom_site_fract_z
 _atom_site_fract_occupancy
 Ge  Ge1  1  0.75000  0.25000  0.50000  1
 Ge  Ge2  1  0.25000  0.75000  0.50000  1
 Ge  Ge3  1  0.50000  0.50000  0.00000  1
 Te  Te1  1  0.00000  0.00000  0.00000  1
