CIF file written using JARVIS-Tools package.
data_SiO2
_symmetry_space_group_name_H-M  'Pc'
_cell_length_a       4.30418
_cell_length_b       4.26854
_cell_length_c       8.06721
_cell_angle_alpha    90
_cell_angle_beta     121.605
_cell_angle_gamma    90

_symmetry_Int_Tables_number  7
_chemical_formula_structural  SiO2
_chemical_formula_sum  Si4O8
_cell_volume  126.2320204869469
_cell_formula_units_Z  4
loop_
  _symmetry_equiv_pos_site_id
 _symmetry_equiv_pos_as_xyz
 1  'x, y, z'
loop_
 _atom_site_type_symbol
 _atom_site_label
 _atom_site_symmetry_multiplicity
 _atom_site_fract_x
 _atom_site_fract_y
 _atom_site_fract_z
 _atom_site_fract_occupancy
 O  O1  1  0.98080  0.24621  0.66002  1
 O  O2  1  0.34090  0.72395  0.57958  1
 O  O3  1  0.34090  0.27605  0.07958  1
 O  O4  1  0.66129  0.70498  0.38926  1
 O  O5  1  0.14234  0.77339  0.88178  1
 O  O6  1  0.14234  0.22661  0.38178  1
 O  O7  1  0.98080  0.75379  0.16002  1
 O  O8  1  0.66129  0.29502  0.88926  1
 Si  Si1  1  0.30586  0.12410  0.88065  1
 Si  Si2  1  0.01618  0.53872  0.00389  1
 Si  Si3  1  0.01618  0.46128  0.50389  1
 Si  Si4  1  0.30586  0.87590  0.38065  1
