CIF file written using JARVIS-Tools package.
data_Ti2CuS4
_symmetry_space_group_name_H-M  'R-3m'
_cell_length_a       12.2895
_cell_length_b       12.2895
_cell_length_c       12.2895
_cell_angle_alpha    33.2185
_cell_angle_beta     33.2185
_cell_angle_gamma    33.2185

_symmetry_Int_Tables_number  166
_chemical_formula_structural  Ti2CuS4
_chemical_formula_sum  Ti8Cu4S6
_cell_volume  495.9058826237267
_cell_formula_units_Z  4
loop_
  _symmetry_equiv_pos_site_id
 _symmetry_equiv_pos_as_xyz
 1  'x, y, z'
loop_
 _atom_site_type_symbol
 _atom_site_label
 _atom_site_symmetry_multiplicity
 _atom_site_fract_x
 _atom_site_fract_y
 _atom_site_fract_z
 _atom_site_fract_occupancy
 Cu  Cu1  1  0.81254  0.81254  0.81254  1
 Cu  Cu2  1  0.64670  0.64670  0.64670  1
 Cu  Cu3  1  0.35330  0.35330  0.35330  1
 Cu  Cu4  1  0.18746  0.18746  0.18746  1
 S  S1  1  0.28837  0.28837  0.28837  1
 S  S2  1  0.38516  0.38516  0.86121  1
 S  S3  1  0.86121  0.38516  0.38516  1
 S  S4  1  0.79850  0.79850  0.27589  1
 S  S5  1  0.87665  0.87665  0.87665  1
 S  S6  1  0.13879  0.61484  0.61484  1
 S  S7  1  0.61484  0.13879  0.61484  1
 S  S8  1  0.20150  0.20150  0.72411  1
 S  S9  1  0.27589  0.79850  0.79850  1
 S  S10  1  0.38516  0.86121  0.38516  1
 S  S11  1  0.72411  0.20150  0.20150  1
 S  S12  1  0.12335  0.12335  0.12335  1
 S  S13  1  0.61484  0.61484  0.13879  1
 S  S14  1  0.79850  0.27589  0.79850  1
 S  S15  1  0.71163  0.71163  0.71163  1
 S  S16  1  0.20150  0.72411  0.20150  1
 Ti  Ti1  1  0.00000  0.00000  0.00000  1
 Ti  Ti2  1  0.41852  0.91743  0.91743  1
 Ti  Ti3  1  0.08257  0.58148  0.08257  1
 Ti  Ti4  1  0.58148  0.08257  0.08257  1
 Ti  Ti5  1  0.91743  0.91743  0.41852  1
 Ti  Ti6  1  0.50000  0.50000  0.50000  1
 Ti  Ti7  1  0.08257  0.08257  0.58148  1
 Ti  Ti8  1  0.91743  0.41852  0.91743  1
