CIF file written using JARVIS-Tools package.
data_NbGaO4
_symmetry_space_group_name_H-M  'C2/m'
_cell_length_a       3.83828
_cell_length_b       6.61875
_cell_length_c       6.71627
_cell_angle_alpha    107.163
_cell_angle_beta     90
_cell_angle_gamma    106.855

_symmetry_Int_Tables_number  12
_chemical_formula_structural  NbGaO4
_chemical_formula_sum  Nb2Ga2O8
_cell_volume  155.33770109522644
_cell_formula_units_Z  2
loop_
  _symmetry_equiv_pos_site_id
 _symmetry_equiv_pos_as_xyz
 1  'x, y, z'
loop_
 _atom_site_type_symbol
 _atom_site_label
 _atom_site_symmetry_multiplicity
 _atom_site_fract_x
 _atom_site_fract_y
 _atom_site_fract_z
 _atom_site_fract_occupancy
 Ga  Ga1  1  0.19513  0.39407  0.81611  1
 Ga  Ga2  1  0.80106  0.60593  0.18389  1
 Nb  Nb1  1  0.10161  0.20704  0.23220  1
 Nb  Nb2  1  0.89457  0.79296  0.76780  1
 O  O1  1  0.86132  0.72645  0.48267  1
 O  O2  1  0.13487  0.27355  0.51733  1
 O  O3  1  0.94322  0.89025  0.13294  1
 O  O4  1  0.05296  0.10975  0.86706  1
 O  O5  1  0.25700  0.51781  0.14538  1
 O  O6  1  0.73919  0.48219  0.85462  1
 O  O7  1  0.35899  0.72180  0.79735  1
 O  O8  1  0.63719  0.27820  0.20265  1
