CIF file written using JARVIS-Tools package.
data_PBr
_symmetry_space_group_name_H-M  'Pm-3m'
_cell_length_a       3.47812
_cell_length_b       4.91885
_cell_length_c       4.91885
_cell_angle_alpha    90
_cell_angle_beta     90
_cell_angle_gamma    90

_symmetry_Int_Tables_number  221
_chemical_formula_structural  PBr
_chemical_formula_sum  P2Br2
_cell_volume  84.1535295982779
_cell_formula_units_Z  2
loop_
  _symmetry_equiv_pos_site_id
 _symmetry_equiv_pos_as_xyz
 1  'x, y, z'
loop_
 _atom_site_type_symbol
 _atom_site_label
 _atom_site_symmetry_multiplicity
 _atom_site_fract_x
 _atom_site_fract_y
 _atom_site_fract_z
 _atom_site_fract_occupancy
 Br  Br1  1  0.50000  0.75000  0.75000  1
 Br  Br2  1  0.50000  0.25000  0.25000  1
 P  P1  1  0.00000  0.75000  0.25000  1
 P  P2  1  0.00000  0.25000  0.75000  1
