CIF file written using JARVIS-Tools package.
data_CuO
_symmetry_space_group_name_H-M  'P4_2/mmc'
_cell_length_a       2.92969
_cell_length_b       2.92969
_cell_length_c       5.17517
_cell_angle_alpha    89.9613
_cell_angle_beta     89.9613
_cell_angle_gamma    89.9928

_symmetry_Int_Tables_number  131
_chemical_formula_structural  CuO
_chemical_formula_sum  Cu2O2
_cell_volume  44.41887441770959
_cell_formula_units_Z  2
loop_
  _symmetry_equiv_pos_site_id
 _symmetry_equiv_pos_as_xyz
 1  'x, y, z'
loop_
 _atom_site_type_symbol
 _atom_site_label
 _atom_site_symmetry_multiplicity
 _atom_site_fract_x
 _atom_site_fract_y
 _atom_site_fract_z
 _atom_site_fract_occupancy
 Cu  Cu1  1  0.00000  0.50000  0.50000  1
 Cu  Cu2  1  0.50000  0.00000  -0.00000  1
 O  O1  1  0.50023  0.49977  0.25000  1
 O  O2  1  0.49977  0.50023  0.75000  1
