CIF file written using JARVIS-Tools package.
data_Ga2TeO6
_symmetry_space_group_name_H-M  'P4_2/mnm'
_cell_length_a       4.60372
_cell_length_b       4.60372
_cell_length_c       9.11724
_cell_angle_alpha    90
_cell_angle_beta     90
_cell_angle_gamma    90

_symmetry_Int_Tables_number  136
_chemical_formula_structural  Ga2TeO6
_chemical_formula_sum  Ga4Te2O2
_cell_volume  193.23312734523316
_cell_formula_units_Z  2
loop_
  _symmetry_equiv_pos_site_id
 _symmetry_equiv_pos_as_xyz
 1  'x, y, z'
loop_
 _atom_site_type_symbol
 _atom_site_label
 _atom_site_symmetry_multiplicity
 _atom_site_fract_x
 _atom_site_fract_y
 _atom_site_fract_z
 _atom_site_fract_occupancy
 Ga  Ga1  1  0.00000  0.00000  0.33460  1
 Ga  Ga2  1  0.50000  0.50000  0.83460  1
 Ga  Ga3  1  0.50000  0.50000  0.16540  1
 Ga  Ga4  1  0.00000  0.00000  0.66540  1
 O  O1  1  0.80665  0.80665  0.83632  1
 O  O2  1  0.19335  0.19335  0.83632  1
 O  O3  1  0.19335  0.19335  0.16368  1
 O  O4  1  0.30665  0.69335  0.33632  1
 O  O5  1  0.80665  0.80665  0.16368  1
 O  O6  1  0.69335  0.30665  0.66368  1
 O  O7  1  0.80157  0.80157  0.50000  1
 O  O8  1  0.69335  0.30665  0.33632  1
 O  O9  1  0.19843  0.19843  0.50000  1
 O  O10  1  0.69843  0.30157  0.00000  1
 O  O11  1  0.30157  0.69843  0.00000  1
 O  O12  1  0.30665  0.69335  0.66368  1
 Te  Te1  1  0.00000  0.00000  0.00000  1
 Te  Te2  1  0.50000  0.50000  0.50000  1
