CIF file written using JARVIS-Tools package.
data_Rb2CrCl4
_symmetry_space_group_name_H-M  'I4/mmm'
_cell_length_a       4.97392
_cell_length_b       4.97393
_cell_length_c       8.72278
_cell_angle_alpha    106.566
_cell_angle_beta     106.565
_cell_angle_gamma    90

_symmetry_Int_Tables_number  139
_chemical_formula_structural  Rb2CrCl4
_chemical_formula_sum  Rb2CrCl4
_cell_volume  197.48114725782708
_cell_formula_units_Z  1
loop_
  _symmetry_equiv_pos_site_id
 _symmetry_equiv_pos_as_xyz
 1  'x, y, z'
loop_
 _atom_site_type_symbol
 _atom_site_label
 _atom_site_symmetry_multiplicity
 _atom_site_fract_x
 _atom_site_fract_y
 _atom_site_fract_z
 _atom_site_fract_occupancy
 Cl  Cl1  1  0.15484  0.15484  0.30967  1
 Cl  Cl2  1  0.84516  0.84516  0.69033  1
 Cl  Cl3  1  0.50000  -0.00000  -0.00000  1
 Cl  Cl4  1  -0.00000  0.50000  -0.00000  1
 Cr  Cr1  1  0.00000  0.00000  0.00000  1
 Rb  Rb1  1  0.64149  0.64149  0.28299  1
 Rb  Rb2  1  0.35851  0.35851  0.71701  1
