CIF file written using JARVIS-Tools package.
data_BeSiP2
_symmetry_space_group_name_H-M  'I-42d'
_cell_length_a       5.14169
_cell_length_b       5.14169
_cell_length_c       6.28934
_cell_angle_alpha    114.127
_cell_angle_beta     114.127
_cell_angle_gamma    90

_symmetry_Int_Tables_number  122
_chemical_formula_structural  BeSiP2
_chemical_formula_sum  Be2Si2P4
_cell_volume  135.67455834060135
_cell_formula_units_Z  2
loop_
  _symmetry_equiv_pos_site_id
 _symmetry_equiv_pos_as_xyz
 1  'x, y, z'
loop_
 _atom_site_type_symbol
 _atom_site_label
 _atom_site_symmetry_multiplicity
 _atom_site_fract_x
 _atom_site_fract_y
 _atom_site_fract_z
 _atom_site_fract_occupancy
 Be  Be1  1  0.75000  0.25000  0.50000  1
 Be  Be2  1  0.00000  0.00000  0.00000  1
 P  P1  1  0.10871  0.12500  0.75000  1
 P  P2  1  0.87500  0.35871  0.25000  1
 P  P3  1  0.37500  0.89129  0.25000  1
 P  P4  1  0.64129  0.62500  0.75000  1
 Si  Si1  1  0.25000  0.75000  0.50000  1
 Si  Si2  1  0.50000  0.50000  0.00000  1
