CIF file written using JARVIS-Tools package.
data_Y3Si3Rh
_symmetry_space_group_name_H-M  'C2/m'
_cell_length_a       4.23473
_cell_length_b       5.70417
_cell_length_c       12.9218
_cell_angle_alpha    84.5214
_cell_angle_beta     80.5689
_cell_angle_gamma    68.2106

_symmetry_Int_Tables_number  12
_chemical_formula_structural  Y3Si3Rh
_chemical_formula_sum  Y6Si6Rh2
_cell_volume  285.71107775017185
_cell_formula_units_Z  2
loop_
  _symmetry_equiv_pos_site_id
 _symmetry_equiv_pos_as_xyz
 1  'x, y, z'
loop_
 _atom_site_type_symbol
 _atom_site_label
 _atom_site_symmetry_multiplicity
 _atom_site_fract_x
 _atom_site_fract_y
 _atom_site_fract_z
 _atom_site_fract_occupancy
 Rh  Rh1  1  0.75376  0.07863  0.41384  1
 Rh  Rh2  1  0.24624  0.92137  0.58616  1
 Si  Si1  1  0.95501  0.85357  0.23640  1
 Si  Si2  1  0.04499  0.14643  0.76360  1
 Si  Si3  1  0.86871  0.71831  0.54428  1
 Si  Si4  1  0.13129  0.28169  0.45572  1
 Si  Si5  1  0.11442  0.84639  0.92477  1
 Si  Si6  1  0.88558  0.15361  0.07523  1
 Y  Y1  1  0.60241  0.71626  0.07891  1
 Y  Y2  1  0.39759  0.28374  0.92109  1
 Y  Y3  1  0.52243  0.33114  0.62400  1
 Y  Y4  1  0.47757  0.66886  0.37600  1
 Y  Y5  1  0.25687  0.25824  0.22802  1
 Y  Y6  1  0.74313  0.74176  0.77198  1
