CIF file written using JARVIS-Tools package.
data_TiO2
_symmetry_space_group_name_H-M  'Pnma'
_cell_length_a       2.97845
_cell_length_b       4.72308
_cell_length_c       18.8252
_cell_angle_alpha    90
_cell_angle_beta     90
_cell_angle_gamma    90

_symmetry_Int_Tables_number  62
_chemical_formula_structural  TiO2
_chemical_formula_sum  Ti8O6
_cell_volume  264.8222124312943
_cell_formula_units_Z  8
loop_
  _symmetry_equiv_pos_site_id
 _symmetry_equiv_pos_as_xyz
 1  'x, y, z'
loop_
 _atom_site_type_symbol
 _atom_site_label
 _atom_site_symmetry_multiplicity
 _atom_site_fract_x
 _atom_site_fract_y
 _atom_site_fract_z
 _atom_site_fract_occupancy
 O  O1  1  0.25000  0.14934  0.38337  1
 O  O2  1  0.25000  0.71369  0.98426  1
 O  O3  1  0.75000  0.85860  0.86045  1
 O  O4  1  0.25000  0.35066  0.88337  1
 O  O5  1  0.25000  0.14140  0.13955  1
 O  O6  1  0.75000  0.23412  0.76141  1
 O  O7  1  0.75000  0.85066  0.61663  1
 O  O8  1  0.25000  0.73412  0.73859  1
 O  O9  1  0.75000  0.21369  0.51574  1
 O  O10  1  0.25000  0.78631  0.48426  1
 O  O11  1  0.75000  0.64140  0.36045  1
 O  O12  1  0.75000  0.28631  0.01574  1
 O  O13  1  0.25000  0.76588  0.23859  1
 O  O14  1  0.75000  0.26588  0.26141  1
 O  O15  1  0.75000  0.64934  0.11663  1
 O  O16  1  0.25000  0.35860  0.63955  1
 Ti  Ti1  1  0.25000  0.43260  0.06935  1
 Ti  Ti2  1  0.75000  0.93431  0.18861  1
 Ti  Ti3  1  0.25000  0.43431  0.31139  1
 Ti  Ti4  1  0.75000  0.93260  0.43065  1
 Ti  Ti5  1  0.25000  0.06740  0.56935  1
 Ti  Ti6  1  0.75000  0.56569  0.68861  1
 Ti  Ti7  1  0.25000  0.06569  0.81139  1
 Ti  Ti8  1  0.75000  0.56740  0.93065  1
