CIF file written using JARVIS-Tools package.
data_RbFeSe2O8
_symmetry_space_group_name_H-M  'P321'
_cell_length_a       5.0351
_cell_length_b       5.0351
_cell_length_c       8.54856
_cell_angle_alpha    90
_cell_angle_beta     90
_cell_angle_gamma    120

_symmetry_Int_Tables_number  150
_chemical_formula_structural  RbFeSe2O8
_chemical_formula_sum  RbFeSe2O8
_cell_volume  187.68981151073746
_cell_formula_units_Z  1
loop_
  _symmetry_equiv_pos_site_id
 _symmetry_equiv_pos_as_xyz
 1  'x, y, z'
loop_
 _atom_site_type_symbol
 _atom_site_label
 _atom_site_symmetry_multiplicity
 _atom_site_fract_x
 _atom_site_fract_y
 _atom_site_fract_z
 _atom_site_fract_occupancy
 Fe  Fe1  1  0.00000  0.00000  0.50000  1
 O  O1  1  0.71654  0.67258  0.34555  1
 O  O2  1  0.95604  0.28346  0.34555  1
 O  O3  1  0.32742  0.04396  0.34555  1
 O  O4  1  0.67258  0.71654  0.65445  1
 O  O5  1  0.33333  0.66667  0.90954  1
 O  O6  1  0.66667  0.33333  0.09046  1
 O  O7  1  0.04396  0.32742  0.65445  1
 O  O8  1  0.28346  0.95604  0.65445  1
 Rb  Rb1  1  0.00000  0.00000  0.00000  1
 Se  Se1  1  0.66667  0.33333  0.28260  1
 Se  Se2  1  0.33333  0.66667  0.71740  1
