CIF file written using JARVIS-Tools package.
data_Sr2Be2B2O7
_symmetry_space_group_name_H-M  'P-6c2'
_cell_length_a       4.71676
_cell_length_b       4.71676
_cell_length_c       15.4954
_cell_angle_alpha    90
_cell_angle_beta     90
_cell_angle_gamma    120

_symmetry_Int_Tables_number  188
_chemical_formula_structural  Sr2Be2B2O7
_chemical_formula_sum  Sr4Be4B4O4
_cell_volume  298.5527058504474
_cell_formula_units_Z  2
loop_
  _symmetry_equiv_pos_site_id
 _symmetry_equiv_pos_as_xyz
 1  'x, y, z'
loop_
 _atom_site_type_symbol
 _atom_site_label
 _atom_site_symmetry_multiplicity
 _atom_site_fract_x
 _atom_site_fract_y
 _atom_site_fract_z
 _atom_site_fract_occupancy
 B  B1  1  0.66667  0.33333  0.63576  1
 B  B2  1  0.66667  0.33333  0.86424  1
 B  B3  1  0.66667  0.33333  0.13576  1
 B  B4  1  0.66667  0.33333  0.36424  1
 Be  Be1  1  0.33333  0.66667  0.60205  1
 Be  Be2  1  0.33333  0.66667  0.39795  1
 Be  Be3  1  0.33333  0.66667  0.10205  1
 Be  Be4  1  0.33333  0.66667  0.89795  1
 O  O1  1  0.39224  0.02500  0.86323  1
 O  O2  1  0.97500  0.36723  0.86323  1
 O  O3  1  0.39224  0.02500  0.63677  1
 O  O4  1  0.63277  0.60776  0.63677  1
 O  O5  1  0.97500  0.60776  0.36323  1
 O  O6  1  0.39224  0.36723  0.36323  1
 O  O7  1  0.97500  0.36723  0.63677  1
 O  O8  1  0.63277  0.02500  0.13677  1
 O  O9  1  0.33333  0.66667  0.00000  1
 O  O10  1  0.33333  0.66667  0.50000  1
 O  O11  1  0.39224  0.36723  0.13677  1
 O  O12  1  0.97500  0.60776  0.13677  1
 O  O13  1  0.63277  0.60776  0.86323  1
 O  O14  1  0.63277  0.02500  0.36323  1
 Sr  Sr1  1  0.00000  0.00000  0.75000  1
 Sr  Sr2  1  0.00000  0.00000  0.00000  1
 Sr  Sr3  1  0.00000  0.00000  0.50000  1
 Sr  Sr4  1  0.00000  0.00000  0.25000  1
