CIF file written using JARVIS-Tools package.
data_YSF
_symmetry_space_group_name_H-M  'P6_3/mmc'
_cell_length_a       4.0531
_cell_length_b       4.0531
_cell_length_c       16.7383
_cell_angle_alpha    90
_cell_angle_beta     90
_cell_angle_gamma    120

_symmetry_Int_Tables_number  194
_chemical_formula_structural  YSF
_chemical_formula_sum  Y4S4F4
_cell_volume  238.13183480207468
_cell_formula_units_Z  4
loop_
  _symmetry_equiv_pos_site_id
 _symmetry_equiv_pos_as_xyz
 1  'x, y, z'
loop_
 _atom_site_type_symbol
 _atom_site_label
 _atom_site_symmetry_multiplicity
 _atom_site_fract_x
 _atom_site_fract_y
 _atom_site_fract_z
 _atom_site_fract_occupancy
 F  F1  1  0.33333  0.66667  0.25000  1
 F  F2  1  0.00000  0.00000  0.25000  1
 F  F3  1  0.00000  0.00000  0.75000  1
 F  F4  1  0.66667  0.33333  0.75000  1
 S  S1  1  0.66667  0.33333  0.41400  1
 S  S2  1  0.66667  0.33333  0.08600  1
 S  S3  1  0.33333  0.66667  0.58600  1
 S  S4  1  0.33333  0.66667  0.91400  1
 Y  Y1  1  0.66667  0.33333  0.25000  1
 Y  Y2  1  0.33333  0.66667  0.75000  1
 Y  Y3  1  0.00000  0.00000  0.50000  1
 Y  Y4  1  0.00000  0.00000  0.00000  1
