CIF file written using JARVIS-Tools package.
data_CrAgO2
_symmetry_space_group_name_H-M  'R3m'
_cell_length_a       2.96718
_cell_length_b       2.96717
_cell_length_c       6.43163
_cell_angle_alpha    76.6634
_cell_angle_beta     76.6634
_cell_angle_gamma    60

_symmetry_Int_Tables_number  160
_chemical_formula_structural  CrAgO2
_chemical_formula_sum  CrAgO2
_cell_volume  47.26705229231613
_cell_formula_units_Z  1
loop_
  _symmetry_equiv_pos_site_id
 _symmetry_equiv_pos_as_xyz
 1  'x, y, z'
loop_
 _atom_site_type_symbol
 _atom_site_label
 _atom_site_symmetry_multiplicity
 _atom_site_fract_x
 _atom_site_fract_y
 _atom_site_fract_z
 _atom_site_fract_occupancy
 Ag  Ag1  1  0.83929  0.83929  0.48213  1
 Cr  Cr1  1  0.00151  0.00151  0.99546  1
 O  O1  1  0.72129  0.72129  0.83614  1
 O  O2  1  0.27891  0.27891  0.16327  1
