CIF file written using JARVIS-Tools package.
data_H3OF
_symmetry_space_group_name_H-M  'Pnma'
_cell_length_a       4.20949
_cell_length_b       6.16905
_cell_length_c       5.95315
_cell_angle_alpha    90
_cell_angle_beta     90
_cell_angle_gamma    90

_symmetry_Int_Tables_number  62
_chemical_formula_structural  H3OF
_chemical_formula_sum  H2O4F4
_cell_volume  154.5946241607899
_cell_formula_units_Z  4
loop_
  _symmetry_equiv_pos_site_id
 _symmetry_equiv_pos_as_xyz
 1  'x, y, z'
loop_
 _atom_site_type_symbol
 _atom_site_label
 _atom_site_symmetry_multiplicity
 _atom_site_fract_x
 _atom_site_fract_y
 _atom_site_fract_z
 _atom_site_fract_occupancy
 F  F1  1  0.25000  0.87304  0.13369  1
 F  F2  1  0.75000  0.37304  0.36631  1
 F  F3  1  0.75000  0.12696  0.86631  1
 F  F4  1  0.25000  0.62696  0.63369  1
 H  H1  1  0.95382  0.75857  0.10143  1
 H  H2  1  0.25000  0.45862  0.80108  1
 H  H3  1  0.25000  0.04138  0.30108  1
 H  H4  1  0.75000  0.54138  0.19892  1
 H  H5  1  0.95382  0.74143  0.60143  1
 H  H6  1  0.04618  0.25857  0.39857  1
 H  H7  1  0.54618  0.74143  0.60143  1
 H  H8  1  0.45382  0.25857  0.39857  1
 H  H9  1  0.04618  0.24143  0.89857  1
 H  H10  1  0.54618  0.75857  0.10143  1
 H  H11  1  0.45382  0.24143  0.89857  1
 H  H12  1  0.75000  0.95862  0.69892  1
 O  O1  1  0.25000  0.16588  0.41870  1
 O  O2  1  0.75000  0.83412  0.58130  1
 O  O3  1  0.25000  0.33412  0.91870  1
 O  O4  1  0.75000  0.66588  0.08130  1
