CIF file written using JARVIS-Tools package.
data_CaCo2Si4O12
_symmetry_space_group_name_H-M  'C2'
_cell_length_a       5.23879
_cell_length_b       6.40154
_cell_length_c       6.40154
_cell_angle_alpha    84.6078
_cell_angle_beta     77.0336
_cell_angle_gamma    77.0336

_symmetry_Int_Tables_number  5
_chemical_formula_structural  CaCo2Si4O12
_chemical_formula_sum  CaCo2Si4O2
_cell_volume  203.66050607871884
_cell_formula_units_Z  1
loop_
  _symmetry_equiv_pos_site_id
 _symmetry_equiv_pos_as_xyz
 1  'x, y, z'
loop_
 _atom_site_type_symbol
 _atom_site_label
 _atom_site_symmetry_multiplicity
 _atom_site_fract_x
 _atom_site_fract_y
 _atom_site_fract_z
 _atom_site_fract_occupancy
 Ca  Ca1  1  0.75000  0.30182  0.69818  1
 Co  Co1  1  0.25000  0.08307  0.91693  1
 Co  Co2  1  0.75000  0.91210  0.08790  1
 O  O1  1  0.50507  0.33878  0.37822  1
 O  O2  1  0.99493  0.62178  0.66122  1
 O  O3  1  0.37235  0.02920  0.18565  1
 O  O4  1  -0.00241  0.35984  0.34544  1
 O  O5  1  0.50241  0.65456  0.64016  1
 O  O6  1  0.31410  0.37242  0.90021  1
 O  O7  1  0.79253  0.91709  0.37579  1
 O  O8  1  0.70747  0.62421  0.08291  1
 O  O9  1  0.86536  0.19344  0.02926  1
 O  O10  1  0.63464  0.97074  0.80656  1
 O  O11  1  0.18590  0.09979  0.62758  1
 O  O12  1  0.12765  0.81435  0.97080  1
 Si  Si1  1  0.73281  0.79865  0.60686  1
 Si  Si2  1  0.76719  0.39314  0.20135  1
 Si  Si3  1  0.22060  0.61606  0.80445  1
 Si  Si4  1  0.27940  0.19555  0.38393  1
