CIF file written using JARVIS-Tools package.
data_CoO2
_symmetry_space_group_name_H-M  'R-3m'
_cell_length_a       2.82449
_cell_length_b       2.82448
_cell_length_c       4.8169
_cell_angle_alpha    72.9512
_cell_angle_beta     72.9512
_cell_angle_gamma    59.9999

_symmetry_Int_Tables_number  166
_chemical_formula_structural  CoO2
_chemical_formula_sum  CoO2
_cell_volume  31.314433839176868
_cell_formula_units_Z  1
loop_
  _symmetry_equiv_pos_site_id
 _symmetry_equiv_pos_as_xyz
 1  'x, y, z'
loop_
 _atom_site_type_symbol
 _atom_site_label
 _atom_site_symmetry_multiplicity
 _atom_site_fract_x
 _atom_site_fract_y
 _atom_site_fract_z
 _atom_site_fract_occupancy
 Co  Co1  1  0.00000  0.00000  0.00000  1
 O  O1  1  0.59854  0.59854  0.20437  1
 O  O2  1  0.40146  0.40146  0.79563  1
