CIF file written using JARVIS-Tools package.
data_TiMn5O12
_symmetry_space_group_name_H-M  'C2/m'
_cell_length_a       4.87994
_cell_length_b       4.88389
_cell_length_c       9.14337
_cell_angle_alpha    84.7083
_cell_angle_beta     79.3619
_cell_angle_gamma    60.0266

_symmetry_Int_Tables_number  12
_chemical_formula_structural  TiMn5O12
_chemical_formula_sum  TiMn5O2
_cell_volume  185.52630053736462
_cell_formula_units_Z  1
loop_
  _symmetry_equiv_pos_site_id
 _symmetry_equiv_pos_as_xyz
 1  'x, y, z'
loop_
 _atom_site_type_symbol
 _atom_site_label
 _atom_site_symmetry_multiplicity
 _atom_site_fract_x
 _atom_site_fract_y
 _atom_site_fract_z
 _atom_site_fract_occupancy
 Mn  Mn1  1  0.14507  0.70986  0.50000  1
 Mn  Mn2  1  0.66673  0.66654  -0.00000  1
 Mn  Mn3  1  0.33327  0.33346  0.00000  1
 Mn  Mn4  1  0.85493  0.29014  0.50000  1
 Mn  Mn5  1  0.50000  0.00000  0.50000  1
 O  O1  1  0.60996  0.35198  0.11011  1
 O  O2  1  -0.03806  0.64802  0.11011  1
 O  O3  1  0.39004  0.64802  0.88989  1
 O  O4  1  0.68607  -0.00000  0.88973  1
 O  O5  1  0.53915  0.65892  0.39866  1
 O  O6  1  0.19808  0.34108  0.39866  1
 O  O7  1  0.87423  -0.00000  0.37406  1
 O  O8  1  0.80192  0.65892  0.60134  1
 O  O9  1  0.46085  0.34108  0.60134  1
 O  O10  1  0.31393  0.00000  0.11027  1
 O  O11  1  0.03806  0.35198  0.88989  1
 O  O12  1  0.12577  0.00000  0.62594  1
 Ti  Ti1  1  0.00000  0.00000  0.00000  1
