CIF file written using JARVIS-Tools package.
data_TlCrSe2
_symmetry_space_group_name_H-M  'R3m'
_cell_length_a       3.32226
_cell_length_b       3.32226
_cell_length_c       9.53309
_cell_angle_alpha    79.9651
_cell_angle_beta     79.9651
_cell_angle_gamma    60

_symmetry_Int_Tables_number  160
_chemical_formula_structural  TlCrSe2
_chemical_formula_sum  TlCrSe2
_cell_volume  89.25995947935309
_cell_formula_units_Z  1
loop_
  _symmetry_equiv_pos_site_id
 _symmetry_equiv_pos_as_xyz
 1  'x, y, z'
loop_
 _atom_site_type_symbol
 _atom_site_label
 _atom_site_symmetry_multiplicity
 _atom_site_fract_x
 _atom_site_fract_y
 _atom_site_fract_z
 _atom_site_fract_occupancy
 Cr  Cr1  1  0.99635  0.99635  0.01095  1
 Se  Se1  1  0.38436  0.38436  0.84693  1
 Se  Se2  1  0.27546  0.27546  0.17361  1
 Tl  Tl1  1  0.16183  0.16183  0.51451  1
