CIF file written using JARVIS-Tools package.
data_Rb4CdCl6
_symmetry_space_group_name_H-M  'R-3c'
_cell_length_a       8.83063
_cell_length_b       8.83063
_cell_length_c       8.83063
_cell_angle_alpha    88.9911
_cell_angle_beta     88.9911
_cell_angle_gamma    88.9911

_symmetry_Int_Tables_number  167
_chemical_formula_structural  Rb4CdCl6
_chemical_formula_sum  Rb8Cd2Cl2
_cell_volume  688.2970035013475
_cell_formula_units_Z  2
loop_
  _symmetry_equiv_pos_site_id
 _symmetry_equiv_pos_as_xyz
 1  'x, y, z'
loop_
 _atom_site_type_symbol
 _atom_site_label
 _atom_site_symmetry_multiplicity
 _atom_site_fract_x
 _atom_site_fract_y
 _atom_site_fract_z
 _atom_site_fract_occupancy
 Cd  Cd1  1  0.50000  0.50000  0.50000  1
 Cd  Cd2  1  0.00000  0.00000  0.00000  1
 Cl  Cl1  1  0.28967  0.93923  0.07057  1
 Cl  Cl2  1  0.78967  0.57057  0.43923  1
 Cl  Cl3  1  0.57057  0.43923  0.78967  1
 Cl  Cl4  1  0.92943  0.71033  0.06077  1
 Cl  Cl5  1  0.71033  0.06077  0.92943  1
 Cl  Cl6  1  0.06077  0.92943  0.71033  1
 Cl  Cl7  1  0.56077  0.21033  0.42943  1
 Cl  Cl8  1  0.21033  0.42943  0.56077  1
 Cl  Cl9  1  0.42943  0.56077  0.21033  1
 Cl  Cl10  1  0.93923  0.07057  0.28967  1
 Cl  Cl11  1  0.07057  0.28967  0.93923  1
 Cl  Cl12  1  0.43923  0.78967  0.57057  1
 Rb  Rb1  1  0.25000  0.25000  0.25000  1
 Rb  Rb2  1  0.75000  0.75000  0.75000  1
 Rb  Rb3  1  0.75000  0.37491  0.12509  1
 Rb  Rb4  1  0.37491  0.12509  0.75000  1
 Rb  Rb5  1  0.12509  0.75000  0.37491  1
 Rb  Rb6  1  0.25000  0.62509  0.87491  1
 Rb  Rb7  1  0.62509  0.87491  0.25000  1
 Rb  Rb8  1  0.87491  0.25000  0.62509  1
