CIF file written using JARVIS-Tools package.
data_CaTi2F10
_symmetry_space_group_name_H-M  'C2'
_cell_length_a       5.52824
_cell_length_b       5.52824
_cell_length_c       7.76717
_cell_angle_alpha    68.7515
_cell_angle_beta     68.7516
_cell_angle_gamma    72.2297

_symmetry_Int_Tables_number  5
_chemical_formula_structural  CaTi2F10
_chemical_formula_sum  CaTi2F0
_cell_volume  202.02582228648834
_cell_formula_units_Z  1
loop_
  _symmetry_equiv_pos_site_id
 _symmetry_equiv_pos_as_xyz
 1  'x, y, z'
loop_
 _atom_site_type_symbol
 _atom_site_label
 _atom_site_symmetry_multiplicity
 _atom_site_fract_x
 _atom_site_fract_y
 _atom_site_fract_z
 _atom_site_fract_occupancy
 Ca  Ca1  1  0.45669  0.54331  0.75000  1
 F  F1  1  0.17145  0.26906  0.88553  1
 F  F2  1  0.73094  0.82855  0.61447  1
 F  F3  1  0.79800  0.72616  0.13672  1
 F  F4  1  0.27384  0.20200  0.36328  1
 F  F5  1  0.06651  0.93349  0.75000  1
 F  F6  1  0.94997  0.05003  0.25000  1
 F  F7  1  0.25590  0.69543  0.49844  1
 F  F8  1  0.30457  0.74410  0.00156  1
 F  F9  1  0.76757  0.31344  0.54677  1
 F  F10  1  0.68656  0.23243  0.95323  1
 Ti  Ti1  1  0.98268  0.98547  0.01165  1
 Ti  Ti2  1  0.01453  0.01732  0.48835  1
