CIF file written using JARVIS-Tools package.
data_Ca2Sb2O7
_symmetry_space_group_name_H-M  'Fd-3m'
_cell_length_a       7.33334
_cell_length_b       7.33334
_cell_length_c       7.33334
_cell_angle_alpha    60
_cell_angle_beta     60
_cell_angle_gamma    60

_symmetry_Int_Tables_number  227
_chemical_formula_structural  Ca2Sb2O7
_chemical_formula_sum  Ca4Sb4O4
_cell_volume  278.86283317116147
_cell_formula_units_Z  2
loop_
  _symmetry_equiv_pos_site_id
 _symmetry_equiv_pos_as_xyz
 1  'x, y, z'
loop_
 _atom_site_type_symbol
 _atom_site_label
 _atom_site_symmetry_multiplicity
 _atom_site_fract_x
 _atom_site_fract_y
 _atom_site_fract_z
 _atom_site_fract_occupancy
 Ca  Ca1  1  0.50000  0.00000  0.50000  1
 Ca  Ca2  1  -0.00000  0.50000  0.50000  1
 Ca  Ca3  1  0.50000  0.50000  -0.00000  1
 Ca  Ca4  1  0.50000  0.50000  0.50000  1
 O  O1  1  0.87500  0.87500  0.87500  1
 O  O2  1  0.11040  0.63960  0.63960  1
 O  O3  1  0.36040  0.88960  0.88960  1
 O  O4  1  0.63960  0.11040  0.63960  1
 O  O5  1  0.63960  0.63960  0.11040  1
 O  O6  1  0.11040  0.11040  0.63960  1
 O  O7  1  0.11040  0.63960  0.11040  1
 O  O8  1  0.63960  0.11040  0.11040  1
 O  O9  1  0.88960  0.36040  0.36040  1
 O  O10  1  0.88960  0.88960  0.36040  1
 O  O11  1  0.88960  0.36040  0.88960  1
 O  O12  1  0.36040  0.88960  0.36040  1
 O  O13  1  0.12500  0.12500  0.12500  1
 O  O14  1  0.36040  0.36040  0.88960  1
 Sb  Sb1  1  0.50000  0.00000  -0.00000  1
 Sb  Sb2  1  0.00000  0.00000  0.00000  1
 Sb  Sb3  1  0.00000  0.00000  0.50000  1
 Sb  Sb4  1  -0.00000  0.50000  -0.00000  1
