CIF file written using JARVIS-Tools package.
data_CdO2
_symmetry_space_group_name_H-M  'P-3m1'
_cell_length_a       3.47994
_cell_length_b       3.4802
_cell_length_c       3.74857
_cell_angle_alpha    90.0001
_cell_angle_beta     90.0066
_cell_angle_gamma    120.002

_symmetry_Int_Tables_number  164
_chemical_formula_structural  CdO2
_chemical_formula_sum  CdO2
_cell_volume  39.31531394983352
_cell_formula_units_Z  1
loop_
  _symmetry_equiv_pos_site_id
 _symmetry_equiv_pos_as_xyz
 1  'x, y, z'
loop_
 _atom_site_type_symbol
 _atom_site_label
 _atom_site_symmetry_multiplicity
 _atom_site_fract_x
 _atom_site_fract_y
 _atom_site_fract_z
 _atom_site_fract_occupancy
 Cd  Cd1  1  0.00000  0.00000  0.00000  1
 O  O1  1  0.33341  0.66671  0.26677  1
 O  O2  1  0.66659  0.33329  0.73323  1
