CIF file written using JARVIS-Tools package.
data_BaSm2PtO5
_symmetry_space_group_name_H-M  'P4/mbm'
_cell_length_a       6.71231
_cell_length_b       6.71231
_cell_length_c       5.95678
_cell_angle_alpha    90
_cell_angle_beta     90
_cell_angle_gamma    90

_symmetry_Int_Tables_number  127
_chemical_formula_structural  BaSm2PtO5
_chemical_formula_sum  Ba2Sm4Pt2O0
_cell_volume  268.38328092019555
_cell_formula_units_Z  2
loop_
  _symmetry_equiv_pos_site_id
 _symmetry_equiv_pos_as_xyz
 1  'x, y, z'
loop_
 _atom_site_type_symbol
 _atom_site_label
 _atom_site_symmetry_multiplicity
 _atom_site_fract_x
 _atom_site_fract_y
 _atom_site_fract_z
 _atom_site_fract_occupancy
 Ba  Ba1  1  0.00000  0.00000  0.00000  1
 Ba  Ba2  1  0.50000  0.50000  0.00000  1
 O  O1  1  0.86022  0.36022  0.74324  1
 O  O2  1  0.00000  0.00000  0.50000  1
 O  O3  1  0.13978  0.63978  0.25676  1
 O  O4  1  0.50000  0.50000  0.50000  1
 O  O5  1  0.36022  0.13978  0.25676  1
 O  O6  1  0.63978  0.86022  0.25676  1
 O  O7  1  0.13978  0.63978  0.74324  1
 O  O8  1  0.63978  0.86022  0.74324  1
 O  O9  1  0.86022  0.36022  0.25676  1
 O  O10  1  0.36022  0.13978  0.74324  1
 Pt  Pt1  1  0.00000  0.50000  0.00000  1
 Pt  Pt2  1  0.50000  0.00000  0.00000  1
 Sm  Sm1  1  0.17349  0.32651  0.50000  1
 Sm  Sm2  1  0.32651  0.82651  0.50000  1
 Sm  Sm3  1  0.67349  0.17349  0.50000  1
 Sm  Sm4  1  0.82651  0.67349  0.50000  1
