CIF file written using JARVIS-Tools package.
data_NaIO3
_symmetry_space_group_name_H-M  'Pnma'
_cell_length_a       5.73349
_cell_length_b       6.37904
_cell_length_c       8.08417
_cell_angle_alpha    90
_cell_angle_beta     90
_cell_angle_gamma    90

_symmetry_Int_Tables_number  62
_chemical_formula_structural  NaIO3
_chemical_formula_sum  Na4I4O2
_cell_volume  295.6717959255828
_cell_formula_units_Z  4
loop_
  _symmetry_equiv_pos_site_id
 _symmetry_equiv_pos_as_xyz
 1  'x, y, z'
loop_
 _atom_site_type_symbol
 _atom_site_label
 _atom_site_symmetry_multiplicity
 _atom_site_fract_x
 _atom_site_fract_y
 _atom_site_fract_z
 _atom_site_fract_occupancy
 I  I1  1  0.01076  0.00738  0.25000  1
 I  I2  1  0.51076  0.49262  0.75000  1
 I  I3  1  0.48924  0.50738  0.25000  1
 I  I4  1  0.98924  0.99262  0.75000  1
 Na  Na1  1  0.50000  0.00000  0.00000  1
 Na  Na2  1  0.00000  0.50000  0.00000  1
 Na  Na3  1  0.00000  0.50000  0.50000  1
 Na  Na4  1  0.50000  0.00000  0.50000  1
 O  O1  1  0.13855  0.16524  0.41817  1
 O  O2  1  0.79280  0.59550  0.25000  1
 O  O3  1  0.36145  0.66524  0.08183  1
 O  O4  1  0.86145  0.83476  0.91817  1
 O  O5  1  0.63855  0.33476  0.58183  1
 O  O6  1  0.70720  0.09550  0.25000  1
 O  O7  1  0.63855  0.33476  0.91817  1
 O  O8  1  0.13855  0.16524  0.08183  1
 O  O9  1  0.86145  0.83476  0.58183  1
 O  O10  1  0.20720  0.40450  0.75000  1
 O  O11  1  0.36145  0.66524  0.41817  1
 O  O12  1  0.29280  0.90450  0.75000  1
