CIF file written using JARVIS-Tools package.
data_LiY2Si2
_symmetry_space_group_name_H-M  'P4/mbm'
_cell_length_a       7.15674
_cell_length_b       7.15674
_cell_length_c       4.19903
_cell_angle_alpha    90
_cell_angle_beta     90
_cell_angle_gamma    90

_symmetry_Int_Tables_number  127
_chemical_formula_structural  LiY2Si2
_chemical_formula_sum  Li2Y4Si4
_cell_volume  215.0700883648355
_cell_formula_units_Z  2
loop_
  _symmetry_equiv_pos_site_id
 _symmetry_equiv_pos_as_xyz
 1  'x, y, z'
loop_
 _atom_site_type_symbol
 _atom_site_label
 _atom_site_symmetry_multiplicity
 _atom_site_fract_x
 _atom_site_fract_y
 _atom_site_fract_z
 _atom_site_fract_occupancy
 Li  Li1  1  0.00000  0.00000  0.00000  1
 Li  Li2  1  0.50000  0.50000  0.00000  1
 Si  Si1  1  0.61895  0.88105  0.00000  1
 Si  Si2  1  0.38105  0.11895  0.00000  1
 Si  Si3  1  0.88105  0.38105  0.00000  1
 Si  Si4  1  0.11895  0.61895  0.00000  1
 Y  Y1  1  0.82118  0.67882  0.50000  1
 Y  Y2  1  0.17882  0.32118  0.50000  1
 Y  Y3  1  0.67882  0.17882  0.50000  1
 Y  Y4  1  0.32118  0.82118  0.50000  1
