CIF file written using JARVIS-Tools package.
data_Mn4O7F
_symmetry_space_group_name_H-M  'P1'
_cell_length_a       4.38269
_cell_length_b       4.87726
_cell_length_c       5.42154
_cell_angle_alpha    90.0723
_cell_angle_beta     88.9632
_cell_angle_gamma    90.3508

_symmetry_Int_Tables_number  1
_chemical_formula_structural  Mn4O7F
_chemical_formula_sum  Mn4O7F
_cell_volume  115.86668211261043
_cell_formula_units_Z  1
loop_
  _symmetry_equiv_pos_site_id
 _symmetry_equiv_pos_as_xyz
 1  'x, y, z'
loop_
 _atom_site_type_symbol
 _atom_site_label
 _atom_site_symmetry_multiplicity
 _atom_site_fract_x
 _atom_site_fract_y
 _atom_site_fract_z
 _atom_site_fract_occupancy
 F  F1  1  0.24284  0.92263  0.11924  1
 Mn  Mn1  1  0.98986  0.26579  0.14569  1
 Mn  Mn2  1  0.98888  0.74682  0.83809  1
 Mn  Mn3  1  0.49585  0.24421  0.64703  1
 Mn  Mn4  1  0.51150  0.74289  0.36476  1
 O  O1  1  0.76738  0.07888  0.88571  1
 O  O2  1  0.76828  0.58432  0.11634  1
 O  O3  1  0.73142  0.57528  0.61355  1
 O  O4  1  0.73650  0.07949  0.38563  1
 O  O5  1  0.26617  0.91670  0.61409  1
 O  O6  1  0.26955  0.41881  0.38506  1
 O  O7  1  0.23179  0.42419  0.88481  1
