CIF file written using JARVIS-Tools package.
data_V2CdO6
_symmetry_space_group_name_H-M  'C2/m'
_cell_length_a       3.56902
_cell_length_b       5.07285
_cell_length_c       7.01134
_cell_angle_alpha    111.32
_cell_angle_beta     90.001
_cell_angle_gamma    110.596

_symmetry_Int_Tables_number  12
_chemical_formula_structural  V2CdO6
_chemical_formula_sum  V2CdO6
_cell_volume  109.49798837314603
_cell_formula_units_Z  1
loop_
  _symmetry_equiv_pos_site_id
 _symmetry_equiv_pos_as_xyz
 1  'x, y, z'
loop_
 _atom_site_type_symbol
 _atom_site_label
 _atom_site_symmetry_multiplicity
 _atom_site_fract_x
 _atom_site_fract_y
 _atom_site_fract_z
 _atom_site_fract_occupancy
 Cd  Cd1  1  0.00000  0.00000  0.00000  1
 O  O1  1  0.02553  0.05105  0.69507  1
 O  O2  1  0.30682  0.61364  0.43817  1
 O  O3  1  0.69318  0.38636  0.56184  1
 O  O4  1  0.33196  0.66392  0.87142  1
 O  O5  1  0.66804  0.33608  0.12858  1
 O  O6  1  0.97447  0.94895  0.30493  1
 V  V1  1  0.18327  0.36654  0.63635  1
 V  V2  1  0.81673  0.63345  0.36365  1
