CIF file written using JARVIS-Tools package.
data_HgO
_symmetry_space_group_name_H-M  'Fm-3m'
_cell_length_a       3.47228
_cell_length_b       3.47225
_cell_length_c       3.47822
_cell_angle_alpha    119.943
_cell_angle_beta     119.944
_cell_angle_gamma    90

_symmetry_Int_Tables_number  225
_chemical_formula_structural  HgO
_chemical_formula_sum  HgO
_cell_volume  29.703436409224526
_cell_formula_units_Z  1
loop_
  _symmetry_equiv_pos_site_id
 _symmetry_equiv_pos_as_xyz
 1  'x, y, z'
loop_
 _atom_site_type_symbol
 _atom_site_label
 _atom_site_symmetry_multiplicity
 _atom_site_fract_x
 _atom_site_fract_y
 _atom_site_fract_z
 _atom_site_fract_occupancy
 Hg  Hg1  1  0.00000  0.91501  -0.00000  1
 O  O1  1  0.50000  0.41499  0.00000  1
