CIF file written using JARVIS-Tools package.
data_U3Si4Ni4
_symmetry_space_group_name_H-M  'Immm'
_cell_length_a       3.88169
_cell_length_b       3.96347
_cell_length_c       12.054
_cell_angle_alpha    99.4685
_cell_angle_beta     99.2657
_cell_angle_gamma    89.9999

_symmetry_Int_Tables_number  71
_chemical_formula_structural  U3Si4Ni4
_chemical_formula_sum  U3Si4Ni4
_cell_volume  180.47048836213958
_cell_formula_units_Z  1
loop_
  _symmetry_equiv_pos_site_id
 _symmetry_equiv_pos_as_xyz
 1  'x, y, z'
loop_
 _atom_site_type_symbol
 _atom_site_label
 _atom_site_symmetry_multiplicity
 _atom_site_fract_x
 _atom_site_fract_y
 _atom_site_fract_z
 _atom_site_fract_occupancy
 Ni  Ni1  1  0.74987  0.74987  0.49974  1
 Ni  Ni2  1  0.40168  0.90162  0.80336  1
 Ni  Ni3  1  0.59832  0.09838  0.19664  1
 Ni  Ni4  1  0.25013  0.25013  0.50026  1
 Si  Si1  1  0.44958  0.44955  0.89917  1
 Si  Si2  1  0.55042  0.55045  0.10083  1
 Si  Si3  1  0.69660  0.19658  0.39321  1
 Si  Si4  1  0.30340  0.80342  0.60679  1
 U  U1  1  0.00000  0.00000  0.00000  1
 U  U2  1  0.85286  0.35289  0.70571  1
 U  U3  1  0.14714  0.64711  0.29429  1
