CIF file written using JARVIS-Tools package.
data_NaY2In
_symmetry_space_group_name_H-M  'Fm-3m'
_cell_length_a       5.36543
_cell_length_b       5.36545
_cell_length_c       5.36554
_cell_angle_alpha    60.0047
_cell_angle_beta     59.9953
_cell_angle_gamma    60.002

_symmetry_Int_Tables_number  225
_chemical_formula_structural  NaY2In
_chemical_formula_sum  NaY2In
_cell_volume  109.2233503314077
_cell_formula_units_Z  1
loop_
  _symmetry_equiv_pos_site_id
 _symmetry_equiv_pos_as_xyz
 1  'x, y, z'
loop_
 _atom_site_type_symbol
 _atom_site_label
 _atom_site_symmetry_multiplicity
 _atom_site_fract_x
 _atom_site_fract_y
 _atom_site_fract_z
 _atom_site_fract_occupancy
 In  In1  1  0.00001  0.99997  0.00000  1
 Na  Na1  1  0.50000  0.50002  0.49999  1
 Y  Y1  1  0.24999  0.25000  0.25000  1
 Y  Y2  1  0.74999  0.75001  0.75000  1
