CIF file written using JARVIS-Tools package.
data_Al2Bi3O9
_symmetry_space_group_name_H-M  'P4mm'
_cell_length_a       3.61481
_cell_length_b       3.61481
_cell_length_c       13.2919
_cell_angle_alpha    90
_cell_angle_beta     90
_cell_angle_gamma    90

_symmetry_Int_Tables_number  99
_chemical_formula_structural  Al2Bi3O9
_chemical_formula_sum  Al2Bi3O9
_cell_volume  173.68281140818445
_cell_formula_units_Z  1
loop_
  _symmetry_equiv_pos_site_id
 _symmetry_equiv_pos_as_xyz
 1  'x, y, z'
loop_
 _atom_site_type_symbol
 _atom_site_label
 _atom_site_symmetry_multiplicity
 _atom_site_fract_x
 _atom_site_fract_y
 _atom_site_fract_z
 _atom_site_fract_occupancy
 Al  Al1  1  0.50000  0.50000  0.82599  1
 Al  Al2  1  0.50000  0.50000  0.47894  1
 Bi  Bi1  1  0.00000  0.00000  -0.01401  1
 Bi  Bi2  1  0.00000  0.00000  0.63264  1
 Bi  Bi3  1  0.00000  0.00000  0.26990  1
 O  O1  1  0.50000  0.00000  0.86213  1
 O  O2  1  0.50000  0.00000  0.52062  1
 O  O3  1  0.50000  0.00000  0.16413  1
 O  O4  1  0.00000  0.50000  0.86213  1
 O  O5  1  0.00000  0.50000  0.52062  1
 O  O6  1  0.00000  0.50000  0.16413  1
 O  O7  1  0.50000  0.50000  0.01155  1
 O  O8  1  0.50000  0.50000  0.69009  1
 O  O9  1  0.50000  0.50000  0.34447  1
