CIF file written using JARVIS-Tools package.
data_BiAsO4
_symmetry_space_group_name_H-M  'I4_1/a'
_cell_length_a       5.14714
_cell_length_b       5.14713
_cell_length_c       6.9142
_cell_angle_alpha    111.852
_cell_angle_beta     111.852
_cell_angle_gamma    90

_symmetry_Int_Tables_number  88
_chemical_formula_structural  BiAsO4
_chemical_formula_sum  Bi2As2O8
_cell_volume  155.74540895509136
_cell_formula_units_Z  2
loop_
  _symmetry_equiv_pos_site_id
 _symmetry_equiv_pos_as_xyz
 1  'x, y, z'
loop_
 _atom_site_type_symbol
 _atom_site_label
 _atom_site_symmetry_multiplicity
 _atom_site_fract_x
 _atom_site_fract_y
 _atom_site_fract_z
 _atom_site_fract_occupancy
 As  As1  1  0.12500  0.37500  0.25000  1
 As  As2  1  0.87500  0.62500  0.75000  1
 Bi  Bi1  1  0.62500  0.87500  0.25000  1
 Bi  Bi2  1  0.37500  0.12500  0.75000  1
 O  O1  1  0.06027  0.70001  0.40644  1
 O  O2  1  0.93973  0.29999  0.59356  1
 O  O3  1  0.79999  0.15383  0.09356  1
 O  O4  1  0.34617  0.20643  0.40644  1
 O  O5  1  0.70643  0.56027  0.90644  1
 O  O6  1  0.29357  0.43973  0.09356  1
 O  O7  1  0.65383  0.79357  0.59356  1
 O  O8  1  0.20001  0.84617  0.90644  1
