CIF file written using JARVIS-Tools package.
data_KAuF4
_symmetry_space_group_name_H-M  'I4/mcm'
_cell_length_a       6.02914
_cell_length_b       6.02914
_cell_length_c       7.11546
_cell_angle_alpha    115.066
_cell_angle_beta     115.066
_cell_angle_gamma    90

_symmetry_Int_Tables_number  140
_chemical_formula_structural  KAuF4
_chemical_formula_sum  K2Au2F8
_cell_volume  207.08460867001244
_cell_formula_units_Z  2
loop_
  _symmetry_equiv_pos_site_id
 _symmetry_equiv_pos_as_xyz
 1  'x, y, z'
loop_
 _atom_site_type_symbol
 _atom_site_label
 _atom_site_symmetry_multiplicity
 _atom_site_fract_x
 _atom_site_fract_y
 _atom_site_fract_z
 _atom_site_fract_occupancy
 Au  Au1  1  0.00000  0.50000  -0.00000  1
 Au  Au2  1  0.50000  -0.00000  0.00000  1
 F  F1  1  0.95654  0.45654  0.24043  1
 F  F2  1  0.71611  0.21611  0.75957  1
 F  F3  1  0.04346  0.54346  0.75957  1
 F  F4  1  0.21611  0.04346  0.75957  1
 F  F5  1  0.28389  0.78389  0.24043  1
 F  F6  1  0.45654  0.28389  0.24043  1
 F  F7  1  0.78389  0.95654  0.24043  1
 F  F8  1  0.54346  0.71611  0.75957  1
 K  K1  1  0.25000  0.25000  0.50000  1
 K  K2  1  0.75000  0.75000  0.50000  1
