CIF file written using JARVIS-Tools package.
data_InAgP2S6
_symmetry_space_group_name_H-M  'P-31c'
_cell_length_a       6.23328
_cell_length_b       6.23328
_cell_length_c       12.9732
_cell_angle_alpha    90
_cell_angle_beta     90
_cell_angle_gamma    120

_symmetry_Int_Tables_number  163
_chemical_formula_structural  InAgP2S6
_chemical_formula_sum  In2Ag2P4S2
_cell_volume  436.52749919483574
_cell_formula_units_Z  2
loop_
  _symmetry_equiv_pos_site_id
 _symmetry_equiv_pos_as_xyz
 1  'x, y, z'
loop_
 _atom_site_type_symbol
 _atom_site_label
 _atom_site_symmetry_multiplicity
 _atom_site_fract_x
 _atom_site_fract_y
 _atom_site_fract_z
 _atom_site_fract_occupancy
 Ag  Ag1  1  0.66667  0.33333  0.25000  1
 Ag  Ag2  1  0.33333  0.66667  0.75000  1
 In  In1  1  0.00000  0.00000  0.25000  1
 In  In2  1  0.00000  0.00000  0.75000  1
 P  P1  1  0.66667  0.33333  0.66236  1
 P  P2  1  0.66667  0.33333  0.83764  1
 P  P3  1  0.33333  0.66667  0.33764  1
 P  P4  1  0.33333  0.66667  0.16236  1
 S  S1  1  0.97467  0.31937  0.88170  1
 S  S2  1  0.68063  0.65529  0.88170  1
 S  S3  1  0.97467  0.65529  0.61830  1
 S  S4  1  0.68063  0.02533  0.61830  1
 S  S5  1  0.34471  0.31937  0.61830  1
 S  S6  1  0.02533  0.34471  0.38170  1
 S  S7  1  0.02533  0.68063  0.11830  1
 S  S8  1  0.65529  0.68063  0.38170  1
 S  S9  1  0.31937  0.34471  0.11830  1
 S  S10  1  0.31937  0.97467  0.38170  1
 S  S11  1  0.65529  0.97467  0.11830  1
 S  S12  1  0.34471  0.02533  0.88170  1
