CIF file written using JARVIS-Tools package.
data_AlAgS2
_symmetry_space_group_name_H-M  'R3m'
_cell_length_a       3.52961
_cell_length_b       3.52961
_cell_length_c       7.2159
_cell_angle_alpha    75.8435
_cell_angle_beta     75.8435
_cell_angle_gamma    60.0001

_symmetry_Int_Tables_number  160
_chemical_formula_structural  AlAgS2
_chemical_formula_sum  AlAgS2
_cell_volume  74.68373086367015
_cell_formula_units_Z  1
loop_
  _symmetry_equiv_pos_site_id
 _symmetry_equiv_pos_as_xyz
 1  'x, y, z'
loop_
 _atom_site_type_symbol
 _atom_site_label
 _atom_site_symmetry_multiplicity
 _atom_site_fract_x
 _atom_site_fract_y
 _atom_site_fract_z
 _atom_site_fract_occupancy
 Ag  Ag1  1  0.84440  0.84440  0.46681  1
 Al  Al1  1  0.00108  0.00108  0.99675  1
 S  S1  1  0.72810  0.72810  0.81569  1
 S  S2  1  0.26742  0.26742  0.19774  1
