CIF file written using JARVIS-Tools package.
data_AlBi3O9
_symmetry_space_group_name_H-M  'P4/mmm'
_cell_length_a       3.60204
_cell_length_b       3.60204
_cell_length_c       12.3657
_cell_angle_alpha    90
_cell_angle_beta     90
_cell_angle_gamma    90

_symmetry_Int_Tables_number  123
_chemical_formula_structural  AlBi3O9
_chemical_formula_sum  AlBi3O9
_cell_volume  160.4419814310795
_cell_formula_units_Z  1
loop_
  _symmetry_equiv_pos_site_id
 _symmetry_equiv_pos_as_xyz
 1  'x, y, z'
loop_
 _atom_site_type_symbol
 _atom_site_label
 _atom_site_symmetry_multiplicity
 _atom_site_fract_x
 _atom_site_fract_y
 _atom_site_fract_z
 _atom_site_fract_occupancy
 Al  Al1  1  0.50000  0.50000  0.83332  1
 Bi  Bi1  1  0.00000  0.00000  0.04989  1
 Bi  Bi2  1  0.00000  0.00000  0.61687  1
 Bi  Bi3  1  0.00000  0.00000  0.33342  1
 O  O1  1  0.00000  0.50000  0.83326  1
 O  O2  1  0.00000  0.50000  0.49166  1
 O  O3  1  0.00000  0.50000  0.17501  1
 O  O4  1  0.50000  0.50000  0.98985  1
 O  O5  1  0.50000  0.50000  0.67676  1
 O  O6  1  0.50000  0.50000  0.33335  1
 O  O7  1  0.50000  0.00000  0.83326  1
 O  O8  1  0.50000  0.00000  0.49166  1
 O  O9  1  0.50000  0.00000  0.17501  1
