CIF file written using JARVIS-Tools package.
data_SrCu2O2
_symmetry_space_group_name_H-M  'I4_1/amd'
_cell_length_a       5.49081
_cell_length_b       5.4908
_cell_length_c       6.28847
_cell_angle_alpha    115.886
_cell_angle_beta     115.886
_cell_angle_gamma    90.0001

_symmetry_Int_Tables_number  141
_chemical_formula_structural  SrCu2O2
_chemical_formula_sum  Sr2Cu4O4
_cell_volume  149.13943768536242
_cell_formula_units_Z  2
loop_
  _symmetry_equiv_pos_site_id
 _symmetry_equiv_pos_as_xyz
 1  'x, y, z'
loop_
 _atom_site_type_symbol
 _atom_site_label
 _atom_site_symmetry_multiplicity
 _atom_site_fract_x
 _atom_site_fract_y
 _atom_site_fract_z
 _atom_site_fract_occupancy
 Cu  Cu1  1  0.50000  0.00000  0.50000  1
 Cu  Cu2  1  0.00000  0.00000  0.00000  1
 Cu  Cu3  1  0.00000  0.00000  0.50000  1
 Cu  Cu4  1  0.00000  0.50000  0.00000  1
 O  O1  1  0.12618  0.37618  0.25235  1
 O  O2  1  0.37618  0.12618  0.75235  1
 O  O3  1  0.87382  0.62382  0.74765  1
 O  O4  1  0.62382  0.87382  0.24765  1
 Sr  Sr1  1  0.62500  0.37500  0.25000  1
 Sr  Sr2  1  0.37500  0.62500  0.75000  1
