CIF file written using JARVIS-Tools package.
data_RbSO2F
_symmetry_space_group_name_H-M  'P2_1/m'
_cell_length_a       4.81305
_cell_length_b       5.83501
_cell_length_c       7.00161
_cell_angle_alpha    90
_cell_angle_beta     106.607
_cell_angle_gamma    90

_symmetry_Int_Tables_number  11
_chemical_formula_structural  RbSO2F
_chemical_formula_sum  Rb2S2O4F2
_cell_volume  188.43226492627576
_cell_formula_units_Z  2
loop_
  _symmetry_equiv_pos_site_id
 _symmetry_equiv_pos_as_xyz
 1  'x, y, z'
loop_
 _atom_site_type_symbol
 _atom_site_label
 _atom_site_symmetry_multiplicity
 _atom_site_fract_x
 _atom_site_fract_y
 _atom_site_fract_z
 _atom_site_fract_occupancy
 F  F1  1  0.80242  0.25000  0.86995  1
 F  F2  1  0.19758  0.75000  0.13005  1
 O  O1  1  0.66933  0.54133  0.29893  1
 O  O2  1  0.33067  0.04133  0.70107  1
 O  O3  1  0.33067  0.45867  0.70107  1
 O  O4  1  0.66933  0.95867  0.29893  1
 Rb  Rb1  1  0.84031  0.75000  0.71813  1
 Rb  Rb2  1  0.15969  0.25000  0.28187  1
 S  S1  1  0.60099  0.75000  0.17653  1
 S  S2  1  0.39901  0.25000  0.82347  1
