CIF file written using JARVIS-Tools package.
data_KSc2F7
_symmetry_space_group_name_H-M  'Cmmm'
_cell_length_a       4.06037
_cell_length_b       6.25082
_cell_length_c       6.25083
_cell_angle_alpha    116.647
_cell_angle_beta     90
_cell_angle_gamma    90

_symmetry_Int_Tables_number  65
_chemical_formula_structural  KSc2F7
_chemical_formula_sum  KSc2F7
_cell_volume  141.79962667311355
_cell_formula_units_Z  1
loop_
  _symmetry_equiv_pos_site_id
 _symmetry_equiv_pos_as_xyz
 1  'x, y, z'
loop_
 _atom_site_type_symbol
 _atom_site_label
 _atom_site_symmetry_multiplicity
 _atom_site_fract_x
 _atom_site_fract_y
 _atom_site_fract_z
 _atom_site_fract_occupancy
 F  F1  1  0.00000  0.70278  0.29722  1
 F  F2  1  0.00000  0.29722  0.70278  1
 F  F3  1  0.50000  0.04518  0.33312  1
 F  F4  1  0.50000  0.95482  0.66688  1
 F  F5  1  0.50000  0.33312  0.04518  1
 F  F6  1  0.50000  0.66688  0.95482  1
 F  F7  1  0.50000  0.50000  0.50000  1
 K  K1  1  0.00000  0.00000  0.00000  1
 Sc  Sc1  1  0.50000  0.69313  0.30687  1
 Sc  Sc2  1  0.50000  0.30687  0.69313  1
