CIF file written using JARVIS-Tools package.
data_FeSe
_symmetry_space_group_name_H-M  'P6_3/mmc'
_cell_length_a       3.81185
_cell_length_b       3.81185
_cell_length_c       5.05686
_cell_angle_alpha    90
_cell_angle_beta     90
_cell_angle_gamma    119.993

_symmetry_Int_Tables_number  194
_chemical_formula_structural  FeSe
_chemical_formula_sum  Fe2Se2
_cell_volume  63.637378740162305
_cell_formula_units_Z  2
loop_
  _symmetry_equiv_pos_site_id
 _symmetry_equiv_pos_as_xyz
 1  'x, y, z'
loop_
 _atom_site_type_symbol
 _atom_site_label
 _atom_site_symmetry_multiplicity
 _atom_site_fract_x
 _atom_site_fract_y
 _atom_site_fract_z
 _atom_site_fract_occupancy
 Fe  Fe1  1  0.00000  0.00000  0.50000  1
 Fe  Fe2  1  0.00000  0.00000  0.00000  1
 Se  Se1  1  0.66665  0.33335  0.75000  1
 Se  Se2  1  0.33335  0.66665  0.25000  1
