CIF file written using JARVIS-Tools package.
data_MoH2O4
_symmetry_space_group_name_H-M  'P-1'
_cell_length_a       3.85934
_cell_length_b       5.71845
_cell_length_c       7.4215
_cell_angle_alpha    74.3055
_cell_angle_beta     88.5994
_cell_angle_gamma    70.5089

_symmetry_Int_Tables_number  2
_chemical_formula_structural  MoH2O4
_chemical_formula_sum  Mo2H4O8
_cell_volume  148.2542939936818
_cell_formula_units_Z  2
loop_
  _symmetry_equiv_pos_site_id
 _symmetry_equiv_pos_as_xyz
 1  'x, y, z'
loop_
 _atom_site_type_symbol
 _atom_site_label
 _atom_site_symmetry_multiplicity
 _atom_site_fract_x
 _atom_site_fract_y
 _atom_site_fract_z
 _atom_site_fract_occupancy
 H  H1  1  0.23021  0.52205  0.83010  1
 H  H2  1  0.74085  0.47812  0.17573  1
 H  H3  1  0.67765  0.62639  0.82609  1
 H  H4  1  0.29342  0.37379  0.17975  1
 Mo  Mo1  1  0.15895  0.09416  0.77514  1
 Mo  Mo2  1  0.81214  0.90602  0.23071  1
 O  O1  1  0.12613  0.19694  0.53949  1
 O  O2  1  0.84500  0.80324  0.46635  1
 O  O3  1  0.25326  0.93599  0.16351  1
 O  O4  1  0.71781  0.06420  0.84233  1
 O  O5  1  0.07502  0.40637  0.83839  1
 O  O6  1  0.89604  0.59380  0.16746  1
 O  O7  1  0.40783  0.73122  0.82116  1
 O  O8  1  0.56325  0.26896  0.18470  1
