CIF file written using JARVIS-Tools package.
data_CuBrO2
_symmetry_space_group_name_H-M  'R-3m'
_cell_length_a       3.19609
_cell_length_b       3.1961
_cell_length_c       6.20216
_cell_angle_alpha    75.0688
_cell_angle_beta     75.0687
_cell_angle_gamma    60

_symmetry_Int_Tables_number  166
_chemical_formula_structural  CuBrO2
_chemical_formula_sum  CuBrO2
_cell_volume  52.38244118608311
_cell_formula_units_Z  1
loop_
  _symmetry_equiv_pos_site_id
 _symmetry_equiv_pos_as_xyz
 1  'x, y, z'
loop_
 _atom_site_type_symbol
 _atom_site_label
 _atom_site_symmetry_multiplicity
 _atom_site_fract_x
 _atom_site_fract_y
 _atom_site_fract_z
 _atom_site_fract_occupancy
 Br  Br1  1  0.00000  0.00000  0.00000  1
 Cu  Cu1  1  0.50000  0.50000  0.50000  1
 O  O1  1  0.88709  0.88709  0.33874  1
 O  O2  1  0.11291  0.11291  0.66126  1
