CIF file written using JARVIS-Tools package.
data_ErMnSi
_symmetry_space_group_name_H-M  'Pnma'
_cell_length_a       4.09164
_cell_length_b       6.89552
_cell_length_c       7.41813
_cell_angle_alpha    90
_cell_angle_beta     90
_cell_angle_gamma    90

_symmetry_Int_Tables_number  62
_chemical_formula_structural  ErMnSi
_chemical_formula_sum  Er4Mn4Si4
_cell_volume  209.2951504595356
_cell_formula_units_Z  4
loop_
  _symmetry_equiv_pos_site_id
 _symmetry_equiv_pos_as_xyz
 1  'x, y, z'
loop_
 _atom_site_type_symbol
 _atom_site_label
 _atom_site_symmetry_multiplicity
 _atom_site_fract_x
 _atom_site_fract_y
 _atom_site_fract_z
 _atom_site_fract_occupancy
 Er  Er1  1  0.25000  0.00508  0.81214  1
 Er  Er2  1  0.75000  0.99492  0.18786  1
 Er  Er3  1  0.25000  0.50508  0.68786  1
 Er  Er4  1  0.75000  0.49492  0.31214  1
 Mn  Mn1  1  0.75000  0.85718  0.56144  1
 Mn  Mn2  1  0.25000  0.14282  0.43856  1
 Mn  Mn3  1  0.75000  0.35718  0.93856  1
 Mn  Mn4  1  0.25000  0.64282  0.06144  1
 Si  Si1  1  0.25000  0.29015  0.10878  1
 Si  Si2  1  0.75000  0.70985  0.89122  1
 Si  Si3  1  0.25000  0.79015  0.39122  1
 Si  Si4  1  0.75000  0.20985  0.60878  1
