CIF file written using JARVIS-Tools package.
data_F
_symmetry_space_group_name_H-M  'C2/c'
_cell_length_a       3.3232
_cell_length_b       3.3232
_cell_length_c       5.99221
_cell_angle_alpha    68.8221
_cell_angle_beta     68.8221
_cell_angle_gamma    59.2119

_symmetry_Int_Tables_number  15
_chemical_formula_structural  F
_chemical_formula_sum  F4
_cell_volume  51.70978007098054
_cell_formula_units_Z  4
loop_
  _symmetry_equiv_pos_site_id
 _symmetry_equiv_pos_as_xyz
 1  'x, y, z'
loop_
 _atom_site_type_symbol
 _atom_site_label
 _atom_site_symmetry_multiplicity
 _atom_site_fract_x
 _atom_site_fract_y
 _atom_site_fract_z
 _atom_site_fract_occupancy
 F  F1  1  0.81231  0.65841  0.29239  1
 F  F2  1  0.34159  0.18769  0.20761  1
 F  F3  1  0.18769  0.34159  0.70761  1
 F  F4  1  0.65841  0.81231  0.79239  1
