CIF file written using JARVIS-Tools package.
data_VNi2
_symmetry_space_group_name_H-M  'Immm'
_cell_length_a       2.53037
_cell_length_b       3.57079
_cell_length_c       4.38388
_cell_angle_alpha    114.033
_cell_angle_beta     106.774
_cell_angle_gamma    90

_symmetry_Int_Tables_number  71
_chemical_formula_structural  VNi2
_chemical_formula_sum  VNi2
_cell_volume  34.32285332196774
_cell_formula_units_Z  1
loop_
  _symmetry_equiv_pos_site_id
 _symmetry_equiv_pos_as_xyz
 1  'x, y, z'
loop_
 _atom_site_type_symbol
 _atom_site_label
 _atom_site_symmetry_multiplicity
 _atom_site_fract_x
 _atom_site_fract_y
 _atom_site_fract_z
 _atom_site_fract_occupancy
 Ni  Ni1  1  0.66790  0.66790  0.33580  1
 Ni  Ni2  1  0.33210  0.33210  0.66420  1
 V  V1  1  0.00000  0.00000  0.00000  1
