CIF file written using JARVIS-Tools package.
data_CuBO2
_symmetry_space_group_name_H-M  'R-3m'
_cell_length_a       2.53262
_cell_length_b       2.53261
_cell_length_c       5.74565
_cell_angle_alpha    77.2678
_cell_angle_beta     77.2678
_cell_angle_gamma    60

_symmetry_Int_Tables_number  166
_chemical_formula_structural  CuBO2
_chemical_formula_sum  CuBO2
_cell_volume  30.86514610366913
_cell_formula_units_Z  1
loop_
  _symmetry_equiv_pos_site_id
 _symmetry_equiv_pos_as_xyz
 1  'x, y, z'
loop_
 _atom_site_type_symbol
 _atom_site_label
 _atom_site_symmetry_multiplicity
 _atom_site_fract_x
 _atom_site_fract_y
 _atom_site_fract_z
 _atom_site_fract_occupancy
 B  B1  1  0.50000  0.50000  0.50000  1
 Cu  Cu1  1  0.00000  0.00000  0.00000  1
 O  O1  1  0.11426  0.11426  0.65723  1
 O  O2  1  0.88574  0.88574  0.34277  1
