CIF file written using JARVIS-Tools package.
data_SmYO2
_symmetry_space_group_name_H-M  'R-3m'
_cell_length_a       3.70022
_cell_length_b       6.84396
_cell_length_c       3.70022
_cell_angle_alpha    105.684
_cell_angle_beta     60
_cell_angle_gamma    105.684

_symmetry_Int_Tables_number  166
_chemical_formula_structural  SmYO2
_chemical_formula_sum  SmYO2
_cell_volume  77.09590341582344
_cell_formula_units_Z  1
loop_
  _symmetry_equiv_pos_site_id
 _symmetry_equiv_pos_as_xyz
 1  'x, y, z'
loop_
 _atom_site_type_symbol
 _atom_site_label
 _atom_site_symmetry_multiplicity
 _atom_site_fract_x
 _atom_site_fract_y
 _atom_site_fract_z
 _atom_site_fract_occupancy
 O  O1  1  0.11195  0.33585  0.11195  1
 O  O2  1  0.88805  0.66415  0.88805  1
 Sm  Sm1  1  0.50000  0.50000  0.50000  1
 Y  Y1  1  0.00000  0.00000  0.00000  1
