CIF file written using JARVIS-Tools package.
data_N
_symmetry_space_group_name_H-M  'Pnma'
_cell_length_a       3.28497
_cell_length_b       2.18103
_cell_length_c       5.91432
_cell_angle_alpha    90
_cell_angle_beta     90
_cell_angle_gamma    90

_symmetry_Int_Tables_number  62
_chemical_formula_structural  N
_chemical_formula_sum  N4
_cell_volume  42.37377182944904
_cell_formula_units_Z  4
loop_
  _symmetry_equiv_pos_site_id
 _symmetry_equiv_pos_as_xyz
 1  'x, y, z'
loop_
 _atom_site_type_symbol
 _atom_site_label
 _atom_site_symmetry_multiplicity
 _atom_site_fract_x
 _atom_site_fract_y
 _atom_site_fract_z
 _atom_site_fract_occupancy
 N  N1  1  0.85709  0.50756  0.25000  1
 N  N2  1  0.64291  0.00756  0.25000  1
 N  N3  1  0.14291  0.49244  0.75000  1
 N  N4  1  0.35709  0.99244  0.75000  1
