CIF file written using JARVIS-Tools package.
data_ScMo3O8
_symmetry_space_group_name_H-M  'Cm'
_cell_length_a       4.84491
_cell_length_b       5.73989
_cell_length_c       5.74001
_cell_angle_alpha    119.621
_cell_angle_beta     89.7846
_cell_angle_gamma    90.2149

_symmetry_Int_Tables_number  8
_chemical_formula_structural  ScMo3O8
_chemical_formula_sum  ScMo3O8
_cell_volume  138.76334170975326
_cell_formula_units_Z  1
loop_
  _symmetry_equiv_pos_site_id
 _symmetry_equiv_pos_as_xyz
 1  'x, y, z'
loop_
 _atom_site_type_symbol
 _atom_site_label
 _atom_site_symmetry_multiplicity
 _atom_site_fract_x
 _atom_site_fract_y
 _atom_site_fract_z
 _atom_site_fract_occupancy
 Mo  Mo1  1  0.74336  0.69125  0.83705  1
 Mo  Mo2  1  0.74738  0.14801  0.85235  1
 Mo  Mo3  1  0.74337  0.16329  0.30910  1
 O  O1  1  0.53042  0.00785  0.50759  1
 O  O2  1  0.95169  0.33233  0.66801  1
 O  O3  1  -0.00461  0.83240  0.66461  1
 O  O4  1  0.97587  0.83589  0.16444  1
 O  O5  1  0.53039  0.49275  0.99248  1
 O  O6  1  0.46048  0.98682  0.01354  1
 O  O7  1  0.99538  0.33575  0.16797  1
 O  O8  1  0.52222  0.50021  0.50013  1
 Sc  Sc1  1  0.26494  0.67553  0.32483  1
