CIF file written using JARVIS-Tools package.
data_AlH3O3
_symmetry_space_group_name_H-M  'P-1'
_cell_length_a       4.90186
_cell_length_b       5.22499
_cell_length_c       5.27216
_cell_angle_alpha    64.1726
_cell_angle_beta     79.1657
_cell_angle_gamma    60.3778

_symmetry_Int_Tables_number  2
_chemical_formula_structural  AlH3O3
_chemical_formula_sum  Al2H6O6
_cell_volume  105.59305580463219
_cell_formula_units_Z  2
loop_
  _symmetry_equiv_pos_site_id
 _symmetry_equiv_pos_as_xyz
 1  'x, y, z'
loop_
 _atom_site_type_symbol
 _atom_site_label
 _atom_site_symmetry_multiplicity
 _atom_site_fract_x
 _atom_site_fract_y
 _atom_site_fract_z
 _atom_site_fract_occupancy
 Al  Al1  1  0.65772  0.67914  0.00094  1
 Al  Al2  1  0.34228  0.32086  -0.00094  1
 H  H1  1  0.61768  0.17633  0.57942  1
 H  H2  1  0.38232  0.82367  0.42058  1
 H  H3  1  -0.05365  0.37912  0.68968  1
 H  H4  1  0.05365  0.62088  0.31032  1
 H  H5  1  0.13131  0.89798  0.77111  1
 H  H6  1  0.86869  0.10202  0.22889  1
 O  O1  1  0.64045  0.09511  0.78837  1
 O  O2  1  0.35955  0.90489  0.21163  1
 O  O3  1  -0.01893  0.49153  0.77704  1
 O  O4  1  0.01893  0.50847  0.22296  1
 O  O5  1  0.35033  0.73226  0.78065  1
 O  O6  1  0.64967  0.26774  0.21935  1
