CIF file written using JARVIS-Tools package.
data_Mg2Sb2O5
_symmetry_space_group_name_H-M  'Pmc2_1'
_cell_length_a       3.13551
_cell_length_b       9.58582
_cell_length_c       8.39061
_cell_angle_alpha    89.9987
_cell_angle_beta     89.9988
_cell_angle_gamma    90.0004

_symmetry_Int_Tables_number  26
_chemical_formula_structural  Mg2Sb2O5
_chemical_formula_sum  Mg4Sb4O0
_cell_volume  252.19158636466247
_cell_formula_units_Z  2
loop_
  _symmetry_equiv_pos_site_id
 _symmetry_equiv_pos_as_xyz
 1  'x, y, z'
loop_
 _atom_site_type_symbol
 _atom_site_label
 _atom_site_symmetry_multiplicity
 _atom_site_fract_x
 _atom_site_fract_y
 _atom_site_fract_z
 _atom_site_fract_occupancy
 Mg  Mg1  1  0.50004  -0.01521  0.81932  1
 Mg  Mg2  1  0.49996  -0.01904  0.16986  1
 Mg  Mg3  1  0.50003  0.51903  0.66980  1
 Mg  Mg4  1  0.49997  0.51523  0.31927  1
 O  O1  1  -0.00000  -0.05224  -0.00121  1
 O  O2  1  -0.00004  0.52439  0.16379  1
 O  O3  1  -0.00003  0.05310  0.30152  1
 O  O4  1  0.00001  0.55223  0.49872  1
 O  O5  1  0.49997  0.76350  0.18782  1
 O  O6  1  0.50003  0.19849  0.85516  1
 O  O7  1  0.50003  0.73646  0.68779  1
 O  O8  1  0.00004  0.97559  0.66385  1
 O  O9  1  0.00004  0.44690  0.80147  1
 O  O10  1  0.49996  0.30151  0.35511  1
 Sb  Sb1  1  0.00002  0.30178  0.96598  1
 Sb  Sb2  1  -0.00002  0.70445  0.03789  1
 Sb  Sb3  1  -0.00004  0.19826  0.46597  1
 Sb  Sb4  1  0.00003  0.79557  0.53790  1
