CIF file written using JARVIS-Tools package.
data_SnO2
_symmetry_space_group_name_H-M  'C2/m'
_cell_length_a       3.23447
_cell_length_b       7.77774
_cell_length_c       7.76954
_cell_angle_alpha    87.7591
_cell_angle_beta     102.014
_cell_angle_gamma    102.002

_symmetry_Int_Tables_number  12
_chemical_formula_structural  SnO2
_chemical_formula_sum  Sn4O8
_cell_volume  186.99525758537385
_cell_formula_units_Z  4
loop_
  _symmetry_equiv_pos_site_id
 _symmetry_equiv_pos_as_xyz
 1  'x, y, z'
loop_
 _atom_site_type_symbol
 _atom_site_label
 _atom_site_symmetry_multiplicity
 _atom_site_fract_x
 _atom_site_fract_y
 _atom_site_fract_z
 _atom_site_fract_occupancy
 O  O1  1  0.84143  0.29747  0.38034  1
 O  O2  1  0.45994  0.61604  0.29876  1
 O  O3  1  0.54387  0.38359  0.69911  1
 O  O4  1  0.16238  0.70217  0.61753  1
 O  O5  1  0.15752  0.94647  0.36352  1
 O  O6  1  0.79415  0.63552  0.94771  1
 O  O7  1  0.84628  0.05316  0.63434  1
 O  O8  1  0.20966  0.36412  0.05015  1
 Sn  Sn1  1  0.65205  0.81630  0.48276  1
 Sn  Sn2  1  0.16898  0.51740  0.81549  1
 Sn  Sn3  1  0.83484  0.48224  0.18237  1
 Sn  Sn4  1  0.35175  0.18334  0.51510  1
