CIF file written using JARVIS-Tools package.
data_Mg2TiSbO6
_symmetry_space_group_name_H-M  'P2_1/m'
_cell_length_a       5.2406
_cell_length_b       7.74467
_cell_length_c       5.39379
_cell_angle_alpha    90
_cell_angle_beta     91.3121
_cell_angle_gamma    90

_symmetry_Int_Tables_number  11
_chemical_formula_structural  Mg2TiSbO6
_chemical_formula_sum  Mg4Ti2Sb2O2
_cell_volume  218.85897531743186
_cell_formula_units_Z  2
loop_
  _symmetry_equiv_pos_site_id
 _symmetry_equiv_pos_as_xyz
 1  'x, y, z'
loop_
 _atom_site_type_symbol
 _atom_site_label
 _atom_site_symmetry_multiplicity
 _atom_site_fract_x
 _atom_site_fract_y
 _atom_site_fract_z
 _atom_site_fract_occupancy
 Mg  Mg1  1  0.49118  0.75000  0.44002  1
 Mg  Mg2  1  0.50882  0.25000  0.55998  1
 Mg  Mg3  1  0.99379  0.75000  0.96277  1
 Mg  Mg4  1  0.00621  0.25000  0.03723  1
 O  O1  1  0.66016  0.42959  0.31652  1
 O  O2  1  0.86576  0.75000  0.58197  1
 O  O3  1  0.33984  0.92959  0.68348  1
 O  O4  1  0.18502  0.57130  0.17206  1
 O  O5  1  0.81498  0.07130  0.82794  1
 O  O6  1  0.18502  0.92870  0.17206  1
 O  O7  1  0.13424  0.25000  0.41803  1
 O  O8  1  0.62865  0.75000  0.07534  1
 O  O9  1  0.81498  0.42870  0.82794  1
 O  O10  1  0.33984  0.57041  0.68348  1
 O  O11  1  0.66016  0.07041  0.31652  1
 O  O12  1  0.37135  0.25000  0.92466  1
 Sb  Sb1  1  0.00000  0.00000  0.50000  1
 Sb  Sb2  1  0.00000  0.50000  0.50000  1
 Ti  Ti1  1  0.50000  0.00000  0.00000  1
 Ti  Ti2  1  0.50000  0.50000  0.00000  1
