CIF file written using JARVIS-Tools package.
data_Co3B
_symmetry_space_group_name_H-M  'Pnma'
_cell_length_a       4.40515
_cell_length_b       5.14826
_cell_length_c       6.61021
_cell_angle_alpha    90
_cell_angle_beta     90
_cell_angle_gamma    90

_symmetry_Int_Tables_number  62
_chemical_formula_structural  Co3B
_chemical_formula_sum  Co2B4
_cell_volume  149.91183552636733
_cell_formula_units_Z  4
loop_
  _symmetry_equiv_pos_site_id
 _symmetry_equiv_pos_as_xyz
 1  'x, y, z'
loop_
 _atom_site_type_symbol
 _atom_site_label
 _atom_site_symmetry_multiplicity
 _atom_site_fract_x
 _atom_site_fract_y
 _atom_site_fract_z
 _atom_site_fract_occupancy
 B  B1  1  0.56155  0.11987  0.75000  1
 B  B2  1  0.06155  0.38013  0.25000  1
 B  B3  1  0.93845  0.61987  0.75000  1
 B  B4  1  0.43845  0.88013  0.25000  1
 Co  Co1  1  0.65033  0.81521  0.94067  1
 Co  Co2  1  0.15033  0.68479  0.05933  1
 Co  Co3  1  0.84967  0.31521  0.55933  1
 Co  Co4  1  0.34967  0.18479  0.44067  1
 Co  Co5  1  0.86657  0.02374  0.25000  1
 Co  Co6  1  0.36657  0.47626  0.75000  1
 Co  Co7  1  0.63343  0.52374  0.25000  1
 Co  Co8  1  0.13343  0.97626  0.75000  1
 Co  Co9  1  0.65033  0.81521  0.55933  1
 Co  Co10  1  0.15033  0.68479  0.44067  1
 Co  Co11  1  0.84967  0.31521  0.94067  1
 Co  Co12  1  0.34967  0.18479  0.05933  1
