CIF file written using JARVIS-Tools package.
data_Bi
_symmetry_space_group_name_H-M  'Pnma'
_cell_length_a       4.63136
_cell_length_b       4.63719
_cell_length_c       8.00543
_cell_angle_alpha    125.008
_cell_angle_beta     90
_cell_angle_gamma    90

_symmetry_Int_Tables_number  62
_chemical_formula_structural  Bi
_chemical_formula_sum  Bi4
_cell_volume  140.82203378161722
_cell_formula_units_Z  4
loop_
  _symmetry_equiv_pos_site_id
 _symmetry_equiv_pos_as_xyz
 1  'x, y, z'
loop_
 _atom_site_type_symbol
 _atom_site_label
 _atom_site_symmetry_multiplicity
 _atom_site_fract_x
 _atom_site_fract_y
 _atom_site_fract_z
 _atom_site_fract_occupancy
 Bi  Bi1  1  0.75000  0.99925  0.75093  1
 Bi  Bi2  1  0.25000  0.00075  0.24907  1
 Bi  Bi3  1  0.75000  0.50261  0.25094  1
 Bi  Bi4  1  0.25000  0.49739  0.74906  1
