CIF file written using JARVIS-Tools package.
data_Rb3Fe2Se4
_symmetry_space_group_name_H-M  'Pnma'
_cell_length_a       7.61137
_cell_length_b       11.1993
_cell_length_c       12.5524
_cell_angle_alpha    90
_cell_angle_beta     90
_cell_angle_gamma    90

_symmetry_Int_Tables_number  62
_chemical_formula_structural  Rb3Fe2Se4
_chemical_formula_sum  Rb2Fe8Se6
_cell_volume  1069.9875465338498
_cell_formula_units_Z  4
loop_
  _symmetry_equiv_pos_site_id
 _symmetry_equiv_pos_as_xyz
 1  'x, y, z'
loop_
 _atom_site_type_symbol
 _atom_site_label
 _atom_site_symmetry_multiplicity
 _atom_site_fract_x
 _atom_site_fract_y
 _atom_site_fract_z
 _atom_site_fract_occupancy
 Fe  Fe1  1  0.55562  0.13391  0.02944  1
 Fe  Fe2  1  0.44438  0.63391  0.97056  1
 Fe  Fe3  1  0.05562  0.36609  0.47056  1
 Fe  Fe4  1  0.94438  0.86609  0.52944  1
 Fe  Fe5  1  0.44438  0.86609  0.97056  1
 Fe  Fe6  1  0.94438  0.63391  0.52944  1
 Fe  Fe7  1  0.05562  0.13391  0.47056  1
 Fe  Fe8  1  0.55562  0.36609  0.02944  1
 Rb  Rb1  1  0.58192  0.43575  0.36611  1
 Rb  Rb2  1  0.08192  0.06425  0.13389  1
 Rb  Rb3  1  0.09352  0.25000  0.76347  1
 Rb  Rb4  1  0.91808  0.56425  0.86611  1
 Rb  Rb5  1  0.41808  0.56425  0.63389  1
 Rb  Rb6  1  0.91808  0.93575  0.86611  1
 Rb  Rb7  1  0.58192  0.06425  0.36611  1
 Rb  Rb8  1  0.08192  0.43575  0.13389  1
 Rb  Rb9  1  0.40648  0.75000  0.26347  1
 Rb  Rb10  1  0.90648  0.75000  0.23653  1
 Rb  Rb11  1  0.59352  0.25000  0.73653  1
 Rb  Rb12  1  0.41808  0.93575  0.63389  1
 Se  Se1  1  0.14525  0.94467  0.39396  1
 Se  Se2  1  0.30829  0.25000  0.53013  1
 Se  Se3  1  0.80829  0.25000  0.96987  1
 Se  Se4  1  0.69171  0.75000  0.46987  1
 Se  Se5  1  0.19171  0.75000  0.03013  1
 Se  Se6  1  0.42522  0.25000  0.16790  1
 Se  Se7  1  0.92522  0.25000  0.33210  1
 Se  Se8  1  0.85475  0.05533  0.60604  1
 Se  Se9  1  0.14525  0.55533  0.39396  1
 Se  Se10  1  0.64525  0.94467  0.10604  1
 Se  Se11  1  0.35475  0.44467  0.89396  1
 Se  Se12  1  0.85475  0.44467  0.60604  1
 Se  Se13  1  0.35475  0.05533  0.89396  1
 Se  Se14  1  0.57478  0.75000  0.83210  1
 Se  Se15  1  0.07478  0.75000  0.66790  1
 Se  Se16  1  0.64525  0.55533  0.10604  1
