CIF file written using JARVIS-Tools package.
data_Fe4OF7
_symmetry_space_group_name_H-M  'Cmcm'
_cell_length_a       4.83379
_cell_length_b       4.83379
_cell_length_c       12.3535
_cell_angle_alpha    90
_cell_angle_beta     90
_cell_angle_gamma    91.3613

_symmetry_Int_Tables_number  63
_chemical_formula_structural  Fe4OF7
_chemical_formula_sum  Fe8O2F4
_cell_volume  288.56440499375486
_cell_formula_units_Z  2
loop_
  _symmetry_equiv_pos_site_id
 _symmetry_equiv_pos_as_xyz
 1  'x, y, z'
loop_
 _atom_site_type_symbol
 _atom_site_label
 _atom_site_symmetry_multiplicity
 _atom_site_fract_x
 _atom_site_fract_y
 _atom_site_fract_z
 _atom_site_fract_occupancy
 F  F1  1  0.79303  0.19952  0.12843  1
 F  F2  1  0.19952  0.79303  0.12843  1
 F  F3  1  0.80048  0.20697  0.62843  1
 F  F4  1  0.20697  0.80048  0.62843  1
 F  F5  1  0.19952  0.79303  0.87157  1
 F  F6  1  0.27586  0.27586  0.00000  1
 F  F7  1  0.20697  0.80048  0.37157  1
 F  F8  1  0.30321  0.30321  0.75266  1
 F  F9  1  0.69679  0.69679  0.25266  1
 F  F10  1  0.72414  0.72414  0.50000  1
 F  F11  1  0.69679  0.69679  0.74734  1
 F  F12  1  0.79303  0.19952  0.87157  1
 F  F13  1  0.80048  0.20697  0.37157  1
 F  F14  1  0.30321  0.30321  0.24734  1
 Fe  Fe1  1  0.49542  0.49542  0.38465  1
 Fe  Fe2  1  0.50458  0.50458  0.88465  1
 Fe  Fe3  1  0.49542  0.49542  0.61535  1
 Fe  Fe4  1  0.50458  0.50458  0.11535  1
 Fe  Fe5  1  0.00000  0.00000  0.75000  1
 Fe  Fe6  1  0.02677  0.02677  0.50000  1
 Fe  Fe7  1  0.00000  0.00000  0.25000  1
 Fe  Fe8  1  0.97323  0.97323  0.00000  1
 O  O1  1  0.69674  0.69674  0.00000  1
 O  O2  1  0.30326  0.30326  0.50000  1
