CIF file written using JARVIS-Tools package.
data_WN
_symmetry_space_group_name_H-M  'P6_3mc'
_cell_length_a       2.91434
_cell_length_b       2.91434
_cell_length_c       6.48751
_cell_angle_alpha    90
_cell_angle_beta     90
_cell_angle_gamma    120

_symmetry_Int_Tables_number  186
_chemical_formula_structural  WN
_chemical_formula_sum  W2N2
_cell_volume  47.71862570418346
_cell_formula_units_Z  2
loop_
  _symmetry_equiv_pos_site_id
 _symmetry_equiv_pos_as_xyz
 1  'x, y, z'
loop_
 _atom_site_type_symbol
 _atom_site_label
 _atom_site_symmetry_multiplicity
 _atom_site_fract_x
 _atom_site_fract_y
 _atom_site_fract_z
 _atom_site_fract_occupancy
 N  N1  1  0.00000  0.00000  0.03278  1
 N  N2  1  0.33334  0.66667  0.53278  1
 W  W1  1  0.00000  0.00000  0.34222  1
 W  W2  1  0.33334  0.66667  0.84222  1
