CIF file written using JARVIS-Tools package.
data_RbSb2
_symmetry_space_group_name_H-M  'C2/m'
_cell_length_a       4.2205
_cell_length_b       7.27611
_cell_length_c       8.58972
_cell_angle_alpha    103.769
_cell_angle_beta     90
_cell_angle_gamma    106.859

_symmetry_Int_Tables_number  12
_chemical_formula_structural  RbSb2
_chemical_formula_sum  Rb2Sb4
_cell_volume  244.5113515124684
_cell_formula_units_Z  2
loop_
  _symmetry_equiv_pos_site_id
 _symmetry_equiv_pos_as_xyz
 1  'x, y, z'
loop_
 _atom_site_type_symbol
 _atom_site_label
 _atom_site_symmetry_multiplicity
 _atom_site_fract_x
 _atom_site_fract_y
 _atom_site_fract_z
 _atom_site_fract_occupancy
 Rb  Rb1  1  0.83554  0.67109  0.30144  1
 Rb  Rb2  1  0.16446  0.32891  0.69856  1
 Sb  Sb1  1  0.56600  0.13200  0.31812  1
 Sb  Sb2  1  0.90229  0.80458  0.89157  1
 Sb  Sb3  1  0.09771  0.19542  0.10843  1
 Sb  Sb4  1  0.43400  0.86800  0.68188  1
