CIF file written using JARVIS-Tools package.
data_FeAs2O7
_symmetry_space_group_name_H-M  'C2'
_cell_length_a       5.06195
_cell_length_b       5.06196
_cell_length_c       4.69473
_cell_angle_alpha    80.6801
_cell_angle_beta     99.3199
_cell_angle_gamma    81.1586

_symmetry_Int_Tables_number  5
_chemical_formula_structural  FeAs2O7
_chemical_formula_sum  FeAs2O7
_cell_volume  115.12291237224211
_cell_formula_units_Z  1
loop_
  _symmetry_equiv_pos_site_id
 _symmetry_equiv_pos_as_xyz
 1  'x, y, z'
loop_
 _atom_site_type_symbol
 _atom_site_label
 _atom_site_symmetry_multiplicity
 _atom_site_fract_x
 _atom_site_fract_y
 _atom_site_fract_z
 _atom_site_fract_occupancy
 As  As1  1  0.68632  0.25994  0.40212  1
 As  As2  1  0.25994  0.68632  0.59788  1
 Fe  Fe1  1  0.11076  0.11076  0.00000  1
 O  O1  1  0.83641  0.03066  0.72759  1
 O  O2  1  0.85418  0.35768  0.12098  1
 O  O3  1  0.39626  0.13667  0.29861  1
 O  O4  1  0.03066  0.83641  0.27241  1
 O  O5  1  0.35768  0.85418  0.87902  1
 O  O6  1  0.13667  0.39626  0.70139  1
 O  O7  1  0.57859  0.57859  0.50000  1
