CIF file written using JARVIS-Tools package.
data_YbNiC2
_symmetry_space_group_name_H-M  'Amm2'
_cell_length_a       3.51798
_cell_length_b       3.76318
_cell_length_c       3.76318
_cell_angle_alpha    106.142
_cell_angle_beta     90
_cell_angle_gamma    90

_symmetry_Int_Tables_number  38
_chemical_formula_structural  YbNiC2
_chemical_formula_sum  YbNiC2
_cell_volume  47.85612388292142
_cell_formula_units_Z  1
loop_
  _symmetry_equiv_pos_site_id
 _symmetry_equiv_pos_as_xyz
 1  'x, y, z'
loop_
 _atom_site_type_symbol
 _atom_site_label
 _atom_site_symmetry_multiplicity
 _atom_site_fract_x
 _atom_site_fract_y
 _atom_site_fract_z
 _atom_site_fract_occupancy
 C  C1  1  0.50000  0.84256  0.44953  1
 C  C2  1  0.50000  0.55047  0.15744  1
 Ni  Ni1  1  0.50000  0.38353  0.61647  1
 Yb  Yb1  1  0.00000  0.00845  0.99155  1
