CIF file written using JARVIS-Tools package.
data_Sr2LiReN4
_symmetry_space_group_name_H-M  'P2_1/m'
_cell_length_a       6.18826
_cell_length_b       5.86584
_cell_length_c       6.90529
_cell_angle_alpha    90
_cell_angle_beta     106.615
_cell_angle_gamma    90

_symmetry_Int_Tables_number  11
_chemical_formula_structural  Sr2LiReN4
_chemical_formula_sum  Sr4Li2Re2N8
_cell_volume  240.19195535711486
_cell_formula_units_Z  2
loop_
  _symmetry_equiv_pos_site_id
 _symmetry_equiv_pos_as_xyz
 1  'x, y, z'
loop_
 _atom_site_type_symbol
 _atom_site_label
 _atom_site_symmetry_multiplicity
 _atom_site_fract_x
 _atom_site_fract_y
 _atom_site_fract_z
 _atom_site_fract_occupancy
 Li  Li1  1  0.30716  0.75000  0.68911  1
 Li  Li2  1  0.69284  0.25000  0.31089  1
 N  N1  1  0.47267  0.50380  0.25227  1
 N  N2  1  0.52733  0.00380  0.74773  1
 N  N3  1  0.52733  0.49620  0.74773  1
 N  N4  1  0.47267  0.99620  0.25227  1
 N  N5  1  0.09976  0.75000  0.37361  1
 N  N6  1  0.90024  0.25000  0.62639  1
 N  N7  1  0.11680  0.75000  0.93410  1
 N  N8  1  0.88320  0.25000  0.06590  1
 Re  Re1  1  0.71669  0.25000  0.79811  1
 Re  Re2  1  0.28331  0.75000  0.20189  1
 Sr  Sr1  1  0.26158  0.25000  0.94271  1
 Sr  Sr2  1  0.73842  0.75000  0.05729  1
 Sr  Sr3  1  0.78317  0.75000  0.56915  1
 Sr  Sr4  1  0.21683  0.25000  0.43085  1
