CIF file written using JARVIS-Tools package.
data_V2CdO6
_symmetry_space_group_name_H-M  'C2/m'
_cell_length_a       3.57002
_cell_length_b       5.06913
_cell_length_c       6.98486
_cell_angle_alpha    79.7802
_cell_angle_beta     75.2742
_cell_angle_gamma    110.681

_symmetry_Int_Tables_number  12
_chemical_formula_structural  V2CdO6
_chemical_formula_sum  V2CdO6
_cell_volume  109.27430513203079
_cell_formula_units_Z  1
loop_
  _symmetry_equiv_pos_site_id
 _symmetry_equiv_pos_as_xyz
 1  'x, y, z'
loop_
 _atom_site_type_symbol
 _atom_site_label
 _atom_site_symmetry_multiplicity
 _atom_site_fract_x
 _atom_site_fract_y
 _atom_site_fract_z
 _atom_site_fract_occupancy
 Cd  Cd1  1  0.00000  0.00000  0.00000  1
 O  O1  1  0.33058  0.35553  0.69459  1
 O  O2  1  0.66942  0.64447  0.30541  1
 O  O3  1  0.46061  0.79271  0.87146  1
 O  O4  1  0.53939  0.20729  0.12854  1
 O  O5  1  0.86882  0.17559  0.43820  1
 O  O6  1  0.13118  0.82441  0.56180  1
 V  V1  1  0.54699  0.73001  0.63573  1
 V  V2  1  0.45301  0.26999  0.36427  1
