CIF file written using JARVIS-Tools package.
data_PdSO4
_symmetry_space_group_name_H-M  'C2/c'
_cell_length_a       4.71114
_cell_length_b       4.71114
_cell_length_c       8.20026
_cell_angle_alpha    87.057
_cell_angle_beta     87.057
_cell_angle_gamma    61.1156

_symmetry_Int_Tables_number  15
_chemical_formula_structural  PdSO4
_chemical_formula_sum  Pd2S2O8
_cell_volume  159.07787849092475
_cell_formula_units_Z  2
loop_
  _symmetry_equiv_pos_site_id
 _symmetry_equiv_pos_as_xyz
 1  'x, y, z'
loop_
 _atom_site_type_symbol
 _atom_site_label
 _atom_site_symmetry_multiplicity
 _atom_site_fract_x
 _atom_site_fract_y
 _atom_site_fract_z
 _atom_site_fract_occupancy
 O  O1  1  0.25899  0.04132  0.21764  1
 O  O2  1  0.95868  0.74101  0.28236  1
 O  O3  1  0.74101  0.95868  0.78236  1
 O  O4  1  0.04132  0.25899  0.71764  1
 O  O5  1  0.21511  0.72832  0.60497  1
 O  O6  1  0.27168  0.78489  0.89503  1
 O  O7  1  0.78489  0.27168  0.39503  1
 O  O8  1  0.72832  0.21511  0.10497  1
 Pd  Pd1  1  -0.00000  0.50000  0.50000  1
 Pd  Pd2  1  0.50000  0.00000  0.00000  1
 S  S1  1  0.93479  0.06521  0.25000  1
 S  S2  1  0.06521  0.93479  0.75000  1
