CIF file written using JARVIS-Tools package.
data_Li3AsO4
_symmetry_space_group_name_H-M  'Pmn2_1'
_cell_length_a       4.97912
_cell_length_b       5.39576
_cell_length_c       6.27852
_cell_angle_alpha    90
_cell_angle_beta     90
_cell_angle_gamma    90

_symmetry_Int_Tables_number  31
_chemical_formula_structural  Li3AsO4
_chemical_formula_sum  Li6As2O8
_cell_volume  168.67962002971564
_cell_formula_units_Z  2
loop_
  _symmetry_equiv_pos_site_id
 _symmetry_equiv_pos_as_xyz
 1  'x, y, z'
loop_
 _atom_site_type_symbol
 _atom_site_label
 _atom_site_symmetry_multiplicity
 _atom_site_fract_x
 _atom_site_fract_y
 _atom_site_fract_z
 _atom_site_fract_occupancy
 As  As1  1  0.49755  0.83019  0.50000  1
 As  As2  1  0.99755  0.16981  0.00000  1
 Li  Li1  1  0.00450  0.16693  0.50000  1
 Li  Li2  1  0.50450  0.83307  0.00000  1
 Li  Li3  1  0.00454  0.66826  0.24807  1
 Li  Li4  1  0.50454  0.33174  0.25193  1
 Li  Li5  1  0.50454  0.33174  0.74807  1
 Li  Li6  1  0.00454  0.66826  0.75193  1
 O  O1  1  0.65117  0.17477  0.00000  1
 O  O2  1  0.15117  0.82523  0.50000  1
 O  O3  1  0.11109  0.32107  0.22490  1
 O  O4  1  0.61109  0.67893  0.27510  1
 O  O5  1  0.61109  0.67893  0.72490  1
 O  O6  1  0.11109  0.32107  0.77510  1
 O  O7  1  0.10872  0.86726  0.00000  1
 O  O8  1  0.60872  0.13274  0.50000  1
