CIF file written using JARVIS-Tools package.
data_Ca4SmB3O10
_symmetry_space_group_name_H-M  'Cm'
_cell_length_a       3.57694
_cell_length_b       8.12608
_cell_length_c       9.0076
_cell_angle_alpha    63.1878
_cell_angle_beta     84.9819
_cell_angle_gamma    78.8183

_symmetry_Int_Tables_number  8
_chemical_formula_structural  Ca4SmB3O10
_chemical_formula_sum  Ca4SmB3O0
_cell_volume  229.23567806433908
_cell_formula_units_Z  1
loop_
  _symmetry_equiv_pos_site_id
 _symmetry_equiv_pos_as_xyz
 1  'x, y, z'
loop_
 _atom_site_type_symbol
 _atom_site_label
 _atom_site_symmetry_multiplicity
 _atom_site_fract_x
 _atom_site_fract_y
 _atom_site_fract_z
 _atom_site_fract_occupancy
 B  B1  1  0.91433  0.75792  0.38889  1
 B  B2  1  0.29669  0.37692  -0.00000  1
 B  B3  1  0.91433  0.14681  0.61111  1
 Ca  Ca1  1  0.66963  0.52871  0.22581  1
 Ca  Ca2  1  0.34050  0.08353  0.36516  1
 Ca  Ca3  1  0.34050  0.44869  0.63484  1
 Ca  Ca4  1  0.66963  0.75452  0.77419  1
 O  O1  1  0.39703  0.20317  0.00000  1
 O  O2  1  0.24677  0.38792  0.14961  1
 O  O3  1  0.11241  0.62444  0.34255  1
 O  O4  1  0.11241  0.96699  0.65745  1
 O  O5  1  0.91674  0.94768  0.28699  1
 O  O6  1  0.24677  0.53753  0.85039  1
 O  O7  1  0.91674  0.23467  0.71301  1
 O  O8  1  0.58039  0.82332  0.00000  1
 O  O9  1  0.71838  0.70071  0.53780  1
 O  O10  1  0.71838  0.23851  0.46220  1
 Sm  Sm1  1  0.00029  0.00008  0.00000  1
