CIF file written using JARVIS-Tools package.
data_NaAlO2
_symmetry_space_group_name_H-M  'Pna2_1'
_cell_length_a       5.25187
_cell_length_b       5.43767
_cell_length_c       7.04391
_cell_angle_alpha    90
_cell_angle_beta     90
_cell_angle_gamma    90

_symmetry_Int_Tables_number  33
_chemical_formula_structural  NaAlO2
_chemical_formula_sum  Na4Al4O8
_cell_volume  201.15942538224343
_cell_formula_units_Z  4
loop_
  _symmetry_equiv_pos_site_id
 _symmetry_equiv_pos_as_xyz
 1  'x, y, z'
loop_
 _atom_site_type_symbol
 _atom_site_label
 _atom_site_symmetry_multiplicity
 _atom_site_fract_x
 _atom_site_fract_y
 _atom_site_fract_z
 _atom_site_fract_occupancy
 Al  Al1  1  0.00024  0.56270  0.37419  1
 Al  Al2  1  0.50024  0.43730  0.62581  1
 Al  Al3  1  0.50024  0.93730  0.87419  1
 Al  Al4  1  0.00024  0.06270  0.12581  1
 Na  Na1  1  0.48480  0.43196  0.12274  1
 Na  Na2  1  0.98480  0.06804  0.62274  1
 Na  Na3  1  0.98480  0.56804  0.87726  1
 Na  Na4  1  0.48480  0.93196  0.37726  1
 O  O1  1  0.92748  0.87776  0.32789  1
 O  O2  1  0.42748  0.12224  0.67211  1
 O  O3  1  0.42748  0.62224  0.82789  1
 O  O4  1  0.92748  0.37776  0.17211  1
 O  O5  1  0.33188  0.53414  0.42084  1
 O  O6  1  0.33188  0.03414  0.07916  1
 O  O7  1  0.83188  0.96586  0.92084  1
 O  O8  1  0.83188  0.46586  0.57916  1
