CIF file written using JARVIS-Tools package.
data_Na4UO5
_symmetry_space_group_name_H-M  'I4/m'
_cell_length_a       4.64689
_cell_length_b       5.80613
_cell_length_c       5.80612
_cell_angle_alpha    80.7852
_cell_angle_beta     66.4111
_cell_angle_gamma    66.4111

_symmetry_Int_Tables_number  87
_chemical_formula_structural  Na4UO5
_chemical_formula_sum  Na4UO5
_cell_volume  131.5659862343685
_cell_formula_units_Z  1
loop_
  _symmetry_equiv_pos_site_id
 _symmetry_equiv_pos_as_xyz
 1  'x, y, z'
loop_
 _atom_site_type_symbol
 _atom_site_label
 _atom_site_symmetry_multiplicity
 _atom_site_fract_x
 _atom_site_fract_y
 _atom_site_fract_z
 _atom_site_fract_occupancy
 Na  Na1  1  0.59398  0.60002  0.21202  1
 Na  Na2  1  0.40602  0.39998  0.78798  1
 Na  Na3  1  0.19400  0.21202  0.39998  1
 Na  Na4  1  0.80600  0.78798  0.60002  1
 O  O1  1  0.74073  0.17891  0.33963  1
 O  O2  1  0.08036  0.66037  0.17891  1
 O  O3  1  0.91964  0.33963  0.82109  1
 O  O4  1  0.25927  0.82109  0.66037  1
 O  O5  1  0.50000  0.00000  0.00000  1
 U  U1  1  0.00000  0.00000  0.00000  1
