CIF file written using JARVIS-Tools package.
data_BaPr2PdO5
_symmetry_space_group_name_H-M  'P4/mbm'
_cell_length_a       6.84118
_cell_length_b       6.84118
_cell_length_c       5.96671
_cell_angle_alpha    90
_cell_angle_beta     90
_cell_angle_gamma    90

_symmetry_Int_Tables_number  127
_chemical_formula_structural  BaPr2PdO5
_chemical_formula_sum  Ba2Pr4Pd2O0
_cell_volume  279.25284788124253
_cell_formula_units_Z  2
loop_
  _symmetry_equiv_pos_site_id
 _symmetry_equiv_pos_as_xyz
 1  'x, y, z'
loop_
 _atom_site_type_symbol
 _atom_site_label
 _atom_site_symmetry_multiplicity
 _atom_site_fract_x
 _atom_site_fract_y
 _atom_site_fract_z
 _atom_site_fract_occupancy
 Ba  Ba1  1  0.50000  0.50000  0.00000  1
 Ba  Ba2  1  0.00000  0.00000  0.00000  1
 O  O1  1  0.85934  0.35934  0.75119  1
 O  O2  1  0.00000  0.00000  0.50000  1
 O  O3  1  0.14066  0.64066  0.24881  1
 O  O4  1  0.50000  0.50000  0.50000  1
 O  O5  1  0.35934  0.14066  0.24881  1
 O  O6  1  0.64066  0.85934  0.24881  1
 O  O7  1  0.14066  0.64066  0.75119  1
 O  O8  1  0.64066  0.85934  0.75119  1
 O  O9  1  0.85934  0.35934  0.24881  1
 O  O10  1  0.35934  0.14066  0.75119  1
 Pd  Pd1  1  0.50000  0.00000  0.00000  1
 Pd  Pd2  1  0.00000  0.50000  0.00000  1
 Pr  Pr1  1  0.32731  0.82731  0.50000  1
 Pr  Pr2  1  0.82731  0.67269  0.50000  1
 Pr  Pr3  1  0.17269  0.32731  0.50000  1
 Pr  Pr4  1  0.67269  0.17269  0.50000  1
