CIF file written using JARVIS-Tools package.
data_LiCuS2
_symmetry_space_group_name_H-M  'C2/m'
_cell_length_a       4.10431
_cell_length_b       3.41407
_cell_length_c       5.99002
_cell_angle_alpha    90.0167
_cell_angle_beta     66.8919
_cell_angle_gamma    65.4559

_symmetry_Int_Tables_number  12
_chemical_formula_structural  LiCuS2
_chemical_formula_sum  LiCuS2
_cell_volume  68.87354407239519
_cell_formula_units_Z  1
loop_
  _symmetry_equiv_pos_site_id
 _symmetry_equiv_pos_as_xyz
 1  'x, y, z'
loop_
 _atom_site_type_symbol
 _atom_site_label
 _atom_site_symmetry_multiplicity
 _atom_site_fract_x
 _atom_site_fract_y
 _atom_site_fract_z
 _atom_site_fract_occupancy
 Cu  Cu1  1  0.99944  0.50137  0.50077  1
 Li  Li1  1  0.99941  0.50148  0.00082  1
 S  S1  1  0.74470  0.12871  0.76392  1
 S  S2  1  0.25415  0.87406  0.23762  1
