CIF file written using JARVIS-Tools package.
data_MgCr4S8
_symmetry_space_group_name_H-M  'R-3m'
_cell_length_a       6.92006
_cell_length_b       6.93749
_cell_length_c       6.9375
_cell_angle_alpha    60
_cell_angle_beta     59.9166
_cell_angle_gamma    59.9166

_symmetry_Int_Tables_number  166
_chemical_formula_structural  MgCr4S8
_chemical_formula_sum  MgCr4S8
_cell_volume  235.2078868612163
_cell_formula_units_Z  1
loop_
  _symmetry_equiv_pos_site_id
 _symmetry_equiv_pos_as_xyz
 1  'x, y, z'
loop_
 _atom_site_type_symbol
 _atom_site_label
 _atom_site_symmetry_multiplicity
 _atom_site_fract_x
 _atom_site_fract_y
 _atom_site_fract_z
 _atom_site_fract_occupancy
 Cr  Cr1  1  0.00000  0.50000  0.50000  1
 Cr  Cr2  1  0.50000  0.50000  -0.00000  1
 Cr  Cr3  1  0.50000  0.50000  0.50000  1
 Cr  Cr4  1  0.50000  -0.00000  0.50000  1
 Mg  Mg1  1  0.50000  0.00000  0.00000  1
 S  S1  1  0.25419  0.25726  0.25726  1
 S  S2  1  0.25419  0.25726  0.73129  1
 S  S3  1  0.25419  0.73129  0.25726  1
 S  S4  1  0.72982  0.25673  0.25673  1
 S  S5  1  0.27018  0.74327  0.74327  1
 S  S6  1  0.74581  0.74274  0.26871  1
 S  S7  1  0.74581  0.26871  0.74274  1
 S  S8  1  0.74581  0.74274  0.74274  1
