CIF file written using JARVIS-Tools package.
data_CaV2S4
_symmetry_space_group_name_H-M  'I4_1/amd'
_cell_length_a       7.01521
_cell_length_b       7.01521
_cell_length_c       7.67332
_cell_angle_alpha    117.201
_cell_angle_beta     117.201
_cell_angle_gamma    90

_symmetry_Int_Tables_number  141
_chemical_formula_structural  CaV2S4
_chemical_formula_sum  Ca2V4S8
_cell_volume  288.1104670181371
_cell_formula_units_Z  2
loop_
  _symmetry_equiv_pos_site_id
 _symmetry_equiv_pos_as_xyz
 1  'x, y, z'
loop_
 _atom_site_type_symbol
 _atom_site_label
 _atom_site_symmetry_multiplicity
 _atom_site_fract_x
 _atom_site_fract_y
 _atom_site_fract_z
 _atom_site_fract_occupancy
 Ca  Ca1  1  0.37500  0.62500  0.75000  1
 Ca  Ca2  1  0.62500  0.37500  0.25000  1
 S  S1  1  0.78612  0.79751  0.57223  1
 S  S2  1  0.72528  0.21388  0.92777  1
 S  S3  1  0.20249  0.21388  0.92777  1
 S  S4  1  0.21388  0.20249  0.42777  1
 S  S5  1  0.21388  0.72528  0.42777  1
 S  S6  1  0.27472  0.78612  0.07223  1
 S  S7  1  0.78612  0.27472  0.57223  1
 S  S8  1  0.79751  0.78612  0.07223  1
 V  V1  1  0.00000  -0.00000  0.50000  1
 V  V2  1  -0.00000  0.50000  0.00000  1
 V  V3  1  0.50000  -0.00000  0.50000  1
 V  V4  1  0.00000  0.00000  0.00000  1
