CIF file written using JARVIS-Tools package.
data_ZnNiPd2
_symmetry_space_group_name_H-M  'Immm'
_cell_length_a       9.52722
_cell_length_b       9.74042
_cell_length_c       9.74042
_cell_angle_alpha    60.3932
_cell_angle_beta     60.7214
_cell_angle_gamma    60.7214

_symmetry_Int_Tables_number  71
_chemical_formula_structural  ZnNiPd2
_chemical_formula_sum  ZnNiPd2
_cell_volume  647.97610676465
_cell_formula_units_Z  1
loop_
  _symmetry_equiv_pos_site_id
 _symmetry_equiv_pos_as_xyz
 1  'x, y, z'
loop_
 _atom_site_type_symbol
 _atom_site_label
 _atom_site_symmetry_multiplicity
 _atom_site_fract_x
 _atom_site_fract_y
 _atom_site_fract_z
 _atom_site_fract_occupancy
 Ni  Ni1  1  0.00000  0.00000  0.00000  1
 Pd  Pd1  1  0.75803  0.00000  -0.00000  1
 Pd  Pd2  1  0.24197  -0.00000  0.00000  1
 Zn  Zn1  1  0.50000  0.00000  -0.00000  1
