CIF file written using JARVIS-Tools package.
data_Mg2TaSbO6
_symmetry_space_group_name_H-M  'P2_1/m'
_cell_length_a       5.5288
_cell_length_b       7.85542
_cell_length_c       5.53787
_cell_angle_alpha    90
_cell_angle_beta     93.0464
_cell_angle_gamma    90

_symmetry_Int_Tables_number  11
_chemical_formula_structural  Mg2TaSbO6
_chemical_formula_sum  Mg4Ta2Sb2O2
_cell_volume  240.17560810979012
_cell_formula_units_Z  2
loop_
  _symmetry_equiv_pos_site_id
 _symmetry_equiv_pos_as_xyz
 1  'x, y, z'
loop_
 _atom_site_type_symbol
 _atom_site_label
 _atom_site_symmetry_multiplicity
 _atom_site_fract_x
 _atom_site_fract_y
 _atom_site_fract_z
 _atom_site_fract_occupancy
 Mg  Mg1  1  0.51503  0.75000  0.46740  1
 Mg  Mg2  1  0.48497  0.25000  0.53260  1
 Mg  Mg3  1  0.98111  0.75000  0.96875  1
 Mg  Mg4  1  0.01889  0.25000  0.03125  1
 O  O1  1  0.63302  0.42986  0.32087  1
 O  O2  1  0.85736  0.75000  0.61476  1
 O  O3  1  0.36698  0.92986  0.67913  1
 O  O4  1  0.19196  0.57161  0.14096  1
 O  O5  1  0.80804  0.07161  0.85904  1
 O  O6  1  0.19196  0.92839  0.14096  1
 O  O7  1  0.14264  0.25000  0.38524  1
 O  O8  1  0.63020  0.75000  0.08701  1
 O  O9  1  0.80804  0.42839  0.85904  1
 O  O10  1  0.36698  0.57014  0.67913  1
 O  O11  1  0.63302  0.07014  0.32087  1
 O  O12  1  0.36980  0.25000  0.91299  1
 Sb  Sb1  1  -0.00000  0.00000  0.50000  1
 Sb  Sb2  1  -0.00000  0.50000  0.50000  1
 Ta  Ta1  1  0.50000  0.00000  0.00000  1
 Ta  Ta2  1  0.50000  0.50000  0.00000  1
