CIF file written using JARVIS-Tools package.
data_Rb2NbAgSe4
_symmetry_space_group_name_H-M  'Fddd'
_cell_length_a       6.09876
_cell_length_b       7.58039
_cell_length_c       12.4746
_cell_angle_alpha    84.3568
_cell_angle_beta     75.8509
_cell_angle_gamma    66.2797

_symmetry_Int_Tables_number  70
_chemical_formula_structural  Rb2NbAgSe4
_chemical_formula_sum  Rb4Nb2Ag2Se8
_cell_volume  511.974458507113
_cell_formula_units_Z  2
loop_
  _symmetry_equiv_pos_site_id
 _symmetry_equiv_pos_as_xyz
 1  'x, y, z'
loop_
 _atom_site_type_symbol
 _atom_site_label
 _atom_site_symmetry_multiplicity
 _atom_site_fract_x
 _atom_site_fract_y
 _atom_site_fract_z
 _atom_site_fract_occupancy
 Ag  Ag1  1  0.87500  0.25000  0.25000  1
 Ag  Ag2  1  0.12500  0.75000  0.75000  1
 Nb  Nb1  1  0.37500  0.25000  0.25000  1
 Nb  Nb2  1  0.62500  0.75000  0.75000  1
 Rb  Rb1  1  0.80642  0.75000  0.38717  1
 Rb  Rb2  1  0.19358  0.25000  0.61283  1
 Rb  Rb3  1  0.44358  0.75000  0.11283  1
 Rb  Rb4  1  0.55642  0.25000  0.88717  1
 Se  Se1  1  0.75961  0.04075  0.13166  1
 Se  Se2  1  0.56799  0.54075  0.63166  1
 Se  Se3  1  0.89127  0.54075  0.86834  1
 Se  Se4  1  0.80035  0.95925  0.63166  1
 Se  Se5  1  0.43201  0.45925  0.36834  1
 Se  Se6  1  0.19965  0.04075  0.36834  1
 Se  Se7  1  0.10873  0.45925  0.13166  1
 Se  Se8  1  0.24039  0.95925  0.86834  1
