CIF file written using JARVIS-Tools package.
data_BeZnO2
_symmetry_space_group_name_H-M  'I-42d'
_cell_length_a       4.29618
_cell_length_b       4.29618
_cell_length_c       5.0242
_cell_angle_alpha    115.312
_cell_angle_beta     115.312
_cell_angle_gamma    90.0001

_symmetry_Int_Tables_number  122
_chemical_formula_structural  BeZnO2
_chemical_formula_sum  Be2Zn2O4
_cell_volume  73.86102563485466
_cell_formula_units_Z  2
loop_
  _symmetry_equiv_pos_site_id
 _symmetry_equiv_pos_as_xyz
 1  'x, y, z'
loop_
 _atom_site_type_symbol
 _atom_site_label
 _atom_site_symmetry_multiplicity
 _atom_site_fract_x
 _atom_site_fract_y
 _atom_site_fract_z
 _atom_site_fract_occupancy
 Be  Be1  1  0.25000  0.75000  0.50000  1
 Be  Be2  1  0.00000  0.00000  0.00000  1
 O  O1  1  0.12500  0.68850  0.75000  1
 O  O2  1  0.93850  0.87500  0.25000  1
 O  O3  1  0.31151  0.37500  0.25000  1
 O  O4  1  0.62500  0.06151  0.75000  1
 Zn  Zn1  1  0.75000  0.25000  0.50000  1
 Zn  Zn2  1  0.50000  0.50000  -0.00000  1
