CIF file written using JARVIS-Tools package.
data_RbN
_symmetry_space_group_name_H-M  'Immm'
_cell_length_a       4.0337
_cell_length_b       4.48891
_cell_length_c       5.91653
_cell_angle_alpha    89.9948
_cell_angle_beta     90
_cell_angle_gamma    90

_symmetry_Int_Tables_number  71
_chemical_formula_structural  RbN
_chemical_formula_sum  Rb2N2
_cell_volume  107.12992766013056
_cell_formula_units_Z  2
loop_
  _symmetry_equiv_pos_site_id
 _symmetry_equiv_pos_as_xyz
 1  'x, y, z'
loop_
 _atom_site_type_symbol
 _atom_site_label
 _atom_site_symmetry_multiplicity
 _atom_site_fract_x
 _atom_site_fract_y
 _atom_site_fract_z
 _atom_site_fract_occupancy
 N  N1  1  0.75000  0.25047  0.25000  1
 N  N2  1  0.25000  0.74953  0.75000  1
 Rb  Rb1  1  0.75000  0.24960  0.75002  1
 Rb  Rb2  1  0.25000  0.75040  0.24998  1
