CIF file written using JARVIS-Tools package.
data_SnBr4
_symmetry_space_group_name_H-M  'P2_1/c'
_cell_length_a       10.2268
_cell_length_b       6.91009
_cell_length_c       10.3433
_cell_angle_alpha    90
_cell_angle_beta     101.728
_cell_angle_gamma    90

_symmetry_Int_Tables_number  14
_chemical_formula_structural  SnBr4
_chemical_formula_sum  Sn4Br6
_cell_volume  715.677754521786
_cell_formula_units_Z  4
loop_
  _symmetry_equiv_pos_site_id
 _symmetry_equiv_pos_as_xyz
 1  'x, y, z'
loop_
 _atom_site_type_symbol
 _atom_site_label
 _atom_site_symmetry_multiplicity
 _atom_site_fract_x
 _atom_site_fract_y
 _atom_site_fract_z
 _atom_site_fract_occupancy
 Br  Br1  1  0.31357  0.08173  0.43292  1
 Br  Br2  1  0.18646  0.90823  0.06067  1
 Br  Br3  1  0.81354  0.40823  0.43933  1
 Br  Br4  1  0.81354  0.09177  0.93933  1
 Br  Br5  1  0.18646  0.59177  0.56067  1
 Br  Br6  1  0.05360  0.42237  0.18095  1
 Br  Br7  1  0.56237  0.41091  0.69425  1
 Br  Br8  1  0.94640  0.92237  0.31905  1
 Br  Br9  1  0.05360  0.07763  0.68095  1
 Br  Br10  1  0.43763  0.91091  0.80575  1
 Br  Br11  1  0.68643  0.58173  0.06708  1
 Br  Br12  1  0.68643  0.91827  0.56708  1
 Br  Br13  1  0.31357  0.41827  0.93292  1
 Br  Br14  1  0.43763  0.58909  0.30575  1
 Br  Br15  1  0.56237  0.08909  0.19425  1
 Br  Br16  1  0.94640  0.57763  0.81905  1
 Sn  Sn1  1  0.24663  0.41962  0.37070  1
 Sn  Sn2  1  0.75337  0.91962  0.12930  1
 Sn  Sn3  1  0.75337  0.58038  0.62930  1
 Sn  Sn4  1  0.24663  0.08038  0.87070  1
