CIF file written using JARVIS-Tools package.
data_Mn5NiO12
_symmetry_space_group_name_H-M  'C2/m'
_cell_length_a       4.97459
_cell_length_b       4.97459
_cell_length_c       9.03351
_cell_angle_alpha    95.2925
_cell_angle_beta     95.2925
_cell_angle_gamma    119.998

_symmetry_Int_Tables_number  12
_chemical_formula_structural  Mn5NiO12
_chemical_formula_sum  Mn5NiO2
_cell_volume  190.2794803889701
_cell_formula_units_Z  1
loop_
  _symmetry_equiv_pos_site_id
 _symmetry_equiv_pos_as_xyz
 1  'x, y, z'
loop_
 _atom_site_type_symbol
 _atom_site_label
 _atom_site_symmetry_multiplicity
 _atom_site_fract_x
 _atom_site_fract_y
 _atom_site_fract_z
 _atom_site_fract_occupancy
 Mn  Mn1  1  0.16666  0.83334  0.50000  1
 Mn  Mn2  1  0.33333  0.66667  -0.00000  1
 Mn  Mn3  1  0.50000  0.50000  0.50000  1
 Mn  Mn4  1  0.66667  0.33333  0.00000  1
 Mn  Mn5  1  0.83334  0.16666  0.50000  1
 Ni  Ni1  1  0.00000  0.00000  0.00000  1
 O  O1  1  0.03570  0.70499  0.10659  1
 O  O2  1  0.29501  0.96430  0.89341  1
 O  O3  1  0.96430  0.29501  0.89341  1
 O  O4  1  0.53584  0.86942  0.60771  1
 O  O5  1  0.13058  0.46416  0.39229  1
 O  O6  1  0.79703  0.79703  0.39234  1
 O  O7  1  0.63358  0.63358  0.89341  1
 O  O8  1  0.36642  0.36642  0.10659  1
 O  O9  1  0.46416  0.13058  0.39229  1
 O  O10  1  0.86942  0.53584  0.60771  1
 O  O11  1  0.20297  0.20297  0.60766  1
 O  O12  1  0.70499  0.03570  0.10659  1
