CIF file written using JARVIS-Tools package.
data_LuSi
_symmetry_space_group_name_H-M  'Cmcm'
_cell_length_a       3.77121
_cell_length_b       4.16806
_cell_length_c       5.5533
_cell_angle_alpha    112.041
_cell_angle_beta     90
_cell_angle_gamma    90

_symmetry_Int_Tables_number  63
_chemical_formula_structural  LuSi
_chemical_formula_sum  Lu2Si2
_cell_volume  80.91041991197257
_cell_formula_units_Z  2
loop_
  _symmetry_equiv_pos_site_id
 _symmetry_equiv_pos_as_xyz
 1  'x, y, z'
loop_
 _atom_site_type_symbol
 _atom_site_label
 _atom_site_symmetry_multiplicity
 _atom_site_fract_x
 _atom_site_fract_y
 _atom_site_fract_z
 _atom_site_fract_occupancy
 Lu  Lu1  1  0.25000  0.14052  0.28104  1
 Lu  Lu2  1  0.75000  0.85948  0.71896  1
 Si  Si1  1  0.25000  0.41987  0.83975  1
 Si  Si2  1  0.75000  0.58013  0.16025  1
