CIF file written using JARVIS-Tools package.
data_O
_symmetry_space_group_name_H-M  'Cmmm'
_cell_length_a       4.02383
_cell_length_b       4.02383
_cell_length_c       6.19406
_cell_angle_alpha    90
_cell_angle_beta     90
_cell_angle_gamma    148.309

_symmetry_Int_Tables_number  65
_chemical_formula_structural  O
_chemical_formula_sum  O4
_cell_volume  52.68649056082861
_cell_formula_units_Z  4
loop_
  _symmetry_equiv_pos_site_id
 _symmetry_equiv_pos_as_xyz
 1  'x, y, z'
loop_
 _atom_site_type_symbol
 _atom_site_label
 _atom_site_symmetry_multiplicity
 _atom_site_fract_x
 _atom_site_fract_y
 _atom_site_fract_z
 _atom_site_fract_occupancy
 O  O1  1  0.68637  0.31363  0.49988  1
 O  O2  1  0.31363  0.68637  0.50012  1
 O  O3  1  0.31363  0.68637  -0.00012  1
 O  O4  1  0.68637  0.31363  0.00012  1
