CIF file written using JARVIS-Tools package.
data_Mg3BN3
_symmetry_space_group_name_H-M  'P6_3/mmc'
_cell_length_a       3.54612
_cell_length_b       3.54612
_cell_length_c       16.1308
_cell_angle_alpha    90
_cell_angle_beta     90
_cell_angle_gamma    120

_symmetry_Int_Tables_number  194
_chemical_formula_structural  Mg3BN3
_chemical_formula_sum  Mg6B2N6
_cell_volume  175.66800343595176
_cell_formula_units_Z  2
loop_
  _symmetry_equiv_pos_site_id
 _symmetry_equiv_pos_as_xyz
 1  'x, y, z'
loop_
 _atom_site_type_symbol
 _atom_site_label
 _atom_site_symmetry_multiplicity
 _atom_site_fract_x
 _atom_site_fract_y
 _atom_site_fract_z
 _atom_site_fract_occupancy
 B  B1  1  0.00000  0.00000  0.00000  1
 B  B2  1  0.00000  0.00000  0.50000  1
 Mg  Mg1  1  0.00000  0.00000  0.25000  1
 Mg  Mg2  1  0.00000  0.00000  0.75000  1
 Mg  Mg3  1  0.66667  0.33333  0.12280  1
 Mg  Mg4  1  0.33333  0.66667  0.62280  1
 Mg  Mg5  1  0.33333  0.66667  0.87720  1
 Mg  Mg6  1  0.66667  0.33333  0.37720  1
 N  N1  1  0.66667  0.33333  0.25000  1
 N  N2  1  0.33333  0.66667  0.75000  1
 N  N3  1  0.00000  0.00000  0.08333  1
 N  N4  1  0.00000  0.00000  0.58333  1
 N  N5  1  0.00000  0.00000  0.91667  1
 N  N6  1  0.00000  0.00000  0.41667  1
