CIF file written using JARVIS-Tools package.
data_LiCu2PO4
_symmetry_space_group_name_H-M  'I-42m'
_cell_length_a       4.28672
_cell_length_b       5.5808
_cell_length_c       4.28672
_cell_angle_alpha    67.4146
_cell_angle_beta     90
_cell_angle_gamma    112.585

_symmetry_Int_Tables_number  121
_chemical_formula_structural  LiCu2PO4
_chemical_formula_sum  LiCu2PO4
_cell_volume  86.10745286376785
_cell_formula_units_Z  1
loop_
  _symmetry_equiv_pos_site_id
 _symmetry_equiv_pos_as_xyz
 1  'x, y, z'
loop_
 _atom_site_type_symbol
 _atom_site_label
 _atom_site_symmetry_multiplicity
 _atom_site_fract_x
 _atom_site_fract_y
 _atom_site_fract_z
 _atom_site_fract_occupancy
 Cu  Cu1  1  0.25000  0.50000  0.25000  1
 Cu  Cu2  1  0.75000  0.50000  0.75000  1
 Li  Li1  1  0.00000  0.00000  0.00000  1
 O  O1  1  0.80598  0.18932  0.19402  1
 O  O2  1  0.38334  0.18932  0.61666  1
 O  O3  1  0.19402  0.81068  0.38334  1
 O  O4  1  0.61666  0.81068  0.80598  1
 P  P1  1  0.50000  0.00000  0.50000  1
