CIF file written using JARVIS-Tools package.
data_Hg
_symmetry_space_group_name_H-M  'I4/mmm'
_cell_length_a       5.53435
_cell_length_b       5.53435
_cell_length_c       5.53435
_cell_angle_alpha    123.827
_cell_angle_beta     123.827
_cell_angle_gamma    83.4899

_symmetry_Int_Tables_number  139
_chemical_formula_structural  Hg
_chemical_formula_sum  Hg4
_cell_volume  112.13576645150287
_cell_formula_units_Z  4
loop_
  _symmetry_equiv_pos_site_id
 _symmetry_equiv_pos_as_xyz
 1  'x, y, z'
loop_
 _atom_site_type_symbol
 _atom_site_label
 _atom_site_symmetry_multiplicity
 _atom_site_fract_x
 _atom_site_fract_y
 _atom_site_fract_z
 _atom_site_fract_occupancy
 Hg  Hg1  1  0.87500  0.37502  0.00002  1
 Hg  Hg2  1  0.37500  0.87498  -0.00002  1
 Hg  Hg3  1  0.62498  0.62500  0.49998  1
 Hg  Hg4  1  0.12502  0.12500  0.50002  1
