CIF file written using JARVIS-Tools package.
data_HfInPd2
_symmetry_space_group_name_H-M  'Fm-3m'
_cell_length_a       4.65348
_cell_length_b       4.653
_cell_length_c       4.65285
_cell_angle_alpha    60.0086
_cell_angle_beta     60.0005
_cell_angle_gamma    59.9969

_symmetry_Int_Tables_number  225
_chemical_formula_structural  HfInPd2
_chemical_formula_sum  HfInPd2
_cell_volume  71.24178835178579
_cell_formula_units_Z  1
loop_
  _symmetry_equiv_pos_site_id
 _symmetry_equiv_pos_as_xyz
 1  'x, y, z'
loop_
 _atom_site_type_symbol
 _atom_site_label
 _atom_site_symmetry_multiplicity
 _atom_site_fract_x
 _atom_site_fract_y
 _atom_site_fract_z
 _atom_site_fract_occupancy
 Hf  Hf1  1  0.25000  0.25000  0.25001  1
 In  In1  1  0.75000  0.75000  0.75000  1
 Pd  Pd1  1  0.99997  0.00002  0.99999  1
 Pd  Pd2  1  0.50003  0.49998  0.50000  1
