CIF file written using JARVIS-Tools package.
data_CrS
_symmetry_space_group_name_H-M  'P6_3/mmc'
_cell_length_a       3.46974
_cell_length_b       3.46974
_cell_length_c       5.70384
_cell_angle_alpha    90
_cell_angle_beta     90
_cell_angle_gamma    60

_symmetry_Int_Tables_number  194
_chemical_formula_structural  CrS
_chemical_formula_sum  Cr2S2
_cell_volume  59.46900819447244
_cell_formula_units_Z  2
loop_
  _symmetry_equiv_pos_site_id
 _symmetry_equiv_pos_as_xyz
 1  'x, y, z'
loop_
 _atom_site_type_symbol
 _atom_site_label
 _atom_site_symmetry_multiplicity
 _atom_site_fract_x
 _atom_site_fract_y
 _atom_site_fract_z
 _atom_site_fract_occupancy
 Cr  Cr1  1  0.00000  0.00000  0.00000  1
 Cr  Cr2  1  0.00000  0.00000  0.50000  1
 S  S1  1  0.66667  0.66667  0.25000  1
 S  S2  1  0.33333  0.33333  0.75000  1
