CIF file written using JARVIS-Tools package.
data_HoHO2
_symmetry_space_group_name_H-M  'Pmn2_1'
_cell_length_a       3.4756
_cell_length_b       4.84382
_cell_length_c       5.45227
_cell_angle_alpha    90
_cell_angle_beta     90
_cell_angle_gamma    90

_symmetry_Int_Tables_number  31
_chemical_formula_structural  HoHO2
_chemical_formula_sum  Ho2H2O4
_cell_volume  91.78985452028174
_cell_formula_units_Z  2
loop_
  _symmetry_equiv_pos_site_id
 _symmetry_equiv_pos_as_xyz
 1  'x, y, z'
loop_
 _atom_site_type_symbol
 _atom_site_label
 _atom_site_symmetry_multiplicity
 _atom_site_fract_x
 _atom_site_fract_y
 _atom_site_fract_z
 _atom_site_fract_occupancy
 H  H1  1  0.50000  0.18733  0.96237  1
 H  H2  1  0.00000  0.81267  0.46237  1
 Ho  Ho1  1  0.00000  0.72125  0.98435  1
 Ho  Ho2  1  0.50000  0.27875  0.48435  1
 O  O1  1  0.50000  0.01690  0.85344  1
 O  O2  1  0.00000  0.51918  0.62261  1
 O  O3  1  0.00000  0.98310  0.35344  1
 O  O4  1  0.50000  0.48082  0.12261  1
