CIF file written using JARVIS-Tools package.
data_Na2MgCl4
_symmetry_space_group_name_H-M  'Pbam'
_cell_length_a       3.79932
_cell_length_b       6.87011
_cell_length_c       11.8703
_cell_angle_alpha    90
_cell_angle_beta     90
_cell_angle_gamma    90

_symmetry_Int_Tables_number  55
_chemical_formula_structural  Na2MgCl4
_chemical_formula_sum  Na4Mg2Cl8
_cell_volume  309.8356173125965
_cell_formula_units_Z  2
loop_
  _symmetry_equiv_pos_site_id
 _symmetry_equiv_pos_as_xyz
 1  'x, y, z'
loop_
 _atom_site_type_symbol
 _atom_site_label
 _atom_site_symmetry_multiplicity
 _atom_site_fract_x
 _atom_site_fract_y
 _atom_site_fract_z
 _atom_site_fract_occupancy
 Cl  Cl1  1  0.00000  0.12189  0.19591  1
 Cl  Cl2  1  0.00000  0.87811  0.80409  1
 Cl  Cl3  1  0.00000  0.62189  0.30409  1
 Cl  Cl4  1  0.00000  0.37811  0.69591  1
 Cl  Cl5  1  0.50000  0.23874  0.95562  1
 Cl  Cl6  1  0.50000  0.76126  0.04438  1
 Cl  Cl7  1  0.50000  0.73874  0.54438  1
 Cl  Cl8  1  0.50000  0.26126  0.45562  1
 Mg  Mg1  1  0.00000  0.50000  0.50000  1
 Mg  Mg2  1  0.00000  0.00000  0.00000  1
 Na  Na1  1  0.50000  0.08337  0.67981  1
 Na  Na2  1  0.50000  0.91663  0.32019  1
 Na  Na3  1  0.50000  0.41663  0.17981  1
 Na  Na4  1  0.50000  0.58337  0.82019  1
