CIF file written using JARVIS-Tools package.
data_MgV4S8
_symmetry_space_group_name_H-M  'R-3m'
_cell_length_a       6.88028
_cell_length_b       6.90003
_cell_length_c       6.90003
_cell_angle_alpha    60
_cell_angle_beta     59.905
_cell_angle_gamma    59.905

_symmetry_Int_Tables_number  166
_chemical_formula_structural  MgV4S8
_chemical_formula_sum  MgV4S8
_cell_volume  231.29616392987663
_cell_formula_units_Z  1
loop_
  _symmetry_equiv_pos_site_id
 _symmetry_equiv_pos_as_xyz
 1  'x, y, z'
loop_
 _atom_site_type_symbol
 _atom_site_label
 _atom_site_symmetry_multiplicity
 _atom_site_fract_x
 _atom_site_fract_y
 _atom_site_fract_z
 _atom_site_fract_occupancy
 Mg  Mg1  1  0.50000  0.00000  0.00000  1
 S  S1  1  0.24831  0.25489  0.25489  1
 S  S2  1  0.24831  0.25489  0.74191  1
 S  S3  1  0.24831  0.74191  0.25489  1
 S  S4  1  0.73947  0.25351  0.25351  1
 S  S5  1  0.26053  0.74649  0.74649  1
 S  S6  1  0.75169  0.74511  0.25809  1
 S  S7  1  0.75169  0.25809  0.74511  1
 S  S8  1  0.75169  0.74511  0.74511  1
 V  V1  1  0.00000  0.50000  0.50000  1
 V  V2  1  0.50000  0.50000  -0.00000  1
 V  V3  1  0.50000  0.50000  0.50000  1
 V  V4  1  0.50000  0.00000  0.50000  1
