CIF file written using JARVIS-Tools package.
data_V6H4O13
_symmetry_space_group_name_H-M  'C2/m'
_cell_length_a       6.44841
_cell_length_b       6.44841
_cell_length_c       9.9523
_cell_angle_alpha    79.6266
_cell_angle_beta     100.373
_cell_angle_gamma    143.759

_symmetry_Int_Tables_number  12
_chemical_formula_structural  V6H4O13
_chemical_formula_sum  V6H4O3
_cell_volume  240.22038659793125
_cell_formula_units_Z  1
loop_
  _symmetry_equiv_pos_site_id
 _symmetry_equiv_pos_as_xyz
 1  'x, y, z'
loop_
 _atom_site_type_symbol
 _atom_site_label
 _atom_site_symmetry_multiplicity
 _atom_site_fract_x
 _atom_site_fract_y
 _atom_site_fract_z
 _atom_site_fract_occupancy
 H  H1  1  0.81179  0.18821  0.87772  1
 H  H2  1  0.18821  0.81179  0.12228  1
 H  H3  1  0.09187  0.90813  0.49696  1
 H  H4  1  0.90813  0.09187  0.50304  1
 O  O1  1  0.31438  0.68562  0.80406  1
 O  O2  1  0.82003  0.17997  0.97836  1
 O  O3  1  0.43350  0.56650  0.58517  1
 O  O4  1  0.11178  0.88822  0.59810  1
 O  O5  1  0.88822  0.11178  0.40190  1
 O  O6  1  0.75359  0.24641  0.59456  1
 O  O7  1  0.17997  0.82003  0.02164  1
 O  O8  1  0.50000  0.50000  0.00000  1
 O  O9  1  0.62016  0.37984  0.80657  1
 O  O10  1  0.56650  0.43350  0.41483  1
 O  O11  1  0.24641  0.75359  0.40544  1
 O  O12  1  0.68562  0.31438  0.19594  1
 O  O13  1  0.37984  0.62016  0.19343  1
 V  V1  1  0.71014  0.28986  0.37235  1
 V  V2  1  0.28986  0.71014  0.62765  1
 V  V3  1  0.40662  0.59338  0.36975  1
 V  V4  1  0.59338  0.40662  0.63025  1
 V  V5  1  0.35672  0.64328  0.00251  1
 V  V6  1  0.64328  0.35672  0.99749  1
