CIF file written using JARVIS-Tools package.
data_CuS
_symmetry_space_group_name_H-M  'F-43m'
_cell_length_a       3.68932
_cell_length_b       3.68932
_cell_length_c       6.39094
_cell_angle_alpha    106.784
_cell_angle_beta     106.784
_cell_angle_gamma    59.9973

_symmetry_Int_Tables_number  216
_chemical_formula_structural  CuS
_chemical_formula_sum  Cu2S2
_cell_volume  71.02053438432698
_cell_formula_units_Z  2
loop_
  _symmetry_equiv_pos_site_id
 _symmetry_equiv_pos_as_xyz
 1  'x, y, z'
loop_
 _atom_site_type_symbol
 _atom_site_label
 _atom_site_symmetry_multiplicity
 _atom_site_fract_x
 _atom_site_fract_y
 _atom_site_fract_z
 _atom_site_fract_occupancy
 Cu  Cu1  1  0.37501  0.37501  0.12500  1
 Cu  Cu2  1  0.87502  0.87502  0.62501  1
 S  S1  1  0.99998  0.99998  -0.00000  1
 S  S2  1  0.50000  0.50000  0.50000  1
