CIF file written using JARVIS-Tools package.
data_GaAgS2
_symmetry_space_group_name_H-M  'R3m'
_cell_length_a       3.59451
_cell_length_b       3.59451
_cell_length_c       7.24439
_cell_angle_alpha    75.6355
_cell_angle_beta     75.6355
_cell_angle_gamma    60

_symmetry_Int_Tables_number  160
_chemical_formula_structural  GaAgS2
_chemical_formula_sum  GaAgS2
_cell_volume  77.66363329147163
_cell_formula_units_Z  1
loop_
  _symmetry_equiv_pos_site_id
 _symmetry_equiv_pos_as_xyz
 1  'x, y, z'
loop_
 _atom_site_type_symbol
 _atom_site_label
 _atom_site_symmetry_multiplicity
 _atom_site_fract_x
 _atom_site_fract_y
 _atom_site_fract_z
 _atom_site_fract_occupancy
 Ag  Ag1  1  0.84516  0.84516  0.46452  1
 Ga  Ga1  1  0.00156  0.00156  0.99533  1
 S  S1  1  0.72938  0.72938  0.81185  1
 S  S2  1  0.26490  0.26490  0.20530  1
