CIF file written using JARVIS-Tools package.
data_GaPO4
_symmetry_space_group_name_H-M  'C222_1'
_cell_length_a       4.91964
_cell_length_b       4.91964
_cell_length_c       6.82826
_cell_angle_alpha    90
_cell_angle_beta     90
_cell_angle_gamma    90.4011

_symmetry_Int_Tables_number  20
_chemical_formula_structural  GaPO4
_chemical_formula_sum  Ga2P2O8
_cell_volume  165.25887220805112
_cell_formula_units_Z  2
loop_
  _symmetry_equiv_pos_site_id
 _symmetry_equiv_pos_as_xyz
 1  'x, y, z'
loop_
 _atom_site_type_symbol
 _atom_site_label
 _atom_site_symmetry_multiplicity
 _atom_site_fract_x
 _atom_site_fract_y
 _atom_site_fract_z
 _atom_site_fract_occupancy
 Ga  Ga1  1  0.82238  0.82238  0.75000  1
 Ga  Ga2  1  0.17762  0.17762  0.25000  1
 O  O1  1  0.81612  0.22350  0.31230  1
 O  O2  1  0.18388  0.77650  0.81230  1
 O  O3  1  0.77650  0.18388  0.68770  1
 O  O4  1  0.72786  0.63355  0.52662  1
 O  O5  1  0.22350  0.81612  0.18770  1
 O  O6  1  0.63355  0.72786  0.97338  1
 O  O7  1  0.36645  0.27214  0.47338  1
 O  O8  1  0.27214  0.36645  0.02662  1
 P  P1  1  0.32599  0.67401  0.00000  1
 P  P2  1  0.67401  0.32599  0.50000  1
