CIF file written using JARVIS-Tools package.
data_ThTe3
_symmetry_space_group_name_H-M  'P2_1/m'
_cell_length_a       4.41591
_cell_length_b       6.24224
_cell_length_c       10.5439
_cell_angle_alpha    97.6892
_cell_angle_beta     90
_cell_angle_gamma    90

_symmetry_Int_Tables_number  11
_chemical_formula_structural  ThTe3
_chemical_formula_sum  Th2Te6
_cell_volume  288.0319762273688
_cell_formula_units_Z  2
loop_
  _symmetry_equiv_pos_site_id
 _symmetry_equiv_pos_as_xyz
 1  'x, y, z'
loop_
 _atom_site_type_symbol
 _atom_site_label
 _atom_site_symmetry_multiplicity
 _atom_site_fract_x
 _atom_site_fract_y
 _atom_site_fract_z
 _atom_site_fract_occupancy
 Te  Te1  1  0.75000  0.55771  0.33149  1
 Te  Te2  1  0.25000  0.44229  0.66851  1
 Te  Te3  1  0.75000  0.23509  0.93640  1
 Te  Te4  1  0.25000  0.76491  0.06360  1
 Te  Te5  1  0.75000  0.10995  0.34378  1
 Te  Te6  1  0.25000  0.89005  0.65622  1
 Th  Th1  1  0.75000  0.71476  0.84024  1
 Th  Th2  1  0.25000  0.28524  0.15976  1
