CIF file written using JARVIS-Tools package.
data_Ti4Bi2O11
_symmetry_space_group_name_H-M  'C2/m'
_cell_length_a       3.80387
_cell_length_b       7.64309
_cell_length_c       7.76173
_cell_angle_alpha    83.2547
_cell_angle_beta     75.8157
_cell_angle_gamma    75.5909

_symmetry_Int_Tables_number  12
_chemical_formula_structural  Ti4Bi2O11
_chemical_formula_sum  Ti4Bi2O
_cell_volume  211.51407523975772
_cell_formula_units_Z  1
loop_
  _symmetry_equiv_pos_site_id
 _symmetry_equiv_pos_as_xyz
 1  'x, y, z'
loop_
 _atom_site_type_symbol
 _atom_site_label
 _atom_site_symmetry_multiplicity
 _atom_site_fract_x
 _atom_site_fract_y
 _atom_site_fract_z
 _atom_site_fract_occupancy
 Bi  Bi1  1  0.89152  0.35808  0.85887  1
 Bi  Bi2  1  0.10848  0.64192  0.14113  1
 O  O1  1  0.70821  0.63372  0.94986  1
 O  O2  1  0.29179  0.36628  0.05014  1
 O  O3  1  0.62474  0.10446  0.64606  1
 O  O4  1  0.37526  0.89554  0.35394  1
 O  O5  1  0.43652  0.45837  0.66859  1
 O  O6  1  0.56348  0.54163  0.33141  1
 O  O7  1  0.79957  0.16130  0.23955  1
 O  O8  1  0.14465  0.28051  0.43018  1
 O  O9  1  0.85535  0.71949  0.56982  1
 O  O10  1  0.50000  -0.00000  0.00000  1
 O  O11  1  0.20043  0.83870  0.76045  1
 Ti  Ti1  1  0.61895  0.29473  0.46738  1
 Ti  Ti2  1  0.38105  0.70527  0.53262  1
 Ti  Ti3  1  0.66249  0.89268  0.78234  1
 Ti  Ti4  1  0.33751  0.10732  0.21766  1
