CIF file written using JARVIS-Tools package.
data_VZnSiO5
_symmetry_space_group_name_H-M  'P-1'
_cell_length_a       5.19151
_cell_length_b       5.46643
_cell_length_c       7.12632
_cell_angle_alpha    106.128
_cell_angle_beta     106.917
_cell_angle_gamma    101.806

_symmetry_Int_Tables_number  2
_chemical_formula_structural  VZnSiO5
_chemical_formula_sum  V2Zn2Si2O0
_cell_volume  176.68146459780388
_cell_formula_units_Z  2
loop_
  _symmetry_equiv_pos_site_id
 _symmetry_equiv_pos_as_xyz
 1  'x, y, z'
loop_
 _atom_site_type_symbol
 _atom_site_label
 _atom_site_symmetry_multiplicity
 _atom_site_fract_x
 _atom_site_fract_y
 _atom_site_fract_z
 _atom_site_fract_occupancy
 O  O1  1  0.57390  0.64828  0.87047  1
 O  O2  1  0.74430  0.77531  0.57596  1
 O  O3  1  0.42635  0.34856  0.13120  1
 O  O4  1  0.25595  0.22149  0.42572  1
 O  O5  1  0.16654  0.65576  0.33597  1
 O  O6  1  0.86832  0.18663  0.06054  1
 O  O7  1  0.83372  0.34105  0.66574  1
 O  O8  1  0.13194  0.81020  0.94115  1
 O  O9  1  0.60456  0.95838  0.26904  1
 O  O10  1  0.39568  0.03845  0.73266  1
 Si  Si1  1  0.81541  0.64850  0.76127  1
 Si  Si2  1  0.18485  0.34831  0.24042  1
 V  V1  1  0.50013  0.99841  0.50084  1
 V  V2  1  0.50013  -0.00159  0.00084  1
 Zn  Zn1  1  0.21895  0.32899  0.72380  1
 Zn  Zn2  1  0.78133  0.66784  0.27793  1
