CIF file written using JARVIS-Tools package.
data_LiIO3
_symmetry_space_group_name_H-M  'Pna2_1'
_cell_length_a       5.20632
_cell_length_b       5.83682
_cell_length_c       9.34102
_cell_angle_alpha    90
_cell_angle_beta     90
_cell_angle_gamma    90

_symmetry_Int_Tables_number  33
_chemical_formula_structural  LiIO3
_chemical_formula_sum  Li4I4O2
_cell_volume  283.8577593292815
_cell_formula_units_Z  4
loop_
  _symmetry_equiv_pos_site_id
 _symmetry_equiv_pos_as_xyz
 1  'x, y, z'
loop_
 _atom_site_type_symbol
 _atom_site_label
 _atom_site_symmetry_multiplicity
 _atom_site_fract_x
 _atom_site_fract_y
 _atom_site_fract_z
 _atom_site_fract_occupancy
 I  I1  1  0.51188  0.42227  0.18148  1
 I  I2  1  0.01188  0.57773  0.81852  1
 I  I3  1  0.51188  0.07773  0.68148  1
 I  I4  1  0.01188  0.92227  0.31852  1
 Li  Li1  1  0.97708  0.41393  0.48127  1
 Li  Li2  1  0.97708  0.08607  0.98127  1
 Li  Li3  1  0.47708  0.58607  0.51873  1
 Li  Li4  1  0.47708  0.91393  0.01873  1
 O  O1  1  0.68001  0.47224  0.34974  1
 O  O2  1  0.68001  0.02776  0.84974  1
 O  O3  1  0.18001  0.97224  0.15026  1
 O  O4  1  0.67325  0.85748  0.57379  1
 O  O5  1  0.17325  0.14252  0.42621  1
 O  O6  1  0.69097  0.33245  0.62654  1
 O  O7  1  0.19097  0.66755  0.37346  1
 O  O8  1  0.69097  0.16755  0.12654  1
 O  O9  1  0.67325  0.64252  0.07379  1
 O  O10  1  0.19097  0.83245  0.87346  1
 O  O11  1  0.18001  0.52776  0.65026  1
 O  O12  1  0.17325  0.35748  0.92621  1
