CIF file written using JARVIS-Tools package.
data_MgNi4S8
_symmetry_space_group_name_H-M  'R-3m'
_cell_length_a       6.80311
_cell_length_b       6.83048
_cell_length_c       6.83048
_cell_angle_alpha    60
_cell_angle_beta     59.8668
_cell_angle_gamma    59.8668

_symmetry_Int_Tables_number  166
_chemical_formula_structural  MgNi4S8
_chemical_formula_sum  MgNi4S8
_cell_volume  223.98389325164732
_cell_formula_units_Z  1
loop_
  _symmetry_equiv_pos_site_id
 _symmetry_equiv_pos_as_xyz
 1  'x, y, z'
loop_
 _atom_site_type_symbol
 _atom_site_label
 _atom_site_symmetry_multiplicity
 _atom_site_fract_x
 _atom_site_fract_y
 _atom_site_fract_z
 _atom_site_fract_occupancy
 Mg  Mg1  1  0.50000  -0.00000  -0.00000  1
 Ni  Ni1  1  -0.00000  0.50000  0.50000  1
 Ni  Ni2  1  0.50000  0.50000  -0.00000  1
 Ni  Ni3  1  0.50000  0.50000  0.50000  1
 Ni  Ni4  1  0.50000  -0.00000  0.50000  1
 S  S1  1  0.26582  0.25998  0.25998  1
 S  S2  1  0.26582  0.25998  0.71422  1
 S  S3  1  0.26582  0.71422  0.25998  1
 S  S4  1  0.71665  0.26112  0.26112  1
 S  S5  1  0.28335  0.73888  0.73888  1
 S  S6  1  0.73418  0.74002  0.28578  1
 S  S7  1  0.73418  0.28578  0.74002  1
 S  S8  1  0.73418  0.74002  0.74002  1
