CIF file written using JARVIS-Tools package.
data_ZrBr
_symmetry_space_group_name_H-M  'P-3m1'
_cell_length_a       3.44747
_cell_length_b       3.44752
_cell_length_c       9.67232
_cell_angle_alpha    90
_cell_angle_beta     90.0061
_cell_angle_gamma    120.001

_symmetry_Int_Tables_number  164
_chemical_formula_structural  ZrBr
_chemical_formula_sum  Zr2Br2
_cell_volume  99.55557251772636
_cell_formula_units_Z  2
loop_
  _symmetry_equiv_pos_site_id
 _symmetry_equiv_pos_as_xyz
 1  'x, y, z'
loop_
 _atom_site_type_symbol
 _atom_site_label
 _atom_site_symmetry_multiplicity
 _atom_site_fract_x
 _atom_site_fract_y
 _atom_site_fract_z
 _atom_site_fract_occupancy
 Br  Br1  1  0.33347  0.66674  0.82911  1
 Br  Br2  1  0.66653  0.33326  0.17089  1
 Zr  Zr1  1  0.33328  0.66664  0.37178  1
 Zr  Zr2  1  0.66672  0.33336  0.62822  1
