CIF file written using JARVIS-Tools package.
data_Cr5Si3
_symmetry_space_group_name_H-M  'I4/mcm'
_cell_length_a       4.58935
_cell_length_b       6.82656
_cell_length_c       6.82656
_cell_angle_alpha    83.5123
_cell_angle_beta     70.3582
_cell_angle_gamma    70.3582

_symmetry_Int_Tables_number  140
_chemical_formula_structural  Cr5Si3
_chemical_formula_sum  Cr0Si6
_cell_volume  189.70715489215405
_cell_formula_units_Z  2
loop_
  _symmetry_equiv_pos_site_id
 _symmetry_equiv_pos_as_xyz
 1  'x, y, z'
loop_
 _atom_site_type_symbol
 _atom_site_label
 _atom_site_symmetry_multiplicity
 _atom_site_fract_x
 _atom_site_fract_y
 _atom_site_fract_z
 _atom_site_fract_occupancy
 Cr  Cr1  1  0.25000  0.50000  0.50000  1
 Cr  Cr2  1  0.75000  0.50000  0.50000  1
 Cr  Cr3  1  0.07622  0.15283  0.69472  1
 Cr  Cr4  1  0.77094  0.30528  0.15283  1
 Cr  Cr5  1  0.22906  0.69472  0.84717  1
 Cr  Cr6  1  0.92378  0.84717  0.30528  1
 Cr  Cr7  1  0.27094  0.15283  0.30528  1
 Cr  Cr8  1  0.72906  0.84717  0.69472  1
 Cr  Cr9  1  0.42378  0.30528  0.84717  1
 Cr  Cr10  1  0.57622  0.69472  0.15283  1
 Si  Si1  1  0.25000  0.00000  -0.00000  1
 Si  Si2  1  0.75000  0.00000  -0.00000  1
 Si  Si3  1  0.16727  0.50000  0.16546  1
 Si  Si4  1  0.33273  0.83454  0.50000  1
 Si  Si5  1  0.66727  0.16546  0.50000  1
 Si  Si6  1  0.83273  0.50000  0.83454  1
