CIF file written using JARVIS-Tools package.
data_MgNb2
_symmetry_space_group_name_H-M  'C2/m'
_cell_length_a       3.03723
_cell_length_b       3.03723
_cell_length_c       7.95136
_cell_angle_alpha    76.6082
_cell_angle_beta     76.6082
_cell_angle_gamma    53.9253

_symmetry_Int_Tables_number  12
_chemical_formula_structural  MgNb2
_chemical_formula_sum  MgNb2
_cell_volume  57.24794982429838
_cell_formula_units_Z  1
loop_
  _symmetry_equiv_pos_site_id
 _symmetry_equiv_pos_as_xyz
 1  'x, y, z'
loop_
 _atom_site_type_symbol
 _atom_site_label
 _atom_site_symmetry_multiplicity
 _atom_site_fract_x
 _atom_site_fract_y
 _atom_site_fract_z
 _atom_site_fract_occupancy
 Mg  Mg1  1  0.00000  0.00000  0.00000  1
 Nb  Nb1  1  0.17164  0.17164  0.33529  1
 Nb  Nb2  1  0.82836  0.82836  0.66471  1
