CIF file written using JARVIS-Tools package.
data_FeO
_symmetry_space_group_name_H-M  'P6_3/mmc'
_cell_length_a       2.89087
_cell_length_b       5.00734
_cell_length_c       6.12503
_cell_angle_alpha    90.0508
_cell_angle_beta     76.3744
_cell_angle_gamma    30.0065

_symmetry_Int_Tables_number  194
_chemical_formula_structural  FeO
_chemical_formula_sum  Fe2O2
_cell_volume  39.076130328795884
_cell_formula_units_Z  2
loop_
  _symmetry_equiv_pos_site_id
 _symmetry_equiv_pos_as_xyz
 1  'x, y, z'
loop_
 _atom_site_type_symbol
 _atom_site_label
 _atom_site_symmetry_multiplicity
 _atom_site_fract_x
 _atom_site_fract_y
 _atom_site_fract_z
 _atom_site_fract_occupancy
 Fe  Fe1  1  0.50911  0.99304  0.49917  1
 Fe  Fe2  1  0.50908  0.49306  0.99919  1
 O  O1  1  0.00904  0.57638  0.74917  1
 O  O2  1  0.00912  0.40971  0.24920  1
