CIF file written using JARVIS-Tools package.
data_MoN
_symmetry_space_group_name_H-M  'I4/mmm'
_cell_length_a       2.86423
_cell_length_b       2.86425
_cell_length_c       6.10463
_cell_angle_alpha    103.54
_cell_angle_beta     76.4617
_cell_angle_gamma    90.0014

_symmetry_Int_Tables_number  139
_chemical_formula_structural  MoN
_chemical_formula_sum  Mo2N2
_cell_volume  47.25733039462166
_cell_formula_units_Z  2
loop_
  _symmetry_equiv_pos_site_id
 _symmetry_equiv_pos_as_xyz
 1  'x, y, z'
loop_
 _atom_site_type_symbol
 _atom_site_label
 _atom_site_symmetry_multiplicity
 _atom_site_fract_x
 _atom_site_fract_y
 _atom_site_fract_z
 _atom_site_fract_occupancy
 Mo  Mo1  1  0.48918  0.27766  0.04194  1
 Mo  Mo2  1  0.28008  0.48676  0.45932  1
 N  N1  1  0.73643  0.03040  0.54680  1
 N  N2  1  0.03282  0.73401  0.95445  1
