CIF file written using JARVIS-Tools package.
data_CrCo5O12
_symmetry_space_group_name_H-M  'C2/m'
_cell_length_a       4.88632
_cell_length_b       4.89935
_cell_length_c       8.73725
_cell_angle_alpha    89.9738
_cell_angle_beta     89.9475
_cell_angle_gamma    60.0879

_symmetry_Int_Tables_number  12
_chemical_formula_structural  CrCo5O12
_chemical_formula_sum  CrCo5O2
_cell_volume  181.30512575341194
_cell_formula_units_Z  1
loop_
  _symmetry_equiv_pos_site_id
 _symmetry_equiv_pos_as_xyz
 1  'x, y, z'
loop_
 _atom_site_type_symbol
 _atom_site_label
 _atom_site_symmetry_multiplicity
 _atom_site_fract_x
 _atom_site_fract_y
 _atom_site_fract_z
 _atom_site_fract_occupancy
 Co  Co1  1  0.16660  0.66680  0.50000  1
 Co  Co2  1  0.66671  0.66659  0.00000  1
 Co  Co3  1  0.33329  0.33341  -0.00000  1
 Co  Co4  1  0.83340  0.33320  0.50000  1
 Co  Co5  1  0.50000  -0.00000  0.50000  1
 Cr  Cr1  1  0.00000  0.00000  0.00000  1
 O  O1  1  0.00001  0.67081  0.10779  1
 O  O2  1  0.32918  0.67081  0.89221  1
 O  O3  1  0.67096  0.00000  0.89210  1
 O  O4  1  0.50029  0.66667  0.39427  1
 O  O5  1  0.16695  0.33333  0.39427  1
 O  O6  1  0.67082  0.32919  0.10779  1
 O  O7  1  0.83305  0.66667  0.60573  1
 O  O8  1  0.49971  0.33333  0.60573  1
 O  O9  1  0.32904  -0.00000  0.10790  1
 O  O10  1  -0.00001  0.32919  0.89221  1
 O  O11  1  0.16640  0.00000  0.60590  1
 O  O12  1  0.83360  -0.00000  0.39410  1
