CIF file written using JARVIS-Tools package.
data_AlV2O4
_symmetry_space_group_name_H-M  'R-3m'
_cell_length_a       5.80416
_cell_length_b       5.80417
_cell_length_c       5.80416
_cell_angle_alpha    61.1835
_cell_angle_beta     61.1836
_cell_angle_gamma    61.1835

_symmetry_Int_Tables_number  166
_chemical_formula_structural  AlV2O4
_chemical_formula_sum  Al2V4O8
_cell_volume  141.94386954860735
_cell_formula_units_Z  2
loop_
  _symmetry_equiv_pos_site_id
 _symmetry_equiv_pos_as_xyz
 1  'x, y, z'
loop_
 _atom_site_type_symbol
 _atom_site_label
 _atom_site_symmetry_multiplicity
 _atom_site_fract_x
 _atom_site_fract_y
 _atom_site_fract_z
 _atom_site_fract_occupancy
 Al  Al1  1  0.62360  0.62360  0.62360  1
 Al  Al2  1  0.37640  0.37640  0.37640  1
 O  O1  1  0.25292  0.74827  0.74827  1
 O  O2  1  0.25173  0.25173  0.74708  1
 O  O3  1  0.25173  0.74708  0.25173  1
 O  O4  1  0.24876  0.24876  0.24876  1
 O  O5  1  0.74827  0.74827  0.25292  1
 O  O6  1  0.74708  0.25173  0.25173  1
 O  O7  1  0.74827  0.25292  0.74827  1
 O  O8  1  0.75124  0.75124  0.75124  1
 V  V1  1  -0.00000  0.50000  0.00000  1
 V  V2  1  0.00000  0.00000  0.00000  1
 V  V3  1  0.50000  0.00000  -0.00000  1
 V  V4  1  0.00000  -0.00000  0.50000  1
