CIF file written using JARVIS-Tools package.
data_SrCaI4
_symmetry_space_group_name_H-M  'P2_1/c'
_cell_length_a       7.99881
_cell_length_b       15.6745
_cell_length_c       7.98493
_cell_angle_alpha    90
_cell_angle_beta     73.594
_cell_angle_gamma    90

_symmetry_Int_Tables_number  14
_chemical_formula_structural  SrCaI4
_chemical_formula_sum  Sr4Ca4I6
_cell_volume  960.367547452966
_cell_formula_units_Z  4
loop_
  _symmetry_equiv_pos_site_id
 _symmetry_equiv_pos_as_xyz
 1  'x, y, z'
loop_
 _atom_site_type_symbol
 _atom_site_label
 _atom_site_symmetry_multiplicity
 _atom_site_fract_x
 _atom_site_fract_y
 _atom_site_fract_z
 _atom_site_fract_occupancy
 Ca  Ca1  1  0.10143  0.13738  0.35717  1
 Ca  Ca2  1  0.10143  0.36262  0.85717  1
 Ca  Ca3  1  0.89857  0.63738  0.14283  1
 Ca  Ca4  1  0.89857  0.86262  0.64283  1
 I  I1  1  0.75847  0.96757  -0.01384  1
 I  I2  1  0.13671  0.71662  0.40424  1
 I  I3  1  0.24153  0.46757  0.51384  1
 I  I4  1  0.34316  0.28352  0.11188  1
 I  I5  1  0.75847  0.53243  0.48616  1
 I  I6  1  0.24165  0.97114  0.51342  1
 I  I7  1  0.24153  0.03243  0.01384  1
 I  I8  1  0.13671  0.78338  0.90424  1
 I  I9  1  0.24165  0.52886  0.01342  1
 I  I10  1  0.86329  0.28338  0.59576  1
 I  I11  1  0.65684  0.78352  0.38812  1
 I  I12  1  0.34316  0.21648  0.61188  1
 I  I13  1  0.75835  0.02886  0.48658  1
 I  I14  1  0.86329  0.21662  0.09576  1
 I  I15  1  0.65684  0.71648  0.88812  1
 I  I16  1  0.75835  0.47114  -0.01342  1
 Sr  Sr1  1  0.60335  0.13957  0.84991  1
 Sr  Sr2  1  0.60335  0.36043  0.34991  1
 Sr  Sr3  1  0.39665  0.63957  0.65009  1
 Sr  Sr4  1  0.39665  0.86043  0.15009  1
