CIF file written using JARVIS-Tools package.
data_CaO
_symmetry_space_group_name_H-M  'I4/mmm'
_cell_length_a       3.31649
_cell_length_b       3.31649
_cell_length_c       7.1644
_cell_angle_alpha    103.383
_cell_angle_beta     103.383
_cell_angle_gamma    89.998

_symmetry_Int_Tables_number  139
_chemical_formula_structural  CaO
_chemical_formula_sum  Ca2O2
_cell_volume  74.46059729597556
_cell_formula_units_Z  2
loop_
  _symmetry_equiv_pos_site_id
 _symmetry_equiv_pos_as_xyz
 1  'x, y, z'
loop_
 _atom_site_type_symbol
 _atom_site_label
 _atom_site_symmetry_multiplicity
 _atom_site_fract_x
 _atom_site_fract_y
 _atom_site_fract_z
 _atom_site_fract_occupancy
 Ca  Ca1  1  0.09488  0.22819  0.32307  1
 Ca  Ca2  1  0.77181  0.90512  0.67693  1
 O  O1  1  0.26840  0.40169  0.67009  1
 O  O2  1  0.59831  0.73160  0.32991  1
