CIF file written using JARVIS-Tools package.
data_OsN2
_symmetry_space_group_name_H-M  'Amm2'
_cell_length_a       3.21291
_cell_length_b       3.21291
_cell_length_c       3.68974
_cell_angle_alpha    90
_cell_angle_beta     90
_cell_angle_gamma    129.118

_symmetry_Int_Tables_number  38
_chemical_formula_structural  OsN2
_chemical_formula_sum  OsN2
_cell_volume  29.550757205821522
_cell_formula_units_Z  1
loop_
  _symmetry_equiv_pos_site_id
 _symmetry_equiv_pos_as_xyz
 1  'x, y, z'
loop_
 _atom_site_type_symbol
 _atom_site_label
 _atom_site_symmetry_multiplicity
 _atom_site_fract_x
 _atom_site_fract_y
 _atom_site_fract_z
 _atom_site_fract_occupancy
 N  N1  1  0.00980  0.99020  0.18468  1
 N  N2  1  0.00980  0.99020  0.81532  1
 Os  Os1  1  0.31370  0.68630  0.50000  1
