CIF file written using JARVIS-Tools package.
data_MnOF
_symmetry_space_group_name_H-M  'P1'
_cell_length_a       4.50396
_cell_length_b       5.60928
_cell_length_c       10.1929
_cell_angle_alpha    89.9945
_cell_angle_beta     88.9119
_cell_angle_gamma    88.9441

_symmetry_Int_Tables_number  1
_chemical_formula_structural  MnOF
_chemical_formula_sum  Mn8O8F8
_cell_volume  257.42226972881514
_cell_formula_units_Z  8
loop_
  _symmetry_equiv_pos_site_id
 _symmetry_equiv_pos_as_xyz
 1  'x, y, z'
loop_
 _atom_site_type_symbol
 _atom_site_label
 _atom_site_symmetry_multiplicity
 _atom_site_fract_x
 _atom_site_fract_y
 _atom_site_fract_z
 _atom_site_fract_occupancy
 F  F1  1  0.72521  0.10599  0.47667  1
 F  F2  1  0.77661  0.13463  0.95888  1
 F  F3  1  0.78012  0.88931  0.72954  1
 F  F4  1  0.26637  0.38051  0.01957  1
 F  F5  1  0.23397  0.61615  0.26990  1
 F  F6  1  0.24670  0.37494  0.52425  1
 F  F7  1  0.26332  0.11762  0.79776  1
 F  F8  1  0.74965  0.88426  0.22811  1
 Mn  Mn1  1  0.99711  0.84340  0.38875  1
 Mn  Mn2  1  0.50255  0.34455  0.36019  1
 Mn  Mn3  1  0.53490  0.38359  0.86185  1
 Mn  Mn4  1  0.50242  0.65007  0.61528  1
 Mn  Mn5  1  0.51337  0.65368  0.11761  1
 Mn  Mn6  1  0.01883  0.15493  0.13881  1
 Mn  Mn7  1  0.03656  0.82915  0.88942  1
 Mn  Mn8  1  0.00342  0.14631  0.63024  1
 O  O1  1  0.70876  0.60780  0.44906  1
 O  O2  1  0.74187  0.38991  0.70241  1
 O  O3  1  0.29255  0.61608  0.78501  1
 O  O4  1  0.21594  0.11461  0.30128  1
 O  O5  1  0.23067  0.88638  0.04887  1
 O  O6  1  0.20818  0.87579  0.54722  1
 O  O7  1  0.71278  0.37972  0.20135  1
 O  O8  1  0.73814  0.62061  0.95796  1
