CIF file written using JARVIS-Tools package.
data_GaAgO2
_symmetry_space_group_name_H-M  'R3m'
_cell_length_a       2.99246
_cell_length_b       2.99246
_cell_length_c       6.40552
_cell_angle_alpha    76.4918
_cell_angle_beta     76.4918
_cell_angle_gamma    60

_symmetry_Int_Tables_number  160
_chemical_formula_structural  GaAgO2
_chemical_formula_sum  GaAgO2
_cell_volume  47.834432671712065
_cell_formula_units_Z  1
loop_
  _symmetry_equiv_pos_site_id
 _symmetry_equiv_pos_as_xyz
 1  'x, y, z'
loop_
 _atom_site_type_symbol
 _atom_site_label
 _atom_site_symmetry_multiplicity
 _atom_site_fract_x
 _atom_site_fract_y
 _atom_site_fract_z
 _atom_site_fract_occupancy
 Ag  Ag1  1  0.83975  0.83975  0.48076  1
 Ga  Ga1  1  0.00207  0.00207  0.99380  1
 O  O1  1  0.72261  0.72261  0.83218  1
 O  O2  1  0.27658  0.27658  0.17026  1
