CIF file written using JARVIS-Tools package.
data_Ga
_symmetry_space_group_name_H-M  'Cmcm'
_cell_length_a       4.52531
_cell_length_b       4.52531
_cell_length_c       4.67461
_cell_angle_alpha    90
_cell_angle_beta     90
_cell_angle_gamma    117.95

_symmetry_Int_Tables_number  63
_chemical_formula_structural  Ga
_chemical_formula_sum  Ga4
_cell_volume  84.56314176903561
_cell_formula_units_Z  4
loop_
  _symmetry_equiv_pos_site_id
 _symmetry_equiv_pos_as_xyz
 1  'x, y, z'
loop_
 _atom_site_type_symbol
 _atom_site_label
 _atom_site_symmetry_multiplicity
 _atom_site_fract_x
 _atom_site_fract_y
 _atom_site_fract_z
 _atom_site_fract_occupancy
 Ga  Ga1  1  0.00854  0.33417  0.25000  1
 Ga  Ga2  1  0.66583  0.99146  0.75000  1
 Ga  Ga3  1  0.99146  0.66583  0.75000  1
 Ga  Ga4  1  0.33417  0.00854  0.25000  1
