CIF file written using JARVIS-Tools package.
data_Te2W3Se2S2
_symmetry_space_group_name_H-M  'P3m1'
_cell_length_a       3.35328
_cell_length_b       3.3534
_cell_length_c       29.0812
_cell_angle_alpha    89.9848
_cell_angle_beta     90
_cell_angle_gamma    119.999

_symmetry_Int_Tables_number  156
_chemical_formula_structural  Te2W3Se2S2
_chemical_formula_sum  Te2W3Se2S2
_cell_volume  283.20749109283565
_cell_formula_units_Z  1
loop_
  _symmetry_equiv_pos_site_id
 _symmetry_equiv_pos_as_xyz
 1  'x, y, z'
loop_
 _atom_site_type_symbol
 _atom_site_label
 _atom_site_symmetry_multiplicity
 _atom_site_fract_x
 _atom_site_fract_y
 _atom_site_fract_z
 _atom_site_fract_occupancy
 S  S1  1  0.66696  0.33392  0.05999  1
 S  S2  1  0.66681  0.33362  0.16474  1
 Se  Se1  1  0.66656  0.33312  0.52683  1
 Se  Se2  1  0.66635  0.33271  0.64186  1
 Te  Te1  1  0.33324  0.66647  0.40988  1
 Te  Te2  1  0.33339  0.66678  0.27857  1
 W  W1  1  0.33356  0.66711  0.11233  1
 W  W2  1  0.33308  0.66615  0.58439  1
 W  W3  1  0.66666  0.33331  0.34425  1
