CIF file written using JARVIS-Tools package.
data_V3Zn2O8
_symmetry_space_group_name_H-M  'C2/m'
_cell_length_a       4.96
_cell_length_b       5.77436
_cell_length_c       5.78113
_cell_angle_alpha    119.961
_cell_angle_beta     100.451
_cell_angle_gamma    90

_symmetry_Int_Tables_number  12
_chemical_formula_structural  V3Zn2O8
_chemical_formula_sum  V3Zn2O8
_cell_volume  140.2699372130604
_cell_formula_units_Z  1
loop_
  _symmetry_equiv_pos_site_id
 _symmetry_equiv_pos_as_xyz
 1  'x, y, z'
loop_
 _atom_site_type_symbol
 _atom_site_label
 _atom_site_symmetry_multiplicity
 _atom_site_fract_x
 _atom_site_fract_y
 _atom_site_fract_z
 _atom_site_fract_occupancy
 O  O1  1  0.11164  0.39184  0.78367  1
 O  O2  1  0.88836  0.60816  0.21633  1
 O  O3  1  0.13291  0.90124  0.80248  1
 O  O4  1  0.86709  0.09876  0.19752  1
 O  O5  1  0.36365  0.34734  0.23457  1
 O  O6  1  0.36365  0.88723  0.23457  1
 O  O7  1  0.63635  0.11277  0.76543  1
 O  O8  1  0.63635  0.65266  0.76543  1
 V  V1  1  0.50000  -0.00000  -0.00000  1
 V  V2  1  0.00000  0.73242  0.00000  1
 V  V3  1  0.00000  0.26757  0.00000  1
 Zn  Zn1  1  0.59481  0.71381  0.42762  1
 Zn  Zn2  1  0.40519  0.28619  0.57238  1
