CIF file written using JARVIS-Tools package.
data_InSb
_symmetry_space_group_name_H-M  'Pmmn'
_cell_length_a       3.22223
_cell_length_b       5.97848
_cell_length_c       5.95382
_cell_angle_alpha    90
_cell_angle_beta     90
_cell_angle_gamma    90

_symmetry_Int_Tables_number  59
_chemical_formula_structural  InSb
_chemical_formula_sum  In2Sb2
_cell_volume  114.69451271785813
_cell_formula_units_Z  2
loop_
  _symmetry_equiv_pos_site_id
 _symmetry_equiv_pos_as_xyz
 1  'x, y, z'
loop_
 _atom_site_type_symbol
 _atom_site_label
 _atom_site_symmetry_multiplicity
 _atom_site_fract_x
 _atom_site_fract_y
 _atom_site_fract_z
 _atom_site_fract_occupancy
 In  In1  1  0.99017  0.75000  0.75000  1
 In  In2  1  0.00983  0.25000  0.25000  1
 Sb  Sb1  1  0.75323  0.25000  0.75000  1
 Sb  Sb2  1  0.24677  0.75000  0.25000  1
