CIF file written using JARVIS-Tools package.
data_TmB2C2
_symmetry_space_group_name_H-M  'P4/mbm'
_cell_length_a       5.32297
_cell_length_b       5.32297
_cell_length_c       3.47838
_cell_angle_alpha    90
_cell_angle_beta     90
_cell_angle_gamma    90

_symmetry_Int_Tables_number  127
_chemical_formula_structural  TmB2C2
_chemical_formula_sum  Tm2B4C4
_cell_volume  98.55651698575814
_cell_formula_units_Z  2
loop_
  _symmetry_equiv_pos_site_id
 _symmetry_equiv_pos_as_xyz
 1  'x, y, z'
loop_
 _atom_site_type_symbol
 _atom_site_label
 _atom_site_symmetry_multiplicity
 _atom_site_fract_x
 _atom_site_fract_y
 _atom_site_fract_z
 _atom_site_fract_occupancy
 B  B1  1  0.13661  0.63661  0.50000  1
 B  B2  1  0.63661  0.86339  0.50000  1
 B  B3  1  0.86339  0.36339  0.50000  1
 B  B4  1  0.36339  0.13661  0.50000  1
 C  C1  1  0.83776  0.66224  0.50000  1
 C  C2  1  0.33776  0.83776  0.50000  1
 C  C3  1  0.66224  0.16224  0.50000  1
 C  C4  1  0.16224  0.33776  0.50000  1
 Tm  Tm1  1  0.50000  0.50000  0.00000  1
 Tm  Tm2  1  0.00000  0.00000  0.00000  1
