CIF file written using JARVIS-Tools package.
data_MgMn4S8
_symmetry_space_group_name_H-M  'R-3m'
_cell_length_a       6.87856
_cell_length_b       6.88908
_cell_length_c       6.88908
_cell_angle_alpha    60
_cell_angle_beta     59.9494
_cell_angle_gamma    59.9494

_symmetry_Int_Tables_number  166
_chemical_formula_structural  MgMn4S8
_chemical_formula_sum  MgMn4S8
_cell_volume  230.66047056661577
_cell_formula_units_Z  1
loop_
  _symmetry_equiv_pos_site_id
 _symmetry_equiv_pos_as_xyz
 1  'x, y, z'
loop_
 _atom_site_type_symbol
 _atom_site_label
 _atom_site_symmetry_multiplicity
 _atom_site_fract_x
 _atom_site_fract_y
 _atom_site_fract_z
 _atom_site_fract_occupancy
 Mg  Mg1  1  0.50000  -0.00000  -0.00000  1
 Mn  Mn1  1  0.00000  0.50000  0.50000  1
 Mn  Mn2  1  0.50000  0.50000  -0.00000  1
 Mn  Mn3  1  0.50000  0.50000  0.50000  1
 Mn  Mn4  1  0.50000  0.00000  0.50000  1
 S  S1  1  0.25932  0.25685  0.25685  1
 S  S2  1  0.25932  0.25685  0.72698  1
 S  S3  1  0.25932  0.72698  0.25685  1
 S  S4  1  0.72760  0.25747  0.25747  1
 S  S5  1  0.27240  0.74253  0.74253  1
 S  S6  1  0.74068  0.74315  0.27302  1
 S  S7  1  0.74068  0.27302  0.74315  1
 S  S8  1  0.74068  0.74315  0.74315  1
