CIF file written using JARVIS-Tools package.
data_LiCoF2
_symmetry_space_group_name_H-M  'R-3m'
_cell_length_a       5.84283
_cell_length_b       5.84283
_cell_length_c       5.84282
_cell_angle_alpha    27.5728
_cell_angle_beta     27.5727
_cell_angle_gamma    27.5727

_symmetry_Int_Tables_number  166
_chemical_formula_structural  LiCoF2
_chemical_formula_sum  LiCoF2
_cell_volume  37.72423140140309
_cell_formula_units_Z  1
loop_
  _symmetry_equiv_pos_site_id
 _symmetry_equiv_pos_as_xyz
 1  'x, y, z'
loop_
 _atom_site_type_symbol
 _atom_site_label
 _atom_site_symmetry_multiplicity
 _atom_site_fract_x
 _atom_site_fract_y
 _atom_site_fract_z
 _atom_site_fract_occupancy
 Co  Co1  1  0.00000  0.00000  0.00000  1
 F  F1  1  0.23432  0.23431  0.23431  1
 F  F2  1  0.76569  0.76569  0.76569  1
 Li  Li1  1  0.50000  0.50000  0.50000  1
