CIF file written using JARVIS-Tools package.
data_MoO2
_symmetry_space_group_name_H-M  'Cmcm'
_cell_length_a       3.26926
_cell_length_b       5.01476
_cell_length_c       9.65025
_cell_angle_alpha    90
_cell_angle_beta     90
_cell_angle_gamma    109.024

_symmetry_Int_Tables_number  63
_chemical_formula_structural  MoO2
_chemical_formula_sum  Mo4O8
_cell_volume  149.57047656966344
_cell_formula_units_Z  4
loop_
  _symmetry_equiv_pos_site_id
 _symmetry_equiv_pos_as_xyz
 1  'x, y, z'
loop_
 _atom_site_type_symbol
 _atom_site_label
 _atom_site_symmetry_multiplicity
 _atom_site_fract_x
 _atom_site_fract_y
 _atom_site_fract_z
 _atom_site_fract_occupancy
 Mo  Mo1  1  0.88250  0.76501  0.06389  1
 Mo  Mo2  1  0.11750  0.23499  0.93611  1
 Mo  Mo3  1  0.88250  0.76501  0.43611  1
 Mo  Mo4  1  0.11750  0.23499  0.56389  1
 O  O1  1  0.25266  0.50532  0.40075  1
 O  O2  1  0.74734  0.49468  0.59925  1
 O  O3  1  0.74734  0.49468  0.90075  1
 O  O4  1  0.25266  0.50532  0.09925  1
 O  O5  1  0.94158  0.88316  0.25000  1
 O  O6  1  0.05842  0.11684  0.75000  1
 O  O7  1  0.50000  0.00000  0.00000  1
 O  O8  1  0.50000  0.00000  0.50000  1
