CIF file written using JARVIS-Tools package.
data_KBrF4
_symmetry_space_group_name_H-M  'C2/c'
_cell_length_a       5.67132
_cell_length_b       6.55102
_cell_length_c       7.09656
_cell_angle_alpha    114.112
_cell_angle_beta     113.542
_cell_angle_gamma    90.0131

_symmetry_Int_Tables_number  15
_chemical_formula_structural  KBrF4
_chemical_formula_sum  K2Br2F8
_cell_volume  216.37603796179073
_cell_formula_units_Z  2
loop_
  _symmetry_equiv_pos_site_id
 _symmetry_equiv_pos_as_xyz
 1  'x, y, z'
loop_
 _atom_site_type_symbol
 _atom_site_label
 _atom_site_symmetry_multiplicity
 _atom_site_fract_x
 _atom_site_fract_y
 _atom_site_fract_z
 _atom_site_fract_occupancy
 Br  Br1  1  0.66516  0.24998  0.49994  1
 Br  Br2  1  0.33484  0.75002  0.50006  1
 F  F1  1  0.50609  0.95365  0.24621  1
 F  F2  1  0.21104  0.68865  0.73347  1
 F  F3  1  0.24039  0.45372  0.24634  1
 F  F4  1  0.97779  0.81133  0.26657  1
 F  F5  1  0.75961  0.54628  0.75366  1
 F  F6  1  0.49391  0.04635  0.75379  1
 F  F7  1  0.78896  0.31135  0.26653  1
 F  F8  1  0.02221  0.18867  0.73343  1
 K  K1  1  0.50000  0.50000  -0.00000  1
 K  K2  1  0.00000  0.00000  0.00000  1
