CIF file written using JARVIS-Tools package.
data_PbSe
_symmetry_space_group_name_H-M  'Cmcm'
_cell_length_a       4.30145
_cell_length_b       4.48539
_cell_length_c       6.42611
_cell_angle_alpha    90
_cell_angle_beta     109.553
_cell_angle_gamma    90

_symmetry_Int_Tables_number  63
_chemical_formula_structural  PbSe
_chemical_formula_sum  Pb2Se2
_cell_volume  116.83328736294924
_cell_formula_units_Z  2
loop_
  _symmetry_equiv_pos_site_id
 _symmetry_equiv_pos_as_xyz
 1  'x, y, z'
loop_
 _atom_site_type_symbol
 _atom_site_label
 _atom_site_symmetry_multiplicity
 _atom_site_fract_x
 _atom_site_fract_y
 _atom_site_fract_z
 _atom_site_fract_occupancy
 Pb  Pb1  1  0.62973  0.75000  0.25946  1
 Pb  Pb2  1  0.37027  0.25000  0.74054  1
 Se  Se1  1  0.86492  0.75000  0.72984  1
 Se  Se2  1  0.13508  0.25000  0.27016  1
