CIF file written using JARVIS-Tools package.
data_MgCo4S8
_symmetry_space_group_name_H-M  'R-3m'
_cell_length_a       6.68135
_cell_length_b       6.79111
_cell_length_c       6.79112
_cell_angle_alpha    59.9999
_cell_angle_beta     59.455
_cell_angle_gamma    59.455

_symmetry_Int_Tables_number  166
_chemical_formula_structural  MgCo4S8
_chemical_formula_sum  MgCo4S8
_cell_volume  216.07467278782406
_cell_formula_units_Z  1
loop_
  _symmetry_equiv_pos_site_id
 _symmetry_equiv_pos_as_xyz
 1  'x, y, z'
loop_
 _atom_site_type_symbol
 _atom_site_label
 _atom_site_symmetry_multiplicity
 _atom_site_fract_x
 _atom_site_fract_y
 _atom_site_fract_z
 _atom_site_fract_occupancy
 Co  Co1  1  0.00000  0.50000  0.50000  1
 Co  Co2  1  0.50000  0.50000  0.00000  1
 Co  Co3  1  0.50000  0.50000  0.50000  1
 Co  Co4  1  0.50000  0.00000  0.50000  1
 Mg  Mg1  1  0.50000  -0.00000  0.00000  1
 S  S1  1  0.26284  0.26289  0.26289  1
 S  S2  1  0.26284  0.26289  0.71137  1
 S  S3  1  0.26284  0.71137  0.26289  1
 S  S4  1  0.71621  0.26126  0.26126  1
 S  S5  1  0.28379  0.73874  0.73874  1
 S  S6  1  0.73716  0.73711  0.28863  1
 S  S7  1  0.73716  0.28863  0.73711  1
 S  S8  1  0.73716  0.73711  0.73711  1
