CIF file written using JARVIS-Tools package.
data_ZrCl
_symmetry_space_group_name_H-M  'P-3m1'
_cell_length_a       3.34513
_cell_length_b       3.3451
_cell_length_c       9.21274
_cell_angle_alpha    89.9999
_cell_angle_beta     89.9993
_cell_angle_gamma    119.999

_symmetry_Int_Tables_number  164
_chemical_formula_structural  ZrCl
_chemical_formula_sum  Zr2Cl2
_cell_volume  89.27783049447514
_cell_formula_units_Z  2
loop_
  _symmetry_equiv_pos_site_id
 _symmetry_equiv_pos_as_xyz
 1  'x, y, z'
loop_
 _atom_site_type_symbol
 _atom_site_label
 _atom_site_symmetry_multiplicity
 _atom_site_fract_x
 _atom_site_fract_y
 _atom_site_fract_z
 _atom_site_fract_occupancy
 Cl  Cl1  1  0.33333  0.66666  0.83241  1
 Cl  Cl2  1  0.66667  0.33334  0.16759  1
 Zr  Zr1  1  0.33333  0.66666  0.36333  1
 Zr  Zr2  1  0.66667  0.33334  0.63667  1
