CIF file written using JARVIS-Tools package.
data_NaCdIn2
_symmetry_space_group_name_H-M  'C2/m'
_cell_length_a       13.5123
_cell_length_b       9.04023
_cell_length_c       9.04022
_cell_angle_alpha    22.4712
_cell_angle_beta     18.1621
_cell_angle_gamma    18.1621

_symmetry_Int_Tables_number  12
_chemical_formula_structural  NaCdIn2
_chemical_formula_sum  NaCdIn2
_cell_volume  104.70241876962221
_cell_formula_units_Z  1
loop_
  _symmetry_equiv_pos_site_id
 _symmetry_equiv_pos_as_xyz
 1  'x, y, z'
loop_
 _atom_site_type_symbol
 _atom_site_label
 _atom_site_symmetry_multiplicity
 _atom_site_fract_x
 _atom_site_fract_y
 _atom_site_fract_z
 _atom_site_fract_occupancy
 Cd  Cd1  1  0.50000  -0.00000  0.00000  1
 In  In1  1  0.77617  -0.01659  -0.01659  1
 In  In2  1  0.22383  0.01659  0.01659  1
 Na  Na1  1  0.00000  0.00000  0.00000  1
