CIF file written using JARVIS-Tools package.
data_SiO2
_symmetry_space_group_name_H-M  'C2'
_cell_length_a       5.15466
_cell_length_b       5.15466
_cell_length_c       6.82907
_cell_angle_alpha    99.0615
_cell_angle_beta     99.0615
_cell_angle_gamma    96.1701

_symmetry_Int_Tables_number  5
_chemical_formula_structural  SiO2
_chemical_formula_sum  Si4O8
_cell_volume  175.3157084937236
_cell_formula_units_Z  4
loop_
  _symmetry_equiv_pos_site_id
 _symmetry_equiv_pos_as_xyz
 1  'x, y, z'
loop_
 _atom_site_type_symbol
 _atom_site_label
 _atom_site_symmetry_multiplicity
 _atom_site_fract_x
 _atom_site_fract_y
 _atom_site_fract_z
 _atom_site_fract_occupancy
 O  O1  1  0.24125  0.20998  0.73343  1
 O  O2  1  0.53066  0.46934  0.50000  1
 O  O3  1  0.01400  0.70726  0.63391  1
 O  O4  1  0.91293  0.28797  0.32117  1
 O  O5  1  0.79002  0.75875  0.26657  1
 O  O6  1  0.01884  0.98116  0.00000  1
 O  O7  1  0.71203  0.08707  0.67883  1
 O  O8  1  0.29274  0.98600  0.36609  1
 Si  Si1  1  0.44562  0.18809  0.57237  1
 Si  Si2  1  0.81191  0.55438  0.42763  1
 Si  Si3  1  0.99637  0.99830  0.76461  1
 Si  Si4  1  0.00170  0.00363  0.23539  1
