CIF file written using JARVIS-Tools package.
data_PaInCu2
_symmetry_space_group_name_H-M  'Fm-3m'
_cell_length_a       4.72905
_cell_length_b       4.72902
_cell_length_c       4.72916
_cell_angle_alpha    59.9956
_cell_angle_beta     59.9982
_cell_angle_gamma    59.9913

_symmetry_Int_Tables_number  225
_chemical_formula_structural  PaInCu2
_chemical_formula_sum  PaInCu2
_cell_volume  74.77648450852692
_cell_formula_units_Z  1
loop_
  _symmetry_equiv_pos_site_id
 _symmetry_equiv_pos_as_xyz
 1  'x, y, z'
loop_
 _atom_site_type_symbol
 _atom_site_label
 _atom_site_symmetry_multiplicity
 _atom_site_fract_x
 _atom_site_fract_y
 _atom_site_fract_z
 _atom_site_fract_occupancy
 Cu  Cu1  1  0.50007  0.50004  0.49996  1
 Cu  Cu2  1  -0.00007  -0.00004  0.00004  1
 In  In1  1  0.25000  0.25000  0.25000  1
 Pa  Pa1  1  0.75000  0.75000  0.75000  1
