CIF file written using JARVIS-Tools package.
data_Sm3AuO6
_symmetry_space_group_name_H-M  'P-1'
_cell_length_a       3.73457
_cell_length_b       5.65941
_cell_length_c       7.11246
_cell_angle_alpha    90.6197
_cell_angle_beta     103.05
_cell_angle_gamma    91.1181

_symmetry_Int_Tables_number  2
_chemical_formula_structural  Sm3AuO6
_chemical_formula_sum  Sm3AuO6
_cell_volume  146.39719348917185
_cell_formula_units_Z  1
loop_
  _symmetry_equiv_pos_site_id
 _symmetry_equiv_pos_as_xyz
 1  'x, y, z'
loop_
 _atom_site_type_symbol
 _atom_site_label
 _atom_site_symmetry_multiplicity
 _atom_site_fract_x
 _atom_site_fract_y
 _atom_site_fract_z
 _atom_site_fract_occupancy
 Au  Au1  1  0.00000  0.00000  0.00000  1
 O  O1  1  0.84301  0.69761  0.11556  1
 O  O2  1  0.15699  0.30239  0.88444  1
 O  O3  1  0.51723  0.25569  0.52164  1
 O  O4  1  0.48277  0.74431  0.47836  1
 O  O5  1  0.13027  0.79272  0.79453  1
 O  O6  1  0.86973  0.20728  0.20547  1
 Sm  Sm1  1  0.61064  0.52880  0.76637  1
 Sm  Sm2  1  0.38936  0.47120  0.23363  1
 Sm  Sm3  1  -0.00000  -0.00000  0.50000  1
