CIF file written using JARVIS-Tools package.
data_TmB4
_symmetry_space_group_name_H-M  'P4/mbm'
_cell_length_a       7.04418
_cell_length_b       7.04418
_cell_length_c       3.98471
_cell_angle_alpha    90
_cell_angle_beta     90
_cell_angle_gamma    90

_symmetry_Int_Tables_number  127
_chemical_formula_structural  TmB4
_chemical_formula_sum  Tm4B6
_cell_volume  197.7230832546219
_cell_formula_units_Z  4
loop_
  _symmetry_equiv_pos_site_id
 _symmetry_equiv_pos_as_xyz
 1  'x, y, z'
loop_
 _atom_site_type_symbol
 _atom_site_label
 _atom_site_symmetry_multiplicity
 _atom_site_fract_x
 _atom_site_fract_y
 _atom_site_fract_z
 _atom_site_fract_occupancy
 B  B1  1  0.53857  0.32324  0.50000  1
 B  B2  1  0.08680  0.41320  0.50000  1
 B  B3  1  0.50000  0.50000  0.79768  1
 B  B4  1  0.96143  0.82324  0.50000  1
 B  B5  1  0.67676  0.53857  0.50000  1
 B  B6  1  0.50000  0.50000  0.20232  1
 B  B7  1  0.17676  0.96143  0.50000  1
 B  B8  1  0.32324  0.46143  0.50000  1
 B  B9  1  0.03857  0.17676  0.50000  1
 B  B10  1  0.00000  0.00000  0.79768  1
 B  B11  1  0.82324  0.03857  0.50000  1
 B  B12  1  0.58680  0.08680  0.50000  1
 B  B13  1  0.46143  0.67676  0.50000  1
 B  B14  1  0.41320  0.91320  0.50000  1
 B  B15  1  0.91320  0.58680  0.50000  1
 B  B16  1  0.00000  0.00000  0.20232  1
 Tm  Tm1  1  0.31913  0.18087  0.00000  1
 Tm  Tm2  1  0.68087  0.81913  0.00000  1
 Tm  Tm3  1  0.81913  0.31913  0.00000  1
 Tm  Tm4  1  0.18087  0.68087  0.00000  1
