CIF file written using JARVIS-Tools package.
data_Ti3AlSe2ClO8
_symmetry_space_group_name_H-M  'P1'
_cell_length_a       7.63618
_cell_length_b       9.01659
_cell_length_c       8.40897
_cell_angle_alpha    112.303
_cell_angle_beta     67.5795
_cell_angle_gamma    108.587

_symmetry_Int_Tables_number  1
_chemical_formula_structural  Ti3AlSe2ClO8
_chemical_formula_sum  Ti6Al2Se4Cl2O6
_cell_volume  484.8158963742998
_cell_formula_units_Z  2
loop_
  _symmetry_equiv_pos_site_id
 _symmetry_equiv_pos_as_xyz
 1  'x, y, z'
loop_
 _atom_site_type_symbol
 _atom_site_label
 _atom_site_symmetry_multiplicity
 _atom_site_fract_x
 _atom_site_fract_y
 _atom_site_fract_z
 _atom_site_fract_occupancy
 Al  Al1  1  0.29880  0.17031  0.18527  1
 Al  Al2  1  0.69498  0.85528  0.58016  1
 Cl  Cl1  1  0.41330  0.31108  0.71875  1
 Cl  Cl2  1  0.63566  0.64724  0.02168  1
 O  O1  1  0.19814  0.25164  0.42645  1
 O  O2  1  0.53024  0.27372  0.08726  1
 O  O3  1  0.21938  0.67274  0.94697  1
 O  O4  1  0.95778  0.27354  0.81390  1
 O  O5  1  0.33177  0.96673  0.14840  1
 O  O6  1  0.55083  0.83184  0.44564  1
 O  O7  1  0.94425  0.96203  0.54844  1
 O  O8  1  0.95098  0.87557  0.20957  1
 O  O9  1  0.11191  0.15462  0.09829  1
 O  O10  1  0.05721  0.84703  0.84986  1
 O  O11  1  0.28227  0.99999  0.48538  1
 O  O12  1  0.61306  0.05999  0.71572  1
 O  O13  1  0.24708  0.69138  0.26998  1
 O  O14  1  0.72025  0.09899  0.32249  1
 O  O15  1  0.72051  0.99509  0.97605  1
 O  O16  1  0.56907  0.74871  0.74020  1
 Se  Se1  1  0.10792  0.66013  0.79349  1
 Se  Se2  1  0.81670  0.58700  0.33094  1
 Se  Se3  1  0.90775  0.45922  0.47161  1
 Se  Se4  1  0.25295  0.57405  0.39005  1
 Ti  Ti1  1  0.13837  0.17428  0.61105  1
 Ti  Ti2  1  0.10808  0.85649  0.31763  1
 Ti  Ti3  1  0.70979  0.16786  0.91020  1
 Ti  Ti4  1  0.90214  0.99653  0.10346  1
 Ti  Ti5  1  0.52903  0.04091  0.50673  1
 Ti  Ti6  1  0.47982  0.79600  0.97438  1
