CIF file written using JARVIS-Tools package.
data_PbS
_symmetry_space_group_name_H-M  'I4/mmm'
_cell_length_a       4.24538
_cell_length_b       4.24538
_cell_length_c       5.93438
_cell_angle_alpha    89.9973
_cell_angle_beta     89.9973
_cell_angle_gamma    90

_symmetry_Int_Tables_number  139
_chemical_formula_structural  PbS
_chemical_formula_sum  Pb2S2
_cell_volume  106.95717787147034
_cell_formula_units_Z  2
loop_
  _symmetry_equiv_pos_site_id
 _symmetry_equiv_pos_as_xyz
 1  'x, y, z'
loop_
 _atom_site_type_symbol
 _atom_site_label
 _atom_site_symmetry_multiplicity
 _atom_site_fract_x
 _atom_site_fract_y
 _atom_site_fract_z
 _atom_site_fract_occupancy
 Pb  Pb1  1  0.24985  0.24985  0.75000  1
 Pb  Pb2  1  0.75015  0.75015  0.25000  1
 S  S1  1  0.74989  0.74989  0.74998  1
 S  S2  1  0.25011  0.25011  0.25002  1
