CIF file written using JARVIS-Tools package.
data_Te6Mo2W
_symmetry_space_group_name_H-M  'P-6m2'
_cell_length_a       3.56773
_cell_length_b       3.56776
_cell_length_c       30.8858
_cell_angle_alpha    90
_cell_angle_beta     90
_cell_angle_gamma    120

_symmetry_Int_Tables_number  187
_chemical_formula_structural  Te6Mo2W
_chemical_formula_sum  Te6Mo2W
_cell_volume  340.4697501784196
_cell_formula_units_Z  1
loop_
  _symmetry_equiv_pos_site_id
 _symmetry_equiv_pos_as_xyz
 1  'x, y, z'
loop_
 _atom_site_type_symbol
 _atom_site_label
 _atom_site_symmetry_multiplicity
 _atom_site_fract_x
 _atom_site_fract_y
 _atom_site_fract_z
 _atom_site_fract_occupancy
 Mo  Mo1  1  0.33333  0.66667  0.11607  1
 Mo  Mo2  1  0.33333  0.66667  0.57790  1
 Te  Te1  1  0.33331  0.66662  0.40587  1
 Te  Te2  1  0.66667  0.33333  0.05748  1
 Te  Te3  1  0.66667  0.33333  0.51920  1
 Te  Te4  1  0.66667  0.33333  0.17476  1
 Te  Te5  1  0.66667  0.33333  0.63649  1
 Te  Te6  1  0.33331  0.66662  0.28810  1
 W  W1  1  0.66664  0.33329  0.34698  1
