CIF file written using JARVIS-Tools package.
data_CaAu
_symmetry_space_group_name_H-M  'Cmcm'
_cell_length_a       3.94374
_cell_length_b       4.6137
_cell_length_c       5.86127
_cell_angle_alpha    90
_cell_angle_beta     109.659
_cell_angle_gamma    90

_symmetry_Int_Tables_number  63
_chemical_formula_structural  CaAu
_chemical_formula_sum  Ca2Au2
_cell_volume  100.4308484166266
_cell_formula_units_Z  2
loop_
  _symmetry_equiv_pos_site_id
 _symmetry_equiv_pos_as_xyz
 1  'x, y, z'
loop_
 _atom_site_type_symbol
 _atom_site_label
 _atom_site_symmetry_multiplicity
 _atom_site_fract_x
 _atom_site_fract_y
 _atom_site_fract_z
 _atom_site_fract_occupancy
 Au  Au1  1  0.58497  0.25000  0.16995  1
 Au  Au2  1  0.41503  0.75000  0.83005  1
 Ca  Ca1  1  0.86157  0.25000  0.72313  1
 Ca  Ca2  1  0.13843  0.75000  0.27687  1
