CIF file written using JARVIS-Tools package.
data_TiV2CrO10
_symmetry_space_group_name_H-M  'P-4m2'
_cell_length_a       6.62533
_cell_length_b       6.62533
_cell_length_c       4.158
_cell_angle_alpha    90
_cell_angle_beta     90
_cell_angle_gamma    90

_symmetry_Int_Tables_number  115
_chemical_formula_structural  TiV2CrO10
_chemical_formula_sum  TiV2CrO0
_cell_volume  182.51526766618952
_cell_formula_units_Z  1
loop_
  _symmetry_equiv_pos_site_id
 _symmetry_equiv_pos_as_xyz
 1  'x, y, z'
loop_
 _atom_site_type_symbol
 _atom_site_label
 _atom_site_symmetry_multiplicity
 _atom_site_fract_x
 _atom_site_fract_y
 _atom_site_fract_z
 _atom_site_fract_occupancy
 Cr  Cr1  1  0.25000  0.75000  0.50000  1
 O  O1  1  0.04548  0.75000  0.26998  1
 O  O2  1  0.25000  0.25000  0.25473  1
 O  O3  1  0.25000  0.54548  0.73002  1
 O  O4  1  0.25000  0.95452  0.73002  1
 O  O5  1  0.45452  0.75000  0.26998  1
 O  O6  1  0.51772  0.25000  0.74263  1
 O  O7  1  0.75000  0.01772  0.25737  1
 O  O8  1  0.75000  0.48228  0.25737  1
 O  O9  1  0.75000  0.75000  0.74527  1
 O  O10  1  0.98228  0.25000  0.74263  1
 Ti  Ti1  1  0.75000  0.25000  0.50000  1
 V  V1  1  0.25000  0.25000  0.64449  1
 V  V2  1  0.75000  0.75000  0.35551  1
