CIF file written using JARVIS-Tools package.
data_Na2CdCl4
_symmetry_space_group_name_H-M  'Pbam'
_cell_length_a       3.93822
_cell_length_b       7.01885
_cell_length_c       11.9283
_cell_angle_alpha    90
_cell_angle_beta     90
_cell_angle_gamma    90

_symmetry_Int_Tables_number  55
_chemical_formula_structural  Na2CdCl4
_chemical_formula_sum  Na4Cd2Cl8
_cell_volume  329.71926691363393
_cell_formula_units_Z  2
loop_
  _symmetry_equiv_pos_site_id
 _symmetry_equiv_pos_as_xyz
 1  'x, y, z'
loop_
 _atom_site_type_symbol
 _atom_site_label
 _atom_site_symmetry_multiplicity
 _atom_site_fract_x
 _atom_site_fract_y
 _atom_site_fract_z
 _atom_site_fract_occupancy
 Cd  Cd1  1  0.00000  0.50000  0.50000  1
 Cd  Cd2  1  0.00000  0.00000  0.00000  1
 Cl  Cl1  1  0.50000  0.75074  0.54354  1
 Cl  Cl2  1  0.50000  0.24926  0.45646  1
 Cl  Cl3  1  0.00000  0.12478  0.20577  1
 Cl  Cl4  1  0.00000  0.87522  0.79423  1
 Cl  Cl5  1  0.00000  0.62478  0.29423  1
 Cl  Cl6  1  0.00000  0.37522  0.70577  1
 Cl  Cl7  1  0.50000  0.25074  0.95646  1
 Cl  Cl8  1  0.50000  0.74926  0.04354  1
 Na  Na1  1  0.50000  0.08977  0.68198  1
 Na  Na2  1  0.50000  0.91023  0.31802  1
 Na  Na3  1  0.50000  0.41023  0.18198  1
 Na  Na4  1  0.50000  0.58977  0.81802  1
