CIF file written using JARVIS-Tools package.
data_MgCO3
_symmetry_space_group_name_H-M  'R-3c'
_cell_length_a       5.66833
_cell_length_b       5.66833
_cell_length_c       5.66833
_cell_angle_alpha    48.6687
_cell_angle_beta     48.6687
_cell_angle_gamma    48.6688

_symmetry_Int_Tables_number  167
_chemical_formula_structural  MgCO3
_chemical_formula_sum  Mg2C2O6
_cell_volume  94.21924147928053
_cell_formula_units_Z  2
loop_
  _symmetry_equiv_pos_site_id
 _symmetry_equiv_pos_as_xyz
 1  'x, y, z'
loop_
 _atom_site_type_symbol
 _atom_site_label
 _atom_site_symmetry_multiplicity
 _atom_site_fract_x
 _atom_site_fract_y
 _atom_site_fract_z
 _atom_site_fract_occupancy
 C  C1  1  0.75000  0.75000  0.75000  1
 C  C2  1  0.25000  0.25000  0.25000  1
 Mg  Mg1  1  0.50000  0.50000  0.50000  1
 Mg  Mg2  1  0.00000  0.00000  0.00000  1
 O  O1  1  0.75000  0.47284  0.02716  1
 O  O2  1  0.02716  0.75000  0.47284  1
 O  O3  1  0.52716  0.97284  0.25000  1
 O  O4  1  0.25000  0.52716  0.97284  1
 O  O5  1  0.97284  0.25000  0.52716  1
 O  O6  1  0.47284  0.02716  0.75000  1
