CIF file written using JARVIS-Tools package.
data_Li2MnFeB2O6
_symmetry_space_group_name_H-M  'P-1'
_cell_length_a       5.19648
_cell_length_b       5.97155
_cell_length_c       7.84014
_cell_angle_alpha    100.223
_cell_angle_beta     89.2186
_cell_angle_gamma    91.6188

_symmetry_Int_Tables_number  2
_chemical_formula_structural  Li2MnFeB2O6
_chemical_formula_sum  Li4Mn2Fe2B4O2
_cell_volume  239.3207782252776
_cell_formula_units_Z  2
loop_
  _symmetry_equiv_pos_site_id
 _symmetry_equiv_pos_as_xyz
 1  'x, y, z'
loop_
 _atom_site_type_symbol
 _atom_site_label
 _atom_site_symmetry_multiplicity
 _atom_site_fract_x
 _atom_site_fract_y
 _atom_site_fract_z
 _atom_site_fract_occupancy
 B  B1  1  0.07295  0.41540  0.17086  1
 B  B2  1  0.92705  0.58460  0.82914  1
 B  B3  1  0.58164  0.93109  0.66468  1
 B  B4  1  0.41836  0.06891  0.33532  1
 Fe  Fe1  1  0.43507  0.43811  0.64618  1
 Fe  Fe2  1  0.56493  0.56189  0.35382  1
 Li  Li1  1  0.40658  0.70159  0.01815  1
 Li  Li2  1  0.08587  0.78804  0.48076  1
 Li  Li3  1  0.91413  0.21196  0.51924  1
 Li  Li4  1  0.59342  0.29841  0.98185  1
 Mn  Mn1  1  0.08381  0.07923  0.83156  1
 Mn  Mn2  1  0.91619  0.92077  0.16844  1
 O  O1  1  0.15718  0.06258  0.36331  1
 O  O2  1  0.57218  0.23897  0.43574  1
 O  O3  1  0.05811  0.42801  0.70804  1
 O  O4  1  0.46486  0.09427  0.78517  1
 O  O5  1  0.93307  0.24419  0.06344  1
 O  O6  1  0.94189  0.57199  0.29196  1
 O  O7  1  0.42782  0.76103  0.56426  1
 O  O8  1  0.66266  0.56407  0.84944  1
 O  O9  1  0.06693  0.75581  0.93656  1
 O  O10  1  0.53514  0.90573  0.21483  1
 O  O11  1  0.33734  0.43593  0.15056  1
 O  O12  1  0.84282  0.93742  0.63669  1
