CIF file written using JARVIS-Tools package.
data_UH2O4
_symmetry_space_group_name_H-M  'Cmce'
_cell_length_a       5.53866
_cell_length_b       5.53866
_cell_length_c       6.84948
_cell_angle_alpha    90
_cell_angle_beta     90
_cell_angle_gamma    44.7933

_symmetry_Int_Tables_number  64
_chemical_formula_structural  UH2O4
_chemical_formula_sum  U2H4O8
_cell_volume  148.04026278436496
_cell_formula_units_Z  2
loop_
  _symmetry_equiv_pos_site_id
 _symmetry_equiv_pos_as_xyz
 1  'x, y, z'
loop_
 _atom_site_type_symbol
 _atom_site_label
 _atom_site_symmetry_multiplicity
 _atom_site_fract_x
 _atom_site_fract_y
 _atom_site_fract_z
 _atom_site_fract_occupancy
 H  H1  1  0.83111  0.83111  0.35911  1
 H  H2  1  0.66889  0.66889  0.85911  1
 H  H3  1  0.16876  0.16876  0.64599  1
 H  H4  1  0.33124  0.33124  0.14599  1
 O  O1  1  0.33496  0.33496  0.60407  1
 O  O2  1  0.66489  0.66489  0.40121  1
 O  O3  1  0.16504  0.16504  0.10407  1
 O  O4  1  0.83511  0.83511  0.90121  1
 O  O5  1  0.07122  0.07122  0.65264  1
 O  O6  1  0.92865  0.92865  0.35258  1
 O  O7  1  0.42878  0.42878  0.15264  1
 O  O8  1  0.57135  0.57135  0.85258  1
 U  U1  1  0.49993  0.49993  0.50263  1
 U  U2  1  0.00007  0.00007  0.00263  1
