CIF file written using JARVIS-Tools package.
data_AlNi2O4
_symmetry_space_group_name_H-M  'Fd-3m'
_cell_length_a       5.76385
_cell_length_b       5.76385
_cell_length_c       5.76385
_cell_angle_alpha    60.0086
_cell_angle_beta     60.0087
_cell_angle_gamma    60.0086

_symmetry_Int_Tables_number  227
_chemical_formula_structural  AlNi2O4
_chemical_formula_sum  Al2Ni4O8
_cell_volume  135.42769505302073
_cell_formula_units_Z  2
loop_
  _symmetry_equiv_pos_site_id
 _symmetry_equiv_pos_as_xyz
 1  'x, y, z'
loop_
 _atom_site_type_symbol
 _atom_site_label
 _atom_site_symmetry_multiplicity
 _atom_site_fract_x
 _atom_site_fract_y
 _atom_site_fract_z
 _atom_site_fract_occupancy
 Al  Al1  1  0.62500  0.62500  0.62500  1
 Al  Al2  1  0.37500  0.37500  0.37500  1
 Ni  Ni1  1  0.00000  0.50000  0.00000  1
 Ni  Ni2  1  0.00000  0.00000  0.00000  1
 Ni  Ni3  1  0.50000  -0.00000  0.00000  1
 Ni  Ni4  1  0.00000  -0.00000  0.50000  1
 O  O1  1  0.23986  0.75338  0.75338  1
 O  O2  1  0.24662  0.24662  0.76014  1
 O  O3  1  0.24662  0.76014  0.24662  1
 O  O4  1  0.24660  0.24660  0.24660  1
 O  O5  1  0.75338  0.75338  0.23986  1
 O  O6  1  0.76014  0.24662  0.24662  1
 O  O7  1  0.75338  0.23986  0.75338  1
 O  O8  1  0.75340  0.75340  0.75340  1
