CIF file written using JARVIS-Tools package.
data_Sr2NdBiO6
_symmetry_space_group_name_H-M  'P2_1/c'
_cell_length_a       6.00352
_cell_length_b       6.19403
_cell_length_c       10.4606
_cell_angle_alpha    90
_cell_angle_beta     124.776
_cell_angle_gamma    90

_symmetry_Int_Tables_number  14
_chemical_formula_structural  Sr2NdBiO6
_chemical_formula_sum  Sr4Nd2Bi2O2
_cell_volume  319.50794389119966
_cell_formula_units_Z  2
loop_
  _symmetry_equiv_pos_site_id
 _symmetry_equiv_pos_as_xyz
 1  'x, y, z'
loop_
 _atom_site_type_symbol
 _atom_site_label
 _atom_site_symmetry_multiplicity
 _atom_site_fract_x
 _atom_site_fract_y
 _atom_site_fract_z
 _atom_site_fract_occupancy
 Bi  Bi1  1  -0.00000  0.50000  0.50000  1
 Bi  Bi2  1  0.00000  0.00000  0.00000  1
 Nd  Nd1  1  0.50000  0.50000  -0.00000  1
 Nd  Nd2  1  0.50000  0.00000  0.50000  1
 O  O1  1  0.34494  0.54460  0.73753  1
 O  O2  1  0.23434  0.19221  0.94581  1
 O  O3  1  0.65506  0.45540  0.26247  1
 O  O4  1  0.76566  0.80779  0.05419  1
 O  O5  1  0.23434  0.30779  0.44581  1
 O  O6  1  0.76566  0.69221  0.55419  1
 O  O7  1  0.87319  0.21318  0.55994  1
 O  O8  1  0.34494  0.95540  0.23753  1
 O  O9  1  0.12681  0.78682  0.44006  1
 O  O10  1  0.12681  0.71318  0.94006  1
 O  O11  1  0.65506  0.04460  0.76247  1
 O  O12  1  0.87319  0.28682  0.05994  1
 Sr  Sr1  1  0.76350  0.44988  0.74945  1
 Sr  Sr2  1  0.23650  0.94988  0.75055  1
 Sr  Sr3  1  0.23650  0.55012  0.25055  1
 Sr  Sr4  1  0.76350  0.05012  0.24945  1
