CIF file written using JARVIS-Tools package.
data_NbS2
_symmetry_space_group_name_H-M  'P-6m2'
_cell_length_a       3.36077
_cell_length_b       3.36296
_cell_length_c       14.8694
_cell_angle_alpha    90
_cell_angle_beta     90
_cell_angle_gamma    119.978

_symmetry_Int_Tables_number  187
_chemical_formula_structural  NbS2
_chemical_formula_sum  NbS2
_cell_volume  145.5718837306025
_cell_formula_units_Z  1
loop_
  _symmetry_equiv_pos_site_id
 _symmetry_equiv_pos_as_xyz
 1  'x, y, z'
loop_
 _atom_site_type_symbol
 _atom_site_label
 _atom_site_symmetry_multiplicity
 _atom_site_fract_x
 _atom_site_fract_y
 _atom_site_fract_z
 _atom_site_fract_occupancy
 Nb  Nb1  1  0.91992  0.83983  0.50000  1
 S  S1  1  0.25314  0.50628  0.60567  1
 S  S2  1  0.25314  0.50628  0.39433  1
