CIF file written using JARVIS-Tools package.
data_Si2O
_symmetry_space_group_name_H-M  'Cm'
_cell_length_a       3.87802
_cell_length_b       2.87338
_cell_length_c       4.66433
_cell_angle_alpha    90
_cell_angle_beta     114.239
_cell_angle_gamma    111.745

_symmetry_Int_Tables_number  8
_chemical_formula_structural  Si2O
_chemical_formula_sum  Si2O
_cell_volume  43.305132089504106
_cell_formula_units_Z  1
loop_
  _symmetry_equiv_pos_site_id
 _symmetry_equiv_pos_as_xyz
 1  'x, y, z'
loop_
 _atom_site_type_symbol
 _atom_site_label
 _atom_site_symmetry_multiplicity
 _atom_site_fract_x
 _atom_site_fract_y
 _atom_site_fract_z
 _atom_site_fract_occupancy
 O  O1  1  0.53618  0.26809  0.51306  1
 Si  Si1  1  0.70351  0.35176  0.93281  1
 Si  Si2  1  0.42691  0.71346  0.21414  1
