CIF file written using JARVIS-Tools package.
data_ZnSi2NiO6
_symmetry_space_group_name_H-M  'C2/c'
_cell_length_a       5.3087
_cell_length_b       6.64986
_cell_length_c       6.64986
_cell_angle_alpha    85.939
_cell_angle_beta     75.3104
_cell_angle_gamma    75.3103

_symmetry_Int_Tables_number  15
_chemical_formula_structural  ZnSi2NiO6
_chemical_formula_sum  Zn2Si4Ni2O2
_cell_volume  219.65277991665604
_cell_formula_units_Z  2
loop_
  _symmetry_equiv_pos_site_id
 _symmetry_equiv_pos_as_xyz
 1  'x, y, z'
loop_
 _atom_site_type_symbol
 _atom_site_label
 _atom_site_symmetry_multiplicity
 _atom_site_fract_x
 _atom_site_fract_y
 _atom_site_fract_z
 _atom_site_fract_occupancy
 Ni  Ni1  1  0.25000  0.09637  0.90363  1
 Ni  Ni2  1  0.75000  0.90363  0.09637  1
 O  O1  1  0.85410  0.20547  0.03942  1
 O  O2  1  0.48545  0.32688  0.38914  1
 O  O3  1  0.35410  0.03942  0.20547  1
 O  O4  1  0.51455  0.67312  0.61086  1
 O  O5  1  0.98545  0.38914  0.32688  1
 O  O6  1  0.01455  0.61086  0.67312  1
 O  O7  1  0.37186  0.37638  0.86561  1
 O  O8  1  0.87186  0.86562  0.37639  1
 O  O9  1  0.14590  0.79453  0.96058  1
 O  O10  1  0.12814  0.13438  0.62361  1
 O  O11  1  0.64590  0.96058  0.79453  1
 O  O12  1  0.62814  0.62361  0.13439  1
 Si  Si1  1  0.76002  0.78258  0.61067  1
 Si  Si2  1  0.73998  0.38933  0.21742  1
 Si  Si3  1  0.26002  0.61067  0.78258  1
 Si  Si4  1  0.23998  0.21742  0.38933  1
 Zn  Zn1  1  0.25000  0.76061  0.23939  1
 Zn  Zn2  1  0.75000  0.23939  0.76061  1
