CIF file written using JARVIS-Tools package.
data_HfAu
_symmetry_space_group_name_H-M  'P4/nmm'
_cell_length_a       3.50355
_cell_length_b       3.50355
_cell_length_c       6.32951
_cell_angle_alpha    90
_cell_angle_beta     90
_cell_angle_gamma    90

_symmetry_Int_Tables_number  129
_chemical_formula_structural  HfAu
_chemical_formula_sum  Hf2Au2
_cell_volume  77.69361757121683
_cell_formula_units_Z  2
loop_
  _symmetry_equiv_pos_site_id
 _symmetry_equiv_pos_as_xyz
 1  'x, y, z'
loop_
 _atom_site_type_symbol
 _atom_site_label
 _atom_site_symmetry_multiplicity
 _atom_site_fract_x
 _atom_site_fract_y
 _atom_site_fract_z
 _atom_site_fract_occupancy
 Au  Au1  1  0.50000  0.00000  0.36913  1
 Au  Au2  1  0.00000  0.50000  0.63087  1
 Hf  Hf1  1  0.50000  0.00000  0.85239  1
 Hf  Hf2  1  0.00000  0.50000  0.14761  1
