CIF file written using JARVIS-Tools package.
data_NiS
_symmetry_space_group_name_H-M  'P6_3/mmc'
_cell_length_a       5.22589
_cell_length_b       3.45372
_cell_length_c       3.45372
_cell_angle_alpha    60
_cell_angle_beta     90
_cell_angle_gamma    90

_symmetry_Int_Tables_number  194
_chemical_formula_structural  NiS
_chemical_formula_sum  Ni2S2
_cell_volume  53.983970648454715
_cell_formula_units_Z  2
loop_
  _symmetry_equiv_pos_site_id
 _symmetry_equiv_pos_as_xyz
 1  'x, y, z'
loop_
 _atom_site_type_symbol
 _atom_site_label
 _atom_site_symmetry_multiplicity
 _atom_site_fract_x
 _atom_site_fract_y
 _atom_site_fract_z
 _atom_site_fract_occupancy
 Ni  Ni1  1  0.00000  0.00000  0.00000  1
 Ni  Ni2  1  0.50000  0.00000  0.00000  1
 S  S1  1  0.75000  0.66667  0.66667  1
 S  S2  1  0.25000  0.33333  0.33333  1
