CIF file written using JARVIS-Tools package.
data_MnAgO3
_symmetry_space_group_name_H-M  'R-3'
_cell_length_a       5.02081
_cell_length_b       5.02103
_cell_length_c       5.95238
_cell_angle_alpha    65.0481
_cell_angle_beta     65.065
_cell_angle_gamma    60.002

_symmetry_Int_Tables_number  148
_chemical_formula_structural  MnAgO3
_chemical_formula_sum  Mn2Ag2O6
_cell_volume  113.50611408061997
_cell_formula_units_Z  2
loop_
  _symmetry_equiv_pos_site_id
 _symmetry_equiv_pos_as_xyz
 1  'x, y, z'
loop_
 _atom_site_type_symbol
 _atom_site_label
 _atom_site_symmetry_multiplicity
 _atom_site_fract_x
 _atom_site_fract_y
 _atom_site_fract_z
 _atom_site_fract_occupancy
 Ag  Ag1  1  0.86199  0.86184  0.41421  1
 Ag  Ag2  1  0.13801  0.13816  0.58579  1
 Mn  Mn1  1  0.66020  0.66021  0.01939  1
 Mn  Mn2  1  0.33980  0.33979  0.98061  1
 O  O1  1  0.93932  0.31482  0.20332  1
 O  O2  1  0.45736  0.06080  0.79670  1
 O  O3  1  0.68506  0.45749  0.79670  1
 O  O4  1  0.31494  0.54251  0.20330  1
 O  O5  1  0.54264  0.93920  0.20330  1
 O  O6  1  0.06068  0.68518  0.79668  1
