CIF file written using JARVIS-Tools package.
data_MgMnO2
_symmetry_space_group_name_H-M  'R-3m'
_cell_length_a       2.93483
_cell_length_b       2.92637
_cell_length_c       5.09815
_cell_angle_alpha    73.3221
_cell_angle_beta     73.1797
_cell_angle_gamma    60.0949

_symmetry_Int_Tables_number  166
_chemical_formula_structural  MgMnO2
_chemical_formula_sum  MgMnO2
_cell_volume  35.789727237185836
_cell_formula_units_Z  1
loop_
  _symmetry_equiv_pos_site_id
 _symmetry_equiv_pos_as_xyz
 1  'x, y, z'
loop_
 _atom_site_type_symbol
 _atom_site_label
 _atom_site_symmetry_multiplicity
 _atom_site_fract_x
 _atom_site_fract_y
 _atom_site_fract_z
 _atom_site_fract_occupancy
 Mg  Mg1  1  0.50000  0.50000  0.50000  1
 Mn  Mn1  1  0.00000  0.00000  1.00000  1
 O  O1  1  0.25060  0.24890  0.25161  1
 O  O2  1  0.74940  0.75111  0.74838  1
