CIF file written using JARVIS-Tools package.
data_Ba4Cl6O
_symmetry_space_group_name_H-M  'P6_3mc'
_cell_length_a       10.0571
_cell_length_b       10.0571
_cell_length_c       7.533
_cell_angle_alpha    90
_cell_angle_beta     90
_cell_angle_gamma    120

_symmetry_Int_Tables_number  186
_chemical_formula_structural  Ba4Cl6O
_chemical_formula_sum  Ba8Cl2O2
_cell_volume  659.8506573563279
_cell_formula_units_Z  2
loop_
  _symmetry_equiv_pos_site_id
 _symmetry_equiv_pos_as_xyz
 1  'x, y, z'
loop_
 _atom_site_type_symbol
 _atom_site_label
 _atom_site_symmetry_multiplicity
 _atom_site_fract_x
 _atom_site_fract_y
 _atom_site_fract_z
 _atom_site_fract_occupancy
 Ba  Ba1  1  0.66667  0.33333  0.06817  1
 Ba  Ba2  1  0.33333  0.66667  0.56817  1
 Ba  Ba3  1  0.38982  0.19491  0.50671  1
 Ba  Ba4  1  0.19491  0.80509  0.00671  1
 Ba  Ba5  1  0.19491  0.38982  0.00671  1
 Ba  Ba6  1  0.80509  0.61018  0.50671  1
 Ba  Ba7  1  0.80509  0.19491  0.50671  1
 Ba  Ba8  1  0.61018  0.80509  0.00671  1
 Cl  Cl1  1  0.47141  0.52859  0.29043  1
 Cl  Cl2  1  0.52859  0.47141  0.79043  1
 Cl  Cl3  1  0.47141  0.94281  0.29043  1
 Cl  Cl4  1  0.94281  0.47141  0.79043  1
 Cl  Cl5  1  0.52859  0.05719  0.79043  1
 Cl  Cl6  1  0.05719  0.52859  0.29043  1
 Cl  Cl7  1  0.14480  0.28960  0.60391  1
 Cl  Cl8  1  0.85520  0.14480  0.10391  1
 Cl  Cl9  1  0.85520  0.71040  0.10391  1
 Cl  Cl10  1  0.14480  0.85520  0.60391  1
 Cl  Cl11  1  0.28960  0.14480  0.10391  1
 Cl  Cl12  1  0.71040  0.85520  0.60391  1
 O  O1  1  0.66667  0.33333  0.40359  1
 O  O2  1  0.33333  0.66667  0.90359  1
