CIF file written using JARVIS-Tools package.
data_CrBiO4
_symmetry_space_group_name_H-M  'P2_1/c'
_cell_length_a       6.89672
_cell_length_b       7.23503
_cell_length_c       6.82213
_cell_angle_alpha    90
_cell_angle_beta     105.294
_cell_angle_gamma    90

_symmetry_Int_Tables_number  14
_chemical_formula_structural  CrBiO4
_chemical_formula_sum  Cr4Bi4O6
_cell_volume  328.353905519712
_cell_formula_units_Z  4
loop_
  _symmetry_equiv_pos_site_id
 _symmetry_equiv_pos_as_xyz
 1  'x, y, z'
loop_
 _atom_site_type_symbol
 _atom_site_label
 _atom_site_symmetry_multiplicity
 _atom_site_fract_x
 _atom_site_fract_y
 _atom_site_fract_z
 _atom_site_fract_occupancy
 Bi  Bi1  1  0.21382  0.14473  0.42412  1
 Bi  Bi2  1  0.28618  0.64473  0.07588  1
 Bi  Bi3  1  0.71382  0.35527  0.92412  1
 Bi  Bi4  1  0.78618  0.85527  0.57588  1
 Cr  Cr1  1  0.20201  0.16266  0.89274  1
 Cr  Cr2  1  0.29799  0.66266  0.60726  1
 Cr  Cr3  1  0.70201  0.33734  0.39274  1
 Cr  Cr4  1  0.79799  0.83734  0.10726  1
 O  O1  1  0.02966  0.10235  0.66427  1
 O  O2  1  0.11287  0.35374  0.98004  1
 O  O3  1  0.10894  0.71005  0.72459  1
 O  O4  1  0.88713  0.64626  0.01996  1
 O  O5  1  0.39106  0.21005  0.77541  1
 O  O6  1  0.24579  0.99315  0.06919  1
 O  O7  1  0.25421  0.49315  0.43081  1
 O  O8  1  0.75421  0.00685  0.93081  1
 O  O9  1  0.52966  0.39765  0.16427  1
 O  O10  1  0.61287  0.14626  0.48004  1
 O  O11  1  0.38713  0.85374  0.51996  1
 O  O12  1  0.60894  0.78995  0.22459  1
 O  O13  1  0.74579  0.50685  0.56919  1
 O  O14  1  0.89106  0.28995  0.27541  1
 O  O15  1  0.47034  0.60235  0.83573  1
 O  O16  1  0.97034  0.89765  0.33573  1
