CIF file written using JARVIS-Tools package.
data_Mn2ZnO4
_symmetry_space_group_name_H-M  'I4_1/amd'
_cell_length_a       5.75375
_cell_length_b       5.75375
_cell_length_c       6.19766
_cell_angle_alpha    117.658
_cell_angle_beta     117.658
_cell_angle_gamma    90

_symmetry_Int_Tables_number  141
_chemical_formula_structural  Mn2ZnO4
_chemical_formula_sum  Mn4Zn2O8
_cell_volume  154.77746545434806
_cell_formula_units_Z  2
loop_
  _symmetry_equiv_pos_site_id
 _symmetry_equiv_pos_as_xyz
 1  'x, y, z'
loop_
 _atom_site_type_symbol
 _atom_site_label
 _atom_site_symmetry_multiplicity
 _atom_site_fract_x
 _atom_site_fract_y
 _atom_site_fract_z
 _atom_site_fract_occupancy
 Mn  Mn1  1  0.00000  -0.00000  0.50000  1
 Mn  Mn2  1  -0.00000  0.50000  -0.00000  1
 Mn  Mn3  1  0.50000  -0.00000  0.50000  1
 Mn  Mn4  1  0.00000  0.00000  0.00000  1
 O  O1  1  0.75481  0.77935  0.50963  1
 O  O2  1  0.76972  0.24519  0.99037  1
 O  O3  1  0.22065  0.24519  0.99037  1
 O  O4  1  0.24519  0.22065  0.49037  1
 O  O5  1  0.24519  0.76972  0.49037  1
 O  O6  1  0.23028  0.75481  0.00963  1
 O  O7  1  0.75481  0.23028  0.50963  1
 O  O8  1  0.77935  0.75481  0.00963  1
 Zn  Zn1  1  0.37500  0.62500  0.75000  1
 Zn  Zn2  1  0.62500  0.37500  0.25000  1
