CIF file written using JARVIS-Tools package.
data_UGeO4
_symmetry_space_group_name_H-M  'I4_1/a'
_cell_length_a       5.13914
_cell_length_b       5.13919
_cell_length_c       6.65655
_cell_angle_alpha    112.705
_cell_angle_beta     112.707
_cell_angle_gamma    89.9998

_symmetry_Int_Tables_number  88
_chemical_formula_structural  UGeO4
_chemical_formula_sum  U2Ge2O8
_cell_volume  147.30092206962115
_cell_formula_units_Z  2
loop_
  _symmetry_equiv_pos_site_id
 _symmetry_equiv_pos_as_xyz
 1  'x, y, z'
loop_
 _atom_site_type_symbol
 _atom_site_label
 _atom_site_symmetry_multiplicity
 _atom_site_fract_x
 _atom_site_fract_y
 _atom_site_fract_z
 _atom_site_fract_occupancy
 Ge  Ge1  1  0.87500  0.62499  0.75000  1
 Ge  Ge2  1  0.12500  0.37501  0.25000  1
 O  O1  1  0.30127  0.45265  0.08725  1
 O  O2  1  0.63460  0.80127  0.58726  1
 O  O3  1  0.95265  0.28599  0.58725  1
 O  O4  1  0.78598  0.13460  0.08725  1
 O  O5  1  0.21402  0.86540  0.91275  1
 O  O6  1  0.04735  0.71401  0.41275  1
 O  O7  1  0.36540  0.19873  0.41274  1
 O  O8  1  0.69873  0.54735  0.91275  1
 U  U1  1  0.37500  0.12500  0.75000  1
 U  U2  1  0.62500  0.87500  0.25000  1
