CIF file written using JARVIS-Tools package.
data_Sm2Mg
_symmetry_space_group_name_H-M  'I4/mmm'
_cell_length_a       3.6119
_cell_length_b       3.61185
_cell_length_c       7.2863
_cell_angle_alpha    104.351
_cell_angle_beta     104.35
_cell_angle_gamma    90.001

_symmetry_Int_Tables_number  139
_chemical_formula_structural  Sm2Mg
_chemical_formula_sum  Sm2Mg
_cell_volume  89.02366721897087
_cell_formula_units_Z  1
loop_
  _symmetry_equiv_pos_site_id
 _symmetry_equiv_pos_as_xyz
 1  'x, y, z'
loop_
 _atom_site_type_symbol
 _atom_site_label
 _atom_site_symmetry_multiplicity
 _atom_site_fract_x
 _atom_site_fract_y
 _atom_site_fract_z
 _atom_site_fract_occupancy
 Mg  Mg1  1  0.69445  0.77778  0.38888  1
 Sm  Sm1  1  0.35538  0.43867  0.71078  1
 Sm  Sm2  1  0.03350  0.11688  0.06701  1
