data_image0
_chemical_formula_structural       Cl4K2O2Os
_chemical_formula_sum              "Cl4 K2 O2 Os1"
_cell_length_a       6.62692
_cell_length_b       6.62692
_cell_length_c       6.62692
_cell_angle_alpha    97.3427
_cell_angle_beta     115.855
_cell_angle_gamma    115.855

_space_group_name_H-M_alt    "P 1"
_space_group_IT_number       1

loop_
  _space_group_symop_operation_xyz
  'x, y, z'

loop_
  _atom_site_type_symbol
  _atom_site_label
  _atom_site_symmetry_multiplicity
  _atom_site_fract_x
  _atom_site_fract_y
  _atom_site_fract_z
  _atom_site_occupancy
  Cl  Cl1       1.0  0.00000  0.75800  0.24200  1.0000
  Cl  Cl2       1.0  0.48400  0.24200  0.24200  1.0000
  Cl  Cl3       1.0  0.00000  0.24200  0.75800  1.0000
  Cl  Cl4       1.0  0.51600  0.75800  0.75800  1.0000
  K   K1        1.0  0.50000  0.75000  0.25000  1.0000
  K   K2        1.0  0.50000  0.25000  0.75000  1.0000
  O   O1        1.0  0.00000  0.20100  0.20100  1.0000
  O   O2        1.0  1.00000  0.79900  0.79900  1.0000
  Os  Os1       1.0  0.00000  0.00000  0.00000  1.0000
