CIF file written using JARVIS-Tools package.
data_HC
_symmetry_space_group_name_H-M  'P-3m1'
_cell_length_a       2.53648
_cell_length_b       2.53648
_cell_length_c       4.63247
_cell_angle_alpha    90
_cell_angle_beta     90
_cell_angle_gamma    120

_symmetry_Int_Tables_number  164
_chemical_formula_structural  HC
_chemical_formula_sum  H2C2
_cell_volume  25.811075818345902
_cell_formula_units_Z  2
loop_
  _symmetry_equiv_pos_site_id
 _symmetry_equiv_pos_as_xyz
 1  'x, y, z'
loop_
 _atom_site_type_symbol
 _atom_site_label
 _atom_site_symmetry_multiplicity
 _atom_site_fract_x
 _atom_site_fract_y
 _atom_site_fract_z
 _atom_site_fract_occupancy
 C  C1  1  0.66667  0.33333  0.45032  1
 C  C2  1  0.33333  0.66667  0.54968  1
 H  H1  1  0.66667  0.33333  0.20990  1
 H  H2  1  0.33333  0.66667  0.79010  1
