CIF file written using JARVIS-Tools package.
data_Na2Be2O3
_symmetry_space_group_name_H-M  'P2_1/c'
_cell_length_a       4.93861
_cell_length_b       5.25694
_cell_length_c       5.35726
_cell_angle_alpha    90
_cell_angle_beta     113.298
_cell_angle_gamma    90

_symmetry_Int_Tables_number  14
_chemical_formula_structural  Na2Be2O3
_chemical_formula_sum  Na4Be4O6
_cell_volume  127.74469257755206
_cell_formula_units_Z  2
loop_
  _symmetry_equiv_pos_site_id
 _symmetry_equiv_pos_as_xyz
 1  'x, y, z'
loop_
 _atom_site_type_symbol
 _atom_site_label
 _atom_site_symmetry_multiplicity
 _atom_site_fract_x
 _atom_site_fract_y
 _atom_site_fract_z
 _atom_site_fract_occupancy
 Be  Be1  1  0.66854  0.60240  0.42878  1
 Be  Be2  1  0.33146  0.10240  0.07122  1
 Be  Be3  1  0.66854  0.89760  0.92878  1
 Be  Be4  1  0.33146  0.39760  0.57122  1
 Na  Na1  1  0.81235  0.37498  0.07167  1
 Na  Na2  1  0.81235  0.12502  0.57167  1
 Na  Na3  1  0.18765  0.87498  0.42833  1
 Na  Na4  1  0.18765  0.62502  0.92833  1
 O  O1  1  -0.00000  0.50000  0.50000  1
 O  O2  1  0.00000  0.00000  0.00000  1
 O  O3  1  0.58884  0.85279  0.20761  1
 O  O4  1  0.41116  0.35279  0.29239  1
 O  O5  1  0.58884  0.64721  0.70761  1
 O  O6  1  0.41116  0.14721  0.79239  1
