CIF file written using JARVIS-Tools package.
data_Na2ZnSiO4
_symmetry_space_group_name_H-M  'Pc'
_cell_length_a       5.29209
_cell_length_b       5.50301
_cell_length_c       8.77788
_cell_angle_alpha    90
_cell_angle_beta     126.852
_cell_angle_gamma    90

_symmetry_Int_Tables_number  7
_chemical_formula_structural  Na2ZnSiO4
_chemical_formula_sum  Na4Zn2Si2O8
_cell_volume  204.5549238209118
_cell_formula_units_Z  2
loop_
  _symmetry_equiv_pos_site_id
 _symmetry_equiv_pos_as_xyz
 1  'x, y, z'
loop_
 _atom_site_type_symbol
 _atom_site_label
 _atom_site_symmetry_multiplicity
 _atom_site_fract_x
 _atom_site_fract_y
 _atom_site_fract_z
 _atom_site_fract_occupancy
 Na  Na1  1  0.73496  0.67702  0.74710  1
 Na  Na2  1  0.48429  0.81713  0.99209  1
 Na  Na3  1  0.73496  0.32298  0.24710  1
 Na  Na4  1  0.48429  0.18287  0.49209  1
 O  O1  1  0.30805  0.20809  0.94047  1
 O  O2  1  0.30805  0.79191  0.44047  1
 O  O3  1  0.97345  0.15969  0.55198  1
 O  O4  1  0.97345  0.84031  0.05198  1
 O  O5  1  0.58480  0.29147  0.77092  1
 O  O6  1  0.14270  0.39719  0.21901  1
 O  O7  1  0.14270  0.60281  0.71901  1
 O  O8  1  0.58480  0.70853  0.27092  1
 Si  Si1  1  0.24948  0.68656  0.24528  1
 Si  Si2  1  0.24948  0.31344  0.74528  1
 Zn  Zn1  1  0.99817  0.81282  0.49765  1
 Zn  Zn2  1  0.99817  0.18718  0.99765  1
