CIF file written using JARVIS-Tools package.
data_LuSeClO3
_symmetry_space_group_name_H-M  'Pnma'
_cell_length_a       6.80404
_cell_length_b       7.0517
_cell_length_c       8.6988
_cell_angle_alpha    90
_cell_angle_beta     90
_cell_angle_gamma    90

_symmetry_Int_Tables_number  62
_chemical_formula_structural  LuSeClO3
_chemical_formula_sum  Lu4Se4Cl4O2
_cell_volume  417.3692725058554
_cell_formula_units_Z  4
loop_
  _symmetry_equiv_pos_site_id
 _symmetry_equiv_pos_as_xyz
 1  'x, y, z'
loop_
 _atom_site_type_symbol
 _atom_site_label
 _atom_site_symmetry_multiplicity
 _atom_site_fract_x
 _atom_site_fract_y
 _atom_site_fract_z
 _atom_site_fract_occupancy
 Cl  Cl1  1  0.75000  0.55717  0.31772  1
 Cl  Cl2  1  0.25000  0.94283  0.81772  1
 Cl  Cl3  1  0.25000  0.44283  0.68228  1
 Cl  Cl4  1  0.75000  0.05717  0.18228  1
 Lu  Lu1  1  0.25000  0.59961  0.96096  1
 Lu  Lu2  1  0.75000  0.90039  0.46096  1
 Lu  Lu3  1  0.25000  0.09961  0.53904  1
 Lu  Lu4  1  0.75000  0.40039  0.03904  1
 O  O1  1  0.42993  0.85481  0.43511  1
 O  O2  1  0.25000  0.74913  0.17602  1
 O  O3  1  0.75000  0.75087  0.67602  1
 O  O4  1  0.42993  0.35481  0.06489  1
 O  O5  1  0.57007  0.14519  0.56489  1
 O  O6  1  0.07007  0.85481  0.43511  1
 O  O7  1  0.07007  0.35481  0.06489  1
 O  O8  1  0.92993  0.64519  0.93511  1
 O  O9  1  0.92993  0.14519  0.56489  1
 O  O10  1  0.25000  0.24913  0.32398  1
 O  O11  1  0.75000  0.25087  0.82398  1
 O  O12  1  0.57007  0.64519  0.93511  1
 Se  Se1  1  0.25000  0.69820  0.36677  1
 Se  Se2  1  0.75000  0.30180  0.63323  1
 Se  Se3  1  0.75000  0.80180  0.86677  1
 Se  Se4  1  0.25000  0.19820  0.13323  1
