CIF file written using JARVIS-Tools package.
data_Ti2CoRe
_symmetry_space_group_name_H-M  'Fm-3m'
_cell_length_a       4.30765
_cell_length_b       4.30767
_cell_length_c       4.30764
_cell_angle_alpha    59.9998
_cell_angle_beta     59.9999
_cell_angle_gamma    60

_symmetry_Int_Tables_number  225
_chemical_formula_structural  Ti2CoRe
_chemical_formula_sum  Ti2CoRe
_cell_volume  56.52052786550681
_cell_formula_units_Z  1
loop_
  _symmetry_equiv_pos_site_id
 _symmetry_equiv_pos_as_xyz
 1  'x, y, z'
loop_
 _atom_site_type_symbol
 _atom_site_label
 _atom_site_symmetry_multiplicity
 _atom_site_fract_x
 _atom_site_fract_y
 _atom_site_fract_z
 _atom_site_fract_occupancy
 Co  Co1  1  0.25000  0.25000  0.25000  1
 Re  Re1  1  0.75000  0.75000  0.75000  1
 Ti  Ti1  1  -0.00000  1.00000  1.00000  1
 Ti  Ti2  1  0.50000  0.50000  0.50000  1
