CIF file written using JARVIS-Tools package.
data_NaNiIO6
_symmetry_space_group_name_H-M  'P312'
_cell_length_a       5.0064
_cell_length_b       5.00647
_cell_length_c       5.12713
_cell_angle_alpha    89.9992
_cell_angle_beta     90.0006
_cell_angle_gamma    120

_symmetry_Int_Tables_number  149
_chemical_formula_structural  NaNiIO6
_chemical_formula_sum  NaNiIO6
_cell_volume  111.29146259628386
_cell_formula_units_Z  1
loop_
  _symmetry_equiv_pos_site_id
 _symmetry_equiv_pos_as_xyz
 1  'x, y, z'
loop_
 _atom_site_type_symbol
 _atom_site_label
 _atom_site_symmetry_multiplicity
 _atom_site_fract_x
 _atom_site_fract_y
 _atom_site_fract_z
 _atom_site_fract_occupancy
 I  I1  1  0.66667  0.33333  0.50000  1
 Na  Na1  1  0.00000  0.00000  0.00000  1
 Ni  Ni1  1  0.33334  0.66667  0.50000  1
 O  O1  1  0.00354  0.37436  0.70728  1
 O  O2  1  0.62564  0.99646  0.29272  1
 O  O3  1  0.00354  0.62918  0.29272  1
 O  O4  1  0.37082  0.37436  0.29272  1
 O  O5  1  0.62564  0.62919  0.70728  1
 O  O6  1  0.37082  0.99646  0.70728  1
