CIF file written using JARVIS-Tools package.
data_RbFeF4
_symmetry_space_group_name_H-M  'P4/mmm'
_cell_length_a       3.91725
_cell_length_b       3.91725
_cell_length_c       6.38262
_cell_angle_alpha    90
_cell_angle_beta     90
_cell_angle_gamma    90

_symmetry_Int_Tables_number  123
_chemical_formula_structural  RbFeF4
_chemical_formula_sum  RbFeF4
_cell_volume  97.94016597649902
_cell_formula_units_Z  1
loop_
  _symmetry_equiv_pos_site_id
 _symmetry_equiv_pos_as_xyz
 1  'x, y, z'
loop_
 _atom_site_type_symbol
 _atom_site_label
 _atom_site_symmetry_multiplicity
 _atom_site_fract_x
 _atom_site_fract_y
 _atom_site_fract_z
 _atom_site_fract_occupancy
 F  F1  1  0.50000  0.50000  0.79739  1
 F  F2  1  0.50000  0.50000  0.20261  1
 F  F3  1  0.50000  0.00000  0.50000  1
 F  F4  1  0.00000  0.50000  0.50000  1
 Fe  Fe1  1  0.50000  0.50000  0.50000  1
 Rb  Rb1  1  0.00000  0.00000  0.00000  1
