CIF file written using JARVIS-Tools package.
data_H3S
_symmetry_space_group_name_H-M  'Fmm2'
_cell_length_a       3.66619
_cell_length_b       3.64199
_cell_length_c       3.64198
_cell_angle_alpha    117.531
_cell_angle_beta     105.461
_cell_angle_gamma    105.461

_symmetry_Int_Tables_number  42
_chemical_formula_structural  H3S
_chemical_formula_sum  H3S
_cell_volume  36.9867204981635
_cell_formula_units_Z  1
loop_
  _symmetry_equiv_pos_site_id
 _symmetry_equiv_pos_as_xyz
 1  'x, y, z'
loop_
 _atom_site_type_symbol
 _atom_site_label
 _atom_site_symmetry_multiplicity
 _atom_site_fract_x
 _atom_site_fract_y
 _atom_site_fract_z
 _atom_site_fract_occupancy
 H  H1  1  0.30644  0.64664  0.95785  1
 H  H2  1  0.30644  0.95785  0.64664  1
 H  H3  1  0.57622  0.43693  0.43693  1
 S  S1  1  0.61969  0.95858  0.95858  1
