CIF file written using JARVIS-Tools package.
data_Zn2Sb2O5
_symmetry_space_group_name_H-M  'Cmc2_1'
_cell_length_a       3.34082
_cell_length_b       9.42951
_cell_length_c       8.45492
_cell_angle_alpha    90.0003
_cell_angle_beta     78.614
_cell_angle_gamma    90.0001

_symmetry_Int_Tables_number  36
_chemical_formula_structural  Zn2Sb2O5
_chemical_formula_sum  Zn4Sb4O0
_cell_volume  261.10743859969745
_cell_formula_units_Z  2
loop_
  _symmetry_equiv_pos_site_id
 _symmetry_equiv_pos_as_xyz
 1  'x, y, z'
loop_
 _atom_site_type_symbol
 _atom_site_label
 _atom_site_symmetry_multiplicity
 _atom_site_fract_x
 _atom_site_fract_y
 _atom_site_fract_z
 _atom_site_fract_occupancy
 O  O1  1  0.44899  0.74934  0.35209  1
 O  O2  1  -0.35120  0.96225  -0.04656  1
 O  O3  1  -0.32679  0.50065  0.90413  1
 O  O4  1  0.32680  0.00066  0.59587  1
 O  O5  1  0.35120  0.46225  0.54656  1
 O  O6  1  0.20604  0.74155  0.83906  1
 O  O7  1  0.55098  0.24934  0.14790  1
 O  O8  1  0.02564  0.49166  0.19831  1
 O  O9  1  0.79397  0.24155  0.66094  1
 O  O10  1  -0.02564  0.99166  0.30168  1
 Sb  Sb1  1  0.11242  0.34051  0.02439  1
 Sb  Sb2  1  -0.36729  0.70854  0.98585  1
 Sb  Sb3  1  0.36728  0.20854  0.51415  1
 Sb  Sb4  1  -0.11242  0.84051  0.47560  1
 Zn  Zn1  1  0.78812  0.46995  0.67270  1
 Zn  Zn2  1  0.46368  0.53555  0.32230  1
 Zn  Zn3  1  0.21190  -0.03006  0.82730  1
 Zn  Zn4  1  0.53633  0.03555  0.17769  1
