CIF file written using JARVIS-Tools package.
data_Zn2CuN2
_symmetry_space_group_name_H-M  'C2/m'
_cell_length_a       3.51666
_cell_length_b       5.9101
_cell_length_c       6.88973
_cell_angle_alpha    70.7207
_cell_angle_beta     75.2139
_cell_angle_gamma    72.6918

_symmetry_Int_Tables_number  12
_chemical_formula_structural  Zn2CuN2
_chemical_formula_sum  Zn4Cu2N4
_cell_volume  127.0709447247374
_cell_formula_units_Z  2
loop_
  _symmetry_equiv_pos_site_id
 _symmetry_equiv_pos_as_xyz
 1  'x, y, z'
loop_
 _atom_site_type_symbol
 _atom_site_label
 _atom_site_symmetry_multiplicity
 _atom_site_fract_x
 _atom_site_fract_y
 _atom_site_fract_z
 _atom_site_fract_occupancy
 Cu  Cu1  1  0.36967  0.16099  0.09968  1
 Cu  Cu2  1  0.63033  0.83901  0.90032  1
 N  N1  1  0.19903  0.24170  0.36024  1
 N  N2  1  0.80097  0.75830  0.63976  1
 N  N3  1  0.48465  0.22457  0.80614  1
 N  N4  1  0.51535  0.77543  0.19386  1
 Zn  Zn1  1  0.65327  0.18898  0.50448  1
 Zn  Zn2  1  0.34673  0.81102  0.49552  1
 Zn  Zn3  1  0.08791  0.60229  0.22188  1
 Zn  Zn4  1  0.91209  0.39771  0.77812  1
