CIF file written using JARVIS-Tools package.
data_Cr2O5
_symmetry_space_group_name_H-M  'Pmmn'
_cell_length_a       3.56312
_cell_length_b       4.55164
_cell_length_c       11.0868
_cell_angle_alpha    90
_cell_angle_beta     89.9999
_cell_angle_gamma    90.0011

_symmetry_Int_Tables_number  59
_chemical_formula_structural  Cr2O5
_chemical_formula_sum  Cr4O0
_cell_volume  179.806862047152
_cell_formula_units_Z  2
loop_
  _symmetry_equiv_pos_site_id
 _symmetry_equiv_pos_as_xyz
 1  'x, y, z'
loop_
 _atom_site_type_symbol
 _atom_site_label
 _atom_site_symmetry_multiplicity
 _atom_site_fract_x
 _atom_site_fract_y
 _atom_site_fract_z
 _atom_site_fract_occupancy
 Cr  Cr1  1  0.01856  0.88089  0.15089  1
 Cr  Cr2  1  0.51858  0.11914  0.34911  1
 Cr  Cr3  1  0.51856  0.11911  0.65089  1
 Cr  Cr4  1  0.01858  0.88087  0.84911  1
 O  O1  1  0.51857  0.99363  0.18235  1
 O  O2  1  0.01857  0.00641  0.31765  1
 O  O3  1  0.01856  0.00637  0.68235  1
 O  O4  1  0.51858  0.99359  0.81765  1
 O  O5  1  0.01858  0.53495  0.85315  1
 O  O6  1  0.51856  0.46502  0.64686  1
 O  O7  1  0.51858  0.46505  0.35316  1
 O  O8  1  0.51857  0.01088  0.50000  1
 O  O9  1  0.01857  -0.01088  -0.00000  1
 O  O10  1  0.01856  0.53498  0.14685  1
