CIF file written using JARVIS-Tools package.
data_NaCa2Al
_symmetry_space_group_name_H-M  'Immm'
_cell_length_a       13.4879
_cell_length_b       7.62275
_cell_length_c       7.62276
_cell_angle_alpha    27.4201
_cell_angle_beta     27.7834
_cell_angle_gamma    27.7834

_symmetry_Int_Tables_number  71
_chemical_formula_structural  NaCa2Al
_chemical_formula_sum  NaCa2Al
_cell_volume  149.1144266689596
_cell_formula_units_Z  1
loop_
  _symmetry_equiv_pos_site_id
 _symmetry_equiv_pos_as_xyz
 1  'x, y, z'
loop_
 _atom_site_type_symbol
 _atom_site_label
 _atom_site_symmetry_multiplicity
 _atom_site_fract_x
 _atom_site_fract_y
 _atom_site_fract_z
 _atom_site_fract_occupancy
 Al  Al1  1  0.50000  -0.00000  -0.00000  1
 Ca  Ca1  1  0.72742  0.00000  0.00000  1
 Ca  Ca2  1  0.27258  -0.00000  -0.00000  1
 Na  Na1  1  0.00000  0.00000  0.00000  1
