CIF file written using JARVIS-Tools package.
data_CdI2
_symmetry_space_group_name_H-M  'R-3m'
_cell_length_a       13.9695
_cell_length_b       13.9695
_cell_length_c       13.9695
_cell_angle_alpha    17.6464
_cell_angle_beta     17.6464
_cell_angle_gamma    17.6464

_symmetry_Int_Tables_number  166
_chemical_formula_structural  CdI2
_chemical_formula_sum  Cd2I4
_cell_volume  218.6643241154609
_cell_formula_units_Z  2
loop_
  _symmetry_equiv_pos_site_id
 _symmetry_equiv_pos_as_xyz
 1  'x, y, z'
loop_
 _atom_site_type_symbol
 _atom_site_label
 _atom_site_symmetry_multiplicity
 _atom_site_fract_x
 _atom_site_fract_y
 _atom_site_fract_z
 _atom_site_fract_occupancy
 Cd  Cd1  1  0.00000  0.00000  0.00000  1
 Cd  Cd2  1  0.50000  0.50000  0.50000  1
 I  I1  1  0.20871  0.20871  0.20871  1
 I  I2  1  0.62463  0.62463  0.62463  1
 I  I3  1  0.79129  0.79129  0.79129  1
 I  I4  1  0.37537  0.37537  0.37537  1
