CIF file written using JARVIS-Tools package.
data_Y2CdAu
_symmetry_space_group_name_H-M  'Immm'
_cell_length_a       16.038
_cell_length_b       9.27178
_cell_length_c       9.27177
_cell_angle_alpha    27.1884
_cell_angle_beta     17.1006
_cell_angle_gamma    17.1006

_symmetry_Int_Tables_number  71
_chemical_formula_structural  Y2CdAu
_chemical_formula_sum  Y2CdAu
_cell_volume  114.5171564600366
_cell_formula_units_Z  1
loop_
  _symmetry_equiv_pos_site_id
 _symmetry_equiv_pos_as_xyz
 1  'x, y, z'
loop_
 _atom_site_type_symbol
 _atom_site_label
 _atom_site_symmetry_multiplicity
 _atom_site_fract_x
 _atom_site_fract_y
 _atom_site_fract_z
 _atom_site_fract_occupancy
 Au  Au1  1  0.50000  -0.00000  0.00000  1
 Cd  Cd1  1  0.00000  0.00000  0.00000  1
 Y  Y1  1  0.51378  0.15720  0.15720  1
 Y  Y2  1  0.48622  0.84280  0.84280  1
