CIF file written using JARVIS-Tools package.
data_Li4CO4
_symmetry_space_group_name_H-M  'I-42m'
_cell_length_a       4.35806
_cell_length_b       5.01304
_cell_length_c       5.01291
_cell_angle_alpha    78.8474
_cell_angle_beta     64.2349
_cell_angle_gamma    64.2356

_symmetry_Int_Tables_number  121
_chemical_formula_structural  Li4CO4
_chemical_formula_sum  Li4CO4
_cell_volume  88.8235690996432
_cell_formula_units_Z  1
loop_
  _symmetry_equiv_pos_site_id
 _symmetry_equiv_pos_as_xyz
 1  'x, y, z'
loop_
 _atom_site_type_symbol
 _atom_site_label
 _atom_site_symmetry_multiplicity
 _atom_site_fract_x
 _atom_site_fract_y
 _atom_site_fract_z
 _atom_site_fract_occupancy
 C  C1  1  0.95212  0.50000  0.50000  1
 Li  Li1  1  0.49649  0.15759  0.50101  1
 Li  Li2  1  0.15509  0.84241  0.49899  1
 Li  Li3  1  0.40768  0.49910  0.84239  1
 Li  Li4  1  0.74916  0.50090  0.15761  1
 O  O1  1  0.27053  0.50063  0.24844  1
 O  O2  1  0.63377  0.75155  0.49926  1
 O  O3  1  0.01960  0.49937  0.75156  1
 O  O4  1  0.88457  0.24845  0.50075  1
