CIF file written using JARVIS-Tools package.
data_MnV2Re
_symmetry_space_group_name_H-M  'C2/m'
_cell_length_a       9.71705
_cell_length_b       6.59173
_cell_length_c       6.59173
_cell_angle_alpha    22.7062
_cell_angle_beta     22.138
_cell_angle_gamma    22.1381

_symmetry_Int_Tables_number  12
_chemical_formula_structural  MnV2Re
_chemical_formula_sum  MnV2Re
_cell_volume  53.415653972246766
_cell_formula_units_Z  1
loop_
  _symmetry_equiv_pos_site_id
 _symmetry_equiv_pos_as_xyz
 1  'x, y, z'
loop_
 _atom_site_type_symbol
 _atom_site_label
 _atom_site_symmetry_multiplicity
 _atom_site_fract_x
 _atom_site_fract_y
 _atom_site_fract_z
 _atom_site_fract_occupancy
 Mn  Mn1  1  0.00000  0.00000  0.00000  1
 Re  Re1  1  0.50000  0.00000  -0.00000  1
 V  V1  1  0.74722  0.00719  0.00719  1
 V  V2  1  0.25278  -0.00719  -0.00719  1
