CIF file written using JARVIS-Tools package.
data_AlCr2O4
_symmetry_space_group_name_H-M  'Fd-3m'
_cell_length_a       5.80388
_cell_length_b       5.80387
_cell_length_c       5.80388
_cell_angle_alpha    60.0005
_cell_angle_beta     60.0006
_cell_angle_gamma    60.0006

_symmetry_Int_Tables_number  227
_chemical_formula_structural  AlCr2O4
_chemical_formula_sum  Al2Cr4O8
_cell_volume  138.24343576213636
_cell_formula_units_Z  2
loop_
  _symmetry_equiv_pos_site_id
 _symmetry_equiv_pos_as_xyz
 1  'x, y, z'
loop_
 _atom_site_type_symbol
 _atom_site_label
 _atom_site_symmetry_multiplicity
 _atom_site_fract_x
 _atom_site_fract_y
 _atom_site_fract_z
 _atom_site_fract_occupancy
 Al  Al1  1  0.62500  0.62500  0.62500  1
 Al  Al2  1  0.37500  0.37500  0.37500  1
 Cr  Cr1  1  -0.00000  0.50000  -0.00000  1
 Cr  Cr2  1  0.00000  0.00000  0.00000  1
 Cr  Cr3  1  0.50000  0.00000  -0.00000  1
 Cr  Cr4  1  -0.00000  0.00000  0.50000  1
 O  O1  1  0.24515  0.75161  0.75161  1
 O  O2  1  0.24839  0.24839  0.75485  1
 O  O3  1  0.24839  0.75485  0.24839  1
 O  O4  1  0.24839  0.24839  0.24839  1
 O  O5  1  0.75161  0.75161  0.24515  1
 O  O6  1  0.75485  0.24839  0.24839  1
 O  O7  1  0.75161  0.24515  0.75161  1
 O  O8  1  0.75161  0.75161  0.75161  1
