CIF file written using JARVIS-Tools package.
data_Fe3Co
_symmetry_space_group_name_H-M  'P4/mmm'
_cell_length_a       2.83157
_cell_length_b       4.01843
_cell_length_c       4.01845
_cell_angle_alpha    90
_cell_angle_beta     90
_cell_angle_gamma    90

_symmetry_Int_Tables_number  123
_chemical_formula_structural  Fe3Co
_chemical_formula_sum  Fe3Co
_cell_volume  45.72379612872008
_cell_formula_units_Z  1
loop_
  _symmetry_equiv_pos_site_id
 _symmetry_equiv_pos_as_xyz
 1  'x, y, z'
loop_
 _atom_site_type_symbol
 _atom_site_label
 _atom_site_symmetry_multiplicity
 _atom_site_fract_x
 _atom_site_fract_y
 _atom_site_fract_z
 _atom_site_fract_occupancy
 Co  Co1  1  0.00000  0.00000  0.00000  1
 Fe  Fe1  1  0.00000  0.50000  0.50000  1
 Fe  Fe2  1  0.50000  0.50000  1.00000  1
 Fe  Fe3  1  0.50000  0.00000  0.50000  1
