CIF file written using JARVIS-Tools package.
data_Sr2LuBiO6
_symmetry_space_group_name_H-M  'P2_1/c'
_cell_length_a       5.89133
_cell_length_b       5.9985
_cell_length_c       10.2415
_cell_angle_alpha    90
_cell_angle_beta     125.072
_cell_angle_gamma    90

_symmetry_Int_Tables_number  14
_chemical_formula_structural  Sr2LuBiO6
_chemical_formula_sum  Sr4Lu2Bi2O2
_cell_volume  296.21023031473214
_cell_formula_units_Z  2
loop_
  _symmetry_equiv_pos_site_id
 _symmetry_equiv_pos_as_xyz
 1  'x, y, z'
loop_
 _atom_site_type_symbol
 _atom_site_label
 _atom_site_symmetry_multiplicity
 _atom_site_fract_x
 _atom_site_fract_y
 _atom_site_fract_z
 _atom_site_fract_occupancy
 Bi  Bi1  1  0.00000  0.00000  0.00000  1
 Bi  Bi2  1  -0.00000  0.50000  0.50000  1
 Lu  Lu1  1  0.50000  0.50000  -0.00000  1
 Lu  Lu2  1  0.50000  0.00000  0.50000  1
 O  O1  1  0.33690  0.97057  0.24742  1
 O  O2  1  0.24423  0.29450  0.45297  1
 O  O3  1  0.66310  0.02943  0.75258  1
 O  O4  1  0.75577  0.70550  0.54703  1
 O  O5  1  0.24423  0.20550  0.95297  1
 O  O6  1  0.75577  0.79450  0.04703  1
 O  O7  1  0.84496  0.29043  0.04769  1
 O  O8  1  0.33690  0.52943  0.74742  1
 O  O9  1  0.15504  0.70957  0.95231  1
 O  O10  1  0.15504  0.79043  0.45231  1
 O  O11  1  0.66310  0.47057  0.25258  1
 O  O12  1  0.84496  0.20957  0.54769  1
 Sr  Sr1  1  0.76032  0.45708  0.74992  1
 Sr  Sr2  1  0.23968  0.95708  0.75008  1
 Sr  Sr3  1  0.76032  0.04292  0.24992  1
 Sr  Sr4  1  0.23968  0.54292  0.25008  1
