CIF file written using JARVIS-Tools package.
data_RbS
_symmetry_space_group_name_H-M  'Cmcm'
_cell_length_a       4.96516
_cell_length_b       4.85168
_cell_length_c       5.85738
_cell_angle_alpha    90
_cell_angle_beta     115.095
_cell_angle_gamma    90

_symmetry_Int_Tables_number  63
_chemical_formula_structural  RbS
_chemical_formula_sum  Rb2S2
_cell_volume  127.78111387294051
_cell_formula_units_Z  2
loop_
  _symmetry_equiv_pos_site_id
 _symmetry_equiv_pos_as_xyz
 1  'x, y, z'
loop_
 _atom_site_type_symbol
 _atom_site_label
 _atom_site_symmetry_multiplicity
 _atom_site_fract_x
 _atom_site_fract_y
 _atom_site_fract_z
 _atom_site_fract_occupancy
 Rb  Rb1  1  0.14754  0.25000  0.79502  1
 Rb  Rb2  1  0.85246  0.75000  0.20498  1
 S  S1  1  0.46435  0.25000  0.42879  1
 S  S2  1  0.53565  0.75000  0.57121  1
