CIF file written using JARVIS-Tools package.
data_MgNi2O4
_symmetry_space_group_name_H-M  'Fd-3m'
_cell_length_a       5.84297
_cell_length_b       5.84297
_cell_length_c       5.84978
_cell_angle_alpha    119.962
_cell_angle_beta     119.961
_cell_angle_gamma    90.0001

_symmetry_Int_Tables_number  227
_chemical_formula_structural  MgNi2O4
_chemical_formula_sum  Mg2Ni4O8
_cell_volume  141.38290017235124
_cell_formula_units_Z  2
loop_
  _symmetry_equiv_pos_site_id
 _symmetry_equiv_pos_as_xyz
 1  'x, y, z'
loop_
 _atom_site_type_symbol
 _atom_site_label
 _atom_site_symmetry_multiplicity
 _atom_site_fract_x
 _atom_site_fract_y
 _atom_site_fract_z
 _atom_site_fract_occupancy
 Mg  Mg1  1  0.37500  0.62500  0.75000  1
 Mg  Mg2  1  0.62500  0.37500  0.25000  1
 Ni  Ni1  1  -0.00000  -0.00000  0.50000  1
 Ni  Ni2  1  -0.00000  0.50000  -0.00000  1
 Ni  Ni3  1  0.50000  -0.00000  0.50000  1
 Ni  Ni4  1  0.00000  0.00000  0.00000  1
 O  O1  1  0.76331  0.78960  0.52661  1
 O  O2  1  0.76299  0.23669  0.97339  1
 O  O3  1  0.21040  0.23669  0.97339  1
 O  O4  1  0.23669  0.21040  0.47339  1
 O  O5  1  0.23669  0.76299  0.47339  1
 O  O6  1  0.23701  0.76331  0.02661  1
 O  O7  1  0.76331  0.23701  0.52661  1
 O  O8  1  0.78960  0.76331  0.02661  1
