CIF file written using JARVIS-Tools package.
data_LiEr2Ga
_symmetry_space_group_name_H-M  'Fm-3m'
_cell_length_a       5.00029
_cell_length_b       5.00031
_cell_length_c       5.00031
_cell_angle_alpha    59.9997
_cell_angle_beta     60.0007
_cell_angle_gamma    59.9999

_symmetry_Int_Tables_number  225
_chemical_formula_structural  LiEr2Ga
_chemical_formula_sum  LiEr2Ga
_cell_volume  88.40472938106419
_cell_formula_units_Z  1
loop_
  _symmetry_equiv_pos_site_id
 _symmetry_equiv_pos_as_xyz
 1  'x, y, z'
loop_
 _atom_site_type_symbol
 _atom_site_label
 _atom_site_symmetry_multiplicity
 _atom_site_fract_x
 _atom_site_fract_y
 _atom_site_fract_z
 _atom_site_fract_occupancy
 Er  Er1  1  1.00000  0.99999  0.00000  1
 Er  Er2  1  0.50000  0.50001  0.50000  1
 Ga  Ga1  1  0.25000  0.25000  0.25000  1
 Li  Li1  1  0.75000  0.75000  0.75000  1
