CIF file written using JARVIS-Tools package.
data_Li2Ti3O6
_symmetry_space_group_name_H-M  'C2/c'
_cell_length_a       8.79513
_cell_length_b       5.2853
_cell_length_c       5.2853
_cell_angle_alpha    115.412
_cell_angle_beta     81.5258
_cell_angle_gamma    81.5258

_symmetry_Int_Tables_number  15
_chemical_formula_structural  Li2Ti3O6
_chemical_formula_sum  Li4Ti6O2
_cell_volume  213.30734367922668
_cell_formula_units_Z  2
loop_
  _symmetry_equiv_pos_site_id
 _symmetry_equiv_pos_as_xyz
 1  'x, y, z'
loop_
 _atom_site_type_symbol
 _atom_site_label
 _atom_site_symmetry_multiplicity
 _atom_site_fract_x
 _atom_site_fract_y
 _atom_site_fract_z
 _atom_site_fract_occupancy
 Li  Li1  1  0.00768  0.29036  0.71758  1
 Li  Li2  1  0.50768  0.96758  0.04036  1
 Li  Li3  1  0.32565  0.61575  0.04298  1
 Li  Li4  1  0.82565  0.29298  0.36575  1
 O  O1  1  0.66667  0.64304  0.69030  1
 O  O2  1  0.99454  -0.01321  0.03209  1
 O  O3  1  0.16667  0.39863  0.93471  1
 O  O4  1  0.33880  0.30124  0.34655  1
 O  O5  1  0.99477  0.50445  0.48349  1
 O  O6  1  0.49454  0.28209  0.73679  1
 O  O7  1  0.66667  0.18471  0.14863  1
 O  O8  1  0.33856  0.84984  0.82888  1
 O  O9  1  0.83856  0.07888  0.59984  1
 O  O10  1  0.16667  0.94030  0.39304  1
 O  O11  1  0.49477  0.73349  0.25445  1
 O  O12  1  0.83880  0.59655  0.05124  1
 Ti  Ti1  1  0.83751  0.84738  0.81581  1
 Ti  Ti2  1  0.66667  0.40535  0.92798  1
 Ti  Ti3  1  0.49582  0.51753  0.48595  1
 Ti  Ti4  1  0.33751  0.06581  0.59738  1
 Ti  Ti5  1  0.99582  0.73595  0.26753  1
 Ti  Ti6  1  0.16667  0.17798  0.15535  1
