CIF file written using JARVIS-Tools package.
data_LiVF4
_symmetry_space_group_name_H-M  'C2/m'
_cell_length_a       6.78556
_cell_length_b       6.78556
_cell_length_c       7.17181
_cell_angle_alpha    76.4589
_cell_angle_beta     103.541
_cell_angle_gamma    97.3801

_symmetry_Int_Tables_number  12
_chemical_formula_structural  LiVF4
_chemical_formula_sum  Li4V4F6
_cell_volume  311.16628519856096
_cell_formula_units_Z  4
loop_
  _symmetry_equiv_pos_site_id
 _symmetry_equiv_pos_as_xyz
 1  'x, y, z'
loop_
 _atom_site_type_symbol
 _atom_site_label
 _atom_site_symmetry_multiplicity
 _atom_site_fract_x
 _atom_site_fract_y
 _atom_site_fract_z
 _atom_site_fract_occupancy
 F  F1  1  0.80851  0.53521  0.51930  1
 F  F2  1  0.13463  0.86537  0.54465  1
 F  F3  1  0.18774  0.51523  0.89174  1
 F  F4  1  0.48477  0.81226  0.89174  1
 F  F5  1  0.81226  0.48477  0.10826  1
 F  F6  1  0.53521  0.80851  0.48070  1
 F  F7  1  0.19149  0.46479  0.48070  1
 F  F8  1  0.19199  0.80801  0.12197  1
 F  F9  1  0.89643  0.79701  0.78953  1
 F  F10  1  0.10357  0.20299  0.21047  1
 F  F11  1  0.79701  0.89643  0.21047  1
 F  F12  1  0.86537  0.13463  0.45535  1
 F  F13  1  0.46479  0.19149  0.51930  1
 F  F14  1  0.80801  0.19199  0.87803  1
 F  F15  1  0.51523  0.18774  0.10826  1
 F  F16  1  0.20299  0.10357  0.78953  1
 Li  Li1  1  0.72721  0.27279  0.61218  1
 Li  Li2  1  0.74794  0.74794  -0.00000  1
 Li  Li3  1  0.25206  0.25206  0.00000  1
 Li  Li4  1  0.27279  0.72721  0.38782  1
 V  V1  1  0.79518  0.20482  0.13280  1
 V  V2  1  0.81189  0.81189  0.50000  1
 V  V3  1  0.18811  0.18811  0.50000  1
 V  V4  1  0.20482  0.79518  0.86720  1
