CIF file written using JARVIS-Tools package.
data_BiSe
_symmetry_space_group_name_H-M  'C2/m'
_cell_length_a       4.124
_cell_length_b       4.124
_cell_length_c       7.78424
_cell_angle_alpha    74.9632
_cell_angle_beta     74.9632
_cell_angle_gamma    89.9914

_symmetry_Int_Tables_number  12
_chemical_formula_structural  BiSe
_chemical_formula_sum  Bi2Se2
_cell_volume  123.15815579654677
_cell_formula_units_Z  2
loop_
  _symmetry_equiv_pos_site_id
 _symmetry_equiv_pos_as_xyz
 1  'x, y, z'
loop_
 _atom_site_type_symbol
 _atom_site_label
 _atom_site_symmetry_multiplicity
 _atom_site_fract_x
 _atom_site_fract_y
 _atom_site_fract_z
 _atom_site_fract_occupancy
 Bi  Bi1  1  0.39070  0.39070  0.21964  1
 Bi  Bi2  1  0.60930  0.60930  0.78036  1
 Se  Se1  1  0.85244  0.85244  0.29136  1
 Se  Se2  1  0.14756  0.14756  0.70864  1
