CIF file written using JARVIS-Tools package.
data_ZrSe3
_symmetry_space_group_name_H-M  'P2_1/m'
_cell_length_a       5.46335
_cell_length_b       3.77426
_cell_length_c       9.54036
_cell_angle_alpha    90
_cell_angle_beta     97.2695
_cell_angle_gamma    90

_symmetry_Int_Tables_number  11
_chemical_formula_structural  ZrSe3
_chemical_formula_sum  Zr2Se6
_cell_volume  195.1420510035143
_cell_formula_units_Z  2
loop_
  _symmetry_equiv_pos_site_id
 _symmetry_equiv_pos_as_xyz
 1  'x, y, z'
loop_
 _atom_site_type_symbol
 _atom_site_label
 _atom_site_symmetry_multiplicity
 _atom_site_fract_x
 _atom_site_fract_y
 _atom_site_fract_z
 _atom_site_fract_occupancy
 Se  Se1  1  0.39070  0.25000  0.16710  1
 Se  Se2  1  0.60930  0.75000  0.83290  1
 Se  Se3  1  0.95532  0.25000  0.17377  1
 Se  Se4  1  0.04468  0.75000  0.82623  1
 Se  Se5  1  0.26264  0.25000  0.55454  1
 Se  Se6  1  0.73736  0.75000  0.44546  1
 Zr  Zr1  1  0.21551  0.75000  0.34285  1
 Zr  Zr2  1  0.78449  0.25000  0.65715  1
