CIF file written using JARVIS-Tools package.
data_KClO3
_symmetry_space_group_name_H-M  'R3m'
_cell_length_a       4.31735
_cell_length_b       4.31738
_cell_length_c       4.31738
_cell_angle_alpha    83.8288
_cell_angle_beta     83.8292
_cell_angle_gamma    83.8292

_symmetry_Int_Tables_number  160
_chemical_formula_structural  KClO3
_chemical_formula_sum  KClO3
_cell_volume  79.16891644742772
_cell_formula_units_Z  1
loop_
  _symmetry_equiv_pos_site_id
 _symmetry_equiv_pos_as_xyz
 1  'x, y, z'
loop_
 _atom_site_type_symbol
 _atom_site_label
 _atom_site_symmetry_multiplicity
 _atom_site_fract_x
 _atom_site_fract_y
 _atom_site_fract_z
 _atom_site_fract_occupancy
 Cl  Cl1  1  0.51291  0.51291  0.51291  1
 K  K1  1  0.03381  0.03381  0.03381  1
 O  O1  1  0.16393  0.58218  0.58218  1
 O  O2  1  0.58218  0.16393  0.58218  1
 O  O3  1  0.58218  0.58218  0.16393  1
