CIF file written using JARVIS-Tools package.
data_Li2TiCuO4
_symmetry_space_group_name_H-M  'Imma'
_cell_length_a       6.13737
_cell_length_b       6.13737
_cell_length_c       5.76493
_cell_angle_alpha    118.007
_cell_angle_beta     118.007
_cell_angle_gamma    97.4573

_symmetry_Int_Tables_number  74
_chemical_formula_structural  Li2TiCuO4
_chemical_formula_sum  Li4Ti2Cu2O8
_cell_volume  151.2119640321834
_cell_formula_units_Z  2
loop_
  _symmetry_equiv_pos_site_id
 _symmetry_equiv_pos_as_xyz
 1  'x, y, z'
loop_
 _atom_site_type_symbol
 _atom_site_label
 _atom_site_symmetry_multiplicity
 _atom_site_fract_x
 _atom_site_fract_y
 _atom_site_fract_z
 _atom_site_fract_occupancy
 Cu  Cu1  1  0.00000  0.50000  0.00000  1
 Cu  Cu2  1  0.50000  -0.00000  0.50000  1
 Li  Li1  1  -0.00000  0.50000  0.50000  1
 Li  Li2  1  0.50000  0.50000  0.50000  1
 Li  Li3  1  0.50000  -0.00000  0.00000  1
 Li  Li4  1  0.50000  0.50000  0.00000  1
 O  O1  1  0.21807  0.78195  0.01545  1
 O  O2  1  0.22111  0.25334  0.48718  1
 O  O3  1  0.21805  0.78193  0.48455  1
 O  O4  1  0.74666  0.77889  0.01282  1
 O  O5  1  0.25334  0.22111  0.98718  1
 O  O6  1  0.78195  0.21807  0.51545  1
 O  O7  1  0.77889  0.74666  0.51282  1
 O  O8  1  0.78193  0.21805  0.98455  1
 Ti  Ti1  1  0.00000  0.00000  0.50000  1
 Ti  Ti2  1  0.00000  0.00000  0.00000  1
