CIF file written using JARVIS-Tools package.
data_CaSbPd2
_symmetry_space_group_name_H-M  'Immm'
_cell_length_a       11.766
_cell_length_b       8.32012
_cell_length_c       8.32012
_cell_angle_alpha    33.4841
_cell_angle_beta     19.4392
_cell_angle_gamma    19.4393

_symmetry_Int_Tables_number  71
_chemical_formula_structural  CaSbPd2
_chemical_formula_sum  CaSbPd2
_cell_volume  78.21144326227724
_cell_formula_units_Z  1
loop_
  _symmetry_equiv_pos_site_id
 _symmetry_equiv_pos_as_xyz
 1  'x, y, z'
loop_
 _atom_site_type_symbol
 _atom_site_label
 _atom_site_symmetry_multiplicity
 _atom_site_fract_x
 _atom_site_fract_y
 _atom_site_fract_z
 _atom_site_fract_occupancy
 Ca  Ca1  1  0.00000  0.00000  0.00000  1
 Pd  Pd1  1  0.75324  0.99782  0.99782  1
 Pd  Pd2  1  0.24676  0.00218  0.00218  1
 Sb  Sb1  1  0.50000  -0.00000  -0.00000  1
