CIF file written using JARVIS-Tools package.
data_Nb7B6C3
_symmetry_space_group_name_H-M  'Cmmm'
_cell_length_a       3.15074
_cell_length_b       3.27971
_cell_length_c       16.7957
_cell_angle_alpha    90
_cell_angle_beta     95.382
_cell_angle_gamma    90

_symmetry_Int_Tables_number  65
_chemical_formula_structural  Nb7B6C3
_chemical_formula_sum  Nb7B6C3
_cell_volume  172.79342620984278
_cell_formula_units_Z  1
loop_
  _symmetry_equiv_pos_site_id
 _symmetry_equiv_pos_as_xyz
 1  'x, y, z'
loop_
 _atom_site_type_symbol
 _atom_site_label
 _atom_site_symmetry_multiplicity
 _atom_site_fract_x
 _atom_site_fract_y
 _atom_site_fract_z
 _atom_site_fract_occupancy
 B  B1  1  0.65299  0.50000  0.30597  1
 B  B2  1  0.34701  0.50000  0.69403  1
 B  B3  1  0.76340  0.50000  0.52680  1
 B  B4  1  0.23660  0.50000  0.47320  1
 B  B5  1  0.18180  0.50000  0.36360  1
 B  B6  1  0.81820  0.50000  0.63640  1
 C  C1  1  0.06629  0.00000  0.13259  1
 C  C2  1  0.50000  0.50000  0.00000  1
 C  C3  1  0.93371  0.00000  0.86741  1
 Nb  Nb1  1  0.70955  0.00000  0.41911  1
 Nb  Nb2  1  0.29045  0.00000  0.58089  1
 Nb  Nb3  1  0.56704  0.50000  0.13408  1
 Nb  Nb4  1  0.43296  0.50000  0.86592  1
 Nb  Nb5  1  0.13065  0.00000  0.26131  1
 Nb  Nb6  1  0.86935  0.00000  0.73869  1
 Nb  Nb7  1  0.00000  0.00000  0.00000  1
