CIF file written using JARVIS-Tools package.
data_BBr3
_symmetry_space_group_name_H-M  'P6_3/m'
_cell_length_a       6.40262
_cell_length_b       6.40262
_cell_length_c       6.73126
_cell_angle_alpha    90
_cell_angle_beta     90
_cell_angle_gamma    120

_symmetry_Int_Tables_number  176
_chemical_formula_structural  BBr3
_chemical_formula_sum  B2Br6
_cell_volume  238.96934775545304
_cell_formula_units_Z  2
loop_
  _symmetry_equiv_pos_site_id
 _symmetry_equiv_pos_as_xyz
 1  'x, y, z'
loop_
 _atom_site_type_symbol
 _atom_site_label
 _atom_site_symmetry_multiplicity
 _atom_site_fract_x
 _atom_site_fract_y
 _atom_site_fract_z
 _atom_site_fract_occupancy
 B  B1  1  0.33333  0.66667  0.25000  1
 B  B2  1  0.66667  0.33333  0.75000  1
 Br  Br1  1  0.04469  0.36104  0.25000  1
 Br  Br2  1  0.68365  0.04469  0.75000  1
 Br  Br3  1  0.36104  0.31635  0.75000  1
 Br  Br4  1  0.63896  0.68365  0.25000  1
 Br  Br5  1  0.31635  0.95531  0.25000  1
 Br  Br6  1  0.95531  0.63896  0.75000  1
