CIF file written using JARVIS-Tools package.
data_MnPd2Au
_symmetry_space_group_name_H-M  'C2/m'
_cell_length_a       11.1374
_cell_length_b       7.41205
_cell_length_c       7.41218
_cell_angle_alpha    31.5523
_cell_angle_beta     19.3188
_cell_angle_gamma    19.3196

_symmetry_Int_Tables_number  12
_chemical_formula_structural  MnPd2Au
_chemical_formula_sum  MnPd2Au
_cell_volume  62.7155064061114
_cell_formula_units_Z  1
loop_
  _symmetry_equiv_pos_site_id
 _symmetry_equiv_pos_as_xyz
 1  'x, y, z'
loop_
 _atom_site_type_symbol
 _atom_site_label
 _atom_site_symmetry_multiplicity
 _atom_site_fract_x
 _atom_site_fract_y
 _atom_site_fract_z
 _atom_site_fract_occupancy
 Au  Au1  1  0.50000  -0.00000  -0.00000  1
 Mn  Mn1  1  0.00000  -0.00000  -0.00000  1
 Pd  Pd1  1  0.75240  -0.00148  -0.00148  1
 Pd  Pd2  1  0.24760  0.00148  0.00148  1
