CIF file written using JARVIS-Tools package.
data_K3NaFeCl6
_symmetry_space_group_name_H-M  'R-3c'
_cell_length_a       8.25975
_cell_length_b       8.25975
_cell_length_c       8.25975
_cell_angle_alpha    92.2507
_cell_angle_beta     92.2507
_cell_angle_gamma    92.2508

_symmetry_Int_Tables_number  167
_chemical_formula_structural  K3NaFeCl6
_chemical_formula_sum  K6Na2Fe2Cl2
_cell_volume  562.169329128558
_cell_formula_units_Z  2
loop_
  _symmetry_equiv_pos_site_id
 _symmetry_equiv_pos_as_xyz
 1  'x, y, z'
loop_
 _atom_site_type_symbol
 _atom_site_label
 _atom_site_symmetry_multiplicity
 _atom_site_fract_x
 _atom_site_fract_y
 _atom_site_fract_z
 _atom_site_fract_occupancy
 Cl  Cl1  1  0.21051  0.54471  0.41991  1
 Cl  Cl2  1  0.71051  0.91991  0.04471  1
 Cl  Cl3  1  0.91991  0.04471  0.71051  1
 Cl  Cl4  1  0.04471  0.71051  0.91991  1
 Cl  Cl5  1  0.45529  0.58009  0.78949  1
 Cl  Cl6  1  0.58009  0.78949  0.45529  1
 Cl  Cl7  1  0.78949  0.45529  0.58009  1
 Cl  Cl8  1  0.28949  0.08009  0.95529  1
 Cl  Cl9  1  0.08009  0.95529  0.28949  1
 Cl  Cl10  1  0.95529  0.28949  0.08009  1
 Cl  Cl11  1  0.54471  0.41991  0.21051  1
 Cl  Cl12  1  0.41991  0.21051  0.54471  1
 Fe  Fe1  1  0.50000  0.50000  0.50000  1
 Fe  Fe2  1  0.00000  0.00000  0.00000  1
 K  K1  1  0.25000  0.87118  0.62882  1
 K  K2  1  0.87118  0.62882  0.25000  1
 K  K3  1  0.62882  0.25000  0.87118  1
 K  K4  1  0.75000  0.12882  0.37118  1
 K  K5  1  0.12882  0.37118  0.75000  1
 K  K6  1  0.37118  0.75000  0.12882  1
 Na  Na1  1  0.25000  0.25000  0.25000  1
 Na  Na2  1  0.75000  0.75000  0.75000  1
