CIF file written using JARVIS-Tools package.
data_NaTa3
_symmetry_space_group_name_H-M  'Fm-3m'
_cell_length_a       4.7199
_cell_length_b       4.7199
_cell_length_c       4.7199
_cell_angle_alpha    120.003
_cell_angle_beta     120.003
_cell_angle_gamma    89.9952

_symmetry_Int_Tables_number  225
_chemical_formula_structural  NaTa3
_chemical_formula_sum  NaTa3
_cell_volume  74.34679350985884
_cell_formula_units_Z  1
loop_
  _symmetry_equiv_pos_site_id
 _symmetry_equiv_pos_as_xyz
 1  'x, y, z'
loop_
 _atom_site_type_symbol
 _atom_site_label
 _atom_site_symmetry_multiplicity
 _atom_site_fract_x
 _atom_site_fract_y
 _atom_site_fract_z
 _atom_site_fract_occupancy
 Na  Na1  1  0.00000  0.00000  0.00000  1
 Ta  Ta1  1  0.75000  0.25000  0.50000  1
 Ta  Ta2  1  0.25000  0.75000  0.50000  1
 Ta  Ta3  1  0.50000  0.50000  -0.00000  1
