CIF file written using JARVIS-Tools package.
data_NaN3
_symmetry_space_group_name_H-M  'R-3m'
_cell_length_a       3.58979
_cell_length_b       3.58979
_cell_length_c       5.55284
_cell_angle_alpha    71.1411
_cell_angle_beta     71.1411
_cell_angle_gamma    60

_symmetry_Int_Tables_number  166
_chemical_formula_structural  NaN3
_chemical_formula_sum  NaN3
_cell_volume  57.491904077881486
_cell_formula_units_Z  1
loop_
  _symmetry_equiv_pos_site_id
 _symmetry_equiv_pos_as_xyz
 1  'x, y, z'
loop_
 _atom_site_type_symbol
 _atom_site_label
 _atom_site_symmetry_multiplicity
 _atom_site_fract_x
 _atom_site_fract_y
 _atom_site_fract_z
 _atom_site_fract_occupancy
 N  N1  1  0.42615  0.42615  0.72154  1
 N  N2  1  0.50275  0.50275  0.49175  1
 N  N3  1  0.57935  0.57935  0.26196  1
 Na  Na1  1  0.00275  0.00275  0.99174  1
