CIF file written using JARVIS-Tools package.
data_Ge3F
_symmetry_space_group_name_H-M  'Fm-3m'
_cell_length_a       4.54987
_cell_length_b       4.54987
_cell_length_c       4.54987
_cell_angle_alpha    120.002
_cell_angle_beta     120.002
_cell_angle_gamma    89.9958

_symmetry_Int_Tables_number  225
_chemical_formula_structural  Ge3F
_chemical_formula_sum  Ge3F
_cell_volume  66.59842731791072
_cell_formula_units_Z  1
loop_
  _symmetry_equiv_pos_site_id
 _symmetry_equiv_pos_as_xyz
 1  'x, y, z'
loop_
 _atom_site_type_symbol
 _atom_site_label
 _atom_site_symmetry_multiplicity
 _atom_site_fract_x
 _atom_site_fract_y
 _atom_site_fract_z
 _atom_site_fract_occupancy
 F  F1  1  0.00000  0.00000  0.00000  1
 Ge  Ge1  1  0.75000  0.25000  0.50000  1
 Ge  Ge2  1  0.25000  0.75000  0.50000  1
 Ge  Ge3  1  0.50000  0.50000  0.00000  1
