CIF file written using JARVIS-Tools package.
data_ScVOs2
_symmetry_space_group_name_H-M  'Immm'
_cell_length_a       10.3541
_cell_length_b       5.83199
_cell_length_c       5.83199
_cell_angle_alpha    27.2888
_cell_angle_beta     27.4141
_cell_angle_gamma    27.4141

_symmetry_Int_Tables_number  71
_chemical_formula_structural  ScVOs2
_chemical_formula_sum  ScVOs2
_cell_volume  65.69459180051463
_cell_formula_units_Z  1
loop_
  _symmetry_equiv_pos_site_id
 _symmetry_equiv_pos_as_xyz
 1  'x, y, z'
loop_
 _atom_site_type_symbol
 _atom_site_label
 _atom_site_symmetry_multiplicity
 _atom_site_fract_x
 _atom_site_fract_y
 _atom_site_fract_z
 _atom_site_fract_occupancy
 Os  Os1  1  0.72156  -0.00000  -0.00000  1
 Os  Os2  1  0.27844  0.00000  0.00000  1
 Sc  Sc1  1  0.00000  0.00000  0.00000  1
 V  V1  1  0.50000  0.00000  -0.00000  1
