CIF file written using JARVIS-Tools package.
data_NaHg2Pb
_symmetry_space_group_name_H-M  'Immm'
_cell_length_a       12.4701
_cell_length_b       7.08986
_cell_length_c       7.08986
_cell_angle_alpha    26.409
_cell_angle_beta     28.426
_cell_angle_gamma    28.426

_symmetry_Int_Tables_number  71
_chemical_formula_structural  NaHg2Pb
_chemical_formula_sum  NaHg2Pb
_cell_volume  119.5970533885808
_cell_formula_units_Z  1
loop_
  _symmetry_equiv_pos_site_id
 _symmetry_equiv_pos_as_xyz
 1  'x, y, z'
loop_
 _atom_site_type_symbol
 _atom_site_label
 _atom_site_symmetry_multiplicity
 _atom_site_fract_x
 _atom_site_fract_y
 _atom_site_fract_z
 _atom_site_fract_occupancy
 Hg  Hg1  1  0.75256  -0.00000  -0.00000  1
 Hg  Hg2  1  0.24744  0.00000  0.00000  1
 Na  Na1  1  0.00000  0.00000  0.00000  1
 Pb  Pb1  1  0.50000  0.00000  -0.00000  1
