CIF file written using JARVIS-Tools package.
data_MgV4O10
_symmetry_space_group_name_H-M  'Amm2'
_cell_length_a       3.63194
_cell_length_b       5.32862
_cell_length_c       11.3125
_cell_angle_alpha    90
_cell_angle_beta     90
_cell_angle_gamma    109.925

_symmetry_Int_Tables_number  38
_chemical_formula_structural  MgV4O10
_chemical_formula_sum  MgV4O0
_cell_volume  205.82679319005558
_cell_formula_units_Z  1
loop_
  _symmetry_equiv_pos_site_id
 _symmetry_equiv_pos_as_xyz
 1  'x, y, z'
loop_
 _atom_site_type_symbol
 _atom_site_label
 _atom_site_symmetry_multiplicity
 _atom_site_fract_x
 _atom_site_fract_y
 _atom_site_fract_z
 _atom_site_fract_occupancy
 Mg  Mg1  1  0.88939  0.77878  0.75000  1
 O  O1  1  0.73188  0.46375  0.25000  1
 O  O2  1  0.30002  0.60004  0.75000  1
 O  O3  1  0.24234  0.48469  0.06549  1
 O  O4  1  0.75749  0.51497  0.91701  1
 O  O5  1  0.75749  0.51497  0.58299  1
 O  O6  1  0.24234  0.48469  0.43451  1
 O  O7  1  0.03882  0.07763  0.62880  1
 O  O8  1  0.95271  0.90543  0.38419  1
 O  O9  1  0.03882  0.07763  0.87120  1
 O  O10  1  0.95271  0.90543  0.11581  1
 V  V1  1  0.19997  0.39994  0.59921  1
 V  V2  1  0.79372  0.58744  0.39850  1
 V  V3  1  0.79372  0.58744  0.10150  1
 V  V4  1  0.19997  0.39994  0.90079  1
