CIF file written using JARVIS-Tools package.
data_LiScRh2
_symmetry_space_group_name_H-M  'Fm-3m'
_cell_length_a       10.6666
_cell_length_b       7.5441
_cell_length_c       7.5441
_cell_angle_alpha    33.5766
_cell_angle_beta     19.4821
_cell_angle_gamma    19.4822

_symmetry_Int_Tables_number  225
_chemical_formula_structural  LiScRh2
_chemical_formula_sum  LiScRh2
_cell_volume  58.47657293361304
_cell_formula_units_Z  1
loop_
  _symmetry_equiv_pos_site_id
 _symmetry_equiv_pos_as_xyz
 1  'x, y, z'
loop_
 _atom_site_type_symbol
 _atom_site_label
 _atom_site_symmetry_multiplicity
 _atom_site_fract_x
 _atom_site_fract_y
 _atom_site_fract_z
 _atom_site_fract_occupancy
 Li  Li1  1  0.00000  0.00000  0.00000  1
 Rh  Rh1  1  0.74990  0.00011  0.00011  1
 Rh  Rh2  1  0.25010  -0.00011  -0.00011  1
 Sc  Sc1  1  0.50000  -0.00000  0.00000  1
