CIF file written using JARVIS-Tools package.
data_CaCO3
_symmetry_space_group_name_H-M  'Pnma'
_cell_length_a       4.48518
_cell_length_b       6.56734
_cell_length_c       8.52362
_cell_angle_alpha    90
_cell_angle_beta     90
_cell_angle_gamma    90

_symmetry_Int_Tables_number  62
_chemical_formula_structural  CaCO3
_chemical_formula_sum  Ca4C4O2
_cell_volume  251.0691747657886
_cell_formula_units_Z  4
loop_
  _symmetry_equiv_pos_site_id
 _symmetry_equiv_pos_as_xyz
 1  'x, y, z'
loop_
 _atom_site_type_symbol
 _atom_site_label
 _atom_site_symmetry_multiplicity
 _atom_site_fract_x
 _atom_site_fract_y
 _atom_site_fract_z
 _atom_site_fract_occupancy
 C  C1  1  0.02241  0.63174  0.25000  1
 C  C2  1  0.52241  0.86826  0.75000  1
 C  C3  1  0.47759  0.13174  0.25000  1
 C  C4  1  0.97759  0.36826  0.75000  1
 Ca  Ca1  1  0.50000  0.50000  0.00000  1
 Ca  Ca2  1  0.00000  0.00000  0.00000  1
 Ca  Ca3  1  0.00000  0.00000  0.50000  1
 Ca  Ca4  1  0.50000  0.50000  0.50000  1
 O  O1  1  0.22625  0.03686  0.25000  1
 O  O2  1  0.10199  0.32007  0.88263  1
 O  O3  1  0.27375  0.53686  0.25000  1
 O  O4  1  0.89801  0.67993  0.38263  1
 O  O5  1  0.10199  0.32007  0.61737  1
 O  O6  1  0.39801  0.82007  0.88263  1
 O  O7  1  0.60199  0.17993  0.38263  1
 O  O8  1  0.60199  0.17993  0.11737  1
 O  O9  1  0.39801  0.82007  0.61737  1
 O  O10  1  0.89801  0.67993  0.11737  1
 O  O11  1  0.77375  0.96314  0.75000  1
 O  O12  1  0.72625  0.46314  0.75000  1
