CIF file written using JARVIS-Tools package.
data_ThRh
_symmetry_space_group_name_H-M  'Cmcm'
_cell_length_a       3.91305
_cell_length_b       4.20595
_cell_length_c       6.0561
_cell_angle_alpha    90
_cell_angle_beta     108.849
_cell_angle_gamma    90

_symmetry_Int_Tables_number  63
_chemical_formula_structural  ThRh
_chemical_formula_sum  Th2Rh2
_cell_volume  94.32705518692227
_cell_formula_units_Z  2
loop_
  _symmetry_equiv_pos_site_id
 _symmetry_equiv_pos_as_xyz
 1  'x, y, z'
loop_
 _atom_site_type_symbol
 _atom_site_label
 _atom_site_symmetry_multiplicity
 _atom_site_fract_x
 _atom_site_fract_y
 _atom_site_fract_z
 _atom_site_fract_occupancy
 Rh  Rh1  1  0.40119  0.75000  0.80239  1
 Rh  Rh2  1  0.59881  0.25000  0.19761  1
 Th  Th1  1  0.13604  0.75000  0.27207  1
 Th  Th2  1  0.86396  0.25000  0.72793  1
