CIF file written using JARVIS-Tools package.
data_UAl2Cu
_symmetry_space_group_name_H-M  'Fm-3m'
_cell_length_a       4.71142
_cell_length_b       4.71142
_cell_length_c       4.70797
_cell_angle_alpha    120.024
_cell_angle_beta     120.024
_cell_angle_gamma    90

_symmetry_Int_Tables_number  225
_chemical_formula_structural  UAl2Cu
_chemical_formula_sum  UAl2Cu
_cell_volume  73.84206287020314
_cell_formula_units_Z  1
loop_
  _symmetry_equiv_pos_site_id
 _symmetry_equiv_pos_as_xyz
 1  'x, y, z'
loop_
 _atom_site_type_symbol
 _atom_site_label
 _atom_site_symmetry_multiplicity
 _atom_site_fract_x
 _atom_site_fract_y
 _atom_site_fract_z
 _atom_site_fract_occupancy
 Al  Al1  1  0.25000  0.75000  0.50000  1
 Al  Al2  1  0.75000  0.25000  0.50000  1
 Cu  Cu1  1  0.50000  0.50000  0.00000  1
 U  U1  1  0.00000  0.00000  0.00000  1
