CIF file written using JARVIS-Tools package.
data_ZrPd
_symmetry_space_group_name_H-M  'Cmcm'
_cell_length_a       3.39823
_cell_length_b       4.35123
_cell_length_c       5.46752
_cell_angle_alpha    90
_cell_angle_beta     108.105
_cell_angle_gamma    90

_symmetry_Int_Tables_number  63
_chemical_formula_structural  ZrPd
_chemical_formula_sum  Zr2Pd2
_cell_volume  76.8423895101135
_cell_formula_units_Z  2
loop_
  _symmetry_equiv_pos_site_id
 _symmetry_equiv_pos_as_xyz
 1  'x, y, z'
loop_
 _atom_site_type_symbol
 _atom_site_label
 _atom_site_symmetry_multiplicity
 _atom_site_fract_x
 _atom_site_fract_y
 _atom_site_fract_z
 _atom_site_fract_occupancy
 Pd  Pd1  1  0.58934  0.75000  0.17869  1
 Pd  Pd2  1  0.41066  0.25000  0.82131  1
 Zr  Zr1  1  0.85845  0.75000  0.71690  1
 Zr  Zr2  1  0.14155  0.25000  0.28310  1
