CIF file written using JARVIS-Tools package.
data_CaSO4
_symmetry_space_group_name_H-M  'P2_1/c'
_cell_length_a       6.39386
_cell_length_b       6.89866
_cell_length_c       8.11073
_cell_angle_alpha    90
_cell_angle_beta     126.788
_cell_angle_gamma    90

_symmetry_Int_Tables_number  14
_chemical_formula_structural  CaSO4
_chemical_formula_sum  Ca4S4O6
_cell_volume  286.5107402232108
_cell_formula_units_Z  4
loop_
  _symmetry_equiv_pos_site_id
 _symmetry_equiv_pos_as_xyz
 1  'x, y, z'
loop_
 _atom_site_type_symbol
 _atom_site_label
 _atom_site_symmetry_multiplicity
 _atom_site_fract_x
 _atom_site_fract_y
 _atom_site_fract_z
 _atom_site_fract_occupancy
 Ca  Ca1  1  0.18278  0.65494  0.77916  1
 Ca  Ca2  1  0.81722  0.15494  0.72084  1
 Ca  Ca3  1  0.81722  0.34506  0.22084  1
 Ca  Ca4  1  0.18278  0.84506  0.27916  1
 O  O1  1  0.41987  0.70874  0.62376  1
 O  O2  1  0.58013  0.20874  0.87624  1
 O  O3  1  0.58013  0.29126  0.37624  1
 O  O4  1  0.13236  0.33275  0.62030  1
 O  O5  1  0.66654  0.60086  0.96734  1
 O  O6  1  0.33346  0.10086  0.53266  1
 O  O7  1  0.41987  0.79126  0.12376  1
 O  O8  1  0.66654  0.89914  0.46734  1
 O  O9  1  0.80517  0.99049  0.25207  1
 O  O10  1  0.19483  0.00951  0.74793  1
 O  O11  1  0.33346  0.39914  0.03266  1
 O  O12  1  0.80517  0.50951  0.75207  1
 O  O13  1  0.86764  0.66725  0.37970  1
 O  O14  1  0.13236  0.16725  0.12030  1
 O  O15  1  0.19483  0.49049  0.24793  1
 O  O16  1  0.86764  0.83275  0.87970  1
 S  S1  1  0.68830  0.83832  0.30289  1
 S  S2  1  0.31170  0.33832  0.19711  1
 S  S3  1  0.31170  0.16168  0.69711  1
 S  S4  1  0.68830  0.66168  0.80289  1
