CIF file written using JARVIS-Tools package.
data_Mg2Mn2O5
_symmetry_space_group_name_H-M  'Pbam'
_cell_length_a       3.60829
_cell_length_b       5.27725
_cell_length_c       10.418
_cell_angle_alpha    90
_cell_angle_beta     90
_cell_angle_gamma    90

_symmetry_Int_Tables_number  55
_chemical_formula_structural  Mg2Mn2O5
_chemical_formula_sum  Mg4Mn4O0
_cell_volume  198.3775729581256
_cell_formula_units_Z  2
loop_
  _symmetry_equiv_pos_site_id
 _symmetry_equiv_pos_as_xyz
 1  'x, y, z'
loop_
 _atom_site_type_symbol
 _atom_site_label
 _atom_site_symmetry_multiplicity
 _atom_site_fract_x
 _atom_site_fract_y
 _atom_site_fract_z
 _atom_site_fract_occupancy
 Mg  Mg1  1  0.50000  0.26367  0.34970  1
 Mg  Mg2  1  0.50000  0.73631  0.15030  1
 Mg  Mg3  1  0.50000  0.76367  0.65030  1
 Mg  Mg4  1  0.50000  0.23631  0.84970  1
 Mn  Mn1  1  0.00000  0.22879  0.61686  1
 Mn  Mn2  1  0.00000  0.77120  0.88314  1
 Mn  Mn3  1  0.00000  0.27120  0.11686  1
 Mn  Mn4  1  0.00000  0.72879  0.38314  1
 O  O1  1  0.00000  -0.00001  0.25000  1
 O  O2  1  0.00000  0.13341  0.93839  1
 O  O3  1  0.00000  0.63341  0.06161  1
 O  O4  1  0.00000  0.49999  0.75000  1
 O  O5  1  0.50000  0.17694  0.65576  1
 O  O6  1  0.50000  0.67694  0.34424  1
 O  O7  1  0.00000  0.86657  0.56161  1
 O  O8  1  0.00000  0.36657  0.43839  1
 O  O9  1  0.50000  0.32305  0.15577  1
 O  O10  1  0.50000  0.82305  0.84423  1
