CIF file written using JARVIS-Tools package.
data_BiRh
_symmetry_space_group_name_H-M  'P6_3/mmc'
_cell_length_a       4.17881
_cell_length_b       4.17881
_cell_length_c       5.74072
_cell_angle_alpha    90
_cell_angle_beta     90
_cell_angle_gamma    120

_symmetry_Int_Tables_number  194
_chemical_formula_structural  BiRh
_chemical_formula_sum  Bi2Rh2
_cell_volume  86.81666823107324
_cell_formula_units_Z  2
loop_
  _symmetry_equiv_pos_site_id
 _symmetry_equiv_pos_as_xyz
 1  'x, y, z'
loop_
 _atom_site_type_symbol
 _atom_site_label
 _atom_site_symmetry_multiplicity
 _atom_site_fract_x
 _atom_site_fract_y
 _atom_site_fract_z
 _atom_site_fract_occupancy
 Bi  Bi1  1  0.66666  0.33334  0.75000  1
 Bi  Bi2  1  0.33334  0.66666  0.25000  1
 Rh  Rh1  1  0.00000  0.00000  0.50000  1
 Rh  Rh2  1  0.00000  0.00000  0.00000  1
