CIF file written using JARVIS-Tools package.
data_Li2HgPt
_symmetry_space_group_name_H-M  'C2/m'
_cell_length_a       10.9353
_cell_length_b       7.44477
_cell_length_c       6.24645
_cell_angle_alpha    41.9818
_cell_angle_beta     27.8738
_cell_angle_gamma    19.3738

_symmetry_Int_Tables_number  12
_chemical_formula_structural  Li2HgPt
_chemical_formula_sum  Li2HgPt
_cell_volume  64.02476118489993
_cell_formula_units_Z  1
loop_
  _symmetry_equiv_pos_site_id
 _symmetry_equiv_pos_as_xyz
 1  'x, y, z'
loop_
 _atom_site_type_symbol
 _atom_site_label
 _atom_site_symmetry_multiplicity
 _atom_site_fract_x
 _atom_site_fract_y
 _atom_site_fract_z
 _atom_site_fract_occupancy
 Hg  Hg1  1  0.50000  0.00000  0.00000  1
 Li  Li1  1  0.77357  0.00502  0.96357  1
 Li  Li2  1  0.22643  0.99498  0.03643  1
 Pt  Pt1  1  0.00000  0.00000  -0.00000  1
