CIF file written using JARVIS-Tools package.
data_BiSe
_symmetry_space_group_name_H-M  'C2/m'
_cell_length_a       4.12487
_cell_length_b       4.12487
_cell_length_c       7.80822
_cell_angle_alpha    74.6011
_cell_angle_beta     74.6011
_cell_angle_gamma    89.9982

_symmetry_Int_Tables_number  12
_chemical_formula_structural  BiSe
_chemical_formula_sum  Bi2Se2
_cell_volume  123.13032079698296
_cell_formula_units_Z  2
loop_
  _symmetry_equiv_pos_site_id
 _symmetry_equiv_pos_as_xyz
 1  'x, y, z'
loop_
 _atom_site_type_symbol
 _atom_site_label
 _atom_site_symmetry_multiplicity
 _atom_site_fract_x
 _atom_site_fract_y
 _atom_site_fract_z
 _atom_site_fract_occupancy
 Bi  Bi1  1  0.11033  0.11033  0.78014  1
 Bi  Bi2  1  0.88967  0.88967  0.21986  1
 Se  Se1  1  0.35471  0.35471  0.29099  1
 Se  Se2  1  0.64529  0.64529  0.70901  1
