CIF file written using JARVIS-Tools package.
data_SiO2
_symmetry_space_group_name_H-M  'P1'
_cell_length_a       5.12963
_cell_length_b       5.50852
_cell_length_c       5.88122
_cell_angle_alpha    96.0741
_cell_angle_beta     99.0223
_cell_angle_gamma    117.626

_symmetry_Int_Tables_number  1
_chemical_formula_structural  SiO2
_chemical_formula_sum  Si4O8
_cell_volume  142.3573374751703
_cell_formula_units_Z  4
loop_
  _symmetry_equiv_pos_site_id
 _symmetry_equiv_pos_as_xyz
 1  'x, y, z'
loop_
 _atom_site_type_symbol
 _atom_site_label
 _atom_site_symmetry_multiplicity
 _atom_site_fract_x
 _atom_site_fract_y
 _atom_site_fract_z
 _atom_site_fract_occupancy
 O  O1  1  0.40274  0.94165  0.95083  1
 O  O2  1  0.02897  0.99392  0.20022  1
 O  O3  1  0.77592  0.20652  0.46575  1
 O  O4  1  0.55017  0.43244  0.17027  1
 O  O5  1  0.16029  0.63176  0.31807  1
 O  O6  1  0.31072  0.26832  0.67514  1
 O  O7  1  0.84151  0.76796  0.56561  1
 O  O8  1  0.87927  0.47652  0.88901  1
 Si  Si1  1  0.82824  0.50324  0.39706  1
 Si  Si2  1  -0.00452  0.06497  0.47292  1
 Si  Si3  1  0.52917  0.27024  0.91100  1
 Si  Si4  1  0.13100  0.76854  0.08296  1
