CIF file written using JARVIS-Tools package.
data_Sr4CaFe2S2O6
_symmetry_space_group_name_H-M  'P-4m2'
_cell_length_a       3.89131
_cell_length_b       3.89147
_cell_length_c       16.772
_cell_angle_alpha    90
_cell_angle_beta     90
_cell_angle_gamma    90

_symmetry_Int_Tables_number  115
_chemical_formula_structural  Sr4CaFe2S2O6
_chemical_formula_sum  Sr4CaFe2S2O6
_cell_volume  253.97753022274347
_cell_formula_units_Z  1
loop_
  _symmetry_equiv_pos_site_id
 _symmetry_equiv_pos_as_xyz
 1  'x, y, z'
loop_
 _atom_site_type_symbol
 _atom_site_label
 _atom_site_symmetry_multiplicity
 _atom_site_fract_x
 _atom_site_fract_y
 _atom_site_fract_z
 _atom_site_fract_occupancy
 Ca  Ca1  1  0.50000  0.50000  0.00000  1
 Fe  Fe1  1  0.50000  0.00000  0.31952  1
 Fe  Fe2  1  0.00000  0.50000  0.68048  1
 O  O1  1  0.00000  0.00000  0.30237  1
 O  O2  1  0.50000  0.50000  0.30207  1
 O  O3  1  0.50000  0.50000  0.69794  1
 O  O4  1  0.00000  0.00000  0.69763  1
 O  O5  1  0.50000  0.00000  0.43511  1
 O  O6  1  0.00000  0.50000  0.56489  1
 S  S1  1  0.50000  0.00000  0.11194  1
 S  S2  1  0.00000  0.50000  0.88807  1
 Sr  Sr1  1  0.00000  0.50000  0.20378  1
 Sr  Sr2  1  0.50000  0.00000  0.79622  1
 Sr  Sr3  1  0.00000  0.50000  0.41739  1
 Sr  Sr4  1  0.50000  0.00000  0.58261  1
