CIF file written using JARVIS-Tools package.
data_Sr2BN2Cl
_symmetry_space_group_name_H-M  'Pnma'
_cell_length_a       4.16105
_cell_length_b       9.26897
_cell_length_c       12.4284
_cell_angle_alpha    90
_cell_angle_beta     90
_cell_angle_gamma    90

_symmetry_Int_Tables_number  62
_chemical_formula_structural  Sr2BN2Cl
_chemical_formula_sum  Sr8B4N8Cl4
_cell_volume  479.34633116173535
_cell_formula_units_Z  4
loop_
  _symmetry_equiv_pos_site_id
 _symmetry_equiv_pos_as_xyz
 1  'x, y, z'
loop_
 _atom_site_type_symbol
 _atom_site_label
 _atom_site_symmetry_multiplicity
 _atom_site_fract_x
 _atom_site_fract_y
 _atom_site_fract_z
 _atom_site_fract_occupancy
 B  B1  1  0.25000  0.67176  0.83397  1
 B  B2  1  0.75000  0.32824  0.16603  1
 B  B3  1  0.75000  0.17176  0.66603  1
 B  B4  1  0.25000  0.82824  0.33397  1
 Cl  Cl1  1  0.75000  0.85489  0.06228  1
 Cl  Cl2  1  0.25000  0.14511  0.93772  1
 Cl  Cl3  1  0.25000  0.35489  0.43772  1
 Cl  Cl4  1  0.75000  0.64511  0.56228  1
 N  N1  1  0.75000  0.30113  0.71407  1
 N  N2  1  0.25000  0.69887  0.28593  1
 N  N3  1  0.25000  0.80113  0.78593  1
 N  N4  1  0.75000  0.46222  0.12290  1
 N  N5  1  0.75000  0.03778  0.62290  1
 N  N6  1  0.25000  0.96222  0.37710  1
 N  N7  1  0.25000  0.53778  0.87710  1
 N  N8  1  0.75000  0.19887  0.21407  1
 Sr  Sr1  1  0.25000  0.44219  0.67004  1
 Sr  Sr2  1  0.25000  0.05781  0.17004  1
 Sr  Sr3  1  0.75000  0.94219  0.82996  1
 Sr  Sr4  1  0.75000  0.11799  0.41293  1
 Sr  Sr5  1  0.75000  0.38201  0.91293  1
 Sr  Sr6  1  0.25000  0.61799  0.08707  1
 Sr  Sr7  1  0.75000  0.55781  0.32996  1
 Sr  Sr8  1  0.25000  0.88201  0.58707  1
