CIF file written using JARVIS-Tools package.
data_Li2CO3
_symmetry_space_group_name_H-M  'P6_3/mcm'
_cell_length_a       4.61049
_cell_length_b       4.61049
_cell_length_c       5.29745
_cell_angle_alpha    90
_cell_angle_beta     90
_cell_angle_gamma    120

_symmetry_Int_Tables_number  193
_chemical_formula_structural  Li2CO3
_chemical_formula_sum  Li4C2O6
_cell_volume  97.51941997273696
_cell_formula_units_Z  2
loop_
  _symmetry_equiv_pos_site_id
 _symmetry_equiv_pos_as_xyz
 1  'x, y, z'
loop_
 _atom_site_type_symbol
 _atom_site_label
 _atom_site_symmetry_multiplicity
 _atom_site_fract_x
 _atom_site_fract_y
 _atom_site_fract_z
 _atom_site_fract_occupancy
 C  C1  1  0.00000  0.00000  0.75000  1
 C  C2  1  0.00000  0.00000  0.25000  1
 Li  Li1  1  0.33333  0.66667  0.00000  1
 Li  Li2  1  0.66667  0.33333  0.00000  1
 Li  Li3  1  0.33333  0.66667  0.50000  1
 Li  Li4  1  0.66667  0.33333  0.50000  1
 O  O1  1  0.71787  0.71787  0.25000  1
 O  O2  1  0.28213  0.28213  0.75000  1
 O  O3  1  -0.00000  0.28213  0.25000  1
 O  O4  1  0.00000  0.71787  0.75000  1
 O  O5  1  0.28213  -0.00000  0.25000  1
 O  O6  1  0.71787  0.00000  0.75000  1
