CIF file written using JARVIS-Tools package.
data_Nb4FeSi
_symmetry_space_group_name_H-M  'P4/mcc'
_cell_length_a       6.19638
_cell_length_b       6.19638
_cell_length_c       5.10546
_cell_angle_alpha    90
_cell_angle_beta     90
_cell_angle_gamma    90

_symmetry_Int_Tables_number  124
_chemical_formula_structural  Nb4FeSi
_chemical_formula_sum  Nb8Fe2Si2
_cell_volume  196.02463948425623
_cell_formula_units_Z  2
loop_
  _symmetry_equiv_pos_site_id
 _symmetry_equiv_pos_as_xyz
 1  'x, y, z'
loop_
 _atom_site_type_symbol
 _atom_site_label
 _atom_site_symmetry_multiplicity
 _atom_site_fract_x
 _atom_site_fract_y
 _atom_site_fract_z
 _atom_site_fract_occupancy
 Fe  Fe1  1  0.00000  0.00000  0.75000  1
 Fe  Fe2  1  0.00000  0.00000  0.25000  1
 Nb  Nb1  1  0.15154  0.33138  0.00000  1
 Nb  Nb2  1  0.33138  0.84846  0.00000  1
 Nb  Nb3  1  0.84846  0.66862  0.00000  1
 Nb  Nb4  1  0.66862  0.84846  0.50000  1
 Nb  Nb5  1  0.15154  0.66862  0.50000  1
 Nb  Nb6  1  0.84846  0.33138  0.50000  1
 Nb  Nb7  1  0.66862  0.15154  0.00000  1
 Nb  Nb8  1  0.33138  0.15154  0.50000  1
 Si  Si1  1  0.50000  0.50000  0.75000  1
 Si  Si2  1  0.50000  0.50000  0.25000  1
