CIF file written using JARVIS-Tools package.
data_RbLiF2
_symmetry_space_group_name_H-M  'C2/c'
_cell_length_a       5.81735
_cell_length_b       6.2691
_cell_length_c       7.83549
_cell_angle_alpha    87.2763
_cell_angle_beta     84.1215
_cell_angle_gamma    62.3564

_symmetry_Int_Tables_number  15
_chemical_formula_structural  RbLiF2
_chemical_formula_sum  Rb4Li4F8
_cell_volume  251.80693327196713
_cell_formula_units_Z  4
loop_
  _symmetry_equiv_pos_site_id
 _symmetry_equiv_pos_as_xyz
 1  'x, y, z'
loop_
 _atom_site_type_symbol
 _atom_site_label
 _atom_site_symmetry_multiplicity
 _atom_site_fract_x
 _atom_site_fract_y
 _atom_site_fract_z
 _atom_site_fract_occupancy
 F  F1  1  0.11401  0.77197  0.25000  1
 F  F2  1  0.31687  0.36626  0.75000  1
 F  F3  1  0.88599  0.22803  0.75000  1
 F  F4  1  0.68313  0.63374  0.25000  1
 F  F5  1  0.15057  0.27787  0.41511  1
 F  F6  1  0.57156  0.27787  0.08489  1
 F  F7  1  0.84943  0.72213  0.58489  1
 F  F8  1  0.42844  0.72213  0.91511  1
 Li  Li1  1  0.44075  0.60487  0.13921  1
 Li  Li2  1  0.55925  0.39513  0.86079  1
 Li  Li3  1  0.04562  0.39513  0.63921  1
 Li  Li4  1  0.95438  0.60487  0.36079  1
 Rb  Rb1  1  0.32431  0.81798  0.56848  1
 Rb  Rb2  1  0.85771  0.81798  0.93152  1
 Rb  Rb3  1  0.67569  0.18202  0.43152  1
 Rb  Rb4  1  0.14229  0.18202  0.06848  1
