CIF file written using JARVIS-Tools package.
data_Mn4O7F
_symmetry_space_group_name_H-M  'C2'
_cell_length_a       4.33072
_cell_length_b       7.23387
_cell_length_c       7.23387
_cell_angle_alpha    96.1577
_cell_angle_beta     90.4021
_cell_angle_gamma    90.4021

_symmetry_Int_Tables_number  5
_chemical_formula_structural  Mn4O7F
_chemical_formula_sum  Mn8O4F2
_cell_volume  225.3019234835606
_cell_formula_units_Z  2
loop_
  _symmetry_equiv_pos_site_id
 _symmetry_equiv_pos_as_xyz
 1  'x, y, z'
loop_
 _atom_site_type_symbol
 _atom_site_label
 _atom_site_symmetry_multiplicity
 _atom_site_fract_x
 _atom_site_fract_y
 _atom_site_fract_z
 _atom_site_fract_occupancy
 F  F1  1  0.24918  0.90054  0.01801  1
 F  F2  1  0.75082  0.23199  0.34946  1
 Mn  Mn1  1  0.00000  0.05208  0.19792  1
 Mn  Mn2  1  0.01987  0.45688  0.30179  1
 Mn  Mn3  1  -0.00000  0.55309  0.69691  1
 Mn  Mn4  1  0.52390  0.68519  0.05301  1
 Mn  Mn5  1  0.50000  0.80393  0.44607  1
 Mn  Mn6  1  0.47610  0.19699  0.56481  1
 Mn  Mn7  1  0.50000  0.30130  0.94870  1
 Mn  Mn8  1  0.98013  0.94821  0.79312  1
 O  O1  1  0.73939  0.85086  0.23058  1
 O  O2  1  0.76655  0.09507  0.98339  1
 O  O3  1  0.77406  0.73073  0.84937  1
 O  O4  1  0.76682  0.59792  0.47960  1
 O  O5  1  0.73038  0.98701  0.59572  1
 O  O6  1  0.74517  0.47926  0.09806  1
 O  O7  1  0.25483  0.15194  0.77074  1
 O  O8  1  0.26962  0.65428  0.26299  1
 O  O9  1  0.27107  0.51727  0.90161  1
 O  O10  1  0.22594  0.40063  0.51927  1
 O  O11  1  0.23345  0.26661  0.15493  1
 O  O12  1  0.23318  0.77040  0.65208  1
 O  O13  1  0.72893  0.34839  0.73273  1
 O  O14  1  0.26061  0.01942  0.39914  1
