CIF file written using JARVIS-Tools package.
data_ErCoC2
_symmetry_space_group_name_H-M  'Amm2'
_cell_length_a       3.49503
_cell_length_b       3.74198
_cell_length_c       3.74198
_cell_angle_alpha    106.233
_cell_angle_beta     90
_cell_angle_gamma    90

_symmetry_Int_Tables_number  38
_chemical_formula_structural  ErCoC2
_chemical_formula_sum  ErCoC2
_cell_volume  46.98766647417408
_cell_formula_units_Z  1
loop_
  _symmetry_equiv_pos_site_id
 _symmetry_equiv_pos_as_xyz
 1  'x, y, z'
loop_
 _atom_site_type_symbol
 _atom_site_label
 _atom_site_symmetry_multiplicity
 _atom_site_fract_x
 _atom_site_fract_y
 _atom_site_fract_z
 _atom_site_fract_occupancy
 C  C1  1  0.50000  0.45060  0.85465  1
 C  C2  1  0.50000  0.14535  0.54940  1
 Co  Co1  1  0.50000  0.60918  0.39082  1
 Er  Er1  1  0.00000  0.99058  0.00942  1
