CIF file written using JARVIS-Tools package.
data_IO2
_symmetry_space_group_name_H-M  'P2_1/c'
_cell_length_a       7.76143
_cell_length_b       6.77917
_cell_length_c       8.25946
_cell_angle_alpha    90
_cell_angle_beta     116.572
_cell_angle_gamma    90

_symmetry_Int_Tables_number  14
_chemical_formula_structural  IO2
_chemical_formula_sum  I8O6
_cell_volume  388.67601107547324
_cell_formula_units_Z  8
loop_
  _symmetry_equiv_pos_site_id
 _symmetry_equiv_pos_as_xyz
 1  'x, y, z'
loop_
 _atom_site_type_symbol
 _atom_site_label
 _atom_site_symmetry_multiplicity
 _atom_site_fract_x
 _atom_site_fract_y
 _atom_site_fract_z
 _atom_site_fract_occupancy
 I  I1  1  0.13811  0.13288  0.31166  1
 I  I2  1  0.86189  0.63288  0.18834  1
 I  I3  1  0.86189  0.86712  0.68834  1
 I  I4  1  0.13811  0.36712  0.81166  1
 I  I5  1  0.67435  0.25955  0.85282  1
 I  I6  1  0.32565  0.75955  0.64718  1
 I  I7  1  0.32565  0.74045  0.14718  1
 I  I8  1  0.67435  0.24045  0.35282  1
 O  O1  1  0.94037  0.25412  0.48765  1
 O  O2  1  0.05963  0.75412  0.01235  1
 O  O3  1  0.05963  0.74588  0.51235  1
 O  O4  1  0.68803  0.94729  0.78702  1
 O  O5  1  0.67745  0.35304  0.64825  1
 O  O6  1  0.32255  0.85304  0.85175  1
 O  O7  1  0.94037  0.24588  0.98765  1
 O  O8  1  0.68531  0.94654  0.44161  1
 O  O9  1  0.31469  0.05346  0.55839  1
 O  O10  1  0.68531  0.55346  0.94161  1
 O  O11  1  0.32255  0.64696  0.35175  1
 O  O12  1  0.31469  0.44654  0.05839  1
 O  O13  1  0.31197  0.05271  0.21298  1
 O  O14  1  0.68803  0.55271  0.28702  1
 O  O15  1  0.67745  0.14696  0.14825  1
 O  O16  1  0.31197  0.44729  0.71298  1
