CIF file written using JARVIS-Tools package.
data_AgO2F
_symmetry_space_group_name_H-M  'C2/m'
_cell_length_a       3.86237
_cell_length_b       4.79888
_cell_length_c       5.90439
_cell_angle_alpha    85.2023
_cell_angle_beta     109.091
_cell_angle_gamma    90

_symmetry_Int_Tables_number  12
_chemical_formula_structural  AgO2F
_chemical_formula_sum  Ag2O4F2
_cell_volume  103.01285990421349
_cell_formula_units_Z  2
loop_
  _symmetry_equiv_pos_site_id
 _symmetry_equiv_pos_as_xyz
 1  'x, y, z'
loop_
 _atom_site_type_symbol
 _atom_site_label
 _atom_site_symmetry_multiplicity
 _atom_site_fract_x
 _atom_site_fract_y
 _atom_site_fract_z
 _atom_site_fract_occupancy
 Ag  Ag1  1  0.65120  0.76178  0.30240  1
 Ag  Ag2  1  0.34880  0.23822  0.69760  1
 F  F1  1  0.75409  0.24007  0.50818  1
 F  F2  1  0.24591  0.75993  0.49182  1
 O  O1  1  0.84742  0.27286  0.02374  1
 O  O2  1  0.17632  0.27286  0.02374  1
 O  O3  1  0.82368  0.72714  -0.02374  1
 O  O4  1  0.15258  0.72714  -0.02374  1
