CIF file written using JARVIS-Tools package.
data_Mg2SnN2
_symmetry_space_group_name_H-M  'C2'
_cell_length_a       4.07308
_cell_length_b       5.67216
_cell_length_c       7.02734
_cell_angle_alpha    108.573
_cell_angle_beta     89.9999
_cell_angle_gamma    111.04

_symmetry_Int_Tables_number  5
_chemical_formula_structural  Mg2SnN2
_chemical_formula_sum  Mg4Sn2N4
_cell_volume  142.43224483176948
_cell_formula_units_Z  2
loop_
  _symmetry_equiv_pos_site_id
 _symmetry_equiv_pos_as_xyz
 1  'x, y, z'
loop_
 _atom_site_type_symbol
 _atom_site_label
 _atom_site_symmetry_multiplicity
 _atom_site_fract_x
 _atom_site_fract_y
 _atom_site_fract_z
 _atom_site_fract_occupancy
 Mg  Mg1  1  0.32083  0.66683  0.47833  1
 Mg  Mg2  1  0.65440  0.33393  0.52012  1
 Mg  Mg3  1  0.98089  0.98246  0.29591  1
 Mg  Mg4  1  0.99876  0.01828  0.70255  1
 N  N1  1  0.82085  0.66933  0.41199  1
 N  N2  1  0.15187  0.33141  0.58647  1
 N  N3  1  0.46821  0.96736  0.77947  1
 N  N4  1  0.50126  0.03336  0.21900  1
 Sn  Sn1  1  0.72543  0.33896  0.07836  1
 Sn  Sn2  1  0.38685  0.66175  0.92010  1
