CIF file written using JARVIS-Tools package.
data_Zr2CoIr
_symmetry_space_group_name_H-M  'Immm'
_cell_length_a       9.93012
_cell_length_b       5.72539
_cell_length_c       5.72539
_cell_angle_alpha    50.8009
_cell_angle_beta     29.8651
_cell_angle_gamma    29.8651

_symmetry_Int_Tables_number  71
_chemical_formula_structural  Zr2CoIr
_chemical_formula_sum  Zr2CoIr
_cell_volume  70.6302318616828
_cell_formula_units_Z  1
loop_
  _symmetry_equiv_pos_site_id
 _symmetry_equiv_pos_as_xyz
 1  'x, y, z'
loop_
 _atom_site_type_symbol
 _atom_site_label
 _atom_site_symmetry_multiplicity
 _atom_site_fract_x
 _atom_site_fract_y
 _atom_site_fract_z
 _atom_site_fract_occupancy
 Co  Co1  1  0.00000  0.00000  0.00000  1
 Ir  Ir1  1  0.50000  0.00000  -0.00000  1
 Zr  Zr1  1  0.76193  0.00000  0.00000  1
 Zr  Zr2  1  0.23807  -0.00000  -0.00000  1
