CIF file written using JARVIS-Tools package.
data_CeSmO2
_symmetry_space_group_name_H-M  'I4_1/amd'
_cell_length_a       4.95805
_cell_length_b       4.95796
_cell_length_c       6.07149
_cell_angle_alpha    114.094
_cell_angle_beta     114.101
_cell_angle_gamma    90.0065

_symmetry_Int_Tables_number  141
_chemical_formula_structural  CeSmO2
_chemical_formula_sum  Ce2Sm2O4
_cell_volume  121.85038555785752
_cell_formula_units_Z  2
loop_
  _symmetry_equiv_pos_site_id
 _symmetry_equiv_pos_as_xyz
 1  'x, y, z'
loop_
 _atom_site_type_symbol
 _atom_site_label
 _atom_site_symmetry_multiplicity
 _atom_site_fract_x
 _atom_site_fract_y
 _atom_site_fract_z
 _atom_site_fract_occupancy
 Ce  Ce1  1  0.75340  0.25120  0.50240  1
 Ce  Ce2  1  0.50339  0.50121  0.00241  1
 O  O1  1  0.25236  0.25015  0.50030  1
 O  O2  1  0.75445  0.75226  0.50455  1
 O  O3  1  0.50231  0.00014  0.00025  1
 O  O4  1  0.00444  0.50226  0.00452  1
 Sm  Sm1  1  0.00340  0.00121  0.00242  1
 Sm  Sm2  1  0.25337  0.75120  0.50239  1
