CIF file written using JARVIS-Tools package.
data_BaBrCl
_symmetry_space_group_name_H-M  'Pnma'
_cell_length_a       4.82355
_cell_length_b       8.18029
_cell_length_c       9.55589
_cell_angle_alpha    90
_cell_angle_beta     90
_cell_angle_gamma    90

_symmetry_Int_Tables_number  62
_chemical_formula_structural  BaBrCl
_chemical_formula_sum  Ba4Br4Cl4
_cell_volume  377.0560909535302
_cell_formula_units_Z  4
loop_
  _symmetry_equiv_pos_site_id
 _symmetry_equiv_pos_as_xyz
 1  'x, y, z'
loop_
 _atom_site_type_symbol
 _atom_site_label
 _atom_site_symmetry_multiplicity
 _atom_site_fract_x
 _atom_site_fract_y
 _atom_site_fract_z
 _atom_site_fract_occupancy
 Ba  Ba1  1  0.75000  0.73667  0.12216  1
 Ba  Ba2  1  0.25000  0.26333  0.87784  1
 Ba  Ba3  1  0.75000  0.23667  0.37784  1
 Ba  Ba4  1  0.25000  0.76333  0.62216  1
 Br  Br1  1  0.75000  0.97028  0.82794  1
 Br  Br2  1  0.25000  0.02972  0.17206  1
 Br  Br3  1  0.75000  0.47028  0.67206  1
 Br  Br4  1  0.25000  0.52972  0.32794  1
 Cl  Cl1  1  0.75000  0.85637  0.43251  1
 Cl  Cl2  1  0.25000  0.14363  0.56749  1
 Cl  Cl3  1  0.75000  0.35637  0.06749  1
 Cl  Cl4  1  0.25000  0.64363  0.93251  1
