CIF file written using JARVIS-Tools package.
data_LiIr3
_symmetry_space_group_name_H-M  'Imm2'
_cell_length_a       2.70389
_cell_length_b       4.71153
_cell_length_c       5.15727
_cell_angle_alpha    117.18
_cell_angle_beta     105.197
_cell_angle_gamma    90

_symmetry_Int_Tables_number  44
_chemical_formula_structural  LiIr3
_chemical_formula_sum  LiIr3
_cell_volume  55.850612296600524
_cell_formula_units_Z  1
loop_
  _symmetry_equiv_pos_site_id
 _symmetry_equiv_pos_as_xyz
 1  'x, y, z'
loop_
 _atom_site_type_symbol
 _atom_site_label
 _atom_site_symmetry_multiplicity
 _atom_site_fract_x
 _atom_site_fract_y
 _atom_site_fract_z
 _atom_site_fract_occupancy
 Ir  Ir1  1  0.24071  0.93387  0.48142  1
 Ir  Ir2  1  0.75929  0.45245  0.51858  1
 Ir  Ir3  1  0.50000  0.50076  1.00000  1
 Li  Li1  1  -0.00000  0.01692  0.00000  1
