CIF file written using JARVIS-Tools package.
data_TiMn2Ga
_symmetry_space_group_name_H-M  'Fm-3m'
_cell_length_a       4.19109
_cell_length_b       4.19124
_cell_length_c       4.19116
_cell_angle_alpha    59.9928
_cell_angle_beta     59.9974
_cell_angle_gamma    60.0009

_symmetry_Int_Tables_number  225
_chemical_formula_structural  TiMn2Ga
_chemical_formula_sum  TiMn2Ga
_cell_volume  52.0545392233593
_cell_formula_units_Z  1
loop_
  _symmetry_equiv_pos_site_id
 _symmetry_equiv_pos_as_xyz
 1  'x, y, z'
loop_
 _atom_site_type_symbol
 _atom_site_label
 _atom_site_symmetry_multiplicity
 _atom_site_fract_x
 _atom_site_fract_y
 _atom_site_fract_z
 _atom_site_fract_occupancy
 Ga  Ga1  1  0.25000  0.25000  0.25000  1
 Mn  Mn1  1  0.50000  0.50002  0.49997  1
 Mn  Mn2  1  0.00000  0.99998  0.00002  1
 Ti  Ti1  1  0.75000  0.75000  0.75000  1
