CIF file written using JARVIS-Tools package.
data_NaLiTl2
_symmetry_space_group_name_H-M  'Immm'
_cell_length_a       12.2915
_cell_length_b       13.0044
_cell_length_c       13.0044
_cell_angle_alpha    63.4146
_cell_angle_beta     61.7972
_cell_angle_gamma    61.7972

_symmetry_Int_Tables_number  71
_chemical_formula_structural  NaLiTl2
_chemical_formula_sum  NaLiTl2
_cell_volume  1545.683046417976
_cell_formula_units_Z  1
loop_
  _symmetry_equiv_pos_site_id
 _symmetry_equiv_pos_as_xyz
 1  'x, y, z'
loop_
 _atom_site_type_symbol
 _atom_site_label
 _atom_site_symmetry_multiplicity
 _atom_site_fract_x
 _atom_site_fract_y
 _atom_site_fract_z
 _atom_site_fract_occupancy
 Li  Li1  1  0.00000  0.00000  0.00000  1
 Na  Na1  1  0.50000  -0.00000  -0.00000  1
 Tl  Tl1  1  0.76275  0.00000  0.00000  1
 Tl  Tl2  1  0.23725  -0.00000  -0.00000  1
