CIF file written using JARVIS-Tools package.
data_ScTaPb2O6
_symmetry_space_group_name_H-M  'Fm-3m'
_cell_length_a       5.78354
_cell_length_b       5.78357
_cell_length_c       5.78345
_cell_angle_alpha    59.9985
_cell_angle_beta     60.0034
_cell_angle_gamma    60.0001

_symmetry_Int_Tables_number  225
_chemical_formula_structural  ScTaPb2O6
_chemical_formula_sum  ScTaPb2O6
_cell_volume  136.7942980246754
_cell_formula_units_Z  1
loop_
  _symmetry_equiv_pos_site_id
 _symmetry_equiv_pos_as_xyz
 1  'x, y, z'
loop_
 _atom_site_type_symbol
 _atom_site_label
 _atom_site_symmetry_multiplicity
 _atom_site_fract_x
 _atom_site_fract_y
 _atom_site_fract_z
 _atom_site_fract_occupancy
 O  O1  1  0.24417  0.75582  0.75582  1
 O  O2  1  0.75582  0.24418  0.24417  1
 O  O3  1  0.75581  0.24420  0.75580  1
 O  O4  1  0.24419  0.75581  0.24419  1
 O  O5  1  0.24417  0.24420  0.75581  1
 O  O6  1  0.75581  0.75582  0.24417  1
 Pb  Pb1  1  0.25001  0.24999  0.25002  1
 Pb  Pb2  1  0.75001  0.74998  0.75001  1
 Sc  Sc1  1  0.50000  0.50000  0.50000  1
 Ta  Ta1  1  0.00000  -0.00000  0.00000  1
