CIF file written using JARVIS-Tools package.
data_BaNa2Si2O6
_symmetry_space_group_name_H-M  'P2_1'
_cell_length_a       5.73531
_cell_length_b       4.79782
_cell_length_c       11.4684
_cell_angle_alpha    90
_cell_angle_beta     91.6019
_cell_angle_gamma    90

_symmetry_Int_Tables_number  4
_chemical_formula_structural  BaNa2Si2O6
_chemical_formula_sum  Ba2Na4Si4O2
_cell_volume  315.45180064291355
_cell_formula_units_Z  2
loop_
  _symmetry_equiv_pos_site_id
 _symmetry_equiv_pos_as_xyz
 1  'x, y, z'
loop_
 _atom_site_type_symbol
 _atom_site_label
 _atom_site_symmetry_multiplicity
 _atom_site_fract_x
 _atom_site_fract_y
 _atom_site_fract_z
 _atom_site_fract_occupancy
 Ba  Ba1  1  0.25187  0.74229  0.09682  1
 Ba  Ba2  1  0.74813  0.24229  0.90318  1
 Na  Na1  1  0.18133  0.75601  0.48528  1
 Na  Na2  1  0.70520  0.75364  0.67894  1
 Na  Na3  1  0.81867  0.25601  0.51472  1
 Na  Na4  1  0.29480  0.25364  0.32106  1
 O  O1  1  0.25398  0.63231  0.67861  1
 O  O2  1  0.74602  0.13231  0.32139  1
 O  O3  1  0.77562  0.73437  0.47877  1
 O  O4  1  0.46011  0.77315  0.88333  1
 O  O5  1  0.39899  0.75102  0.32252  1
 O  O6  1  0.82352  0.63028  0.24385  1
 O  O7  1  0.01293  0.22580  0.12723  1
 O  O8  1  0.17648  0.13028  0.75615  1
 O  O9  1  0.22438  0.23437  0.52123  1
 O  O10  1  0.98707  0.72580  0.87277  1
 O  O11  1  0.60101  0.25102  0.67748  1
 O  O12  1  0.53989  0.27315  0.11667  1
 Si  Si1  1  0.67658  0.79642  0.34826  1
 Si  Si2  1  0.77778  0.30371  0.19525  1
 Si  Si3  1  0.32342  0.29642  0.65174  1
 Si  Si4  1  0.22222  0.80371  0.80475  1
