CIF file written using JARVIS-Tools package.
data_PCl5
_symmetry_space_group_name_H-M  'P4/n'
_cell_length_a       8.98194
_cell_length_b       8.98194
_cell_length_c       7.6356
_cell_angle_alpha    90
_cell_angle_beta     90
_cell_angle_gamma    90

_symmetry_Int_Tables_number  85
_chemical_formula_structural  PCl5
_chemical_formula_sum  P4Cl20
_cell_volume  616.0041210783023
_cell_formula_units_Z  4
loop_
  _symmetry_equiv_pos_site_id
 _symmetry_equiv_pos_as_xyz
 1  'x, y, z'
loop_
 _atom_site_type_symbol
 _atom_site_label
 _atom_site_symmetry_multiplicity
 _atom_site_fract_x
 _atom_site_fract_y
 _atom_site_fract_z
 _atom_site_fract_occupancy
 Cl  Cl1  1  0.50000  0.00000  0.32171  1
 Cl  Cl2  1  0.82842  0.05104  0.14757  1
 Cl  Cl3  1  0.55104  0.67158  0.14757  1
 Cl  Cl4  1  0.44896  0.32842  0.14757  1
 Cl  Cl5  1  0.17158  0.94896  0.14757  1
 Cl  Cl6  1  0.67158  0.44896  0.85243  1
 Cl  Cl7  1  0.94896  0.82842  0.85243  1
 Cl  Cl8  1  0.05104  0.17158  0.85243  1
 Cl  Cl9  1  0.07897  0.27178  0.39140  1
 Cl  Cl10  1  0.32842  0.55104  0.85243  1
 Cl  Cl11  1  0.00000  0.50000  0.10372  1
 Cl  Cl12  1  0.22822  0.57897  0.39140  1
 Cl  Cl13  1  0.00000  0.50000  0.67829  1
 Cl  Cl14  1  0.72822  0.07897  0.60860  1
 Cl  Cl15  1  0.57897  0.77178  0.60860  1
 Cl  Cl16  1  0.42103  0.22822  0.60860  1
 Cl  Cl17  1  0.27178  0.92103  0.60860  1
 Cl  Cl18  1  0.77178  0.42103  0.39140  1
 Cl  Cl19  1  0.92103  0.72822  0.39140  1
 Cl  Cl20  1  0.50000  0.00000  0.89628  1
 P  P1  1  0.00000  0.50000  0.38617  1
 P  P2  1  0.50000  0.00000  0.61383  1
 P  P3  1  0.00000  0.00000  0.00000  1
 P  P4  1  0.50000  0.50000  0.00000  1
