CIF file written using JARVIS-Tools package.
data_LiPrO2
_symmetry_space_group_name_H-M  'P2_1/c'
_cell_length_a       5.81805
_cell_length_b       6.15966
_cell_length_c       5.82544
_cell_angle_alpha    90
_cell_angle_beta     102.21
_cell_angle_gamma    90

_symmetry_Int_Tables_number  14
_chemical_formula_structural  LiPrO2
_chemical_formula_sum  Li4Pr4O8
_cell_volume  204.04521078959272
_cell_formula_units_Z  4
loop_
  _symmetry_equiv_pos_site_id
 _symmetry_equiv_pos_as_xyz
 1  'x, y, z'
loop_
 _atom_site_type_symbol
 _atom_site_label
 _atom_site_symmetry_multiplicity
 _atom_site_fract_x
 _atom_site_fract_y
 _atom_site_fract_z
 _atom_site_fract_occupancy
 Li  Li1  1  0.33761  0.35844  0.31496  1
 Li  Li2  1  0.66239  0.64156  0.68504  1
 Li  Li3  1  0.33761  0.14156  0.81496  1
 Li  Li4  1  0.66239  0.85844  0.18504  1
 O  O1  1  0.90811  0.73819  0.48444  1
 O  O2  1  0.90811  0.76181  0.98444  1
 O  O3  1  0.09189  0.23819  0.01556  1
 O  O4  1  0.09189  0.26181  0.51556  1
 O  O5  1  0.42673  0.87005  0.70606  1
 O  O6  1  0.57327  0.37005  0.79394  1
 O  O7  1  0.57327  0.12995  0.29394  1
 O  O8  1  0.42673  0.62995  0.20606  1
 Pr  Pr1  1  0.20067  0.56976  0.80188  1
 Pr  Pr2  1  0.79933  0.06976  0.69812  1
 Pr  Pr3  1  0.79933  0.43024  0.19812  1
 Pr  Pr4  1  0.20067  0.93024  0.30188  1
