CIF file written using JARVIS-Tools package.
data_Mn2VGe
_symmetry_space_group_name_H-M  'Fm-3m'
_cell_length_a       4.07163
_cell_length_b       4.07179
_cell_length_c       4.07185
_cell_angle_alpha    59.9943
_cell_angle_beta     59.999
_cell_angle_gamma    59.9994

_symmetry_Int_Tables_number  225
_chemical_formula_structural  Mn2VGe
_chemical_formula_sum  Mn2VGe
_cell_volume  47.731570532134796
_cell_formula_units_Z  1
loop_
  _symmetry_equiv_pos_site_id
 _symmetry_equiv_pos_as_xyz
 1  'x, y, z'
loop_
 _atom_site_type_symbol
 _atom_site_label
 _atom_site_symmetry_multiplicity
 _atom_site_fract_x
 _atom_site_fract_y
 _atom_site_fract_z
 _atom_site_fract_occupancy
 Ge  Ge1  1  0.25000  0.25000  0.25000  1
 Mn  Mn1  1  0.00000  0.00001  -0.00000  1
 Mn  Mn2  1  0.49999  0.50000  0.50002  1
 V  V1  1  0.75000  0.74999  0.74998  1
