CIF file written using JARVIS-Tools package.
data_KN
_symmetry_space_group_name_H-M  'Pmmn'
_cell_length_a       4.03705
_cell_length_b       4.03925
_cell_length_c       5.71116
_cell_angle_alpha    89.9866
_cell_angle_beta     90
_cell_angle_gamma    90

_symmetry_Int_Tables_number  59
_chemical_formula_structural  KN
_chemical_formula_sum  K2N2
_cell_volume  93.12979997286683
_cell_formula_units_Z  2
loop_
  _symmetry_equiv_pos_site_id
 _symmetry_equiv_pos_as_xyz
 1  'x, y, z'
loop_
 _atom_site_type_symbol
 _atom_site_label
 _atom_site_symmetry_multiplicity
 _atom_site_fract_x
 _atom_site_fract_y
 _atom_site_fract_z
 _atom_site_fract_occupancy
 K  K1  1  0.75000  0.75146  0.74996  1
 K  K2  1  0.25000  0.24854  0.25004  1
 N  N1  1  0.75000  0.74831  0.24990  1
 N  N2  1  0.25000  0.25169  0.75010  1
