CIF file written using JARVIS-Tools package.
data_ZnTe
_symmetry_space_group_name_H-M  'Cmcm'
_cell_length_a       4.32299
_cell_length_b       4.32298
_cell_length_c       5.49875
_cell_angle_alpha    90
_cell_angle_beta     90
_cell_angle_gamma    100.237

_symmetry_Int_Tables_number  63
_chemical_formula_structural  ZnTe
_chemical_formula_sum  Zn2Te2
_cell_volume  101.12571132413157
_cell_formula_units_Z  2
loop_
  _symmetry_equiv_pos_site_id
 _symmetry_equiv_pos_as_xyz
 1  'x, y, z'
loop_
 _atom_site_type_symbol
 _atom_site_label
 _atom_site_symmetry_multiplicity
 _atom_site_fract_x
 _atom_site_fract_y
 _atom_site_fract_z
 _atom_site_fract_occupancy
 Te  Te1  1  0.22845  0.77155  0.75000  1
 Te  Te2  1  0.77155  0.22845  0.25000  1
 Zn  Zn1  1  0.63928  0.36072  0.75000  1
 Zn  Zn2  1  0.36072  0.63928  0.25000  1
