CIF file written using JARVIS-Tools package.
data_CoAsS
_symmetry_space_group_name_H-M  'Pmn2_1'
_cell_length_a       3.48689
_cell_length_b       4.63059
_cell_length_c       5.5965
_cell_angle_alpha    90
_cell_angle_beta     90
_cell_angle_gamma    90

_symmetry_Int_Tables_number  31
_chemical_formula_structural  CoAsS
_chemical_formula_sum  Co2As2S2
_cell_volume  90.36311175248213
_cell_formula_units_Z  2
loop_
  _symmetry_equiv_pos_site_id
 _symmetry_equiv_pos_as_xyz
 1  'x, y, z'
loop_
 _atom_site_type_symbol
 _atom_site_label
 _atom_site_symmetry_multiplicity
 _atom_site_fract_x
 _atom_site_fract_y
 _atom_site_fract_z
 _atom_site_fract_occupancy
 As  As1  1  0.50000  0.04028  0.37128  1
 As  As2  1  0.00000  0.95972  0.87128  1
 Co  Co1  1  0.00000  0.73750  0.49723  1
 Co  Co2  1  0.50000  0.26250  0.99723  1
 S  S1  1  0.00000  0.54978  0.12533  1
 S  S2  1  0.50000  0.45022  0.62533  1
