CIF file written using JARVIS-Tools package.
data_ZrBr
_symmetry_space_group_name_H-M  'R-3m'
_cell_length_a       3.52803
_cell_length_b       3.52803
_cell_length_c       9.63019
_cell_angle_alpha    79.4251
_cell_angle_beta     79.4251
_cell_angle_gamma    60.0047

_symmetry_Int_Tables_number  166
_chemical_formula_structural  ZrBr
_chemical_formula_sum  Zr2Br2
_cell_volume  101.45480091657741
_cell_formula_units_Z  2
loop_
  _symmetry_equiv_pos_site_id
 _symmetry_equiv_pos_as_xyz
 1  'x, y, z'
loop_
 _atom_site_type_symbol
 _atom_site_label
 _atom_site_symmetry_multiplicity
 _atom_site_fract_x
 _atom_site_fract_y
 _atom_site_fract_z
 _atom_site_fract_occupancy
 Br  Br1  1  0.10886  0.10886  0.17418  1
 Br  Br2  1  0.89114  0.89114  0.82582  1
 Zr  Zr1  1  0.70830  0.70830  0.37542  1
 Zr  Zr2  1  0.29170  0.29170  0.62458  1
