CIF file written using JARVIS-Tools package.
data_Na2ZnGeO4
_symmetry_space_group_name_H-M  'Pc'
_cell_length_a       5.37706
_cell_length_b       5.63329
_cell_length_c       8.9724
_cell_angle_alpha    90
_cell_angle_beta     126.728
_cell_angle_gamma    90

_symmetry_Int_Tables_number  7
_chemical_formula_structural  Na2ZnGeO4
_chemical_formula_sum  Na4Zn2Ge2O8
_cell_volume  217.82507385048226
_cell_formula_units_Z  2
loop_
  _symmetry_equiv_pos_site_id
 _symmetry_equiv_pos_as_xyz
 1  'x, y, z'
loop_
 _atom_site_type_symbol
 _atom_site_label
 _atom_site_symmetry_multiplicity
 _atom_site_fract_x
 _atom_site_fract_y
 _atom_site_fract_z
 _atom_site_fract_occupancy
 Ge  Ge1  1  0.74556  0.68374  0.75063  1
 Ge  Ge2  1  0.74556  0.31626  0.25063  1
 Na  Na1  1  0.51122  0.82126  0.00332  1
 Na  Na2  1  0.25856  0.32052  0.74816  1
 Na  Na3  1  0.51122  0.17874  0.50332  1
 Na  Na4  1  0.25856  0.67948  0.24816  1
 O  O1  1  0.39090  0.29553  0.22630  1
 O  O2  1  0.39090  0.70447  0.72630  1
 O  O3  1  0.67685  0.79555  0.54298  1
 O  O4  1  0.67685  0.20445  0.04298  1
 O  O5  1  0.03796  0.84460  0.95538  1
 O  O6  1  0.85577  0.62213  0.27513  1
 O  O7  1  0.85577  0.37787  0.77513  1
 O  O8  1  0.03796  0.15540  0.45538  1
 Zn  Zn1  1  0.99717  0.18570  0.99810  1
 Zn  Zn2  1  0.99717  0.81430  0.49810  1
