CIF file written using JARVIS-Tools package.
data_CrPO5
_symmetry_space_group_name_H-M  'P1'
_cell_length_a       5.00267
_cell_length_b       5.00047
_cell_length_c       7.22273
_cell_angle_alpha    108.052
_cell_angle_beta     103.622
_cell_angle_gamma    92.9544

_symmetry_Int_Tables_number  1
_chemical_formula_structural  CrPO5
_chemical_formula_sum  Cr2P2O0
_cell_volume  165.43308862182545
_cell_formula_units_Z  2
loop_
  _symmetry_equiv_pos_site_id
 _symmetry_equiv_pos_as_xyz
 1  'x, y, z'
loop_
 _atom_site_type_symbol
 _atom_site_label
 _atom_site_symmetry_multiplicity
 _atom_site_fract_x
 _atom_site_fract_y
 _atom_site_fract_z
 _atom_site_fract_occupancy
 Cr  Cr1  1  0.49726  0.94899  0.46404  1
 Cr  Cr2  1  0.93479  0.49760  0.97673  1
 O  O1  1  0.13731  0.19042  0.91639  1
 O  O2  1  0.75385  0.82881  0.64758  1
 O  O3  1  0.87084  0.86913  0.11112  1
 O  O4  1  0.27456  0.20660  0.38503  1
 O  O5  1  0.79623  0.16840  0.44250  1
 O  O6  1  0.89034  0.40582  0.20332  1
 O  O7  1  0.23554  0.87322  0.59470  1
 O  O8  1  0.14811  0.66238  0.84750  1
 O  O9  1  0.42417  0.69151  0.26185  1
 O  O10  1  0.65081  0.37275  0.81414  1
 P  P1  1  0.06982  0.89427  0.75005  1
 P  P2  1  0.95805  0.15614  0.28282  1
