CIF file written using JARVIS-Tools package.
data_AcTe3
_symmetry_space_group_name_H-M  'I4/mmm'
_cell_length_a       6.72337
_cell_length_b       6.72337
_cell_length_c       6.72337
_cell_angle_alpha    139.003
_cell_angle_beta     139.003
_cell_angle_gamma    59.3703

_symmetry_Int_Tables_number  139
_chemical_formula_structural  AcTe3
_chemical_formula_sum  AcTe3
_cell_volume  129.51201512810093
_cell_formula_units_Z  1
loop_
  _symmetry_equiv_pos_site_id
 _symmetry_equiv_pos_as_xyz
 1  'x, y, z'
loop_
 _atom_site_type_symbol
 _atom_site_label
 _atom_site_symmetry_multiplicity
 _atom_site_fract_x
 _atom_site_fract_y
 _atom_site_fract_z
 _atom_site_fract_occupancy
 Ac  Ac1  1  0.00000  0.00000  0.00000  1
 Te  Te1  1  0.75000  0.25000  0.50000  1
 Te  Te2  1  0.25000  0.75000  0.50000  1
 Te  Te3  1  0.50000  0.50000  0.00000  1
