CIF file written using JARVIS-Tools package.
data_SbOF
_symmetry_space_group_name_H-M  'Pnma'
_cell_length_a       4.13791
_cell_length_b       5.51913
_cell_length_c       8.72764
_cell_angle_alpha    90
_cell_angle_beta     90
_cell_angle_gamma    90

_symmetry_Int_Tables_number  62
_chemical_formula_structural  SbOF
_chemical_formula_sum  Sb4O4F4
_cell_volume  199.3189003903038
_cell_formula_units_Z  4
loop_
  _symmetry_equiv_pos_site_id
 _symmetry_equiv_pos_as_xyz
 1  'x, y, z'
loop_
 _atom_site_type_symbol
 _atom_site_label
 _atom_site_symmetry_multiplicity
 _atom_site_fract_x
 _atom_site_fract_y
 _atom_site_fract_z
 _atom_site_fract_occupancy
 F  F1  1  0.75000  0.94571  0.72319  1
 F  F2  1  0.75000  0.55429  0.22319  1
 F  F3  1  0.25000  0.44571  0.77681  1
 F  F4  1  0.25000  0.05429  0.27681  1
 O  O1  1  0.25000  0.59282  0.44566  1
 O  O2  1  0.25000  0.90718  0.94566  1
 O  O3  1  0.75000  0.09282  0.05434  1
 O  O4  1  0.75000  0.40718  0.55434  1
 Sb  Sb1  1  0.25000  0.28141  0.57037  1
 Sb  Sb2  1  0.75000  0.71859  0.42963  1
 Sb  Sb3  1  0.75000  0.78141  0.92963  1
 Sb  Sb4  1  0.25000  0.21859  0.07037  1
