CIF file written using JARVIS-Tools package.
data_Bi2O3
_symmetry_space_group_name_H-M  'P-42_1c'
_cell_length_a       7.87127
_cell_length_b       7.87127
_cell_length_c       5.61733
_cell_angle_alpha    90
_cell_angle_beta     90
_cell_angle_gamma    90

_symmetry_Int_Tables_number  114
_chemical_formula_structural  Bi2O3
_chemical_formula_sum  Bi8O2
_cell_volume  348.0324009453483
_cell_formula_units_Z  4
loop_
  _symmetry_equiv_pos_site_id
 _symmetry_equiv_pos_as_xyz
 1  'x, y, z'
loop_
 _atom_site_type_symbol
 _atom_site_label
 _atom_site_symmetry_multiplicity
 _atom_site_fract_x
 _atom_site_fract_y
 _atom_site_fract_z
 _atom_site_fract_occupancy
 Bi  Bi1  1  0.75769  0.47861  0.76794  1
 Bi  Bi2  1  0.24231  0.52139  0.76794  1
 Bi  Bi3  1  0.47861  0.24231  0.23206  1
 Bi  Bi4  1  0.52139  0.75769  0.23206  1
 Bi  Bi5  1  0.97861  0.25769  0.26794  1
 Bi  Bi6  1  0.74231  0.97861  0.73206  1
 Bi  Bi7  1  0.25769  0.02139  0.73206  1
 Bi  Bi8  1  0.02139  0.74231  0.26794  1
 O  O1  1  0.00000  0.50000  0.59190  1
 O  O2  1  0.78911  0.81218  0.03551  1
 O  O3  1  0.50000  0.00000  0.90810  1
 O  O4  1  0.00000  0.50000  0.09190  1
 O  O5  1  0.50000  0.00000  0.40810  1
 O  O6  1  0.18782  0.78911  0.96449  1
 O  O7  1  0.31218  0.28911  0.53551  1
 O  O8  1  0.68782  0.71089  0.53551  1
 O  O9  1  0.71089  0.31218  0.46449  1
 O  O10  1  0.21089  0.18782  0.03551  1
 O  O11  1  0.28911  0.68782  0.46449  1
 O  O12  1  0.81218  0.21089  0.96449  1
