CIF file written using JARVIS-Tools package.
data_MgCr2F12
_symmetry_space_group_name_H-M  'P-1'
_cell_length_a       5.22373
_cell_length_b       10.5249
_cell_length_c       5.26145
_cell_angle_alpha    55.5394
_cell_angle_beta     55.6728
_cell_angle_gamma    56.2273

_symmetry_Int_Tables_number  2
_chemical_formula_structural  MgCr2F12
_chemical_formula_sum  MgCr2F2
_cell_volume  184.6706582772867
_cell_formula_units_Z  1
loop_
  _symmetry_equiv_pos_site_id
 _symmetry_equiv_pos_as_xyz
 1  'x, y, z'
loop_
 _atom_site_type_symbol
 _atom_site_label
 _atom_site_symmetry_multiplicity
 _atom_site_fract_x
 _atom_site_fract_y
 _atom_site_fract_z
 _atom_site_fract_occupancy
 Cr  Cr1  1  0.00775  0.01242  0.97608  1
 Cr  Cr2  1  -0.00775  0.48758  0.02392  1
 F  F1  1  0.37604  0.04936  0.76225  1
 F  F2  1  0.35240  0.55563  0.77171  1
 F  F3  1  0.08869  0.38460  0.37487  1
 F  F4  1  0.11474  0.88448  0.35268  1
 F  F5  1  0.22475  0.31761  0.91162  1
 F  F6  1  0.23590  0.82106  0.88485  1
 F  F7  1  0.91131  0.11540  0.62513  1
 F  F8  1  0.88526  0.61552  0.64732  1
 F  F9  1  0.62396  0.45064  0.23775  1
 F  F10  1  0.64760  0.94437  0.22829  1
 F  F11  1  0.77525  0.18239  0.08838  1
 F  F12  1  0.76410  0.67894  0.11515  1
 Mg  Mg1  1  0.50000  0.75000  0.50000  1
