CIF file written using JARVIS-Tools package.
data_TiO2
_symmetry_space_group_name_H-M  'I4/m'
_cell_length_a       2.9793
_cell_length_b       7.39517
_cell_length_c       7.3954
_cell_angle_alpha    87.6727
_cell_angle_beta     78.3778
_cell_angle_gamma    78.3771

_symmetry_Int_Tables_number  87
_chemical_formula_structural  TiO2
_chemical_formula_sum  Ti4O8
_cell_volume  156.32513340210426
_cell_formula_units_Z  4
loop_
  _symmetry_equiv_pos_site_id
 _symmetry_equiv_pos_as_xyz
 1  'x, y, z'
loop_
 _atom_site_type_symbol
 _atom_site_label
 _atom_site_symmetry_multiplicity
 _atom_site_fract_x
 _atom_site_fract_y
 _atom_site_fract_z
 _atom_site_fract_occupancy
 O  O1  1  0.83751  0.70581  0.61916  1
 O  O2  1  0.45669  0.38084  0.70580  1
 O  O3  1  0.54331  0.61916  0.29420  1
 O  O4  1  0.16249  0.29419  0.38084  1
 O  O5  1  0.15570  0.05097  0.63764  1
 O  O6  1  0.79335  0.36236  0.05098  1
 O  O7  1  0.84430  0.94903  0.36236  1
 O  O8  1  0.20665  0.63764  0.94902  1
 Ti  Ti1  1  0.63924  0.18360  0.53796  1
 Ti  Ti2  1  0.17719  0.46204  0.18360  1
 Ti  Ti3  1  0.82281  0.53796  0.81640  1
 Ti  Ti4  1  0.36076  0.81640  0.46204  1
