CIF file written using JARVIS-Tools package.
data_HfTiRh2
_symmetry_space_group_name_H-M  'C2/m'
_cell_length_a       10.2257
_cell_length_b       6.79116
_cell_length_c       6.79046
_cell_angle_alpha    25.2936
_cell_angle_beta     22.0222
_cell_angle_gamma    22.0183

_symmetry_Int_Tables_number  12
_chemical_formula_structural  HfTiRh2
_chemical_formula_sum  HfTiRh2
_cell_volume  62.848383248971516
_cell_formula_units_Z  1
loop_
  _symmetry_equiv_pos_site_id
 _symmetry_equiv_pos_as_xyz
 1  'x, y, z'
loop_
 _atom_site_type_symbol
 _atom_site_label
 _atom_site_symmetry_multiplicity
 _atom_site_fract_x
 _atom_site_fract_y
 _atom_site_fract_z
 _atom_site_fract_occupancy
 Hf  Hf1  1  0.50000  -0.00001  0.00001  1
 Rh  Rh1  1  0.74379  0.00741  0.00733  1
 Rh  Rh2  1  0.25621  -0.00738  -0.00736  1
 Ti  Ti1  1  -0.00000  0.99999  0.00001  1
