CIF file written using JARVIS-Tools package.
data_Li4CO4
_symmetry_space_group_name_H-M  'R3m'
_cell_length_a       4.11348
_cell_length_b       4.11348
_cell_length_c       4.11349
_cell_angle_alpha    91.2402
_cell_angle_beta     91.24
_cell_angle_gamma    91.2408

_symmetry_Int_Tables_number  160
_chemical_formula_structural  Li4CO4
_chemical_formula_sum  Li4CO4
_cell_volume  69.55354208907356
_cell_formula_units_Z  1
loop_
  _symmetry_equiv_pos_site_id
 _symmetry_equiv_pos_as_xyz
 1  'x, y, z'
loop_
 _atom_site_type_symbol
 _atom_site_label
 _atom_site_symmetry_multiplicity
 _atom_site_fract_x
 _atom_site_fract_y
 _atom_site_fract_z
 _atom_site_fract_occupancy
 C  C1  1  0.51873  0.51873  0.51873  1
 Li  Li1  1  0.23150  0.23150  0.23149  1
 Li  Li2  1  0.77759  0.77760  0.20389  1
 Li  Li3  1  0.77760  0.20389  0.77759  1
 Li  Li4  1  0.20389  0.77760  0.77759  1
 O  O1  1  0.31723  0.71438  0.31724  1
 O  O2  1  0.72520  0.72520  0.72521  1
 O  O3  1  0.31723  0.31723  0.71438  1
 O  O4  1  0.71438  0.31723  0.31723  1
