CIF file written using JARVIS-Tools package.
data_ZnS
_symmetry_space_group_name_H-M  'P3m1'
_cell_length_a       3.83928
_cell_length_b       3.83928
_cell_length_c       44.0101
_cell_angle_alpha    90
_cell_angle_beta     90
_cell_angle_gamma    120

_symmetry_Int_Tables_number  156
_chemical_formula_structural  ZnS
_chemical_formula_sum  Zn4S4
_cell_volume  561.8018380287722
_cell_formula_units_Z  14
loop_
  _symmetry_equiv_pos_site_id
 _symmetry_equiv_pos_as_xyz
 1  'x, y, z'
loop_
 _atom_site_type_symbol
 _atom_site_label
 _atom_site_symmetry_multiplicity
 _atom_site_fract_x
 _atom_site_fract_y
 _atom_site_fract_z
 _atom_site_fract_occupancy
 S  S1  1  0.33333  0.66667  0.87488  1
 S  S2  1  0.00000  0.00000  0.37540  1
 S  S3  1  0.00000  0.00000  0.23228  1
 S  S4  1  0.66667  0.33333  0.01754  1
 S  S5  1  0.66667  0.33333  0.80356  1
 S  S6  1  0.66667  0.33333  0.30386  1
 S  S7  1  0.33333  0.66667  0.66069  1
 S  S8  1  0.00000  0.00000  0.08913  1
 S  S9  1  0.00000  0.00000  0.73225  1
 S  S10  1  0.33333  0.66667  0.44670  1
 S  S11  1  0.66667  0.33333  0.16070  1
 S  S12  1  0.00000  0.00000  0.94619  1
 S  S13  1  0.66667  0.33333  0.51802  1
 S  S14  1  0.00000  0.00000  0.58933  1
 Zn  Zn1  1  0.66667  0.33333  0.85702  1
 Zn  Zn2  1  0.33333  0.66667  0.92834  1
 Zn  Zn3  1  0.66667  0.33333  0.21425  1
 Zn  Zn4  1  0.00000  0.00000  0.28582  1
 Zn  Zn5  1  0.66667  0.33333  0.35742  1
 Zn  Zn6  1  0.00000  0.00000  0.14267  1
 Zn  Zn7  1  0.00000  0.00000  0.99963  1
 Zn  Zn8  1  0.66667  0.33333  0.57148  1
 Zn  Zn9  1  0.66667  0.33333  0.07109  1
 Zn  Zn10  1  0.33333  0.66667  0.71426  1
 Zn  Zn11  1  0.33333  0.66667  0.50016  1
 Zn  Zn12  1  0.00000  0.00000  0.42885  1
 Zn  Zn13  1  0.00000  0.00000  0.78571  1
 Zn  Zn14  1  0.00000  0.00000  0.64278  1
