CIF file written using JARVIS-Tools package.
data_ErNbO4
_symmetry_space_group_name_H-M  'C2/c'
_cell_length_a       5.11444
_cell_length_b       5.28578
_cell_length_c       6.52019
_cell_angle_alpha    112.126
_cell_angle_beta     111.257
_cell_angle_gamma    94.195

_symmetry_Int_Tables_number  15
_chemical_formula_structural  ErNbO4
_chemical_formula_sum  Er2Nb2O8
_cell_volume  147.6180283500484
_cell_formula_units_Z  2
loop_
  _symmetry_equiv_pos_site_id
 _symmetry_equiv_pos_as_xyz
 1  'x, y, z'
loop_
 _atom_site_type_symbol
 _atom_site_label
 _atom_site_symmetry_multiplicity
 _atom_site_fract_x
 _atom_site_fract_y
 _atom_site_fract_z
 _atom_site_fract_occupancy
 Er  Er1  1  0.37841  0.62841  0.75682  1
 Er  Er2  1  0.62159  0.37159  0.24318  1
 Nb  Nb1  1  0.85816  0.10816  0.71633  1
 Nb  Nb2  1  0.14184  0.89184  0.28367  1
 O  O1  1  0.99149  0.78105  0.56288  1
 O  O2  1  0.57139  0.28184  0.56288  1
 O  O3  1  0.00851  0.21895  0.43712  1
 O  O4  1  0.42861  0.71816  0.43712  1
 O  O5  1  0.21498  0.37658  0.92548  1
 O  O6  1  0.71050  0.04889  0.92548  1
 O  O7  1  0.78502  0.62342  0.07452  1
 O  O8  1  0.28950  0.95111  0.07452  1
