data_image0
_chemical_formula_structural       Ge4Ni2Tm2
_chemical_formula_sum              "Ge4 Ni2 Tm2"
_cell_length_a       4.16664
_cell_length_b       4.00885
_cell_length_c       8.65091
_cell_angle_alpha    76.6027
_cell_angle_beta     90
_cell_angle_gamma    90

_space_group_name_H-M_alt    "P 1"
_space_group_IT_number       1

loop_
  _space_group_symop_operation_xyz
  'x, y, z'

loop_
  _atom_site_type_symbol
  _atom_site_label
  _atom_site_symmetry_multiplicity
  _atom_site_fract_x
  _atom_site_fract_y
  _atom_site_fract_z
  _atom_site_occupancy
  Ge  Ge1       1.0  0.75000  0.46000  0.08060  1.0000
  Ge  Ge2       1.0  0.25000  0.25200  0.49500  1.0000
  Ge  Ge3       1.0  0.75000  0.74800  0.50500  1.0000
  Ge  Ge4       1.0  0.25000  0.54000  0.91900  1.0000
  Ni  Ni1       1.0  0.75000  0.32400  0.35200  1.0000
  Ni  Ni2       1.0  0.25000  0.67600  0.64800  1.0000
  Tm  Tm1       1.0  0.25000  0.89200  0.21600  1.0000
  Tm  Tm2       1.0  0.75000  0.10800  0.78400  1.0000
