CIF file written using JARVIS-Tools package.
data_UAl3C3
_symmetry_space_group_name_H-M  'P6_3/mmc'
_cell_length_a       3.38701
_cell_length_b       3.38701
_cell_length_c       17.5212
_cell_angle_alpha    90
_cell_angle_beta     90
_cell_angle_gamma    120

_symmetry_Int_Tables_number  194
_chemical_formula_structural  UAl3C3
_chemical_formula_sum  U2Al6C6
_cell_volume  174.07205182196188
_cell_formula_units_Z  2
loop_
  _symmetry_equiv_pos_site_id
 _symmetry_equiv_pos_as_xyz
 1  'x, y, z'
loop_
 _atom_site_type_symbol
 _atom_site_label
 _atom_site_symmetry_multiplicity
 _atom_site_fract_x
 _atom_site_fract_y
 _atom_site_fract_z
 _atom_site_fract_occupancy
 Al  Al1  1  0.33333  0.66667  0.86278  1
 Al  Al2  1  0.66667  0.33333  0.13084  1
 Al  Al3  1  0.66667  0.33333  0.36278  1
 Al  Al4  1  0.33333  0.66667  0.24674  1
 Al  Al5  1  0.33333  0.66667  0.63084  1
 Al  Al6  1  0.66667  0.33333  0.74674  1
 C  C1  1  0.33333  0.66667  0.40167  1
 C  C2  1  0.66667  0.33333  0.59203  1
 C  C3  1  0.33333  0.66667  0.09203  1
 C  C4  1  0.66667  0.33333  0.90167  1
 C  C5  1  0.66667  0.33333  0.24682  1
 C  C6  1  0.33333  0.66667  0.74682  1
 U  U1  1  0.00000  0.00000  0.99682  1
 U  U2  1  0.00000  0.00000  0.49682  1
