CIF file written using JARVIS-Tools package.
data_V2CrMo
_symmetry_space_group_name_H-M  'Imm2'
_cell_length_a       13.8216
_cell_length_b       7.31726
_cell_length_c       7.32604
_cell_angle_alpha    23.0901
_cell_angle_beta     19.2737
_cell_angle_gamma    19.1718

_symmetry_Int_Tables_number  44
_chemical_formula_structural  V2CrMo
_chemical_formula_sum  V2CrMo
_cell_volume  77.53278937824724
_cell_formula_units_Z  1
loop_
  _symmetry_equiv_pos_site_id
 _symmetry_equiv_pos_as_xyz
 1  'x, y, z'
loop_
 _atom_site_type_symbol
 _atom_site_label
 _atom_site_symmetry_multiplicity
 _atom_site_fract_x
 _atom_site_fract_y
 _atom_site_fract_z
 _atom_site_fract_occupancy
 Cr  Cr1  1  0.00082  -0.00000  0.00000  1
 Mo  Mo1  1  0.49891  -0.00000  0.00000  1
 V  V1  1  0.67613  0.99981  0.00018  1
 V  V2  1  0.32414  0.00019  0.99981  1
