CIF file written using JARVIS-Tools package.
data_NdAsO4
_symmetry_space_group_name_H-M  'P2_1/c'
_cell_length_a       6.75989
_cell_length_b       7.16216
_cell_length_c       8.35325
_cell_angle_alpha    90
_cell_angle_beta     126.384
_cell_angle_gamma    90

_symmetry_Int_Tables_number  14
_chemical_formula_structural  NdAsO4
_chemical_formula_sum  Nd4As4O6
_cell_volume  325.587518864914
_cell_formula_units_Z  4
loop_
  _symmetry_equiv_pos_site_id
 _symmetry_equiv_pos_as_xyz
 1  'x, y, z'
loop_
 _atom_site_type_symbol
 _atom_site_label
 _atom_site_symmetry_multiplicity
 _atom_site_fract_x
 _atom_site_fract_y
 _atom_site_fract_z
 _atom_site_fract_occupancy
 As  As1  1  0.68817  0.16186  0.80168  1
 As  As2  1  0.31183  0.66186  0.69832  1
 As  As3  1  0.68817  0.33814  0.30168  1
 As  As4  1  0.31183  0.83814  0.19832  1
 Nd  Nd1  1  0.81607  0.84882  0.21975  1
 Nd  Nd2  1  0.18393  0.15118  0.78025  1
 Nd  Nd3  1  0.18393  0.34882  0.28025  1
 Nd  Nd4  1  0.81607  0.65118  0.71975  1
 O  O1  1  0.61178  0.78783  0.38665  1
 O  O2  1  0.38822  0.21217  0.61335  1
 O  O3  1  0.82947  0.50523  0.25410  1
 O  O4  1  0.10634  0.84447  0.60699  1
 O  O5  1  0.38822  0.28783  0.11335  1
 O  O6  1  0.82947  0.99477  0.75410  1
 O  O7  1  0.35066  0.60751  0.51778  1
 O  O8  1  0.35066  0.89249  0.01778  1
 O  O9  1  0.10634  0.65553  0.10699  1
 O  O10  1  0.64934  0.39249  0.48222  1
 O  O11  1  0.17053  0.00523  0.24590  1
 O  O12  1  0.89366  0.34447  0.89301  1
 O  O13  1  0.61178  0.71217  0.88665  1
 O  O14  1  0.17053  0.49477  0.74590  1
 O  O15  1  0.89366  0.15553  0.39301  1
 O  O16  1  0.64934  0.10751  0.98222  1
