CIF file written using JARVIS-Tools package.
data_Co5NiO12
_symmetry_space_group_name_H-M  'C2/m'
_cell_length_a       4.89423
_cell_length_b       4.89445
_cell_length_c       8.7306
_cell_angle_alpha    84.7067
_cell_angle_beta     79.3669
_cell_angle_gamma    60.0014

_symmetry_Int_Tables_number  12
_chemical_formula_structural  Co5NiO12
_chemical_formula_sum  Co5NiO2
_cell_volume  178.01134970264724
_cell_formula_units_Z  1
loop_
  _symmetry_equiv_pos_site_id
 _symmetry_equiv_pos_as_xyz
 1  'x, y, z'
loop_
 _atom_site_type_symbol
 _atom_site_label
 _atom_site_symmetry_multiplicity
 _atom_site_fract_x
 _atom_site_fract_y
 _atom_site_fract_z
 _atom_site_fract_occupancy
 Co  Co1  1  0.16664  0.66671  0.50000  1
 Co  Co2  1  0.66667  0.66667  0.00000  1
 Co  Co3  1  0.33333  0.33333  0.00000  1
 Co  Co4  1  0.83336  0.33329  0.50000  1
 Co  Co5  1  0.50000  0.00000  0.50000  1
 Ni  Ni1  1  0.00000  0.00000  0.00000  1
 O  O1  1  0.96416  0.66401  0.10887  1
 O  O2  1  0.37183  0.66401  0.89113  1
 O  O3  1  0.69986  -0.00000  0.89113  1
 O  O4  1  0.53555  0.66668  0.39197  1
 O  O5  1  0.20223  0.33332  0.39197  1
 O  O6  1  0.62817  0.33599  0.10887  1
 O  O7  1  0.79777  0.66668  0.60803  1
 O  O8  1  0.46445  0.33332  0.60803  1
 O  O9  1  0.30014  0.00000  0.10887  1
 O  O10  1  0.03584  0.33599  0.89113  1
 O  O11  1  0.13110  0.00000  0.60802  1
 O  O12  1  0.86890  -0.00000  0.39198  1
