CIF file written using JARVIS-Tools package.
data_NaHg2Pd
_symmetry_space_group_name_H-M  'Immm'
_cell_length_a       12.5734
_cell_length_b       7.66482
_cell_length_c       7.66482
_cell_angle_alpha    39.3617
_cell_angle_beta     22.4107
_cell_angle_gamma    22.4107

_symmetry_Int_Tables_number  71
_chemical_formula_structural  NaHg2Pd
_chemical_formula_sum  NaHg2Pd
_cell_volume  88.89998996532353
_cell_formula_units_Z  1
loop_
  _symmetry_equiv_pos_site_id
 _symmetry_equiv_pos_as_xyz
 1  'x, y, z'
loop_
 _atom_site_type_symbol
 _atom_site_label
 _atom_site_symmetry_multiplicity
 _atom_site_fract_x
 _atom_site_fract_y
 _atom_site_fract_z
 _atom_site_fract_occupancy
 Hg  Hg1  1  0.62945  0.08043  0.08043  1
 Hg  Hg2  1  0.37055  0.91957  0.91957  1
 Na  Na1  1  0.00000  0.00000  0.00000  1
 Pd  Pd1  1  0.50000  -0.00000  0.00000  1
