CIF file written using JARVIS-Tools package.
data_AlGaO3
_symmetry_space_group_name_H-M  'Pnma'
_cell_length_a       4.90715
_cell_length_b       5.00033
_cell_length_c       7.40217
_cell_angle_alpha    90
_cell_angle_beta     90
_cell_angle_gamma    90

_symmetry_Int_Tables_number  62
_chemical_formula_structural  AlGaO3
_chemical_formula_sum  Al4Ga4O2
_cell_volume  181.6296077467579
_cell_formula_units_Z  4
loop_
  _symmetry_equiv_pos_site_id
 _symmetry_equiv_pos_as_xyz
 1  'x, y, z'
loop_
 _atom_site_type_symbol
 _atom_site_label
 _atom_site_symmetry_multiplicity
 _atom_site_fract_x
 _atom_site_fract_y
 _atom_site_fract_z
 _atom_site_fract_occupancy
 Al  Al1  1  0.00000  0.50000  0.00000  1
 Al  Al2  1  0.00000  0.50000  0.50000  1
 Al  Al3  1  0.50000  0.00000  0.00000  1
 Al  Al4  1  0.50000  0.00000  0.50000  1
 Ga  Ga1  1  0.00808  0.96169  0.75000  1
 Ga  Ga2  1  0.49192  0.46169  0.75000  1
 Ga  Ga3  1  0.50808  0.53831  0.25000  1
 Ga  Ga4  1  0.99192  0.03831  0.25000  1
 O  O1  1  0.12781  0.41754  0.25000  1
 O  O2  1  0.82277  0.81743  0.43082  1
 O  O3  1  0.17723  0.18257  0.93082  1
 O  O4  1  0.32277  0.68257  0.56918  1
 O  O5  1  0.17723  0.18257  0.56918  1
 O  O6  1  0.67723  0.31743  0.43082  1
 O  O7  1  0.62781  0.08246  0.75000  1
 O  O8  1  0.67723  0.31743  0.06918  1
 O  O9  1  0.32277  0.68257  0.93082  1
 O  O10  1  0.82277  0.81743  0.06918  1
 O  O11  1  0.37219  0.91754  0.25000  1
 O  O12  1  0.87219  0.58246  0.75000  1
