CIF file written using JARVIS-Tools package.
data_Hf3N2O3
_symmetry_space_group_name_H-M  'Cm'
_cell_length_a       3.99639
_cell_length_b       5.65728
_cell_length_c       10.6202
_cell_angle_alpha    90.6181
_cell_angle_beta     89.9987
_cell_angle_gamma    110.682

_symmetry_Int_Tables_number  8
_chemical_formula_structural  Hf3N2O3
_chemical_formula_sum  Hf6N4O6
_cell_volume  224.62138196371362
_cell_formula_units_Z  2
loop_
  _symmetry_equiv_pos_site_id
 _symmetry_equiv_pos_as_xyz
 1  'x, y, z'
loop_
 _atom_site_type_symbol
 _atom_site_label
 _atom_site_symmetry_multiplicity
 _atom_site_fract_x
 _atom_site_fract_y
 _atom_site_fract_z
 _atom_site_fract_occupancy
 Hf  Hf1  1  0.81639  0.63341  0.75121  1
 Hf  Hf2  1  0.85581  0.71224  0.05937  1
 Hf  Hf3  1  0.86339  0.72745  0.44417  1
 Hf  Hf4  1  0.19198  0.38457  0.25063  1
 Hf  Hf5  1  0.14304  0.28668  0.94412  1
 Hf  Hf6  1  0.13720  0.27501  0.55996  1
 N  N1  1  0.70033  0.40127  0.92068  1
 N  N2  1  0.95372  0.90825  0.61545  1
 N  N3  1  0.29603  0.59272  0.42527  1
 N  N4  1  0.29945  0.59951  0.08034  1
 O  O1  1  0.68984  0.38030  0.58012  1
 O  O2  1  0.75147  0.50358  0.24818  1
 O  O3  1  0.95477  0.91010  0.88751  1
 O  O4  1  0.24647  0.49356  0.74244  1
 O  O5  1  0.04424  0.08912  0.11524  1
 O  O6  1  0.04255  0.08557  0.37965  1
