CIF file written using JARVIS-Tools package.
data_ZnAg2O4
_symmetry_space_group_name_H-M  'P-1'
_cell_length_a       3.23256
_cell_length_b       7.66933
_cell_length_c       7.91683
_cell_angle_alpha    78.5661
_cell_angle_beta     83.6779
_cell_angle_gamma    78.5162

_symmetry_Int_Tables_number  2
_chemical_formula_structural  ZnAg2O4
_chemical_formula_sum  Zn2Ag4O8
_cell_volume  188.01334003184894
_cell_formula_units_Z  2
loop_
  _symmetry_equiv_pos_site_id
 _symmetry_equiv_pos_as_xyz
 1  'x, y, z'
loop_
 _atom_site_type_symbol
 _atom_site_label
 _atom_site_symmetry_multiplicity
 _atom_site_fract_x
 _atom_site_fract_y
 _atom_site_fract_z
 _atom_site_fract_occupancy
 Ag  Ag1  1  0.77220  0.55732  0.16746  1
 Ag  Ag2  1  0.72644  0.20250  0.52133  1
 Ag  Ag3  1  0.23816  0.83057  0.45678  1
 Ag  Ag4  1  0.19239  0.47575  0.81066  1
 O  O1  1  0.53131  0.63092  0.63509  1
 O  O2  1  0.64134  0.78284  0.25777  1
 O  O3  1  0.32330  0.25022  0.72036  1
 O  O4  1  0.43327  0.40214  0.34302  1
 O  O5  1  0.01133  0.69742  0.93791  1
 O  O6  1  0.02212  0.08215  0.31321  1
 O  O7  1  0.95327  0.33565  0.04020  1
 O  O8  1  0.94250  0.95092  0.66490  1
 Zn  Zn1  1  0.48535  0.19935  0.17331  1
 Zn  Zn2  1  0.47927  0.83371  0.80479  1
