CIF file written using JARVIS-Tools package.
data_Li5Nb2Cu3O10
_symmetry_space_group_name_H-M  'P-1'
_cell_length_a       5.2375
_cell_length_b       5.74226
_cell_length_c       7.68001
_cell_angle_alpha    100.452
_cell_angle_beta     105.706
_cell_angle_gamma    106.142

_symmetry_Int_Tables_number  2
_chemical_formula_structural  Li5Nb2Cu3O10
_chemical_formula_sum  Li5Nb2Cu3O0
_cell_volume  205.1940628467429
_cell_formula_units_Z  1
loop_
  _symmetry_equiv_pos_site_id
 _symmetry_equiv_pos_as_xyz
 1  'x, y, z'
loop_
 _atom_site_type_symbol
 _atom_site_label
 _atom_site_symmetry_multiplicity
 _atom_site_fract_x
 _atom_site_fract_y
 _atom_site_fract_z
 _atom_site_fract_occupancy
 Cu  Cu1  1  -0.00000  0.50000  0.00000  1
 Cu  Cu2  1  0.29876  0.12302  0.09884  1
 Cu  Cu3  1  0.70124  0.87698  0.90116  1
 Li  Li1  1  0.77182  0.13986  0.62992  1
 Li  Li2  1  0.22818  0.86014  0.37008  1
 Li  Li3  1  0.50000  0.50000  0.50000  1
 Li  Li4  1  0.40658  0.33995  0.80834  1
 Li  Li5  1  0.59342  0.66005  0.19166  1
 Nb  Nb1  1  0.10901  0.72861  0.69990  1
 Nb  Nb2  1  0.89099  0.27139  0.30010  1
 O  O1  1  0.86000  0.65505  0.44432  1
 O  O2  1  0.66444  0.35010  0.06708  1
 O  O3  1  0.07284  0.03852  0.82406  1
 O  O4  1  0.33556  0.64990  0.93292  1
 O  O5  1  0.14000  0.34495  0.55568  1
 O  O6  1  0.22152  0.52064  0.24969  1
 O  O7  1  0.45660  0.87184  0.64887  1
 O  O8  1  0.54340  0.12816  0.35113  1
 O  O9  1  0.77848  0.47936  0.75031  1
 O  O10  1  0.92716  0.96148  0.17594  1
