CIF file written using JARVIS-Tools package.
data_CaBiCO4F
_symmetry_space_group_name_H-M  'Pmmn'
_cell_length_a       3.44957
_cell_length_b       4.53948
_cell_length_c       13.1963
_cell_angle_alpha    90
_cell_angle_beta     90
_cell_angle_gamma    90

_symmetry_Int_Tables_number  59
_chemical_formula_structural  CaBiCO4F
_chemical_formula_sum  Ca2Bi2C2O8F2
_cell_volume  206.6434119459909
_cell_formula_units_Z  2
loop_
  _symmetry_equiv_pos_site_id
 _symmetry_equiv_pos_as_xyz
 1  'x, y, z'
loop_
 _atom_site_type_symbol
 _atom_site_label
 _atom_site_symmetry_multiplicity
 _atom_site_fract_x
 _atom_site_fract_y
 _atom_site_fract_z
 _atom_site_fract_occupancy
 Bi  Bi1  1  0.00000  0.00000  0.09819  1
 Bi  Bi2  1  0.50000  0.50000  0.90181  1
 C  C1  1  0.00000  0.00000  0.73761  1
 C  C2  1  0.50000  0.50000  0.26239  1
 Ca  Ca1  1  0.50000  0.50000  0.59409  1
 Ca  Ca2  1  0.00000  0.00000  0.40591  1
 F  F1  1  0.50000  0.00000  0.52146  1
 F  F2  1  0.00000  0.50000  0.47854  1
 O  O1  1  0.50000  0.74472  0.30915  1
 O  O2  1  0.00000  0.75528  0.69085  1
 O  O3  1  0.00000  0.00000  0.83781  1
 O  O4  1  0.50000  0.50000  0.16219  1
 O  O5  1  0.50000  0.25528  0.30915  1
 O  O6  1  0.00000  0.24472  0.69085  1
 O  O7  1  0.50000  0.00000  0.99347  1
 O  O8  1  0.00000  0.50000  0.00653  1
