CIF file written using JARVIS-Tools package.
data_Rb3NaRu2O8
_symmetry_space_group_name_H-M  'P-3m1'
_cell_length_a       6.05491
_cell_length_b       6.05491
_cell_length_c       7.93852
_cell_angle_alpha    90
_cell_angle_beta     90
_cell_angle_gamma    120

_symmetry_Int_Tables_number  164
_chemical_formula_structural  Rb3NaRu2O8
_chemical_formula_sum  Rb3NaRu2O8
_cell_volume  252.04943836247637
_cell_formula_units_Z  1
loop_
  _symmetry_equiv_pos_site_id
 _symmetry_equiv_pos_as_xyz
 1  'x, y, z'
loop_
 _atom_site_type_symbol
 _atom_site_label
 _atom_site_symmetry_multiplicity
 _atom_site_fract_x
 _atom_site_fract_y
 _atom_site_fract_z
 _atom_site_fract_occupancy
 Na  Na1  1  0.00000  0.00000  0.50000  1
 O  O1  1  0.17610  0.82390  0.69390  1
 O  O2  1  0.64781  0.82390  0.69390  1
 O  O3  1  0.17610  0.35219  0.69390  1
 O  O4  1  0.82390  0.17610  0.30610  1
 O  O5  1  0.82390  0.64781  0.30610  1
 O  O6  1  0.35219  0.17610  0.30610  1
 O  O7  1  0.66667  0.33333  -0.00694  1
 O  O8  1  0.33333  0.66667  0.00694  1
 Rb  Rb1  1  0.66667  0.33333  0.64983  1
 Rb  Rb2  1  0.00000  0.00000  0.00000  1
 Rb  Rb3  1  0.33333  0.66667  0.35017  1
 Ru  Ru1  1  0.66667  0.33333  0.21497  1
 Ru  Ru2  1  0.33333  0.66667  0.78503  1
