CIF file written using JARVIS-Tools package.
data_SiO2
_symmetry_space_group_name_H-M  'P6_3/mmc'
_cell_length_a       9.23106
_cell_length_b       9.23106
_cell_length_c       5.26841
_cell_angle_alpha    90
_cell_angle_beta     90
_cell_angle_gamma    120

_symmetry_Int_Tables_number  194
_chemical_formula_structural  SiO2
_chemical_formula_sum  Si6O2
_cell_volume  388.7882384334511
_cell_formula_units_Z  6
loop_
  _symmetry_equiv_pos_site_id
 _symmetry_equiv_pos_as_xyz
 1  'x, y, z'
loop_
 _atom_site_type_symbol
 _atom_site_label
 _atom_site_symmetry_multiplicity
 _atom_site_fract_x
 _atom_site_fract_y
 _atom_site_fract_z
 _atom_site_fract_occupancy
 O  O1  1  0.00000  0.50000  0.50000  1
 O  O2  1  0.76218  0.23782  0.75000  1
 O  O3  1  0.23782  0.76218  0.25000  1
 O  O4  1  0.50000  0.00000  0.00000  1
 O  O5  1  0.50000  0.00000  0.50000  1
 O  O6  1  0.00000  0.50000  0.00000  1
 O  O7  1  0.76218  0.52436  0.75000  1
 O  O8  1  0.47564  0.23782  0.75000  1
 O  O9  1  0.50000  0.50000  0.00000  1
 O  O10  1  0.50000  0.50000  0.50000  1
 O  O11  1  0.52436  0.76218  0.25000  1
 O  O12  1  0.23782  0.47564  0.25000  1
 Si  Si1  1  0.88339  0.44169  0.75000  1
 Si  Si2  1  0.55831  0.44169  0.75000  1
 Si  Si3  1  0.44169  0.88339  0.25000  1
 Si  Si4  1  0.44169  0.55831  0.25000  1
 Si  Si5  1  0.11661  0.55831  0.25000  1
 Si  Si6  1  0.55831  0.11661  0.75000  1
