CIF file written using JARVIS-Tools package.
data_YbPO4
_symmetry_space_group_name_H-M  'I4_1/a'
_cell_length_a       4.85949
_cell_length_b       4.85949
_cell_length_c       6.59145
_cell_angle_alpha    111.63
_cell_angle_beta     111.63
_cell_angle_gamma    90.0001

_symmetry_Int_Tables_number  88
_chemical_formula_structural  YbPO4
_chemical_formula_sum  Yb2P2O8
_cell_volume  132.83089645370436
_cell_formula_units_Z  2
loop_
  _symmetry_equiv_pos_site_id
 _symmetry_equiv_pos_as_xyz
 1  'x, y, z'
loop_
 _atom_site_type_symbol
 _atom_site_label
 _atom_site_symmetry_multiplicity
 _atom_site_fract_x
 _atom_site_fract_y
 _atom_site_fract_z
 _atom_site_fract_occupancy
 O  O1  1  0.70535  0.58457  0.89768  1
 O  O2  1  0.31311  0.20535  0.39768  1
 O  O3  1  0.08457  0.69232  0.39768  1
 O  O4  1  0.19232  0.81311  0.89768  1
 O  O5  1  0.80768  0.18689  0.10232  1
 O  O6  1  0.91543  0.30768  0.60232  1
 O  O7  1  0.68689  0.79465  0.60232  1
 O  O8  1  0.29465  0.41543  0.10232  1
 P  P1  1  0.87500  0.62500  0.75000  1
 P  P2  1  0.12500  0.37500  0.25000  1
 Yb  Yb1  1  0.37500  0.12500  0.75000  1
 Yb  Yb2  1  0.62500  0.87500  0.25000  1
