CIF file written using JARVIS-Tools package.
data_CoGe2
_symmetry_space_group_name_H-M  'Cmce'
_cell_length_a       5.69083
_cell_length_b       5.69297
_cell_length_c       6.17645
_cell_angle_alpha    90
_cell_angle_beta     117.431
_cell_angle_gamma    90

_symmetry_Int_Tables_number  64
_chemical_formula_structural  CoGe2
_chemical_formula_sum  Co4Ge8
_cell_volume  177.60396686110917
_cell_formula_units_Z  4
loop_
  _symmetry_equiv_pos_site_id
 _symmetry_equiv_pos_as_xyz
 1  'x, y, z'
loop_
 _atom_site_type_symbol
 _atom_site_label
 _atom_site_symmetry_multiplicity
 _atom_site_fract_x
 _atom_site_fract_y
 _atom_site_fract_z
 _atom_site_fract_occupancy
 Co  Co1  1  0.99158  0.00000  0.98315  1
 Co  Co2  1  0.49158  0.50000  0.98315  1
 Co  Co3  1  0.75842  0.00000  0.51685  1
 Co  Co4  1  0.25842  0.50000  0.51685  1
 Ge  Ge1  1  0.71675  0.65824  0.75000  1
 Ge  Ge2  1  0.03325  0.34176  0.75000  1
 Ge  Ge3  1  0.53325  0.15824  0.75000  1
 Ge  Ge4  1  0.21675  0.84176  0.75000  1
 Ge  Ge5  1  0.87363  0.75000  0.25000  1
 Ge  Ge6  1  0.37637  0.25000  0.25000  1
 Ge  Ge7  1  0.87637  0.25000  0.25000  1
 Ge  Ge8  1  0.37363  0.75000  0.25000  1
