CIF file written using JARVIS-Tools package.
data_MnGe2O6
_symmetry_space_group_name_H-M  'C2/c'
_cell_length_a       5.49644
_cell_length_b       6.57396
_cell_length_c       6.57396
_cell_angle_alpha    82.1518
_cell_angle_beta     74.4175
_cell_angle_gamma    74.4175

_symmetry_Int_Tables_number  15
_chemical_formula_structural  MnGe2O6
_chemical_formula_sum  Mn2Ge4O2
_cell_volume  219.86731324408936
_cell_formula_units_Z  2
loop_
  _symmetry_equiv_pos_site_id
 _symmetry_equiv_pos_as_xyz
 1  'x, y, z'
loop_
 _atom_site_type_symbol
 _atom_site_label
 _atom_site_symmetry_multiplicity
 _atom_site_fract_x
 _atom_site_fract_y
 _atom_site_fract_z
 _atom_site_fract_occupancy
 Ge  Ge1  1  0.75855  0.38919  0.20204  1
 Ge  Ge2  1  0.74145  0.79796  0.61081  1
 Ge  Ge3  1  0.24145  0.61081  0.79796  1
 Ge  Ge4  1  0.25855  0.20204  0.38919  1
 Mn  Mn1  1  0.75000  0.91405  0.08595  1
 Mn  Mn2  1  0.25000  0.08595  0.91405  1
 O  O1  1  0.43187  0.40003  0.33248  1
 O  O2  1  0.06813  0.66752  0.59997  1
 O  O3  1  0.13043  0.81900  0.98118  1
 O  O4  1  -0.06813  0.33248  0.40003  1
 O  O5  1  0.56813  0.59997  0.66752  1
 O  O6  1  0.74775  0.64099  0.06453  1
 O  O7  1  0.75225  0.93547  0.35901  1
 O  O8  1  0.24775  0.06453  0.64099  1
 O  O9  1  0.86957  0.18100  0.01882  1
 O  O10  1  0.63043  0.98118  0.81900  1
 O  O11  1  0.25225  0.35901  0.93547  1
 O  O12  1  0.36957  0.01882  0.18100  1
