CIF file written using JARVIS-Tools package.
data_Hf2Zn
_symmetry_space_group_name_H-M  'I4/mmm'
_cell_length_a       3.22597
_cell_length_b       3.22597
_cell_length_c       6.09122
_cell_angle_alpha    105.355
_cell_angle_beta     105.355
_cell_angle_gamma    90

_symmetry_Int_Tables_number  139
_chemical_formula_structural  Hf2Zn
_chemical_formula_sum  Hf2Zn
_cell_volume  58.77776431534805
_cell_formula_units_Z  1
loop_
  _symmetry_equiv_pos_site_id
 _symmetry_equiv_pos_as_xyz
 1  'x, y, z'
loop_
 _atom_site_type_symbol
 _atom_site_label
 _atom_site_symmetry_multiplicity
 _atom_site_fract_x
 _atom_site_fract_y
 _atom_site_fract_z
 _atom_site_fract_occupancy
 Hf  Hf1  1  0.65932  0.65932  0.31865  1
 Hf  Hf2  1  0.34068  0.34068  0.68135  1
 Zn  Zn1  1  0.00000  0.00000  0.00000  1
