CIF file written using JARVIS-Tools package.
data_MgZr
_symmetry_space_group_name_H-M  'Pmma'
_cell_length_a       5.20088
_cell_length_b       3.036
_cell_length_c       5.62367
_cell_angle_alpha    90
_cell_angle_beta     90
_cell_angle_gamma    90

_symmetry_Int_Tables_number  51
_chemical_formula_structural  MgZr
_chemical_formula_sum  Mg2Zr2
_cell_volume  88.79710714467882
_cell_formula_units_Z  2
loop_
  _symmetry_equiv_pos_site_id
 _symmetry_equiv_pos_as_xyz
 1  'x, y, z'
loop_
 _atom_site_type_symbol
 _atom_site_label
 _atom_site_symmetry_multiplicity
 _atom_site_fract_x
 _atom_site_fract_y
 _atom_site_fract_z
 _atom_site_fract_occupancy
 Mg  Mg1  1  0.75000  0.00000  0.16056  1
 Mg  Mg2  1  0.25000  0.00000  0.83944  1
 Zr  Zr1  1  0.25000  0.50000  0.34542  1
 Zr  Zr2  1  0.75000  0.50000  0.65458  1
