CIF file written using JARVIS-Tools package.
data_SbS
_symmetry_space_group_name_H-M  'P2_1/m'
_cell_length_a       4.06604
_cell_length_b       4.73845
_cell_length_c       8.33225
_cell_angle_alpha    41.5584
_cell_angle_beta     90.0357
_cell_angle_gamma    90.0049

_symmetry_Int_Tables_number  11
_chemical_formula_structural  SbS
_chemical_formula_sum  Sb2S2
_cell_volume  106.49628149626757
_cell_formula_units_Z  2
loop_
  _symmetry_equiv_pos_site_id
 _symmetry_equiv_pos_as_xyz
 1  'x, y, z'
loop_
 _atom_site_type_symbol
 _atom_site_label
 _atom_site_symmetry_multiplicity
 _atom_site_fract_x
 _atom_site_fract_y
 _atom_site_fract_z
 _atom_site_fract_occupancy
 S  S1  1  0.25027  0.56959  0.75572  1
 S  S2  1  0.74973  0.43041  0.24428  1
 Sb  Sb1  1  0.75015  0.10672  0.65336  1
 Sb  Sb2  1  0.24985  0.89328  0.34664  1
