CIF file written using JARVIS-Tools package.
data_Li2HN
_symmetry_space_group_name_H-M  'R3m'
_cell_length_a       3.63542
_cell_length_b       3.56186
_cell_length_c       3.56185
_cell_angle_alpha    60
_cell_angle_beta     60.6671
_cell_angle_gamma    60.6671

_symmetry_Int_Tables_number  160
_chemical_formula_structural  Li2HN
_chemical_formula_sum  Li2HN
_cell_volume  32.93808698102216
_cell_formula_units_Z  1
loop_
  _symmetry_equiv_pos_site_id
 _symmetry_equiv_pos_as_xyz
 1  'x, y, z'
loop_
 _atom_site_type_symbol
 _atom_site_label
 _atom_site_symmetry_multiplicity
 _atom_site_fract_x
 _atom_site_fract_y
 _atom_site_fract_z
 _atom_site_fract_occupancy
 H  H1  1  0.73278  0.08907  0.08907  1
 Li  Li1  1  0.15152  0.28283  0.28283  1
 Li  Li2  1  0.76031  0.74656  0.74656  1
 N  N1  1  0.07640  0.97453  0.97453  1
