CIF file written using JARVIS-Tools package.
data_SrI2
_symmetry_space_group_name_H-M  'Pbca'
_cell_length_a       7.9002
_cell_length_b       8.27903
_cell_length_c       15.1745
_cell_angle_alpha    90
_cell_angle_beta     90
_cell_angle_gamma    90

_symmetry_Int_Tables_number  61
_chemical_formula_structural  SrI2
_chemical_formula_sum  Sr8I6
_cell_volume  992.5059420124978
_cell_formula_units_Z  8
loop_
  _symmetry_equiv_pos_site_id
 _symmetry_equiv_pos_as_xyz
 1  'x, y, z'
loop_
 _atom_site_type_symbol
 _atom_site_label
 _atom_site_symmetry_multiplicity
 _atom_site_fract_x
 _atom_site_fract_y
 _atom_site_fract_z
 _atom_site_fract_occupancy
 I  I1  1  0.50712  0.22965  0.03643  1
 I  I2  1  0.83224  0.89616  0.20078  1
 I  I3  1  0.33224  0.10384  0.29922  1
 I  I4  1  0.66776  0.39616  0.79922  1
 I  I5  1  0.49288  0.77035  0.96357  1
 I  I6  1  0.16776  0.10384  0.79922  1
 I  I7  1  0.66776  0.89616  0.70078  1
 I  I8  1  0.16776  0.60384  0.70078  1
 I  I9  1  0.83224  0.39616  0.29922  1
 I  I10  1  0.99288  0.72965  0.96357  1
 I  I11  1  0.49288  0.27035  0.53643  1
 I  I12  1  0.99288  0.22965  0.53643  1
 I  I13  1  0.00712  0.77035  0.46357  1
 I  I14  1  0.00712  0.27035  0.03643  1
 I  I15  1  0.50712  0.72965  0.46357  1
 I  I16  1  0.33224  0.60384  0.20078  1
 Sr  Sr1  1  0.72173  0.05203  0.39076  1
 Sr  Sr2  1  0.22173  0.94797  0.10924  1
 Sr  Sr3  1  0.77827  0.55203  0.60924  1
 Sr  Sr4  1  0.27827  0.44797  0.89076  1
 Sr  Sr5  1  0.27827  0.94797  0.60924  1
 Sr  Sr6  1  0.77827  0.05203  0.89076  1
 Sr  Sr7  1  0.22173  0.44797  0.39076  1
 Sr  Sr8  1  0.72173  0.55203  0.10924  1
