CIF file written using JARVIS-Tools package.
data_Mo3WSe4S4
_symmetry_space_group_name_H-M  'P3m1'
_cell_length_a       3.25782
_cell_length_b       3.25781
_cell_length_c       34.2481
_cell_angle_alpha    90
_cell_angle_beta     90
_cell_angle_gamma    120

_symmetry_Int_Tables_number  156
_chemical_formula_structural  Mo3WSe4S4
_chemical_formula_sum  Mo3WSe4S4
_cell_volume  314.7880917754975
_cell_formula_units_Z  1
loop_
  _symmetry_equiv_pos_site_id
 _symmetry_equiv_pos_as_xyz
 1  'x, y, z'
loop_
 _atom_site_type_symbol
 _atom_site_label
 _atom_site_symmetry_multiplicity
 _atom_site_fract_x
 _atom_site_fract_y
 _atom_site_fract_z
 _atom_site_fract_occupancy
 Mo  Mo1  1  0.33330  0.66661  0.09484  1
 Mo  Mo2  1  0.33333  0.66665  0.46927  1
 Mo  Mo3  1  0.66667  0.33335  0.28207  1
 S  S1  1  0.66664  0.33328  0.04975  1
 S  S2  1  0.66665  0.33330  0.42413  1
 S  S3  1  0.66664  0.33329  0.14000  1
 S  S4  1  0.66667  0.33334  0.51442  1
 Se  Se1  1  0.33335  0.66669  0.33165  1
 Se  Se2  1  0.33337  0.66673  0.70657  1
 Se  Se3  1  0.33333  0.66667  0.23249  1
 Se  Se4  1  0.33335  0.66670  0.60683  1
 W  W1  1  0.66669  0.33339  0.65673  1
