CIF file written using JARVIS-Tools package.
data_LiSi2Ir
_symmetry_space_group_name_H-M  'Cmmm'
_cell_length_a       10.9281
_cell_length_b       6.35551
_cell_length_c       6.35553
_cell_angle_alpha    38.1472
_cell_angle_beta     23.1526
_cell_angle_gamma    23.1516

_symmetry_Int_Tables_number  65
_chemical_formula_structural  LiSi2Ir
_chemical_formula_sum  LiSi2Ir
_cell_volume  63.07326016865259
_cell_formula_units_Z  1
loop_
  _symmetry_equiv_pos_site_id
 _symmetry_equiv_pos_as_xyz
 1  'x, y, z'
loop_
 _atom_site_type_symbol
 _atom_site_label
 _atom_site_symmetry_multiplicity
 _atom_site_fract_x
 _atom_site_fract_y
 _atom_site_fract_z
 _atom_site_fract_occupancy
 Ir  Ir1  1  0.50000  0.00000  -0.00000  1
 Li  Li1  1  0.00000  0.00000  0.00000  1
 Si  Si1  1  0.37191  0.31405  0.31405  1
 Si  Si2  1  0.62809  0.68595  0.68595  1
