CIF file written using JARVIS-Tools package.
data_CaScHg2
_symmetry_space_group_name_H-M  'C2/m'
_cell_length_a       11.9409
_cell_length_b       7.60488
_cell_length_c       7.60488
_cell_angle_alpha    38.1942
_cell_angle_beta     22.3765
_cell_angle_gamma    22.3765

_symmetry_Int_Tables_number  12
_chemical_formula_structural  CaScHg2
_chemical_formula_sum  CaScHg2
_cell_volume  87.95477918190898
_cell_formula_units_Z  1
loop_
  _symmetry_equiv_pos_site_id
 _symmetry_equiv_pos_as_xyz
 1  'x, y, z'
loop_
 _atom_site_type_symbol
 _atom_site_label
 _atom_site_symmetry_multiplicity
 _atom_site_fract_x
 _atom_site_fract_y
 _atom_site_fract_z
 _atom_site_fract_occupancy
 Ca  Ca1  1  0.00000  0.00000  0.00000  1
 Hg  Hg1  1  0.69808  0.03511  0.03511  1
 Hg  Hg2  1  0.30192  -0.03511  -0.03511  1
 Sc  Sc1  1  0.50000  0.00000  -0.00000  1
