CIF file written using JARVIS-Tools package.
data_YScO2
_symmetry_space_group_name_H-M  'R-3m'
_cell_length_a       6.48566
_cell_length_b       6.48566
_cell_length_c       6.48566
_cell_angle_alpha    31.7686
_cell_angle_beta     31.7686
_cell_angle_gamma    31.7687

_symmetry_Int_Tables_number  166
_chemical_formula_structural  YScO2
_chemical_formula_sum  YScO2
_cell_volume  67.16473398464106
_cell_formula_units_Z  1
loop_
  _symmetry_equiv_pos_site_id
 _symmetry_equiv_pos_as_xyz
 1  'x, y, z'
loop_
 _atom_site_type_symbol
 _atom_site_label
 _atom_site_symmetry_multiplicity
 _atom_site_fract_x
 _atom_site_fract_y
 _atom_site_fract_z
 _atom_site_fract_occupancy
 O  O1  1  0.10984  0.10984  0.10984  1
 O  O2  1  0.89016  0.89016  0.89016  1
 Sc  Sc1  1  0.00000  0.00000  0.00000  1
 Y  Y1  1  0.50000  0.50000  0.50000  1
