CIF file written using JARVIS-Tools package.
data_Sc2O3
_symmetry_space_group_name_H-M  'R-3c'
_cell_length_a       5.35771
_cell_length_b       5.67842
_cell_length_c       5.35771
_cell_angle_alpha    118.149
_cell_angle_beta     60
_cell_angle_gamma    118.149

_symmetry_Int_Tables_number  167
_chemical_formula_structural  Sc2O3
_chemical_formula_sum  Sc4O6
_cell_volume  118.37845726483008
_cell_formula_units_Z  2
loop_
  _symmetry_equiv_pos_site_id
 _symmetry_equiv_pos_as_xyz
 1  'x, y, z'
loop_
 _atom_site_type_symbol
 _atom_site_label
 _atom_site_symmetry_multiplicity
 _atom_site_fract_x
 _atom_site_fract_y
 _atom_site_fract_z
 _atom_site_fract_occupancy
 O  O1  1  0.25000  0.75000  0.54946  1
 O  O2  1  0.04946  0.25000  0.75000  1
 O  O3  1  0.45054  0.25000  0.04946  1
 O  O4  1  0.54946  0.75000  0.95054  1
 O  O5  1  0.95054  0.75000  0.25000  1
 O  O6  1  0.75000  0.25000  0.45054  1
 Sc  Sc1  1  0.14397  0.43191  0.14397  1
 Sc  Sc2  1  0.35603  0.06809  0.35603  1
 Sc  Sc3  1  0.64397  0.93191  0.64397  1
 Sc  Sc4  1  0.85603  0.56809  0.85603  1
