CIF file written using JARVIS-Tools package.
data_SrLi2Ge
_symmetry_space_group_name_H-M  'Fm-3m'
_cell_length_a       11.8321
_cell_length_b       8.36581
_cell_length_c       8.3664
_cell_angle_alpha    33.5647
_cell_angle_beta     19.4737
_cell_angle_gamma    19.4751

_symmetry_Int_Tables_number  225
_chemical_formula_structural  SrLi2Ge
_chemical_formula_sum  SrLi2Ge
_cell_volume  79.70378872675244
_cell_formula_units_Z  1
loop_
  _symmetry_equiv_pos_site_id
 _symmetry_equiv_pos_as_xyz
 1  'x, y, z'
loop_
 _atom_site_type_symbol
 _atom_site_label
 _atom_site_symmetry_multiplicity
 _atom_site_fract_x
 _atom_site_fract_y
 _atom_site_fract_z
 _atom_site_fract_occupancy
 Ge  Ge1  1  0.00000  0.00000  0.00000  1
 Li  Li1  1  0.75054  0.99957  0.99965  1
 Li  Li2  1  0.24946  0.00042  0.00034  1
 Sr  Sr1  1  0.50000  -0.00000  -0.00000  1
