CIF file written using JARVIS-Tools package.
data_YAgS2
_symmetry_space_group_name_H-M  'R3m'
_cell_length_a       3.96543
_cell_length_b       3.96543
_cell_length_c       7.32021
_cell_angle_alpha    74.2849
_cell_angle_beta     74.2849
_cell_angle_gamma    60

_symmetry_Int_Tables_number  160
_chemical_formula_structural  YAgS2
_chemical_formula_sum  YAgS2
_cell_volume  94.68515174189994
_cell_formula_units_Z  1
loop_
  _symmetry_equiv_pos_site_id
 _symmetry_equiv_pos_as_xyz
 1  'x, y, z'
loop_
 _atom_site_type_symbol
 _atom_site_label
 _atom_site_symmetry_multiplicity
 _atom_site_fract_x
 _atom_site_fract_y
 _atom_site_fract_z
 _atom_site_fract_occupancy
 Ag  Ag1  1  0.85128  0.85128  0.44615  1
 S  S1  1  0.73422  0.73422  0.79733  1
 S  S2  1  0.25522  0.25522  0.23433  1
 Y  Y1  1  0.00027  0.00027  0.99919  1
