CIF file written using JARVIS-Tools package.
data_BeFe2P
_symmetry_space_group_name_H-M  'C2/m'
_cell_length_a       10.521
_cell_length_b       5.69393
_cell_length_c       5.68364
_cell_angle_alpha    35.5078
_cell_angle_beta     22.3955
_cell_angle_gamma    22.3528

_symmetry_Int_Tables_number  12
_chemical_formula_structural  BeFe2P
_chemical_formula_sum  BeFe2P
_cell_volume  47.31239439012216
_cell_formula_units_Z  1
loop_
  _symmetry_equiv_pos_site_id
 _symmetry_equiv_pos_as_xyz
 1  'x, y, z'
loop_
 _atom_site_type_symbol
 _atom_site_label
 _atom_site_symmetry_multiplicity
 _atom_site_fract_x
 _atom_site_fract_y
 _atom_site_fract_z
 _atom_site_fract_occupancy
 Be  Be1  1  0.00000  0.00000  0.00000  1
 Fe  Fe1  1  0.70955  0.00034  -0.00034  1
 Fe  Fe2  1  0.29045  -0.00034  0.00034  1
 P  P1  1  0.50000  0.00000  -0.00000  1
