CIF file written using JARVIS-Tools package.
data_VOF3
_symmetry_space_group_name_H-M  'Pm'
_cell_length_a       5.61269
_cell_length_b       5.62782
_cell_length_c       8.0721
_cell_angle_alpha    89.9948
_cell_angle_beta     89.9974
_cell_angle_gamma    86.7802

_symmetry_Int_Tables_number  6
_chemical_formula_structural  VOF3
_chemical_formula_sum  V4O4F2
_cell_volume  254.57270296595394
_cell_formula_units_Z  4
loop_
  _symmetry_equiv_pos_site_id
 _symmetry_equiv_pos_as_xyz
 1  'x, y, z'
loop_
 _atom_site_type_symbol
 _atom_site_label
 _atom_site_symmetry_multiplicity
 _atom_site_fract_x
 _atom_site_fract_y
 _atom_site_fract_z
 _atom_site_fract_occupancy
 F  F1  1  0.99161  0.51387  0.71091  1
 F  F2  1  0.24798  0.76600  -0.00011  1
 F  F3  1  0.49467  0.01000  0.71109  1
 F  F4  1  0.48221  0.50209  0.21025  1
 F  F5  1  -0.00874  0.51398  0.28910  1
 F  F6  1  0.49507  0.00995  0.28890  1
 F  F7  1  0.23675  0.23960  0.49988  1
 F  F8  1  0.73111  0.73433  0.50013  1
 F  F9  1  -0.00805  0.01296  0.79117  1
 F  F10  1  0.73188  0.74660  0.00006  1
 F  F11  1  0.48256  0.50204  0.78973  1
 F  F12  1  0.99229  0.01286  0.20886  1
 O  O1  1  0.78131  0.27815  0.00011  1
 O  O2  1  0.25217  0.75324  0.49992  1
 O  O3  1  0.75803  0.24846  0.50007  1
 O  O4  1  0.27855  0.24260  -0.00006  1
 V  V1  1  0.95821  0.43983  0.50001  1
 V  V2  1  0.45703  0.93962  0.49999  1
 V  V3  1  0.56774  0.48815  0.00002  1
 V  V4  1  0.07761  0.04567  -0.00002  1
