CIF file written using JARVIS-Tools package.
data_TiCu3
_symmetry_space_group_name_H-M  'Pmmn'
_cell_length_a       4.32666
_cell_length_b       4.42686
_cell_length_c       5.45961
_cell_angle_alpha    90
_cell_angle_beta     90
_cell_angle_gamma    90

_symmetry_Int_Tables_number  59
_chemical_formula_structural  TiCu3
_chemical_formula_sum  Ti2Cu6
_cell_volume  104.57075806407133
_cell_formula_units_Z  2
loop_
  _symmetry_equiv_pos_site_id
 _symmetry_equiv_pos_as_xyz
 1  'x, y, z'
loop_
 _atom_site_type_symbol
 _atom_site_label
 _atom_site_symmetry_multiplicity
 _atom_site_fract_x
 _atom_site_fract_y
 _atom_site_fract_z
 _atom_site_fract_occupancy
 Cu  Cu1  1  0.00000  0.83188  0.74608  1
 Cu  Cu2  1  0.50000  0.16812  0.75392  1
 Cu  Cu3  1  0.50000  0.68000  0.00000  1
 Cu  Cu4  1  0.00000  0.32000  0.50000  1
 Cu  Cu5  1  0.50000  0.16812  0.24608  1
 Cu  Cu6  1  0.00000  0.83188  0.25392  1
 Ti  Ti1  1  0.50000  0.66187  0.50000  1
 Ti  Ti2  1  0.00000  0.33813  0.00000  1
