CIF file written using JARVIS-Tools package.
data_Na2TlPb
_symmetry_space_group_name_H-M  'I4/mmm'
_cell_length_a       13.3597
_cell_length_b       9.08569
_cell_length_c       9.08569
_cell_angle_alpha    32.1808
_cell_angle_beta     19.3755
_cell_angle_gamma    19.3755

_symmetry_Int_Tables_number  139
_chemical_formula_structural  Na2TlPb
_chemical_formula_sum  Na2TlPb
_cell_volume  111.4694479742517
_cell_formula_units_Z  1
loop_
  _symmetry_equiv_pos_site_id
 _symmetry_equiv_pos_as_xyz
 1  'x, y, z'
loop_
 _atom_site_type_symbol
 _atom_site_label
 _atom_site_symmetry_multiplicity
 _atom_site_fract_x
 _atom_site_fract_y
 _atom_site_fract_z
 _atom_site_fract_occupancy
 Na  Na1  1  0.75002  -0.00002  -0.00002  1
 Na  Na2  1  0.24998  0.00002  0.00002  1
 Pb  Pb1  1  0.50000  -0.00000  -0.00000  1
 Tl  Tl1  1  0.00000  0.00000  0.00000  1
