CIF file written using JARVIS-Tools package.
data_In2PdRh
_symmetry_space_group_name_H-M  'C2/m'
_cell_length_a       11.0447
_cell_length_b       7.85164
_cell_length_c       7.85431
_cell_angle_alpha    23.8476
_cell_angle_beta     19.5123
_cell_angle_gamma    19.5129

_symmetry_Int_Tables_number  12
_chemical_formula_structural  In2PdRh
_chemical_formula_sum  In2PdRh
_cell_volume  73.86580526397884
_cell_formula_units_Z  1
loop_
  _symmetry_equiv_pos_site_id
 _symmetry_equiv_pos_as_xyz
 1  'x, y, z'
loop_
 _atom_site_type_symbol
 _atom_site_label
 _atom_site_symmetry_multiplicity
 _atom_site_fract_x
 _atom_site_fract_y
 _atom_site_fract_z
 _atom_site_fract_occupancy
 In  In1  1  0.74150  0.00659  0.00669  1
 In  In2  1  0.25850  -0.00659  -0.00669  1
 Pd  Pd1  1  0.50000  -0.00000  0.00000  1
 Rh  Rh1  1  0.00000  0.00000  0.00000  1
