CIF file written using JARVIS-Tools package.
data_LuGa
_symmetry_space_group_name_H-M  'Cmcm'
_cell_length_a       3.96386
_cell_length_b       4.21829
_cell_length_c       5.67368
_cell_angle_alpha    111.823
_cell_angle_beta     90
_cell_angle_gamma    90

_symmetry_Int_Tables_number  63
_chemical_formula_structural  LuGa
_chemical_formula_sum  Lu2Ga2
_cell_volume  88.06921599374836
_cell_formula_units_Z  2
loop_
  _symmetry_equiv_pos_site_id
 _symmetry_equiv_pos_as_xyz
 1  'x, y, z'
loop_
 _atom_site_type_symbol
 _atom_site_label
 _atom_site_symmetry_multiplicity
 _atom_site_fract_x
 _atom_site_fract_y
 _atom_site_fract_z
 _atom_site_fract_occupancy
 Ga  Ga1  1  0.25000  0.41988  0.83977  1
 Ga  Ga2  1  0.75000  0.58012  0.16023  1
 Lu  Lu1  1  0.25000  0.13905  0.27810  1
 Lu  Lu2  1  0.75000  0.86095  0.72190  1
