CIF file written using JARVIS-Tools package.
data_YI
_symmetry_space_group_name_H-M  'P-3m1'
_cell_length_a       3.93749
_cell_length_b       3.93747
_cell_length_c       10.5642
_cell_angle_alpha    90
_cell_angle_beta     90.0001
_cell_angle_gamma    120

_symmetry_Int_Tables_number  164
_chemical_formula_structural  YI
_chemical_formula_sum  Y2I2
_cell_volume  141.84151371501653
_cell_formula_units_Z  2
loop_
  _symmetry_equiv_pos_site_id
 _symmetry_equiv_pos_as_xyz
 1  'x, y, z'
loop_
 _atom_site_type_symbol
 _atom_site_label
 _atom_site_symmetry_multiplicity
 _atom_site_fract_x
 _atom_site_fract_y
 _atom_site_fract_z
 _atom_site_fract_occupancy
 I  I1  1  0.33333  0.66667  0.16674  1
 I  I2  1  0.66667  0.33333  0.83326  1
 Y  Y1  1  0.66666  0.33333  0.36821  1
 Y  Y2  1  0.33334  0.66667  0.63179  1
