CIF file written using JARVIS-Tools package.
data_Fe11Si5
_symmetry_space_group_name_H-M  'Pm-3m'
_cell_length_a       5.57574
_cell_length_b       5.57574
_cell_length_c       5.57574
_cell_angle_alpha    90
_cell_angle_beta     90
_cell_angle_gamma    90

_symmetry_Int_Tables_number  221
_chemical_formula_structural  Fe11Si5
_chemical_formula_sum  FeSi5
_cell_volume  173.34302805531192
_cell_formula_units_Z  1
loop_
  _symmetry_equiv_pos_site_id
 _symmetry_equiv_pos_as_xyz
 1  'x, y, z'
loop_
 _atom_site_type_symbol
 _atom_site_label
 _atom_site_symmetry_multiplicity
 _atom_site_fract_x
 _atom_site_fract_y
 _atom_site_fract_z
 _atom_site_fract_occupancy
 Fe  Fe1  1  0.25259  0.74741  0.74741  1
 Fe  Fe2  1  0.74741  0.25259  0.74741  1
 Fe  Fe3  1  0.74741  0.74741  0.74741  1
 Fe  Fe4  1  0.50000  0.00000  0.00000  1
 Fe  Fe5  1  0.00000  0.00000  0.50000  1
 Fe  Fe6  1  0.00000  0.50000  0.00000  1
 Fe  Fe7  1  0.74741  0.74741  0.25259  1
 Fe  Fe8  1  0.74741  0.25259  0.25259  1
 Fe  Fe9  1  0.25259  0.25259  0.74741  1
 Fe  Fe10  1  0.25259  0.74741  0.25259  1
 Fe  Fe11  1  0.25259  0.25259  0.25259  1
 Si  Si1  1  0.50000  0.50000  0.50000  1
 Si  Si2  1  0.00000  0.50000  0.50000  1
 Si  Si3  1  0.50000  0.00000  0.50000  1
 Si  Si4  1  0.50000  0.50000  0.00000  1
 Si  Si5  1  0.00000  0.00000  0.00000  1
