CIF file written using JARVIS-Tools package.
data_LiAlHg2
_symmetry_space_group_name_H-M  'C2/m'
_cell_length_a       11.5035
_cell_length_b       6.99188
_cell_length_c       8.07135
_cell_angle_alpha    41.0421
_cell_angle_beta     19.1705
_cell_angle_gamma    27.5022

_symmetry_Int_Tables_number  12
_chemical_formula_structural  LiAlHg2
_chemical_formula_sum  LiAlHg2
_cell_volume  82.14149818222272
_cell_formula_units_Z  1
loop_
  _symmetry_equiv_pos_site_id
 _symmetry_equiv_pos_as_xyz
 1  'x, y, z'
loop_
 _atom_site_type_symbol
 _atom_site_label
 _atom_site_symmetry_multiplicity
 _atom_site_fract_x
 _atom_site_fract_y
 _atom_site_fract_z
 _atom_site_fract_occupancy
 Al  Al1  1  0.50000  0.00000  0.00000  1
 Hg  Hg1  1  0.75315  -0.00756  0.00362  1
 Hg  Hg2  1  0.24685  0.00756  -0.00362  1
 Li  Li1  1  0.00000  0.00000  0.00000  1
