CIF file written using JARVIS-Tools package.
data_CClF3
_symmetry_space_group_name_H-M  'Cmc2_1'
_cell_length_a       4.6421
_cell_length_b       5.91568
_cell_length_c       5.91568
_cell_angle_alpha    106.88
_cell_angle_beta     90
_cell_angle_gamma    90

_symmetry_Int_Tables_number  36
_chemical_formula_structural  CClF3
_chemical_formula_sum  C2Cl2F6
_cell_volume  155.45244859468067
_cell_formula_units_Z  2
loop_
  _symmetry_equiv_pos_site_id
 _symmetry_equiv_pos_as_xyz
 1  'x, y, z'
loop_
 _atom_site_type_symbol
 _atom_site_label
 _atom_site_symmetry_multiplicity
 _atom_site_fract_x
 _atom_site_fract_y
 _atom_site_fract_z
 _atom_site_fract_occupancy
 C  C1  1  0.00129  0.31341  0.68659  1
 C  C2  1  0.50129  0.68659  0.31341  1
 Cl  Cl1  1  0.09973  0.13543  0.86457  1
 Cl  Cl2  1  0.59973  0.86457  0.13543  1
 F  F1  1  0.71190  0.32743  0.67257  1
 F  F2  1  0.21190  0.67257  0.32743  1
 F  F3  1  0.10629  0.22414  0.46562  1
 F  F4  1  0.60629  0.77586  0.53438  1
 F  F5  1  0.10629  0.53438  0.77586  1
 F  F6  1  0.60629  0.46562  0.22414  1
