CIF file written using JARVIS-Tools package.
data_Rb3TlF6
_symmetry_space_group_name_H-M  'I4/mmm'
_cell_length_a       6.78972
_cell_length_b       6.78972
_cell_length_c       6.88491
_cell_angle_alpha    119.544
_cell_angle_beta     119.544
_cell_angle_gamma    90

_symmetry_Int_Tables_number  139
_chemical_formula_structural  Rb3TlF6
_chemical_formula_sum  Rb3TlF6
_cell_volume  227.49374367484702
_cell_formula_units_Z  1
loop_
  _symmetry_equiv_pos_site_id
 _symmetry_equiv_pos_as_xyz
 1  'x, y, z'
loop_
 _atom_site_type_symbol
 _atom_site_label
 _atom_site_symmetry_multiplicity
 _atom_site_fract_x
 _atom_site_fract_y
 _atom_site_fract_z
 _atom_site_fract_occupancy
 F  F1  1  0.68396  -0.00000  -0.00000  1
 F  F2  1  -0.00000  0.68396  0.00000  1
 F  F3  1  0.00000  0.31604  -0.00000  1
 F  F4  1  0.31604  0.00000  0.00000  1
 F  F5  1  0.23284  0.23284  0.46568  1
 F  F6  1  0.76716  0.76716  0.53432  1
 Rb  Rb1  1  0.75000  0.25000  0.50000  1
 Rb  Rb2  1  0.25000  0.75000  0.50000  1
 Rb  Rb3  1  0.50000  0.50000  -0.00000  1
 Tl  Tl1  1  0.00000  0.00000  0.00000  1
