CIF file written using JARVIS-Tools package.
data_NbAgF6
_symmetry_space_group_name_H-M  'P4_2/mcm'
_cell_length_a       5.04511
_cell_length_b       5.04511
_cell_length_c       9.41195
_cell_angle_alpha    90
_cell_angle_beta     90
_cell_angle_gamma    90

_symmetry_Int_Tables_number  132
_chemical_formula_structural  NbAgF6
_chemical_formula_sum  Nb2Ag2F2
_cell_volume  239.56387783698182
_cell_formula_units_Z  2
loop_
  _symmetry_equiv_pos_site_id
 _symmetry_equiv_pos_as_xyz
 1  'x, y, z'
loop_
 _atom_site_type_symbol
 _atom_site_label
 _atom_site_symmetry_multiplicity
 _atom_site_fract_x
 _atom_site_fract_y
 _atom_site_fract_z
 _atom_site_fract_occupancy
 Ag  Ag1  1  0.50000  0.50000  0.50000  1
 Ag  Ag2  1  0.50000  0.50000  0.00000  1
 F  F1  1  0.19448  0.80573  0.60527  1
 F  F2  1  0.80552  0.19427  0.60527  1
 F  F3  1  0.80573  0.80552  0.39473  1
 F  F4  1  0.19427  0.19448  0.39473  1
 F  F5  1  0.27282  0.72718  0.25000  1
 F  F6  1  0.72718  0.72718  0.75000  1
 F  F7  1  0.27282  0.27282  0.75000  1
 F  F8  1  0.72718  0.27282  0.25000  1
 F  F9  1  0.19448  0.19427  0.10527  1
 F  F10  1  0.19427  0.80552  0.89473  1
 F  F11  1  0.80573  0.19448  0.89473  1
 F  F12  1  0.80552  0.80573  0.10527  1
 Nb  Nb1  1  0.00000  0.00000  0.75000  1
 Nb  Nb2  1  0.00000  0.00000  0.25000  1
