CIF file written using JARVIS-Tools package.
data_CS2
_symmetry_space_group_name_H-M  'Cmce'
_cell_length_a       4.09365
_cell_length_b       4.09365
_cell_length_c       9.13179
_cell_angle_alpha    90
_cell_angle_beta     90
_cell_angle_gamma    97.8917

_symmetry_Int_Tables_number  64
_chemical_formula_structural  CS2
_chemical_formula_sum  C2S4
_cell_volume  151.5811375847475
_cell_formula_units_Z  2
loop_
  _symmetry_equiv_pos_site_id
 _symmetry_equiv_pos_as_xyz
 1  'x, y, z'
loop_
 _atom_site_type_symbol
 _atom_site_label
 _atom_site_symmetry_multiplicity
 _atom_site_fract_x
 _atom_site_fract_y
 _atom_site_fract_z
 _atom_site_fract_occupancy
 C  C1  1  0.00000  0.00000  0.00000  1
 C  C2  1  0.50000  0.50000  0.50000  1
 S  S1  1  0.20073  0.20073  0.12230  1
 S  S2  1  0.29927  0.29927  0.62230  1
 S  S3  1  0.70073  0.70073  0.37770  1
 S  S4  1  0.79927  0.79927  0.87770  1
