CIF file written using JARVIS-Tools package.
data_CaCeHg2
_symmetry_space_group_name_H-M  'Fm-3m'
_cell_length_a       5.33755
_cell_length_b       5.33711
_cell_length_c       5.33748
_cell_angle_alpha    60.0048
_cell_angle_beta     60.0076
_cell_angle_gamma    60.0134

_symmetry_Int_Tables_number  225
_chemical_formula_structural  CaCeHg2
_chemical_formula_sum  CaCeHg2
_cell_volume  107.53614248797561
_cell_formula_units_Z  1
loop_
  _symmetry_equiv_pos_site_id
 _symmetry_equiv_pos_as_xyz
 1  'x, y, z'
loop_
 _atom_site_type_symbol
 _atom_site_label
 _atom_site_symmetry_multiplicity
 _atom_site_fract_x
 _atom_site_fract_y
 _atom_site_fract_z
 _atom_site_fract_occupancy
 Ca  Ca1  1  0.25000  0.25000  0.25000  1
 Ce  Ce1  1  0.75000  0.75000  0.75000  1
 Hg  Hg1  1  1.00001  0.00000  1.00000  1
 Hg  Hg2  1  0.49999  0.50000  0.50000  1
