CIF file written using JARVIS-Tools package.
data_MgWF5
_symmetry_space_group_name_H-M  'C2/c'
_cell_length_a       5.28664
_cell_length_b       5.28664
_cell_length_c       7.84192
_cell_angle_alpha    95.7484
_cell_angle_beta     114.369
_cell_angle_gamma    103.85

_symmetry_Int_Tables_number  15
_chemical_formula_structural  MgWF5
_chemical_formula_sum  Mg2W2F0
_cell_volume  188.8724005627499
_cell_formula_units_Z  2
loop_
  _symmetry_equiv_pos_site_id
 _symmetry_equiv_pos_as_xyz
 1  'x, y, z'
loop_
 _atom_site_type_symbol
 _atom_site_label
 _atom_site_symmetry_multiplicity
 _atom_site_fract_x
 _atom_site_fract_y
 _atom_site_fract_z
 _atom_site_fract_occupancy
 F  F1  1  0.40116  0.15116  0.25000  1
 F  F2  1  0.59884  0.84884  0.75000  1
 F  F3  1  0.54808  0.69976  0.34048  1
 F  F4  1  0.85927  0.20760  0.15952  1
 F  F5  1  0.75009  0.67355  0.04785  1
 F  F6  1  0.12570  0.70225  0.45215  1
 F  F7  1  0.24991  0.32645  0.95215  1
 F  F8  1  0.87430  0.29775  0.54785  1
 F  F9  1  0.14073  0.79240  0.84048  1
 F  F10  1  0.45192  0.30024  0.65952  1
 Mg  Mg1  1  0.26938  0.51938  0.75000  1
 Mg  Mg2  1  0.73062  0.48062  0.25000  1
 W  W1  1  0.00000  0.00000  0.00000  1
 W  W2  1  0.50000  0.00000  0.50000  1
