CIF file written using JARVIS-Tools package.
data_Rb4CO4
_symmetry_space_group_name_H-M  'I222'
_cell_length_a       5.37602
_cell_length_b       6.23989
_cell_length_c       6.63842
_cell_angle_alpha    118.032
_cell_angle_beta     113.885
_cell_angle_gamma    90.0009

_symmetry_Int_Tables_number  23
_chemical_formula_structural  Rb4CO4
_chemical_formula_sum  Rb4CO4
_cell_volume  174.66408355862998
_cell_formula_units_Z  1
loop_
  _symmetry_equiv_pos_site_id
 _symmetry_equiv_pos_as_xyz
 1  'x, y, z'
loop_
 _atom_site_type_symbol
 _atom_site_label
 _atom_site_symmetry_multiplicity
 _atom_site_fract_x
 _atom_site_fract_y
 _atom_site_fract_z
 _atom_site_fract_occupancy
 C  C1  1  0.00001  0.50000  -0.00000  1
 O  O1  1  0.76575  0.55066  0.83623  1
 O  O2  1  0.92950  0.44933  0.16376  1
 O  O3  1  0.23428  0.71442  0.16377  1
 O  O4  1  0.07051  0.28558  0.83623  1
 Rb  Rb1  1  0.47955  0.37732  0.29010  1
 Rb  Rb2  1  0.81053  0.91275  0.29009  1
 Rb  Rb3  1  0.18945  0.62269  0.70991  1
 Rb  Rb4  1  0.52043  0.08725  0.70990  1
