CIF file written using JARVIS-Tools package.
data_RbHO
_symmetry_space_group_name_H-M  'Cmc2_1'
_cell_length_a       5.80809
_cell_length_b       4.187
_cell_length_c       5.80809
_cell_angle_alpha    90
_cell_angle_beta     41.7576
_cell_angle_gamma    90

_symmetry_Int_Tables_number  36
_chemical_formula_structural  RbHO
_chemical_formula_sum  Rb2H2O2
_cell_volume  94.06573178794707
_cell_formula_units_Z  2
loop_
  _symmetry_equiv_pos_site_id
 _symmetry_equiv_pos_as_xyz
 1  'x, y, z'
loop_
 _atom_site_type_symbol
 _atom_site_label
 _atom_site_symmetry_multiplicity
 _atom_site_fract_x
 _atom_site_fract_y
 _atom_site_fract_z
 _atom_site_fract_occupancy
 H  H1  1  0.03243  0.39804  0.03243  1
 H  H2  1  0.96757  0.89804  0.96757  1
 O  O1  1  0.09899  0.23706  0.09899  1
 O  O2  1  0.90101  0.73706  0.90101  1
 Rb  Rb1  1  0.36059  0.26029  0.36059  1
 Rb  Rb2  1  0.63941  0.76029  0.63941  1
