CIF file written using JARVIS-Tools package.
data_BaCSNCl
_symmetry_space_group_name_H-M  'P2_1/m'
_cell_length_a       5.91202
_cell_length_b       4.62911
_cell_length_c       8.63798
_cell_angle_alpha    90
_cell_angle_beta     99.5522
_cell_angle_gamma    90

_symmetry_Int_Tables_number  11
_chemical_formula_structural  BaCSNCl
_chemical_formula_sum  Ba2C2S2N2Cl2
_cell_volume  233.12112589664707
_cell_formula_units_Z  2
loop_
  _symmetry_equiv_pos_site_id
 _symmetry_equiv_pos_as_xyz
 1  'x, y, z'
loop_
 _atom_site_type_symbol
 _atom_site_label
 _atom_site_symmetry_multiplicity
 _atom_site_fract_x
 _atom_site_fract_y
 _atom_site_fract_z
 _atom_site_fract_occupancy
 Ba  Ba1  1  0.20894  0.25000  0.30003  1
 Ba  Ba2  1  0.79106  0.75000  0.69997  1
 C  C1  1  0.60477  0.75000  0.15114  1
 C  C2  1  0.39523  0.25000  0.84886  1
 Cl  Cl1  1  0.25373  0.75000  0.55359  1
 Cl  Cl2  1  0.74627  0.25000  0.44641  1
 N  N1  1  0.41941  0.75000  0.18610  1
 N  N2  1  0.58059  0.25000  0.81390  1
 S  S1  1  0.14018  0.25000  0.89685  1
 S  S2  1  0.85982  0.75000  0.10315  1
