CIF file written using JARVIS-Tools package.
data_UCl6
_symmetry_space_group_name_H-M  'P-3m1'
_cell_length_a       10.8749
_cell_length_b       10.8749
_cell_length_c       5.94508
_cell_angle_alpha    90
_cell_angle_beta     90
_cell_angle_gamma    120

_symmetry_Int_Tables_number  164
_chemical_formula_structural  UCl6
_chemical_formula_sum  U3Cl8
_cell_volume  608.8916954834001
_cell_formula_units_Z  3
loop_
  _symmetry_equiv_pos_site_id
 _symmetry_equiv_pos_as_xyz
 1  'x, y, z'
loop_
 _atom_site_type_symbol
 _atom_site_label
 _atom_site_symmetry_multiplicity
 _atom_site_fract_x
 _atom_site_fract_y
 _atom_site_fract_z
 _atom_site_fract_occupancy
 Cl  Cl1  1  0.89284  0.78567  0.76003  1
 Cl  Cl2  1  0.22633  0.45265  0.72473  1
 Cl  Cl3  1  0.54735  0.77367  0.72473  1
 Cl  Cl4  1  0.22633  0.77367  0.72473  1
 Cl  Cl5  1  0.10716  0.21433  0.23997  1
 Cl  Cl6  1  0.78567  0.89284  0.23997  1
 Cl  Cl7  1  0.10716  0.89284  0.23997  1
 Cl  Cl8  1  0.89284  0.10716  0.76003  1
 Cl  Cl9  1  0.21433  0.10716  0.76003  1
 Cl  Cl10  1  0.45265  0.22633  0.27527  1
 Cl  Cl11  1  0.77367  0.22633  0.27527  1
 Cl  Cl12  1  0.11946  0.55973  0.24244  1
 Cl  Cl13  1  0.44027  0.55973  0.24244  1
 Cl  Cl14  1  0.55973  0.44027  0.75756  1
 Cl  Cl15  1  0.88054  0.44027  0.75756  1
 Cl  Cl16  1  0.55973  0.11946  0.75756  1
 Cl  Cl17  1  0.77367  0.54735  0.27527  1
 Cl  Cl18  1  0.44027  0.88054  0.24244  1
 U  U1  1  0.00000  0.00000  0.00000  1
 U  U2  1  0.33333  0.66667  0.48371  1
 U  U3  1  0.66667  0.33333  0.51629  1
