CIF file written using JARVIS-Tools package.
data_BaMnF4
_symmetry_space_group_name_H-M  'Cmc2_1'
_cell_length_a       4.2921
_cell_length_b       5.98416
_cell_length_c       7.80657
_cell_angle_alpha    90
_cell_angle_beta     105.956
_cell_angle_gamma    90

_symmetry_Int_Tables_number  36
_chemical_formula_structural  BaMnF4
_chemical_formula_sum  Ba2Mn2F8
_cell_volume  192.78341410699667
_cell_formula_units_Z  2
loop_
  _symmetry_equiv_pos_site_id
 _symmetry_equiv_pos_as_xyz
 1  'x, y, z'
loop_
 _atom_site_type_symbol
 _atom_site_label
 _atom_site_symmetry_multiplicity
 _atom_site_fract_x
 _atom_site_fract_y
 _atom_site_fract_z
 _atom_site_fract_occupancy
 Ba  Ba1  1  0.84718  0.95176  0.69436  1
 Ba  Ba2  1  0.15282  0.45176  0.30564  1
 F  F1  1  0.92161  0.51311  0.84323  1
 F  F2  1  0.07839  0.01311  0.15677  1
 F  F3  1  0.46349  0.84028  0.92699  1
 F  F4  1  0.53651  0.34028  0.07301  1
 F  F5  1  0.70167  0.19816  0.40335  1
 F  F6  1  0.29833  0.69816  0.59665  1
 F  F7  1  0.66997  0.72139  0.33993  1
 F  F8  1  0.33003  0.22139  0.66007  1
 Mn  Mn1  1  0.41365  0.49491  0.82730  1
 Mn  Mn2  1  0.58635  0.99491  0.17270  1
