CIF file written using JARVIS-Tools package.
data_ZnC2O4
_symmetry_space_group_name_H-M  'P2_1/c'
_cell_length_a       5.40472
_cell_length_b       5.07033
_cell_length_c       6.16483
_cell_angle_alpha    90
_cell_angle_beta     119.803
_cell_angle_gamma    90

_symmetry_Int_Tables_number  14
_chemical_formula_structural  ZnC2O4
_chemical_formula_sum  Zn2C4O8
_cell_volume  146.59556611043476
_cell_formula_units_Z  2
loop_
  _symmetry_equiv_pos_site_id
 _symmetry_equiv_pos_as_xyz
 1  'x, y, z'
loop_
 _atom_site_type_symbol
 _atom_site_label
 _atom_site_symmetry_multiplicity
 _atom_site_fract_x
 _atom_site_fract_y
 _atom_site_fract_z
 _atom_site_fract_occupancy
 C  C1  1  0.45702  0.12136  0.91268  1
 C  C2  1  0.54298  0.62136  0.58732  1
 C  C3  1  0.45702  0.37864  0.41268  1
 C  C4  1  0.54298  0.87864  0.08732  1
 O  O1  1  0.64419  0.28252  0.37001  1
 O  O2  1  0.35581  0.78252  0.12999  1
 O  O3  1  0.79554  0.79157  0.17507  1
 O  O4  1  0.35581  0.71748  0.62999  1
 O  O5  1  0.79554  0.70843  0.67507  1
 O  O6  1  0.20446  0.29157  0.32493  1
 O  O7  1  0.64419  0.21748  0.87001  1
 O  O8  1  0.20446  0.20843  0.82493  1
 Zn  Zn1  1  0.00000  0.00000  0.00000  1
 Zn  Zn2  1  0.00000  0.50000  0.50000  1
