CIF file written using JARVIS-Tools package.
data_YZn2Au
_symmetry_space_group_name_H-M  'Fm-3m'
_cell_length_a       11.491
_cell_length_b       8.12501
_cell_length_c       8.12524
_cell_angle_alpha    33.5786
_cell_angle_beta     19.4845
_cell_angle_gamma    19.483

_symmetry_Int_Tables_number  225
_chemical_formula_structural  YZn2Au
_chemical_formula_sum  YZn2Au
_cell_volume  73.08811827804567
_cell_formula_units_Z  1
loop_
  _symmetry_equiv_pos_site_id
 _symmetry_equiv_pos_as_xyz
 1  'x, y, z'
loop_
 _atom_site_type_symbol
 _atom_site_label
 _atom_site_symmetry_multiplicity
 _atom_site_fract_x
 _atom_site_fract_y
 _atom_site_fract_z
 _atom_site_fract_occupancy
 Au  Au1  1  0.50000  0.00000  0.00000  1
 Y  Y1  1  -0.00000  0.00000  0.00000  1
 Zn  Zn1  1  0.74966  0.00019  0.00020  1
 Zn  Zn2  1  0.25034  -0.00019  -0.00020  1
