CIF file written using JARVIS-Tools package.
data_MoN
_symmetry_space_group_name_H-M  'Imma'
_cell_length_a       3.14645
_cell_length_b       5.29874
_cell_length_c       5.29874
_cell_angle_alpha    95.5687
_cell_angle_beta     72.7282
_cell_angle_gamma    72.7282

_symmetry_Int_Tables_number  74
_chemical_formula_structural  MoN
_chemical_formula_sum  Mo2N2
_cell_volume  78.87539324139273
_cell_formula_units_Z  2
loop_
  _symmetry_equiv_pos_site_id
 _symmetry_equiv_pos_as_xyz
 1  'x, y, z'
loop_
 _atom_site_type_symbol
 _atom_site_label
 _atom_site_symmetry_multiplicity
 _atom_site_fract_x
 _atom_site_fract_y
 _atom_site_fract_z
 _atom_site_fract_occupancy
 Mo  Mo1  1  0.75000  0.13479  0.36521  1
 Mo  Mo2  1  0.25000  0.86521  0.63479  1
 N  N1  1  0.50000  0.50000  0.50000  1
 N  N2  1  0.00000  0.00000  0.00000  1
