CIF file written using JARVIS-Tools package.
data_Zn2NiN2
_symmetry_space_group_name_H-M  'C2/m'
_cell_length_a       3.55704
_cell_length_b       5.93879
_cell_length_c       6.67165
_cell_angle_alpha    100.147
_cell_angle_beta     105.465
_cell_angle_gamma    107.427

_symmetry_Int_Tables_number  12
_chemical_formula_structural  Zn2NiN2
_chemical_formula_sum  Zn4Ni2N4
_cell_volume  124.47312597830319
_cell_formula_units_Z  2
loop_
  _symmetry_equiv_pos_site_id
 _symmetry_equiv_pos_as_xyz
 1  'x, y, z'
loop_
 _atom_site_type_symbol
 _atom_site_label
 _atom_site_symmetry_multiplicity
 _atom_site_fract_x
 _atom_site_fract_y
 _atom_site_fract_z
 _atom_site_fract_occupancy
 N  N1  1  0.55486  0.75086  0.35678  1
 N  N2  1  0.44707  0.24721  0.64467  1
 N  N3  1  0.29491  0.77237  0.81526  1
 N  N4  1  0.70690  0.22567  0.18620  1
 Ni  Ni1  1  0.49443  0.87413  0.11269  1
 Ni  Ni2  1  0.50740  0.12393  0.88877  1
 Zn  Zn1  1  0.14914  0.80404  0.49213  1
 Zn  Zn2  1  0.85277  0.19400  0.50932  1
 Zn  Zn3  1  0.29905  0.39357  0.20257  1
 Zn  Zn4  1  0.70277  0.60449  0.79888  1
