CIF file written using JARVIS-Tools package.
data_Te6MoW3Se2
_symmetry_space_group_name_H-M  'P3m1'
_cell_length_a       3.50461
_cell_length_b       3.50461
_cell_length_c       37.7751
_cell_angle_alpha    89.9999
_cell_angle_beta     90
_cell_angle_gamma    120

_symmetry_Int_Tables_number  156
_chemical_formula_structural  Te6MoW3Se2
_chemical_formula_sum  Te6MoW3Se2
_cell_volume  401.8049337472596
_cell_formula_units_Z  1
loop_
  _symmetry_equiv_pos_site_id
 _symmetry_equiv_pos_as_xyz
 1  'x, y, z'
loop_
 _atom_site_type_symbol
 _atom_site_label
 _atom_site_symmetry_multiplicity
 _atom_site_fract_x
 _atom_site_fract_y
 _atom_site_fract_z
 _atom_site_fract_occupancy
 Mo  Mo1  1  0.33334  0.66668  0.09211  1
 Se  Se1  1  0.33334  0.66667  0.69721  1
 Se  Se2  1  0.33335  0.66670  0.61134  1
 Te  Te1  1  0.33332  0.66663  0.33162  1
 Te  Te2  1  0.66666  0.33332  0.04359  1
 Te  Te3  1  0.66664  0.33328  0.42487  1
 Te  Te4  1  0.66669  0.33338  0.14073  1
 Te  Te5  1  0.66666  0.33331  0.52247  1
 Te  Te6  1  0.33335  0.66670  0.23400  1
 W  W1  1  0.33331  0.66663  0.47367  1
 W  W2  1  0.66667  0.33333  0.28281  1
 W  W3  1  0.66668  0.33336  0.65431  1
