CIF file written using JARVIS-Tools package.
data_TmSi
_symmetry_space_group_name_H-M  'Cmcm'
_cell_length_a       3.79898
_cell_length_b       4.20845
_cell_length_c       5.60316
_cell_angle_alpha    112.058
_cell_angle_beta     90
_cell_angle_gamma    90

_symmetry_Int_Tables_number  63
_chemical_formula_structural  TmSi
_chemical_formula_sum  Tm2Si2
_cell_volume  83.02536292339704
_cell_formula_units_Z  2
loop_
  _symmetry_equiv_pos_site_id
 _symmetry_equiv_pos_as_xyz
 1  'x, y, z'
loop_
 _atom_site_type_symbol
 _atom_site_label
 _atom_site_symmetry_multiplicity
 _atom_site_fract_x
 _atom_site_fract_y
 _atom_site_fract_z
 _atom_site_fract_occupancy
 Si  Si1  1  0.75000  0.42079  0.84157  1
 Si  Si2  1  0.25000  0.57921  0.15843  1
 Tm  Tm1  1  0.75000  0.14048  0.28096  1
 Tm  Tm2  1  0.25000  0.85952  0.71904  1
