CIF file written using JARVIS-Tools package.
data_Ba5Sb4
_symmetry_space_group_name_H-M  'Cmce'
_cell_length_a       9.09081
_cell_length_b       9.13318
_cell_length_c       10.0094
_cell_angle_alpha    90
_cell_angle_beta     117.008
_cell_angle_gamma    90

_symmetry_Int_Tables_number  64
_chemical_formula_structural  Ba5Sb4
_chemical_formula_sum  Ba0Sb8
_cell_volume  740.4293512749241
_cell_formula_units_Z  2
loop_
  _symmetry_equiv_pos_site_id
 _symmetry_equiv_pos_as_xyz
 1  'x, y, z'
loop_
 _atom_site_type_symbol
 _atom_site_label
 _atom_site_symmetry_multiplicity
 _atom_site_fract_x
 _atom_site_fract_y
 _atom_site_fract_z
 _atom_site_fract_occupancy
 Ba  Ba1  1  0.50000  0.50000  -0.00000  1
 Ba  Ba2  1  0.81533  0.16592  0.29091  1
 Ba  Ba3  1  0.00000  0.00000  0.00000  1
 Ba  Ba4  1  0.31533  0.33408  0.29091  1
 Ba  Ba5  1  0.52442  0.16592  0.70909  1
 Ba  Ba6  1  0.02442  0.33408  0.70909  1
 Ba  Ba7  1  0.97558  0.66592  0.29091  1
 Ba  Ba8  1  0.68467  0.66592  0.70909  1
 Ba  Ba9  1  0.47558  0.83408  0.29091  1
 Ba  Ba10  1  0.18467  0.83408  0.70909  1
 Sb  Sb1  1  0.38510  0.11480  0.00000  1
 Sb  Sb2  1  0.69956  0.50000  0.39912  1
 Sb  Sb3  1  0.80044  0.00000  0.60088  1
 Sb  Sb4  1  0.30044  0.50000  0.60088  1
 Sb  Sb5  1  0.19956  0.00000  0.39912  1
 Sb  Sb6  1  0.11490  0.61480  -0.00000  1
 Sb  Sb7  1  0.61490  0.88520  -0.00000  1
 Sb  Sb8  1  0.88510  0.38520  0.00000  1
