CIF file written using JARVIS-Tools package.
data_NaMgCd2
_symmetry_space_group_name_H-M  'Immm'
_cell_length_a       12.1663
_cell_length_b       6.90101
_cell_length_c       6.90101
_cell_angle_alpha    26.116
_cell_angle_beta     28.1778
_cell_angle_gamma    28.1777

_symmetry_Int_Tables_number  71
_chemical_formula_structural  NaMgCd2
_chemical_formula_sum  NaMgCd2
_cell_volume  108.56278613083407
_cell_formula_units_Z  1
loop_
  _symmetry_equiv_pos_site_id
 _symmetry_equiv_pos_as_xyz
 1  'x, y, z'
loop_
 _atom_site_type_symbol
 _atom_site_label
 _atom_site_symmetry_multiplicity
 _atom_site_fract_x
 _atom_site_fract_y
 _atom_site_fract_z
 _atom_site_fract_occupancy
 Cd  Cd1  1  0.73920  -0.00000  0.00000  1
 Cd  Cd2  1  0.26080  0.00000  -0.00000  1
 Mg  Mg1  1  0.50000  0.00000  -0.00000  1
 Na  Na1  1  0.00000  0.00000  0.00000  1
