CIF file written using JARVIS-Tools package.
data_HfMg
_symmetry_space_group_name_H-M  'Pmma'
_cell_length_a       5.1041
_cell_length_b       3.00635
_cell_length_c       5.61622
_cell_angle_alpha    90
_cell_angle_beta     90
_cell_angle_gamma    90

_symmetry_Int_Tables_number  51
_chemical_formula_structural  HfMg
_chemical_formula_sum  Hf2Mg2
_cell_volume  86.17925427137317
_cell_formula_units_Z  2
loop_
  _symmetry_equiv_pos_site_id
 _symmetry_equiv_pos_as_xyz
 1  'x, y, z'
loop_
 _atom_site_type_symbol
 _atom_site_label
 _atom_site_symmetry_multiplicity
 _atom_site_fract_x
 _atom_site_fract_y
 _atom_site_fract_z
 _atom_site_fract_occupancy
 Hf  Hf1  1  0.75000  0.00000  0.14754  1
 Hf  Hf2  1  0.25000  0.00000  0.85246  1
 Mg  Mg1  1  0.25000  0.50000  0.34418  1
 Mg  Mg2  1  0.75000  0.50000  0.65582  1
