CIF file written using JARVIS-Tools package.
data_Tl4Te3Pb
_symmetry_space_group_name_H-M  'I4/mcm'
_cell_length_a       8.94726
_cell_length_b       8.94726
_cell_length_c       9.19176
_cell_angle_alpha    119.124
_cell_angle_beta     119.124
_cell_angle_gamma    90

_symmetry_Int_Tables_number  140
_chemical_formula_structural  Tl4Te3Pb
_chemical_formula_sum  Tl8Te6Pb2
_cell_volume  533.793474452552
_cell_formula_units_Z  2
loop_
  _symmetry_equiv_pos_site_id
 _symmetry_equiv_pos_as_xyz
 1  'x, y, z'
loop_
 _atom_site_type_symbol
 _atom_site_label
 _atom_site_symmetry_multiplicity
 _atom_site_fract_x
 _atom_site_fract_y
 _atom_site_fract_z
 _atom_site_fract_occupancy
 Pb  Pb1  1  0.50000  0.50000  0.00000  1
 Pb  Pb2  1  0.00000  0.00000  0.00000  1
 Te  Te1  1  0.83628  0.66372  -0.00000  1
 Te  Te2  1  0.66372  0.16372  -0.00000  1
 Te  Te3  1  0.25000  0.25000  0.50000  1
 Te  Te4  1  0.75000  0.75000  0.50000  1
 Te  Te5  1  0.33628  0.83628  0.00000  1
 Te  Te6  1  0.16372  0.33628  0.00000  1
 Tl  Tl1  1  0.01313  0.51313  0.31877  1
 Tl  Tl2  1  0.69435  0.19435  0.68123  1
 Tl  Tl3  1  0.30565  0.80565  0.31877  1
 Tl  Tl4  1  0.51313  0.30565  0.31877  1
 Tl  Tl5  1  0.80565  0.01313  0.31877  1
 Tl  Tl6  1  0.48687  0.69435  0.68123  1
 Tl  Tl7  1  0.19435  0.98687  0.68123  1
 Tl  Tl8  1  0.98687  0.48687  0.68123  1
