CIF file written using JARVIS-Tools package.
data_TiO2
_symmetry_space_group_name_H-M  'Pmmn'
_cell_length_a       5.18322
_cell_length_b       5.98727
_cell_length_c       9.88758
_cell_angle_alpha    90
_cell_angle_beta     90
_cell_angle_gamma    90

_symmetry_Int_Tables_number  59
_chemical_formula_structural  TiO2
_chemical_formula_sum  Ti8O6
_cell_volume  306.8448911426334
_cell_formula_units_Z  8
loop_
  _symmetry_equiv_pos_site_id
 _symmetry_equiv_pos_as_xyz
 1  'x, y, z'
loop_
 _atom_site_type_symbol
 _atom_site_label
 _atom_site_symmetry_multiplicity
 _atom_site_fract_x
 _atom_site_fract_y
 _atom_site_fract_z
 _atom_site_fract_occupancy
 O  O1  1  0.33306  0.00106  0.40176  1
 O  O2  1  0.83340  0.75000  0.40048  1
 O  O3  1  0.83340  0.75000  0.09952  1
 O  O4  1  0.16660  0.25000  0.59952  1
 O  O5  1  0.66694  0.99894  0.59824  1
 O  O6  1  0.16705  0.75000  0.59561  1
 O  O7  1  0.16705  0.75000  0.90439  1
 O  O8  1  0.16660  0.25000  0.90048  1
 O  O9  1  0.83295  0.25000  0.09561  1
 O  O10  1  0.66694  0.50106  0.59824  1
 O  O11  1  0.66694  0.99894  0.90176  1
 O  O12  1  0.66694  0.50106  0.90176  1
 O  O13  1  0.33306  0.49894  0.09824  1
 O  O14  1  0.33306  0.49894  0.40176  1
 O  O15  1  0.33306  0.00106  0.09824  1
 O  O16  1  0.83295  0.25000  0.40439  1
 Ti  Ti1  1  0.00000  0.50000  0.00000  1
 Ti  Ti2  1  0.00000  0.00000  0.50000  1
 Ti  Ti3  1  0.00000  0.00000  0.00000  1
 Ti  Ti4  1  0.00000  0.50000  0.50000  1
 Ti  Ti5  1  0.50675  0.25000  0.98634  1
 Ti  Ti6  1  0.50675  0.25000  0.51366  1
 Ti  Ti7  1  0.49325  0.75000  0.01366  1
 Ti  Ti8  1  0.49325  0.75000  0.48634  1
