CIF file written using JARVIS-Tools package.
data_MnHgPd2
_symmetry_space_group_name_H-M  'C2/m'
_cell_length_a       11.2744
_cell_length_b       7.62103
_cell_length_c       7.62118
_cell_angle_alpha    23.229
_cell_angle_beta     18.8414
_cell_angle_gamma    18.8407

_symmetry_Int_Tables_number  12
_chemical_formula_structural  MnHgPd2
_chemical_formula_sum  MnHgPd2
_cell_volume  66.57926834994078
_cell_formula_units_Z  1
loop_
  _symmetry_equiv_pos_site_id
 _symmetry_equiv_pos_as_xyz
 1  'x, y, z'
loop_
 _atom_site_type_symbol
 _atom_site_label
 _atom_site_symmetry_multiplicity
 _atom_site_fract_x
 _atom_site_fract_y
 _atom_site_fract_z
 _atom_site_fract_occupancy
 Hg  Hg1  1  0.50000  0.00000  0.00000  1
 Mn  Mn1  1  -0.00000  1.00000  0.00000  1
 Pd  Pd1  1  0.71491  0.02587  0.02586  1
 Pd  Pd2  1  0.28509  0.97414  0.97414  1
