CIF file written using JARVIS-Tools package.
data_Pu
_symmetry_space_group_name_H-M  'Cmce'
_cell_length_a       3.78034
_cell_length_b       4.26954
_cell_length_c       5.13664
_cell_angle_alpha    65.4431
_cell_angle_beta     90
_cell_angle_gamma    90

_symmetry_Int_Tables_number  64
_chemical_formula_structural  Pu
_chemical_formula_sum  Pu4
_cell_volume  75.40796222129423
_cell_formula_units_Z  4
loop_
  _symmetry_equiv_pos_site_id
 _symmetry_equiv_pos_as_xyz
 1  'x, y, z'
loop_
 _atom_site_type_symbol
 _atom_site_label
 _atom_site_symmetry_multiplicity
 _atom_site_fract_x
 _atom_site_fract_y
 _atom_site_fract_z
 _atom_site_fract_occupancy
 Pu  Pu1  1  0.89239  0.37934  0.24132  1
 Pu  Pu2  1  0.60761  0.87934  0.24132  1
 Pu  Pu3  1  0.39240  0.12066  0.75868  1
 Pu  Pu4  1  0.10761  0.62066  0.75868  1
