CIF file written using JARVIS-Tools package.
data_V4ZnS8
_symmetry_space_group_name_H-M  'R-3m'
_cell_length_a       6.84452
_cell_length_b       6.89581
_cell_length_c       6.89582
_cell_angle_alpha    60
_cell_angle_beta     59.7518
_cell_angle_gamma    59.7518

_symmetry_Int_Tables_number  166
_chemical_formula_structural  V4ZnS8
_chemical_formula_sum  V4ZnS8
_cell_volume  229.27636873096637
_cell_formula_units_Z  1
loop_
  _symmetry_equiv_pos_site_id
 _symmetry_equiv_pos_as_xyz
 1  'x, y, z'
loop_
 _atom_site_type_symbol
 _atom_site_label
 _atom_site_symmetry_multiplicity
 _atom_site_fract_x
 _atom_site_fract_y
 _atom_site_fract_z
 _atom_site_fract_occupancy
 S  S1  1  0.25080  0.25315  0.25315  1
 S  S2  1  0.25080  0.25315  0.74289  1
 S  S3  1  0.25080  0.74289  0.25315  1
 S  S4  1  0.74255  0.25248  0.25248  1
 S  S5  1  0.25745  0.74752  0.74752  1
 S  S6  1  0.74920  0.74685  0.25711  1
 S  S7  1  0.74920  0.25711  0.74685  1
 S  S8  1  0.74920  0.74685  0.74685  1
 V  V1  1  -0.00000  0.50000  0.50000  1
 V  V2  1  0.50000  0.50000  0.00000  1
 V  V3  1  0.50000  0.50000  0.50000  1
 V  V4  1  0.50000  0.00000  0.50000  1
 Zn  Zn1  1  0.50000  0.00000  0.00000  1
