CIF file written using JARVIS-Tools package.
data_In2O3
_symmetry_space_group_name_H-M  'R-3c'
_cell_length_a       5.84866
_cell_length_b       5.84865
_cell_length_c       5.84866
_cell_angle_alpha    56.8659
_cell_angle_beta     56.8659
_cell_angle_gamma    56.8659

_symmetry_Int_Tables_number  167
_chemical_formula_structural  In2O3
_chemical_formula_sum  In4O6
_cell_volume  131.23639223682716
_cell_formula_units_Z  2
loop_
  _symmetry_equiv_pos_site_id
 _symmetry_equiv_pos_as_xyz
 1  'x, y, z'
loop_
 _atom_site_type_symbol
 _atom_site_label
 _atom_site_symmetry_multiplicity
 _atom_site_fract_x
 _atom_site_fract_y
 _atom_site_fract_z
 _atom_site_fract_occupancy
 In  In1  1  0.64215  0.64215  0.64215  1
 In  In2  1  0.85785  0.85785  0.85785  1
 In  In3  1  0.35785  0.35785  0.35785  1
 In  In4  1  0.14215  0.14215  0.14215  1
 O  O1  1  0.04607  0.75000  0.45393  1
 O  O2  1  0.75000  0.45393  0.04607  1
 O  O3  1  0.45393  0.04607  0.75000  1
 O  O4  1  0.95393  0.25000  0.54607  1
 O  O5  1  0.54607  0.95393  0.25000  1
 O  O6  1  0.25000  0.54607  0.95393  1
