CIF file written using JARVIS-Tools package.
data_PdI2
_symmetry_space_group_name_H-M  'P2_1/c'
_cell_length_a       6.79839
_cell_length_b       8.50078
_cell_length_c       6.91649
_cell_angle_alpha    90
_cell_angle_beta     104.448
_cell_angle_gamma    90

_symmetry_Int_Tables_number  14
_chemical_formula_structural  PdI2
_chemical_formula_sum  Pd4I8
_cell_volume  387.07437084304615
_cell_formula_units_Z  4
loop_
  _symmetry_equiv_pos_site_id
 _symmetry_equiv_pos_as_xyz
 1  'x, y, z'
loop_
 _atom_site_type_symbol
 _atom_site_label
 _atom_site_symmetry_multiplicity
 _atom_site_fract_x
 _atom_site_fract_y
 _atom_site_fract_z
 _atom_site_fract_occupancy
 I  I1  1  0.01517  0.90599  0.27155  1
 I  I2  1  0.98483  0.40599  0.22845  1
 I  I3  1  0.98483  0.09401  0.72845  1
 I  I4  1  0.01517  0.59401  0.77155  1
 I  I5  1  0.53332  0.65812  0.26223  1
 I  I6  1  0.46668  0.15812  0.23777  1
 I  I7  1  0.46668  0.34188  0.73777  1
 I  I8  1  0.53332  0.84188  0.76223  1
 Pd  Pd1  1  0.24183  0.37435  -0.00030  1
 Pd  Pd2  1  0.75817  0.87435  0.50030  1
 Pd  Pd3  1  0.75817  0.62565  0.00030  1
 Pd  Pd4  1  0.24183  0.12565  0.49970  1
