CIF file written using JARVIS-Tools package.
data_ZrBeRh2
_symmetry_space_group_name_H-M  'Immm'
_cell_length_a       9.68803
_cell_length_b       5.50277
_cell_length_c       5.50276
_cell_angle_alpha    29.6361
_cell_angle_beta     28.3229
_cell_angle_gamma    28.323

_symmetry_Int_Tables_number  71
_chemical_formula_structural  ZrBeRh2
_chemical_formula_sum  ZrBeRh2
_cell_volume  59.9621035337943
_cell_formula_units_Z  1
loop_
  _symmetry_equiv_pos_site_id
 _symmetry_equiv_pos_as_xyz
 1  'x, y, z'
loop_
 _atom_site_type_symbol
 _atom_site_label
 _atom_site_symmetry_multiplicity
 _atom_site_fract_x
 _atom_site_fract_y
 _atom_site_fract_z
 _atom_site_fract_occupancy
 Be  Be1  1  0.00000  0.00000  0.00000  1
 Rh  Rh1  1  0.79224  0.00000  0.00000  1
 Rh  Rh2  1  0.20776  0.00000  0.00000  1
 Zr  Zr1  1  0.50000  0.00000  0.00000  1
