CIF file written using JARVIS-Tools package.
data_YbTaO4
_symmetry_space_group_name_H-M  'C2/c'
_cell_length_a       5.11013
_cell_length_b       5.39824
_cell_length_c       6.44345
_cell_angle_alpha    112.922
_cell_angle_beta     111.436
_cell_angle_gamma    94.2538

_symmetry_Int_Tables_number  15
_chemical_formula_structural  YbTaO4
_chemical_formula_sum  Yb2Ta2O8
_cell_volume  147.44668092886462
_cell_formula_units_Z  2
loop_
  _symmetry_equiv_pos_site_id
 _symmetry_equiv_pos_as_xyz
 1  'x, y, z'
loop_
 _atom_site_type_symbol
 _atom_site_label
 _atom_site_symmetry_multiplicity
 _atom_site_fract_x
 _atom_site_fract_y
 _atom_site_fract_z
 _atom_site_fract_occupancy
 O  O1  1  -0.00103  0.79391  0.55580  1
 O  O2  1  0.79699  0.61199  0.06556  1
 O  O3  1  0.00103  0.20609  0.44420  1
 O  O4  1  0.26856  0.95356  0.06555  1
 O  O5  1  0.73144  0.04644  0.93445  1
 O  O6  1  0.44318  0.73812  0.44420  1
 O  O7  1  0.20301  0.38801  0.93444  1
 O  O8  1  0.55682  0.26188  0.55580  1
 Ta  Ta1  1  0.14520  0.89520  0.29040  1
 Ta  Ta2  1  0.85480  0.10480  0.70960  1
 Yb  Yb1  1  0.62190  0.37190  0.24380  1
 Yb  Yb2  1  0.37810  0.62810  0.75620  1
