CIF file written using JARVIS-Tools package.
data_Hf2N2O
_symmetry_space_group_name_H-M  'C2/m'
_cell_length_a       3.25458
_cell_length_b       7.02494
_cell_length_c       8.16482
_cell_angle_alpha    79.9298
_cell_angle_beta     90
_cell_angle_gamma    76.6061

_symmetry_Int_Tables_number  12
_chemical_formula_structural  Hf2N2O
_chemical_formula_sum  Hf6N6O3
_cell_volume  178.63953391497094
_cell_formula_units_Z  3
loop_
  _symmetry_equiv_pos_site_id
 _symmetry_equiv_pos_as_xyz
 1  'x, y, z'
loop_
 _atom_site_type_symbol
 _atom_site_label
 _atom_site_symmetry_multiplicity
 _atom_site_fract_x
 _atom_site_fract_y
 _atom_site_fract_z
 _atom_site_fract_occupancy
 Hf  Hf1  1  0.03108  0.93784  0.80844  1
 Hf  Hf2  1  0.63000  0.74000  0.47464  1
 Hf  Hf3  1  0.69510  0.60979  0.13173  1
 Hf  Hf4  1  0.30490  0.39021  0.86827  1
 Hf  Hf5  1  0.37000  0.26000  0.52536  1
 Hf  Hf6  1  0.96892  0.06216  0.19156  1
 N  N1  1  0.53634  0.92732  0.65647  1
 N  N2  1  0.17197  0.65606  0.96369  1
 N  N3  1  0.12599  0.74802  0.28527  1
 N  N4  1  0.87401  0.25198  0.71473  1
 N  N5  1  0.82803  0.34394  0.03631  1
 N  N6  1  0.46366  0.07268  0.34353  1
 O  O1  1  0.21106  0.57787  0.61741  1
 O  O2  1  0.78894  0.42213  0.38259  1
 O  O3  1  0.50000  0.00000  0.00000  1
