CIF file written using JARVIS-Tools package.
data_CaBiAsO6
_symmetry_space_group_name_H-M  'P2_1'
_cell_length_a       7.05019
_cell_length_b       5.16463
_cell_length_c       7.48597
_cell_angle_alpha    90
_cell_angle_beta     105.577
_cell_angle_gamma    90

_symmetry_Int_Tables_number  4
_chemical_formula_structural  CaBiAsO6
_chemical_formula_sum  Ca2Bi2As2O2
_cell_volume  262.56426761094
_cell_formula_units_Z  2
loop_
  _symmetry_equiv_pos_site_id
 _symmetry_equiv_pos_as_xyz
 1  'x, y, z'
loop_
 _atom_site_type_symbol
 _atom_site_label
 _atom_site_symmetry_multiplicity
 _atom_site_fract_x
 _atom_site_fract_y
 _atom_site_fract_z
 _atom_site_fract_occupancy
 As  As1  1  0.78647  0.80408  0.22313  1
 As  As2  1  0.21353  0.30408  0.77687  1
 Bi  Bi1  1  0.59430  0.22063  0.41295  1
 Bi  Bi2  1  0.40570  0.72063  0.58705  1
 Ca  Ca1  1  0.24325  0.77546  0.06762  1
 Ca  Ca2  1  0.75675  0.27546  0.93238  1
 O  O1  1  0.39286  0.52319  0.31694  1
 O  O2  1  0.56888  0.98459  0.12943  1
 O  O3  1  0.92298  0.87221  0.07350  1
 O  O4  1  0.68382  0.49934  0.63253  1
 O  O5  1  0.14705  0.46024  0.56193  1
 O  O6  1  0.31618  0.99934  0.36747  1
 O  O7  1  0.76545  0.47223  0.23135  1
 O  O8  1  0.23455  0.97223  0.76865  1
 O  O9  1  0.07702  0.37221  0.92650  1
 O  O10  1  0.43112  0.48459  0.87057  1
 O  O11  1  0.60714  0.02319  0.68306  1
 O  O12  1  0.85295  0.96024  0.43807  1
