CIF file written using JARVIS-Tools package.
data_Mg2V2O5
_symmetry_space_group_name_H-M  'Pmc2_1'
_cell_length_a       5.5104
_cell_length_b       3.30616
_cell_length_c       11.068
_cell_angle_alpha    90
_cell_angle_beta     90.0018
_cell_angle_gamma    90

_symmetry_Int_Tables_number  26
_chemical_formula_structural  Mg2V2O5
_chemical_formula_sum  Mg4V4O0
_cell_volume  201.63989539731696
_cell_formula_units_Z  2
loop_
  _symmetry_equiv_pos_site_id
 _symmetry_equiv_pos_as_xyz
 1  'x, y, z'
loop_
 _atom_site_type_symbol
 _atom_site_label
 _atom_site_symmetry_multiplicity
 _atom_site_fract_x
 _atom_site_fract_y
 _atom_site_fract_z
 _atom_site_fract_occupancy
 Mg  Mg1  1  0.73222  0.50000  0.90643  1
 Mg  Mg2  1  0.33974  0.50000  0.11363  1
 Mg  Mg3  1  0.23219  0.50000  0.59357  1
 Mg  Mg4  1  0.83972  0.50000  0.38637  1
 O  O1  1  -0.05015  0.00000  -0.04113  1
 O  O2  1  0.71492  0.00000  0.31410  1
 O  O3  1  0.21495  0.00000  0.18590  1
 O  O4  1  0.44983  0.00000  0.54113  1
 O  O5  1  0.69725  0.50000  0.10861  1
 O  O6  1  0.35397  0.50000  0.93524  1
 O  O7  1  0.85394  0.50000  0.56476  1
 O  O8  1  0.60017  0.00000  0.79059  1
 O  O9  1  0.10016  0.00000  0.70941  1
 O  O10  1  0.19723  0.50000  0.39139  1
 V  V1  1  0.24915  0.00000  0.86008  1
 V  V2  1  0.86281  0.00000  0.13662  1
 V  V3  1  0.36278  0.00000  0.36339  1
 V  V4  1  0.74913  0.00000  0.63992  1
