CIF file written using JARVIS-Tools package.
data_RbClO4
_symmetry_space_group_name_H-M  'F-43m'
_cell_length_a       5.36174
_cell_length_b       5.36159
_cell_length_c       5.36174
_cell_angle_alpha    59.9991
_cell_angle_beta     60
_cell_angle_gamma    59.9991

_symmetry_Int_Tables_number  216
_chemical_formula_structural  RbClO4
_chemical_formula_sum  RbClO4
_cell_volume  108.98948816098338
_cell_formula_units_Z  1
loop_
  _symmetry_equiv_pos_site_id
 _symmetry_equiv_pos_as_xyz
 1  'x, y, z'
loop_
 _atom_site_type_symbol
 _atom_site_label
 _atom_site_symmetry_multiplicity
 _atom_site_fract_x
 _atom_site_fract_y
 _atom_site_fract_z
 _atom_site_fract_occupancy
 Cl  Cl1  1  0.00000  -0.00000  0.00000  1
 O  O1  1  0.66667  0.11112  0.11111  1
 O  O2  1  0.11111  0.11112  0.66667  1
 O  O3  1  0.11111  0.11112  0.11111  1
 O  O4  1  0.11112  0.66665  0.11112  1
 Rb  Rb1  1  0.50000  0.50001  0.50000  1
