CIF file written using JARVIS-Tools package.
data_Li2ErIn
_symmetry_space_group_name_H-M  'Fm-3m'
_cell_length_a       4.77759
_cell_length_b       4.77759
_cell_length_c       4.77759
_cell_angle_alpha    59.9999
_cell_angle_beta     59.9999
_cell_angle_gamma    60.0001

_symmetry_Int_Tables_number  225
_chemical_formula_structural  Li2ErIn
_chemical_formula_sum  Li2ErIn
_cell_volume  77.11019819898755
_cell_formula_units_Z  1
loop_
  _symmetry_equiv_pos_site_id
 _symmetry_equiv_pos_as_xyz
 1  'x, y, z'
loop_
 _atom_site_type_symbol
 _atom_site_label
 _atom_site_symmetry_multiplicity
 _atom_site_fract_x
 _atom_site_fract_y
 _atom_site_fract_z
 _atom_site_fract_occupancy
 Er  Er1  1  0.25000  0.25001  0.24997  1
 In  In1  1  0.75000  0.74999  0.75001  1
 Li  Li1  1  0.50000  0.50000  0.50001  1
 Li  Li2  1  1.00000  1.00000  0.00001  1
