CIF file written using JARVIS-Tools package.
data_CaCO3
_symmetry_space_group_name_H-M  'P321'
_cell_length_a       5.0149
_cell_length_b       5.01513
_cell_length_c       8.57321
_cell_angle_alpha    90.0013
_cell_angle_beta     90
_cell_angle_gamma    119.999

_symmetry_Int_Tables_number  150
_chemical_formula_structural  CaCO3
_chemical_formula_sum  Ca3C3O9
_cell_volume  186.73461566219282
_cell_formula_units_Z  3
loop_
  _symmetry_equiv_pos_site_id
 _symmetry_equiv_pos_as_xyz
 1  'x, y, z'
loop_
 _atom_site_type_symbol
 _atom_site_label
 _atom_site_symmetry_multiplicity
 _atom_site_fract_x
 _atom_site_fract_y
 _atom_site_fract_z
 _atom_site_fract_occupancy
 C  C1  1  0.34882  0.66669  0.17057  1
 C  C2  1  0.68213  0.33331  0.82943  1
 C  C3  1  0.01545  -0.00000  0.50000  1
 Ca  Ca1  1  0.68214  0.33334  0.33477  1
 Ca  Ca2  1  0.01546  0.00000  0.00000  1
 Ca  Ca3  1  0.34880  0.66666  0.66523  1
 O  O1  1  0.93849  0.32908  0.82952  1
 O  O2  1  0.68634  0.59388  0.82955  1
 O  O3  1  0.42154  0.07695  0.82954  1
 O  O4  1  0.34459  0.92305  0.17046  1
 O  O5  1  0.27385  0.25840  0.49999  1
 O  O6  1  0.01545  0.74160  0.50001  1
 O  O7  1  0.09247  0.40612  0.17045  1
 O  O8  1  0.60941  0.67092  0.17048  1
 O  O9  1  0.75704  -0.00000  0.50000  1
