CIF file written using JARVIS-Tools package.
data_ZrPt
_symmetry_space_group_name_H-M  'Cmcm'
_cell_length_a       3.47039
_cell_length_b       4.29183
_cell_length_c       5.48647
_cell_angle_alpha    90
_cell_angle_beta     108.437
_cell_angle_gamma    90

_symmetry_Int_Tables_number  63
_chemical_formula_structural  ZrPt
_chemical_formula_sum  Zr2Pt2
_cell_volume  77.5225883193051
_cell_formula_units_Z  2
loop_
  _symmetry_equiv_pos_site_id
 _symmetry_equiv_pos_as_xyz
 1  'x, y, z'
loop_
 _atom_site_type_symbol
 _atom_site_label
 _atom_site_symmetry_multiplicity
 _atom_site_fract_x
 _atom_site_fract_y
 _atom_site_fract_z
 _atom_site_fract_occupancy
 Pt  Pt1  1  0.59309  0.75000  0.18618  1
 Pt  Pt2  1  0.40691  0.25000  0.81382  1
 Zr  Zr1  1  0.85863  0.75000  0.71726  1
 Zr  Zr2  1  0.14137  0.25000  0.28274  1
