CIF file written using JARVIS-Tools package.
data_Na6Ge2S7
_symmetry_space_group_name_H-M  'C2/c'
_cell_length_a       6.93358
_cell_length_b       6.93358
_cell_length_c       15.0497
_cell_angle_alpha    99.6535
_cell_angle_beta     99.6535
_cell_angle_gamma    98.1278

_symmetry_Int_Tables_number  15
_chemical_formula_structural  Na6Ge2S7
_chemical_formula_sum  Na2Ge4S4
_cell_volume  692.3860053720606
_cell_formula_units_Z  2
loop_
  _symmetry_equiv_pos_site_id
 _symmetry_equiv_pos_as_xyz
 1  'x, y, z'
loop_
 _atom_site_type_symbol
 _atom_site_label
 _atom_site_symmetry_multiplicity
 _atom_site_fract_x
 _atom_site_fract_y
 _atom_site_fract_z
 _atom_site_fract_occupancy
 Ge  Ge1  1  0.73963  0.07496  0.36183  1
 Ge  Ge2  1  0.42504  0.76037  0.13817  1
 Ge  Ge3  1  0.57496  0.23963  0.86183  1
 Ge  Ge4  1  0.26037  0.92504  0.63817  1
 Na  Na1  1  0.47140  0.26028  0.07607  1
 Na  Na2  1  -0.00000  0.50000  0.50000  1
 Na  Na3  1  -0.00000  0.50000  0.00000  1
 Na  Na4  1  0.07812  0.42188  0.75000  1
 Na  Na5  1  0.23972  0.02860  0.42393  1
 Na  Na6  1  0.00531  0.95086  0.86142  1
 Na  Na7  1  0.54914  0.49469  0.63858  1
 Na  Na8  1  0.99469  0.04914  0.13858  1
 Na  Na9  1  0.45086  0.50531  0.36142  1
 Na  Na10  1  0.52860  0.73972  0.92393  1
 Na  Na11  1  0.76028  0.97140  0.57607  1
 Na  Na12  1  0.92188  0.57812  0.25000  1
 S  S1  1  0.18910  0.20886  0.60412  1
 S  S2  1  0.36656  0.73893  0.52556  1
 S  S3  1  0.23893  0.86656  0.02556  1
 S  S4  1  0.63344  0.26107  0.47444  1
 S  S5  1  0.29114  0.31090  0.89588  1
 S  S6  1  0.99656  0.24432  0.32052  1
 S  S7  1  0.74432  0.49656  0.82052  1
 S  S8  1  0.70886  0.68910  0.10412  1
 S  S9  1  0.46007  0.03993  0.25000  1
 S  S10  1  0.53993  0.96007  0.75000  1
 S  S11  1  0.81090  0.79114  0.39588  1
 S  S12  1  0.25568  0.50344  0.17948  1
 S  S13  1  0.00344  0.75568  0.67948  1
 S  S14  1  0.76107  0.13344  0.97444  1
