CIF file written using JARVIS-Tools package.
data_Mg3As2O8
_symmetry_space_group_name_H-M  'P2_1/c'
_cell_length_a       5.37506
_cell_length_b       8.38161
_cell_length_c       9.06633
_cell_angle_alpha    90
_cell_angle_beta     120.53
_cell_angle_gamma    90

_symmetry_Int_Tables_number  14
_chemical_formula_structural  Mg3As2O8
_chemical_formula_sum  Mg6As4O6
_cell_volume  351.82678576980277
_cell_formula_units_Z  2
loop_
  _symmetry_equiv_pos_site_id
 _symmetry_equiv_pos_as_xyz
 1  'x, y, z'
loop_
 _atom_site_type_symbol
 _atom_site_label
 _atom_site_symmetry_multiplicity
 _atom_site_fract_x
 _atom_site_fract_y
 _atom_site_fract_z
 _atom_site_fract_occupancy
 As  As1  1  0.85328  0.30363  0.80704  1
 As  As2  1  0.14672  0.80363  0.69296  1
 As  As3  1  0.85328  0.19637  0.30704  1
 As  As4  1  0.14672  0.69637  0.19296  1
 Mg  Mg1  1  0.50060  0.64205  0.60297  1
 Mg  Mg2  1  0.50000  0.00000  0.50000  1
 Mg  Mg3  1  0.50000  0.50000  -0.00000  1
 Mg  Mg4  1  0.50060  0.85795  0.10297  1
 Mg  Mg5  1  0.49940  0.35795  0.39703  1
 Mg  Mg6  1  0.49940  0.14205  0.89703  1
 O  O1  1  0.67301  0.37747  0.24240  1
 O  O2  1  0.32699  0.87747  0.25760  1
 O  O3  1  0.70479  0.43622  0.64025  1
 O  O4  1  0.29521  0.56378  0.35975  1
 O  O5  1  0.78328  0.80090  0.61301  1
 O  O6  1  0.76908  0.14789  0.46091  1
 O  O7  1  0.23092  0.64789  0.03909  1
 O  O8  1  0.21672  0.19910  0.38699  1
 O  O9  1  0.78328  0.69910  0.11301  1
 O  O10  1  0.32699  0.62253  0.75760  1
 O  O11  1  0.23092  0.85211  0.53909  1
 O  O12  1  0.21672  0.30090  0.88699  1
 O  O13  1  0.76908  0.35211  0.96091  1
 O  O14  1  0.70479  0.06378  0.14025  1
 O  O15  1  0.29521  0.93622  0.85975  1
 O  O16  1  0.67301  0.12253  0.74240  1
