CIF file written using JARVIS-Tools package.
data_Be2ZnPt
_symmetry_space_group_name_H-M  'Immm'
_cell_length_a       10.361
_cell_length_b       5.75832
_cell_length_c       5.75831
_cell_angle_alpha    43.6241
_cell_angle_beta     25.887
_cell_angle_gamma    25.8871

_symmetry_Int_Tables_number  71
_chemical_formula_structural  Be2ZnPt
_chemical_formula_sum  Be2ZnPt
_cell_volume  58.530292438985015
_cell_formula_units_Z  1
loop_
  _symmetry_equiv_pos_site_id
 _symmetry_equiv_pos_as_xyz
 1  'x, y, z'
loop_
 _atom_site_type_symbol
 _atom_site_label
 _atom_site_symmetry_multiplicity
 _atom_site_fract_x
 _atom_site_fract_y
 _atom_site_fract_z
 _atom_site_fract_occupancy
 Be  Be1  1  0.72263  0.00000  0.00000  1
 Be  Be2  1  0.27737  -0.00000  -0.00000  1
 Pt  Pt1  1  0.50000  0.00000  0.00000  1
 Zn  Zn1  1  0.00000  0.00000  0.00000  1
