CIF file written using JARVIS-Tools package.
data_Ba4B2N4O
_symmetry_space_group_name_H-M  'Cmce'
_cell_length_a       7.33356
_cell_length_b       7.36475
_cell_length_c       8.73717
_cell_angle_alpha    90
_cell_angle_beta     114.814
_cell_angle_gamma    90

_symmetry_Int_Tables_number  64
_chemical_formula_structural  Ba4B2N4O
_chemical_formula_sum  Ba8B4N8O2
_cell_volume  428.3253416436615
_cell_formula_units_Z  2
loop_
  _symmetry_equiv_pos_site_id
 _symmetry_equiv_pos_as_xyz
 1  'x, y, z'
loop_
 _atom_site_type_symbol
 _atom_site_label
 _atom_site_symmetry_multiplicity
 _atom_site_fract_x
 _atom_site_fract_y
 _atom_site_fract_z
 _atom_site_fract_occupancy
 B  B1  1  0.36189  0.00000  0.72378  1
 B  B2  1  0.63811  0.00000  0.27622  1
 B  B3  1  0.13811  0.50000  0.27622  1
 B  B4  1  0.86189  0.50000  0.72378  1
 Ba  Ba1  1  0.17486  0.00000  0.34973  1
 Ba  Ba2  1  0.80793  0.30795  0.00000  1
 Ba  Ba3  1  0.32514  0.50000  0.65027  1
 Ba  Ba4  1  0.82514  0.00000  0.65027  1
 Ba  Ba5  1  0.19207  0.69205  -0.00000  1
 Ba  Ba6  1  0.30793  0.19205  0.00000  1
 Ba  Ba7  1  0.69207  0.80795  -0.00000  1
 Ba  Ba8  1  0.67486  0.50000  0.34973  1
 N  N1  1  0.99495  0.37116  0.73071  1
 N  N2  1  0.76424  0.12884  0.26929  1
 N  N3  1  0.49495  0.12884  0.73071  1
 N  N4  1  0.50505  0.87116  0.26929  1
 N  N5  1  0.00505  0.62884  0.26929  1
 N  N6  1  0.26424  0.37116  0.26929  1
 N  N7  1  0.73576  0.62884  0.73071  1
 N  N8  1  0.23576  0.87116  0.73071  1
 O  O1  1  0.50000  0.50000  -0.00000  1
 O  O2  1  0.00000  0.00000  0.00000  1
