CIF file written using JARVIS-Tools package.
data_O
_symmetry_space_group_name_H-M  'P6_3/mmc'
_cell_length_a       2.49836
_cell_length_b       2.49836
_cell_length_c       7.73984
_cell_angle_alpha    90
_cell_angle_beta     90
_cell_angle_gamma    120

_symmetry_Int_Tables_number  194
_chemical_formula_structural  O
_chemical_formula_sum  O4
_cell_volume  41.83804298119738
_cell_formula_units_Z  4
loop_
  _symmetry_equiv_pos_site_id
 _symmetry_equiv_pos_as_xyz
 1  'x, y, z'
loop_
 _atom_site_type_symbol
 _atom_site_label
 _atom_site_symmetry_multiplicity
 _atom_site_fract_x
 _atom_site_fract_y
 _atom_site_fract_z
 _atom_site_fract_occupancy
 O  O1  1  0.66669  0.33331  0.67059  1
 O  O2  1  0.33331  0.66669  0.32941  1
 O  O3  1  0.33331  0.66669  0.17059  1
 O  O4  1  0.66669  0.33331  0.82941  1
