CIF file written using JARVIS-Tools package.
data_Ce3Mg
_symmetry_space_group_name_H-M  'Pmm2'
_cell_length_a       3.26978
_cell_length_b       5.58067
_cell_length_c       5.73016
_cell_angle_alpha    90
_cell_angle_beta     90
_cell_angle_gamma    90

_symmetry_Int_Tables_number  25
_chemical_formula_structural  Ce3Mg
_chemical_formula_sum  Ce3Mg
_cell_volume  104.56144566918816
_cell_formula_units_Z  1
loop_
  _symmetry_equiv_pos_site_id
 _symmetry_equiv_pos_as_xyz
 1  'x, y, z'
loop_
 _atom_site_type_symbol
 _atom_site_label
 _atom_site_symmetry_multiplicity
 _atom_site_fract_x
 _atom_site_fract_y
 _atom_site_fract_z
 _atom_site_fract_occupancy
 Ce  Ce1  1  0.00000  0.00000  0.97323  1
 Ce  Ce2  1  0.50000  0.00000  0.44158  1
 Ce  Ce3  1  0.50000  0.50000  0.88089  1
 Mg  Mg1  1  0.00000  0.50000  0.37096  1
