CIF file written using JARVIS-Tools package.
data_SiSe2
_symmetry_space_group_name_H-M  'Ibam'
_cell_length_a       5.92723
_cell_length_b       5.93287
_cell_length_c       6.39956
_cell_angle_alpha    117.615
_cell_angle_beta     117.587
_cell_angle_gamma    90

_symmetry_Int_Tables_number  72
_chemical_formula_structural  SiSe2
_chemical_formula_sum  Si2Se4
_cell_volume  170.00438738683633
_cell_formula_units_Z  2
loop_
  _symmetry_equiv_pos_site_id
 _symmetry_equiv_pos_as_xyz
 1  'x, y, z'
loop_
 _atom_site_type_symbol
 _atom_site_label
 _atom_site_symmetry_multiplicity
 _atom_site_fract_x
 _atom_site_fract_y
 _atom_site_fract_z
 _atom_site_fract_occupancy
 Se  Se1  1  0.12437  0.34341  0.24873  1
 Se  Se2  1  0.87563  0.65659  0.75127  1
 Se  Se3  1  0.37563  0.09468  0.75127  1
 Se  Se4  1  0.62437  0.90532  0.24873  1
 Si  Si1  1  0.75000  -0.00000  -0.00000  1
 Si  Si2  1  0.25000  -0.00000  -0.00000  1
