CIF file written using JARVIS-Tools package.
data_CaCr4S8
_symmetry_space_group_name_H-M  'R-3m'
_cell_length_a       7.00861
_cell_length_b       7.14844
_cell_length_c       7.14844
_cell_angle_alpha    60
_cell_angle_beta     59.3379
_cell_angle_gamma    59.3379

_symmetry_Int_Tables_number  166
_chemical_formula_structural  CaCr4S8
_chemical_formula_sum  CaCr4S8
_cell_volume  250.67989686217138
_cell_formula_units_Z  1
loop_
  _symmetry_equiv_pos_site_id
 _symmetry_equiv_pos_as_xyz
 1  'x, y, z'
loop_
 _atom_site_type_symbol
 _atom_site_label
 _atom_site_symmetry_multiplicity
 _atom_site_fract_x
 _atom_site_fract_y
 _atom_site_fract_z
 _atom_site_fract_occupancy
 Ca  Ca1  1  0.50000  0.00000  -0.00000  1
 Cr  Cr1  1  0.00000  0.50000  0.50000  1
 Cr  Cr2  1  0.50000  0.50000  -0.00000  1
 Cr  Cr3  1  0.50000  0.50000  0.50000  1
 Cr  Cr4  1  0.50000  -0.00000  0.50000  1
 S  S1  1  0.25171  0.26566  0.26566  1
 S  S2  1  0.25171  0.26566  0.71698  1
 S  S3  1  0.25171  0.71698  0.26566  1
 S  S4  1  0.72125  0.25958  0.25958  1
 S  S5  1  0.27875  0.74042  0.74042  1
 S  S6  1  0.74829  0.73434  0.28302  1
 S  S7  1  0.74829  0.28302  0.73434  1
 S  S8  1  0.74829  0.73434  0.73434  1
