CIF file written using JARVIS-Tools package.
data_BeGaPd2
_symmetry_space_group_name_H-M  'C2/m'
_cell_length_a       10.1846
_cell_length_b       7.81044
_cell_length_c       6.9267
_cell_angle_alpha    34.3172
_cell_angle_beta     20.6345
_cell_angle_gamma    18.8986

_symmetry_Int_Tables_number  12
_chemical_formula_structural  BeGaPd2
_chemical_formula_sum  BeGaPd2
_cell_volume  53.68035515272833
_cell_formula_units_Z  1
loop_
  _symmetry_equiv_pos_site_id
 _symmetry_equiv_pos_as_xyz
 1  'x, y, z'
loop_
 _atom_site_type_symbol
 _atom_site_label
 _atom_site_symmetry_multiplicity
 _atom_site_fract_x
 _atom_site_fract_y
 _atom_site_fract_z
 _atom_site_fract_occupancy
 Be  Be1  1  -0.00005  0.00003  0.00005  1
 Ga  Ga1  1  0.50001  -0.00001  -0.00001  1
 Pd  Pd1  1  0.71932  0.06257  -0.00092  1
 Pd  Pd2  1  0.28072  0.93741  0.00089  1
