CIF file written using JARVIS-Tools package.
data_Ba2Zn2ClF7
_symmetry_space_group_name_H-M  'P2_1/m'
_cell_length_a       7.70639
_cell_length_b       5.85469
_cell_length_c       9.00604
_cell_angle_alpha    90
_cell_angle_beta     106.913
_cell_angle_gamma    90

_symmetry_Int_Tables_number  11
_chemical_formula_structural  Ba2Zn2ClF7
_chemical_formula_sum  Ba4Zn4Cl2F4
_cell_volume  388.7644545731091
_cell_formula_units_Z  2
loop_
  _symmetry_equiv_pos_site_id
 _symmetry_equiv_pos_as_xyz
 1  'x, y, z'
loop_
 _atom_site_type_symbol
 _atom_site_label
 _atom_site_symmetry_multiplicity
 _atom_site_fract_x
 _atom_site_fract_y
 _atom_site_fract_z
 _atom_site_fract_occupancy
 Ba  Ba1  1  0.33189  0.75000  0.58895  1
 Ba  Ba2  1  0.70229  0.25000  0.92642  1
 Ba  Ba3  1  0.29771  0.75000  0.07358  1
 Ba  Ba4  1  0.66811  0.25000  0.41105  1
 Cl  Cl1  1  0.11791  0.25000  0.53032  1
 Cl  Cl2  1  0.88209  0.75000  0.46968  1
 F  F1  1  0.00634  0.99816  0.83221  1
 F  F2  1  0.62614  0.99377  0.15912  1
 F  F3  1  0.25901  0.25000  0.06939  1
 F  F4  1  0.00634  0.50184  0.83221  1
 F  F5  1  0.74099  0.75000  0.93061  1
 F  F6  1  0.36174  0.50066  0.34645  1
 F  F7  1  0.36174  -0.00066  0.34645  1
 F  F8  1  0.37386  0.49377  0.84088  1
 F  F9  1  0.62614  0.50623  0.15912  1
 F  F10  1  0.63826  0.00066  0.65355  1
 F  F11  1  0.99366  0.00184  0.16779  1
 F  F12  1  0.37386  0.00623  0.84088  1
 F  F13  1  0.63826  0.49934  0.65355  1
 F  F14  1  0.99366  0.49816  0.16779  1
 Zn  Zn1  1  0.17348  0.25000  0.26755  1
 Zn  Zn2  1  0.81408  0.75000  0.17167  1
 Zn  Zn3  1  0.82652  0.75000  0.73245  1
 Zn  Zn4  1  0.18592  0.25000  0.82833  1
