CIF file written using JARVIS-Tools package.
data_KVCu2Se4
_symmetry_space_group_name_H-M  'Ama2'
_cell_length_a       5.58895
_cell_length_b       7.59899
_cell_length_c       9.67754
_cell_angle_alpha    90
_cell_angle_beta     106.784
_cell_angle_gamma    90

_symmetry_Int_Tables_number  40
_chemical_formula_structural  KVCu2Se4
_chemical_formula_sum  K2V2Cu4Se8
_cell_volume  393.5005078165262
_cell_formula_units_Z  2
loop_
  _symmetry_equiv_pos_site_id
 _symmetry_equiv_pos_as_xyz
 1  'x, y, z'
loop_
 _atom_site_type_symbol
 _atom_site_label
 _atom_site_symmetry_multiplicity
 _atom_site_fract_x
 _atom_site_fract_y
 _atom_site_fract_z
 _atom_site_fract_occupancy
 Cu  Cu1  1  0.72991  0.50000  -0.00000  1
 Cu  Cu2  1  0.72991  0.00000  -0.00000  1
 Cu  Cu3  1  0.14035  0.25000  0.77898  1
 Cu  Cu4  1  0.36137  0.75000  0.22102  1
 K  K1  1  0.80423  0.75000  0.63252  1
 K  K2  1  0.17171  0.25000  0.36748  1
 Se  Se1  1  0.39969  -0.00314  0.77550  1
 Se  Se2  1  0.62419  0.49686  0.22450  1
 Se  Se3  1  0.00184  0.75000  0.00995  1
 Se  Se4  1  0.62419  0.00314  0.22450  1
 Se  Se5  1  0.76982  0.25000  0.57528  1
 Se  Se6  1  0.19454  0.75000  0.42472  1
 Se  Se7  1  0.99189  0.25000  0.99005  1
 Se  Se8  1  0.39969  0.50314  0.77550  1
 V  V1  1  0.85981  0.75000  0.21957  1
 V  V2  1  0.64023  0.25000  0.78043  1
