CIF file written using JARVIS-Tools package.
data_TiP2O7
_symmetry_space_group_name_H-M  'P-1'
_cell_length_a       6.38336
_cell_length_b       6.48044
_cell_length_c       6.95993
_cell_angle_alpha    93.0332
_cell_angle_beta     117.228
_cell_angle_gamma    90.7128

_symmetry_Int_Tables_number  2
_chemical_formula_structural  TiP2O7
_chemical_formula_sum  Ti2P4O4
_cell_volume  255.43179409769456
_cell_formula_units_Z  2
loop_
  _symmetry_equiv_pos_site_id
 _symmetry_equiv_pos_as_xyz
 1  'x, y, z'
loop_
 _atom_site_type_symbol
 _atom_site_label
 _atom_site_symmetry_multiplicity
 _atom_site_fract_x
 _atom_site_fract_y
 _atom_site_fract_z
 _atom_site_fract_occupancy
 O  O1  1  0.78541  0.18263  0.49234  1
 O  O2  1  0.41013  0.35020  0.22332  1
 O  O3  1  0.54040  0.13835  0.70294  1
 O  O4  1  0.45960  0.86165  0.29706  1
 O  O5  1  0.78095  0.36330  0.18237  1
 O  O6  1  0.21459  0.81737  0.50766  1
 O  O7  1  0.91756  0.94228  0.78011  1
 O  O8  1  0.05760  0.66943  0.12499  1
 O  O9  1  0.58987  0.64980  0.77668  1
 O  O10  1  0.77090  0.56167  0.50206  1
 O  O11  1  0.22910  0.43833  0.49794  1
 O  O12  1  0.08244  0.05772  0.21989  1
 O  O13  1  0.94240  0.33057  0.87501  1
 O  O14  1  0.21905  0.63670  0.81763  1
 P  P1  1  0.77617  0.14339  0.71616  1
 P  P2  1  0.22383  0.85661  0.28384  1
 P  P3  1  0.67879  0.36981  0.34095  1
 P  P4  1  0.32121  0.63019  0.65905  1
 Ti  Ti1  1  0.90381  0.65769  0.79785  1
 Ti  Ti2  1  0.09619  0.34231  0.20215  1
