CIF file written using JARVIS-Tools package.
data_BeBPt2
_symmetry_space_group_name_H-M  'Immm'
_cell_length_a       8.96491
_cell_length_b       5.15708
_cell_length_c       5.15708
_cell_angle_alpha    40.8622
_cell_angle_beta     29.6362
_cell_angle_gamma    29.6361

_symmetry_Int_Tables_number  71
_chemical_formula_structural  BeBPt2
_chemical_formula_sum  BeBPt2
_cell_volume  58.29988945811609
_cell_formula_units_Z  1
loop_
  _symmetry_equiv_pos_site_id
 _symmetry_equiv_pos_as_xyz
 1  'x, y, z'
loop_
 _atom_site_type_symbol
 _atom_site_label
 _atom_site_symmetry_multiplicity
 _atom_site_fract_x
 _atom_site_fract_y
 _atom_site_fract_z
 _atom_site_fract_occupancy
 B  B1  1  0.50000  -0.00000  0.00000  1
 Be  Be1  1  0.00000  0.00000  0.00000  1
 Pt  Pt1  1  0.71138  -0.00000  -0.00000  1
 Pt  Pt2  1  0.28862  0.00000  0.00000  1
