CIF file written using JARVIS-Tools package.
data_Fe4O5F3
_symmetry_space_group_name_H-M  'Amm2'
_cell_length_a       4.5949
_cell_length_b       4.5949
_cell_length_c       5.74858
_cell_angle_alpha    90
_cell_angle_beta     90
_cell_angle_gamma    95.4996

_symmetry_Int_Tables_number  38
_chemical_formula_structural  Fe4O5F3
_chemical_formula_sum  Fe4O5F3
_cell_volume  120.81183093523322
_cell_formula_units_Z  1
loop_
  _symmetry_equiv_pos_site_id
 _symmetry_equiv_pos_as_xyz
 1  'x, y, z'
loop_
 _atom_site_type_symbol
 _atom_site_label
 _atom_site_symmetry_multiplicity
 _atom_site_fract_x
 _atom_site_fract_y
 _atom_site_fract_z
 _atom_site_fract_occupancy
 F  F1  1  0.20304  0.79696  0.75000  1
 F  F2  1  0.77573  0.22427  0.25000  1
 F  F3  1  0.81687  0.18313  0.75000  1
 Fe  Fe1  1  0.00957  0.99043  0.02218  1
 Fe  Fe2  1  0.00957  0.99043  0.47782  1
 Fe  Fe3  1  0.47946  0.52054  0.25000  1
 Fe  Fe4  1  0.50622  0.49378  0.75000  1
 O  O1  1  0.20631  0.79369  0.25000  1
 O  O2  1  0.29852  0.30190  0.00228  1
 O  O3  1  0.29852  0.30190  0.49772  1
 O  O4  1  0.69810  0.70148  0.00228  1
 O  O5  1  0.69810  0.70148  0.49772  1
