CIF file written using JARVIS-Tools package.
data_WN
_symmetry_space_group_name_H-M  'Pmn2_1'
_cell_length_a       2.84463
_cell_length_b       3.46381
_cell_length_c       4.17523
_cell_angle_alpha    89.9988
_cell_angle_beta     89.9993
_cell_angle_gamma    89.9993

_symmetry_Int_Tables_number  31
_chemical_formula_structural  WN
_chemical_formula_sum  W2N2
_cell_volume  41.13970758875285
_cell_formula_units_Z  2
loop_
  _symmetry_equiv_pos_site_id
 _symmetry_equiv_pos_as_xyz
 1  'x, y, z'
loop_
 _atom_site_type_symbol
 _atom_site_label
 _atom_site_symmetry_multiplicity
 _atom_site_fract_x
 _atom_site_fract_y
 _atom_site_fract_z
 _atom_site_fract_occupancy
 N  N1  1  0.63558  0.04034  0.50186  1
 N  N2  1  0.13556  0.71202  0.00187  1
 W  W1  1  0.62872  0.20257  0.00186  1
 W  W2  1  0.12872  0.54980  0.50187  1
