CIF file written using JARVIS-Tools package.
data_Na6BeO4
_symmetry_space_group_name_H-M  'P6_3mc'
_cell_length_a       7.26058
_cell_length_b       7.26058
_cell_length_c       5.71647
_cell_angle_alpha    90
_cell_angle_beta     90
_cell_angle_gamma    120

_symmetry_Int_Tables_number  186
_chemical_formula_structural  Na6BeO4
_chemical_formula_sum  Na2Be2O8
_cell_volume  260.9767673704924
_cell_formula_units_Z  2
loop_
  _symmetry_equiv_pos_site_id
 _symmetry_equiv_pos_as_xyz
 1  'x, y, z'
loop_
 _atom_site_type_symbol
 _atom_site_label
 _atom_site_symmetry_multiplicity
 _atom_site_fract_x
 _atom_site_fract_y
 _atom_site_fract_z
 _atom_site_fract_occupancy
 Be  Be1  1  0.66667  0.33333  0.39252  1
 Be  Be2  1  0.33333  0.66667  0.89252  1
 Na  Na1  1  0.14406  0.28813  0.60914  1
 Na  Na2  1  0.28813  0.14406  0.10914  1
 Na  Na3  1  0.14406  0.85594  0.60914  1
 Na  Na4  1  0.46677  0.53323  0.28791  1
 Na  Na5  1  0.46677  0.93353  0.28791  1
 Na  Na6  1  0.06647  0.53323  0.28791  1
 Na  Na7  1  0.71187  0.85594  0.60914  1
 Na  Na8  1  0.53323  0.06647  0.78791  1
 Na  Na9  1  0.53323  0.46677  0.78791  1
 Na  Na10  1  0.85594  0.14406  0.10914  1
 Na  Na11  1  0.85594  0.71187  0.10914  1
 Na  Na12  1  0.93353  0.46677  0.78791  1
 O  O1  1  0.66667  0.33333  0.09535  1
 O  O2  1  0.79822  0.20178  0.49341  1
 O  O3  1  0.20178  0.40357  0.99341  1
 O  O4  1  0.33333  0.66667  0.59535  1
 O  O5  1  0.20178  0.79822  0.99341  1
 O  O6  1  0.59643  0.79822  0.99341  1
 O  O7  1  0.40357  0.20178  0.49341  1
 O  O8  1  0.79822  0.59643  0.49341  1
