CIF file written using JARVIS-Tools package.
data_CaNi4S8
_symmetry_space_group_name_H-M  'R-3m'
_cell_length_a       6.90443
_cell_length_b       6.9712
_cell_length_c       6.9712
_cell_angle_alpha    60
_cell_angle_beta     59.6795
_cell_angle_gamma    59.6795

_symmetry_Int_Tables_number  166
_chemical_formula_structural  CaNi4S8
_chemical_formula_sum  CaNi4S8
_cell_volume  236.1063540306189
_cell_formula_units_Z  1
loop_
  _symmetry_equiv_pos_site_id
 _symmetry_equiv_pos_as_xyz
 1  'x, y, z'
loop_
 _atom_site_type_symbol
 _atom_site_label
 _atom_site_symmetry_multiplicity
 _atom_site_fract_x
 _atom_site_fract_y
 _atom_site_fract_z
 _atom_site_fract_occupancy
 Ca  Ca1  1  0.50000  0.00000  -0.00000  1
 Ni  Ni1  1  -0.00000  0.50000  0.50000  1
 Ni  Ni2  1  0.50000  0.50000  -0.00000  1
 Ni  Ni3  1  0.50000  0.50000  0.50000  1
 Ni  Ni4  1  0.50000  0.00000  0.50000  1
 S  S1  1  0.25826  0.26935  0.26935  1
 S  S2  1  0.25826  0.26935  0.70305  1
 S  S3  1  0.25826  0.70305  0.26935  1
 S  S4  1  0.71301  0.26233  0.26233  1
 S  S5  1  0.28699  0.73767  0.73767  1
 S  S6  1  0.74174  0.73065  0.29695  1
 S  S7  1  0.74174  0.29695  0.73065  1
 S  S8  1  0.74174  0.73065  0.73065  1
