CIF file written using JARVIS-Tools package.
data_ZrSn
_symmetry_space_group_name_H-M  'P4/mmm'
_cell_length_a       5.40684
_cell_length_b       3.1133
_cell_length_c       5.40722
_cell_angle_alpha    90
_cell_angle_beta     90
_cell_angle_gamma    90

_symmetry_Int_Tables_number  123
_chemical_formula_structural  ZrSn
_chemical_formula_sum  Zr2Sn2
_cell_volume  91.02032124175909
_cell_formula_units_Z  2
loop_
  _symmetry_equiv_pos_site_id
 _symmetry_equiv_pos_as_xyz
 1  'x, y, z'
loop_
 _atom_site_type_symbol
 _atom_site_label
 _atom_site_symmetry_multiplicity
 _atom_site_fract_x
 _atom_site_fract_y
 _atom_site_fract_z
 _atom_site_fract_occupancy
 Sn  Sn1  1  0.25000  0.50000  0.74992  1
 Sn  Sn2  1  0.75000  0.50000  0.25008  1
 Zr  Zr1  1  0.25000  0.00000  0.24991  1
 Zr  Zr2  1  0.75000  0.00000  0.75009  1
