CIF file written using JARVIS-Tools package.
data_NaBiPd2
_symmetry_space_group_name_H-M  'I4/mmm'
_cell_length_a       11.7031
_cell_length_b       8.26778
_cell_length_c       8.26858
_cell_angle_alpha    33.5641
_cell_angle_beta     19.4958
_cell_angle_gamma    19.4957

_symmetry_Int_Tables_number  139
_chemical_formula_structural  NaBiPd2
_chemical_formula_sum  NaBiPd2
_cell_volume  77.32743566006064
_cell_formula_units_Z  1
loop_
  _symmetry_equiv_pos_site_id
 _symmetry_equiv_pos_as_xyz
 1  'x, y, z'
loop_
 _atom_site_type_symbol
 _atom_site_label
 _atom_site_symmetry_multiplicity
 _atom_site_fract_x
 _atom_site_fract_y
 _atom_site_fract_z
 _atom_site_fract_occupancy
 Bi  Bi1  1  0.50000  0.00000  0.00000  1
 Na  Na1  1  -0.00000  0.00000  0.00000  1
 Pd  Pd1  1  0.75008  -0.00006  -0.00004  1
 Pd  Pd2  1  0.24992  0.00006  0.00004  1
