CIF file written using JARVIS-Tools package.
data_YTaO4
_symmetry_space_group_name_H-M  'P2/c'
_cell_length_a       5.1441
_cell_length_b       5.47883
_cell_length_c       5.33705
_cell_angle_alpha    90
_cell_angle_beta     96.4753
_cell_angle_gamma    90

_symmetry_Int_Tables_number  13
_chemical_formula_structural  YTaO4
_chemical_formula_sum  Y2Ta2O8
_cell_volume  149.45808810104313
_cell_formula_units_Z  2
loop_
  _symmetry_equiv_pos_site_id
 _symmetry_equiv_pos_as_xyz
 1  'x, y, z'
loop_
 _atom_site_type_symbol
 _atom_site_label
 _atom_site_symmetry_multiplicity
 _atom_site_fract_x
 _atom_site_fract_y
 _atom_site_fract_z
 _atom_site_fract_occupancy
 O  O1  1  0.74942  0.91816  0.40128  1
 O  O2  1  0.25058  0.91816  0.09872  1
 O  O3  1  0.25058  0.08184  0.59872  1
 O  O4  1  0.74942  0.08184  0.90128  1
 O  O5  1  0.73268  0.43744  0.50780  1
 O  O6  1  0.26732  0.43744  0.99220  1
 O  O7  1  0.26732  0.56256  0.49220  1
 O  O8  1  0.73268  0.56256  0.00780  1
 Ta  Ta1  1  0.50000  0.69551  0.25000  1
 Ta  Ta2  1  0.50000  0.30449  0.75000  1
 Y  Y1  1  -0.00000  0.23457  0.25000  1
 Y  Y2  1  -0.00000  0.76543  0.75000  1
