CIF file written using JARVIS-Tools package.
data_CuHgSBr
_symmetry_space_group_name_H-M  'Pmma'
_cell_length_a       4.09903
_cell_length_b       9.46635
_cell_length_c       10.1057
_cell_angle_alpha    90
_cell_angle_beta     90
_cell_angle_gamma    90

_symmetry_Int_Tables_number  51
_chemical_formula_structural  CuHgSBr
_chemical_formula_sum  Cu4Hg4S4Br4
_cell_volume  392.1285061328348
_cell_formula_units_Z  4
loop_
  _symmetry_equiv_pos_site_id
 _symmetry_equiv_pos_as_xyz
 1  'x, y, z'
loop_
 _atom_site_type_symbol
 _atom_site_label
 _atom_site_symmetry_multiplicity
 _atom_site_fract_x
 _atom_site_fract_y
 _atom_site_fract_z
 _atom_site_fract_occupancy
 Br  Br1  1  0.00000  0.55018  0.75000  1
 Br  Br2  1  0.00000  0.44982  0.25000  1
 Br  Br3  1  0.00000  0.97673  0.75000  1
 Br  Br4  1  0.00000  0.02327  0.25000  1
 Cu  Cu1  1  0.00000  0.20221  0.07524  1
 Cu  Cu2  1  0.00000  0.20221  0.42476  1
 Cu  Cu3  1  0.00000  0.79779  0.57524  1
 Cu  Cu4  1  0.00000  0.79779  0.92476  1
 Hg  Hg1  1  0.50000  0.77520  0.25000  1
 Hg  Hg2  1  0.50000  0.22480  0.75000  1
 Hg  Hg3  1  0.50000  0.50000  0.50000  1
 Hg  Hg4  1  0.50000  0.50000  0.00000  1
 S  S1  1  0.50000  0.24321  0.99043  1
 S  S2  1  0.50000  0.24321  0.50957  1
 S  S3  1  0.50000  0.75679  0.00957  1
 S  S4  1  0.50000  0.75679  0.49043  1
