CIF file written using JARVIS-Tools package.
data_CoCuO2
_symmetry_space_group_name_H-M  'R-3m'
_cell_length_a       5.90735
_cell_length_b       5.90735
_cell_length_c       5.90735
_cell_angle_alpha    28.0644
_cell_angle_beta     28.0643
_cell_angle_gamma    28.0644

_symmetry_Int_Tables_number  166
_chemical_formula_structural  CoCuO2
_chemical_formula_sum  CoCuO2
_cell_volume  40.30393250626258
_cell_formula_units_Z  1
loop_
  _symmetry_equiv_pos_site_id
 _symmetry_equiv_pos_as_xyz
 1  'x, y, z'
loop_
 _atom_site_type_symbol
 _atom_site_label
 _atom_site_symmetry_multiplicity
 _atom_site_fract_x
 _atom_site_fract_y
 _atom_site_fract_z
 _atom_site_fract_occupancy
 Co  Co1  1  0.50000  0.50000  0.50000  1
 Cu  Cu1  1  0.00000  0.00000  0.00000  1
 O  O1  1  0.89077  0.89077  0.89077  1
 O  O2  1  0.10923  0.10923  0.10923  1
