CIF file written using JARVIS-Tools package.
data_BCl2
_symmetry_space_group_name_H-M  'Pbca'
_cell_length_a       6.14464
_cell_length_b       7.56356
_cell_length_c       11.8235
_cell_angle_alpha    90
_cell_angle_beta     90
_cell_angle_gamma    90

_symmetry_Int_Tables_number  61
_chemical_formula_structural  BCl2
_chemical_formula_sum  B8Cl6
_cell_volume  549.5027835313201
_cell_formula_units_Z  8
loop_
  _symmetry_equiv_pos_site_id
 _symmetry_equiv_pos_as_xyz
 1  'x, y, z'
loop_
 _atom_site_type_symbol
 _atom_site_label
 _atom_site_symmetry_multiplicity
 _atom_site_fract_x
 _atom_site_fract_y
 _atom_site_fract_z
 _atom_site_fract_occupancy
 B  B1  1  0.38469  0.05793  0.51526  1
 B  B2  1  0.88469  0.44207  0.48474  1
 B  B3  1  0.61531  0.55793  0.98474  1
 B  B4  1  0.11531  0.94207  0.01526  1
 B  B5  1  0.61531  0.94207  0.48474  1
 B  B6  1  0.11531  0.55793  0.51526  1
 B  B7  1  0.38469  0.44207  0.01526  1
 B  B8  1  0.88469  0.05793  0.98474  1
 Cl  Cl1  1  0.76498  0.04952  0.85116  1
 Cl  Cl2  1  0.26498  0.45048  0.14884  1
 Cl  Cl3  1  0.23502  0.54952  0.64884  1
 Cl  Cl4  1  0.25995  0.31325  0.90939  1
 Cl  Cl5  1  0.23502  0.95048  0.14884  1
 Cl  Cl6  1  0.73502  0.54952  0.85116  1
 Cl  Cl7  1  0.73502  0.95048  0.35116  1
 Cl  Cl8  1  0.74005  0.68675  0.09061  1
 Cl  Cl9  1  0.25995  0.18675  0.40939  1
 Cl  Cl10  1  0.75995  0.31325  0.59061  1
 Cl  Cl11  1  0.76498  0.45048  0.35116  1
 Cl  Cl12  1  0.24005  0.81325  0.90939  1
 Cl  Cl13  1  0.74005  0.81325  0.59061  1
 Cl  Cl14  1  0.24005  0.68675  0.40939  1
 Cl  Cl15  1  0.26498  0.04952  0.64884  1
 Cl  Cl16  1  0.75995  0.18675  0.09061  1
