CIF file written using JARVIS-Tools package.
data_Sc2AlGa
_symmetry_space_group_name_H-M  'Immm'
_cell_length_a       11.4511
_cell_length_b       6.50681
_cell_length_c       6.50681
_cell_angle_alpha    24.4629
_cell_angle_beta     28.3661
_cell_angle_gamma    28.3661

_symmetry_Int_Tables_number  71
_chemical_formula_structural  Sc2AlGa
_chemical_formula_sum  Sc2AlGa
_cell_volume  87.35894188263285
_cell_formula_units_Z  1
loop_
  _symmetry_equiv_pos_site_id
 _symmetry_equiv_pos_as_xyz
 1  'x, y, z'
loop_
 _atom_site_type_symbol
 _atom_site_label
 _atom_site_symmetry_multiplicity
 _atom_site_fract_x
 _atom_site_fract_y
 _atom_site_fract_z
 _atom_site_fract_occupancy
 Al  Al1  1  0.00000  0.00000  0.00000  1
 Ga  Ga1  1  0.50000  -0.00000  0.00000  1
 Sc  Sc1  1  0.74582  -0.00000  0.00000  1
 Sc  Sc2  1  0.25418  0.00000  -0.00000  1
