CIF file written using JARVIS-Tools package.
data_YMg
_symmetry_space_group_name_H-M  'P6_3/mmc'
_cell_length_a       5.39697
_cell_length_b       5.39696
_cell_length_c       6.22419
_cell_angle_alpha    90
_cell_angle_beta     90
_cell_angle_gamma    120

_symmetry_Int_Tables_number  194
_chemical_formula_structural  YMg
_chemical_formula_sum  Y2Mg2
_cell_volume  157.004930437771
_cell_formula_units_Z  2
loop_
  _symmetry_equiv_pos_site_id
 _symmetry_equiv_pos_as_xyz
 1  'x, y, z'
loop_
 _atom_site_type_symbol
 _atom_site_label
 _atom_site_symmetry_multiplicity
 _atom_site_fract_x
 _atom_site_fract_y
 _atom_site_fract_z
 _atom_site_fract_occupancy
 Mg  Mg1  1  0.33333  0.66667  0.93750  1
 Mg  Mg2  1  0.66667  0.33333  0.43750  1
 Y  Y1  1  0.33333  0.66667  0.43750  1
 Y  Y2  1  0.66667  0.33333  0.93750  1
