CIF file written using JARVIS-Tools package.
data_MoS2
_symmetry_space_group_name_H-M  'F-43m'
_cell_length_a       6.77987
_cell_length_b       6.77987
_cell_length_c       6.77987
_cell_angle_alpha    60.0003
_cell_angle_beta     60.0003
_cell_angle_gamma    60.0003

_symmetry_Int_Tables_number  216
_chemical_formula_structural  MoS2
_chemical_formula_sum  Mo4S8
_cell_volume  220.37019791813123
_cell_formula_units_Z  4
loop_
  _symmetry_equiv_pos_site_id
 _symmetry_equiv_pos_as_xyz
 1  'x, y, z'
loop_
 _atom_site_type_symbol
 _atom_site_label
 _atom_site_symmetry_multiplicity
 _atom_site_fract_x
 _atom_site_fract_y
 _atom_site_fract_z
 _atom_site_fract_occupancy
 Mo  Mo1  1  0.39614  0.39614  0.82875  1
 Mo  Mo2  1  0.82875  0.39614  0.39614  1
 Mo  Mo3  1  0.39614  0.82875  0.39614  1
 Mo  Mo4  1  0.39618  0.39618  0.39618  1
 S  S1  1  0.63986  0.63986  0.63986  1
 S  S2  1  0.09756  0.63989  0.63989  1
 S  S3  1  0.63989  0.09756  0.63989  1
 S  S4  1  0.13470  0.61311  0.13470  1
 S  S5  1  0.13467  0.13467  0.13467  1
 S  S6  1  0.13470  0.13470  0.61311  1
 S  S7  1  0.61311  0.13470  0.13470  1
 S  S8  1  0.63989  0.63989  0.09756  1
