CIF file written using JARVIS-Tools package.
data_Mn3V3Te2O16
_symmetry_space_group_name_H-M  'P1'
_cell_length_a       5.7471
_cell_length_b       5.74453
_cell_length_c       10.6201
_cell_angle_alpha    89.8537
_cell_angle_beta     88.8797
_cell_angle_gamma    120.073

_symmetry_Int_Tables_number  1
_chemical_formula_structural  Mn3V3Te2O16
_chemical_formula_sum  Mn3V3Te2O6
_cell_volume  303.32961621150866
_cell_formula_units_Z  1
loop_
  _symmetry_equiv_pos_site_id
 _symmetry_equiv_pos_as_xyz
 1  'x, y, z'
loop_
 _atom_site_type_symbol
 _atom_site_label
 _atom_site_symmetry_multiplicity
 _atom_site_fract_x
 _atom_site_fract_y
 _atom_site_fract_z
 _atom_site_fract_occupancy
 Mn  Mn1  1  0.68191  0.83638  0.20852  1
 Mn  Mn2  1  0.81834  0.65011  0.71155  1
 Mn  Mn3  1  0.81792  0.16914  0.71176  1
 O  O1  1  0.15047  0.83379  0.60849  1
 O  O2  1  0.02330  0.50997  0.32150  1
 O  O3  1  0.35193  0.67158  0.11561  1
 O  O4  1  0.96253  0.48153  0.80251  1
 O  O5  1  0.98300  0.99174  0.79696  1
 O  O6  1  0.14988  0.31837  0.60830  1
 O  O7  1  0.00326  0.00299  0.29606  1
 O  O8  1  0.48531  0.50616  0.31238  1
 O  O9  1  0.33757  0.16760  0.11001  1
 O  O10  1  0.49632  0.47898  0.81718  1
 O  O11  1  0.49062  0.98048  0.31029  1
 O  O12  1  0.49623  0.01709  0.81778  1
 O  O13  1  0.64891  0.32529  0.61792  1
 O  O14  1  0.85424  0.67193  0.10852  1
 O  O15  1  0.65824  0.83019  0.61270  1
 O  O16  1  0.85426  0.17688  0.10658  1
 Te  Te1  1  0.68129  0.33931  0.01474  1
 Te  Te2  1  0.32263  0.66255  0.51941  1
 V  V1  1  0.34099  0.17043  0.73539  1
 V  V2  1  0.18712  0.36541  0.22962  1
 V  V3  1  0.20374  0.84230  0.22195  1
