CIF file written using JARVIS-Tools package.
data_SiCu2S3
_symmetry_space_group_name_H-M  'Cmc2_1'
_cell_length_a       6.10436
_cell_length_b       6.36676
_cell_length_c       6.36676
_cell_angle_alpha    119.538
_cell_angle_beta     90
_cell_angle_gamma    90

_symmetry_Int_Tables_number  36
_chemical_formula_structural  SiCu2S3
_chemical_formula_sum  Si2Cu4S6
_cell_volume  215.28303234866573
_cell_formula_units_Z  2
loop_
  _symmetry_equiv_pos_site_id
 _symmetry_equiv_pos_as_xyz
 1  'x, y, z'
loop_
 _atom_site_type_symbol
 _atom_site_label
 _atom_site_symmetry_multiplicity
 _atom_site_fract_x
 _atom_site_fract_y
 _atom_site_fract_z
 _atom_site_fract_occupancy
 Cu  Cu1  1  0.01988  0.67576  0.99852  1
 Cu  Cu2  1  0.51988  0.32424  0.00148  1
 Cu  Cu3  1  0.51988  0.00148  0.32424  1
 Cu  Cu4  1  0.01988  0.99852  0.67576  1
 S  S1  1  0.39440  0.66100  0.98410  1
 S  S2  1  0.89440  0.33900  0.01590  1
 S  S3  1  0.86083  0.65451  0.65451  1
 S  S4  1  0.36083  0.34549  0.34549  1
 S  S5  1  0.39440  0.98410  0.66100  1
 S  S6  1  0.89440  0.01590  0.33900  1
 Si  Si1  1  0.98961  0.33101  0.33101  1
 Si  Si2  1  0.48961  0.66899  0.66899  1
