CIF file written using JARVIS-Tools package.
data_Li2TlSb
_symmetry_space_group_name_H-M  'Fm-3m'
_cell_length_a       12.2152
_cell_length_b       8.63809
_cell_length_c       8.63818
_cell_angle_alpha    33.5688
_cell_angle_beta     19.4808
_cell_angle_gamma    19.4775

_symmetry_Int_Tables_number  225
_chemical_formula_structural  Li2TlSb
_chemical_formula_sum  Li2TlSb
_cell_volume  87.78485824070916
_cell_formula_units_Z  1
loop_
  _symmetry_equiv_pos_site_id
 _symmetry_equiv_pos_as_xyz
 1  'x, y, z'
loop_
 _atom_site_type_symbol
 _atom_site_label
 _atom_site_symmetry_multiplicity
 _atom_site_fract_x
 _atom_site_fract_y
 _atom_site_fract_z
 _atom_site_fract_occupancy
 Li  Li1  1  0.75004  0.00004  0.00000  1
 Li  Li2  1  0.24996  -0.00004  -0.00000  1
 Sb  Sb1  1  -0.00000  0.00000  0.00000  1
 Tl  Tl1  1  0.50000  -0.00000  -0.00000  1
