CIF file written using JARVIS-Tools package.
data_Ba3In2Cl2O5
_symmetry_space_group_name_H-M  'I4/mmm'
_cell_length_a       4.28305
_cell_length_b       4.28305
_cell_length_c       12.9717
_cell_angle_alpha    99.5027
_cell_angle_beta     99.5027
_cell_angle_gamma    90

_symmetry_Int_Tables_number  139
_chemical_formula_structural  Ba3In2Cl2O5
_chemical_formula_sum  Ba3In2Cl2O5
_cell_volume  231.3823437588016
_cell_formula_units_Z  1
loop_
  _symmetry_equiv_pos_site_id
 _symmetry_equiv_pos_as_xyz
 1  'x, y, z'
loop_
 _atom_site_type_symbol
 _atom_site_label
 _atom_site_symmetry_multiplicity
 _atom_site_fract_x
 _atom_site_fract_y
 _atom_site_fract_z
 _atom_site_fract_occupancy
 Ba  Ba1  1  0.66191  0.66191  0.32383  1
 Ba  Ba2  1  0.50000  0.50000  0.00000  1
 Ba  Ba3  1  0.33809  0.33809  0.67617  1
 Cl  Cl1  1  0.20599  0.20599  0.41199  1
 Cl  Cl2  1  0.79401  0.79401  0.58801  1
 In  In1  1  0.91735  0.91735  0.83470  1
 In  In2  1  0.08265  0.08265  0.16530  1
 O  O1  1  0.09402  0.59402  0.18803  1
 O  O2  1  0.40598  0.90598  0.81197  1
 O  O3  1  0.90598  0.40598  0.81197  1
 O  O4  1  0.00000  0.00000  0.00000  1
 O  O5  1  0.59402  0.09402  0.18803  1
