CIF file written using JARVIS-Tools package.
data_NbSiRu2
_symmetry_space_group_name_H-M  'Immm'
_cell_length_a       10.3538
_cell_length_b       5.78963
_cell_length_c       5.78963
_cell_angle_alpha    28.179
_cell_angle_beta     26.5986
_cell_angle_gamma    26.5985

_symmetry_Int_Tables_number  71
_chemical_formula_structural  NbSiRu2
_chemical_formula_sum  NbSiRu2
_cell_volume  63.49565755003309
_cell_formula_units_Z  1
loop_
  _symmetry_equiv_pos_site_id
 _symmetry_equiv_pos_as_xyz
 1  'x, y, z'
loop_
 _atom_site_type_symbol
 _atom_site_label
 _atom_site_symmetry_multiplicity
 _atom_site_fract_x
 _atom_site_fract_y
 _atom_site_fract_z
 _atom_site_fract_occupancy
 Nb  Nb1  1  0.50000  -0.00000  0.00000  1
 Ru  Ru1  1  0.78542  -0.00000  0.00000  1
 Ru  Ru2  1  0.21458  0.00000  -0.00000  1
 Si  Si1  1  0.00000  0.00000  0.00000  1
