CIF file written using JARVIS-Tools package.
data_LiGaPdF6
_symmetry_space_group_name_H-M  'P-31c'
_cell_length_a       5.11375
_cell_length_b       5.11375
_cell_length_c       9.23597
_cell_angle_alpha    90
_cell_angle_beta     90
_cell_angle_gamma    120

_symmetry_Int_Tables_number  163
_chemical_formula_structural  LiGaPdF6
_chemical_formula_sum  Li2Ga2Pd2F2
_cell_volume  209.1664279729855
_cell_formula_units_Z  2
loop_
  _symmetry_equiv_pos_site_id
 _symmetry_equiv_pos_as_xyz
 1  'x, y, z'
loop_
 _atom_site_type_symbol
 _atom_site_label
 _atom_site_symmetry_multiplicity
 _atom_site_fract_x
 _atom_site_fract_y
 _atom_site_fract_z
 _atom_site_fract_occupancy
 F  F1  1  0.34927  0.98828  0.86462  1
 F  F2  1  0.01172  0.65073  0.63538  1
 F  F3  1  0.98828  0.63901  0.13538  1
 F  F4  1  0.98828  0.34927  0.36462  1
 F  F5  1  0.36099  0.34927  0.13538  1
 F  F6  1  0.65073  0.01172  0.13538  1
 F  F7  1  0.63901  0.98828  0.63538  1
 F  F8  1  0.34927  0.36099  0.63538  1
 F  F9  1  0.65073  0.63901  0.36462  1
 F  F10  1  0.36099  0.01172  0.36462  1
 F  F11  1  0.01172  0.36099  0.86462  1
 F  F12  1  0.63901  0.65073  0.86462  1
 Ga  Ga1  1  0.66667  0.33333  0.25000  1
 Ga  Ga2  1  0.33333  0.66667  0.75000  1
 Li  Li1  1  0.33333  0.66667  0.25000  1
 Li  Li2  1  0.66667  0.33333  0.75000  1
 Pd  Pd1  1  0.00000  0.00000  0.50000  1
 Pd  Pd2  1  0.00000  0.00000  0.00000  1
