CIF file written using JARVIS-Tools package.
data_TiGa4O8
_symmetry_space_group_name_H-M  'C2/m'
_cell_length_a       3.0578
_cell_length_b       6.36685
_cell_length_c       8.09389
_cell_angle_alpha    82.3515
_cell_angle_beta     79.1106
_cell_angle_gamma    76.1044

_symmetry_Int_Tables_number  12
_chemical_formula_structural  TiGa4O8
_chemical_formula_sum  TiGa4O8
_cell_volume  149.57326051042958
_cell_formula_units_Z  1
loop_
  _symmetry_equiv_pos_site_id
 _symmetry_equiv_pos_as_xyz
 1  'x, y, z'
loop_
 _atom_site_type_symbol
 _atom_site_label
 _atom_site_symmetry_multiplicity
 _atom_site_fract_x
 _atom_site_fract_y
 _atom_site_fract_z
 _atom_site_fract_occupancy
 Ga  Ga1  1  0.53721  0.64023  0.28537  1
 Ga  Ga2  1  0.76004  0.84419  0.63573  1
 Ga  Ga3  1  0.23996  0.15581  0.36427  1
 Ga  Ga4  1  0.46279  0.35977  0.71463  1
 O  O1  1  0.89146  0.52665  0.69042  1
 O  O2  1  0.55821  0.80620  0.07737  1
 O  O3  1  0.44179  0.19380  0.92263  1
 O  O4  1  0.83510  0.10930  0.22051  1
 O  O5  1  0.10854  0.47335  0.30958  1
 O  O6  1  0.64491  0.16915  0.54102  1
 O  O7  1  0.35509  0.83085  0.45898  1
 O  O8  1  0.16490  0.89070  0.77949  1
 Ti  Ti1  1  0.00000  0.00000  0.00000  1
