CIF file written using JARVIS-Tools package.
data_Ba
_symmetry_space_group_name_H-M  'P6/mmm'
_cell_length_a       5.6669
_cell_length_b       5.6669
_cell_length_c       7.20606
_cell_angle_alpha    90
_cell_angle_beta     90
_cell_angle_gamma    94.4534

_symmetry_Int_Tables_number  191
_chemical_formula_structural  Ba
_chemical_formula_sum  Ba4
_cell_volume  230.715455942684
_cell_formula_units_Z  4
loop_
  _symmetry_equiv_pos_site_id
 _symmetry_equiv_pos_as_xyz
 1  'x, y, z'
loop_
 _atom_site_type_symbol
 _atom_site_label
 _atom_site_symmetry_multiplicity
 _atom_site_fract_x
 _atom_site_fract_y
 _atom_site_fract_z
 _atom_site_fract_occupancy
 Ba  Ba1  1  0.37495  0.12505  0.25000  1
 Ba  Ba2  1  0.62505  0.87495  0.75000  1
 Ba  Ba3  1  0.87495  0.62505  0.25000  1
 Ba  Ba4  1  0.12505  0.37495  0.75000  1
