CIF file written using JARVIS-Tools package.
data_TiO2
_symmetry_space_group_name_H-M  'Pnma'
_cell_length_a       3.70488
_cell_length_b       5.60579
_cell_length_c       8.58995
_cell_angle_alpha    90
_cell_angle_beta     90
_cell_angle_gamma    90

_symmetry_Int_Tables_number  62
_chemical_formula_structural  TiO2
_chemical_formula_sum  Ti4O8
_cell_volume  178.40270549890718
_cell_formula_units_Z  4
loop_
  _symmetry_equiv_pos_site_id
 _symmetry_equiv_pos_as_xyz
 1  'x, y, z'
loop_
 _atom_site_type_symbol
 _atom_site_label
 _atom_site_symmetry_multiplicity
 _atom_site_fract_x
 _atom_site_fract_y
 _atom_site_fract_z
 _atom_site_fract_occupancy
 O  O1  1  0.00005  0.14240  0.56214  1
 O  O2  1  0.50000  0.33283  0.79821  1
 O  O3  1  0.00000  0.16717  0.20179  1
 O  O4  1  0.50005  0.35760  0.43786  1
 O  O5  1  -0.00005  0.64240  0.93786  1
 O  O6  1  0.50000  0.83283  0.70179  1
 O  O7  1  -0.00000  0.66717  0.29821  1
 O  O8  1  0.49995  0.85760  0.06214  1
 Ti  Ti1  1  0.50006  0.14880  0.62969  1
 Ti  Ti2  1  0.00006  0.35120  0.37031  1
 Ti  Ti3  1  0.49994  0.64880  0.87031  1
 Ti  Ti4  1  -0.00006  0.85120  0.12969  1
