CIF file written using JARVIS-Tools package.
data_AgH
_symmetry_space_group_name_H-M  'P6_3mc'
_cell_length_a       3.19991
_cell_length_b       3.19992
_cell_length_c       5.19054
_cell_angle_alpha    90
_cell_angle_beta     90
_cell_angle_gamma    120

_symmetry_Int_Tables_number  186
_chemical_formula_structural  AgH
_chemical_formula_sum  Ag2H2
_cell_volume  46.02776134826499
_cell_formula_units_Z  2
loop_
  _symmetry_equiv_pos_site_id
 _symmetry_equiv_pos_as_xyz
 1  'x, y, z'
loop_
 _atom_site_type_symbol
 _atom_site_label
 _atom_site_symmetry_multiplicity
 _atom_site_fract_x
 _atom_site_fract_y
 _atom_site_fract_z
 _atom_site_fract_occupancy
 Ag  Ag1  1  0.66667  0.33333  0.49876  1
 Ag  Ag2  1  0.33333  0.66667  0.99876  1
 H  H1  1  0.66667  0.33333  0.87624  1
 H  H2  1  0.33333  0.66667  0.37624  1
