CIF file written using JARVIS-Tools package.
data_LuCoC2
_symmetry_space_group_name_H-M  'Amm2'
_cell_length_a       3.41558
_cell_length_b       3.72513
_cell_length_c       3.72513
_cell_angle_alpha    106.139
_cell_angle_beta     90
_cell_angle_gamma    90

_symmetry_Int_Tables_number  38
_chemical_formula_structural  LuCoC2
_chemical_formula_sum  LuCoC2
_cell_volume  45.52886596487165
_cell_formula_units_Z  1
loop_
  _symmetry_equiv_pos_site_id
 _symmetry_equiv_pos_as_xyz
 1  'x, y, z'
loop_
 _atom_site_type_symbol
 _atom_site_label
 _atom_site_symmetry_multiplicity
 _atom_site_fract_x
 _atom_site_fract_y
 _atom_site_fract_z
 _atom_site_fract_occupancy
 C  C1  1  0.50000  0.84803  0.45827  1
 C  C2  1  0.50000  0.54173  0.15197  1
 Co  Co1  1  0.50000  0.38315  0.61685  1
 Lu  Lu1  1  0.00000  0.00209  0.99791  1
