CIF file written using JARVIS-Tools package.
data_SNF
_symmetry_space_group_name_H-M  'R-3'
_cell_length_a       6.5879
_cell_length_b       6.5879
_cell_length_c       6.5879
_cell_angle_alpha    99.8676
_cell_angle_beta     99.8675
_cell_angle_gamma    99.8676

_symmetry_Int_Tables_number  148
_chemical_formula_structural  SNF
_chemical_formula_sum  S6N6F6
_cell_volume  271.5204647019569
_cell_formula_units_Z  6
loop_
  _symmetry_equiv_pos_site_id
 _symmetry_equiv_pos_as_xyz
 1  'x, y, z'
loop_
 _atom_site_type_symbol
 _atom_site_label
 _atom_site_symmetry_multiplicity
 _atom_site_fract_x
 _atom_site_fract_y
 _atom_site_fract_z
 _atom_site_fract_occupancy
 F  F1  1  0.67760  0.02955  0.90195  1
 F  F2  1  0.90195  0.67760  0.02955  1
 F  F3  1  0.32240  0.97045  0.09805  1
 F  F4  1  0.09805  0.32240  0.97045  1
 F  F5  1  0.97045  0.09805  0.32240  1
 F  F6  1  0.02955  0.90195  0.67760  1
 N  N1  1  0.46913  0.36397  0.16968  1
 N  N2  1  0.83032  0.53087  0.63603  1
 N  N3  1  0.36397  0.16968  0.46913  1
 N  N4  1  0.53087  0.63603  0.83032  1
 N  N5  1  0.63603  0.83032  0.53087  1
 N  N6  1  0.16968  0.46913  0.36397  1
 S  S1  1  0.51277  0.83287  0.72133  1
 S  S2  1  0.83287  0.72133  0.51277  1
 S  S3  1  0.72133  0.51277  0.83287  1
 S  S4  1  0.27867  0.48723  0.16713  1
 S  S5  1  0.16713  0.27867  0.48723  1
 S  S6  1  0.48723  0.16713  0.27867  1
