CIF file written using JARVIS-Tools package.
data_FeCl2
_symmetry_space_group_name_H-M  'R-3m'
_cell_length_a       6.19961
_cell_length_b       6.19961
_cell_length_c       6.19961
_cell_angle_alpha    32.7959
_cell_angle_beta     32.796
_cell_angle_gamma    32.7959

_symmetry_Int_Tables_number  166
_chemical_formula_structural  FeCl2
_chemical_formula_sum  FeCl2
_cell_volume  62.19188923872371
_cell_formula_units_Z  1
loop_
  _symmetry_equiv_pos_site_id
 _symmetry_equiv_pos_as_xyz
 1  'x, y, z'
loop_
 _atom_site_type_symbol
 _atom_site_label
 _atom_site_symmetry_multiplicity
 _atom_site_fract_x
 _atom_site_fract_y
 _atom_site_fract_z
 _atom_site_fract_occupancy
 Cl  Cl1  1  0.74659  0.74659  0.74659  1
 Cl  Cl2  1  0.25341  0.25341  0.25341  1
 Fe  Fe1  1  0.00000  0.00000  0.00000  1
