CIF file written using JARVIS-Tools package.
data_TmAlO3
_symmetry_space_group_name_H-M  'Pnma'
_cell_length_a       5.13416
_cell_length_b       5.36072
_cell_length_c       7.35636
_cell_angle_alpha    90
_cell_angle_beta     90
_cell_angle_gamma    90

_symmetry_Int_Tables_number  62
_chemical_formula_structural  TmAlO3
_chemical_formula_sum  Tm4Al4O2
_cell_volume  202.4672883506483
_cell_formula_units_Z  4
loop_
  _symmetry_equiv_pos_site_id
 _symmetry_equiv_pos_as_xyz
 1  'x, y, z'
loop_
 _atom_site_type_symbol
 _atom_site_label
 _atom_site_symmetry_multiplicity
 _atom_site_fract_x
 _atom_site_fract_y
 _atom_site_fract_z
 _atom_site_fract_occupancy
 Al  Al1  1  0.00000  0.50000  0.00000  1
 Al  Al2  1  0.00000  0.50000  0.50000  1
 Al  Al3  1  0.50000  0.00000  0.00000  1
 Al  Al4  1  0.50000  0.00000  0.50000  1
 O  O1  1  0.69966  0.29876  0.44991  1
 O  O2  1  0.09628  0.47128  0.25000  1
 O  O3  1  0.80034  0.79876  0.44991  1
 O  O4  1  0.19966  0.20124  0.94991  1
 O  O5  1  0.30034  0.70124  0.94991  1
 O  O6  1  0.19966  0.20124  0.55009  1
 O  O7  1  0.40372  0.97128  0.25000  1
 O  O8  1  0.90372  0.52872  0.75000  1
 O  O9  1  0.69966  0.29876  0.05009  1
 O  O10  1  0.30034  0.70124  0.55009  1
 O  O11  1  0.80034  0.79876  0.05009  1
 O  O12  1  0.59628  0.02872  0.75000  1
 Tm  Tm1  1  0.98442  0.06211  0.25000  1
 Tm  Tm2  1  0.51558  0.56211  0.25000  1
 Tm  Tm3  1  0.48442  0.43789  0.75000  1
 Tm  Tm4  1  0.01558  0.93789  0.75000  1
