CIF file written using JARVIS-Tools package.
data_MoF5
_symmetry_space_group_name_H-M  'Cmcm'
_cell_length_a       3.57455
_cell_length_b       5.68871
_cell_length_c       8.23655
_cell_angle_alpha    90
_cell_angle_beta     90
_cell_angle_gamma    108.311

_symmetry_Int_Tables_number  63
_chemical_formula_structural  MoF5
_chemical_formula_sum  Mo2F0
_cell_volume  159.0059053994775
_cell_formula_units_Z  2
loop_
  _symmetry_equiv_pos_site_id
 _symmetry_equiv_pos_as_xyz
 1  'x, y, z'
loop_
 _atom_site_type_symbol
 _atom_site_label
 _atom_site_symmetry_multiplicity
 _atom_site_fract_x
 _atom_site_fract_y
 _atom_site_fract_z
 _atom_site_fract_occupancy
 F  F1  1  0.46643  0.93285  0.25000  1
 F  F2  1  0.53357  0.06715  0.75000  1
 F  F3  1  0.08135  0.16269  0.57925  1
 F  F4  1  0.91865  0.83731  0.42075  1
 F  F5  1  0.34093  0.68186  0.91037  1
 F  F6  1  0.65907  0.31814  0.08963  1
 F  F7  1  0.65907  0.31814  0.41037  1
 F  F8  1  0.34093  0.68186  0.58963  1
 F  F9  1  0.08135  0.16269  0.92075  1
 F  F10  1  0.91865  0.83731  0.07925  1
 Mo  Mo1  1  0.50000  0.00000  0.50000  1
 Mo  Mo2  1  0.50000  0.00000  0.00000  1
