CIF file written using JARVIS-Tools package.
data_Na2MgSiO4
_symmetry_space_group_name_H-M  'Pc'
_cell_length_a       5.29365
_cell_length_b       5.53539
_cell_length_c       8.77786
_cell_angle_alpha    90
_cell_angle_beta     126.928
_cell_angle_gamma    90

_symmetry_Int_Tables_number  7
_chemical_formula_structural  Na2MgSiO4
_chemical_formula_sum  Na4Mg2Si2O8
_cell_volume  205.612036855029
_cell_formula_units_Z  2
loop_
  _symmetry_equiv_pos_site_id
 _symmetry_equiv_pos_as_xyz
 1  'x, y, z'
loop_
 _atom_site_type_symbol
 _atom_site_label
 _atom_site_symmetry_multiplicity
 _atom_site_fract_x
 _atom_site_fract_y
 _atom_site_fract_z
 _atom_site_fract_occupancy
 Mg  Mg1  1  0.00110  0.18490  0.00021  1
 Mg  Mg2  1  0.00110  0.81510  0.50021  1
 Na  Na1  1  0.73758  0.32970  0.24967  1
 Na  Na2  1  0.48578  0.18329  0.49448  1
 Na  Na3  1  0.73758  0.67030  0.74967  1
 Na  Na4  1  0.48578  0.81671  0.99448  1
 O  O1  1  0.30396  0.78995  0.44119  1
 O  O2  1  0.30396  0.21005  0.94119  1
 O  O3  1  0.98001  0.84376  0.05585  1
 O  O4  1  0.98001  0.15624  0.55585  1
 O  O5  1  0.59045  0.28858  0.77668  1
 O  O6  1  0.14784  0.60246  0.71781  1
 O  O7  1  0.14784  0.39754  0.21781  1
 O  O8  1  0.59045  0.71142  0.27668  1
 Si  Si1  1  0.25275  0.31392  0.74767  1
 Si  Si2  1  0.25275  0.68608  0.24767  1
