CIF file written using JARVIS-Tools package.
data_H
_symmetry_space_group_name_H-M  'Cmcm'
_cell_length_a       3.21543
_cell_length_b       3.21543
_cell_length_c       6.16615
_cell_angle_alpha    90
_cell_angle_beta     90
_cell_angle_gamma    117.989

_symmetry_Int_Tables_number  63
_chemical_formula_structural  H
_chemical_formula_sum  H4
_cell_volume  56.29501766515504
_cell_formula_units_Z  4
loop_
  _symmetry_equiv_pos_site_id
 _symmetry_equiv_pos_as_xyz
 1  'x, y, z'
loop_
 _atom_site_type_symbol
 _atom_site_label
 _atom_site_symmetry_multiplicity
 _atom_site_fract_x
 _atom_site_fract_y
 _atom_site_fract_z
 _atom_site_fract_occupancy
 H  H1  1  0.56806  0.43194  0.50066  1
 H  H2  1  0.43194  0.56806  0.49934  1
 H  H3  1  0.43194  0.56806  0.00066  1
 H  H4  1  0.56806  0.43194  0.99934  1
