CIF file written using JARVIS-Tools package.
data_MoW2Se2S4
_symmetry_space_group_name_H-M  'R3m'
_cell_length_a       3.23585
_cell_length_b       3.23582
_cell_length_c       19.2255
_cell_angle_alpha    85.1314
_cell_angle_beta     90
_cell_angle_gamma    120

_symmetry_Int_Tables_number  160
_chemical_formula_structural  MoW2Se2S4
_chemical_formula_sum  MoW2Se2S4
_cell_volume  173.49396466494926
_cell_formula_units_Z  1
loop_
  _symmetry_equiv_pos_site_id
 _symmetry_equiv_pos_as_xyz
 1  'x, y, z'
loop_
 _atom_site_type_symbol
 _atom_site_label
 _atom_site_symmetry_multiplicity
 _atom_site_fract_x
 _atom_site_fract_y
 _atom_site_fract_z
 _atom_site_fract_occupancy
 Mo  Mo1  1  0.44472  0.88944  0.01326  1
 S  S1  1  0.30452  0.60904  0.43245  1
 S  S2  1  0.58407  0.16814  0.59525  1
 S  S3  1  0.52921  0.05843  0.75837  1
 S  S4  1  0.35940  0.71879  0.26929  1
 Se  Se1  1  0.80804  0.61607  -0.07590  1
 Se  Se2  1  0.74806  0.49611  0.10242  1
 W  W1  1  0.22330  0.44660  0.67682  1
 W  W2  1  0.66529  0.33058  0.35088  1
