CIF file written using JARVIS-Tools package.
data_MgMo6O16
_symmetry_space_group_name_H-M  'P3m1'
_cell_length_a       5.95762
_cell_length_b       5.95762
_cell_length_c       9.3786
_cell_angle_alpha    90
_cell_angle_beta     90
_cell_angle_gamma    120

_symmetry_Int_Tables_number  156
_chemical_formula_structural  MgMo6O16
_chemical_formula_sum  MgMo6O6
_cell_volume  288.2799570608257
_cell_formula_units_Z  1
loop_
  _symmetry_equiv_pos_site_id
 _symmetry_equiv_pos_as_xyz
 1  'x, y, z'
loop_
 _atom_site_type_symbol
 _atom_site_label
 _atom_site_symmetry_multiplicity
 _atom_site_fract_x
 _atom_site_fract_y
 _atom_site_fract_z
 _atom_site_fract_occupancy
 Mg  Mg1  1  0.66667  0.33333  0.03084  1
 Mo  Mo1  1  0.67873  0.83937  0.25956  1
 Mo  Mo2  1  0.82926  0.17074  0.73895  1
 Mo  Mo3  1  0.16063  0.32127  0.25956  1
 Mo  Mo4  1  0.82926  0.65852  0.73895  1
 Mo  Mo5  1  0.34148  0.17074  0.73895  1
 Mo  Mo6  1  0.16063  0.83937  0.25956  1
 O  O1  1  0.84201  0.15799  0.13765  1
 O  O2  1  0.68402  0.84201  0.64342  1
 O  O3  1  0.15799  0.31598  0.64342  1
 O  O4  1  0.84201  0.68403  0.13765  1
 O  O5  1  0.48604  0.51396  0.35662  1
 O  O6  1  0.15799  0.84201  0.64342  1
 O  O7  1  0.31597  0.15799  0.13765  1
 O  O8  1  0.52248  0.04497  0.86514  1
 O  O9  1  0.48604  0.97208  0.35662  1
 O  O10  1  0.52248  0.47752  0.86514  1
 O  O11  1  0.00000  0.00000  0.38352  1
 O  O12  1  0.00000  0.00000  0.85170  1
 O  O13  1  0.33333  0.66667  0.14754  1
 O  O14  1  0.95503  0.47752  0.86514  1
 O  O15  1  0.02792  0.51396  0.35662  1
 O  O16  1  0.66667  0.33333  0.61841  1
