CIF file written using JARVIS-Tools package.
data_AlTl2F5
_symmetry_space_group_name_H-M  'Cmcm'
_cell_length_a       6.25683
_cell_length_b       6.25682
_cell_length_c       7.54118
_cell_angle_alpha    90
_cell_angle_beta     90
_cell_angle_gamma    90.0164

_symmetry_Int_Tables_number  63
_chemical_formula_structural  AlTl2F5
_chemical_formula_sum  Al2Tl4F0
_cell_volume  295.2210073472792
_cell_formula_units_Z  2
loop_
  _symmetry_equiv_pos_site_id
 _symmetry_equiv_pos_as_xyz
 1  'x, y, z'
loop_
 _atom_site_type_symbol
 _atom_site_label
 _atom_site_symmetry_multiplicity
 _atom_site_fract_x
 _atom_site_fract_y
 _atom_site_fract_z
 _atom_site_fract_occupancy
 Al  Al1  1  0.00000  0.00000  0.50000  1
 Al  Al2  1  0.00000  0.00000  0.00000  1
 F  F1  1  0.79488  0.79488  0.49884  1
 F  F2  1  0.20508  0.79492  0.00000  1
 F  F3  1  0.99896  0.99896  0.75000  1
 F  F4  1  0.79492  0.20508  0.00000  1
 F  F5  1  0.79492  0.20508  0.50000  1
 F  F6  1  0.20508  0.79492  0.50000  1
 F  F7  1  0.20512  0.20512  0.50116  1
 F  F8  1  0.79488  0.79488  0.00116  1
 F  F9  1  0.20512  0.20512  0.99884  1
 F  F10  1  0.00104  0.00104  0.25000  1
 Tl  Tl1  1  0.49968  0.99894  0.75000  1
 Tl  Tl2  1  0.50032  0.00106  0.25000  1
 Tl  Tl3  1  0.99894  0.49968  0.75000  1
 Tl  Tl4  1  0.00106  0.50032  0.25000  1
