CIF file written using JARVIS-Tools package.
data_Li2CaTl
_symmetry_space_group_name_H-M  'Immm'
_cell_length_a       12.1158
_cell_length_b       6.82837
_cell_length_c       6.82837
_cell_angle_alpha    31.5451
_cell_angle_beta     27.4807
_cell_angle_gamma    27.4807

_symmetry_Int_Tables_number  71
_chemical_formula_structural  Li2CaTl
_chemical_formula_sum  Li2CaTl
_cell_volume  114.52016825619263
_cell_formula_units_Z  1
loop_
  _symmetry_equiv_pos_site_id
 _symmetry_equiv_pos_as_xyz
 1  'x, y, z'
loop_
 _atom_site_type_symbol
 _atom_site_label
 _atom_site_symmetry_multiplicity
 _atom_site_fract_x
 _atom_site_fract_y
 _atom_site_fract_z
 _atom_site_fract_occupancy
 Ca  Ca1  1  0.00000  0.00000  0.00000  1
 Li  Li1  1  0.72194  0.00000  -0.00000  1
 Li  Li2  1  0.27806  -0.00000  0.00000  1
 Tl  Tl1  1  0.50000  0.00000  -0.00000  1
