CIF file written using JARVIS-Tools package.
data_RbHfAgTe3
_symmetry_space_group_name_H-M  'P2_1/m'
_cell_length_a       8.98447
_cell_length_b       4.22421
_cell_length_c       10.9008
_cell_angle_alpha    90
_cell_angle_beta     111.41
_cell_angle_gamma    90

_symmetry_Int_Tables_number  11
_chemical_formula_structural  RbHfAgTe3
_chemical_formula_sum  Rb2Hf2Ag2Te6
_cell_volume  385.1609128682742
_cell_formula_units_Z  2
loop_
  _symmetry_equiv_pos_site_id
 _symmetry_equiv_pos_as_xyz
 1  'x, y, z'
loop_
 _atom_site_type_symbol
 _atom_site_label
 _atom_site_symmetry_multiplicity
 _atom_site_fract_x
 _atom_site_fract_y
 _atom_site_fract_z
 _atom_site_fract_occupancy
 Ag  Ag1  1  0.07293  0.25000  0.60183  1
 Ag  Ag2  1  0.92707  0.75000  0.39817  1
 Hf  Hf1  1  0.69655  0.25000  0.16638  1
 Hf  Hf2  1  0.30345  0.75000  0.83362  1
 Rb  Rb1  1  0.74377  0.75000  0.71192  1
 Rb  Rb2  1  0.25623  0.25000  0.28808  1
 Te  Te1  1  0.73161  0.25000  0.43518  1
 Te  Te2  1  0.90410  0.75000  0.13511  1
 Te  Te3  1  0.45338  0.75000  0.12627  1
 Te  Te4  1  0.26839  0.75000  0.56482  1
 Te  Te5  1  0.54662  0.25000  0.87373  1
 Te  Te6  1  0.09590  0.25000  0.86489  1
