CIF file written using JARVIS-Tools package.
data_ZrZnN2
_symmetry_space_group_name_H-M  'P3m1'
_cell_length_a       3.2966
_cell_length_b       3.2966
_cell_length_c       5.31602
_cell_angle_alpha    90
_cell_angle_beta     90
_cell_angle_gamma    120

_symmetry_Int_Tables_number  156
_chemical_formula_structural  ZrZnN2
_chemical_formula_sum  ZrZnN2
_cell_volume  50.03241622869803
_cell_formula_units_Z  1
loop_
  _symmetry_equiv_pos_site_id
 _symmetry_equiv_pos_as_xyz
 1  'x, y, z'
loop_
 _atom_site_type_symbol
 _atom_site_label
 _atom_site_symmetry_multiplicity
 _atom_site_fract_x
 _atom_site_fract_y
 _atom_site_fract_z
 _atom_site_fract_occupancy
 N  N1  1  0.66667  0.33333  0.25862  1
 N  N2  1  0.33333  0.66667  0.81759  1
 Zn  Zn1  1  0.33333  0.66667  0.45074  1
 Zr  Zr1  1  0.00000  0.00000  0.00301  1
