CIF file written using JARVIS-Tools package.
data_Pr2NCl3
_symmetry_space_group_name_H-M  'Ibam'
_cell_length_a       6.18032
_cell_length_b       6.83444
_cell_length_c       8.22879
_cell_angle_alpha    114.539
_cell_angle_beta     112.04
_cell_angle_gamma    89.9966

_symmetry_Int_Tables_number  72
_chemical_formula_structural  Pr2NCl3
_chemical_formula_sum  Pr4N2Cl6
_cell_volume  288.03207489716124
_cell_formula_units_Z  2
loop_
  _symmetry_equiv_pos_site_id
 _symmetry_equiv_pos_as_xyz
 1  'x, y, z'
loop_
 _atom_site_type_symbol
 _atom_site_label
 _atom_site_symmetry_multiplicity
 _atom_site_fract_x
 _atom_site_fract_y
 _atom_site_fract_z
 _atom_site_fract_occupancy
 Cl  Cl1  1  0.24999  0.50001  -0.00002  1
 Cl  Cl2  1  0.75001  0.49999  0.00002  1
 Cl  Cl3  1  0.19945  0.38666  0.39875  1
 Cl  Cl4  1  0.80055  0.61334  0.60125  1
 Cl  Cl5  1  0.30057  0.98790  0.60125  1
 Cl  Cl6  1  0.69943  0.01210  0.39875  1
 N  N1  1  0.24999  0.99997  -0.00001  1
 N  N2  1  0.75001  0.00003  0.00001  1
 Pr  Pr1  1  0.90602  0.08404  0.81186  1
 Pr  Pr2  1  0.09398  0.91596  0.18814  1
 Pr  Pr3  1  0.59396  0.27220  0.18814  1
 Pr  Pr4  1  0.40604  0.72780  0.81186  1
