CIF file written using JARVIS-Tools package.
data_YCdRh2
_symmetry_space_group_name_H-M  'Immm'
_cell_length_a       10.3949
_cell_length_b       5.97597
_cell_length_c       5.97597
_cell_angle_alpha    29.0408
_cell_angle_beta     29.5735
_cell_angle_gamma    29.5735

_symmetry_Int_Tables_number  71
_chemical_formula_structural  YCdRh2
_chemical_formula_sum  YCdRh2
_cell_volume  79.13449155518308
_cell_formula_units_Z  1
loop_
  _symmetry_equiv_pos_site_id
 _symmetry_equiv_pos_as_xyz
 1  'x, y, z'
loop_
 _atom_site_type_symbol
 _atom_site_label
 _atom_site_symmetry_multiplicity
 _atom_site_fract_x
 _atom_site_fract_y
 _atom_site_fract_z
 _atom_site_fract_occupancy
 Cd  Cd1  1  0.50000  -0.00000  0.00000  1
 Rh  Rh1  1  0.75202  0.00000  0.00000  1
 Rh  Rh2  1  0.24798  -0.00000  -0.00000  1
 Y  Y1  1  0.00000  0.00000  0.00000  1
