CIF file written using JARVIS-Tools package.
data_InAgS2
_symmetry_space_group_name_H-M  'R3m'
_cell_length_a       3.85485
_cell_length_b       3.85485
_cell_length_c       7.27585
_cell_angle_alpha    74.6385
_cell_angle_beta     74.6385
_cell_angle_gamma    59.9999

_symmetry_Int_Tables_number  160
_chemical_formula_structural  InAgS2
_chemical_formula_sum  InAgS2
_cell_volume  89.14520387695235
_cell_formula_units_Z  1
loop_
  _symmetry_equiv_pos_site_id
 _symmetry_equiv_pos_as_xyz
 1  'x, y, z'
loop_
 _atom_site_type_symbol
 _atom_site_label
 _atom_site_symmetry_multiplicity
 _atom_site_fract_x
 _atom_site_fract_y
 _atom_site_fract_z
 _atom_site_fract_occupancy
 Ag  Ag1  1  0.84931  0.84931  0.45207  1
 In  In1  1  0.00107  0.00107  0.99678  1
 S  S1  1  0.73267  0.73267  0.80199  1
 S  S2  1  0.25795  0.25795  0.22615  1
