CIF file written using JARVIS-Tools package.
data_BiI
_symmetry_space_group_name_H-M  'C2/m'
_cell_length_a       4.42042
_cell_length_b       7.71445
_cell_length_c       10.6631
_cell_angle_alpha    107.871
_cell_angle_beta     90
_cell_angle_gamma    106.649

_symmetry_Int_Tables_number  12
_chemical_formula_structural  BiI
_chemical_formula_sum  Bi4I4
_cell_volume  330.02433167851905
_cell_formula_units_Z  4
loop_
  _symmetry_equiv_pos_site_id
 _symmetry_equiv_pos_as_xyz
 1  'x, y, z'
loop_
 _atom_site_type_symbol
 _atom_site_label
 _atom_site_symmetry_multiplicity
 _atom_site_fract_x
 _atom_site_fract_y
 _atom_site_fract_z
 _atom_site_fract_occupancy
 Bi  Bi1  1  0.17553  0.35107  0.98670  1
 Bi  Bi2  1  0.79744  0.59488  0.71279  1
 Bi  Bi3  1  0.20256  0.40512  0.28721  1
 Bi  Bi4  1  0.82447  0.64893  0.01330  1
 I  I1  1  0.45637  0.91274  0.77595  1
 I  I2  1  0.54363  0.08726  0.22405  1
 I  I3  1  0.86198  0.72395  0.38313  1
 I  I4  1  0.13802  0.27605  0.61687  1
