CIF file written using JARVIS-Tools package.
data_Zn2CoSbO6
_symmetry_space_group_name_H-M  'P2_1/m'
_cell_length_a       5.14336
_cell_length_b       7.6313
_cell_length_c       5.20558
_cell_angle_alpha    90
_cell_angle_beta     89.788
_cell_angle_gamma    90

_symmetry_Int_Tables_number  11
_chemical_formula_structural  Zn2CoSbO6
_chemical_formula_sum  Zn4Co2Sb2O2
_cell_volume  204.3201566164691
_cell_formula_units_Z  2
loop_
  _symmetry_equiv_pos_site_id
 _symmetry_equiv_pos_as_xyz
 1  'x, y, z'
loop_
 _atom_site_type_symbol
 _atom_site_label
 _atom_site_symmetry_multiplicity
 _atom_site_fract_x
 _atom_site_fract_y
 _atom_site_fract_z
 _atom_site_fract_occupancy
 Co  Co1  1  0.50000  0.50000  0.00000  1
 Co  Co2  1  0.50000  0.00000  0.00000  1
 O  O1  1  0.61433  0.25000  0.92562  1
 O  O2  1  0.67357  0.56584  0.68522  1
 O  O3  1  0.87161  0.25000  0.42500  1
 O  O4  1  0.32643  0.06584  0.31478  1
 O  O5  1  0.18318  0.43294  0.82217  1
 O  O6  1  0.81682  0.93294  0.17783  1
 O  O7  1  0.18318  0.06706  0.82217  1
 O  O8  1  0.12839  0.75000  0.57500  1
 O  O9  1  0.38567  0.75000  0.07438  1
 O  O10  1  0.81682  0.56706  0.17783  1
 O  O11  1  0.32643  0.43416  0.31478  1
 O  O12  1  0.67357  0.93416  0.68522  1
 Sb  Sb1  1  0.00000  0.00000  0.50000  1
 Sb  Sb2  1  0.00000  0.50000  0.50000  1
 Zn  Zn1  1  0.01184  0.75000  0.97554  1
 Zn  Zn2  1  0.98816  0.25000  0.02446  1
 Zn  Zn3  1  0.51370  0.75000  0.44412  1
 Zn  Zn4  1  0.48630  0.25000  0.55588  1
