CIF file written using JARVIS-Tools package.
data_Nd4Mg3Co2
_symmetry_space_group_name_H-M  'P2/m'
_cell_length_a       7.60285
_cell_length_b       3.82315
_cell_length_c       8.31654
_cell_angle_alpha    90
_cell_angle_beta     109.645
_cell_angle_gamma    90

_symmetry_Int_Tables_number  10
_chemical_formula_structural  Nd4Mg3Co2
_chemical_formula_sum  Nd4Mg3Co2
_cell_volume  227.66466790699693
_cell_formula_units_Z  1
loop_
  _symmetry_equiv_pos_site_id
 _symmetry_equiv_pos_as_xyz
 1  'x, y, z'
loop_
 _atom_site_type_symbol
 _atom_site_label
 _atom_site_symmetry_multiplicity
 _atom_site_fract_x
 _atom_site_fract_y
 _atom_site_fract_z
 _atom_site_fract_occupancy
 Co  Co1  1  0.35027  0.00000  0.89352  1
 Co  Co2  1  0.64973  0.00000  0.10648  1
 Mg  Mg1  1  0.70503  0.00000  0.49725  1
 Mg  Mg2  1  0.29497  0.00000  0.50275  1
 Mg  Mg3  1  0.00000  0.00000  0.00000  1
 Nd  Nd1  1  0.60338  0.50000  0.81909  1
 Nd  Nd2  1  0.90443  0.50000  0.27567  1
 Nd  Nd3  1  0.09557  0.50000  0.72433  1
 Nd  Nd4  1  0.39662  0.50000  0.18091  1
