CIF file written using JARVIS-Tools package.
data_RuO2
_symmetry_space_group_name_H-M  'Pa-3'
_cell_length_a       4.8728
_cell_length_b       4.8728
_cell_length_c       4.8728
_cell_angle_alpha    90
_cell_angle_beta     90
_cell_angle_gamma    90

_symmetry_Int_Tables_number  205
_chemical_formula_structural  RuO2
_chemical_formula_sum  Ru4O8
_cell_volume  115.70054949465008
_cell_formula_units_Z  4
loop_
  _symmetry_equiv_pos_site_id
 _symmetry_equiv_pos_as_xyz
 1  'x, y, z'
loop_
 _atom_site_type_symbol
 _atom_site_label
 _atom_site_symmetry_multiplicity
 _atom_site_fract_x
 _atom_site_fract_y
 _atom_site_fract_z
 _atom_site_fract_occupancy
 O  O1  1  0.35100  0.14900  0.85100  1
 O  O2  1  0.14900  0.85100  0.35100  1
 O  O3  1  0.85100  0.35100  0.14900  1
 O  O4  1  0.64900  0.64900  0.64900  1
 O  O5  1  0.35100  0.35100  0.35100  1
 O  O6  1  0.14900  0.64900  0.85100  1
 O  O7  1  0.85100  0.14900  0.64900  1
 O  O8  1  0.64900  0.85100  0.14900  1
 Ru  Ru1  1  0.00000  0.50000  0.50000  1
 Ru  Ru2  1  0.50000  0.50000  0.00000  1
 Ru  Ru3  1  0.50000  0.00000  0.50000  1
 Ru  Ru4  1  0.00000  0.00000  0.00000  1
