CIF file written using JARVIS-Tools package.
data_Ba2YNi3O8
_symmetry_space_group_name_H-M  'P4/mmm'
_cell_length_a       3.86488
_cell_length_b       3.86488
_cell_length_c       11.5777
_cell_angle_alpha    90
_cell_angle_beta     90
_cell_angle_gamma    90

_symmetry_Int_Tables_number  123
_chemical_formula_structural  Ba2YNi3O8
_chemical_formula_sum  Ba2YNi3O8
_cell_volume  172.9388667323931
_cell_formula_units_Z  1
loop_
  _symmetry_equiv_pos_site_id
 _symmetry_equiv_pos_as_xyz
 1  'x, y, z'
loop_
 _atom_site_type_symbol
 _atom_site_label
 _atom_site_symmetry_multiplicity
 _atom_site_fract_x
 _atom_site_fract_y
 _atom_site_fract_z
 _atom_site_fract_occupancy
 Ba  Ba1  1  0.50000  0.50000  0.82990  1
 Ba  Ba2  1  0.50000  0.50000  0.17011  1
 Ni  Ni1  1  0.00000  0.00000  0.65507  1
 Ni  Ni2  1  0.00000  0.00000  0.00004  1
 Ni  Ni3  1  0.00000  0.00000  0.34493  1
 O  O1  1  0.50000  0.00000  0.62092  1
 O  O2  1  0.00000  0.50000  0.62092  1
 O  O3  1  0.00000  0.50000  -0.00001  1
 O  O4  1  0.00000  0.00000  0.82038  1
 O  O5  1  0.50000  0.00000  0.37907  1
 O  O6  1  0.00000  0.50000  0.37907  1
 O  O7  1  0.00000  0.00000  0.17960  1
 O  O8  1  0.50000  0.00000  -0.00001  1
 Y  Y1  1  0.50000  0.50000  0.50000  1
