CIF file written using JARVIS-Tools package.
data_BeCdPt2
_symmetry_space_group_name_H-M  'Immm'
_cell_length_a       10.2714
_cell_length_b       6.8427
_cell_length_c       6.84258
_cell_angle_alpha    39.4583
_cell_angle_beta     22.7073
_cell_angle_gamma    22.7079

_symmetry_Int_Tables_number  71
_chemical_formula_structural  BeCdPt2
_chemical_formula_sum  BeCdPt2
_cell_volume  60.79827472664995
_cell_formula_units_Z  1
loop_
  _symmetry_equiv_pos_site_id
 _symmetry_equiv_pos_as_xyz
 1  'x, y, z'
loop_
 _atom_site_type_symbol
 _atom_site_label
 _atom_site_symmetry_multiplicity
 _atom_site_fract_x
 _atom_site_fract_y
 _atom_site_fract_z
 _atom_site_fract_occupancy
 Be  Be1  1  0.00000  0.00000  -0.00000  1
 Cd  Cd1  1  0.50000  0.00000  0.00000  1
 Pt  Pt1  1  0.88916  0.90709  0.90709  1
 Pt  Pt2  1  0.11084  0.09290  0.09291  1
