CIF file written using JARVIS-Tools package.
data_Li4CO4
_symmetry_space_group_name_H-M  'Cmc2_1'
_cell_length_a       5.13473
_cell_length_b       5.13472
_cell_length_c       5.68245
_cell_angle_alpha    90
_cell_angle_beta     90
_cell_angle_gamma    89.5197

_symmetry_Int_Tables_number  36
_chemical_formula_structural  Li4CO4
_chemical_formula_sum  Li8C2O8
_cell_volume  149.81487448801406
_cell_formula_units_Z  2
loop_
  _symmetry_equiv_pos_site_id
 _symmetry_equiv_pos_as_xyz
 1  'x, y, z'
loop_
 _atom_site_type_symbol
 _atom_site_label
 _atom_site_symmetry_multiplicity
 _atom_site_fract_x
 _atom_site_fract_y
 _atom_site_fract_z
 _atom_site_fract_occupancy
 C  C1  1  0.69433  0.30567  0.24304  1
 C  C2  1  0.30567  0.69433  0.74304  1
 Li  Li1  1  0.94334  0.05666  0.72426  1
 Li  Li2  1  0.57937  0.88261  0.03935  1
 Li  Li3  1  0.58808  0.41192  0.89152  1
 Li  Li4  1  0.11739  0.42063  0.03935  1
 Li  Li5  1  0.41192  0.58808  0.39152  1
 Li  Li6  1  0.88261  0.57937  0.53935  1
 Li  Li7  1  0.42063  0.11739  0.53935  1
 Li  Li8  1  0.05666  0.94334  0.22426  1
 O  O1  1  0.77987  0.22013  0.45953  1
 O  O2  1  0.57835  0.73995  0.71760  1
 O  O3  1  0.73995  0.57835  0.21760  1
 O  O4  1  0.42165  0.26005  0.21760  1
 O  O5  1  0.26005  0.42165  0.71760  1
 O  O6  1  0.17436  0.82564  0.55318  1
 O  O7  1  0.82564  0.17436  0.05318  1
 O  O8  1  0.22013  0.77987  0.95953  1
