CIF file written using JARVIS-Tools package.
data_Na2CdSnS4
_symmetry_space_group_name_H-M  'I-4'
_cell_length_a       6.48395
_cell_length_b       6.48406
_cell_length_c       6.8578
_cell_angle_alpha    118.213
_cell_angle_beta     118.212
_cell_angle_gamma    90.0001

_symmetry_Int_Tables_number  82
_chemical_formula_structural  Na2CdSnS4
_chemical_formula_sum  Na2CdSnS4
_cell_volume  214.40845551943673
_cell_formula_units_Z  1
loop_
  _symmetry_equiv_pos_site_id
 _symmetry_equiv_pos_as_xyz
 1  'x, y, z'
loop_
 _atom_site_type_symbol
 _atom_site_label
 _atom_site_symmetry_multiplicity
 _atom_site_fract_x
 _atom_site_fract_y
 _atom_site_fract_z
 _atom_site_fract_occupancy
 Cd  Cd1  1  0.01418  0.51418  0.02836  1
 Na  Na1  1  0.51404  0.01404  0.02808  1
 Na  Na2  1  0.76412  0.76412  0.52823  1
 S  S1  1  0.92502  0.37576  0.27995  1
 S  S2  1  0.62411  0.60319  0.77653  1
 S  S3  1  0.15242  0.17334  0.77653  1
 S  S4  1  0.35493  0.90419  0.27995  1
 Sn  Sn1  1  0.26413  0.26413  0.52825  1
