CIF file written using JARVIS-Tools package.
data_AlHO2
_symmetry_space_group_name_H-M  'Cmc2_1'
_cell_length_a       6.20347
_cell_length_b       6.20364
_cell_length_c       3.7289
_cell_angle_alpha    90.0007
_cell_angle_beta     90.0006
_cell_angle_gamma    26.9649

_symmetry_Int_Tables_number  36
_chemical_formula_structural  AlHO2
_chemical_formula_sum  Al2H2O4
_cell_volume  65.07083244603852
_cell_formula_units_Z  2
loop_
  _symmetry_equiv_pos_site_id
 _symmetry_equiv_pos_as_xyz
 1  'x, y, z'
loop_
 _atom_site_type_symbol
 _atom_site_label
 _atom_site_symmetry_multiplicity
 _atom_site_fract_x
 _atom_site_fract_y
 _atom_site_fract_z
 _atom_site_fract_occupancy
 Al  Al1  1  0.67422  0.68419  0.26923  1
 Al  Al2  1  0.31325  0.32314  0.76924  1
 H  H1  1  0.01296  0.02295  0.46042  1
 H  H2  1  0.97450  0.98440  0.96042  1
 O  O1  1  0.28456  0.29447  0.26989  1
 O  O2  1  0.70291  0.71285  0.76989  1
 O  O3  1  0.07137  0.08139  0.26664  1
 O  O4  1  0.91610  0.92594  0.76665  1
