CIF file written using JARVIS-Tools package.
data_ScTiCo2
_symmetry_space_group_name_H-M  'C2/m'
_cell_length_a       9.69495
_cell_length_b       7.51031
_cell_length_c       7.5103
_cell_angle_alpha    21.9775
_cell_angle_beta     19.9731
_cell_angle_gamma    19.973

_symmetry_Int_Tables_number  12
_chemical_formula_structural  ScTiCo2
_chemical_formula_sum  ScTiCo2
_cell_volume  59.09067121441065
_cell_formula_units_Z  1
loop_
  _symmetry_equiv_pos_site_id
 _symmetry_equiv_pos_as_xyz
 1  'x, y, z'
loop_
 _atom_site_type_symbol
 _atom_site_label
 _atom_site_symmetry_multiplicity
 _atom_site_fract_x
 _atom_site_fract_y
 _atom_site_fract_z
 _atom_site_fract_occupancy
 Co  Co1  1  0.78445  -0.03370  -0.03370  1
 Co  Co2  1  0.21555  0.03370  0.03370  1
 Sc  Sc1  1  0.00000  -0.00000  -0.00000  1
 Ti  Ti1  1  0.50000  -0.00000  -0.00000  1
