CIF file written using JARVIS-Tools package.
data_CrCuS2
_symmetry_space_group_name_H-M  'R3m'
_cell_length_a       6.75428
_cell_length_b       6.75428
_cell_length_c       6.75429
_cell_angle_alpha    28.0102
_cell_angle_beta     28.0101
_cell_angle_gamma    28.0101

_symmetry_Int_Tables_number  160
_chemical_formula_structural  CrCuS2
_chemical_formula_sum  CrCuS2
_cell_volume  60.024556244094704
_cell_formula_units_Z  1
loop_
  _symmetry_equiv_pos_site_id
 _symmetry_equiv_pos_as_xyz
 1  'x, y, z'
loop_
 _atom_site_type_symbol
 _atom_site_label
 _atom_site_symmetry_multiplicity
 _atom_site_fract_x
 _atom_site_fract_y
 _atom_site_fract_z
 _atom_site_fract_occupancy
 Cr  Cr1  1  0.85700  0.85700  0.85700  1
 Cu  Cu1  1  0.00671  0.00671  0.00671  1
 S  S1  1  0.26606  0.26606  0.26606  1
 S  S2  1  0.12023  0.12023  0.12023  1
