CIF file written using JARVIS-Tools package.
data_MgCo2S5
_symmetry_space_group_name_H-M  'Pmmn'
_cell_length_a       6.39249
_cell_length_b       3.56308
_cell_length_c       13.2212
_cell_angle_alpha    90
_cell_angle_beta     89.9835
_cell_angle_gamma    90

_symmetry_Int_Tables_number  59
_chemical_formula_structural  MgCo2S5
_chemical_formula_sum  Mg2Co4S0
_cell_volume  301.1381741263755
_cell_formula_units_Z  2
loop_
  _symmetry_equiv_pos_site_id
 _symmetry_equiv_pos_as_xyz
 1  'x, y, z'
loop_
 _atom_site_type_symbol
 _atom_site_label
 _atom_site_symmetry_multiplicity
 _atom_site_fract_x
 _atom_site_fract_y
 _atom_site_fract_z
 _atom_site_fract_occupancy
 Co  Co1  1  0.52858  0.00000  0.10161  1
 Co  Co2  1  0.47142  0.50000  0.89839  1
 Co  Co3  1  0.47146  0.50000  0.60162  1
 Co  Co4  1  0.52854  0.00000  0.39838  1
 Mg  Mg1  1  0.09110  0.50000  0.24989  1
 Mg  Mg2  1  0.90890  0.00000  0.75012  1
 S  S1  1  0.63857  0.50000  0.74999  1
 S  S2  1  0.36142  0.00000  0.25001  1
 S  S3  1  0.34465  0.50000  0.05342  1
 S  S4  1  0.65535  0.00000  0.94657  1
 S  S5  1  0.34465  0.50000  0.44663  1
 S  S6  1  0.65535  0.00000  0.55337  1
 S  S7  1  0.83622  0.00000  0.33185  1
 S  S8  1  0.16379  0.50000  0.66815  1
 S  S9  1  0.16376  0.50000  0.83191  1
 S  S10  1  0.83624  0.00000  0.16809  1
