CIF file written using JARVIS-Tools package.
data_BaPd2S4
_symmetry_space_group_name_H-M  'P2_1/m'
_cell_length_a       6.77322
_cell_length_b       6.83641
_cell_length_c       7.28086
_cell_angle_alpha    90
_cell_angle_beta     110.582
_cell_angle_gamma    90

_symmetry_Int_Tables_number  11
_chemical_formula_structural  BaPd2S4
_chemical_formula_sum  Ba2Pd4S8
_cell_volume  315.6185646890554
_cell_formula_units_Z  2
loop_
  _symmetry_equiv_pos_site_id
 _symmetry_equiv_pos_as_xyz
 1  'x, y, z'
loop_
 _atom_site_type_symbol
 _atom_site_label
 _atom_site_symmetry_multiplicity
 _atom_site_fract_x
 _atom_site_fract_y
 _atom_site_fract_z
 _atom_site_fract_occupancy
 Ba  Ba1  1  0.28075  0.25000  0.49088  1
 Ba  Ba2  1  0.71925  0.75000  0.50912  1
 Pd  Pd1  1  0.00000  0.00000  0.00000  1
 Pd  Pd2  1  0.00000  0.50000  0.00000  1
 Pd  Pd3  1  0.48099  0.75000  0.98686  1
 Pd  Pd4  1  0.51901  0.25000  0.01314  1
 S  S1  1  0.37000  0.49656  0.14705  1
 S  S2  1  0.63000  0.99656  0.85295  1
 S  S3  1  0.63000  0.50344  0.85295  1
 S  S4  1  0.37000  0.00344  0.14705  1
 S  S5  1  0.02721  0.25000  0.78621  1
 S  S6  1  0.97279  0.75000  0.21379  1
 S  S7  1  0.20721  0.75000  0.49541  1
 S  S8  1  0.79279  0.25000  0.50459  1
