CIF file written using JARVIS-Tools package.
data_MnRe2O8
_symmetry_space_group_name_H-M  'P-3m1'
_cell_length_a       5.58798
_cell_length_b       5.58799
_cell_length_c       5.97237
_cell_angle_alpha    90
_cell_angle_beta     90
_cell_angle_gamma    120

_symmetry_Int_Tables_number  164
_chemical_formula_structural  MnRe2O8
_chemical_formula_sum  MnRe2O8
_cell_volume  161.50581717488274
_cell_formula_units_Z  1
loop_
  _symmetry_equiv_pos_site_id
 _symmetry_equiv_pos_as_xyz
 1  'x, y, z'
loop_
 _atom_site_type_symbol
 _atom_site_label
 _atom_site_symmetry_multiplicity
 _atom_site_fract_x
 _atom_site_fract_y
 _atom_site_fract_z
 _atom_site_fract_occupancy
 Mn  Mn1  1  0.00000  0.00000  0.00000  1
 O  O1  1  0.66667  0.33333  0.42585  1
 O  O2  1  0.33333  0.66667  0.57415  1
 O  O3  1  0.83891  0.16096  0.81957  1
 O  O4  1  0.16096  0.32205  0.18043  1
 O  O5  1  0.67795  0.83891  0.18043  1
 O  O6  1  0.16109  0.83904  0.18043  1
 O  O7  1  0.83904  0.67795  0.81957  1
 O  O8  1  0.32205  0.16109  0.81957  1
 Re  Re1  1  0.33333  0.66667  0.28093  1
 Re  Re2  1  0.66667  0.33333  0.71907  1
