CIF file written using JARVIS-Tools package.
data_RbSbS2
_symmetry_space_group_name_H-M  'P-1'
_cell_length_a       6.49111
_cell_length_b       6.48796
_cell_length_c       12.2048
_cell_angle_alpha    99.861
_cell_angle_beta     100.716
_cell_angle_gamma    103.93

_symmetry_Int_Tables_number  2
_chemical_formula_structural  RbSbS2
_chemical_formula_sum  Rb4Sb4S8
_cell_volume  477.4404662182257
_cell_formula_units_Z  4
loop_
  _symmetry_equiv_pos_site_id
 _symmetry_equiv_pos_as_xyz
 1  'x, y, z'
loop_
 _atom_site_type_symbol
 _atom_site_label
 _atom_site_symmetry_multiplicity
 _atom_site_fract_x
 _atom_site_fract_y
 _atom_site_fract_z
 _atom_site_fract_occupancy
 Rb  Rb1  1  0.63716  0.75965  0.46913  1
 Rb  Rb2  1  0.50455  0.10927  0.16091  1
 Rb  Rb3  1  0.96916  0.15057  0.89519  1
 Rb  Rb4  1  0.17232  0.71819  0.73482  1
 S  S1  1  0.04826  0.25924  0.18032  1
 S  S2  1  0.09355  0.61002  0.44974  1
 S  S3  1  0.49781  0.23475  0.90653  1
 S  S4  1  0.44804  0.22179  0.43713  1
 S  S5  1  0.64363  0.63379  0.72349  1
 S  S6  1  0.09115  0.19203  0.63377  1
 S  S7  1  0.05019  0.67679  0.99622  1
 S  S8  1  0.69341  0.64712  0.19288  1
 Sb  Sb1  1  0.65336  0.62901  0.96825  1
 Sb  Sb2  1  0.05778  0.21830  0.40169  1
 Sb  Sb3  1  0.08374  0.65094  0.22827  1
 Sb  Sb4  1  0.48789  0.23954  0.66165  1
