CIF file written using JARVIS-Tools package.
data_MgZn
_symmetry_space_group_name_H-M  'Pmmn'
_cell_length_a       3.08046
_cell_length_b       4.94663
_cell_length_c       4.85601
_cell_angle_alpha    90
_cell_angle_beta     90
_cell_angle_gamma    90

_symmetry_Int_Tables_number  59
_chemical_formula_structural  MgZn
_chemical_formula_sum  Mg2Zn2
_cell_volume  73.99518567490729
_cell_formula_units_Z  2
loop_
  _symmetry_equiv_pos_site_id
 _symmetry_equiv_pos_as_xyz
 1  'x, y, z'
loop_
 _atom_site_type_symbol
 _atom_site_label
 _atom_site_symmetry_multiplicity
 _atom_site_fract_x
 _atom_site_fract_y
 _atom_site_fract_z
 _atom_site_fract_occupancy
 Mg  Mg1  1  0.00000  0.00000  0.10610  1
 Mg  Mg2  1  0.50000  0.50000  0.89390  1
 Zn  Zn1  1  0.50000  0.00000  0.60214  1
 Zn  Zn2  1  0.00000  0.50000  0.39786  1
