CIF file written using JARVIS-Tools package.
data_LiMn2S4
_symmetry_space_group_name_H-M  'Imma'
_cell_length_a       6.87378
_cell_length_b       6.84706
_cell_length_c       6.84708
_cell_angle_alpha    89.7124
_cell_angle_beta     120.13
_cell_angle_gamma    120.13

_symmetry_Int_Tables_number  74
_chemical_formula_structural  LiMn2S4
_chemical_formula_sum  Li2Mn4S8
_cell_volume  227.54378008267923
_cell_formula_units_Z  2
loop_
  _symmetry_equiv_pos_site_id
 _symmetry_equiv_pos_as_xyz
 1  'x, y, z'
loop_
 _atom_site_type_symbol
 _atom_site_label
 _atom_site_symmetry_multiplicity
 _atom_site_fract_x
 _atom_site_fract_y
 _atom_site_fract_z
 _atom_site_fract_occupancy
 Li  Li1  1  0.00000  1.00000  0.00000  1
 Li  Li2  1  0.50001  0.50001  0.50001  1
 Mn  Mn1  1  0.00000  1.00000  0.50000  1
 Mn  Mn2  1  0.50000  0.00000  0.00001  1
 Mn  Mn3  1  0.50000  0.00000  0.50001  1
 Mn  Mn4  1  0.00000  0.50000  0.50000  1
 S  S1  1  0.01477  0.75718  0.27237  1
 S  S2  1  0.01661  0.75656  0.74343  1
 S  S3  1  0.48523  0.22763  0.74282  1
 S  S4  1  0.51661  0.24343  0.25657  1
 S  S5  1  0.51477  0.77237  0.25719  1
 S  S6  1  0.98339  0.24343  0.25658  1
 S  S7  1  0.48339  0.75658  0.74344  1
 S  S8  1  0.98523  0.24282  0.72764  1
