CIF file written using JARVIS-Tools package.
data_SnO2
_symmetry_space_group_name_H-M  'I4_1/amd'
_cell_length_a       5.90855
_cell_length_b       5.90854
_cell_length_c       5.90855
_cell_angle_alpha    139.979
_cell_angle_beta     139.979
_cell_angle_gamma    57.8858

_symmetry_Int_Tables_number  141
_chemical_formula_structural  SnO2
_chemical_formula_sum  Sn2O4
_cell_volume  84.54904879929896
_cell_formula_units_Z  2
loop_
  _symmetry_equiv_pos_site_id
 _symmetry_equiv_pos_as_xyz
 1  'x, y, z'
loop_
 _atom_site_type_symbol
 _atom_site_label
 _atom_site_symmetry_multiplicity
 _atom_site_fract_x
 _atom_site_fract_y
 _atom_site_fract_z
 _atom_site_fract_occupancy
 O  O1  1  0.54680  0.04680  0.50000  1
 O  O2  1  0.20320  0.20320  0.00000  1
 O  O3  1  0.95320  0.45320  0.50000  1
 O  O4  1  0.79680  0.79680  -0.00000  1
 Sn  Sn1  1  0.00000  0.00000  0.00000  1
 Sn  Sn2  1  0.75000  0.25000  0.50000  1
