CIF file written using JARVIS-Tools package.
data_LiAl2Au
_symmetry_space_group_name_H-M  'Immm'
_cell_length_a       10.5762
_cell_length_b       9.91909
_cell_length_c       9.91909
_cell_angle_alpha    59.4535
_cell_angle_beta     57.7829
_cell_angle_gamma    57.7829

_symmetry_Int_Tables_number  71
_chemical_formula_structural  LiAl2Au
_chemical_formula_sum  LiAl2Au
_cell_volume  707.4021658145324
_cell_formula_units_Z  1
loop_
  _symmetry_equiv_pos_site_id
 _symmetry_equiv_pos_as_xyz
 1  'x, y, z'
loop_
 _atom_site_type_symbol
 _atom_site_label
 _atom_site_symmetry_multiplicity
 _atom_site_fract_x
 _atom_site_fract_y
 _atom_site_fract_z
 _atom_site_fract_occupancy
 Al  Al1  1  0.73370  0.00000  0.00000  1
 Al  Al2  1  0.26630  1.00000  1.00000  1
 Au  Au1  1  0.50000  0.00000  -0.00000  1
 Li  Li1  1  0.00000  0.00000  0.00000  1
