CIF file written using JARVIS-Tools package.
data_WBr2O2
_symmetry_space_group_name_H-M  'Pmc2_1'
_cell_length_a       7.60083
_cell_length_b       3.8746
_cell_length_c       8.54997
_cell_angle_alpha    90
_cell_angle_beta     90
_cell_angle_gamma    90

_symmetry_Int_Tables_number  26
_chemical_formula_structural  WBr2O2
_chemical_formula_sum  W2Br4O4
_cell_volume  251.798149768539
_cell_formula_units_Z  2
loop_
  _symmetry_equiv_pos_site_id
 _symmetry_equiv_pos_as_xyz
 1  'x, y, z'
loop_
 _atom_site_type_symbol
 _atom_site_label
 _atom_site_symmetry_multiplicity
 _atom_site_fract_x
 _atom_site_fract_y
 _atom_site_fract_z
 _atom_site_fract_occupancy
 Br  Br1  1  0.04083  0.00258  0.29039  1
 Br  Br2  1  0.04083  0.00258  0.70961  1
 Br  Br3  1  0.54083  0.99742  0.29039  1
 Br  Br4  1  0.54083  0.99742  0.70961  1
 O  O1  1  0.03344  0.48531  0.00000  1
 O  O2  1  0.28321  0.00339  0.00000  1
 O  O3  1  0.53344  0.51469  0.00000  1
 O  O4  1  0.78321  0.99661  0.00000  1
 W  W1  1  0.02457  0.94896  0.00000  1
 W  W2  1  0.52457  0.05104  0.00000  1
