CIF file written using JARVIS-Tools package.
data_KTcO4
_symmetry_space_group_name_H-M  'I4_1/a'
_cell_length_a       5.63631
_cell_length_b       5.63631
_cell_length_c       7.4917
_cell_angle_alpha    112.097
_cell_angle_beta     112.097
_cell_angle_gamma    90

_symmetry_Int_Tables_number  88
_chemical_formula_structural  KTcO4
_chemical_formula_sum  K2Tc2O8
_cell_volume  201.5246295184664
_cell_formula_units_Z  2
loop_
  _symmetry_equiv_pos_site_id
 _symmetry_equiv_pos_as_xyz
 1  'x, y, z'
loop_
 _atom_site_type_symbol
 _atom_site_label
 _atom_site_symmetry_multiplicity
 _atom_site_fract_x
 _atom_site_fract_y
 _atom_site_fract_z
 _atom_site_fract_occupancy
 K  K1  1  0.37500  0.12500  0.75000  1
 K  K2  1  0.62500  0.87500  0.25000  1
 O  O1  1  0.91743  0.32609  0.59522  1
 O  O2  1  0.26912  0.41743  0.09522  1
 O  O3  1  0.82609  0.17778  0.09522  1
 O  O4  1  0.67778  0.76912  0.59522  1
 O  O5  1  0.32222  0.23088  0.40478  1
 O  O6  1  0.17391  0.82222  0.90478  1
 O  O7  1  0.73088  0.58257  0.90478  1
 O  O8  1  0.08257  0.67391  0.40478  1
 Tc  Tc1  1  0.87500  0.62500  0.75000  1
 Tc  Tc2  1  0.12500  0.37500  0.25000  1
