CIF file written using JARVIS-Tools package.
data_P2Pd2O7
_symmetry_space_group_name_H-M  'C2/c'
_cell_length_a       5.26338
_cell_length_b       7.15207
_cell_length_c       8.08199
_cell_angle_alpha    96.801
_cell_angle_beta     90
_cell_angle_gamma    111.59

_symmetry_Int_Tables_number  15
_chemical_formula_structural  P2Pd2O7
_chemical_formula_sum  P4Pd4O4
_cell_volume  280.5900675608435
_cell_formula_units_Z  2
loop_
  _symmetry_equiv_pos_site_id
 _symmetry_equiv_pos_as_xyz
 1  'x, y, z'
loop_
 _atom_site_type_symbol
 _atom_site_label
 _atom_site_symmetry_multiplicity
 _atom_site_fract_x
 _atom_site_fract_y
 _atom_site_fract_z
 _atom_site_fract_occupancy
 O  O1  1  0.60402  0.37943  0.78554  1
 O  O2  1  0.51942  -0.00000  0.25000  1
 O  O3  1  0.77540  0.37943  0.28554  1
 O  O4  1  0.39598  0.62057  0.21446  1
 O  O5  1  0.92031  0.22607  0.91140  1
 O  O6  1  0.63540  0.77655  0.90854  1
 O  O7  1  0.48058  -0.00000  0.75000  1
 O  O8  1  0.07969  0.77393  0.08860  1
 O  O9  1  0.14115  0.77655  0.40854  1
 O  O10  1  0.36460  0.22345  0.09146  1
 O  O11  1  0.30577  0.22607  0.41140  1
 O  O12  1  0.22460  0.62057  0.71446  1
 O  O13  1  0.85885  0.22345  0.59146  1
 O  O14  1  0.69423  0.77393  0.58860  1
 P  P1  1  0.72868  0.21900  0.76805  1
 P  P2  1  0.27132  0.78100  0.23195  1
 P  P3  1  0.50968  0.78100  0.73195  1
 P  P4  1  0.49032  0.21900  0.26805  1
 Pd  Pd1  1  0.00000  0.00000  0.00000  1
 Pd  Pd2  1  -0.00000  -0.00000  0.50000  1
 Pd  Pd3  1  -0.00000  0.50000  0.50000  1
 Pd  Pd4  1  0.50000  0.50000  -0.00000  1
