CIF file written using JARVIS-Tools package.
data_MgAl2O4
_symmetry_space_group_name_H-M  'Cmcm'
_cell_length_a       2.79804
_cell_length_b       4.83137
_cell_length_c       9.44581
_cell_angle_alpha    90
_cell_angle_beta     90
_cell_angle_gamma    106.832

_symmetry_Int_Tables_number  63
_chemical_formula_structural  MgAl2O4
_chemical_formula_sum  Mg2Al4O8
_cell_volume  122.22121714175712
_cell_formula_units_Z  2
loop_
  _symmetry_equiv_pos_site_id
 _symmetry_equiv_pos_as_xyz
 1  'x, y, z'
loop_
 _atom_site_type_symbol
 _atom_site_label
 _atom_site_symmetry_multiplicity
 _atom_site_fract_x
 _atom_site_fract_y
 _atom_site_fract_z
 _atom_site_fract_occupancy
 Al  Al1  1  0.13419  0.26837  0.92673  1
 Al  Al2  1  0.86581  0.73163  0.42673  1
 Al  Al3  1  0.86581  0.73163  0.07327  1
 Al  Al4  1  0.13419  0.26837  0.57327  1
 Mg  Mg1  1  0.61166  0.22332  0.25000  1
 Mg  Mg2  1  0.38834  0.77668  0.75000  1
 O  O1  1  0.76997  0.53994  0.88981  1
 O  O2  1  0.76997  0.53994  0.61019  1
 O  O3  1  0.23003  0.46006  0.38981  1
 O  O4  1  0.04752  0.09503  0.75000  1
 O  O5  1  0.23003  0.46006  0.11019  1
 O  O6  1  0.50000  0.00000  0.50000  1
 O  O7  1  0.50000  0.00000  0.00000  1
 O  O8  1  0.95248  0.90497  0.25000  1
