CIF file written using JARVIS-Tools package.
data_CaFeO3
_symmetry_space_group_name_H-M  'Pnma'
_cell_length_a       5.28256
_cell_length_b       5.31924
_cell_length_c       7.4819
_cell_angle_alpha    90
_cell_angle_beta     90
_cell_angle_gamma    90

_symmetry_Int_Tables_number  62
_chemical_formula_structural  CaFeO3
_chemical_formula_sum  Ca4Fe4O2
_cell_volume  210.23573857174057
_cell_formula_units_Z  4
loop_
  _symmetry_equiv_pos_site_id
 _symmetry_equiv_pos_as_xyz
 1  'x, y, z'
loop_
 _atom_site_type_symbol
 _atom_site_label
 _atom_site_symmetry_multiplicity
 _atom_site_fract_x
 _atom_site_fract_y
 _atom_site_fract_z
 _atom_site_fract_occupancy
 Ca  Ca1  1  0.99319  0.03784  0.25000  1
 Ca  Ca2  1  0.49319  0.46216  0.75000  1
 Ca  Ca3  1  0.50681  0.53784  0.25000  1
 Ca  Ca4  1  0.00681  0.96216  0.75000  1
 Fe  Fe1  1  0.50000  0.00000  0.00000  1
 Fe  Fe2  1  0.00000  0.50000  0.00000  1
 Fe  Fe3  1  0.00000  0.50000  0.50000  1
 Fe  Fe4  1  0.50000  0.00000  0.50000  1
 O  O1  1  0.93582  0.50948  0.75000  1
 O  O2  1  0.28666  0.71383  0.53346  1
 O  O3  1  0.56418  0.00948  0.75000  1
 O  O4  1  0.06418  0.49052  0.25000  1
 O  O5  1  0.43582  0.99052  0.25000  1
 O  O6  1  0.71334  0.28617  0.03346  1
 O  O7  1  0.78666  0.78617  0.03346  1
 O  O8  1  0.28666  0.71383  0.96654  1
 O  O9  1  0.71334  0.28617  0.46654  1
 O  O10  1  0.21334  0.21383  0.96654  1
 O  O11  1  0.21334  0.21383  0.53346  1
 O  O12  1  0.78666  0.78617  0.46654  1
