CIF file written using JARVIS-Tools package.
data_WSeS
_symmetry_space_group_name_H-M  'P-3m1'
_cell_length_a       3.25813
_cell_length_b       3.25814
_cell_length_c       34.8508
_cell_angle_alpha    90.0004
_cell_angle_beta     90
_cell_angle_gamma    120

_symmetry_Int_Tables_number  164
_chemical_formula_structural  WSeS
_chemical_formula_sum  W4Se4S4
_cell_volume  320.3922785834817
_cell_formula_units_Z  4
loop_
  _symmetry_equiv_pos_site_id
 _symmetry_equiv_pos_as_xyz
 1  'x, y, z'
loop_
 _atom_site_type_symbol
 _atom_site_label
 _atom_site_symmetry_multiplicity
 _atom_site_fract_x
 _atom_site_fract_y
 _atom_site_fract_z
 _atom_site_fract_occupancy
 S  S1  1  0.33335  0.66669  0.70100  1
 S  S2  1  0.66665  0.33331  0.05045  1
 S  S3  1  0.66667  0.33335  0.13957  1
 S  S4  1  0.33333  0.66665  0.61189  1
 Se  Se1  1  0.33334  0.66669  0.32895  1
 Se  Se2  1  0.66666  0.33331  0.42251  1
 Se  Se3  1  0.66664  0.33328  0.52055  1
 Se  Se4  1  0.33336  0.66672  0.23091  1
 W  W1  1  0.33333  0.66665  0.09499  1
 W  W2  1  0.33331  0.66663  0.47153  1
 W  W3  1  0.66669  0.33337  0.27992  1
 W  W4  1  0.66667  0.33335  0.65647  1
