CIF file written using JARVIS-Tools package.
data_MgBe2Os
_symmetry_space_group_name_H-M  'Immm'
_cell_length_a       10.6203
_cell_length_b       5.92147
_cell_length_c       5.92148
_cell_angle_alpha    45.4196
_cell_angle_beta     26.264
_cell_angle_gamma    26.2639

_symmetry_Int_Tables_number  71
_chemical_formula_structural  MgBe2Os
_chemical_formula_sum  MgBe2Os
_cell_volume  62.18100151055792
_cell_formula_units_Z  1
loop_
  _symmetry_equiv_pos_site_id
 _symmetry_equiv_pos_as_xyz
 1  'x, y, z'
loop_
 _atom_site_type_symbol
 _atom_site_label
 _atom_site_symmetry_multiplicity
 _atom_site_fract_x
 _atom_site_fract_y
 _atom_site_fract_z
 _atom_site_fract_occupancy
 Be  Be1  1  0.71021  -0.00000  0.00000  1
 Be  Be2  1  0.28979  0.00000  -0.00000  1
 Mg  Mg1  1  0.00000  0.00000  0.00000  1
 Os  Os1  1  0.50000  -0.00000  -0.00000  1
