CIF file written using JARVIS-Tools package.
data_Ga2RuPt
_symmetry_space_group_name_H-M  'Immm'
_cell_length_a       10.6157
_cell_length_b       7.49767
_cell_length_c       7.49961
_cell_angle_alpha    33.643
_cell_angle_beta     19.5151
_cell_angle_gamma    19.5355

_symmetry_Int_Tables_number  71
_chemical_formula_structural  Ga2RuPt
_chemical_formula_sum  Ga2RuPt
_cell_volume  57.767210818968216
_cell_formula_units_Z  1
loop_
  _symmetry_equiv_pos_site_id
 _symmetry_equiv_pos_as_xyz
 1  'x, y, z'
loop_
 _atom_site_type_symbol
 _atom_site_label
 _atom_site_symmetry_multiplicity
 _atom_site_fract_x
 _atom_site_fract_y
 _atom_site_fract_z
 _atom_site_fract_occupancy
 Ga  Ga1  1  0.74997  0.00002  0.00002  1
 Ga  Ga2  1  0.25003  -0.00002  -0.00002  1
 Pt  Pt1  1  0.50000  -0.00000  0.00000  1
 Ru  Ru1  1  0.00000  0.00000  0.00000  1
