CIF file written using JARVIS-Tools package.
data_VO2
_symmetry_space_group_name_H-M  'Cmcm'
_cell_length_a       2.87026
_cell_length_b       4.86817
_cell_length_c       9.92302
_cell_angle_alpha    90
_cell_angle_beta     90
_cell_angle_gamma    107.145

_symmetry_Int_Tables_number  63
_chemical_formula_structural  VO2
_chemical_formula_sum  V4O8
_cell_volume  132.49185246314076
_cell_formula_units_Z  4
loop_
  _symmetry_equiv_pos_site_id
 _symmetry_equiv_pos_as_xyz
 1  'x, y, z'
loop_
 _atom_site_type_symbol
 _atom_site_label
 _atom_site_symmetry_multiplicity
 _atom_site_fract_x
 _atom_site_fract_y
 _atom_site_fract_z
 _atom_site_fract_occupancy
 O  O1  1  0.23909  0.47819  0.39683  1
 O  O2  1  0.76091  0.52181  0.60317  1
 O  O3  1  0.76091  0.52181  0.89683  1
 O  O4  1  0.23909  0.47819  0.10317  1
 O  O5  1  0.92944  0.85888  0.25000  1
 O  O6  1  0.07056  0.14112  0.75000  1
 O  O7  1  0.50000  0.00000  0.00000  1
 O  O8  1  0.50000  0.00000  0.50000  1
 V  V1  1  0.86883  0.73766  0.07928  1
 V  V2  1  0.13117  0.26234  0.92072  1
 V  V3  1  0.86883  0.73766  0.42072  1
 V  V4  1  0.13117  0.26234  0.57928  1
