CIF file written using JARVIS-Tools package.
data_LiAl2Ru
_symmetry_space_group_name_H-M  'Fm-3m'
_cell_length_a       10.4501
_cell_length_b       7.38836
_cell_length_c       7.38834
_cell_angle_alpha    33.553
_cell_angle_beta     19.4714
_cell_angle_gamma    19.4713

_symmetry_Int_Tables_number  225
_chemical_formula_structural  LiAl2Ru
_chemical_formula_sum  LiAl2Ru
_cell_volume  54.906324881265064
_cell_formula_units_Z  1
loop_
  _symmetry_equiv_pos_site_id
 _symmetry_equiv_pos_as_xyz
 1  'x, y, z'
loop_
 _atom_site_type_symbol
 _atom_site_label
 _atom_site_symmetry_multiplicity
 _atom_site_fract_x
 _atom_site_fract_y
 _atom_site_fract_z
 _atom_site_fract_occupancy
 Al  Al1  1  0.75002  -0.00002  -0.00002  1
 Al  Al2  1  0.24998  0.00002  0.00002  1
 Li  Li1  1  0.00000  -0.00000  -0.00000  1
 Ru  Ru1  1  0.50000  0.00000  -0.00000  1
