CIF file written using JARVIS-Tools package.
data_CaBi2O4
_symmetry_space_group_name_H-M  'Pmmn'
_cell_length_a       6.13718
_cell_length_b       6.85092
_cell_length_c       11.9243
_cell_angle_alpha    90
_cell_angle_beta     90
_cell_angle_gamma    90

_symmetry_Int_Tables_number  59
_chemical_formula_structural  CaBi2O4
_chemical_formula_sum  Ca4Bi8O6
_cell_volume  501.36183958013095
_cell_formula_units_Z  4
loop_
  _symmetry_equiv_pos_site_id
 _symmetry_equiv_pos_as_xyz
 1  'x, y, z'
loop_
 _atom_site_type_symbol
 _atom_site_label
 _atom_site_symmetry_multiplicity
 _atom_site_fract_x
 _atom_site_fract_y
 _atom_site_fract_z
 _atom_site_fract_occupancy
 Bi  Bi1  1  0.50217  0.00000  0.78755  1
 Bi  Bi2  1  0.49783  0.50000  0.71245  1
 Bi  Bi3  1  0.50217  0.00000  0.21245  1
 Bi  Bi4  1  0.49783  0.50000  0.28755  1
 Bi  Bi5  1  0.00000  0.75000  0.75000  1
 Bi  Bi6  1  0.00000  0.25000  0.25000  1
 Bi  Bi7  1  0.00000  0.75000  0.25000  1
 Bi  Bi8  1  0.00000  0.25000  0.75000  1
 Ca  Ca1  1  0.85896  0.50000  0.50000  1
 Ca  Ca2  1  0.50319  0.50000  0.00000  1
 Ca  Ca3  1  0.14104  0.00000  0.00000  1
 Ca  Ca4  1  0.49681  0.00000  0.50000  1
 O  O1  1  0.22704  0.00000  0.65539  1
 O  O2  1  0.87427  0.00000  0.13279  1
 O  O3  1  0.67637  0.25701  0.37430  1
 O  O4  1  0.12573  0.50000  0.36721  1
 O  O5  1  0.12573  0.50000  0.63279  1
 O  O6  1  0.22704  0.00000  0.34461  1
 O  O7  1  0.87427  0.00000  0.86721  1
 O  O8  1  0.32363  0.24299  0.87430  1
 O  O9  1  0.67637  0.25701  0.62570  1
 O  O10  1  0.32363  0.24299  0.12570  1
 O  O11  1  0.32363  0.75701  0.87430  1
 O  O12  1  0.32363  0.75701  0.12570  1
 O  O13  1  0.77296  0.50000  0.15539  1
 O  O14  1  0.67637  0.74299  0.37430  1
 O  O15  1  0.77296  0.50000  0.84461  1
 O  O16  1  0.67637  0.74299  0.62570  1
