CIF file written using JARVIS-Tools package.
data_SiO2
_symmetry_space_group_name_H-M  'Pa-3'
_cell_length_a       4.4869
_cell_length_b       4.4869
_cell_length_c       4.4869
_cell_angle_alpha    90
_cell_angle_beta     90
_cell_angle_gamma    90

_symmetry_Int_Tables_number  205
_chemical_formula_structural  SiO2
_chemical_formula_sum  Si4O8
_cell_volume  90.33148586567125
_cell_formula_units_Z  4
loop_
  _symmetry_equiv_pos_site_id
 _symmetry_equiv_pos_as_xyz
 1  'x, y, z'
loop_
 _atom_site_type_symbol
 _atom_site_label
 _atom_site_symmetry_multiplicity
 _atom_site_fract_x
 _atom_site_fract_y
 _atom_site_fract_z
 _atom_site_fract_occupancy
 O  O1  1  0.34425  0.15575  0.84425  1
 O  O2  1  0.15575  0.84425  0.34425  1
 O  O3  1  0.84425  0.34425  0.15575  1
 O  O4  1  0.65575  0.65575  0.65575  1
 O  O5  1  0.34425  0.34425  0.34425  1
 O  O6  1  0.15575  0.65575  0.84425  1
 O  O7  1  0.84425  0.15575  0.65575  1
 O  O8  1  0.65575  0.84425  0.15575  1
 Si  Si1  1  0.00000  0.50000  0.50000  1
 Si  Si2  1  0.50000  0.50000  0.00000  1
 Si  Si3  1  0.50000  0.00000  0.50000  1
 Si  Si4  1  0.00000  0.00000  0.00000  1
