CIF file written using JARVIS-Tools package.
data_LiOs2W
_symmetry_space_group_name_H-M  'C2/m'
_cell_length_a       10.7589
_cell_length_b       7.40393
_cell_length_c       5.89703
_cell_angle_alpha    42.0907
_cell_angle_beta     28.8241
_cell_angle_gamma    18.3201

_symmetry_Int_Tables_number  12
_chemical_formula_structural  LiOs2W
_chemical_formula_sum  LiOs2W
_cell_volume  57.406334756387146
_cell_formula_units_Z  1
loop_
  _symmetry_equiv_pos_site_id
 _symmetry_equiv_pos_as_xyz
 1  'x, y, z'
loop_
 _atom_site_type_symbol
 _atom_site_label
 _atom_site_symmetry_multiplicity
 _atom_site_fract_x
 _atom_site_fract_y
 _atom_site_fract_z
 _atom_site_fract_occupancy
 Li  Li1  1  0.00000  0.00000  0.00000  1
 Os  Os1  1  0.73685  0.03180  -0.01413  1
 Os  Os2  1  0.26315  -0.03180  0.01413  1
 W  W1  1  0.50000  -0.00000  -0.00000  1
