CIF file written using JARVIS-Tools package.
data_Hf2ZnHg
_symmetry_space_group_name_H-M  'C2/m'
_cell_length_a       11.8119
_cell_length_b       5.02179
_cell_length_c       5.02179
_cell_angle_alpha    36.246
_cell_angle_beta     32.8293
_cell_angle_gamma    32.8293

_symmetry_Int_Tables_number  12
_chemical_formula_structural  Hf2ZnHg
_chemical_formula_sum  Hf2ZnHg
_cell_volume  82.2838520722061
_cell_formula_units_Z  1
loop_
  _symmetry_equiv_pos_site_id
 _symmetry_equiv_pos_as_xyz
 1  'x, y, z'
loop_
 _atom_site_type_symbol
 _atom_site_label
 _atom_site_symmetry_multiplicity
 _atom_site_fract_x
 _atom_site_fract_y
 _atom_site_fract_z
 _atom_site_fract_occupancy
 Hf  Hf1  1  0.77037  -0.02250  -0.02250  1
 Hf  Hf2  1  0.22963  0.02250  0.02250  1
 Hg  Hg1  1  0.50000  -0.00000  -0.00000  1
 Zn  Zn1  1  0.00000  0.00000  0.00000  1
