CIF file written using JARVIS-Tools package.
data_VGeRu2
_symmetry_space_group_name_H-M  'Fm-3m'
_cell_length_a       4.26035
_cell_length_b       4.26055
_cell_length_c       4.26062
_cell_angle_alpha    59.9968
_cell_angle_beta     60.0007
_cell_angle_gamma    60.0023

_symmetry_Int_Tables_number  225
_chemical_formula_structural  VGeRu2
_chemical_formula_sum  VGeRu2
_cell_volume  54.685125277816226
_cell_formula_units_Z  1
loop_
  _symmetry_equiv_pos_site_id
 _symmetry_equiv_pos_as_xyz
 1  'x, y, z'
loop_
 _atom_site_type_symbol
 _atom_site_label
 _atom_site_symmetry_multiplicity
 _atom_site_fract_x
 _atom_site_fract_y
 _atom_site_fract_z
 _atom_site_fract_occupancy
 Ge  Ge1  1  0.25000  0.25000  0.25000  1
 Ru  Ru1  1  0.50001  0.49999  0.50001  1
 Ru  Ru2  1  -0.00001  0.00001  -0.00001  1
 V  V1  1  0.75000  0.75000  0.75000  1
