CIF file written using JARVIS-Tools package.
data_NaCd2Rh
_symmetry_space_group_name_H-M  'Fm-3m'
_cell_length_a       11.5931
_cell_length_b       4.73134
_cell_length_c       4.73167
_cell_angle_alpha    60.0488
_cell_angle_beta     35.2799
_cell_angle_gamma    35.2853

_symmetry_Int_Tables_number  225
_chemical_formula_structural  NaCd2Rh
_chemical_formula_sum  NaCd2Rh
_cell_volume  74.94552717775575
_cell_formula_units_Z  1
loop_
  _symmetry_equiv_pos_site_id
 _symmetry_equiv_pos_as_xyz
 1  'x, y, z'
loop_
 _atom_site_type_symbol
 _atom_site_label
 _atom_site_symmetry_multiplicity
 _atom_site_fract_x
 _atom_site_fract_y
 _atom_site_fract_z
 _atom_site_fract_occupancy
 Cd  Cd1  1  0.75000  0.00002  0.00001  1
 Cd  Cd2  1  0.25000  -0.00002  -0.00001  1
 Na  Na1  1  0.00000  0.00000  0.00000  1
 Rh  Rh1  1  0.50000  0.00000  0.00000  1
