CIF file written using JARVIS-Tools package.
data_CdCu2Rh
_symmetry_space_group_name_H-M  'C2/m'
_cell_length_a       9.80956
_cell_length_b       9.93724
_cell_length_c       9.93724
_cell_angle_alpha    59.4339
_cell_angle_beta     59.3231
_cell_angle_gamma    59.3231

_symmetry_Int_Tables_number  12
_chemical_formula_structural  CdCu2Rh
_chemical_formula_sum  CdCu2Rh
_cell_volume  674.9813716622874
_cell_formula_units_Z  1
loop_
  _symmetry_equiv_pos_site_id
 _symmetry_equiv_pos_as_xyz
 1  'x, y, z'
loop_
 _atom_site_type_symbol
 _atom_site_label
 _atom_site_symmetry_multiplicity
 _atom_site_fract_x
 _atom_site_fract_y
 _atom_site_fract_z
 _atom_site_fract_occupancy
 Cd  Cd1  1  0.50000  -0.00000  -0.00000  1
 Cu  Cu1  1  0.75746  0.00012  0.00012  1
 Cu  Cu2  1  0.24254  0.99988  0.99988  1
 Rh  Rh1  1  0.00000  0.00000  0.00000  1
