CIF file written using JARVIS-Tools package.
data_Ba2MgB2O6
_symmetry_space_group_name_H-M  'R-3m'
_cell_length_a       6.34002
_cell_length_b       6.34002
_cell_length_c       6.34002
_cell_angle_alpha    50.3779
_cell_angle_beta     50.378
_cell_angle_gamma    50.3779

_symmetry_Int_Tables_number  166
_chemical_formula_structural  Ba2MgB2O6
_chemical_formula_sum  Ba2MgB2O6
_cell_volume  139.26732406599768
_cell_formula_units_Z  1
loop_
  _symmetry_equiv_pos_site_id
 _symmetry_equiv_pos_as_xyz
 1  'x, y, z'
loop_
 _atom_site_type_symbol
 _atom_site_label
 _atom_site_symmetry_multiplicity
 _atom_site_fract_x
 _atom_site_fract_y
 _atom_site_fract_z
 _atom_site_fract_occupancy
 B  B1  1  0.41019  0.41019  0.41019  1
 B  B2  1  0.58981  0.58981  0.58981  1
 Ba  Ba1  1  0.77665  0.77665  0.77665  1
 Ba  Ba2  1  0.22335  0.22335  0.22335  1
 Mg  Mg1  1  0.00000  0.00000  0.00000  1
 O  O1  1  0.29227  0.73997  0.73997  1
 O  O2  1  0.73997  0.73997  0.29227  1
 O  O3  1  0.73997  0.29227  0.73997  1
 O  O4  1  0.26003  0.70773  0.26003  1
 O  O5  1  0.26003  0.26003  0.70773  1
 O  O6  1  0.70773  0.26003  0.26003  1
