CIF file written using JARVIS-Tools package.
data_ZrNi
_symmetry_space_group_name_H-M  'Cmcm'
_cell_length_a       3.31869
_cell_length_b       4.05637
_cell_length_c       5.24952
_cell_angle_alpha    90
_cell_angle_beta     108.427
_cell_angle_gamma    90

_symmetry_Int_Tables_number  63
_chemical_formula_structural  ZrNi
_chemical_formula_sum  Zr2Ni2
_cell_volume  67.04471609588394
_cell_formula_units_Z  2
loop_
  _symmetry_equiv_pos_site_id
 _symmetry_equiv_pos_as_xyz
 1  'x, y, z'
loop_
 _atom_site_type_symbol
 _atom_site_label
 _atom_site_symmetry_multiplicity
 _atom_site_fract_x
 _atom_site_fract_y
 _atom_site_fract_z
 _atom_site_fract_occupancy
 Ni  Ni1  1  0.91606  0.25000  0.83211  1
 Ni  Ni2  1  0.08394  0.75000  0.16789  1
 Zr  Zr1  1  0.63913  0.25000  0.27826  1
 Zr  Zr2  1  0.36087  0.75000  0.72174  1
