CIF file written using JARVIS-Tools package.
data_Rb2S5
_symmetry_space_group_name_H-M  'P2_12_12_1'
_cell_length_a       6.56427
_cell_length_b       6.85001
_cell_length_c       17.52
_cell_angle_alpha    90
_cell_angle_beta     90
_cell_angle_gamma    90

_symmetry_Int_Tables_number  19
_chemical_formula_structural  Rb2S5
_chemical_formula_sum  Rb8S20
_cell_volume  787.7916569741634
_cell_formula_units_Z  4
loop_
  _symmetry_equiv_pos_site_id
 _symmetry_equiv_pos_as_xyz
 1  'x, y, z'
loop_
 _atom_site_type_symbol
 _atom_site_label
 _atom_site_symmetry_multiplicity
 _atom_site_fract_x
 _atom_site_fract_y
 _atom_site_fract_z
 _atom_site_fract_occupancy
 Rb  Rb1  1  0.42490  0.74988  0.33843  1
 Rb  Rb2  1  0.92490  0.75012  0.66157  1
 Rb  Rb3  1  0.57510  0.24988  0.16157  1
 Rb  Rb4  1  0.07510  0.25012  0.83843  1
 Rb  Rb5  1  0.88580  0.58142  0.01469  1
 Rb  Rb6  1  0.38580  0.91858  0.98531  1
 Rb  Rb7  1  0.11420  0.08142  0.48531  1
 Rb  Rb8  1  0.61420  0.41858  0.51469  1
 S  S1  1  0.75409  0.16789  0.34880  1
 S  S2  1  0.55495  0.61357  0.80322  1
 S  S3  1  0.24591  0.66789  0.15120  1
 S  S4  1  0.54797  0.75280  0.15692  1
 S  S5  1  0.45203  0.25280  0.34308  1
 S  S6  1  0.04797  0.74720  0.84308  1
 S  S7  1  0.25409  0.33211  0.65120  1
 S  S8  1  0.95203  0.24720  0.65692  1
 S  S9  1  0.74591  0.83211  0.84880  1
 S  S10  1  0.44505  0.11357  0.69678  1
 S  S11  1  0.56902  0.36958  0.87615  1
 S  S12  1  0.40935  0.41979  0.97580  1
 S  S13  1  0.59065  0.91979  0.52420  1
 S  S14  1  0.06902  0.13042  0.12385  1
 S  S15  1  0.94505  0.38643  0.30322  1
 S  S16  1  0.93098  0.63042  0.37615  1
 S  S17  1  0.43098  0.86958  0.62385  1
 S  S18  1  0.90935  0.08021  0.02420  1
 S  S19  1  0.09065  0.58021  0.47580  1
 S  S20  1  0.05495  0.88643  0.19678  1
