CIF file written using JARVIS-Tools package.
data_Be4B
_symmetry_space_group_name_H-M  'P4/nmm'
_cell_length_a       3.35313
_cell_length_b       3.35313
_cell_length_c       7.00543
_cell_angle_alpha    90
_cell_angle_beta     90
_cell_angle_gamma    90

_symmetry_Int_Tables_number  129
_chemical_formula_structural  Be4B
_chemical_formula_sum  Be8B2
_cell_volume  78.76524589811791
_cell_formula_units_Z  2
loop_
  _symmetry_equiv_pos_site_id
 _symmetry_equiv_pos_as_xyz
 1  'x, y, z'
loop_
 _atom_site_type_symbol
 _atom_site_label
 _atom_site_symmetry_multiplicity
 _atom_site_fract_x
 _atom_site_fract_y
 _atom_site_fract_z
 _atom_site_fract_occupancy
 B  B1  1  0.50000  0.00000  0.83026  1
 B  B2  1  0.00000  0.50000  0.16974  1
 Be  Be1  1  0.50000  0.50000  0.00000  1
 Be  Be2  1  0.00000  0.00000  0.00000  1
 Be  Be3  1  0.00000  0.50000  0.48060  1
 Be  Be4  1  0.50000  0.00000  0.51940  1
 Be  Be5  1  0.00000  0.00000  0.30492  1
 Be  Be6  1  0.50000  0.50000  0.30492  1
 Be  Be7  1  0.50000  0.50000  0.69508  1
 Be  Be8  1  0.00000  0.00000  0.69508  1
