CIF file written using JARVIS-Tools package.
data_LiTlHg2
_symmetry_space_group_name_H-M  'Immm'
_cell_length_a       12.7995
_cell_length_b       7.82816
_cell_length_c       6.3484
_cell_angle_alpha    23.5678
_cell_angle_beta     28.4778
_cell_angle_gamma    22.7484

_symmetry_Int_Tables_number  71
_chemical_formula_structural  LiTlHg2
_chemical_formula_sum  LiTlHg2
_cell_volume  95.97881784926483
_cell_formula_units_Z  1
loop_
  _symmetry_equiv_pos_site_id
 _symmetry_equiv_pos_as_xyz
 1  'x, y, z'
loop_
 _atom_site_type_symbol
 _atom_site_label
 _atom_site_symmetry_multiplicity
 _atom_site_fract_x
 _atom_site_fract_y
 _atom_site_fract_z
 _atom_site_fract_occupancy
 Hg  Hg1  1  0.79798  0.90452  0.09548  1
 Hg  Hg2  1  0.20202  0.09548  0.90452  1
 Li  Li1  1  0.00000  0.00000  0.00000  1
 Tl  Tl1  1  0.50000  -0.00000  0.00000  1
