CIF file written using JARVIS-Tools package.
data_Y2HgPb
_symmetry_space_group_name_H-M  'Immm'
_cell_length_a       13.0003
_cell_length_b       9.18983
_cell_length_c       9.18966
_cell_angle_alpha    33.6404
_cell_angle_beta     19.5276
_cell_angle_gamma    19.5255

_symmetry_Int_Tables_number  71
_chemical_formula_structural  Y2HgPb
_chemical_formula_sum  Y2HgPb
_cell_volume  106.29140871116205
_cell_formula_units_Z  1
loop_
  _symmetry_equiv_pos_site_id
 _symmetry_equiv_pos_as_xyz
 1  'x, y, z'
loop_
 _atom_site_type_symbol
 _atom_site_label
 _atom_site_symmetry_multiplicity
 _atom_site_fract_x
 _atom_site_fract_y
 _atom_site_fract_z
 _atom_site_fract_occupancy
 Hg  Hg1  1  0.00001  -0.00001  -0.00001  1
 Pb  Pb1  1  0.50000  0.00000  0.00000  1
 Y  Y1  1  0.75014  -0.00006  -0.00006  1
 Y  Y2  1  0.24986  0.00006  0.00007  1
