CIF file written using JARVIS-Tools package.
data_AlZnNi2
_symmetry_space_group_name_H-M  'Immm'
_cell_length_a       9.60295
_cell_length_b       5.44484
_cell_length_c       5.44484
_cell_angle_alpha    27.6141
_cell_angle_beta     28.1349
_cell_angle_gamma    28.135

_symmetry_Int_Tables_number  71
_chemical_formula_structural  AlZnNi2
_chemical_formula_sum  AlZnNi2
_cell_volume  55.26441733383279
_cell_formula_units_Z  1
loop_
  _symmetry_equiv_pos_site_id
 _symmetry_equiv_pos_as_xyz
 1  'x, y, z'
loop_
 _atom_site_type_symbol
 _atom_site_label
 _atom_site_symmetry_multiplicity
 _atom_site_fract_x
 _atom_site_fract_y
 _atom_site_fract_z
 _atom_site_fract_occupancy
 Al  Al1  1  0.00000  0.00000  0.00000  1
 Ni  Ni1  1  0.75335  0.00000  0.00000  1
 Ni  Ni2  1  0.24665  0.00000  -0.00000  1
 Zn  Zn1  1  0.50000  0.00000  -0.00000  1
