CIF file written using JARVIS-Tools package.
data_Li2AsAu
_symmetry_space_group_name_H-M  'Fmmm'
_cell_length_a       11.1623
_cell_length_b       7.76502
_cell_length_c       7.29311
_cell_angle_alpha    31.6575
_cell_angle_beta     18.9681
_cell_angle_gamma    19.4583

_symmetry_Int_Tables_number  69
_chemical_formula_structural  Li2AsAu
_chemical_formula_sum  Li2AsAu
_cell_volume  63.4822316701103
_cell_formula_units_Z  1
loop_
  _symmetry_equiv_pos_site_id
 _symmetry_equiv_pos_as_xyz
 1  'x, y, z'
loop_
 _atom_site_type_symbol
 _atom_site_label
 _atom_site_symmetry_multiplicity
 _atom_site_fract_x
 _atom_site_fract_y
 _atom_site_fract_z
 _atom_site_fract_occupancy
 As  As1  1  0.00000  0.00000  0.00000  1
 Au  Au1  1  0.50000  -0.00000  -0.00000  1
 Li  Li1  1  0.74987  1.00021  1.00005  1
 Li  Li2  1  0.25013  -0.00021  -0.00005  1
