data_image0
_chemical_formula_structural       B4Li5
_chemical_formula_sum              "B4 Li5"
_cell_length_a       4.76267
_cell_length_b       4.76267
_cell_length_c       4.76267
_cell_angle_alpha    84.8251
_cell_angle_beta     84.8251
_cell_angle_gamma    84.8251

_space_group_name_H-M_alt    "P 1"
_space_group_IT_number       1

loop_
  _space_group_symop_operation_xyz
  'x, y, z'

loop_
  _atom_site_type_symbol
  _atom_site_label
  _atom_site_symmetry_multiplicity
  _atom_site_fract_x
  _atom_site_fract_y
  _atom_site_fract_z
  _atom_site_occupancy
  B   B1        1.0  0.77900  0.77900  0.19300  1.0000
  B   B2        1.0  0.77900  0.19300  0.77900  1.0000
  B   B3        1.0  0.19300  0.77900  0.77900  1.0000
  B   B4        1.0  0.97300  0.97300  0.97300  1.0000
  Li  Li1       1.0  0.21100  0.21100  0.21100  1.0000
  Li  Li2       1.0  0.72200  0.28800  0.28800  1.0000
  Li  Li3       1.0  0.28800  0.72200  0.28800  1.0000
  Li  Li4       1.0  0.69100  0.69100  0.69100  1.0000
  Li  Li5       1.0  0.28800  0.28800  0.72200  1.0000
