CIF file written using JARVIS-Tools package.
data_Al2VCl8
_symmetry_space_group_name_H-M  'C2/c'
_cell_length_a       7.48854
_cell_length_b       9.2469
_cell_length_c       9.49761
_cell_angle_alpha    76.8313
_cell_angle_beta     66.7818
_cell_angle_gamma    66.1138

_symmetry_Int_Tables_number  15
_chemical_formula_structural  Al2VCl8
_chemical_formula_sum  Al4V2Cl6
_cell_volume  550.8164273584255
_cell_formula_units_Z  2
loop_
  _symmetry_equiv_pos_site_id
 _symmetry_equiv_pos_as_xyz
 1  'x, y, z'
loop_
 _atom_site_type_symbol
 _atom_site_label
 _atom_site_symmetry_multiplicity
 _atom_site_fract_x
 _atom_site_fract_y
 _atom_site_fract_z
 _atom_site_fract_occupancy
 Al  Al1  1  0.16496  0.64478  0.53551  1
 Al  Al2  1  0.34525  0.85522  0.96449  1
 Al  Al3  1  0.83504  0.35522  0.46449  1
 Al  Al4  1  0.65475  0.14478  0.03551  1
 Cl  Cl1  1  0.32634  0.77815  0.55136  1
 Cl  Cl2  1  0.67366  0.22185  0.44864  1
 Cl  Cl3  1  0.17163  0.71011  0.97086  1
 Cl  Cl4  1  0.15605  0.95283  0.18889  1
 Cl  Cl5  1  0.65584  0.72185  0.94864  1
 Cl  Cl6  1  0.29777  0.54717  0.31111  1
 Cl  Cl7  1  0.82837  0.28989  0.02914  1
 Cl  Cl8  1  0.84395  0.04717  0.81111  1
 Cl  Cl9  1  0.14740  0.21011  0.47086  1
 Cl  Cl10  1  0.34416  0.27815  0.05136  1
 Cl  Cl11  1  0.65992  0.95517  0.22135  1
 Cl  Cl12  1  0.70223  0.45283  0.68889  1
 Cl  Cl13  1  0.85260  0.78989  0.52914  1
 Cl  Cl14  1  0.16355  0.45517  0.72135  1
 Cl  Cl15  1  0.34008  0.04483  0.77865  1
 Cl  Cl16  1  0.83645  0.54483  0.27865  1
 V  V1  1  0.00968  0.25000  0.75000  1
 V  V2  1  -0.00968  0.75000  0.25000  1
