CIF file written using JARVIS-Tools package.
data_LiFePt2
_symmetry_space_group_name_H-M  'I4/mmm'
_cell_length_a       10.5449
_cell_length_b       7.1911
_cell_length_c       7.19172
_cell_angle_alpha    32.2479
_cell_angle_beta     19.3693
_cell_angle_gamma    19.3719

_symmetry_Int_Tables_number  139
_chemical_formula_structural  LiFePt2
_chemical_formula_sum  LiFePt2
_cell_volume  54.92706037713805
_cell_formula_units_Z  1
loop_
  _symmetry_equiv_pos_site_id
 _symmetry_equiv_pos_as_xyz
 1  'x, y, z'
loop_
 _atom_site_type_symbol
 _atom_site_label
 _atom_site_symmetry_multiplicity
 _atom_site_fract_x
 _atom_site_fract_y
 _atom_site_fract_z
 _atom_site_fract_occupancy
 Fe  Fe1  1  0.50000  1.00000  1.00000  1
 Li  Li1  1  1.00000  -0.00000  -0.00000  1
 Pt  Pt1  1  0.75002  0.99999  0.99999  1
 Pt  Pt2  1  0.24998  0.00001  0.00001  1
