CIF file written using JARVIS-Tools package.
data_Fe4O5F3
_symmetry_space_group_name_H-M  'P-1'
_cell_length_a       4.52306
_cell_length_b       7.4295
_cell_length_c       7.43388
_cell_angle_alpha    104.437
_cell_angle_beta     91.8309
_cell_angle_gamma    91.1826

_symmetry_Int_Tables_number  2
_chemical_formula_structural  Fe4O5F3
_chemical_formula_sum  Fe8O0F6
_cell_volume  241.69151876948908
_cell_formula_units_Z  2
loop_
  _symmetry_equiv_pos_site_id
 _symmetry_equiv_pos_as_xyz
 1  'x, y, z'
loop_
 _atom_site_type_symbol
 _atom_site_label
 _atom_site_symmetry_multiplicity
 _atom_site_fract_x
 _atom_site_fract_y
 _atom_site_fract_z
 _atom_site_fract_occupancy
 F  F1  1  0.20308  0.39318  0.40946  1
 F  F2  1  0.72520  0.73337  0.96417  1
 F  F3  1  0.80764  0.85102  0.33097  1
 F  F4  1  0.79692  0.60682  0.59054  1
 F  F5  1  0.19236  0.14898  0.66903  1
 F  F6  1  0.27480  0.26663  0.03583  1
 Fe  Fe1  1  0.95710  0.11164  0.88110  1
 Fe  Fe2  1  0.46298  0.76068  0.74388  1
 Fe  Fe3  1  0.02758  0.61724  0.34760  1
 Fe  Fe4  1  0.04290  0.88836  0.11890  1
 Fe  Fe5  1  0.53702  0.23932  0.25612  1
 Fe  Fe6  1  0.50000  0.50000  0.00000  1
 Fe  Fe7  1  0.50000  0.00000  0.50000  1
 Fe  Fe8  1  0.97242  0.38276  0.65240  1
 O  O1  1  0.20076  0.90836  0.90313  1
 O  O2  1  0.21331  0.66149  0.13938  1
 O  O3  1  0.30468  0.53574  0.77893  1
 O  O4  1  0.30769  0.03242  0.27928  1
 O  O5  1  0.69532  0.46426  0.22107  1
 O  O6  1  0.69231  0.96758  0.72072  1
 O  O7  1  0.78669  0.33851  0.86062  1
 O  O8  1  0.79924  0.09164  0.09687  1
 O  O9  1  0.70103  0.22240  0.48363  1
 O  O10  1  0.29897  0.77760  0.51637  1
