CIF file written using JARVIS-Tools package.
data_K2CO3
_symmetry_space_group_name_H-M  'P6_3/mmc'
_cell_length_a       5.78742
_cell_length_b       5.78742
_cell_length_c       6.70896
_cell_angle_alpha    90
_cell_angle_beta     90
_cell_angle_gamma    120

_symmetry_Int_Tables_number  194
_chemical_formula_structural  K2CO3
_chemical_formula_sum  K4C2O6
_cell_volume  194.60581578136544
_cell_formula_units_Z  2
loop_
  _symmetry_equiv_pos_site_id
 _symmetry_equiv_pos_as_xyz
 1  'x, y, z'
loop_
 _atom_site_type_symbol
 _atom_site_label
 _atom_site_symmetry_multiplicity
 _atom_site_fract_x
 _atom_site_fract_y
 _atom_site_fract_z
 _atom_site_fract_occupancy
 C  C1  1  0.66667  0.33333  0.25000  1
 C  C2  1  0.33333  0.66667  0.75000  1
 K  K1  1  0.33333  0.66667  0.25000  1
 K  K2  1  0.66667  0.33333  0.75000  1
 K  K3  1  0.00000  0.00000  0.50000  1
 K  K4  1  0.00000  0.00000  0.00000  1
 O  O1  1  0.79637  0.20363  0.25000  1
 O  O2  1  0.20363  0.79637  0.75000  1
 O  O3  1  0.20363  0.40725  0.75000  1
 O  O4  1  0.40725  0.20363  0.25000  1
 O  O5  1  0.79637  0.59275  0.25000  1
 O  O6  1  0.59275  0.79637  0.75000  1
