CIF file written using JARVIS-Tools package.
data_Al2OsPd
_symmetry_space_group_name_H-M  'C2/m'
_cell_length_a       10.548
_cell_length_b       7.29926
_cell_length_c       7.29711
_cell_angle_alpha    22.5898
_cell_angle_beta     19.35
_cell_angle_gamma    19.3482

_symmetry_Int_Tables_number  12
_chemical_formula_structural  Al2OsPd
_chemical_formula_sum  Al2OsPd
_cell_volume  58.81196713238339
_cell_formula_units_Z  1
loop_
  _symmetry_equiv_pos_site_id
 _symmetry_equiv_pos_as_xyz
 1  'x, y, z'
loop_
 _atom_site_type_symbol
 _atom_site_label
 _atom_site_symmetry_multiplicity
 _atom_site_fract_x
 _atom_site_fract_y
 _atom_site_fract_z
 _atom_site_fract_occupancy
 Al  Al1  1  0.76700  -0.01412  -0.01408  1
 Al  Al2  1  0.23300  0.01412  0.01408  1
 Os  Os1  1  0.50000  0.00000  -0.00000  1
 Pd  Pd1  1  0.00000  0.00000  0.00000  1
