CIF file written using JARVIS-Tools package.
data_BeO
_symmetry_space_group_name_H-M  'P4_2/mnm'
_cell_length_a       4.64191
_cell_length_b       4.64191
_cell_length_c       2.70582
_cell_angle_alpha    90
_cell_angle_beta     90
_cell_angle_gamma    90

_symmetry_Int_Tables_number  136
_chemical_formula_structural  BeO
_chemical_formula_sum  Be4O4
_cell_volume  58.303296384909004
_cell_formula_units_Z  4
loop_
  _symmetry_equiv_pos_site_id
 _symmetry_equiv_pos_as_xyz
 1  'x, y, z'
loop_
 _atom_site_type_symbol
 _atom_site_label
 _atom_site_symmetry_multiplicity
 _atom_site_fract_x
 _atom_site_fract_y
 _atom_site_fract_z
 _atom_site_fract_occupancy
 Be  Be1  1  0.67341  0.32659  0.00000  1
 Be  Be2  1  0.82659  0.82659  0.50000  1
 Be  Be3  1  0.17341  0.17341  0.50000  1
 Be  Be4  1  0.32659  0.67341  0.00000  1
 O  O1  1  0.31137  0.31137  0.00000  1
 O  O2  1  0.81137  0.18863  0.50000  1
 O  O3  1  0.18863  0.81137  0.50000  1
 O  O4  1  0.68863  0.68863  0.00000  1
