CIF file written using JARVIS-Tools package.
data_CaVF5
_symmetry_space_group_name_H-M  'C2/c'
_cell_length_a       5.59175
_cell_length_b       5.5927
_cell_length_c       7.6468
_cell_angle_alpha    69.9896
_cell_angle_beta     69.9853
_cell_angle_gamma    71.5512

_symmetry_Int_Tables_number  15
_chemical_formula_structural  CaVF5
_chemical_formula_sum  Ca2V2F0
_cell_volume  205.67915027214633
_cell_formula_units_Z  2
loop_
  _symmetry_equiv_pos_site_id
 _symmetry_equiv_pos_as_xyz
 1  'x, y, z'
loop_
 _atom_site_type_symbol
 _atom_site_label
 _atom_site_symmetry_multiplicity
 _atom_site_fract_x
 _atom_site_fract_y
 _atom_site_fract_z
 _atom_site_fract_occupancy
 Ca  Ca1  1  0.45572  0.54659  0.24937  1
 Ca  Ca2  1  0.54656  0.45575  0.74945  1
 F  F1  1  0.91701  0.08594  0.74924  1
 F  F2  1  0.08525  0.91637  0.24958  1
 F  F3  1  0.79509  0.74730  0.61933  1
 F  F4  1  0.25599  0.20611  0.87992  1
 F  F5  1  0.28287  0.68955  0.96968  1
 F  F6  1  0.31216  0.71863  0.52945  1
 F  F7  1  0.71939  0.31287  0.02911  1
 F  F8  1  0.69012  0.28365  0.46938  1
 F  F9  1  0.74620  0.79635  0.11893  1
 F  F10  1  0.20723  0.25498  0.37945  1
 V  V1  1  0.00112  0.00119  0.99941  1
 V  V2  1  0.00114  0.00116  0.49941  1
