CIF file written using JARVIS-Tools package.
data_SiO2
_symmetry_space_group_name_H-M  'P1'
_cell_length_a       5.18006
_cell_length_b       5.53214
_cell_length_c       6.45991
_cell_angle_alpha    108.746
_cell_angle_beta     91.3251
_cell_angle_gamma    97.1622

_symmetry_Int_Tables_number  1
_chemical_formula_structural  SiO2
_chemical_formula_sum  Si4O8
_cell_volume  173.5380319453957
_cell_formula_units_Z  4
loop_
  _symmetry_equiv_pos_site_id
 _symmetry_equiv_pos_as_xyz
 1  'x, y, z'
loop_
 _atom_site_type_symbol
 _atom_site_label
 _atom_site_symmetry_multiplicity
 _atom_site_fract_x
 _atom_site_fract_y
 _atom_site_fract_z
 _atom_site_fract_occupancy
 O  O1  1  0.95285  0.18276  0.53047  1
 O  O2  1  0.83016  0.06320  0.87992  1
 O  O3  1  0.75882  0.70434  0.49298  1
 O  O4  1  0.57182  0.87240  0.20806  1
 O  O5  1  0.07534  0.84532  0.18860  1
 O  O6  1  0.22170  0.42061  0.94955  1
 O  O7  1  0.37785  0.79183  0.81178  1
 O  O8  1  0.77155  0.53890  0.83164  1
 Si  Si1  1  0.68489  0.76979  0.74856  1
 Si  Si2  1  0.94702  0.30189  0.79779  1
 Si  Si3  1  0.84245  0.90059  0.35175  1
 Si  Si4  1  0.31292  0.73586  0.04528  1
