CIF file written using JARVIS-Tools package.
data_CaInRh2
_symmetry_space_group_name_H-M  'Immm'
_cell_length_a       10.5611
_cell_length_b       6.05536
_cell_length_c       6.05535
_cell_angle_alpha    28.7086
_cell_angle_beta     29.3031
_cell_angle_gamma    29.3032

_symmetry_Int_Tables_number  71
_chemical_formula_structural  CaInRh2
_chemical_formula_sum  CaInRh2
_cell_volume  81.0270580793333
_cell_formula_units_Z  1
loop_
  _symmetry_equiv_pos_site_id
 _symmetry_equiv_pos_as_xyz
 1  'x, y, z'
loop_
 _atom_site_type_symbol
 _atom_site_label
 _atom_site_symmetry_multiplicity
 _atom_site_fract_x
 _atom_site_fract_y
 _atom_site_fract_z
 _atom_site_fract_occupancy
 Ca  Ca1  1  0.00000  0.00000  0.00000  1
 In  In1  1  0.50000  -0.00000  -0.00000  1
 Rh  Rh1  1  0.74084  1.00000  0.00000  1
 Rh  Rh2  1  0.25916  0.00000  1.00000  1
