CIF file written using JARVIS-Tools package.
data_RbCO2
_symmetry_space_group_name_H-M  'Pbam'
_cell_length_a       3.57502
_cell_length_b       6.32408
_cell_length_c       11.3225
_cell_angle_alpha    90
_cell_angle_beta     90
_cell_angle_gamma    90

_symmetry_Int_Tables_number  55
_chemical_formula_structural  RbCO2
_chemical_formula_sum  Rb4C4O8
_cell_volume  255.98636568714602
_cell_formula_units_Z  4
loop_
  _symmetry_equiv_pos_site_id
 _symmetry_equiv_pos_as_xyz
 1  'x, y, z'
loop_
 _atom_site_type_symbol
 _atom_site_label
 _atom_site_symmetry_multiplicity
 _atom_site_fract_x
 _atom_site_fract_y
 _atom_site_fract_z
 _atom_site_fract_occupancy
 C  C1  1  0.00000  0.06759  0.44095  1
 C  C2  1  0.00000  0.56759  0.05905  1
 C  C3  1  0.00000  0.93241  0.55905  1
 C  C4  1  0.00000  0.43241  0.94095  1
 O  O1  1  0.00000  0.46571  0.15558  1
 O  O2  1  0.00000  0.26685  0.45166  1
 O  O3  1  0.00000  0.23315  0.95166  1
 O  O4  1  0.00000  0.96571  0.34442  1
 O  O5  1  0.00000  0.03429  0.65558  1
 O  O6  1  0.00000  0.53429  0.84442  1
 O  O7  1  0.00000  0.73315  0.54834  1
 O  O8  1  0.00000  0.76685  0.04834  1
 Rb  Rb1  1  0.50000  0.09353  0.15182  1
 Rb  Rb2  1  0.50000  0.40647  0.65182  1
 Rb  Rb3  1  0.50000  0.90647  0.84818  1
 Rb  Rb4  1  0.50000  0.59353  0.34818  1
