CIF file written using JARVIS-Tools package.
data_Sr3Li4Ge2N6
_symmetry_space_group_name_H-M  'C2/m'
_cell_length_a       5.89563
_cell_length_b       5.89564
_cell_length_c       6.33108
_cell_angle_alpha    90.8183
_cell_angle_beta     90.8182
_cell_angle_gamma    117.096

_symmetry_Int_Tables_number  12
_chemical_formula_structural  Sr3Li4Ge2N6
_chemical_formula_sum  Sr3Li4Ge2N6
_cell_volume  195.832523923875
_cell_formula_units_Z  1
loop_
  _symmetry_equiv_pos_site_id
 _symmetry_equiv_pos_as_xyz
 1  'x, y, z'
loop_
 _atom_site_type_symbol
 _atom_site_label
 _atom_site_symmetry_multiplicity
 _atom_site_fract_x
 _atom_site_fract_y
 _atom_site_fract_z
 _atom_site_fract_occupancy
 Ge  Ge1  1  0.61095  0.61095  0.31863  1
 Ge  Ge2  1  0.38905  0.38905  0.68137  1
 Li  Li1  1  0.18262  0.54351  0.11816  1
 Li  Li2  1  0.81738  0.45649  0.88184  1
 Li  Li3  1  0.45649  0.81738  0.88184  1
 Li  Li4  1  0.54351  0.18262  0.11816  1
 N  N1  1  0.45399  0.13986  0.80336  1
 N  N2  1  0.54601  0.86014  0.19664  1
 N  N3  1  0.29702  0.29702  0.36757  1
 N  N4  1  0.70298  0.70298  0.63243  1
 N  N5  1  0.13986  0.45399  0.80336  1
 N  N6  1  0.86014  0.54601  0.19664  1
 Sr  Sr1  1  0.81106  0.18894  0.50000  1
 Sr  Sr2  1  0.18894  0.81106  0.50000  1
 Sr  Sr3  1  0.00000  0.00000  0.00000  1
