CIF file written using JARVIS-Tools package.
data_LiY2Ag
_symmetry_space_group_name_H-M  'Immm'
_cell_length_a       16.8521
_cell_length_b       8.10438
_cell_length_c       9.46865
_cell_angle_alpha    20.9318
_cell_angle_beta     15.1998
_cell_angle_gamma    17.8374

_symmetry_Int_Tables_number  71
_chemical_formula_structural  LiY2Ag
_chemical_formula_sum  LiY2Ag
_cell_volume  101.9371661805728
_cell_formula_units_Z  1
loop_
  _symmetry_equiv_pos_site_id
 _symmetry_equiv_pos_as_xyz
 1  'x, y, z'
loop_
 _atom_site_type_symbol
 _atom_site_label
 _atom_site_symmetry_multiplicity
 _atom_site_fract_x
 _atom_site_fract_y
 _atom_site_fract_z
 _atom_site_fract_occupancy
 Ag  Ag1  1  0.49992  0.00020  0.99995  1
 Li  Li1  1  0.99994  0.00031  0.99981  1
 Y  Y1  1  0.67210  0.84387  0.15599  1
 Y  Y2  1  0.32803  0.15562  0.84425  1
