CIF file written using JARVIS-Tools package.
data_Ba2S3
_symmetry_space_group_name_H-M  'I4_1md'
_cell_length_a       6.00121
_cell_length_b       6.00121
_cell_length_c       9.1363
_cell_angle_alpha    109.173
_cell_angle_beta     109.173
_cell_angle_gamma    90

_symmetry_Int_Tables_number  109
_chemical_formula_structural  Ba2S3
_chemical_formula_sum  Ba4S6
_cell_volume  291.39444908187767
_cell_formula_units_Z  2
loop_
  _symmetry_equiv_pos_site_id
 _symmetry_equiv_pos_as_xyz
 1  'x, y, z'
loop_
 _atom_site_type_symbol
 _atom_site_label
 _atom_site_symmetry_multiplicity
 _atom_site_fract_x
 _atom_site_fract_y
 _atom_site_fract_z
 _atom_site_fract_occupancy
 Ba  Ba1  1  0.95336  0.45336  0.90672  1
 Ba  Ba2  1  0.20336  0.20336  0.40672  1
 Ba  Ba3  1  0.55229  0.05229  0.10458  1
 Ba  Ba4  1  0.80229  0.80229  0.60458  1
 S  S1  1  0.96296  0.64059  0.28117  1
 S  S2  1  0.39059  0.21296  0.78117  1
 S  S3  1  0.39059  0.56821  0.78117  1
 S  S4  1  0.31821  0.64059  0.28117  1
 S  S5  1  0.00038  0.00038  0.00076  1
 S  S6  1  0.75038  0.25038  0.50076  1
