CIF file written using JARVIS-Tools package.
data_Ca2Co2O5
_symmetry_space_group_name_H-M  'Pbam'
_cell_length_a       5.31693
_cell_length_b       3.71715
_cell_length_c       10.1554
_cell_angle_alpha    90
_cell_angle_beta     90
_cell_angle_gamma    90

_symmetry_Int_Tables_number  55
_chemical_formula_structural  Ca2Co2O5
_chemical_formula_sum  Ca4Co4O0
_cell_volume  200.7103372493553
_cell_formula_units_Z  2
loop_
  _symmetry_equiv_pos_site_id
 _symmetry_equiv_pos_as_xyz
 1  'x, y, z'
loop_
 _atom_site_type_symbol
 _atom_site_label
 _atom_site_symmetry_multiplicity
 _atom_site_fract_x
 _atom_site_fract_y
 _atom_site_fract_z
 _atom_site_fract_occupancy
 Ca  Ca1  1  0.80648  0.50000  0.86810  1
 Ca  Ca2  1  0.19352  0.50000  0.13190  1
 Ca  Ca3  1  0.30648  0.50000  0.63190  1
 Ca  Ca4  1  0.69352  0.50000  0.36809  1
 Co  Co1  1  0.77751  0.00000  0.62124  1
 Co  Co2  1  0.22249  0.00000  0.37876  1
 Co  Co3  1  0.72249  0.00000  0.12124  1
 Co  Co4  1  0.27751  0.00000  0.87876  1
 O  O1  1  0.00000  0.00000  -0.00000  1
 O  O2  1  0.92043  0.00000  0.28700  1
 O  O3  1  0.42042  0.00000  0.21300  1
 O  O4  1  0.50000  0.00000  0.50000  1
 O  O5  1  0.79407  0.50000  0.60435  1
 O  O6  1  0.29407  0.50000  0.89565  1
 O  O7  1  0.07958  0.00000  0.71300  1
 O  O8  1  0.57957  0.00000  0.78700  1
 O  O9  1  0.70594  0.50000  0.10435  1
 O  O10  1  0.20593  0.50000  0.39565  1
