CIF file written using JARVIS-Tools package.
data_SrCaMg2
_symmetry_space_group_name_H-M  'Immm'
_cell_length_a       13.6009
_cell_length_b       7.69458
_cell_length_c       7.69459
_cell_angle_alpha    27.1769
_cell_angle_beta     27.8963
_cell_angle_gamma    27.8963

_symmetry_Int_Tables_number  71
_chemical_formula_structural  SrCaMg2
_chemical_formula_sum  SrCaMg2
_cell_volume  153.0975778351764
_cell_formula_units_Z  1
loop_
  _symmetry_equiv_pos_site_id
 _symmetry_equiv_pos_as_xyz
 1  'x, y, z'
loop_
 _atom_site_type_symbol
 _atom_site_label
 _atom_site_symmetry_multiplicity
 _atom_site_fract_x
 _atom_site_fract_y
 _atom_site_fract_z
 _atom_site_fract_occupancy
 Ca  Ca1  1  0.00000  0.00000  0.00000  1
 Mg  Mg1  1  0.75704  -0.00000  -0.00000  1
 Mg  Mg2  1  0.24296  0.00000  0.00000  1
 Sr  Sr1  1  0.50000  0.00000  -0.00000  1
