CIF file written using JARVIS-Tools package.
data_MgSbO3
_symmetry_space_group_name_H-M  'P2_1/c'
_cell_length_a       5.44888
_cell_length_b       5.56642
_cell_length_c       9.68377
_cell_angle_alpha    90
_cell_angle_beta     124.54
_cell_angle_gamma    90

_symmetry_Int_Tables_number  14
_chemical_formula_structural  MgSbO3
_chemical_formula_sum  Mg4Sb4O2
_cell_volume  241.94376547591008
_cell_formula_units_Z  4
loop_
  _symmetry_equiv_pos_site_id
 _symmetry_equiv_pos_as_xyz
 1  'x, y, z'
loop_
 _atom_site_type_symbol
 _atom_site_label
 _atom_site_symmetry_multiplicity
 _atom_site_fract_x
 _atom_site_fract_y
 _atom_site_fract_z
 _atom_site_fract_occupancy
 Mg  Mg1  1  0.20661  0.02640  0.22022  1
 Mg  Mg2  1  0.20661  0.47360  0.72022  1
 Mg  Mg3  1  0.79339  0.52640  0.27978  1
 Mg  Mg4  1  0.79339  0.97360  0.77978  1
 O  O1  1  0.85815  0.62496  0.72304  1
 O  O2  1  0.21174  0.65075  0.53680  1
 O  O3  1  0.14185  0.12496  0.77696  1
 O  O4  1  0.14185  0.37504  0.27696  1
 O  O5  1  0.85815  0.87504  0.22304  1
 O  O6  1  0.45844  0.20211  0.60842  1
 O  O7  1  0.21174  0.84925  0.03680  1
 O  O8  1  0.45844  0.29789  0.10842  1
 O  O9  1  0.78826  0.34925  0.46320  1
 O  O10  1  0.78826  0.15075  0.96320  1
 O  O11  1  0.54156  0.70211  0.89158  1
 O  O12  1  0.54156  0.79789  0.39158  1
 Sb  Sb1  1  0.00000  0.00000  0.50000  1
 Sb  Sb2  1  0.50000  0.50000  0.50000  1
 Sb  Sb3  1  0.00000  0.50000  0.00000  1
 Sb  Sb4  1  0.50000  0.00000  0.00000  1
