CIF file written using JARVIS-Tools package.
data_Rb2NaHg
_symmetry_space_group_name_H-M  'I4/mmm'
_cell_length_a       15.8462
_cell_length_b       11.1987
_cell_length_c       11.1987
_cell_angle_alpha    33.5533
_cell_angle_beta     19.4765
_cell_angle_gamma    19.4765

_symmetry_Int_Tables_number  139
_chemical_formula_structural  Rb2NaHg
_chemical_formula_sum  Rb2NaHg
_cell_volume  191.47003369560647
_cell_formula_units_Z  1
loop_
  _symmetry_equiv_pos_site_id
 _symmetry_equiv_pos_as_xyz
 1  'x, y, z'
loop_
 _atom_site_type_symbol
 _atom_site_label
 _atom_site_symmetry_multiplicity
 _atom_site_fract_x
 _atom_site_fract_y
 _atom_site_fract_z
 _atom_site_fract_occupancy
 Hg  Hg1  1  0.50000  0.00000  -0.00000  1
 Na  Na1  1  0.00000  0.00000  0.00000  1
 Rb  Rb1  1  0.74966  0.00026  0.00026  1
 Rb  Rb2  1  0.25034  -0.00026  -0.00026  1
