CIF file written using JARVIS-Tools package.
data_MgZn2Rh
_symmetry_space_group_name_H-M  'Immm'
_cell_length_a       11.6452
_cell_length_b       6.37326
_cell_length_c       6.37326
_cell_angle_alpha    25.8941
_cell_angle_beta     23.9928
_cell_angle_gamma    23.9927

_symmetry_Int_Tables_number  71
_chemical_formula_structural  MgZn2Rh
_chemical_formula_sum  MgZn2Rh
_cell_volume  71.9220454062952
_cell_formula_units_Z  1
loop_
  _symmetry_equiv_pos_site_id
 _symmetry_equiv_pos_as_xyz
 1  'x, y, z'
loop_
 _atom_site_type_symbol
 _atom_site_label
 _atom_site_symmetry_multiplicity
 _atom_site_fract_x
 _atom_site_fract_y
 _atom_site_fract_z
 _atom_site_fract_occupancy
 Mg  Mg1  1  0.00000  0.00000  0.00000  1
 Rh  Rh1  1  0.50000  -0.00000  -0.00000  1
 Zn  Zn1  1  0.71225  -0.00000  0.00000  1
 Zn  Zn2  1  0.28775  0.00000  -0.00000  1
