CIF file written using JARVIS-Tools package.
data_Li2GaAg
_symmetry_space_group_name_H-M  'Immm'
_cell_length_a       11.0163
_cell_length_b       6.93993
_cell_length_c       6.93937
_cell_angle_alpha    36.7269
_cell_angle_beta     21.5429
_cell_angle_gamma    21.5387

_symmetry_Int_Tables_number  71
_chemical_formula_structural  Li2GaAg
_chemical_formula_sum  Li2GaAg
_cell_volume  63.032873500069286
_cell_formula_units_Z  1
loop_
  _symmetry_equiv_pos_site_id
 _symmetry_equiv_pos_as_xyz
 1  'x, y, z'
loop_
 _atom_site_type_symbol
 _atom_site_label
 _atom_site_symmetry_multiplicity
 _atom_site_fract_x
 _atom_site_fract_y
 _atom_site_fract_z
 _atom_site_fract_occupancy
 Ag  Ag1  1  0.50000  0.00000  0.00000  1
 Ga  Ga1  1  0.00000  -0.00000  -0.00000  1
 Li  Li1  1  0.74568  0.00286  0.00290  1
 Li  Li2  1  0.25432  -0.00286  -0.00290  1
