CIF file written using JARVIS-Tools package.
data_CaH2O2
_symmetry_space_group_name_H-M  'P3m1'
_cell_length_a       3.84581
_cell_length_b       3.84581
_cell_length_c       4.48148
_cell_angle_alpha    90
_cell_angle_beta     90
_cell_angle_gamma    120

_symmetry_Int_Tables_number  156
_chemical_formula_structural  CaH2O2
_chemical_formula_sum  CaH2O2
_cell_volume  57.402141714203054
_cell_formula_units_Z  1
loop_
  _symmetry_equiv_pos_site_id
 _symmetry_equiv_pos_as_xyz
 1  'x, y, z'
loop_
 _atom_site_type_symbol
 _atom_site_label
 _atom_site_symmetry_multiplicity
 _atom_site_fract_x
 _atom_site_fract_y
 _atom_site_fract_z
 _atom_site_fract_occupancy
 Ca  Ca1  1  0.00000  0.00000  0.03115  1
 H  H1  1  0.33333  0.66667  0.99092  1
 H  H2  1  0.66667  0.33333  0.57200  1
 O  O1  1  0.33333  0.66667  0.21116  1
 O  O2  1  0.66667  0.33333  0.78991  1
