CIF file written using JARVIS-Tools package.
data_Mn2SiW
_symmetry_space_group_name_H-M  'Immm'
_cell_length_a       9.69374
_cell_length_b       5.44937
_cell_length_c       5.44936
_cell_angle_alpha    45.2111
_cell_angle_beta     27.1974
_cell_angle_gamma    27.1974

_symmetry_Int_Tables_number  71
_chemical_formula_structural  Mn2SiW
_chemical_formula_sum  Mn2SiW
_cell_volume  54.723758467928334
_cell_formula_units_Z  1
loop_
  _symmetry_equiv_pos_site_id
 _symmetry_equiv_pos_as_xyz
 1  'x, y, z'
loop_
 _atom_site_type_symbol
 _atom_site_label
 _atom_site_symmetry_multiplicity
 _atom_site_fract_x
 _atom_site_fract_y
 _atom_site_fract_z
 _atom_site_fract_occupancy
 Mn  Mn1  1  0.77594  -0.00000  -0.00000  1
 Mn  Mn2  1  0.22406  0.00000  0.00000  1
 Si  Si1  1  0.00000  0.00000  0.00000  1
 W  W1  1  0.50000  0.00000  -0.00000  1
