CIF file written using JARVIS-Tools package.
data_YNbO4
_symmetry_space_group_name_H-M  'C2/c'
_cell_length_a       5.13682
_cell_length_b       5.33629
_cell_length_c       6.57198
_cell_angle_alpha    112.108
_cell_angle_beta     111.102
_cell_angle_gamma    94.3484

_symmetry_Int_Tables_number  15
_chemical_formula_structural  YNbO4
_chemical_formula_sum  Y2Nb2O8
_cell_volume  150.98514942600323
_cell_formula_units_Z  2
loop_
  _symmetry_equiv_pos_site_id
 _symmetry_equiv_pos_as_xyz
 1  'x, y, z'
loop_
 _atom_site_type_symbol
 _atom_site_label
 _atom_site_symmetry_multiplicity
 _atom_site_fract_x
 _atom_site_fract_y
 _atom_site_fract_z
 _atom_site_fract_occupancy
 Nb  Nb1  1  0.85706  0.60706  0.71412  1
 Nb  Nb2  1  0.14294  0.39294  0.28588  1
 O  O1  1  0.42762  0.22000  0.43682  1
 O  O2  1  0.00919  0.71681  0.43682  1
 O  O3  1  0.57238  0.78000  0.56318  1
 O  O4  1  0.99081  0.28319  0.56318  1
 O  O5  1  0.78809  0.12728  0.07667  1
 O  O6  1  0.28858  0.44939  0.07667  1
 O  O7  1  0.21191  0.87272  0.92333  1
 O  O8  1  0.71142  0.55061  0.92333  1
 Y  Y1  1  0.37865  0.12865  0.75729  1
 Y  Y2  1  0.62135  0.87135  0.24271  1
