CIF file written using JARVIS-Tools package.
data_Cd3TeO6
_symmetry_space_group_name_H-M  'P2_1/c'
_cell_length_a       5.57469
_cell_length_b       5.70814
_cell_length_c       9.86715
_cell_angle_alpha    90
_cell_angle_beta     124.256
_cell_angle_gamma    90

_symmetry_Int_Tables_number  14
_chemical_formula_structural  Cd3TeO6
_chemical_formula_sum  Cd6Te2O2
_cell_volume  259.51661374885936
_cell_formula_units_Z  2
loop_
  _symmetry_equiv_pos_site_id
 _symmetry_equiv_pos_as_xyz
 1  'x, y, z'
loop_
 _atom_site_type_symbol
 _atom_site_label
 _atom_site_symmetry_multiplicity
 _atom_site_fract_x
 _atom_site_fract_y
 _atom_site_fract_z
 _atom_site_fract_occupancy
 Cd  Cd1  1  0.75157  0.45563  0.74130  1
 Cd  Cd2  1  0.24843  0.95563  0.75870  1
 Cd  Cd3  1  0.24843  0.54437  0.25870  1
 Cd  Cd4  1  0.75157  0.04437  0.24130  1
 Cd  Cd5  1  0.50000  0.50000  0.00000  1
 Cd  Cd6  1  0.50000  0.00000  0.50000  1
 O  O1  1  0.08412  0.78074  0.41839  1
 O  O2  1  0.65840  0.07567  0.77749  1
 O  O3  1  0.91588  0.21926  0.58161  1
 O  O4  1  0.08412  0.71926  0.91839  1
 O  O5  1  0.91588  0.28074  0.08161  1
 O  O6  1  0.24135  0.17552  0.95012  1
 O  O7  1  0.34160  0.92433  0.22251  1
 O  O8  1  0.75865  0.82448  0.04988  1
 O  O9  1  0.75865  0.67552  0.54988  1
 O  O10  1  0.65840  0.42433  0.27749  1
 O  O11  1  0.24135  0.32448  0.45012  1
 O  O12  1  0.34160  0.57567  0.72251  1
 Te  Te1  1  0.00000  0.00000  0.00000  1
 Te  Te2  1  0.00000  0.50000  0.50000  1
