CIF file written using JARVIS-Tools package.
data_K4CO4
_symmetry_space_group_name_H-M  'Cm'
_cell_length_a       5.71121
_cell_length_b       5.71122
_cell_length_c       5.62232
_cell_angle_alpha    99.2131
_cell_angle_beta     99.2124
_cell_angle_gamma    112.35

_symmetry_Int_Tables_number  8
_chemical_formula_structural  K4CO4
_chemical_formula_sum  K4CO4
_cell_volume  162.44663453163494
_cell_formula_units_Z  1
loop_
  _symmetry_equiv_pos_site_id
 _symmetry_equiv_pos_as_xyz
 1  'x, y, z'
loop_
 _atom_site_type_symbol
 _atom_site_label
 _atom_site_symmetry_multiplicity
 _atom_site_fract_x
 _atom_site_fract_y
 _atom_site_fract_z
 _atom_site_fract_occupancy
 C  C1  1  0.98517  0.98517  0.53920  1
 K  K1  1  0.33837  0.33837  0.25569  1
 K  K2  1  0.78933  0.78933  0.03273  1
 K  K3  1  0.13818  0.60022  0.69841  1
 K  K4  1  0.60022  0.13818  0.69841  1
 O  O1  1  0.12944  0.12944  0.79144  1
 O  O2  1  0.75997  0.75997  0.54748  1
 O  O3  1  0.14855  0.90364  0.41287  1
 O  O4  1  0.90364  0.14855  0.41287  1
