CIF file written using JARVIS-Tools package.
data_LiRh3
_symmetry_space_group_name_H-M  'Imm2'
_cell_length_a       2.67767
_cell_length_b       4.68088
_cell_length_c       5.08951
_cell_angle_alpha    117.378
_cell_angle_beta     105.251
_cell_angle_gamma    90

_symmetry_Int_Tables_number  44
_chemical_formula_structural  LiRh3
_chemical_formula_sum  LiRh3
_cell_volume  54.103434523521805
_cell_formula_units_Z  1
loop_
  _symmetry_equiv_pos_site_id
 _symmetry_equiv_pos_as_xyz
 1  'x, y, z'
loop_
 _atom_site_type_symbol
 _atom_site_label
 _atom_site_symmetry_multiplicity
 _atom_site_fract_x
 _atom_site_fract_y
 _atom_site_fract_z
 _atom_site_fract_occupancy
 Li  Li1  1  0.00000  0.01189  0.00000  1
 Rh  Rh1  1  0.50000  0.50190  0.00000  1
 Rh  Rh2  1  0.75531  0.44991  0.51062  1
 Rh  Rh3  1  0.24469  0.93930  0.48938  1
