CIF file written using JARVIS-Tools package.
data_LiZnPO4
_symmetry_space_group_name_H-M  'Pna2_1'
_cell_length_a       4.98931
_cell_length_b       6.6548
_cell_length_c       10.0703
_cell_angle_alpha    90
_cell_angle_beta     90
_cell_angle_gamma    90

_symmetry_Int_Tables_number  33
_chemical_formula_structural  LiZnPO4
_chemical_formula_sum  Li4Zn4P4O6
_cell_volume  334.364709022929
_cell_formula_units_Z  4
loop_
  _symmetry_equiv_pos_site_id
 _symmetry_equiv_pos_as_xyz
 1  'x, y, z'
loop_
 _atom_site_type_symbol
 _atom_site_label
 _atom_site_symmetry_multiplicity
 _atom_site_fract_x
 _atom_site_fract_y
 _atom_site_fract_z
 _atom_site_fract_occupancy
 Li  Li1  1  0.18003  0.71283  0.65483  1
 Li  Li2  1  0.68003  0.21283  0.84517  1
 Li  Li3  1  0.81997  0.21283  0.34517  1
 Li  Li4  1  0.31997  0.71283  0.15483  1
 O  O1  1  0.20856  0.77057  0.34039  1
 O  O2  1  0.24444  0.96264  0.55680  1
 O  O3  1  0.70856  0.27057  0.15961  1
 O  O4  1  0.79705  0.65428  0.65853  1
 O  O5  1  0.75556  0.46264  0.44320  1
 O  O6  1  0.12982  0.46408  0.11216  1
 O  O7  1  0.29705  0.15428  0.84147  1
 O  O8  1  0.79144  0.27057  0.65961  1
 O  O9  1  0.37018  0.46408  0.61216  1
 O  O10  1  0.87018  0.96408  0.88784  1
 O  O11  1  0.25556  0.96264  0.05680  1
 O  O12  1  0.74444  0.46264  0.94320  1
 O  O13  1  0.20295  0.15428  0.34147  1
 O  O14  1  0.62982  0.96408  0.38784  1
 O  O15  1  0.70295  0.65428  0.15853  1
 O  O16  1  0.29144  0.77057  0.84039  1
 P  P1  1  0.82105  0.46313  0.09221  1
 P  P2  1  0.32105  0.96313  0.40779  1
 P  P3  1  0.17895  0.96313  0.90779  1
 P  P4  1  0.67895  0.46313  0.59221  1
 Zn  Zn1  1  0.32005  0.21347  0.15597  1
 Zn  Zn2  1  0.67995  0.71347  0.84403  1
 Zn  Zn3  1  0.17995  0.21347  0.65597  1
 Zn  Zn4  1  0.82005  0.71347  0.34403  1
