CIF file written using JARVIS-Tools package.
data_YScZn2
_symmetry_space_group_name_H-M  'Immm'
_cell_length_a       11.7783
_cell_length_b       6.65843
_cell_length_c       6.65843
_cell_angle_alpha    27.0843
_cell_angle_beta     27.8138
_cell_angle_gamma    27.8138

_symmetry_Int_Tables_number  71
_chemical_formula_structural  YScZn2
_chemical_formula_sum  YScZn2
_cell_volume  98.69893183541764
_cell_formula_units_Z  1
loop_
  _symmetry_equiv_pos_site_id
 _symmetry_equiv_pos_as_xyz
 1  'x, y, z'
loop_
 _atom_site_type_symbol
 _atom_site_label
 _atom_site_symmetry_multiplicity
 _atom_site_fract_x
 _atom_site_fract_y
 _atom_site_fract_z
 _atom_site_fract_occupancy
 Sc  Sc1  1  0.00000  0.00000  0.00000  1
 Y  Y1  1  0.50000  0.00000  -0.00000  1
 Zn  Zn1  1  0.76017  -0.00000  0.00000  1
 Zn  Zn2  1  0.23983  0.00000  -0.00000  1
