CIF file written using JARVIS-Tools package.
data_LaGa
_symmetry_space_group_name_H-M  'Cmcm'
_cell_length_a       4.23079
_cell_length_b       4.54285
_cell_length_c       6.18396
_cell_angle_alpha    111.55
_cell_angle_beta     90
_cell_angle_gamma    90

_symmetry_Int_Tables_number  63
_chemical_formula_structural  LaGa
_chemical_formula_sum  La2Ga2
_cell_volume  110.54650649997524
_cell_formula_units_Z  2
loop_
  _symmetry_equiv_pos_site_id
 _symmetry_equiv_pos_as_xyz
 1  'x, y, z'
loop_
 _atom_site_type_symbol
 _atom_site_label
 _atom_site_symmetry_multiplicity
 _atom_site_fract_x
 _atom_site_fract_y
 _atom_site_fract_z
 _atom_site_fract_occupancy
 Ga  Ga1  1  0.75000  0.43112  0.86224  1
 Ga  Ga2  1  0.25000  0.56888  0.13776  1
 La  La1  1  0.75000  0.14161  0.28322  1
 La  La2  1  0.25000  0.85839  0.71678  1
