CIF file written using JARVIS-Tools package.
data_Li2ZnPd
_symmetry_space_group_name_H-M  'Immm'
_cell_length_a       9.80142
_cell_length_b       5.56118
_cell_length_c       5.56117
_cell_angle_alpha    29.2903
_cell_angle_beta     28.2081
_cell_angle_gamma    28.2081

_symmetry_Int_Tables_number  71
_chemical_formula_structural  Li2ZnPd
_chemical_formula_sum  Li2ZnPd
_cell_volume  61.2153869265414
_cell_formula_units_Z  1
loop_
  _symmetry_equiv_pos_site_id
 _symmetry_equiv_pos_as_xyz
 1  'x, y, z'
loop_
 _atom_site_type_symbol
 _atom_site_label
 _atom_site_symmetry_multiplicity
 _atom_site_fract_x
 _atom_site_fract_y
 _atom_site_fract_z
 _atom_site_fract_occupancy
 Li  Li1  1  0.74470  0.00000  -0.00000  1
 Li  Li2  1  0.25530  -0.00000  0.00000  1
 Pd  Pd1  1  0.50000  -0.00000  -0.00000  1
 Zn  Zn1  1  0.00000  0.00000  0.00000  1
