CIF file written using JARVIS-Tools package.
data_MgSb2O4
_symmetry_space_group_name_H-M  'C2/m'
_cell_length_a       3.27803
_cell_length_b       6.67007
_cell_length_c       10.222
_cell_angle_alpha    104.157
_cell_angle_beta     99.2232
_cell_angle_gamma    104.225

_symmetry_Int_Tables_number  12
_chemical_formula_structural  MgSb2O4
_chemical_formula_sum  Mg2Sb4O8
_cell_volume  204.21178314222075
_cell_formula_units_Z  2
loop_
  _symmetry_equiv_pos_site_id
 _symmetry_equiv_pos_as_xyz
 1  'x, y, z'
loop_
 _atom_site_type_symbol
 _atom_site_label
 _atom_site_symmetry_multiplicity
 _atom_site_fract_x
 _atom_site_fract_y
 _atom_site_fract_z
 _atom_site_fract_occupancy
 Mg  Mg1  1  0.51792  0.26642  0.76097  1
 Mg  Mg2  1  0.51748  0.76665  0.26091  1
 O  O1  1  0.34219  0.43822  0.23871  1
 O  O2  1  0.34245  0.93794  0.73859  1
 O  O3  1  0.69294  0.09513  0.28330  1
 O  O4  1  0.69320  0.59485  0.78318  1
 O  O5  1  0.89120  0.65952  0.11531  1
 O  O6  1  0.89154  0.15940  0.61531  1
 O  O7  1  0.14419  0.37354  0.90658  1
 O  O8  1  0.14386  0.87366  0.40657  1
 Sb  Sb1  1  0.31101  0.69460  0.91896  1
 Sb  Sb2  1  0.31052  0.19477  0.41911  1
 Sb  Sb3  1  0.72487  0.83830  0.60278  1
 Sb  Sb4  1  0.72438  0.33846  0.10293  1
