CIF file written using JARVIS-Tools package.
data_TbGaO3
_symmetry_space_group_name_H-M  'Pnma'
_cell_length_a       5.30584
_cell_length_b       5.60059
_cell_length_c       7.62004
_cell_angle_alpha    90
_cell_angle_beta     90
_cell_angle_gamma    90

_symmetry_Int_Tables_number  62
_chemical_formula_structural  TbGaO3
_chemical_formula_sum  Tb4Ga4O2
_cell_volume  226.43590742711532
_cell_formula_units_Z  4
loop_
  _symmetry_equiv_pos_site_id
 _symmetry_equiv_pos_as_xyz
 1  'x, y, z'
loop_
 _atom_site_type_symbol
 _atom_site_label
 _atom_site_symmetry_multiplicity
 _atom_site_fract_x
 _atom_site_fract_y
 _atom_site_fract_z
 _atom_site_fract_occupancy
 Ga  Ga1  1  -0.00000  0.50000  0.24093  1
 Ga  Ga2  1  0.50000  -0.00000  0.24093  1
 Ga  Ga3  1  0.50000  0.00000  0.74093  1
 Ga  Ga4  1  0.00000  0.50000  0.74093  1
 O  O1  1  0.69477  0.69667  0.29550  1
 O  O2  1  0.10668  0.53461  0.49093  1
 O  O3  1  0.80523  0.19667  0.68635  1
 O  O4  1  0.19477  0.80333  0.79550  1
 O  O5  1  0.30523  0.30333  0.79550  1
 O  O6  1  0.19477  0.80333  0.18635  1
 O  O7  1  0.39332  0.03461  0.49093  1
 O  O8  1  0.89332  0.46539  0.99093  1
 O  O9  1  0.69477  0.69667  0.68635  1
 O  O10  1  0.30523  0.30333  0.18635  1
 O  O11  1  0.80523  0.19667  0.29550  1
 O  O12  1  0.60668  0.96539  0.99093  1
 Tb  Tb1  1  0.98152  0.93210  0.49093  1
 Tb  Tb2  1  0.51848  0.43210  0.49093  1
 Tb  Tb3  1  0.48152  0.56790  0.99093  1
 Tb  Tb4  1  0.01848  0.06790  0.99093  1
