CIF file written using JARVIS-Tools package.
data_Al2Cu3Se6
_symmetry_space_group_name_H-M  'I-42d'
_cell_length_a       5.45998
_cell_length_b       5.45998
_cell_length_c       20.2753
_cell_angle_alpha    113.825
_cell_angle_beta     113.825
_cell_angle_gamma    90.0001

_symmetry_Int_Tables_number  122
_chemical_formula_structural  Al2Cu3Se6
_chemical_formula_sum  Al4Cu6Se2
_cell_volume  496.10400716220335
_cell_formula_units_Z  2
loop_
  _symmetry_equiv_pos_site_id
 _symmetry_equiv_pos_as_xyz
 1  'x, y, z'
loop_
 _atom_site_type_symbol
 _atom_site_label
 _atom_site_symmetry_multiplicity
 _atom_site_fract_x
 _atom_site_fract_y
 _atom_site_fract_z
 _atom_site_fract_occupancy
 Al  Al1  1  0.76091  0.26091  0.50727  1
 Al  Al2  1  0.73909  0.23909  0.82606  1
 Al  Al3  1  0.51091  0.51091  0.00727  1
 Al  Al4  1  0.48909  0.48909  0.32606  1
 Cu  Cu1  1  0.25000  0.75000  0.16667  1
 Cu  Cu2  1  0.25626  0.75626  0.50418  1
 Cu  Cu3  1  0.24374  0.74374  0.82916  1
 Cu  Cu4  1  0.00626  0.00626  0.00418  1
 Cu  Cu5  1  0.99374  0.99374  0.32916  1
 Cu  Cu6  1  -0.00000  0.00000  0.66667  1
 Se  Se1  1  0.87514  0.87500  0.41667  1
 Se  Se2  1  0.37486  0.37500  0.41667  1
 Se  Se3  1  0.37805  0.38382  0.74371  1
 Se  Se4  1  0.09730  0.60307  0.24371  1
 Se  Se5  1  0.39693  0.36618  0.08963  1
 Se  Se6  1  0.87195  0.90270  0.08963  1
 Se  Se7  1  0.63382  0.12805  0.24371  1
 Se  Se8  1  0.61618  0.14693  0.58963  1
 Se  Se9  1  0.62500  0.12486  0.91667  1
 Se  Se10  1  0.15270  0.62195  0.58963  1
 Se  Se11  1  0.12500  0.62514  0.91667  1
 Se  Se12  1  0.85307  0.84730  0.74371  1
