CIF file written using JARVIS-Tools package.
data_Mn2GeW
_symmetry_space_group_name_H-M  'Immm'
_cell_length_a       9.73496
_cell_length_b       5.50733
_cell_length_c       5.50735
_cell_angle_alpha    28.2335
_cell_angle_beta     27.8938
_cell_angle_gamma    27.8938

_symmetry_Int_Tables_number  71
_chemical_formula_structural  Mn2GeW
_chemical_formula_sum  Mn2GeW
_cell_volume  57.50113150877771
_cell_formula_units_Z  1
loop_
  _symmetry_equiv_pos_site_id
 _symmetry_equiv_pos_as_xyz
 1  'x, y, z'
loop_
 _atom_site_type_symbol
 _atom_site_label
 _atom_site_symmetry_multiplicity
 _atom_site_fract_x
 _atom_site_fract_y
 _atom_site_fract_z
 _atom_site_fract_occupancy
 Ge  Ge1  1  0.00000  0.00000  0.00000  1
 Mn  Mn1  1  0.74905  -0.00000  0.00000  1
 Mn  Mn2  1  0.25095  0.00000  -0.00000  1
 W  W1  1  0.50000  0.00000  -0.00000  1
