CIF file written using JARVIS-Tools package.
data_AlP
_symmetry_space_group_name_H-M  'P4/mbm'
_cell_length_a       7.76299
_cell_length_b       7.75981
_cell_length_c       4.62125
_cell_angle_alpha    90
_cell_angle_beta     90
_cell_angle_gamma    90.0008

_symmetry_Int_Tables_number  127
_chemical_formula_structural  AlP
_chemical_formula_sum  Al4P4
_cell_volume  278.38059811597117
_cell_formula_units_Z  4
loop_
  _symmetry_equiv_pos_site_id
 _symmetry_equiv_pos_as_xyz
 1  'x, y, z'
loop_
 _atom_site_type_symbol
 _atom_site_label
 _atom_site_symmetry_multiplicity
 _atom_site_fract_x
 _atom_site_fract_y
 _atom_site_fract_z
 _atom_site_fract_occupancy
 Al  Al1  1  0.35978  0.64092  0.50000  1
 Al  Al2  1  0.14221  0.14093  0.50000  1
 Al  Al3  1  0.85978  0.85908  0.50000  1
 Al  Al4  1  0.64221  0.35907  0.50000  1
 P  P1  1  0.15476  0.84582  0.50000  1
 P  P2  1  0.84725  0.15419  0.50000  1
 P  P3  1  0.65476  0.65418  0.50000  1
 P  P4  1  0.34725  0.34581  0.50000  1
