CIF file written using JARVIS-Tools package.
data_LiMgZn2
_symmetry_space_group_name_H-M  'Immm'
_cell_length_a       10.8579
_cell_length_b       6.08723
_cell_length_c       6.08723
_cell_angle_alpha    29.41
_cell_angle_beta     26.8921
_cell_angle_gamma    26.8922

_symmetry_Int_Tables_number  71
_chemical_formula_structural  LiMgZn2
_chemical_formula_sum  LiMgZn2
_cell_volume  76.46726051473874
_cell_formula_units_Z  1
loop_
  _symmetry_equiv_pos_site_id
 _symmetry_equiv_pos_as_xyz
 1  'x, y, z'
loop_
 _atom_site_type_symbol
 _atom_site_label
 _atom_site_symmetry_multiplicity
 _atom_site_fract_x
 _atom_site_fract_y
 _atom_site_fract_z
 _atom_site_fract_occupancy
 Li  Li1  1  0.00000  0.00000  0.00000  1
 Mg  Mg1  1  0.50000  -0.00000  -0.00000  1
 Zn  Zn1  1  0.76013  0.00000  -0.00000  1
 Zn  Zn2  1  0.23987  -0.00000  0.00000  1
