CIF file written using JARVIS-Tools package.
data_CrCuSe2
_symmetry_space_group_name_H-M  'R3m'
_cell_length_a       3.73358
_cell_length_b       3.73358
_cell_length_c       6.74137
_cell_angle_alpha    73.9237
_cell_angle_beta     73.9237
_cell_angle_gamma    59.9999

_symmetry_Int_Tables_number  160
_chemical_formula_structural  CrCuSe2
_chemical_formula_sum  CrCuSe2
_cell_volume  77.1100511739483
_cell_formula_units_Z  1
loop_
  _symmetry_equiv_pos_site_id
 _symmetry_equiv_pos_as_xyz
 1  'x, y, z'
loop_
 _atom_site_type_symbol
 _atom_site_label
 _atom_site_symmetry_multiplicity
 _atom_site_fract_x
 _atom_site_fract_y
 _atom_site_fract_z
 _atom_site_fract_occupancy
 Cr  Cr1  1  0.00066  0.00066  0.99801  1
 Cu  Cu1  1  0.85699  0.85699  0.42903  1
 Se  Se1  1  0.73492  0.73492  0.79524  1
 Se  Se2  1  0.25543  0.25543  0.23372  1
