CIF file written using JARVIS-Tools package.
data_TiBe2Rh
_symmetry_space_group_name_H-M  'Immm'
_cell_length_a       9.58712
_cell_length_b       5.41311
_cell_length_c       5.41311
_cell_angle_alpha    45.8584
_cell_angle_beta     27.681
_cell_angle_gamma    27.681

_symmetry_Int_Tables_number  71
_chemical_formula_structural  TiBe2Rh
_chemical_formula_sum  TiBe2Rh
_cell_volume  55.38460981184522
_cell_formula_units_Z  1
loop_
  _symmetry_equiv_pos_site_id
 _symmetry_equiv_pos_as_xyz
 1  'x, y, z'
loop_
 _atom_site_type_symbol
 _atom_site_label
 _atom_site_symmetry_multiplicity
 _atom_site_fract_x
 _atom_site_fract_y
 _atom_site_fract_z
 _atom_site_fract_occupancy
 Be  Be1  1  0.72976  0.00000  0.00000  1
 Be  Be2  1  0.27024  -0.00000  -0.00000  1
 Rh  Rh1  1  0.50000  0.00000  -0.00000  1
 Ti  Ti1  1  0.00000  0.00000  0.00000  1
