CIF file written using JARVIS-Tools package.
data_Y2TeO6
_symmetry_space_group_name_H-M  'P4_2/mnm'
_cell_length_a       4.97484
_cell_length_b       10.1035
_cell_length_c       4.97518
_cell_angle_alpha    90
_cell_angle_beta     90.0005
_cell_angle_gamma    90

_symmetry_Int_Tables_number  136
_chemical_formula_structural  Y2TeO6
_chemical_formula_sum  Y4Te2O2
_cell_volume  250.06795573126468
_cell_formula_units_Z  2
loop_
  _symmetry_equiv_pos_site_id
 _symmetry_equiv_pos_as_xyz
 1  'x, y, z'
loop_
 _atom_site_type_symbol
 _atom_site_label
 _atom_site_symmetry_multiplicity
 _atom_site_fract_x
 _atom_site_fract_y
 _atom_site_fract_z
 _atom_site_fract_occupancy
 O  O1  1  0.68324  0.64604  0.68341  1
 O  O2  1  0.81666  0.14604  0.18335  1
 O  O3  1  0.81666  0.85396  0.18335  1
 O  O4  1  0.18331  0.14604  0.81669  1
 O  O5  1  0.27833  0.00000  0.27839  1
 O  O6  1  0.77841  0.50000  0.22175  1
 O  O7  1  0.31671  0.64604  0.31663  1
 O  O8  1  0.68324  0.35396  0.68341  1
 O  O9  1  0.18331  0.85396  0.81669  1
 O  O10  1  0.72161  0.00000  0.72169  1
 O  O11  1  0.22153  0.50000  0.77829  1
 O  O12  1  0.31671  0.35396  0.31663  1
 Te  Te1  1  0.49997  0.50000  0.50002  1
 Te  Te2  1  -0.00001  0.00000  0.00002  1
 Y  Y1  1  0.49999  0.83442  0.50002  1
 Y  Y2  1  0.49999  0.16558  0.50002  1
 Y  Y3  1  0.99997  0.66558  0.00002  1
 Y  Y4  1  0.99997  0.33442  0.00002  1
