CIF file written using JARVIS-Tools package.
data_Y2CdIn
_symmetry_space_group_name_H-M  'Fm-3m'
_cell_length_a       12.9389
_cell_length_b       9.14939
_cell_length_c       9.14935
_cell_angle_alpha    33.567
_cell_angle_beta     19.4772
_cell_angle_gamma    19.4773

_symmetry_Int_Tables_number  225
_chemical_formula_structural  Y2CdIn
_chemical_formula_sum  Y2CdIn
_cell_volume  104.28910938108186
_cell_formula_units_Z  1
loop_
  _symmetry_equiv_pos_site_id
 _symmetry_equiv_pos_as_xyz
 1  'x, y, z'
loop_
 _atom_site_type_symbol
 _atom_site_label
 _atom_site_symmetry_multiplicity
 _atom_site_fract_x
 _atom_site_fract_y
 _atom_site_fract_z
 _atom_site_fract_occupancy
 Cd  Cd1  1  -0.00006  0.00004  0.00004  1
 In  In1  1  0.50001  -0.00001  -0.00001  1
 Y  Y1  1  0.75003  -0.00002  -0.00002  1
 Y  Y2  1  0.25002  -0.00001  -0.00001  1
