CIF file written using JARVIS-Tools package.
data_Hf2VRh
_symmetry_space_group_name_H-M  'C2/m'
_cell_length_a       10.7772
_cell_length_b       4.52787
_cell_length_c       4.52787
_cell_angle_alpha    38.4269
_cell_angle_beta     36.0318
_cell_angle_gamma    36.0319

_symmetry_Int_Tables_number  12
_chemical_formula_structural  Hf2VRh
_chemical_formula_sum  Hf2VRh
_cell_volume  70.90368186724325
_cell_formula_units_Z  1
loop_
  _symmetry_equiv_pos_site_id
 _symmetry_equiv_pos_as_xyz
 1  'x, y, z'
loop_
 _atom_site_type_symbol
 _atom_site_label
 _atom_site_symmetry_multiplicity
 _atom_site_fract_x
 _atom_site_fract_y
 _atom_site_fract_z
 _atom_site_fract_occupancy
 Hf  Hf1  1  0.75312  -0.00200  -0.00200  1
 Hf  Hf2  1  0.24688  0.00200  0.00200  1
 Rh  Rh1  1  0.50000  -0.00000  -0.00000  1
 V  V1  1  0.00000  0.00000  0.00000  1
