CIF file written using JARVIS-Tools package.
data_NaEuS2
_symmetry_space_group_name_H-M  'R-3m'
_cell_length_a       4.03166
_cell_length_b       4.03166
_cell_length_c       7.00774
_cell_angle_alpha    73.2822
_cell_angle_beta     73.2822
_cell_angle_gamma    60

_symmetry_Int_Tables_number  166
_chemical_formula_structural  NaEuS2
_chemical_formula_sum  NaEuS2
_cell_volume  93.04450960133948
_cell_formula_units_Z  1
loop_
  _symmetry_equiv_pos_site_id
 _symmetry_equiv_pos_as_xyz
 1  'x, y, z'
loop_
 _atom_site_type_symbol
 _atom_site_label
 _atom_site_symmetry_multiplicity
 _atom_site_fract_x
 _atom_site_fract_y
 _atom_site_fract_z
 _atom_site_fract_occupancy
 Eu  Eu1  1  0.00000  0.00000  0.00000  1
 Na  Na1  1  0.50000  0.50000  0.50000  1
 S  S1  1  0.25569  0.25569  0.23294  1
 S  S2  1  0.74431  0.74431  0.76706  1
