CIF file written using JARVIS-Tools package.
data_LiCr2S4
_symmetry_space_group_name_H-M  'Imm2'
_cell_length_a       6.87724
_cell_length_b       6.93537
_cell_length_c       6.9354
_cell_angle_alpha    60.5057
_cell_angle_beta     60.2764
_cell_angle_gamma    60.2765

_symmetry_Int_Tables_number  44
_chemical_formula_structural  LiCr2S4
_chemical_formula_sum  Li2Cr4S8
_cell_volume  235.7700305684208
_cell_formula_units_Z  2
loop_
  _symmetry_equiv_pos_site_id
 _symmetry_equiv_pos_as_xyz
 1  'x, y, z'
loop_
 _atom_site_type_symbol
 _atom_site_label
 _atom_site_symmetry_multiplicity
 _atom_site_fract_x
 _atom_site_fract_y
 _atom_site_fract_z
 _atom_site_fract_occupancy
 Cr  Cr1  1  0.48629  0.99853  0.49851  1
 Cr  Cr2  1  0.50139  -0.00003  0.99724  1
 Cr  Cr3  1  0.01669  -0.00150  0.49852  1
 Cr  Cr4  1  0.50140  0.49726  0.49996  1
 Li  Li1  1  -0.00377  0.00372  0.00384  1
 Li  Li2  1  -0.00380  0.50385  0.50370  1
 S  S1  1  0.25694  0.74678  0.73936  1
 S  S2  1  0.73021  0.75454  0.25452  1
 S  S3  1  0.25694  0.23936  0.24677  1
 S  S4  1  0.74605  0.24340  0.74340  1
 S  S5  1  0.74193  0.78129  0.73486  1
 S  S6  1  0.26713  0.24342  0.74340  1
 S  S7  1  0.26073  0.75453  0.25453  1
 S  S8  1  0.74193  0.23486  0.28130  1
