CIF file written using JARVIS-Tools package.
data_Tl2HgTe
_symmetry_space_group_name_H-M  'I4/mmm'
_cell_length_a       12.7396
_cell_length_b       7.1283
_cell_length_c       7.1283
_cell_angle_alpha    36.9217
_cell_angle_beta     26.605
_cell_angle_gamma    26.605

_symmetry_Int_Tables_number  139
_chemical_formula_structural  Tl2HgTe
_chemical_formula_sum  Tl2HgTe
_cell_volume  129.82825231433947
_cell_formula_units_Z  1
loop_
  _symmetry_equiv_pos_site_id
 _symmetry_equiv_pos_as_xyz
 1  'x, y, z'
loop_
 _atom_site_type_symbol
 _atom_site_label
 _atom_site_symmetry_multiplicity
 _atom_site_fract_x
 _atom_site_fract_y
 _atom_site_fract_z
 _atom_site_fract_occupancy
 Hg  Hg1  1  0.50000  -0.00000  -0.00000  1
 Te  Te1  1  0.00000  0.00000  0.00000  1
 Tl  Tl1  1  0.75235  0.00004  0.00004  1
 Tl  Tl2  1  0.24765  -0.00004  -0.00004  1
