CIF file written using JARVIS-Tools package.
data_SiO2
_symmetry_space_group_name_H-M  'C222_1'
_cell_length_a       4.90227
_cell_length_b       5.07292
_cell_length_c       8.16348
_cell_angle_alpha    90
_cell_angle_beta     90
_cell_angle_gamma    118.893

_symmetry_Int_Tables_number  20
_chemical_formula_structural  SiO2
_chemical_formula_sum  Si4O8
_cell_volume  177.74539250113327
_cell_formula_units_Z  4
loop_
  _symmetry_equiv_pos_site_id
 _symmetry_equiv_pos_as_xyz
 1  'x, y, z'
loop_
 _atom_site_type_symbol
 _atom_site_label
 _atom_site_symmetry_multiplicity
 _atom_site_fract_x
 _atom_site_fract_y
 _atom_site_fract_z
 _atom_site_fract_occupancy
 O  O1  1  0.57581  0.43443  0.69385  1
 O  O2  1  0.14139  0.56557  0.80615  1
 O  O3  1  0.42419  0.56557  0.19385  1
 O  O4  1  0.85861  0.43443  0.30615  1
 O  O5  1  0.34865  0.69731  0.50000  1
 O  O6  1  0.65135  0.30269  0.00000  1
 O  O7  1  0.28297  0.00000  0.25000  1
 O  O8  1  0.71703  0.00000  0.75000  1
 Si  Si1  1  0.77035  0.32630  0.81311  1
 Si  Si2  1  0.44405  0.67370  0.68689  1
 Si  Si3  1  0.22965  0.67370  0.31311  1
 Si  Si4  1  0.55595  0.32630  0.18689  1
