CIF file written using JARVIS-Tools package.
data_CaSb2O4
_symmetry_space_group_name_H-M  'C2/m'
_cell_length_a       3.51043
_cell_length_b       6.83648
_cell_length_c       10.2945
_cell_angle_alpha    77.9026
_cell_angle_beta     80.1806
_cell_angle_gamma    75.1231

_symmetry_Int_Tables_number  12
_chemical_formula_structural  CaSb2O4
_chemical_formula_sum  Ca2Sb4O8
_cell_volume  231.68436052298296
_cell_formula_units_Z  2
loop_
  _symmetry_equiv_pos_site_id
 _symmetry_equiv_pos_as_xyz
 1  'x, y, z'
loop_
 _atom_site_type_symbol
 _atom_site_label
 _atom_site_symmetry_multiplicity
 _atom_site_fract_x
 _atom_site_fract_y
 _atom_site_fract_z
 _atom_site_fract_occupancy
 Ca  Ca1  1  0.74872  0.73348  0.76094  1
 Ca  Ca2  1  0.24895  0.23345  0.26095  1
 O  O1  1  0.08256  0.59740  0.22976  1
 O  O2  1  0.58233  0.09744  0.72979  1
 O  O3  1  0.41534  0.86949  0.29209  1
 O  O4  1  0.91511  0.36953  0.79213  1
 O  O5  1  0.76156  0.35705  0.11212  1
 O  O6  1  0.26134  0.85709  0.61216  1
 O  O7  1  0.23611  0.60988  0.90976  1
 O  O8  1  0.73633  0.10985  0.40972  1
 Sb  Sb1  1  0.38788  0.30379  0.91218  1
 Sb  Sb2  1  0.88819  0.80378  0.41213  1
 Sb  Sb3  1  0.10948  0.16316  0.60976  1
 Sb  Sb4  1  0.60979  0.66315  0.10971  1
