CIF file written using JARVIS-Tools package.
data_CuP2
_symmetry_space_group_name_H-M  'P2_1/c'
_cell_length_a       5.82514
_cell_length_b       4.85961
_cell_length_c       7.59406
_cell_angle_alpha    90
_cell_angle_beta     112.449
_cell_angle_gamma    90

_symmetry_Int_Tables_number  14
_chemical_formula_structural  CuP2
_chemical_formula_sum  Cu4P8
_cell_volume  198.68148892099885
_cell_formula_units_Z  4
loop_
  _symmetry_equiv_pos_site_id
 _symmetry_equiv_pos_as_xyz
 1  'x, y, z'
loop_
 _atom_site_type_symbol
 _atom_site_label
 _atom_site_symmetry_multiplicity
 _atom_site_fract_x
 _atom_site_fract_y
 _atom_site_fract_z
 _atom_site_fract_occupancy
 Cu  Cu1  1  0.14648  0.96085  0.91926  1
 Cu  Cu2  1  0.85352  0.46085  0.58074  1
 Cu  Cu3  1  0.85352  0.03915  0.08074  1
 Cu  Cu4  1  0.14648  0.53915  0.41926  1
 P  P1  1  0.40660  0.61561  0.08065  1
 P  P2  1  0.59340  0.11561  0.41935  1
 P  P3  1  0.59340  0.38439  0.91935  1
 P  P4  1  0.40660  0.88439  0.58065  1
 P  P5  1  0.24553  0.22020  0.70043  1
 P  P6  1  0.75447  0.72020  0.79957  1
 P  P7  1  0.75447  0.77980  0.29957  1
 P  P8  1  0.24553  0.27980  0.20043  1
