CIF file written using JARVIS-Tools package.
data_Li2Ti2O5
_symmetry_space_group_name_H-M  'Ccc2'
_cell_length_a       8.43617
_cell_length_b       8.43617
_cell_length_c       5.21728
_cell_angle_alpha    90
_cell_angle_beta     90
_cell_angle_gamma    42.5677

_symmetry_Int_Tables_number  37
_chemical_formula_structural  Li2Ti2O5
_chemical_formula_sum  Li4Ti4O0
_cell_volume  251.1755073165266
_cell_formula_units_Z  2
loop_
  _symmetry_equiv_pos_site_id
 _symmetry_equiv_pos_as_xyz
 1  'x, y, z'
loop_
 _atom_site_type_symbol
 _atom_site_label
 _atom_site_symmetry_multiplicity
 _atom_site_fract_x
 _atom_site_fract_y
 _atom_site_fract_z
 _atom_site_fract_occupancy
 Li  Li1  1  0.40572  0.70314  0.64285  1
 Li  Li2  1  0.29686  0.59428  0.14285  1
 Li  Li3  1  0.59428  0.29686  0.64285  1
 Li  Li4  1  0.70314  0.40572  0.14285  1
 O  O1  1  0.72118  0.41131  0.52175  1
 O  O2  1  0.41131  0.72118  0.02175  1
 O  O3  1  0.27882  0.58869  0.52175  1
 O  O4  1  -0.00000  0.50000  0.56726  1
 O  O5  1  0.76015  0.99373  0.48948  1
 O  O6  1  0.23985  0.00627  0.48948  1
 O  O7  1  0.58869  0.27882  0.02175  1
 O  O8  1  0.00627  0.23985  0.98948  1
 O  O9  1  0.99373  0.76015  0.98948  1
 O  O10  1  0.50000  0.00000  0.06726  1
 Ti  Ti1  1  0.98359  0.29955  0.63967  1
 Ti  Ti2  1  0.70045  0.01641  0.13967  1
 Ti  Ti3  1  0.29955  0.98359  0.13967  1
 Ti  Ti4  1  0.01641  0.70045  0.63967  1
