CIF file written using JARVIS-Tools package.
data_CaV4O10
_symmetry_space_group_name_H-M  'Pmm2'
_cell_length_a       3.6215
_cell_length_b       4.69566
_cell_length_c       11.4202
_cell_angle_alpha    90
_cell_angle_beta     90
_cell_angle_gamma    90

_symmetry_Int_Tables_number  25
_chemical_formula_structural  CaV4O10
_chemical_formula_sum  CaV4O0
_cell_volume  194.20430795811563
_cell_formula_units_Z  1
loop_
  _symmetry_equiv_pos_site_id
 _symmetry_equiv_pos_as_xyz
 1  'x, y, z'
loop_
 _atom_site_type_symbol
 _atom_site_label
 _atom_site_symmetry_multiplicity
 _atom_site_fract_x
 _atom_site_fract_y
 _atom_site_fract_z
 _atom_site_fract_occupancy
 Ca  Ca1  1  0.00000  0.83877  0.00000  1
 O  O1  1  0.50000  0.51795  0.00000  1
 O  O2  1  0.00000  0.52688  0.50000  1
 O  O3  1  0.50000  0.49620  0.31657  1
 O  O4  1  0.00000  0.50490  0.17094  1
 O  O5  1  0.50000  0.49620  0.68343  1
 O  O6  1  0.00000  0.50490  0.82906  1
 O  O7  1  0.00000  0.96128  0.65615  1
 O  O8  1  0.50000  0.02718  0.87242  1
 O  O9  1  0.50000  0.02718  0.12758  1
 O  O10  1  0.00000  0.96128  0.34385  1
 V  V1  1  0.00000  0.61778  0.34851  1
 V  V2  1  0.50000  0.37653  0.15538  1
 V  V3  1  0.50000  0.37653  0.84462  1
 V  V4  1  0.00000  0.61778  0.65149  1
