CIF file written using JARVIS-Tools package.
data_TeO3
_symmetry_space_group_name_H-M  'P6_3cm'
_cell_length_a       6.39569
_cell_length_b       6.39569
_cell_length_c       10.0589
_cell_angle_alpha    90
_cell_angle_beta     90
_cell_angle_gamma    120

_symmetry_Int_Tables_number  185
_chemical_formula_structural  TeO3
_chemical_formula_sum  Te6O8
_cell_volume  356.333111381556
_cell_formula_units_Z  6
loop_
  _symmetry_equiv_pos_site_id
 _symmetry_equiv_pos_as_xyz
 1  'x, y, z'
loop_
 _atom_site_type_symbol
 _atom_site_label
 _atom_site_symmetry_multiplicity
 _atom_site_fract_x
 _atom_site_fract_y
 _atom_site_fract_z
 _atom_site_fract_occupancy
 O  O1  1  0.53657  0.53657  0.83736  1
 O  O2  1  0.66667  0.33333  0.04307  1
 O  O3  1  0.33333  0.66667  0.54307  1
 O  O4  1  0.66667  0.33333  0.54307  1
 O  O5  1  0.33333  0.66667  0.04307  1
 O  O6  1  0.00000  0.00000  0.93116  1
 O  O7  1  0.75025  0.75025  0.16900  1
 O  O8  1  0.46343  0.00000  0.83736  1
 O  O9  1  0.00000  0.00000  0.43116  1
 O  O10  1  0.00000  0.53657  0.33736  1
 O  O11  1  -0.00000  0.46343  0.83736  1
 O  O12  1  0.75025  0.00000  0.66900  1
 O  O13  1  0.53657  0.00000  0.33736  1
 O  O14  1  0.24975  0.00000  0.16900  1
 O  O15  1  0.24975  0.24975  0.66900  1
 O  O16  1  -0.00000  0.75025  0.66900  1
 O  O17  1  0.00000  0.24975  0.16900  1
 O  O18  1  0.46343  0.46343  0.33736  1
 Te  Te1  1  0.33718  0.00000  0.99885  1
 Te  Te2  1  0.33718  0.33718  0.49885  1
 Te  Te3  1  -0.00000  0.66282  0.49885  1
 Te  Te4  1  0.00000  0.33718  0.99885  1
 Te  Te5  1  0.66282  0.66282  0.99885  1
 Te  Te6  1  0.66282  0.00000  0.49885  1
