CIF file written using JARVIS-Tools package.
data_Er2CuO4
_symmetry_space_group_name_H-M  'Cmce'
_cell_length_a       5.45109
_cell_length_b       6.43488
_cell_length_c       5.4549
_cell_angle_alpha    115.078
_cell_angle_beta     90
_cell_angle_gamma    90

_symmetry_Int_Tables_number  64
_chemical_formula_structural  Er2CuO4
_chemical_formula_sum  Er4Cu2O8
_cell_volume  173.30439601317886
_cell_formula_units_Z  2
loop_
  _symmetry_equiv_pos_site_id
 _symmetry_equiv_pos_as_xyz
 1  'x, y, z'
loop_
 _atom_site_type_symbol
 _atom_site_label
 _atom_site_symmetry_multiplicity
 _atom_site_fract_x
 _atom_site_fract_y
 _atom_site_fract_z
 _atom_site_fract_occupancy
 Cu  Cu1  1  0.00000  0.00000  0.00000  1
 Cu  Cu2  1  0.50000  0.00000  0.50000  1
 Er  Er1  1  0.00000  0.30905  0.65453  1
 Er  Er2  1  0.00000  0.69095  0.34547  1
 Er  Er3  1  0.50000  0.69095  0.84547  1
 Er  Er4  1  0.50000  0.30905  0.15453  1
 O  O1  1  0.19882  -0.00000  0.30197  1
 O  O2  1  0.25000  0.50000  0.99017  1
 O  O3  1  0.25000  0.50000  0.49017  1
 O  O4  1  0.30118  -0.00000  0.80197  1
 O  O5  1  0.69882  0.00000  0.19803  1
 O  O6  1  0.75000  0.50000  0.50983  1
 O  O7  1  0.75000  0.50000  0.00983  1
 O  O8  1  0.80118  0.00000  0.69803  1
