CIF file written using JARVIS-Tools package.
data_EuZnGe
_symmetry_space_group_name_H-M  'P-6m2'
_cell_length_a       4.20318
_cell_length_b       4.20322
_cell_length_c       4.12288
_cell_angle_alpha    90
_cell_angle_beta     90
_cell_angle_gamma    120

_symmetry_Int_Tables_number  187
_chemical_formula_structural  EuZnGe
_chemical_formula_sum  EuZnGe
_cell_volume  63.07986668077989
_cell_formula_units_Z  1
loop_
  _symmetry_equiv_pos_site_id
 _symmetry_equiv_pos_as_xyz
 1  'x, y, z'
loop_
 _atom_site_type_symbol
 _atom_site_label
 _atom_site_symmetry_multiplicity
 _atom_site_fract_x
 _atom_site_fract_y
 _atom_site_fract_z
 _atom_site_fract_occupancy
 Eu  Eu1  1  0.99990  0.99990  0.00000  1
 Ge  Ge1  1  0.66657  0.33324  0.50000  1
 Zn  Zn1  1  0.33323  0.66656  0.50000  1
