CIF file written using JARVIS-Tools package.
data_MnHO2
_symmetry_space_group_name_H-M  'Cm'
_cell_length_a       2.90106
_cell_length_b       3.19559
_cell_length_c       4.79068
_cell_angle_alpha    105.356
_cell_angle_beta     90.0129
_cell_angle_gamma    116.995

_symmetry_Int_Tables_number  8
_chemical_formula_structural  MnHO2
_chemical_formula_sum  MnHO2
_cell_volume  37.784336832198214
_cell_formula_units_Z  1
loop_
  _symmetry_equiv_pos_site_id
 _symmetry_equiv_pos_as_xyz
 1  'x, y, z'
loop_
 _atom_site_type_symbol
 _atom_site_label
 _atom_site_symmetry_multiplicity
 _atom_site_fract_x
 _atom_site_fract_y
 _atom_site_fract_z
 _atom_site_fract_occupancy
 H  H1  1  0.58131  0.06553  0.55451  1
 Mn  Mn1  1  0.07522  0.05323  0.01945  1
 O  O1  1  0.65170  0.20637  0.78237  1
 O  O2  1  0.48701  0.87667  0.22845  1
