CIF file written using JARVIS-Tools package.
data_BaZnP2O7
_symmetry_space_group_name_H-M  'P-1'
_cell_length_a       5.36361
_cell_length_b       7.33161
_cell_length_c       7.63009
_cell_angle_alpha    102.567
_cell_angle_beta     92.4006
_cell_angle_gamma    93.9849

_symmetry_Int_Tables_number  2
_chemical_formula_structural  BaZnP2O7
_chemical_formula_sum  Ba2Zn2P4O4
_cell_volume  291.64670035980186
_cell_formula_units_Z  2
loop_
  _symmetry_equiv_pos_site_id
 _symmetry_equiv_pos_as_xyz
 1  'x, y, z'
loop_
 _atom_site_type_symbol
 _atom_site_label
 _atom_site_symmetry_multiplicity
 _atom_site_fract_x
 _atom_site_fract_y
 _atom_site_fract_z
 _atom_site_fract_occupancy
 Ba  Ba1  1  0.79434  0.72587  0.57076  1
 Ba  Ba2  1  0.20566  0.27413  0.42924  1
 O  O1  1  0.78195  0.48679  0.24347  1
 O  O2  1  0.21805  0.51321  0.75653  1
 O  O3  1  0.11127  0.84128  0.90403  1
 O  O4  1  0.43291  0.23470  0.10210  1
 O  O5  1  0.29196  0.65283  0.43036  1
 O  O6  1  0.56709  0.76530  0.89790  1
 O  O7  1  0.73105  0.37420  0.90673  1
 O  O8  1  0.26895  0.62580  0.09327  1
 O  O9  1  0.46466  0.10373  0.70040  1
 O  O10  1  0.53534  0.89627  0.29960  1
 O  O11  1  0.93875  0.11456  0.70043  1
 O  O12  1  0.06125  0.88544  0.29957  1
 O  O13  1  0.70804  0.34717  0.56964  1
 O  O14  1  0.88873  0.15872  0.09597  1
 P  P1  1  0.70762  0.23059  0.71149  1
 P  P2  1  0.29238  0.76941  0.28851  1
 P  P3  1  0.29441  0.68397  0.90069  1
 P  P4  1  0.70559  0.31603  0.09931  1
 Zn  Zn1  1  0.20614  0.11159  0.89246  1
 Zn  Zn2  1  0.79386  0.88841  0.10754  1
