CIF file written using JARVIS-Tools package.
data_MgTi2S4
_symmetry_space_group_name_H-M  'Imma'
_cell_length_a       7.06884
_cell_length_b       7.06904
_cell_length_c       7.06922
_cell_angle_alpha    90.775
_cell_angle_beta     119.553
_cell_angle_gamma    119.556

_symmetry_Int_Tables_number  74
_chemical_formula_structural  MgTi2S4
_chemical_formula_sum  Mg2Ti4S8
_cell_volume  251.4387484076407
_cell_formula_units_Z  2
loop_
  _symmetry_equiv_pos_site_id
 _symmetry_equiv_pos_as_xyz
 1  'x, y, z'
loop_
 _atom_site_type_symbol
 _atom_site_label
 _atom_site_symmetry_multiplicity
 _atom_site_fract_x
 _atom_site_fract_y
 _atom_site_fract_z
 _atom_site_fract_occupancy
 Mg  Mg1  1  0.00000  0.00000  0.00000  1
 Mg  Mg2  1  0.50000  -0.00000  0.50000  1
 S  S1  1  0.00728  0.25279  0.26010  1
 S  S2  1  0.49480  0.74570  0.75090  1
 S  S3  1  0.49273  0.25282  0.74551  1
 S  S4  1  0.99480  0.74392  0.24911  1
 S  S5  1  0.50727  0.74718  0.25449  1
 S  S6  1  0.50520  0.25430  0.24910  1
 S  S7  1  0.00520  0.25608  0.75089  1
 S  S8  1  0.99272  0.74721  0.73990  1
 Ti  Ti1  1  0.50000  0.50000  0.50000  1
 Ti  Ti2  1  0.50000  0.50000  0.00000  1
 Ti  Ti3  1  0.00000  -0.00000  0.50000  1
 Ti  Ti4  1  0.00000  0.50000  0.50000  1
