CIF file written using JARVIS-Tools package.
data_ReN2
_symmetry_space_group_name_H-M  'P2/c'
_cell_length_a       4.2456
_cell_length_b       2.9618
_cell_length_c       5.00769
_cell_angle_alpha    90
_cell_angle_beta     65.7343
_cell_angle_gamma    90

_symmetry_Int_Tables_number  13
_chemical_formula_structural  ReN2
_chemical_formula_sum  Re2N4
_cell_volume  57.40638646840483
_cell_formula_units_Z  2
loop_
  _symmetry_equiv_pos_site_id
 _symmetry_equiv_pos_as_xyz
 1  'x, y, z'
loop_
 _atom_site_type_symbol
 _atom_site_label
 _atom_site_symmetry_multiplicity
 _atom_site_fract_x
 _atom_site_fract_y
 _atom_site_fract_z
 _atom_site_fract_occupancy
 N  N1  1  0.17663  0.30268  0.69163  1
 N  N2  1  0.82337  0.30268  0.80837  1
 N  N3  1  0.82337  0.69732  0.30837  1
 N  N4  1  0.17663  0.69732  0.19163  1
 Re  Re1  1  0.50000  0.81107  0.75000  1
 Re  Re2  1  0.50000  0.18893  0.25000  1
