CIF file written using JARVIS-Tools package.
data_Tb2Fe17
_symmetry_space_group_name_H-M  'R-3m'
_cell_length_a       6.25988
_cell_length_b       6.25988
_cell_length_c       6.25988
_cell_angle_alpha    82.2756
_cell_angle_beta     82.2756
_cell_angle_gamma    82.2756

_symmetry_Int_Tables_number  166
_chemical_formula_structural  Tb2Fe17
_chemical_formula_sum  Tb2Fe7
_cell_volume  239.17223154102058
_cell_formula_units_Z  1
loop_
  _symmetry_equiv_pos_site_id
 _symmetry_equiv_pos_as_xyz
 1  'x, y, z'
loop_
 _atom_site_type_symbol
 _atom_site_label
 _atom_site_symmetry_multiplicity
 _atom_site_fract_x
 _atom_site_fract_y
 _atom_site_fract_z
 _atom_site_fract_occupancy
 Fe  Fe1  1  0.33652  0.33652  0.84678  1
 Fe  Fe2  1  0.09047  0.09047  0.09047  1
 Fe  Fe3  1  0.66348  0.15322  0.66348  1
 Fe  Fe4  1  0.90953  0.90953  0.90953  1
 Fe  Fe5  1  0.70438  0.00000  0.29562  1
 Fe  Fe6  1  0.70438  0.29562  0.00000  1
 Fe  Fe7  1  -0.00000  0.70438  0.29562  1
 Fe  Fe8  1  0.29562  -0.00000  0.70438  1
 Fe  Fe9  1  0.50000  -0.00000  -0.00000  1
 Fe  Fe10  1  0.15322  0.66348  0.66348  1
 Fe  Fe11  1  -0.00000  -0.00000  0.50000  1
 Fe  Fe12  1  0.66348  0.66348  0.15322  1
 Fe  Fe13  1  0.33652  0.84678  0.33652  1
 Fe  Fe14  1  0.84678  0.33652  0.33652  1
 Fe  Fe15  1  -0.00000  0.50000  0.00000  1
 Fe  Fe16  1  0.29562  0.70438  -0.00000  1
 Fe  Fe17  1  0.00000  0.29562  0.70438  1
 Tb  Tb1  1  0.34433  0.34433  0.34433  1
 Tb  Tb2  1  0.65567  0.65567  0.65567  1
