CIF file written using JARVIS-Tools package.
data_AgI
_symmetry_space_group_name_H-M  'Fm-3m'
_cell_length_a       4.32482
_cell_length_b       4.3234
_cell_length_c       6.11308
_cell_angle_alpha    90
_cell_angle_beta     89.9731
_cell_angle_gamma    90

_symmetry_Int_Tables_number  225
_chemical_formula_structural  AgI
_chemical_formula_sum  Ag2I2
_cell_volume  114.30204991211718
_cell_formula_units_Z  2
loop_
  _symmetry_equiv_pos_site_id
 _symmetry_equiv_pos_as_xyz
 1  'x, y, z'
loop_
 _atom_site_type_symbol
 _atom_site_label
 _atom_site_symmetry_multiplicity
 _atom_site_fract_x
 _atom_site_fract_y
 _atom_site_fract_z
 _atom_site_fract_occupancy
 Ag  Ag1  1  0.75026  0.75000  0.75001  1
 Ag  Ag2  1  0.24974  0.25000  0.24999  1
 I  I1  1  0.25019  0.25000  0.75002  1
 I  I2  1  0.74981  0.75000  0.24998  1
