CIF file written using JARVIS-Tools package.
data_ZrCu
_symmetry_space_group_name_H-M  'Cmcm'
_cell_length_a       3.24782
_cell_length_b       4.126
_cell_length_c       5.50509
_cell_angle_alpha    90
_cell_angle_beta     107.053
_cell_angle_gamma    90

_symmetry_Int_Tables_number  63
_chemical_formula_structural  ZrCu
_chemical_formula_sum  Zr2Cu2
_cell_volume  70.52765183682665
_cell_formula_units_Z  2
loop_
  _symmetry_equiv_pos_site_id
 _symmetry_equiv_pos_as_xyz
 1  'x, y, z'
loop_
 _atom_site_type_symbol
 _atom_site_label
 _atom_site_symmetry_multiplicity
 _atom_site_fract_x
 _atom_site_fract_y
 _atom_site_fract_z
 _atom_site_fract_occupancy
 Cu  Cu1  1  0.07087  0.25000  0.64181  1
 Cu  Cu2  1  0.92913  0.75000  0.35819  1
 Zr  Zr1  1  0.34745  0.25000  0.19451  1
 Zr  Zr2  1  0.65255  0.75000  0.80549  1
