CIF file written using JARVIS-Tools package.
data_AlAgO2
_symmetry_space_group_name_H-M  'R3m'
_cell_length_a       2.88342
_cell_length_b       2.88341
_cell_length_c       6.32089
_cell_angle_alpha    76.8156
_cell_angle_beta     76.8156
_cell_angle_gamma    60

_symmetry_Int_Tables_number  160
_chemical_formula_structural  AlAgO2
_chemical_formula_sum  AlAgO2
_cell_volume  43.904833515245926
_cell_formula_units_Z  1
loop_
  _symmetry_equiv_pos_site_id
 _symmetry_equiv_pos_as_xyz
 1  'x, y, z'
loop_
 _atom_site_type_symbol
 _atom_site_label
 _atom_site_symmetry_multiplicity
 _atom_site_fract_x
 _atom_site_fract_y
 _atom_site_fract_z
 _atom_site_fract_occupancy
 Ag  Ag1  1  0.83883  0.83883  0.48350  1
 Al  Al1  1  0.00195  0.00195  0.99414  1
 O  O1  1  0.72016  0.72016  0.83952  1
 O  O2  1  0.28006  0.28006  0.15983  1
