CIF file written using JARVIS-Tools package.
data_CrO2
_symmetry_space_group_name_H-M  'Cmcm'
_cell_length_a       2.87024
_cell_length_b       4.84048
_cell_length_c       9.67808
_cell_angle_alpha    90
_cell_angle_beta     90
_cell_angle_gamma    107.246

_symmetry_Int_Tables_number  63
_chemical_formula_structural  CrO2
_chemical_formula_sum  Cr4O8
_cell_volume  128.41505705293292
_cell_formula_units_Z  4
loop_
  _symmetry_equiv_pos_site_id
 _symmetry_equiv_pos_as_xyz
 1  'x, y, z'
loop_
 _atom_site_type_symbol
 _atom_site_label
 _atom_site_symmetry_multiplicity
 _atom_site_fract_x
 _atom_site_fract_y
 _atom_site_fract_z
 _atom_site_fract_occupancy
 Cr  Cr1  1  0.86653  0.73305  0.07696  1
 Cr  Cr2  1  0.13347  0.26695  0.92304  1
 Cr  Cr3  1  0.86653  0.73305  0.42304  1
 Cr  Cr4  1  0.13347  0.26695  0.57696  1
 O  O1  1  0.23731  0.47461  0.39740  1
 O  O2  1  0.76269  0.52539  0.60260  1
 O  O3  1  0.76269  0.52539  0.89740  1
 O  O4  1  0.23731  0.47461  0.10260  1
 O  O5  1  0.92668  0.85336  0.25000  1
 O  O6  1  0.07332  0.14664  0.75000  1
 O  O7  1  0.50000  0.00000  0.00000  1
 O  O8  1  0.50000  0.00000  0.50000  1
