CIF file written using JARVIS-Tools package.
data_Ba2NaO
_symmetry_space_group_name_H-M  'Cmme'
_cell_length_a       6.63946
_cell_length_b       6.90307
_cell_length_c       8.27084
_cell_angle_alpha    90
_cell_angle_beta     113.664
_cell_angle_gamma    90

_symmetry_Int_Tables_number  67
_chemical_formula_structural  Ba2NaO
_chemical_formula_sum  Ba4Na2O2
_cell_volume  347.19944098649523
_cell_formula_units_Z  2
loop_
  _symmetry_equiv_pos_site_id
 _symmetry_equiv_pos_as_xyz
 1  'x, y, z'
loop_
 _atom_site_type_symbol
 _atom_site_label
 _atom_site_symmetry_multiplicity
 _atom_site_fract_x
 _atom_site_fract_y
 _atom_site_fract_z
 _atom_site_fract_occupancy
 Ba  Ba1  1  0.41183  0.19700  0.82365  1
 Ba  Ba2  1  0.58817  0.80300  0.17635  1
 Ba  Ba3  1  0.91183  0.80300  0.82365  1
 Ba  Ba4  1  0.08817  0.19700  0.17635  1
 Na  Na1  1  0.25000  0.69439  0.50000  1
 Na  Na2  1  0.75000  0.30561  0.50000  1
 O  O1  1  0.25000  0.00000  0.00000  1
 O  O2  1  0.75000  0.00000  0.00000  1
