CIF file written using JARVIS-Tools package.
data_Ga2S3
_symmetry_space_group_name_H-M  'Cc'
_cell_length_a       6.44352
_cell_length_b       6.45932
_cell_length_c       7.08908
_cell_angle_alpha    116.502
_cell_angle_beta     90
_cell_angle_gamma    119.919

_symmetry_Int_Tables_number  9
_chemical_formula_structural  Ga2S3
_chemical_formula_sum  Ga4S6
_cell_volume  219.23405634133562
_cell_formula_units_Z  2
loop_
  _symmetry_equiv_pos_site_id
 _symmetry_equiv_pos_as_xyz
 1  'x, y, z'
loop_
 _atom_site_type_symbol
 _atom_site_label
 _atom_site_symmetry_multiplicity
 _atom_site_fract_x
 _atom_site_fract_y
 _atom_site_fract_z
 _atom_site_fract_occupancy
 Ga  Ga1  1  0.13487  0.40531  0.61974  1
 Ga  Ga2  1  0.27044  0.40531  0.11974  1
 Ga  Ga3  1  0.44620  0.08764  0.62797  1
 Ga  Ga4  1  0.64144  0.08764  0.12797  1
 S  S1  1  0.43646  0.68091  0.50457  1
 S  S2  1  0.24445  0.68091  0.00457  1
 S  S3  1  0.76050  0.35539  0.51187  1
 S  S4  1  0.59489  0.35539  0.01187  1
 S  S5  1  0.91124  -0.00725  0.98485  1
 S  S6  1  0.08151  -0.00725  0.48485  1
