CIF file written using JARVIS-Tools package.
data_Sr4MgCo2S2O6
_symmetry_space_group_name_H-M  'P-4m2'
_cell_length_a       3.80987
_cell_length_b       3.80991
_cell_length_c       16.3068
_cell_angle_alpha    90
_cell_angle_beta     90
_cell_angle_gamma    90

_symmetry_Int_Tables_number  115
_chemical_formula_structural  Sr4MgCo2S2O6
_chemical_formula_sum  Sr4MgCo2S2O6
_cell_volume  236.6982839871911
_cell_formula_units_Z  1
loop_
  _symmetry_equiv_pos_site_id
 _symmetry_equiv_pos_as_xyz
 1  'x, y, z'
loop_
 _atom_site_type_symbol
 _atom_site_label
 _atom_site_symmetry_multiplicity
 _atom_site_fract_x
 _atom_site_fract_y
 _atom_site_fract_z
 _atom_site_fract_occupancy
 Co  Co1  1  0.50000  0.00000  0.31015  1
 Co  Co2  1  0.00000  0.50000  0.68985  1
 Mg  Mg1  1  0.50000  0.50000  0.00000  1
 O  O1  1  0.00000  0.00000  0.29542  1
 O  O2  1  0.50000  0.50000  0.29440  1
 O  O3  1  0.50000  0.50000  0.70558  1
 O  O4  1  0.00000  0.00000  0.70459  1
 O  O5  1  0.50000  0.00000  0.43234  1
 O  O6  1  0.00000  0.50000  0.56767  1
 S  S1  1  0.50000  0.00000  0.09677  1
 S  S2  1  0.00000  0.50000  0.90324  1
 Sr  Sr1  1  0.00000  0.50000  0.19246  1
 Sr  Sr2  1  0.50000  0.00000  0.80754  1
 Sr  Sr3  1  0.00000  0.50000  0.41612  1
 Sr  Sr4  1  0.50000  0.00000  0.58388  1
