CIF file written using JARVIS-Tools package.
data_SbOF3
_symmetry_space_group_name_H-M  'P4_2/mnm'
_cell_length_a       8.52846
_cell_length_b       8.52846
_cell_length_c       3.76122
_cell_angle_alpha    90
_cell_angle_beta     90
_cell_angle_gamma    90

_symmetry_Int_Tables_number  136
_chemical_formula_structural  SbOF3
_chemical_formula_sum  Sb4O4F2
_cell_volume  273.57117213675974
_cell_formula_units_Z  4
loop_
  _symmetry_equiv_pos_site_id
 _symmetry_equiv_pos_as_xyz
 1  'x, y, z'
loop_
 _atom_site_type_symbol
 _atom_site_label
 _atom_site_symmetry_multiplicity
 _atom_site_fract_x
 _atom_site_fract_y
 _atom_site_fract_z
 _atom_site_fract_occupancy
 F  F1  1  0.37675  0.63720  0.74991  1
 F  F2  1  0.39732  0.10268  0.74998  1
 F  F3  1  0.13720  0.87675  0.74991  1
 F  F4  1  0.12325  0.13720  0.25009  1
 F  F5  1  0.62325  0.36280  0.74991  1
 F  F6  1  0.86280  0.12325  0.74991  1
 F  F7  1  0.89732  0.39732  0.25002  1
 F  F8  1  0.10268  0.60268  0.25002  1
 F  F9  1  0.63720  0.62325  0.25009  1
 F  F10  1  0.60268  0.89732  0.74998  1
 F  F11  1  0.87675  0.86280  0.25009  1
 F  F12  1  0.36280  0.37675  0.25009  1
 O  O1  1  0.38169  0.88169  0.24995  1
 O  O2  1  0.88169  0.61831  0.75005  1
 O  O3  1  0.11831  0.38169  0.75005  1
 O  O4  1  0.61831  0.11831  0.24995  1
 Sb  Sb1  1  0.35758  0.85758  0.74995  1
 Sb  Sb2  1  0.85758  0.64242  0.25005  1
 Sb  Sb3  1  0.14242  0.35758  0.25005  1
 Sb  Sb4  1  0.64242  0.14242  0.74995  1
