CIF file written using JARVIS-Tools package.
data_NClO6
_symmetry_space_group_name_H-M  'C2/c'
_cell_length_a       5.71046
_cell_length_b       5.71046
_cell_length_c       7.1701
_cell_angle_alpha    71.6972
_cell_angle_beta     71.6972
_cell_angle_gamma    76.0503

_symmetry_Int_Tables_number  15
_chemical_formula_structural  NClO6
_chemical_formula_sum  N2Cl2O2
_cell_volume  208.10536687208355
_cell_formula_units_Z  2
loop_
  _symmetry_equiv_pos_site_id
 _symmetry_equiv_pos_as_xyz
 1  'x, y, z'
loop_
 _atom_site_type_symbol
 _atom_site_label
 _atom_site_symmetry_multiplicity
 _atom_site_fract_x
 _atom_site_fract_y
 _atom_site_fract_z
 _atom_site_fract_occupancy
 Cl  Cl1  1  0.67949  0.32051  0.25000  1
 Cl  Cl2  1  0.32051  0.67949  0.75000  1
 N  N1  1  0.83472  0.16528  0.75000  1
 N  N2  1  0.16528  0.83472  0.25000  1
 O  O1  1  0.30170  0.97184  0.20279  1
 O  O2  1  0.02816  0.69830  0.29721  1
 O  O3  1  0.25027  0.85660  0.87566  1
 O  O4  1  0.14340  0.74973  0.62434  1
 O  O5  1  0.74973  0.14340  0.12434  1
 O  O6  1  0.85660  0.25027  0.37566  1
 O  O7  1  0.57223  0.69474  0.62111  1
 O  O8  1  0.30526  0.42777  0.87889  1
 O  O9  1  0.42777  0.30526  0.37889  1
 O  O10  1  0.69474  0.57223  0.12111  1
 O  O11  1  0.97184  0.30170  0.70279  1
 O  O12  1  0.69830  0.02816  0.79721  1
