CIF file written using JARVIS-Tools package.
data_Te2Mo2WS4
_symmetry_space_group_name_H-M  'P-6m2'
_cell_length_a       3.31093
_cell_length_b       3.31106
_cell_length_c       29.092
_cell_angle_alpha    90
_cell_angle_beta     90
_cell_angle_gamma    119.999

_symmetry_Int_Tables_number  187
_chemical_formula_structural  Te2Mo2WS4
_chemical_formula_sum  Te2Mo2WS4
_cell_volume  276.2021596810759
_cell_formula_units_Z  1
loop_
  _symmetry_equiv_pos_site_id
 _symmetry_equiv_pos_as_xyz
 1  'x, y, z'
loop_
 _atom_site_type_symbol
 _atom_site_label
 _atom_site_symmetry_multiplicity
 _atom_site_fract_x
 _atom_site_fract_y
 _atom_site_fract_z
 _atom_site_fract_occupancy
 Mo  Mo1  1  0.33335  0.66670  0.11506  1
 Mo  Mo2  1  0.33335  0.66670  0.57891  1
 S  S1  1  0.66669  0.33337  0.06257  1
 S  S2  1  0.66667  0.33334  0.52635  1
 S  S3  1  0.66667  0.33334  0.16761  1
 S  S4  1  0.66669  0.33337  0.63140  1
 Te  Te1  1  0.33329  0.66658  0.41335  1
 Te  Te2  1  0.33329  0.66658  0.28062  1
 W  W1  1  0.66661  0.33322  0.34698  1
