CIF file written using JARVIS-Tools package.
data_K3NaRu2O8
_symmetry_space_group_name_H-M  'P-3m1'
_cell_length_a       5.93107
_cell_length_b       5.93107
_cell_length_c       7.67253
_cell_angle_alpha    90
_cell_angle_beta     90
_cell_angle_gamma    120

_symmetry_Int_Tables_number  164
_chemical_formula_structural  K3NaRu2O8
_chemical_formula_sum  K3NaRu2O8
_cell_volume  233.74122393211556
_cell_formula_units_Z  1
loop_
  _symmetry_equiv_pos_site_id
 _symmetry_equiv_pos_as_xyz
 1  'x, y, z'
loop_
 _atom_site_type_symbol
 _atom_site_label
 _atom_site_symmetry_multiplicity
 _atom_site_fract_x
 _atom_site_fract_y
 _atom_site_fract_z
 _atom_site_fract_occupancy
 K  K1  1  0.66667  0.33333  0.35687  1
 K  K2  1  0.00000  0.00000  0.00000  1
 K  K3  1  0.33333  0.66667  0.64313  1
 Na  Na1  1  0.00000  0.00000  0.50000  1
 O  O1  1  0.65227  0.82613  0.30234  1
 O  O2  1  0.17387  0.82613  0.30234  1
 O  O3  1  0.17387  0.34773  0.30234  1
 O  O4  1  0.34773  0.17387  0.69766  1
 O  O5  1  0.82613  0.65227  0.69766  1
 O  O6  1  0.82613  0.17387  0.69766  1
 O  O7  1  0.66667  0.33333  0.02357  1
 O  O8  1  0.33333  0.66667  0.97643  1
 Ru  Ru1  1  0.66667  0.33333  0.79408  1
 Ru  Ru2  1  0.33333  0.66667  0.20592  1
