CIF file written using JARVIS-Tools package.
data_YbLiS2
_symmetry_space_group_name_H-M  'R-3m'
_cell_length_a       3.98187
_cell_length_b       3.98187
_cell_length_c       6.1557
_cell_angle_alpha    71.1296
_cell_angle_beta     71.1296
_cell_angle_gamma    59.9999

_symmetry_Int_Tables_number  166
_chemical_formula_structural  YbLiS2
_chemical_formula_sum  YbLiS2
_cell_volume  78.40849020559313
_cell_formula_units_Z  1
loop_
  _symmetry_equiv_pos_site_id
 _symmetry_equiv_pos_as_xyz
 1  'x, y, z'
loop_
 _atom_site_type_symbol
 _atom_site_label
 _atom_site_symmetry_multiplicity
 _atom_site_fract_x
 _atom_site_fract_y
 _atom_site_fract_z
 _atom_site_fract_occupancy
 Li  Li1  1  0.50000  0.50000  0.50000  1
 S  S1  1  0.24427  0.24427  0.26719  1
 S  S2  1  0.75573  0.75573  0.73281  1
 Yb  Yb1  1  0.00000  0.00000  0.00000  1
