CIF file written using JARVIS-Tools package.
data_KSO4
_symmetry_space_group_name_H-M  'P-1'
_cell_length_a       5.07066
_cell_length_b       5.48073
_cell_length_c       7.07038
_cell_angle_alpha    106.702
_cell_angle_beta     107.034
_cell_angle_gamma    90.1008

_symmetry_Int_Tables_number  2
_chemical_formula_structural  KSO4
_chemical_formula_sum  K2S2O8
_cell_volume  179.15190814812874
_cell_formula_units_Z  2
loop_
  _symmetry_equiv_pos_site_id
 _symmetry_equiv_pos_as_xyz
 1  'x, y, z'
loop_
 _atom_site_type_symbol
 _atom_site_label
 _atom_site_symmetry_multiplicity
 _atom_site_fract_x
 _atom_site_fract_y
 _atom_site_fract_z
 _atom_site_fract_occupancy
 K  K1  1  0.36971  0.19262  0.27216  1
 K  K2  1  0.63029  0.80738  0.72784  1
 O  O1  1  0.21850  0.09628  0.84762  1
 O  O2  1  0.78150  0.90372  0.15238  1
 O  O3  1  0.81064  0.20873  0.61887  1
 O  O4  1  0.18936  0.79127  0.38113  1
 O  O5  1  0.91444  0.45642  0.05860  1
 O  O6  1  0.08556  0.54358  0.94140  1
 O  O7  1  0.73135  0.59610  0.33723  1
 O  O8  1  0.26865  0.40390  0.66277  1
 S  S1  1  0.09584  0.28422  0.74741  1
 S  S2  1  0.90416  0.71578  0.25259  1
