CIF file written using JARVIS-Tools package.
data_V3AsC
_symmetry_space_group_name_H-M  'Cmcm'
_cell_length_a       3.13041
_cell_length_b       5.31982
_cell_length_c       7.70084
_cell_angle_alpha    90
_cell_angle_beta     90
_cell_angle_gamma    107.111

_symmetry_Int_Tables_number  63
_chemical_formula_structural  V3AsC
_chemical_formula_sum  V6As2C2
_cell_volume  122.56720693002745
_cell_formula_units_Z  2
loop_
  _symmetry_equiv_pos_site_id
 _symmetry_equiv_pos_as_xyz
 1  'x, y, z'
loop_
 _atom_site_type_symbol
 _atom_site_label
 _atom_site_symmetry_multiplicity
 _atom_site_fract_x
 _atom_site_fract_y
 _atom_site_fract_z
 _atom_site_fract_occupancy
 As  As1  1  0.24105  0.48209  0.25000  1
 As  As2  1  0.75895  0.51791  0.75000  1
 C  C1  1  0.50000  0.00000  0.50000  1
 C  C2  1  0.50000  0.00000  0.00000  1
 V  V1  1  0.12620  0.25239  0.55204  1
 V  V2  1  0.54533  0.09065  0.25000  1
 V  V3  1  0.45467  0.90935  0.75000  1
 V  V4  1  0.12620  0.25239  0.94796  1
 V  V5  1  0.87380  0.74761  0.05204  1
 V  V6  1  0.87380  0.74761  0.44796  1
