CIF file written using JARVIS-Tools package.
data_EuZn2As2
_symmetry_space_group_name_H-M  'P-3m1'
_cell_length_a       4.31664
_cell_length_b       4.31663
_cell_length_c       6.57452
_cell_angle_alpha    90
_cell_angle_beta     89.9998
_cell_angle_gamma    120

_symmetry_Int_Tables_number  164
_chemical_formula_structural  EuZn2As2
_chemical_formula_sum  EuZn2As2
_cell_volume  106.09270835955223
_cell_formula_units_Z  1
loop_
  _symmetry_equiv_pos_site_id
 _symmetry_equiv_pos_as_xyz
 1  'x, y, z'
loop_
 _atom_site_type_symbol
 _atom_site_label
 _atom_site_symmetry_multiplicity
 _atom_site_fract_x
 _atom_site_fract_y
 _atom_site_fract_z
 _atom_site_fract_occupancy
 As  As1  1  0.66667  0.33333  0.73797  1
 As  As2  1  0.33333  0.66667  0.26203  1
 Eu  Eu1  1  0.00000  0.00000  0.00000  1
 Zn  Zn1  1  0.66667  0.33333  0.34586  1
 Zn  Zn2  1  0.33333  0.66667  0.65414  1
