CIF file written using JARVIS-Tools package.
data_Pm2NiRh
_symmetry_space_group_name_H-M  'Fm-3m'
_cell_length_a       4.92592
_cell_length_b       4.92594
_cell_length_c       4.92602
_cell_angle_alpha    59.9964
_cell_angle_beta     59.9968
_cell_angle_gamma    59.9979

_symmetry_Int_Tables_number  225
_chemical_formula_structural  Pm2NiRh
_chemical_formula_sum  Pm2NiRh
_cell_volume  84.51378030273794
_cell_formula_units_Z  1
loop_
  _symmetry_equiv_pos_site_id
 _symmetry_equiv_pos_as_xyz
 1  'x, y, z'
loop_
 _atom_site_type_symbol
 _atom_site_label
 _atom_site_symmetry_multiplicity
 _atom_site_fract_x
 _atom_site_fract_y
 _atom_site_fract_z
 _atom_site_fract_occupancy
 Ni  Ni1  1  0.25000  0.25000  0.25000  1
 Pm  Pm1  1  0.99999  0.99999  0.99999  1
 Pm  Pm2  1  0.50001  0.50001  0.50001  1
 Rh  Rh1  1  0.75000  0.75000  0.75000  1
