CIF file written using JARVIS-Tools package.
data_BaSi
_symmetry_space_group_name_H-M  'Cmcm'
_cell_length_a       4.15039
_cell_length_b       5.05709
_cell_length_c       6.55616
_cell_angle_alpha    112.685
_cell_angle_beta     90.0003
_cell_angle_gamma    90.0009

_symmetry_Int_Tables_number  63
_chemical_formula_structural  BaSi
_chemical_formula_sum  Ba2Si2
_cell_volume  126.96189204726039
_cell_formula_units_Z  2
loop_
  _symmetry_equiv_pos_site_id
 _symmetry_equiv_pos_as_xyz
 1  'x, y, z'
loop_
 _atom_site_type_symbol
 _atom_site_label
 _atom_site_symmetry_multiplicity
 _atom_site_fract_x
 _atom_site_fract_y
 _atom_site_fract_z
 _atom_site_fract_occupancy
 Ba  Ba1  1  0.75005  0.64142  0.28285  1
 Ba  Ba2  1  0.24995  0.35858  0.71715  1
 Si  Si1  1  0.74998  0.94100  0.88198  1
 Si  Si2  1  0.25002  0.05900  0.11802  1
