CIF file written using JARVIS-Tools package.
data_ZnNi2O4
_symmetry_space_group_name_H-M  'Fd-3m'
_cell_length_a       5.83732
_cell_length_b       5.83774
_cell_length_c       5.83786
_cell_angle_alpha    60.0002
_cell_angle_beta     60.0002
_cell_angle_gamma    60.0037

_symmetry_Int_Tables_number  227
_chemical_formula_structural  ZnNi2O4
_chemical_formula_sum  Zn2Ni4O8
_cell_volume  140.67300355730615
_cell_formula_units_Z  2
loop_
  _symmetry_equiv_pos_site_id
 _symmetry_equiv_pos_as_xyz
 1  'x, y, z'
loop_
 _atom_site_type_symbol
 _atom_site_label
 _atom_site_symmetry_multiplicity
 _atom_site_fract_x
 _atom_site_fract_y
 _atom_site_fract_z
 _atom_site_fract_occupancy
 Ni  Ni1  1  0.50000  0.50000  0.50000  1
 Ni  Ni2  1  0.00000  0.00000  0.50000  1
 Ni  Ni3  1  -0.00000  0.50000  0.50000  1
 Ni  Ni4  1  -0.00000  0.50000  0.00000  1
 O  O1  1  0.21002  0.26331  0.26328  1
 O  O2  1  0.23663  0.29005  0.73672  1
 O  O3  1  0.23664  0.73669  0.73672  1
 O  O4  1  0.23663  0.73668  0.29009  1
 O  O5  1  0.76336  0.26331  0.26328  1
 O  O6  1  0.76337  0.26332  0.70991  1
 O  O7  1  0.76337  0.70995  0.26328  1
 O  O8  1  0.78998  0.73669  0.73672  1
 Zn  Zn1  1  0.37496  0.87503  0.87509  1
 Zn  Zn2  1  0.62504  0.12497  0.12491  1
