CIF file written using JARVIS-Tools package.
data_ScI3O9
_symmetry_space_group_name_H-M  'R-3'
_cell_length_a       7.33321
_cell_length_b       7.33321
_cell_length_c       7.33321
_cell_angle_alpha    83.7749
_cell_angle_beta     83.7748
_cell_angle_gamma    83.7749

_symmetry_Int_Tables_number  148
_chemical_formula_structural  ScI3O9
_chemical_formula_sum  Sc2I6O8
_cell_volume  387.84472773848915
_cell_formula_units_Z  2
loop_
  _symmetry_equiv_pos_site_id
 _symmetry_equiv_pos_as_xyz
 1  'x, y, z'
loop_
 _atom_site_type_symbol
 _atom_site_label
 _atom_site_symmetry_multiplicity
 _atom_site_fract_x
 _atom_site_fract_y
 _atom_site_fract_z
 _atom_site_fract_occupancy
 I  I1  1  0.41362  0.71319  0.12743  1
 I  I2  1  0.71319  0.12743  0.41362  1
 I  I3  1  0.58638  0.28681  0.87257  1
 I  I4  1  0.87257  0.58638  0.28681  1
 I  I5  1  0.28681  0.87257  0.58638  1
 I  I6  1  0.12743  0.41362  0.71319  1
 O  O1  1  0.06556  0.94387  0.71165  1
 O  O2  1  0.72212  0.42867  0.21116  1
 O  O3  1  0.42867  0.21116  0.72212  1
 O  O4  1  0.78884  0.27788  0.57133  1
 O  O5  1  0.27788  0.57133  0.78884  1
 O  O6  1  0.57133  0.78884  0.27788  1
 O  O7  1  0.29548  0.08342  0.42289  1
 O  O8  1  0.08342  0.42289  0.29548  1
 O  O9  1  0.28835  0.93444  0.05613  1
 O  O10  1  0.94387  0.71165  0.06556  1
 O  O11  1  0.93444  0.05613  0.28835  1
 O  O12  1  0.21116  0.72212  0.42867  1
 O  O13  1  0.71165  0.06556  0.94387  1
 O  O14  1  0.57711  0.70452  0.91658  1
 O  O15  1  0.91658  0.57711  0.70452  1
 O  O16  1  0.70452  0.91658  0.57711  1
 O  O17  1  0.42289  0.29548  0.08342  1
 O  O18  1  0.05613  0.28835  0.93444  1
 Sc  Sc1  1  0.82462  0.82462  0.82462  1
 Sc  Sc2  1  0.17538  0.17538  0.17538  1
