CIF file written using JARVIS-Tools package.
data_KMnO2
_symmetry_space_group_name_H-M  'C2/m'
_cell_length_a       2.90839
_cell_length_b       3.4384
_cell_length_c       6.1351
_cell_angle_alpha    89.1221
_cell_angle_beta     76.2893
_cell_angle_gamma    64.9807

_symmetry_Int_Tables_number  12
_chemical_formula_structural  KMnO2
_chemical_formula_sum  KMnO2
_cell_volume  53.75934092838095
_cell_formula_units_Z  1
loop_
  _symmetry_equiv_pos_site_id
 _symmetry_equiv_pos_as_xyz
 1  'x, y, z'
loop_
 _atom_site_type_symbol
 _atom_site_label
 _atom_site_symmetry_multiplicity
 _atom_site_fract_x
 _atom_site_fract_y
 _atom_site_fract_z
 _atom_site_fract_occupancy
 K  K1  1  0.00000  0.49999  0.50000  1
 Mn  Mn1  1  -0.00001  0.00002  0.00000  1
 O  O1  1  0.49771  0.82059  0.18399  1
 O  O2  1  0.50229  0.17941  0.81601  1
