CIF file written using JARVIS-Tools package.
data_LiY2Tc
_symmetry_space_group_name_H-M  'I4/mmm'
_cell_length_a       15.379
_cell_length_b       8.09197
_cell_length_c       8.09197
_cell_angle_alpha    25.4423
_cell_angle_beta     18.1468
_cell_angle_gamma    18.1468

_symmetry_Int_Tables_number  139
_chemical_formula_structural  LiY2Tc
_chemical_formula_sum  LiY2Tc
_cell_volume  97.68346961514334
_cell_formula_units_Z  1
loop_
  _symmetry_equiv_pos_site_id
 _symmetry_equiv_pos_as_xyz
 1  'x, y, z'
loop_
 _atom_site_type_symbol
 _atom_site_label
 _atom_site_symmetry_multiplicity
 _atom_site_fract_x
 _atom_site_fract_y
 _atom_site_fract_z
 _atom_site_fract_occupancy
 Li  Li1  1  0.00000  0.00000  0.00000  1
 Tc  Tc1  1  0.50000  -0.00000  -0.00000  1
 Y  Y1  1  0.65982  -0.00000  0.00000  1
 Y  Y2  1  0.34018  0.00000  -0.00000  1
