CIF file written using JARVIS-Tools package.
data_HfCu2Te3
_symmetry_space_group_name_H-M  'C2/m'
_cell_length_a       4.08881
_cell_length_b       7.31343
_cell_length_c       10.3989
_cell_angle_alpha    97.8014
_cell_angle_beta     101.338
_cell_angle_gamma    90

_symmetry_Int_Tables_number  12
_chemical_formula_structural  HfCu2Te3
_chemical_formula_sum  Hf2Cu4Te6
_cell_volume  301.9564238890362
_cell_formula_units_Z  2
loop_
  _symmetry_equiv_pos_site_id
 _symmetry_equiv_pos_as_xyz
 1  'x, y, z'
loop_
 _atom_site_type_symbol
 _atom_site_label
 _atom_site_symmetry_multiplicity
 _atom_site_fract_x
 _atom_site_fract_y
 _atom_site_fract_z
 _atom_site_fract_occupancy
 Cu  Cu1  1  0.71276  0.42833  0.42552  1
 Cu  Cu2  1  0.28724  0.57167  0.57448  1
 Cu  Cu3  1  0.04810  0.15044  0.09620  1
 Cu  Cu4  1  0.95190  0.84956  0.90380  1
 Hf  Hf1  1  0.64579  0.05581  0.29158  1
 Hf  Hf2  1  0.35421  0.94419  0.70842  1
 Te  Te1  1  0.75112  0.78691  0.50224  1
 Te  Te2  1  0.91698  0.17973  0.83396  1
 Te  Te3  1  0.58269  0.36693  0.16538  1
 Te  Te4  1  0.24888  0.21309  0.49776  1
 Te  Te5  1  0.41731  0.63307  0.83462  1
 Te  Te6  1  0.08302  0.82027  0.16604  1
