CIF file written using JARVIS-Tools package.
data_Sm3Au
_symmetry_space_group_name_H-M  'P6_3/mmc'
_cell_length_a       6.90057
_cell_length_b       6.90072
_cell_length_c       5.24903
_cell_angle_alpha    90.005
_cell_angle_beta     89.9954
_cell_angle_gamma    119.993

_symmetry_Int_Tables_number  194
_chemical_formula_structural  Sm3Au
_chemical_formula_sum  Sm6Au2
_cell_volume  216.47998869149515
_cell_formula_units_Z  2
loop_
  _symmetry_equiv_pos_site_id
 _symmetry_equiv_pos_as_xyz
 1  'x, y, z'
loop_
 _atom_site_type_symbol
 _atom_site_label
 _atom_site_symmetry_multiplicity
 _atom_site_fract_x
 _atom_site_fract_y
 _atom_site_fract_z
 _atom_site_fract_occupancy
 Au  Au1  1  0.33333  0.66667  0.75000  1
 Au  Au2  1  0.66667  0.33333  0.25000  1
 Sm  Sm1  1  0.17653  0.35310  0.25001  1
 Sm  Sm2  1  0.64692  0.82349  0.25001  1
 Sm  Sm3  1  0.17650  0.82350  0.24998  1
 Sm  Sm4  1  0.82347  0.64690  0.74999  1
 Sm  Sm5  1  0.35308  0.17651  0.74999  1
 Sm  Sm6  1  0.82349  0.17650  0.75002  1
