CIF file written using JARVIS-Tools package.
data_LiGePt2
_symmetry_space_group_name_H-M  'P-1'
_cell_length_a       10.4495
_cell_length_b       7.09066
_cell_length_c       4.52108
_cell_angle_alpha    42.7028
_cell_angle_beta     32.7406
_cell_angle_gamma    20.1732

_symmetry_Int_Tables_number  2
_chemical_formula_structural  LiGePt2
_chemical_formula_sum  LiGePt2
_cell_volume  59.73651455865017
_cell_formula_units_Z  1
loop_
  _symmetry_equiv_pos_site_id
 _symmetry_equiv_pos_as_xyz
 1  'x, y, z'
loop_
 _atom_site_type_symbol
 _atom_site_label
 _atom_site_symmetry_multiplicity
 _atom_site_fract_x
 _atom_site_fract_y
 _atom_site_fract_z
 _atom_site_fract_occupancy
 Ge  Ge1  1  0.50004  -0.00004  -0.00003  1
 Li  Li1  1  0.00004  -0.00004  0.99996  1
 Pt  Pt1  1  0.74788  0.00568  0.99841  1
 Pt  Pt2  1  0.25205  -0.00560  0.00166  1
