CIF file written using JARVIS-Tools package.
data_AlF3
_symmetry_space_group_name_H-M  'P-1'
_cell_length_a       3.63054
_cell_length_b       5.27441
_cell_length_c       5.92771
_cell_angle_alpha    63.749
_cell_angle_beta     89.7756
_cell_angle_gamma    89.677

_symmetry_Int_Tables_number  2
_chemical_formula_structural  AlF3
_chemical_formula_sum  Al2F6
_cell_volume  101.80075691514568
_cell_formula_units_Z  2
loop_
  _symmetry_equiv_pos_site_id
 _symmetry_equiv_pos_as_xyz
 1  'x, y, z'
loop_
 _atom_site_type_symbol
 _atom_site_label
 _atom_site_symmetry_multiplicity
 _atom_site_fract_x
 _atom_site_fract_y
 _atom_site_fract_z
 _atom_site_fract_occupancy
 Al  Al1  1  0.30578  0.55800  0.52033  1
 Al  Al2  1  0.30566  0.82771  0.98289  1
 F  F1  1  0.30571  0.19286  0.75160  1
 F  F2  1  0.30572  0.69286  0.75161  1
 F  F3  1  0.80567  0.83116  -0.02364  1
 F  F4  1  0.80576  0.55458  0.52685  1
 F  F5  1  0.30368  0.91474  0.25238  1
 F  F6  1  0.30775  0.47096  0.25084  1
