CIF file written using JARVIS-Tools package.
data_Eu2O3
_symmetry_space_group_name_H-M  'P-3m1'
_cell_length_a       3.75323
_cell_length_b       3.75364
_cell_length_c       5.92013
_cell_angle_alpha    90
_cell_angle_beta     89.9967
_cell_angle_gamma    120.004

_symmetry_Int_Tables_number  164
_chemical_formula_structural  Eu2O3
_chemical_formula_sum  Eu2O3
_cell_volume  72.22772339929142
_cell_formula_units_Z  1
loop_
  _symmetry_equiv_pos_site_id
 _symmetry_equiv_pos_as_xyz
 1  'x, y, z'
loop_
 _atom_site_type_symbol
 _atom_site_label
 _atom_site_symmetry_multiplicity
 _atom_site_fract_x
 _atom_site_fract_y
 _atom_site_fract_z
 _atom_site_fract_occupancy
 Eu  Eu1  1  0.66662  0.33331  0.75198  1
 Eu  Eu2  1  0.33338  0.66669  0.24802  1
 O  O1  1  0.00000  0.00000  0.00000  1
 O  O2  1  0.66665  0.33333  0.35447  1
 O  O3  1  0.33335  0.66667  0.64553  1
