CIF file written using JARVIS-Tools package.
data_Nb2CuRe
_symmetry_space_group_name_H-M  'Immm'
_cell_length_a       9.77062
_cell_length_b       10.3654
_cell_length_c       10.3654
_cell_angle_alpha    60.7813
_cell_angle_beta     61.8806
_cell_angle_gamma    61.8807

_symmetry_Int_Tables_number  71
_chemical_formula_structural  Nb2CuRe
_chemical_formula_sum  Nb2CuRe
_cell_volume  767.3460987250459
_cell_formula_units_Z  1
loop_
  _symmetry_equiv_pos_site_id
 _symmetry_equiv_pos_as_xyz
 1  'x, y, z'
loop_
 _atom_site_type_symbol
 _atom_site_label
 _atom_site_symmetry_multiplicity
 _atom_site_fract_x
 _atom_site_fract_y
 _atom_site_fract_z
 _atom_site_fract_occupancy
 Cu  Cu1  1  0.00000  0.00000  0.00000  1
 Nb  Nb1  1  0.73274  -0.00000  -0.00000  1
 Nb  Nb2  1  0.26726  0.00000  0.00000  1
 Re  Re1  1  0.50000  -0.00000  -0.00000  1
