CIF file written using JARVIS-Tools package.
data_Ca
_symmetry_space_group_name_H-M  'P6_3/mmc'
_cell_length_a       3.85561
_cell_length_b       6.35588
_cell_length_c       6.67853
_cell_angle_alpha    90
_cell_angle_beta     90
_cell_angle_gamma    90

_symmetry_Int_Tables_number  194
_chemical_formula_structural  Ca
_chemical_formula_sum  Ca4
_cell_volume  163.6628113448916
_cell_formula_units_Z  4
loop_
  _symmetry_equiv_pos_site_id
 _symmetry_equiv_pos_as_xyz
 1  'x, y, z'
loop_
 _atom_site_type_symbol
 _atom_site_label
 _atom_site_symmetry_multiplicity
 _atom_site_fract_x
 _atom_site_fract_y
 _atom_site_fract_z
 _atom_site_fract_occupancy
 Ca  Ca1  1  0.50018  0.75000  0.33341  1
 Ca  Ca2  1  0.49982  0.25000  0.66659  1
 Ca  Ca3  1  0.00018  0.25000  0.16659  1
 Ca  Ca4  1  -0.00018  0.75000  0.83341  1
