CIF file written using JARVIS-Tools package.
data_CrS2
_symmetry_space_group_name_H-M  'F-43m'
_cell_length_a       6.70528
_cell_length_b       6.70496
_cell_length_c       6.70474
_cell_angle_alpha    60.0168
_cell_angle_beta     60.0122
_cell_angle_gamma    60.0058

_symmetry_Int_Tables_number  216
_chemical_formula_structural  CrS2
_chemical_formula_sum  Cr4S8
_cell_volume  213.20349855302146
_cell_formula_units_Z  4
loop_
  _symmetry_equiv_pos_site_id
 _symmetry_equiv_pos_as_xyz
 1  'x, y, z'
loop_
 _atom_site_type_symbol
 _atom_site_label
 _atom_site_symmetry_multiplicity
 _atom_site_fract_x
 _atom_site_fract_y
 _atom_site_fract_z
 _atom_site_fract_occupancy
 Cr  Cr1  1  0.49335  0.51980  0.49347  1
 Cr  Cr2  1  0.49342  0.99347  0.01978  1
 Cr  Cr3  1  0.49345  0.99338  0.49333  1
 Cr  Cr4  1  0.01978  0.99335  0.49341  1
 S  S1  1  0.24834  0.74842  0.75495  1
 S  S2  1  0.24828  0.25494  0.24842  1
 S  S3  1  0.75495  0.74828  0.24835  1
 S  S4  1  0.24842  0.74835  0.24828  1
 S  S5  1  0.74345  0.76971  0.74338  1
 S  S6  1  0.74341  0.24338  0.26974  1
 S  S7  1  0.74342  0.24346  0.74349  1
 S  S8  1  0.26973  0.24345  0.74341  1
