CIF file written using JARVIS-Tools package.
data_Ca3UO6
_symmetry_space_group_name_H-M  'R-3'
_cell_length_a       6.75742
_cell_length_b       6.75742
_cell_length_c       6.75742
_cell_angle_alpha    91.3092
_cell_angle_beta     91.3093
_cell_angle_gamma    91.3092

_symmetry_Int_Tables_number  148
_chemical_formula_structural  Ca3UO6
_chemical_formula_sum  Ca6U2O2
_cell_volume  308.3172829308643
_cell_formula_units_Z  2
loop_
  _symmetry_equiv_pos_site_id
 _symmetry_equiv_pos_as_xyz
 1  'x, y, z'
loop_
 _atom_site_type_symbol
 _atom_site_label
 _atom_site_symmetry_multiplicity
 _atom_site_fract_x
 _atom_site_fract_y
 _atom_site_fract_z
 _atom_site_fract_occupancy
 Ca  Ca1  1  0.55666  0.25061  0.06043  1
 Ca  Ca2  1  0.93957  0.44334  0.74939  1
 Ca  Ca3  1  0.74939  0.93957  0.44334  1
 Ca  Ca4  1  0.44334  0.74939  0.93957  1
 Ca  Ca5  1  0.25061  0.06043  0.55666  1
 Ca  Ca6  1  0.06043  0.55666  0.25061  1
 O  O1  1  0.93389  0.07569  0.70593  1
 O  O2  1  0.07569  0.70593  0.93389  1
 O  O3  1  0.29407  0.06611  0.92431  1
 O  O4  1  0.06611  0.92431  0.29407  1
 O  O5  1  0.92431  0.29407  0.06611  1
 O  O6  1  0.79533  0.58795  0.45866  1
 O  O7  1  0.20467  0.41205  0.54134  1
 O  O8  1  0.70593  0.93389  0.07569  1
 O  O9  1  0.54134  0.20467  0.41205  1
 O  O10  1  0.45866  0.79533  0.58795  1
 O  O11  1  0.58795  0.45866  0.79533  1
 O  O12  1  0.41205  0.54134  0.20467  1
 U  U1  1  0.00000  0.00000  0.00000  1
 U  U2  1  0.50000  0.50000  0.50000  1
