data_image0
_chemical_formula_structural       Ga6Gd2Mn
_chemical_formula_sum              "Ga6 Gd2 Mn1"
_cell_length_a       6.20843
_cell_length_b       6.20843
_cell_length_c       6.20843
_cell_angle_alpha    120
_cell_angle_beta     90
_cell_angle_gamma    120

_space_group_name_H-M_alt    "P 1"
_space_group_IT_number       1

loop_
  _space_group_symop_operation_xyz
  'x, y, z'

loop_
  _atom_site_type_symbol
  _atom_site_label
  _atom_site_symmetry_multiplicity
  _atom_site_fract_x
  _atom_site_fract_y
  _atom_site_fract_z
  _atom_site_occupancy
  Ga  Ga1       1.0  0.78100  0.00000  0.21900  1.0000
  Ga  Ga2       1.0  0.21900  0.00000  0.21900  1.0000
  Ga  Ga3       1.0  0.21900  0.43800  0.21900  1.0000
  Ga  Ga4       1.0  0.21900  0.00000  0.78100  1.0000
  Ga  Ga5       1.0  0.78100  0.00000  0.78100  1.0000
  Ga  Ga6       1.0  0.78100  0.56200  0.78100  1.0000
  Gd  Gd1       1.0  0.75000  0.50000  0.25000  1.0000
  Gd  Gd2       1.0  0.25000  0.50000  0.75000  1.0000
  Mn  Mn1       1.0  0.50000  0.00000  0.50000  1.0000
