CIF file written using JARVIS-Tools package.
data_LiEuO2
_symmetry_space_group_name_H-M  'Pnma'
_cell_length_a       11.4362
_cell_length_b       3.45331
_cell_length_c       5.32407
_cell_angle_alpha    90
_cell_angle_beta     90
_cell_angle_gamma    90

_symmetry_Int_Tables_number  62
_chemical_formula_structural  LiEuO2
_chemical_formula_sum  Li4Eu4O8
_cell_volume  210.26202540149805
_cell_formula_units_Z  4
loop_
  _symmetry_equiv_pos_site_id
 _symmetry_equiv_pos_as_xyz
 1  'x, y, z'
loop_
 _atom_site_type_symbol
 _atom_site_label
 _atom_site_symmetry_multiplicity
 _atom_site_fract_x
 _atom_site_fract_y
 _atom_site_fract_z
 _atom_site_fract_occupancy
 Eu  Eu1  1  0.85959  0.25000  0.45527  1
 Eu  Eu2  1  0.35959  0.25000  0.04473  1
 Eu  Eu3  1  0.14041  0.75000  0.54473  1
 Eu  Eu4  1  0.64041  0.75000  0.95527  1
 Li  Li1  1  0.56437  0.25000  0.40517  1
 Li  Li2  1  0.06437  0.25000  0.09483  1
 Li  Li3  1  0.43563  0.75000  0.59483  1
 Li  Li4  1  0.93563  0.75000  0.90517  1
 O  O1  1  0.52748  0.25000  0.75472  1
 O  O2  1  0.02748  0.25000  0.74528  1
 O  O3  1  0.47252  0.75000  0.24528  1
 O  O4  1  0.97252  0.75000  0.25472  1
 O  O5  1  0.70072  0.25000  0.20383  1
 O  O6  1  0.20072  0.25000  0.29617  1
 O  O7  1  0.29928  0.75000  0.79617  1
 O  O8  1  0.79928  0.75000  0.70383  1
