CIF file written using JARVIS-Tools package.
data_CoO2
_symmetry_space_group_name_H-M  'Cmcm'
_cell_length_a       2.76978
_cell_length_b       4.74174
_cell_length_c       9.22736
_cell_angle_alpha    90
_cell_angle_beta     90
_cell_angle_gamma    106.981

_symmetry_Int_Tables_number  63
_chemical_formula_structural  CoO2
_chemical_formula_sum  Co4O8
_cell_volume  115.90454041446218
_cell_formula_units_Z  4
loop_
  _symmetry_equiv_pos_site_id
 _symmetry_equiv_pos_as_xyz
 1  'x, y, z'
loop_
 _atom_site_type_symbol
 _atom_site_label
 _atom_site_symmetry_multiplicity
 _atom_site_fract_x
 _atom_site_fract_y
 _atom_site_fract_z
 _atom_site_fract_occupancy
 Co  Co1  1  0.86588  0.73176  0.07477  1
 Co  Co2  1  0.13412  0.26824  0.92523  1
 Co  Co3  1  0.86588  0.73176  0.42523  1
 Co  Co4  1  0.13412  0.26824  0.57477  1
 O  O1  1  0.23517  0.47033  0.39129  1
 O  O2  1  0.76483  0.52967  0.60871  1
 O  O3  1  0.76483  0.52967  0.89129  1
 O  O4  1  0.23517  0.47033  0.10871  1
 O  O5  1  0.94465  0.88930  0.25000  1
 O  O6  1  0.05535  0.11070  0.75000  1
 O  O7  1  0.50000  0.00000  0.00000  1
 O  O8  1  0.50000  0.00000  0.50000  1
