CIF file written using JARVIS-Tools package.
data_Li2VOF3
_symmetry_space_group_name_H-M  'Pc'
_cell_length_a       4.99322
_cell_length_b       5.41792
_cell_length_c       5.89324
_cell_angle_alpha    117.654
_cell_angle_beta     90.006
_cell_angle_gamma    90.0076

_symmetry_Int_Tables_number  7
_chemical_formula_structural  Li2VOF3
_chemical_formula_sum  Li4V2O2F6
_cell_volume  141.21736822188657
_cell_formula_units_Z  2
loop_
  _symmetry_equiv_pos_site_id
 _symmetry_equiv_pos_as_xyz
 1  'x, y, z'
loop_
 _atom_site_type_symbol
 _atom_site_label
 _atom_site_symmetry_multiplicity
 _atom_site_fract_x
 _atom_site_fract_y
 _atom_site_fract_z
 _atom_site_fract_occupancy
 F  F1  1  0.65951  0.30825  0.63980  1
 F  F2  1  0.17151  0.22069  0.35396  1
 F  F3  1  0.32444  0.74566  0.89108  1
 F  F4  1  0.19641  0.24550  0.89084  1
 F  F5  1  0.86134  0.80795  0.63978  1
 F  F6  1  0.34942  0.72059  0.35392  1
 Li  Li1  1  0.99490  0.13238  0.58710  1
 Li  Li2  1  0.52142  0.06658  0.30537  1
 Li  Li3  1  0.52572  0.63271  0.58740  1
 Li  Li4  1  0.99945  0.56658  0.30534  1
 O  O1  1  0.80858  0.76534  0.12727  1
 O  O2  1  0.71237  0.26497  0.12658  1
 V  V1  1  0.98168  0.98993  0.01137  1
 V  V2  1  0.53918  0.48996  0.01136  1
