CIF file written using JARVIS-Tools package.
data_LuAsO4
_symmetry_space_group_name_H-M  'I4_1/amd'
_cell_length_a       5.83767
_cell_length_b       5.83766
_cell_length_c       5.83766
_cell_angle_alpha    106.843
_cell_angle_beta     106.843
_cell_angle_gamma    114.865

_symmetry_Int_Tables_number  141
_chemical_formula_structural  LuAsO4
_chemical_formula_sum  Lu2As2O8
_cell_volume  152.11458207072056
_cell_formula_units_Z  2
loop_
  _symmetry_equiv_pos_site_id
 _symmetry_equiv_pos_as_xyz
 1  'x, y, z'
loop_
 _atom_site_type_symbol
 _atom_site_label
 _atom_site_symmetry_multiplicity
 _atom_site_fract_x
 _atom_site_fract_y
 _atom_site_fract_z
 _atom_site_fract_occupancy
 As  As1  1  0.37500  0.62500  0.75000  1
 As  As2  1  0.62500  0.37500  0.25000  1
 Lu  Lu1  1  0.12500  0.87500  0.25000  1
 Lu  Lu2  1  0.87500  0.12500  0.75000  1
 O  O1  1  0.80606  0.74045  0.43440  1
 O  O2  1  0.37166  0.80606  0.56560  1
 O  O3  1  0.74045  0.80606  0.93440  1
 O  O4  1  0.80606  0.37166  0.06560  1
 O  O5  1  0.62834  0.19394  0.43440  1
 O  O6  1  0.19394  0.25955  0.56560  1
 O  O7  1  0.19394  0.62834  0.93440  1
 O  O8  1  0.25955  0.19394  0.06560  1
