CIF file written using JARVIS-Tools package.
data_TeO2
_symmetry_space_group_name_H-M  'P4_2/mnm'
_cell_length_a       5.06849
_cell_length_b       5.06849
_cell_length_c       3.44741
_cell_angle_alpha    90
_cell_angle_beta     90
_cell_angle_gamma    90

_symmetry_Int_Tables_number  136
_chemical_formula_structural  TeO2
_chemical_formula_sum  Te2O4
_cell_volume  88.56262447975905
_cell_formula_units_Z  2
loop_
  _symmetry_equiv_pos_site_id
 _symmetry_equiv_pos_as_xyz
 1  'x, y, z'
loop_
 _atom_site_type_symbol
 _atom_site_label
 _atom_site_symmetry_multiplicity
 _atom_site_fract_x
 _atom_site_fract_y
 _atom_site_fract_z
 _atom_site_fract_occupancy
 O  O1  1  0.30307  0.30307  0.00000  1
 O  O2  1  0.80307  0.19693  0.50000  1
 O  O3  1  0.19693  0.80307  0.50000  1
 O  O4  1  0.69693  0.69693  0.00000  1
 Te  Te1  1  0.00000  0.00000  0.00000  1
 Te  Te2  1  0.50000  0.50000  0.50000  1
