CIF file written using JARVIS-Tools package.
data_NaSO4
_symmetry_space_group_name_H-M  'P-1'
_cell_length_a       4.78956
_cell_length_b       5.58922
_cell_length_c       6.10665
_cell_angle_alpha    101.34
_cell_angle_beta     103.127
_cell_angle_gamma    97.4359

_symmetry_Int_Tables_number  2
_chemical_formula_structural  NaSO4
_chemical_formula_sum  Na2S2O8
_cell_volume  153.47844120512914
_cell_formula_units_Z  2
loop_
  _symmetry_equiv_pos_site_id
 _symmetry_equiv_pos_as_xyz
 1  'x, y, z'
loop_
 _atom_site_type_symbol
 _atom_site_label
 _atom_site_symmetry_multiplicity
 _atom_site_fract_x
 _atom_site_fract_y
 _atom_site_fract_z
 _atom_site_fract_occupancy
 Na  Na1  1  0.03326  0.31328  0.20890  1
 Na  Na2  1  0.96674  0.68672  0.79110  1
 O  O1  1  0.77143  0.89494  0.10724  1
 O  O2  1  0.22857  0.10506  0.89276  1
 O  O3  1  0.57958  0.03775  0.41499  1
 O  O4  1  0.22856  0.35981  0.60750  1
 O  O5  1  0.42042  0.96225  0.58501  1
 O  O6  1  0.31640  0.64942  0.12450  1
 O  O7  1  0.77144  0.64019  0.39250  1
 O  O8  1  0.68360  0.35058  0.87550  1
 S  S1  1  0.61098  0.77759  0.24460  1
 S  S2  1  0.38902  0.22241  0.75540  1
