CIF file written using JARVIS-Tools package.
data_TaMn2Ge
_symmetry_space_group_name_H-M  'Fm-3m'
_cell_length_a       4.20871
_cell_length_b       4.20866
_cell_length_c       4.20866
_cell_angle_alpha    59.9997
_cell_angle_beta     60.0007
_cell_angle_gamma    59.9999

_symmetry_Int_Tables_number  225
_chemical_formula_structural  TaMn2Ge
_chemical_formula_sum  TaMn2Ge
_cell_volume  52.7135786809644
_cell_formula_units_Z  1
loop_
  _symmetry_equiv_pos_site_id
 _symmetry_equiv_pos_as_xyz
 1  'x, y, z'
loop_
 _atom_site_type_symbol
 _atom_site_label
 _atom_site_symmetry_multiplicity
 _atom_site_fract_x
 _atom_site_fract_y
 _atom_site_fract_z
 _atom_site_fract_occupancy
 Ge  Ge1  1  0.25000  0.24999  0.25000  1
 Mn  Mn1  1  0.49999  0.50001  0.50000  1
 Mn  Mn2  1  0.00001  1.00000  1.00000  1
 Ta  Ta1  1  0.75000  0.75000  0.75000  1
