CIF file written using JARVIS-Tools package.
data_Y2GaAu
_symmetry_space_group_name_H-M  'Fm-3m'
_cell_length_a       12.4433
_cell_length_b       8.79909
_cell_length_c       8.79908
_cell_angle_alpha    33.5664
_cell_angle_beta     19.4763
_cell_angle_gamma    19.4762

_symmetry_Int_Tables_number  225
_chemical_formula_structural  Y2GaAu
_chemical_formula_sum  Y2GaAu
_cell_volume  92.74722929512096
_cell_formula_units_Z  1
loop_
  _symmetry_equiv_pos_site_id
 _symmetry_equiv_pos_as_xyz
 1  'x, y, z'
loop_
 _atom_site_type_symbol
 _atom_site_label
 _atom_site_symmetry_multiplicity
 _atom_site_fract_x
 _atom_site_fract_y
 _atom_site_fract_z
 _atom_site_fract_occupancy
 Au  Au1  1  0.50000  -0.00000  -0.00000  1
 Ga  Ga1  1  0.00000  0.00000  0.00000  1
 Y  Y1  1  0.75002  -0.00001  -0.00001  1
 Y  Y2  1  0.24998  0.00001  0.00001  1
