CIF file written using JARVIS-Tools package.
data_K2Na4Be2O5
_symmetry_space_group_name_H-M  'P4_2/mnm'
_cell_length_a       5.95984
_cell_length_b       5.95984
_cell_length_c       10.021
_cell_angle_alpha    90
_cell_angle_beta     90
_cell_angle_gamma    90

_symmetry_Int_Tables_number  136
_chemical_formula_structural  K2Na4Be2O5
_chemical_formula_sum  K4Na8Be4O0
_cell_volume  355.94165273366406
_cell_formula_units_Z  2
loop_
  _symmetry_equiv_pos_site_id
 _symmetry_equiv_pos_as_xyz
 1  'x, y, z'
loop_
 _atom_site_type_symbol
 _atom_site_label
 _atom_site_symmetry_multiplicity
 _atom_site_fract_x
 _atom_site_fract_y
 _atom_site_fract_z
 _atom_site_fract_occupancy
 Be  Be1  1  0.18776  0.81224  0.00000  1
 Be  Be2  1  0.31224  0.31224  0.50000  1
 Be  Be3  1  0.68776  0.68776  0.50000  1
 Be  Be4  1  0.81224  0.18776  0.00000  1
 K  K1  1  0.31940  0.31940  0.00000  1
 K  K2  1  0.18060  0.81940  0.50000  1
 K  K3  1  0.81940  0.18060  0.50000  1
 K  K4  1  0.68060  0.68060  0.00000  1
 Na  Na1  1  0.50000  0.00000  0.75000  1
 Na  Na2  1  0.00000  0.00000  0.77399  1
 Na  Na3  1  0.50000  0.00000  0.25000  1
 Na  Na4  1  0.50000  0.50000  0.72601  1
 Na  Na5  1  0.00000  0.00000  0.22601  1
 Na  Na6  1  0.00000  0.50000  0.25000  1
 Na  Na7  1  0.00000  0.50000  0.75000  1
 Na  Na8  1  0.50000  0.50000  0.27399  1
 O  O1  1  0.00000  0.00000  0.00000  1
 O  O2  1  0.72499  0.27501  0.86171  1
 O  O3  1  0.22499  0.22499  0.36171  1
 O  O4  1  0.27501  0.72499  0.86171  1
 O  O5  1  0.77501  0.77501  0.63829  1
 O  O6  1  0.72499  0.27501  0.13829  1
 O  O7  1  0.27501  0.72499  0.13829  1
 O  O8  1  0.22499  0.22499  0.63829  1
 O  O9  1  0.77501  0.77501  0.36171  1
 O  O10  1  0.50000  0.50000  0.50000  1
