CIF file written using JARVIS-Tools package.
data_CoB3W3
_symmetry_space_group_name_H-M  'Cmcm'
_cell_length_a       3.19394
_cell_length_b       4.52983
_cell_length_c       10.7997
_cell_angle_alpha    90
_cell_angle_beta     90
_cell_angle_gamma    110.643

_symmetry_Int_Tables_number  63
_chemical_formula_structural  CoB3W3
_chemical_formula_sum  Co2B6W6
_cell_volume  146.21787742354786
_cell_formula_units_Z  2
loop_
  _symmetry_equiv_pos_site_id
 _symmetry_equiv_pos_as_xyz
 1  'x, y, z'
loop_
 _atom_site_type_symbol
 _atom_site_label
 _atom_site_symmetry_multiplicity
 _atom_site_fract_x
 _atom_site_fract_y
 _atom_site_fract_z
 _atom_site_fract_occupancy
 B  B1  1  0.20804  0.41608  0.25000  1
 B  B2  1  0.79196  0.58392  0.75000  1
 B  B3  1  0.91382  0.82763  0.60324  1
 B  B4  1  0.08618  0.17237  0.39676  1
 B  B5  1  0.08618  0.17237  0.10324  1
 B  B6  1  0.91382  0.82763  0.89676  1
 Co  Co1  1  0.50000  0.00000  0.00000  1
 Co  Co2  1  0.50000  0.00000  0.50000  1
 W  W1  1  0.50082  0.00164  0.25000  1
 W  W2  1  0.49918  0.99836  0.75000  1
 W  W3  1  0.21135  0.42271  0.60661  1
 W  W4  1  0.78865  0.57729  0.39339  1
 W  W5  1  0.78865  0.57729  0.10661  1
 W  W6  1  0.21135  0.42271  0.89339  1
