CIF file written using JARVIS-Tools package.
data_Y2AlTl
_symmetry_space_group_name_H-M  'Immm'
_cell_length_a       12.4849
_cell_length_b       7.08152
_cell_length_c       7.08152
_cell_angle_alpha    47.9776
_cell_angle_beta     28.1743
_cell_angle_gamma    28.1743

_symmetry_Int_Tables_number  71
_chemical_formula_structural  Y2AlTl
_chemical_formula_sum  Y2AlTl
_cell_volume  122.22486608014188
_cell_formula_units_Z  1
loop_
  _symmetry_equiv_pos_site_id
 _symmetry_equiv_pos_as_xyz
 1  'x, y, z'
loop_
 _atom_site_type_symbol
 _atom_site_label
 _atom_site_symmetry_multiplicity
 _atom_site_fract_x
 _atom_site_fract_y
 _atom_site_fract_z
 _atom_site_fract_occupancy
 Al  Al1  1  0.00000  0.00000  0.00000  1
 Tl  Tl1  1  0.50000  0.00000  -0.00000  1
 Y  Y1  1  0.75420  -0.00000  0.00000  1
 Y  Y2  1  0.24580  0.00000  -0.00000  1
