CIF file written using JARVIS-Tools package.
data_MgMnF5
_symmetry_space_group_name_H-M  'P-1'
_cell_length_a       5.40418
_cell_length_b       5.10776
_cell_length_c       7.27671
_cell_angle_alpha    83.0159
_cell_angle_beta     73.7699
_cell_angle_gamma    109.525

_symmetry_Int_Tables_number  2
_chemical_formula_structural  MgMnF5
_chemical_formula_sum  Mg2Mn2F0
_cell_volume  176.56131164789204
_cell_formula_units_Z  2
loop_
  _symmetry_equiv_pos_site_id
 _symmetry_equiv_pos_as_xyz
 1  'x, y, z'
loop_
 _atom_site_type_symbol
 _atom_site_label
 _atom_site_symmetry_multiplicity
 _atom_site_fract_x
 _atom_site_fract_y
 _atom_site_fract_z
 _atom_site_fract_occupancy
 F  F1  1  0.59813  0.86703  0.23084  1
 F  F2  1  0.39882  0.13184  0.76783  1
 F  F3  1  0.37771  0.25901  0.38878  1
 F  F4  1  0.10814  0.80818  0.17036  1
 F  F5  1  0.17949  0.33875  0.06694  1
 F  F6  1  0.84229  0.30174  0.45725  1
 F  F7  1  0.81749  0.66012  -0.06827  1
 F  F8  1  0.15468  0.69711  0.54141  1
 F  F9  1  0.88879  0.19067  0.82833  1
 F  F10  1  0.61927  0.73986  0.60988  1
 Mg  Mg1  1  0.75464  0.46605  0.72140  1
 Mg  Mg2  1  0.24232  0.53282  0.27726  1
 Mn  Mn1  1  -0.00152  -0.00057  0.99934  1
 Mn  Mn2  1  0.49848  -0.00057  0.49934  1
