CIF file written using JARVIS-Tools package.
data_NaLi2Tl
_symmetry_space_group_name_H-M  'C2/m'
_cell_length_a       11.9969
_cell_length_b       8.44981
_cell_length_c       8.44984
_cell_angle_alpha    33.7148
_cell_angle_beta     19.6289
_cell_angle_gamma    19.6274

_symmetry_Int_Tables_number  12
_chemical_formula_structural  NaLi2Tl
_chemical_formula_sum  NaLi2Tl
_cell_volume  84.22713420629535
_cell_formula_units_Z  1
loop_
  _symmetry_equiv_pos_site_id
 _symmetry_equiv_pos_as_xyz
 1  'x, y, z'
loop_
 _atom_site_type_symbol
 _atom_site_label
 _atom_site_symmetry_multiplicity
 _atom_site_fract_x
 _atom_site_fract_y
 _atom_site_fract_z
 _atom_site_fract_occupancy
 Li  Li1  1  0.74881  0.00075  0.00075  1
 Li  Li2  1  0.25119  -0.00075  -0.00075  1
 Na  Na1  1  0.00000  0.00000  0.00000  1
 Tl  Tl1  1  0.50000  -0.00000  -0.00000  1
