CIF file written using JARVIS-Tools package.
data_HoTlSe2
_symmetry_space_group_name_H-M  'R-3m'
_cell_length_a       4.14216
_cell_length_b       4.14216
_cell_length_c       8.08982
_cell_angle_alpha    75.1665
_cell_angle_beta     75.1665
_cell_angle_gamma    59.9999

_symmetry_Int_Tables_number  166
_chemical_formula_structural  HoTlSe2
_chemical_formula_sum  HoTlSe2
_cell_volume  114.83300711577125
_cell_formula_units_Z  1
loop_
  _symmetry_equiv_pos_site_id
 _symmetry_equiv_pos_as_xyz
 1  'x, y, z'
loop_
 _atom_site_type_symbol
 _atom_site_label
 _atom_site_symmetry_multiplicity
 _atom_site_fract_x
 _atom_site_fract_y
 _atom_site_fract_z
 _atom_site_fract_occupancy
 Ho  Ho1  1  0.00000  0.00000  0.00000  1
 Se  Se1  1  0.26526  0.26526  0.20422  1
 Se  Se2  1  0.73474  0.73474  0.79578  1
 Tl  Tl1  1  0.50000  0.50000  0.50000  1
