CIF file written using JARVIS-Tools package.
data_HoCu2S2
_symmetry_space_group_name_H-M  'C2/m'
_cell_length_a       3.96286
_cell_length_b       3.96286
_cell_length_c       6.3023
_cell_angle_alpha    89.6235
_cell_angle_beta     90.3765
_cell_angle_gamma    119.947

_symmetry_Int_Tables_number  12
_chemical_formula_structural  HoCu2S2
_chemical_formula_sum  HoCu2S2
_cell_volume  85.75675730283098
_cell_formula_units_Z  1
loop_
  _symmetry_equiv_pos_site_id
 _symmetry_equiv_pos_as_xyz
 1  'x, y, z'
loop_
 _atom_site_type_symbol
 _atom_site_label
 _atom_site_symmetry_multiplicity
 _atom_site_fract_x
 _atom_site_fract_y
 _atom_site_fract_z
 _atom_site_fract_occupancy
 Cu  Cu1  1  0.66418  0.33582  0.67303  1
 Cu  Cu2  1  0.33582  0.66418  0.32697  1
 Ho  Ho1  1  0.00000  0.00000  0.00000  1
 S  S1  1  0.66840  0.33160  0.26530  1
 S  S2  1  0.33160  0.66840  0.73470  1
