CIF file written using JARVIS-Tools package.
data_YbTlSe2
_symmetry_space_group_name_H-M  'R-3m'
_cell_length_a       4.24217
_cell_length_b       4.24217
_cell_length_c       7.43116
_cell_angle_alpha    73.4154
_cell_angle_beta     73.4154
_cell_angle_gamma    60.0001

_symmetry_Int_Tables_number  166
_chemical_formula_structural  YbTlSe2
_chemical_formula_sum  YbTlSe2
_cell_volume  109.34351339549417
_cell_formula_units_Z  1
loop_
  _symmetry_equiv_pos_site_id
 _symmetry_equiv_pos_as_xyz
 1  'x, y, z'
loop_
 _atom_site_type_symbol
 _atom_site_label
 _atom_site_symmetry_multiplicity
 _atom_site_fract_x
 _atom_site_fract_y
 _atom_site_fract_z
 _atom_site_fract_occupancy
 Se  Se1  1  0.25735  0.25735  0.22795  1
 Se  Se2  1  0.74265  0.74265  0.77205  1
 Tl  Tl1  1  0.50000  0.50000  0.50000  1
 Yb  Yb1  1  0.00000  0.00000  0.00000  1
