CIF file written using JARVIS-Tools package.
data_Na2HgBi
_symmetry_space_group_name_H-M  'C2/m'
_cell_length_a       12.3183
_cell_length_b       12.3401
_cell_length_c       12.3401
_cell_angle_alpha    60.5971
_cell_angle_beta     59.9159
_cell_angle_gamma    59.916

_symmetry_Int_Tables_number  12
_chemical_formula_structural  Na2HgBi
_chemical_formula_sum  Na2HgBi
_cell_volume  1330.5555740463953
_cell_formula_units_Z  1
loop_
  _symmetry_equiv_pos_site_id
 _symmetry_equiv_pos_as_xyz
 1  'x, y, z'
loop_
 _atom_site_type_symbol
 _atom_site_label
 _atom_site_symmetry_multiplicity
 _atom_site_fract_x
 _atom_site_fract_y
 _atom_site_fract_z
 _atom_site_fract_occupancy
 Bi  Bi1  1  0.50000  0.00000  -0.00000  1
 Hg  Hg1  1  -0.00000  -0.00000  0.00000  1
 Na  Na1  1  0.74179  0.00009  0.00009  1
 Na  Na2  1  0.25821  0.99991  0.99991  1
