CIF file written using JARVIS-Tools package.
data_LiPbAu2
_symmetry_space_group_name_H-M  'Immm'
_cell_length_a       10.4823
_cell_length_b       11.5054
_cell_length_c       11.5054
_cell_angle_alpha    61.8945
_cell_angle_beta     62.864
_cell_angle_gamma    62.8641

_symmetry_Int_Tables_number  71
_chemical_formula_structural  LiPbAu2
_chemical_formula_sum  LiPbAu2
_cell_volume  1036.5280609058445
_cell_formula_units_Z  1
loop_
  _symmetry_equiv_pos_site_id
 _symmetry_equiv_pos_as_xyz
 1  'x, y, z'
loop_
 _atom_site_type_symbol
 _atom_site_label
 _atom_site_symmetry_multiplicity
 _atom_site_fract_x
 _atom_site_fract_y
 _atom_site_fract_z
 _atom_site_fract_occupancy
 Au  Au1  1  0.76237  0.00000  0.00000  1
 Au  Au2  1  0.23763  1.00000  1.00000  1
 Li  Li1  1  0.00000  0.00000  0.00000  1
 Pb  Pb1  1  0.50000  -0.00000  -0.00000  1
