CIF file written using JARVIS-Tools package.
data_CaTiSiO5
_symmetry_space_group_name_H-M  'C2/c'
_cell_length_a       5.48841
_cell_length_b       5.48841
_cell_length_c       7.08226
_cell_angle_alpha    104.032
_cell_angle_beta     104.032
_cell_angle_gamma    106.055

_symmetry_Int_Tables_number  15
_chemical_formula_structural  CaTiSiO5
_chemical_formula_sum  Ca2Ti2Si2O0
_cell_volume  187.6164612298935
_cell_formula_units_Z  2
loop_
  _symmetry_equiv_pos_site_id
 _symmetry_equiv_pos_as_xyz
 1  'x, y, z'
loop_
 _atom_site_type_symbol
 _atom_site_label
 _atom_site_symmetry_multiplicity
 _atom_site_fract_x
 _atom_site_fract_y
 _atom_site_fract_z
 _atom_site_fract_occupancy
 Ca  Ca1  1  0.17031  0.82969  0.75000  1
 Ca  Ca2  1  0.82969  0.17031  0.25000  1
 O  O1  1  0.18497  0.60954  0.38291  1
 O  O2  1  0.39046  0.81503  0.11709  1
 O  O3  1  0.81503  0.39046  0.61709  1
 O  O4  1  0.60954  0.18497  0.88291  1
 O  O5  1  0.87959  0.75056  0.08797  1
 O  O6  1  0.24944  0.12041  0.41203  1
 O  O7  1  0.42923  0.57077  0.75000  1
 O  O8  1  0.57077  0.42923  0.25000  1
 O  O9  1  0.75056  0.87959  0.58797  1
 O  O10  1  0.12041  0.24944  0.91203  1
 Si  Si1  1  0.18112  0.81888  0.25000  1
 Si  Si2  1  0.81888  0.18112  0.75000  1
 Ti  Ti1  1  0.50000  0.50000  0.50000  1
 Ti  Ti2  1  0.50000  0.50000  -0.00000  1
