CIF file written using JARVIS-Tools package.
data_ErTlSe2
_symmetry_space_group_name_H-M  'R-3m'
_cell_length_a       8.08958
_cell_length_b       8.08958
_cell_length_c       8.08957
_cell_angle_alpha    29.5399
_cell_angle_beta     29.5399
_cell_angle_gamma    29.54

_symmetry_Int_Tables_number  166
_chemical_formula_structural  ErTlSe2
_chemical_formula_sum  ErTlSe2
_cell_volume  113.90914971389333
_cell_formula_units_Z  1
loop_
  _symmetry_equiv_pos_site_id
 _symmetry_equiv_pos_as_xyz
 1  'x, y, z'
loop_
 _atom_site_type_symbol
 _atom_site_label
 _atom_site_symmetry_multiplicity
 _atom_site_fract_x
 _atom_site_fract_y
 _atom_site_fract_z
 _atom_site_fract_occupancy
 Er  Er1  1  0.00000  0.00000  0.00000  1
 Se  Se1  1  0.73440  0.73440  0.73440  1
 Se  Se2  1  0.26560  0.26560  0.26560  1
 Tl  Tl1  1  0.50000  0.50000  0.50000  1
