CIF file written using JARVIS-Tools package.
data_Sb2Se3
_symmetry_space_group_name_H-M  'Pnma'
_cell_length_a       4.04145
_cell_length_b       11.5966
_cell_length_c       12.0611
_cell_angle_alpha    90
_cell_angle_beta     90
_cell_angle_gamma    90

_symmetry_Int_Tables_number  62
_chemical_formula_structural  Sb2Se3
_chemical_formula_sum  Sb8Se2
_cell_volume  565.2674024593491
_cell_formula_units_Z  4
loop_
  _symmetry_equiv_pos_site_id
 _symmetry_equiv_pos_as_xyz
 1  'x, y, z'
loop_
 _atom_site_type_symbol
 _atom_site_label
 _atom_site_symmetry_multiplicity
 _atom_site_fract_x
 _atom_site_fract_y
 _atom_site_fract_z
 _atom_site_fract_occupancy
 Sb  Sb1  1  0.75000  0.03976  0.14677  1
 Sb  Sb2  1  0.25000  0.96024  0.85323  1
 Sb  Sb3  1  0.25000  0.53976  0.35323  1
 Sb  Sb4  1  0.75000  0.46024  0.64677  1
 Sb  Sb5  1  0.25000  0.32986  0.02616  1
 Sb  Sb6  1  0.75000  0.67014  0.97384  1
 Sb  Sb7  1  0.75000  0.82986  0.47384  1
 Sb  Sb8  1  0.25000  0.17014  0.52616  1
 Se  Se1  1  0.75000  0.13158  0.94624  1
 Se  Se2  1  0.25000  0.55266  0.87188  1
 Se  Se3  1  0.25000  0.63158  0.55376  1
 Se  Se4  1  0.75000  0.36842  0.44624  1
 Se  Se5  1  0.25000  0.86842  0.05376  1
 Se  Se6  1  0.75000  0.05266  0.62812  1
 Se  Se7  1  0.75000  0.69572  0.28745  1
 Se  Se8  1  0.25000  0.30428  0.71255  1
 Se  Se9  1  0.25000  0.19572  0.21255  1
 Se  Se10  1  0.25000  0.94734  0.37188  1
 Se  Se11  1  0.75000  0.80428  0.78745  1
 Se  Se12  1  0.75000  0.44734  0.12812  1
