CIF file written using JARVIS-Tools package.
data_PdPb2Cl6
_symmetry_space_group_name_H-M  'P2_1/c'
_cell_length_a       8.1693
_cell_length_b       6.30247
_cell_length_c       9.00982
_cell_angle_alpha    90
_cell_angle_beta     91.2475
_cell_angle_gamma    90

_symmetry_Int_Tables_number  14
_chemical_formula_structural  PdPb2Cl6
_chemical_formula_sum  Pd2Pb4Cl2
_cell_volume  463.7766479142588
_cell_formula_units_Z  2
loop_
  _symmetry_equiv_pos_site_id
 _symmetry_equiv_pos_as_xyz
 1  'x, y, z'
loop_
 _atom_site_type_symbol
 _atom_site_label
 _atom_site_symmetry_multiplicity
 _atom_site_fract_x
 _atom_site_fract_y
 _atom_site_fract_z
 _atom_site_fract_occupancy
 Cl  Cl1  1  0.97107  0.88746  0.24544  1
 Cl  Cl2  1  0.17277  0.63817  0.56304  1
 Cl  Cl3  1  0.32723  0.13817  0.43696  1
 Cl  Cl4  1  0.65074  0.80529  0.95060  1
 Cl  Cl5  1  0.67277  0.86183  0.56304  1
 Cl  Cl6  1  0.82723  0.36183  0.43696  1
 Cl  Cl7  1  0.34926  0.19471  0.04940  1
 Cl  Cl8  1  0.52893  0.38746  0.75456  1
 Cl  Cl9  1  0.84926  0.30529  0.04940  1
 Cl  Cl10  1  0.47107  0.61254  0.24544  1
 Cl  Cl11  1  0.02893  0.11254  0.75456  1
 Cl  Cl12  1  0.15074  0.69471  0.95060  1
 Pb  Pb1  1  0.87958  0.54702  0.72152  1
 Pb  Pb2  1  0.62042  0.04702  0.27848  1
 Pb  Pb3  1  0.12042  0.45298  0.27848  1
 Pb  Pb4  1  0.37958  0.95298  0.72152  1
 Pd  Pd1  1  0.00000  0.00000  0.00000  1
 Pd  Pd2  1  0.50000  0.50000  0.00000  1
