CIF file written using JARVIS-Tools package.
data_SbAsO5
_symmetry_space_group_name_H-M  'P2_12_12_1'
_cell_length_a       4.97352
_cell_length_b       8.82144
_cell_length_c       9.29292
_cell_angle_alpha    90
_cell_angle_beta     90
_cell_angle_gamma    90

_symmetry_Int_Tables_number  19
_chemical_formula_structural  SbAsO5
_chemical_formula_sum  Sb4As4O20
_cell_volume  407.7138963165626
_cell_formula_units_Z  4
loop_
  _symmetry_equiv_pos_site_id
 _symmetry_equiv_pos_as_xyz
 1  'x, y, z'
loop_
 _atom_site_type_symbol
 _atom_site_label
 _atom_site_symmetry_multiplicity
 _atom_site_fract_x
 _atom_site_fract_y
 _atom_site_fract_z
 _atom_site_fract_occupancy
 As  As1  1  0.10444  0.97571  0.20933  1
 As  As2  1  0.60444  0.52429  0.79067  1
 As  As3  1  0.89556  0.47571  0.29067  1
 As  As4  1  0.39556  0.02429  0.70933  1
 O  O1  1  0.94510  0.50206  0.47317  1
 O  O2  1  0.42675  0.32899  0.47705  1
 O  O3  1  0.92675  0.17101  0.52295  1
 O  O4  1  0.57325  0.82899  0.02295  1
 O  O5  1  0.07325  0.67101  0.97705  1
 O  O6  1  0.68828  0.62377  0.24712  1
 O  O7  1  0.05490  0.00206  0.02683  1
 O  O8  1  0.31172  0.12377  0.25288  1
 O  O9  1  0.81172  0.37623  0.74712  1
 O  O10  1  0.18828  0.87623  0.75288  1
 O  O11  1  0.69922  0.01975  0.79835  1
 O  O12  1  0.55490  0.49794  0.97317  1
 O  O13  1  0.80078  0.98025  0.29835  1
 O  O14  1  0.19922  0.48025  0.20165  1
 O  O15  1  0.72676  0.70155  0.74669  1
 O  O16  1  0.44510  0.99794  0.52683  1
 O  O17  1  0.27324  0.20155  0.75331  1
 O  O18  1  0.77324  0.29845  0.24669  1
 O  O19  1  0.30078  0.51975  0.70165  1
 O  O20  1  0.22676  0.79845  0.25331  1
 Sb  Sb1  1  0.38615  0.65440  0.10483  1
 Sb  Sb2  1  0.88615  0.84560  0.89517  1
 Sb  Sb3  1  0.61385  0.15440  0.39517  1
 Sb  Sb4  1  0.11385  0.34560  0.60483  1
