CIF file written using JARVIS-Tools package.
data_Mg2CdPb
_symmetry_space_group_name_H-M  'Immm'
_cell_length_a       12.0424
_cell_length_b       6.83156
_cell_length_c       6.83157
_cell_angle_alpha    27.8289
_cell_angle_beta     28.191
_cell_angle_gamma    28.191

_symmetry_Int_Tables_number  71
_chemical_formula_structural  Mg2CdPb
_chemical_formula_sum  Mg2CdPb
_cell_volume  109.911887774494
_cell_formula_units_Z  1
loop_
  _symmetry_equiv_pos_site_id
 _symmetry_equiv_pos_as_xyz
 1  'x, y, z'
loop_
 _atom_site_type_symbol
 _atom_site_label
 _atom_site_symmetry_multiplicity
 _atom_site_fract_x
 _atom_site_fract_y
 _atom_site_fract_z
 _atom_site_fract_occupancy
 Cd  Cd1  1  0.00000  0.00000  0.00000  1
 Mg  Mg1  1  0.75527  -0.00000  0.00000  1
 Mg  Mg2  1  0.24473  0.00000  -0.00000  1
 Pb  Pb1  1  0.50000  0.00000  -0.00000  1
