CIF file written using JARVIS-Tools package.
data_Ba2NaMg
_symmetry_space_group_name_H-M  'C2/m'
_cell_length_a       14.5727
_cell_length_b       7.25555
_cell_length_c       9.10902
_cell_angle_alpha    25.7373
_cell_angle_beta     23.9145
_cell_angle_gamma    30.5923

_symmetry_Int_Tables_number  12
_chemical_formula_structural  Ba2NaMg
_chemical_formula_sum  Ba2NaMg
_cell_volume  165.67968252701618
_cell_formula_units_Z  1
loop_
  _symmetry_equiv_pos_site_id
 _symmetry_equiv_pos_as_xyz
 1  'x, y, z'
loop_
 _atom_site_type_symbol
 _atom_site_label
 _atom_site_symmetry_multiplicity
 _atom_site_fract_x
 _atom_site_fract_y
 _atom_site_fract_z
 _atom_site_fract_occupancy
 Ba  Ba1  1  0.74491  -0.01372  0.01372  1
 Ba  Ba2  1  0.25509  0.01372  -0.01372  1
 Mg  Mg1  1  0.50000  0.00000  -0.00000  1
 Na  Na1  1  0.00000  0.00000  0.00000  1
