CIF file written using JARVIS-Tools package.
data_MgMn2S4
_symmetry_space_group_name_H-M  'Imma'
_cell_length_a       7.02381
_cell_length_b       7.12573
_cell_length_c       7.12533
_cell_angle_alpha    61.8268
_cell_angle_beta     60.4748
_cell_angle_gamma    60.4664

_symmetry_Int_Tables_number  74
_chemical_formula_structural  MgMn2S4
_chemical_formula_sum  Mg2Mn4S8
_cell_volume  257.3183461055621
_cell_formula_units_Z  2
loop_
  _symmetry_equiv_pos_site_id
 _symmetry_equiv_pos_as_xyz
 1  'x, y, z'
loop_
 _atom_site_type_symbol
 _atom_site_label
 _atom_site_symmetry_multiplicity
 _atom_site_fract_x
 _atom_site_fract_y
 _atom_site_fract_z
 _atom_site_fract_occupancy
 Mg  Mg1  1  0.00000  -0.00000  1.00000  1
 Mg  Mg2  1  -0.00001  0.50000  0.50001  1
 Mn  Mn1  1  -0.00000  -0.00000  0.50001  1
 Mn  Mn2  1  0.49999  0.00001  0.00001  1
 Mn  Mn3  1  0.50000  1.00000  0.50001  1
 Mn  Mn4  1  0.50000  0.50000  0.49999  1
 S  S1  1  0.74631  0.22508  0.28221  1
 S  S2  1  0.75870  0.23855  0.73848  1
 S  S3  1  0.74640  0.78221  0.72509  1
 S  S4  1  0.73575  0.76152  0.26146  1
 S  S5  1  0.25359  0.21779  0.27494  1
 S  S6  1  0.24129  0.76145  0.26153  1
 S  S7  1  0.26425  0.23848  0.73855  1
 S  S8  1  0.25369  0.77491  0.71780  1
