CIF file written using JARVIS-Tools package.
data_Na3RhN6O12
_symmetry_space_group_name_H-M  'R-3m'
_cell_length_a       6.74163
_cell_length_b       6.74163
_cell_length_c       6.74163
_cell_angle_alpha    72.5117
_cell_angle_beta     72.5117
_cell_angle_gamma    72.5116

_symmetry_Int_Tables_number  166
_chemical_formula_structural  Na3RhN6O12
_chemical_formula_sum  Na3RhN6O2
_cell_volume  271.1899384935628
_cell_formula_units_Z  1
loop_
  _symmetry_equiv_pos_site_id
 _symmetry_equiv_pos_as_xyz
 1  'x, y, z'
loop_
 _atom_site_type_symbol
 _atom_site_label
 _atom_site_symmetry_multiplicity
 _atom_site_fract_x
 _atom_site_fract_y
 _atom_site_fract_z
 _atom_site_fract_occupancy
 N  N1  1  0.20355  0.20355  0.82566  1
 N  N2  1  0.79645  0.17434  0.79645  1
 N  N3  1  0.82566  0.20355  0.20355  1
 N  N4  1  0.17434  0.79645  0.79645  1
 N  N5  1  0.79645  0.79645  0.17434  1
 N  N6  1  0.20355  0.82566  0.20355  1
 Na  Na1  1  0.26744  0.26744  0.26744  1
 Na  Na2  1  0.73256  0.73256  0.73256  1
 Na  Na3  1  0.50000  0.50000  0.50000  1
 O  O1  1  0.28640  0.91251  0.28640  1
 O  O2  1  0.75668  0.75668  0.37409  1
 O  O3  1  0.75668  0.37409  0.75668  1
 O  O4  1  0.37409  0.75668  0.75668  1
 O  O5  1  0.62591  0.24332  0.24332  1
 O  O6  1  0.91251  0.28640  0.28640  1
 O  O7  1  0.71360  0.08749  0.71360  1
 O  O8  1  0.71360  0.71360  0.08749  1
 O  O9  1  0.08749  0.71360  0.71360  1
 O  O10  1  0.28640  0.28640  0.91251  1
 O  O11  1  0.24332  0.24332  0.62591  1
 O  O12  1  0.24332  0.62591  0.24332  1
 Rh  Rh1  1  0.00000  0.00000  0.00000  1
