CIF file written using JARVIS-Tools package.
data_MgSnPt2
_symmetry_space_group_name_H-M  'I4/mmm'
_cell_length_a       11.3167
_cell_length_b       7.8838
_cell_length_c       4.68739
_cell_angle_alpha    29.9576
_cell_angle_beta     34.0663
_cell_angle_gamma    19.4536

_symmetry_Int_Tables_number  139
_chemical_formula_structural  MgSnPt2
_chemical_formula_sum  MgSnPt2
_cell_volume  69.38542222300379
_cell_formula_units_Z  1
loop_
  _symmetry_equiv_pos_site_id
 _symmetry_equiv_pos_as_xyz
 1  'x, y, z'
loop_
 _atom_site_type_symbol
 _atom_site_label
 _atom_site_symmetry_multiplicity
 _atom_site_fract_x
 _atom_site_fract_y
 _atom_site_fract_z
 _atom_site_fract_occupancy
 Mg  Mg1  1  0.00000  0.00000  0.00000  1
 Pt  Pt1  1  0.74999  0.00006  0.99994  1
 Pt  Pt2  1  0.25001  0.99994  0.00006  1
 Sn  Sn1  1  0.50000  0.00000  -0.00000  1
