CIF file written using JARVIS-Tools package.
data_ScHgAu2
_symmetry_space_group_name_H-M  'C2/m'
_cell_length_a       11.6628
_cell_length_b       8.18123
_cell_length_c       8.21074
_cell_angle_alpha    33.6652
_cell_angle_beta     19.6264
_cell_angle_gamma    19.6207

_symmetry_Int_Tables_number  12
_chemical_formula_structural  ScHgAu2
_chemical_formula_sum  ScHgAu2
_cell_volume  77.17760542771603
_cell_formula_units_Z  1
loop_
  _symmetry_equiv_pos_site_id
 _symmetry_equiv_pos_as_xyz
 1  'x, y, z'
loop_
 _atom_site_type_symbol
 _atom_site_label
 _atom_site_symmetry_multiplicity
 _atom_site_fract_x
 _atom_site_fract_y
 _atom_site_fract_z
 _atom_site_fract_occupancy
 Au  Au1  1  0.75039  -0.00027  -0.00026  1
 Au  Au2  1  0.24961  0.00027  0.00026  1
 Hg  Hg1  1  0.50000  -0.00000  -0.00000  1
 Sc  Sc1  1  -0.00000  0.00000  1.00000  1
