CIF file written using JARVIS-Tools package.
data_MoWSe2S2
_symmetry_space_group_name_H-M  'Cm'
_cell_length_a       3.25734
_cell_length_b       3.25741
_cell_length_c       31.7279
_cell_angle_alpha    89.9544
_cell_angle_beta     90
_cell_angle_gamma    119.999

_symmetry_Int_Tables_number  8
_chemical_formula_structural  MoWSe2S2
_chemical_formula_sum  Mo2W2Se4S4
_cell_volume  291.5488514675954
_cell_formula_units_Z  2
loop_
  _symmetry_equiv_pos_site_id
 _symmetry_equiv_pos_as_xyz
 1  'x, y, z'
loop_
 _atom_site_type_symbol
 _atom_site_label
 _atom_site_symmetry_multiplicity
 _atom_site_fract_x
 _atom_site_fract_y
 _atom_site_fract_z
 _atom_site_fract_occupancy
 Mo  Mo1  1  0.33494  0.66988  0.47648  1
 Mo  Mo2  1  0.66563  0.33126  0.27503  1
 S  S1  1  0.66709  0.33417  0.02354  1
 S  S2  1  0.66857  0.33713  0.42772  1
 S  S3  1  0.66664  0.33327  0.12143  1
 S  S4  1  0.66799  0.33597  0.52523  1
 Se  Se1  1  0.33220  0.66440  0.32855  1
 Se  Se2  1  0.33219  0.66437  0.73275  1
 Se  Se3  1  0.33229  0.66458  0.22153  1
 Se  Se4  1  0.33297  0.66594  0.62507  1
 W  W1  1  0.33350  0.66701  0.07246  1
 W  W2  1  0.66600  0.33200  0.67897  1
