CIF file written using JARVIS-Tools package.
data_KC
_symmetry_space_group_name_H-M  'Fm-3m'
_cell_length_a       4.28397
_cell_length_b       4.28397
_cell_length_c       7.4219
_cell_angle_alpha    90.0077
_cell_angle_beta     106.774
_cell_angle_gamma    119.985

_symmetry_Int_Tables_number  225
_chemical_formula_structural  KC
_chemical_formula_sum  K2C2
_cell_volume  111.23389296065989
_cell_formula_units_Z  2
loop_
  _symmetry_equiv_pos_site_id
 _symmetry_equiv_pos_as_xyz
 1  'x, y, z'
loop_
 _atom_site_type_symbol
 _atom_site_label
 _atom_site_symmetry_multiplicity
 _atom_site_fract_x
 _atom_site_fract_y
 _atom_site_fract_z
 _atom_site_fract_occupancy
 C  C1  1  -0.00000  0.50000  0.50000  1
 C  C2  1  0.00000  0.00000  0.00000  1
 K  K1  1  0.50000  0.25000  0.75000  1
 K  K2  1  0.50000  0.75000  0.25000  1
