CIF file written using JARVIS-Tools package.
data_Eu3AlO5
_symmetry_space_group_name_H-M  'I4/mcm'
_cell_length_a       6.32112
_cell_length_b       7.36618
_cell_length_c       6.32112
_cell_angle_alpha    115.408
_cell_angle_beta     90
_cell_angle_gamma    115.408

_symmetry_Int_Tables_number  140
_chemical_formula_structural  Eu3AlO5
_chemical_formula_sum  Eu6Al2O0
_cell_volume  233.9504344942144
_cell_formula_units_Z  2
loop_
  _symmetry_equiv_pos_site_id
 _symmetry_equiv_pos_as_xyz
 1  'x, y, z'
loop_
 _atom_site_type_symbol
 _atom_site_label
 _atom_site_symmetry_multiplicity
 _atom_site_fract_x
 _atom_site_fract_y
 _atom_site_fract_z
 _atom_site_fract_occupancy
 Al  Al1  1  0.75000  0.50000  0.25000  1
 Al  Al2  1  0.25000  0.50000  0.75000  1
 Eu  Eu1  1  0.25000  0.50000  0.25000  1
 Eu  Eu2  1  0.75000  0.50000  0.75000  1
 Eu  Eu3  1  0.17002  0.00000  0.32998  1
 Eu  Eu4  1  0.82998  0.00000  0.67002  1
 Eu  Eu5  1  0.32998  0.00000  0.82998  1
 Eu  Eu6  1  0.67002  0.00000  0.17002  1
 O  O1  1  -0.00234  0.68499  0.49766  1
 O  O2  1  0.00000  0.00000  0.00000  1
 O  O3  1  0.81267  0.31501  0.00234  1
 O  O4  1  0.50000  0.00000  0.50000  1
 O  O5  1  0.49766  0.68499  0.68733  1
 O  O6  1  0.31267  0.31501  0.81267  1
 O  O7  1  0.18733  0.68499  -0.00234  1
 O  O8  1  0.50234  0.31501  0.31267  1
 O  O9  1  0.00234  0.31501  0.50234  1
 O  O10  1  0.68733  0.68499  0.18733  1
