CIF file written using JARVIS-Tools package.
data_BW
_symmetry_space_group_name_H-M  'Cmcm'
_cell_length_a       3.10184
_cell_length_b       3.19079
_cell_length_c       4.55646
_cell_angle_alpha    110.496
_cell_angle_beta     90
_cell_angle_gamma    90

_symmetry_Int_Tables_number  63
_chemical_formula_structural  BW
_chemical_formula_sum  B2W2
_cell_volume  42.24195153397733
_cell_formula_units_Z  2
loop_
  _symmetry_equiv_pos_site_id
 _symmetry_equiv_pos_as_xyz
 1  'x, y, z'
loop_
 _atom_site_type_symbol
 _atom_site_label
 _atom_site_symmetry_multiplicity
 _atom_site_fract_x
 _atom_site_fract_y
 _atom_site_fract_z
 _atom_site_fract_occupancy
 B  B1  1  0.25000  0.43993  0.87985  1
 B  B2  1  0.75000  0.56007  0.12015  1
 W  W1  1  0.25000  0.14532  0.29063  1
 W  W2  1  0.75000  0.85468  0.70937  1
