CIF file written using JARVIS-Tools package.
data_Na2O
_symmetry_space_group_name_H-M  'Pnnm'
_cell_length_a       3.66097
_cell_length_b       5.20534
_cell_length_c       5.24964
_cell_angle_alpha    90
_cell_angle_beta     90
_cell_angle_gamma    90

_symmetry_Int_Tables_number  58
_chemical_formula_structural  Na2O
_chemical_formula_sum  Na4O2
_cell_volume  100.04010344168464
_cell_formula_units_Z  2
loop_
  _symmetry_equiv_pos_site_id
 _symmetry_equiv_pos_as_xyz
 1  'x, y, z'
loop_
 _atom_site_type_symbol
 _atom_site_label
 _atom_site_symmetry_multiplicity
 _atom_site_fract_x
 _atom_site_fract_y
 _atom_site_fract_z
 _atom_site_fract_occupancy
 Na  Na1  1  0.50000  0.18888  0.80809  1
 Na  Na2  1  0.00000  0.68888  0.69191  1
 Na  Na3  1  0.00000  0.31112  0.30809  1
 Na  Na4  1  0.50000  0.81112  0.19191  1
 O  O1  1  0.00000  0.00000  0.00000  1
 O  O2  1  0.50000  0.50000  0.50000  1
