CIF file written using JARVIS-Tools package.
data_LiLaO2
_symmetry_space_group_name_H-M  'P2_1/c'
_cell_length_a       5.86325
_cell_length_b       6.21868
_cell_length_c       5.88715
_cell_angle_alpha    90
_cell_angle_beta     101.901
_cell_angle_gamma    90

_symmetry_Int_Tables_number  14
_chemical_formula_structural  LiLaO2
_chemical_formula_sum  Li4La4O8
_cell_volume  210.0410366111319
_cell_formula_units_Z  4
loop_
  _symmetry_equiv_pos_site_id
 _symmetry_equiv_pos_as_xyz
 1  'x, y, z'
loop_
 _atom_site_type_symbol
 _atom_site_label
 _atom_site_symmetry_multiplicity
 _atom_site_fract_x
 _atom_site_fract_y
 _atom_site_fract_z
 _atom_site_fract_occupancy
 La  La1  1  0.20168  0.42919  0.80178  1
 La  La2  1  0.79832  0.92919  0.69822  1
 La  La3  1  0.79832  0.57081  0.19822  1
 La  La4  1  0.20168  0.07081  0.30178  1
 Li  Li1  1  0.66521  0.35718  0.69025  1
 Li  Li2  1  0.33479  0.85718  0.80975  1
 Li  Li3  1  0.33479  0.64282  0.30975  1
 Li  Li4  1  0.66521  0.14282  0.19025  1
 O  O1  1  0.90688  0.23845  0.98589  1
 O  O2  1  0.09312  0.73845  0.51411  1
 O  O3  1  0.09312  0.76155  0.01411  1
 O  O4  1  0.90688  0.26155  0.48589  1
 O  O5  1  0.42565  0.37149  0.20493  1
 O  O6  1  0.57435  0.87149  0.29507  1
 O  O7  1  0.57435  0.62851  0.79507  1
 O  O8  1  0.42565  0.12851  0.70493  1
