CIF file written using JARVIS-Tools package.
data_Be2VPt
_symmetry_space_group_name_H-M  'Immm'
_cell_length_a       9.2777
_cell_length_b       5.31414
_cell_length_c       5.31414
_cell_angle_alpha    49.9008
_cell_angle_beta     29.1995
_cell_angle_gamma    29.1995

_symmetry_Int_Tables_number  71
_chemical_formula_structural  Be2VPt
_chemical_formula_sum  Be2VPt
_cell_volume  54.1695301437196
_cell_formula_units_Z  1
loop_
  _symmetry_equiv_pos_site_id
 _symmetry_equiv_pos_as_xyz
 1  'x, y, z'
loop_
 _atom_site_type_symbol
 _atom_site_label
 _atom_site_symmetry_multiplicity
 _atom_site_fract_x
 _atom_site_fract_y
 _atom_site_fract_z
 _atom_site_fract_occupancy
 Be  Be1  1  0.74057  0.00000  -0.00000  1
 Be  Be2  1  0.25943  -0.00000  0.00000  1
 Pt  Pt1  1  0.50000  0.00000  -0.00000  1
 V  V1  1  0.00000  0.00000  0.00000  1
