CIF file written using JARVIS-Tools package.
data_CdTe
_symmetry_space_group_name_H-M  'Fm-3m'
_cell_length_a       4.32308
_cell_length_b       4.32308
_cell_length_c       6.11242
_cell_angle_alpha    90
_cell_angle_beta     90
_cell_angle_gamma    90.0015

_symmetry_Int_Tables_number  225
_chemical_formula_structural  CdTe
_chemical_formula_sum  Cd2Te2
_cell_volume  114.23527638639214
_cell_formula_units_Z  2
loop_
  _symmetry_equiv_pos_site_id
 _symmetry_equiv_pos_as_xyz
 1  'x, y, z'
loop_
 _atom_site_type_symbol
 _atom_site_label
 _atom_site_symmetry_multiplicity
 _atom_site_fract_x
 _atom_site_fract_y
 _atom_site_fract_z
 _atom_site_fract_occupancy
 Cd  Cd1  1  0.25027  0.74973  0.75000  1
 Cd  Cd2  1  0.74973  0.25027  0.25000  1
 Te  Te1  1  0.75018  0.24982  0.75000  1
 Te  Te2  1  0.24982  0.75018  0.25000  1
