CIF file written using JARVIS-Tools package.
data_InCuRh2
_symmetry_space_group_name_H-M  'Immm'
_cell_length_a       9.85279
_cell_length_b       10.4857
_cell_length_c       10.4857
_cell_angle_alpha    62.8395
_cell_angle_beta     61.9768
_cell_angle_gamma    61.9768

_symmetry_Int_Tables_number  71
_chemical_formula_structural  InCuRh2
_chemical_formula_sum  InCuRh2
_cell_volume  804.633019716915
_cell_formula_units_Z  1
loop_
  _symmetry_equiv_pos_site_id
 _symmetry_equiv_pos_as_xyz
 1  'x, y, z'
loop_
 _atom_site_type_symbol
 _atom_site_label
 _atom_site_symmetry_multiplicity
 _atom_site_fract_x
 _atom_site_fract_y
 _atom_site_fract_z
 _atom_site_fract_occupancy
 Cu  Cu1  1  0.00000  0.00000  0.00000  1
 In  In1  1  0.50000  0.00000  -0.00000  1
 Rh  Rh1  1  0.75847  0.00000  0.00000  1
 Rh  Rh2  1  0.24153  -0.00000  -0.00000  1
