CIF file written using JARVIS-Tools package.
data_HoAu
_symmetry_space_group_name_H-M  'Cmcm'
_cell_length_a       3.71173
_cell_length_b       4.6153
_cell_length_c       5.75068
_cell_angle_alpha    90
_cell_angle_beta     108.828
_cell_angle_gamma    90

_symmetry_Int_Tables_number  63
_chemical_formula_structural  HoAu
_chemical_formula_sum  Ho2Au2
_cell_volume  93.24242401578553
_cell_formula_units_Z  2
loop_
  _symmetry_equiv_pos_site_id
 _symmetry_equiv_pos_as_xyz
 1  'x, y, z'
loop_
 _atom_site_type_symbol
 _atom_site_label
 _atom_site_symmetry_multiplicity
 _atom_site_fract_x
 _atom_site_fract_y
 _atom_site_fract_z
 _atom_site_fract_occupancy
 Au  Au1  1  0.59092  0.75000  0.18185  1
 Au  Au2  1  0.40908  0.25000  0.81815  1
 Ho  Ho1  1  0.86165  0.75000  0.72329  1
 Ho  Ho2  1  0.13835  0.25000  0.27671  1
