CIF file written using JARVIS-Tools package.
data_LiCa2Pd
_symmetry_space_group_name_H-M  'I4/mmm'
_cell_length_a       16.7078
_cell_length_b       8.73986
_cell_length_c       8.73986
_cell_angle_alpha    24.0051
_cell_angle_beta     17.0913
_cell_angle_gamma    17.0913

_symmetry_Int_Tables_number  139
_chemical_formula_structural  LiCa2Pd
_chemical_formula_sum  LiCa2Pd
_cell_volume  110.23362653473566
_cell_formula_units_Z  1
loop_
  _symmetry_equiv_pos_site_id
 _symmetry_equiv_pos_as_xyz
 1  'x, y, z'
loop_
 _atom_site_type_symbol
 _atom_site_label
 _atom_site_symmetry_multiplicity
 _atom_site_fract_x
 _atom_site_fract_y
 _atom_site_fract_z
 _atom_site_fract_occupancy
 Ca  Ca1  1  0.66093  -0.00000  -0.00000  1
 Ca  Ca2  1  0.33907  0.00000  0.00000  1
 Li  Li1  1  0.00000  0.00000  0.00000  1
 Pd  Pd1  1  0.50000  0.00000  -0.00000  1
