CIF file written using JARVIS-Tools package.
data_LiSnS2
_symmetry_space_group_name_H-M  'R-3m'
_cell_length_a       3.81403
_cell_length_b       3.81403
_cell_length_c       6.61084
_cell_angle_alpha    73.2338
_cell_angle_beta     73.2338
_cell_angle_gamma    60.0001

_symmetry_Int_Tables_number  166
_chemical_formula_structural  LiSnS2
_chemical_formula_sum  LiSnS2
_cell_volume  78.52686469506253
_cell_formula_units_Z  1
loop_
  _symmetry_equiv_pos_site_id
 _symmetry_equiv_pos_as_xyz
 1  'x, y, z'
loop_
 _atom_site_type_symbol
 _atom_site_label
 _atom_site_symmetry_multiplicity
 _atom_site_fract_x
 _atom_site_fract_y
 _atom_site_fract_z
 _atom_site_fract_occupancy
 Li  Li1  1  0.50000  0.50000  0.50000  1
 S  S1  1  0.75429  0.75429  0.73712  1
 S  S2  1  0.24571  0.24571  0.26288  1
 Sn  Sn1  1  0.00000  0.00000  0.00000  1
