CIF file written using JARVIS-Tools package.
data_AlH3O3
_symmetry_space_group_name_H-M  'P1'
_cell_length_a       4.91462
_cell_length_b       5.17767
_cell_length_c       5.16512
_cell_angle_alpha    67.4986
_cell_angle_beta     81.6109
_cell_angle_gamma    60.7054

_symmetry_Int_Tables_number  1
_chemical_formula_structural  AlH3O3
_chemical_formula_sum  Al2H6O6
_cell_volume  105.75867038217883
_cell_formula_units_Z  2
loop_
  _symmetry_equiv_pos_site_id
 _symmetry_equiv_pos_as_xyz
 1  'x, y, z'
loop_
 _atom_site_type_symbol
 _atom_site_label
 _atom_site_symmetry_multiplicity
 _atom_site_fract_x
 _atom_site_fract_y
 _atom_site_fract_z
 _atom_site_fract_occupancy
 Al  Al1  1  0.67123  0.65988  0.00056  1
 Al  Al2  1  0.35203  0.30177  0.00251  1
 H  H1  1  0.62452  0.15302  0.57717  1
 H  H2  1  0.39083  0.81255  0.41499  1
 H  H3  1  -0.06106  0.29258  0.76247  1
 H  H4  1  0.04056  0.52217  0.39356  1
 H  H5  1  0.14281  0.85976  0.78088  1
 H  H6  1  0.87682  0.07907  0.23037  1
 O  O1  1  0.65052  0.06930  0.78613  1
 O  O2  1  0.38009  0.89663  0.20562  1
 O  O3  1  -0.01173  0.45084  0.77205  1
 O  O4  1  0.03208  0.51732  0.20647  1
 O  O5  1  0.36010  0.70067  0.77615  1
 O  O6  1  0.66557  0.25691  0.21784  1
