CIF file written using JARVIS-Tools package.
data_YCo2O4
_symmetry_space_group_name_H-M  'R-3m'
_cell_length_a       6.12395
_cell_length_b       6.12395
_cell_length_c       6.12395
_cell_angle_alpha    59.1399
_cell_angle_beta     59.1399
_cell_angle_gamma    59.1399

_symmetry_Int_Tables_number  166
_chemical_formula_structural  YCo2O4
_chemical_formula_sum  Y2Co4O8
_cell_volume  159.2144002358698
_cell_formula_units_Z  2
loop_
  _symmetry_equiv_pos_site_id
 _symmetry_equiv_pos_as_xyz
 1  'x, y, z'
loop_
 _atom_site_type_symbol
 _atom_site_label
 _atom_site_symmetry_multiplicity
 _atom_site_fract_x
 _atom_site_fract_y
 _atom_site_fract_z
 _atom_site_fract_occupancy
 Co  Co1  1  0.00000  0.50000  0.00000  1
 Co  Co2  1  0.00000  0.00000  0.00000  1
 Co  Co3  1  0.50000  0.00000  0.00000  1
 Co  Co4  1  -0.00000  -0.00000  0.50000  1
 O  O1  1  0.19256  0.75869  0.75869  1
 O  O2  1  0.24131  0.24131  0.80744  1
 O  O3  1  0.24131  0.80744  0.24131  1
 O  O4  1  0.23397  0.23397  0.23397  1
 O  O5  1  0.75869  0.75869  0.19256  1
 O  O6  1  0.80744  0.24131  0.24131  1
 O  O7  1  0.75869  0.19256  0.75869  1
 O  O8  1  0.76603  0.76603  0.76603  1
 Y  Y1  1  0.62157  0.62157  0.62157  1
 Y  Y2  1  0.37843  0.37843  0.37843  1
