CIF file written using JARVIS-Tools package.
data_MgSb2O6
_symmetry_space_group_name_H-M  'P4_2/mnm'
_cell_length_a       4.70854
_cell_length_b       4.70854
_cell_length_c       9.38664
_cell_angle_alpha    90
_cell_angle_beta     90
_cell_angle_gamma    90

_symmetry_Int_Tables_number  136
_chemical_formula_structural  MgSb2O6
_chemical_formula_sum  Mg2Sb4O2
_cell_volume  208.1055515642408
_cell_formula_units_Z  2
loop_
  _symmetry_equiv_pos_site_id
 _symmetry_equiv_pos_as_xyz
 1  'x, y, z'
loop_
 _atom_site_type_symbol
 _atom_site_label
 _atom_site_symmetry_multiplicity
 _atom_site_fract_x
 _atom_site_fract_y
 _atom_site_fract_z
 _atom_site_fract_occupancy
 Mg  Mg1  1  0.00000  0.00000  0.00000  1
 Mg  Mg2  1  0.50000  0.50000  0.50000  1
 O  O1  1  0.69732  0.69732  0.67078  1
 O  O2  1  0.30268  0.30268  0.67078  1
 O  O3  1  0.30268  0.30268  0.32922  1
 O  O4  1  0.19732  0.80268  0.17078  1
 O  O5  1  0.69732  0.69732  0.32922  1
 O  O6  1  0.80268  0.19732  0.82922  1
 O  O7  1  0.30898  0.30898  0.00000  1
 O  O8  1  0.19102  0.80898  0.50000  1
 O  O9  1  0.80898  0.19102  0.50000  1
 O  O10  1  0.69102  0.69102  0.00000  1
 O  O11  1  0.80268  0.19732  0.17078  1
 O  O12  1  0.19732  0.80268  0.82922  1
 Sb  Sb1  1  0.00000  0.00000  0.66751  1
 Sb  Sb2  1  0.50000  0.50000  0.16751  1
 Sb  Sb3  1  0.00000  0.00000  0.33249  1
 Sb  Sb4  1  0.50000  0.50000  0.83249  1
