CIF file written using JARVIS-Tools package.
data_Ba2AgAu
_symmetry_space_group_name_H-M  'Fm-3m'
_cell_length_a       13.9517
_cell_length_b       9.86631
_cell_length_c       9.8663
_cell_angle_alpha    33.6036
_cell_angle_beta     19.4993
_cell_angle_gamma    19.4993

_symmetry_Int_Tables_number  225
_chemical_formula_structural  Ba2AgAu
_chemical_formula_sum  Ba2AgAu
_cell_volume  131.05893340048846
_cell_formula_units_Z  1
loop_
  _symmetry_equiv_pos_site_id
 _symmetry_equiv_pos_as_xyz
 1  'x, y, z'
loop_
 _atom_site_type_symbol
 _atom_site_label
 _atom_site_symmetry_multiplicity
 _atom_site_fract_x
 _atom_site_fract_y
 _atom_site_fract_z
 _atom_site_fract_occupancy
 Ag  Ag1  1  0.00000  0.00000  0.00000  1
 Au  Au1  1  0.50000  0.00000  -0.00000  1
 Ba  Ba1  1  0.74990  0.00005  0.00005  1
 Ba  Ba2  1  0.25010  -0.00005  -0.00005  1
