CIF file written using JARVIS-Tools package.
data_LiSc2Tl
_symmetry_space_group_name_H-M  'Fm-3m'
_cell_length_a       12.1233
_cell_length_b       4.94991
_cell_length_c       4.95011
_cell_angle_alpha    59.8876
_cell_angle_beta     35.216
_cell_angle_gamma    35.2194

_symmetry_Int_Tables_number  225
_chemical_formula_structural  LiSc2Tl
_chemical_formula_sum  LiSc2Tl
_cell_volume  85.64765709698985
_cell_formula_units_Z  1
loop_
  _symmetry_equiv_pos_site_id
 _symmetry_equiv_pos_as_xyz
 1  'x, y, z'
loop_
 _atom_site_type_symbol
 _atom_site_label
 _atom_site_symmetry_multiplicity
 _atom_site_fract_x
 _atom_site_fract_y
 _atom_site_fract_z
 _atom_site_fract_occupancy
 Li  Li1  1  0.00000  -0.00000  -0.00000  1
 Sc  Sc1  1  0.75004  -0.00006  -0.00007  1
 Sc  Sc2  1  0.24996  0.00006  0.00007  1
 Tl  Tl1  1  0.50000  -0.00000  0.00000  1
