CIF file written using JARVIS-Tools package.
data_Sr2AgPb
_symmetry_space_group_name_H-M  'C2/m'
_cell_length_a       13.3732
_cell_length_b       9.34531
_cell_length_c       9.34531
_cell_angle_alpha    34.6824
_cell_angle_beta     20.2801
_cell_angle_gamma    20.2801

_symmetry_Int_Tables_number  12
_chemical_formula_structural  Sr2AgPb
_chemical_formula_sum  Sr2AgPb
_cell_volume  123.1734694668219
_cell_formula_units_Z  1
loop_
  _symmetry_equiv_pos_site_id
 _symmetry_equiv_pos_as_xyz
 1  'x, y, z'
loop_
 _atom_site_type_symbol
 _atom_site_label
 _atom_site_symmetry_multiplicity
 _atom_site_fract_x
 _atom_site_fract_y
 _atom_site_fract_z
 _atom_site_fract_occupancy
 Ag  Ag1  1  0.00000  0.00000  0.00000  1
 Pb  Pb1  1  0.50000  -0.00000  0.00000  1
 Sr  Sr1  1  0.75664  0.99596  0.99596  1
 Sr  Sr2  1  0.24336  0.00404  0.00404  1
