CIF file written using JARVIS-Tools package.
data_Ca2Cr2O5
_symmetry_space_group_name_H-M  'Pbam'
_cell_length_a       5.2894
_cell_length_b       3.91815
_cell_length_c       10.1967
_cell_angle_alpha    90
_cell_angle_beta     90.0012
_cell_angle_gamma    90

_symmetry_Int_Tables_number  55
_chemical_formula_structural  Ca2Cr2O5
_chemical_formula_sum  Ca4Cr4O0
_cell_volume  211.32346202681435
_cell_formula_units_Z  2
loop_
  _symmetry_equiv_pos_site_id
 _symmetry_equiv_pos_as_xyz
 1  'x, y, z'
loop_
 _atom_site_type_symbol
 _atom_site_label
 _atom_site_symmetry_multiplicity
 _atom_site_fract_x
 _atom_site_fract_y
 _atom_site_fract_z
 _atom_site_fract_occupancy
 Ca  Ca1  1  0.78717  0.50000  0.87924  1
 Ca  Ca2  1  0.21283  0.50000  0.12075  1
 Ca  Ca3  1  0.28717  0.50000  0.62076  1
 Ca  Ca4  1  0.71283  0.50000  0.37924  1
 Cr  Cr1  1  0.76527  0.00000  0.63223  1
 Cr  Cr2  1  0.23473  0.00000  0.36777  1
 Cr  Cr3  1  0.73472  0.00000  0.13223  1
 Cr  Cr4  1  0.26528  0.00000  0.86777  1
 O  O1  1  0.00000  0.00000  0.00000  1
 O  O2  1  0.89780  0.00000  0.29657  1
 O  O3  1  0.39781  0.00000  0.20343  1
 O  O4  1  0.50000  0.00000  0.50000  1
 O  O5  1  0.78847  0.50000  0.61181  1
 O  O6  1  0.28847  0.50000  0.88820  1
 O  O7  1  0.10220  0.00000  0.70343  1
 O  O8  1  0.60219  0.00000  0.79657  1
 O  O9  1  0.71152  0.50000  0.11180  1
 O  O10  1  0.21152  0.50000  0.38820  1
