CIF file written using JARVIS-Tools package.
data_EuC2
_symmetry_space_group_name_H-M  'I4/mmm'
_cell_length_a       3.73783
_cell_length_b       3.73783
_cell_length_c       4.11888
_cell_angle_alpha    116.984
_cell_angle_beta     116.984
_cell_angle_gamma    90

_symmetry_Int_Tables_number  139
_chemical_formula_structural  EuC2
_chemical_formula_sum  EuC2
_cell_volume  44.1360539423762
_cell_formula_units_Z  1
loop_
  _symmetry_equiv_pos_site_id
 _symmetry_equiv_pos_as_xyz
 1  'x, y, z'
loop_
 _atom_site_type_symbol
 _atom_site_label
 _atom_site_symmetry_multiplicity
 _atom_site_fract_x
 _atom_site_fract_y
 _atom_site_fract_z
 _atom_site_fract_occupancy
 C  C1  1  0.39768  0.39768  0.79536  1
 C  C2  1  0.60232  0.60232  0.20464  1
 Eu  Eu1  1  0.00000  0.00000  0.00000  1
