CIF file written using JARVIS-Tools package.
data_Ca2CdAg
_symmetry_space_group_name_H-M  'C2/m'
_cell_length_a       12.129
_cell_length_b       8.55082
_cell_length_c       8.5508
_cell_angle_alpha    17.5901
_cell_angle_beta     20.9855
_cell_angle_gamma    20.9853

_symmetry_Int_Tables_number  12
_chemical_formula_structural  Ca2CdAg
_chemical_formula_sum  Ca2CdAg
_cell_volume  87.82554281764186
_cell_formula_units_Z  1
loop_
  _symmetry_equiv_pos_site_id
 _symmetry_equiv_pos_as_xyz
 1  'x, y, z'
loop_
 _atom_site_type_symbol
 _atom_site_label
 _atom_site_symmetry_multiplicity
 _atom_site_fract_x
 _atom_site_fract_y
 _atom_site_fract_z
 _atom_site_fract_occupancy
 Ag  Ag1  1  -0.00000  0.00000  0.00000  1
 Ca  Ca1  1  0.75035  0.00202  0.00202  1
 Ca  Ca2  1  0.24965  -0.00202  -0.00202  1
 Cd  Cd1  1  0.50000  -0.00000  -0.00000  1
