CIF file written using JARVIS-Tools package.
data_FeHO2
_symmetry_space_group_name_H-M  'P3m1'
_cell_length_a       2.89749
_cell_length_b       2.89748
_cell_length_c       4.44715
_cell_angle_alpha    90.0074
_cell_angle_beta     89.9963
_cell_angle_gamma    120

_symmetry_Int_Tables_number  156
_chemical_formula_structural  FeHO2
_chemical_formula_sum  FeHO2
_cell_volume  32.33367297607176
_cell_formula_units_Z  1
loop_
  _symmetry_equiv_pos_site_id
 _symmetry_equiv_pos_as_xyz
 1  'x, y, z'
loop_
 _atom_site_type_symbol
 _atom_site_label
 _atom_site_symmetry_multiplicity
 _atom_site_fract_x
 _atom_site_fract_y
 _atom_site_fract_z
 _atom_site_fract_occupancy
 Fe  Fe1  1  0.99996  0.00002  0.99581  1
 H  H1  1  0.66662  0.33324  0.53985  1
 O  O1  1  0.33329  0.66673  0.19254  1
 O  O2  1  0.66663  0.33331  0.76165  1
