CIF file written using JARVIS-Tools package.
data_HfScTl2
_symmetry_space_group_name_H-M  'Immm'
_cell_length_a       11.9494
_cell_length_b       6.7974
_cell_length_c       6.79739
_cell_angle_alpha    27.4413
_cell_angle_beta     28.4818
_cell_angle_gamma    28.4818

_symmetry_Int_Tables_number  71
_chemical_formula_structural  HfScTl2
_chemical_formula_sum  HfScTl2
_cell_volume  108.35517821798828
_cell_formula_units_Z  1
loop_
  _symmetry_equiv_pos_site_id
 _symmetry_equiv_pos_as_xyz
 1  'x, y, z'
loop_
 _atom_site_type_symbol
 _atom_site_label
 _atom_site_symmetry_multiplicity
 _atom_site_fract_x
 _atom_site_fract_y
 _atom_site_fract_z
 _atom_site_fract_occupancy
 Hf  Hf1  1  0.50000  -0.00000  -0.00000  1
 Sc  Sc1  1  0.00000  0.00000  0.00000  1
 Tl  Tl1  1  0.75008  -0.00000  0.00000  1
 Tl  Tl2  1  0.24992  0.00000  -0.00000  1
