CIF file written using JARVIS-Tools package.
data_AlMo4S8
_symmetry_space_group_name_H-M  'F-43m'
_cell_length_a       6.92704
_cell_length_b       6.92704
_cell_length_c       6.92704
_cell_angle_alpha    60.001
_cell_angle_beta     60.0011
_cell_angle_gamma    60.0011

_symmetry_Int_Tables_number  216
_chemical_formula_structural  AlMo4S8
_chemical_formula_sum  AlMo4S8
_cell_volume  235.03856591037737
_cell_formula_units_Z  1
loop_
  _symmetry_equiv_pos_site_id
 _symmetry_equiv_pos_as_xyz
 1  'x, y, z'
loop_
 _atom_site_type_symbol
 _atom_site_label
 _atom_site_symmetry_multiplicity
 _atom_site_fract_x
 _atom_site_fract_y
 _atom_site_fract_z
 _atom_site_fract_occupancy
 Al  Al1  1  0.00415  0.00415  0.00415  1
 Mo  Mo1  1  0.40179  0.40179  0.81124  1
 Mo  Mo2  1  0.81124  0.40179  0.40179  1
 Mo  Mo3  1  0.40179  0.81124  0.40179  1
 Mo  Mo4  1  0.40180  0.40180  0.40180  1
 S  S1  1  0.63813  0.63813  0.63813  1
 S  S2  1  0.10222  0.63813  0.63813  1
 S  S3  1  0.63813  0.10222  0.63813  1
 S  S4  1  0.13845  0.60128  0.13845  1
 S  S5  1  0.13844  0.13844  0.13844  1
 S  S6  1  0.13845  0.13845  0.60128  1
 S  S7  1  0.60128  0.13845  0.13845  1
 S  S8  1  0.63813  0.63813  0.10222  1
