CIF file written using JARVIS-Tools package.
data_LiCuPO4
_symmetry_space_group_name_H-M  'P2_1/c'
_cell_length_a       5.62633
_cell_length_b       5.71402
_cell_length_c       10.6049
_cell_angle_alpha    90
_cell_angle_beta     107.707
_cell_angle_gamma    90

_symmetry_Int_Tables_number  14
_chemical_formula_structural  LiCuPO4
_chemical_formula_sum  Li4Cu4P4O6
_cell_volume  324.78344737105294
_cell_formula_units_Z  4
loop_
  _symmetry_equiv_pos_site_id
 _symmetry_equiv_pos_as_xyz
 1  'x, y, z'
loop_
 _atom_site_type_symbol
 _atom_site_label
 _atom_site_symmetry_multiplicity
 _atom_site_fract_x
 _atom_site_fract_y
 _atom_site_fract_z
 _atom_site_fract_occupancy
 Cu  Cu1  1  0.74648  0.40132  0.35797  1
 Cu  Cu2  1  0.25352  0.90132  0.14203  1
 Cu  Cu3  1  0.74648  0.09868  0.85797  1
 Cu  Cu4  1  0.25352  0.59868  0.64203  1
 Li  Li1  1  0.30500  0.33883  0.07701  1
 Li  Li2  1  0.69500  0.83883  0.42299  1
 Li  Li3  1  0.30500  0.16117  0.57701  1
 Li  Li4  1  0.69500  0.66117  0.92299  1
 O  O1  1  0.35396  0.73088  0.30686  1
 O  O2  1  0.23396  0.05666  0.96646  1
 O  O3  1  0.25112  0.64242  0.01379  1
 O  O4  1  0.09828  0.19773  0.18742  1
 O  O5  1  0.76604  0.55666  0.53354  1
 O  O6  1  0.64604  0.26912  0.69314  1
 O  O7  1  0.35396  0.76912  0.80686  1
 O  O8  1  0.74888  0.14242  0.48621  1
 O  O9  1  0.64604  0.23088  0.19314  1
 O  O10  1  0.25112  0.85758  0.51379  1
 O  O11  1  0.76604  0.94334  0.03354  1
 O  O12  1  0.74888  0.35758  0.98621  1
 O  O13  1  0.09828  0.30227  0.68742  1
 O  O14  1  0.23396  0.44334  0.46646  1
 O  O15  1  0.90172  0.69773  0.31258  1
 O  O16  1  0.90172  0.80227  0.81258  1
 P  P1  1  0.81833  0.31553  0.60621  1
 P  P2  1  0.18167  0.81553  0.89379  1
 P  P3  1  0.81833  0.18447  0.10621  1
 P  P4  1  0.18167  0.68447  0.39379  1
