CIF file written using JARVIS-Tools package.
data_BaI2
_symmetry_space_group_name_H-M  'P-62m'
_cell_length_a       9.19006
_cell_length_b       9.19006
_cell_length_c       5.1577
_cell_angle_alpha    90
_cell_angle_beta     90
_cell_angle_gamma    120

_symmetry_Int_Tables_number  189
_chemical_formula_structural  BaI2
_chemical_formula_sum  Ba3I6
_cell_volume  377.24477940192287
_cell_formula_units_Z  3
loop_
  _symmetry_equiv_pos_site_id
 _symmetry_equiv_pos_as_xyz
 1  'x, y, z'
loop_
 _atom_site_type_symbol
 _atom_site_label
 _atom_site_symmetry_multiplicity
 _atom_site_fract_x
 _atom_site_fract_y
 _atom_site_fract_z
 _atom_site_fract_occupancy
 Ba  Ba1  1  0.00000  0.00000  0.50000  1
 Ba  Ba2  1  0.66667  0.33333  0.00000  1
 Ba  Ba3  1  0.33333  0.66667  0.00000  1
 I  I1  1  0.59266  0.00000  0.50000  1
 I  I2  1  -0.00000  0.25712  0.00000  1
 I  I3  1  0.25712  0.00000  0.00000  1
 I  I4  1  0.00000  0.59266  0.50000  1
 I  I5  1  0.40734  0.40734  0.50000  1
 I  I6  1  0.74288  0.74288  0.00000  1
