CIF file written using JARVIS-Tools package.
data_TiNi
_symmetry_space_group_name_H-M  'Cmcm'
_cell_length_a       2.94619
_cell_length_b       3.98567
_cell_length_c       4.91237
_cell_angle_alpha    90
_cell_angle_beta     107.43
_cell_angle_gamma    90

_symmetry_Int_Tables_number  63
_chemical_formula_structural  TiNi
_chemical_formula_sum  Ti2Ni2
_cell_volume  55.03499067862401
_cell_formula_units_Z  2
loop_
  _symmetry_equiv_pos_site_id
 _symmetry_equiv_pos_as_xyz
 1  'x, y, z'
loop_
 _atom_site_type_symbol
 _atom_site_label
 _atom_site_symmetry_multiplicity
 _atom_site_fract_x
 _atom_site_fract_y
 _atom_site_fract_z
 _atom_site_fract_occupancy
 Ni  Ni1  1  0.08608  0.25000  0.17243  1
 Ni  Ni2  1  0.91392  0.75000  0.82757  1
 Ti  Ti1  1  0.35728  0.25000  0.71428  1
 Ti  Ti2  1  0.64272  0.75000  0.28572  1
