CIF file written using JARVIS-Tools package.
data_V2ZnS5
_symmetry_space_group_name_H-M  'Pmmn'
_cell_length_a       6.30341
_cell_length_b       3.65481
_cell_length_c       13.9696
_cell_angle_alpha    90
_cell_angle_beta     90.0208
_cell_angle_gamma    90

_symmetry_Int_Tables_number  59
_chemical_formula_structural  V2ZnS5
_chemical_formula_sum  V4Zn2S0
_cell_volume  321.8276253272632
_cell_formula_units_Z  2
loop_
  _symmetry_equiv_pos_site_id
 _symmetry_equiv_pos_as_xyz
 1  'x, y, z'
loop_
 _atom_site_type_symbol
 _atom_site_label
 _atom_site_symmetry_multiplicity
 _atom_site_fract_x
 _atom_site_fract_y
 _atom_site_fract_z
 _atom_site_fract_occupancy
 S  S1  1  0.58190  0.00000  0.25003  1
 S  S2  1  0.41811  0.50000  0.74998  1
 S  S3  1  0.32330  0.00000  0.93606  1
 S  S4  1  0.67679  0.50000  0.06395  1
 S  S5  1  0.32315  0.00000  0.56392  1
 S  S6  1  0.67677  0.50000  0.43609  1
 S  S7  1  0.87089  0.50000  0.63676  1
 S  S8  1  0.12906  0.00000  0.36322  1
 S  S9  1  0.12908  0.00000  0.13667  1
 S  S10  1  0.87096  0.50000  0.86331  1
 V  V1  1  0.52384  0.50000  0.90551  1
 V  V2  1  0.47624  0.00000  0.09451  1
 V  V3  1  0.47617  0.00000  0.40559  1
 V  V4  1  0.52375  0.50000  0.59442  1
 Zn  Zn1  1  -0.13892  0.00000  0.75002  1
 Zn  Zn2  1  0.13892  0.50000  0.24995  1
