CIF file written using JARVIS-Tools package.
data_Hf2VTc
_symmetry_space_group_name_H-M  'Immm'
_cell_length_a       10.6347
_cell_length_b       6.01237
_cell_length_c       6.01236
_cell_angle_alpha    27.8443
_cell_angle_beta     27.8223
_cell_angle_gamma    27.8222

_symmetry_Int_Tables_number  71
_chemical_formula_structural  Hf2VTc
_chemical_formula_sum  Hf2VTc
_cell_volume  73.98355446651617
_cell_formula_units_Z  1
loop_
  _symmetry_equiv_pos_site_id
 _symmetry_equiv_pos_as_xyz
 1  'x, y, z'
loop_
 _atom_site_type_symbol
 _atom_site_label
 _atom_site_symmetry_multiplicity
 _atom_site_fract_x
 _atom_site_fract_y
 _atom_site_fract_z
 _atom_site_fract_occupancy
 Hf  Hf1  1  0.74718  -0.00000  0.00000  1
 Hf  Hf2  1  0.25282  0.00000  -0.00000  1
 Tc  Tc1  1  0.50000  -0.00000  -0.00000  1
 V  V1  1  0.00000  0.00000  0.00000  1
