CIF file written using JARVIS-Tools package.
data_Sm2Mn12P7
_symmetry_space_group_name_H-M  'P-6'
_cell_length_a       9.33254
_cell_length_b       3.64564
_cell_length_c       9.33226
_cell_angle_alpha    90
_cell_angle_beta     120
_cell_angle_gamma    90

_symmetry_Int_Tables_number  174
_chemical_formula_structural  Sm2Mn12P7
_chemical_formula_sum  Sm2Mn2P7
_cell_volume  274.97418225347707
_cell_formula_units_Z  1
loop_
  _symmetry_equiv_pos_site_id
 _symmetry_equiv_pos_as_xyz
 1  'x, y, z'
loop_
 _atom_site_type_symbol
 _atom_site_label
 _atom_site_symmetry_multiplicity
 _atom_site_fract_x
 _atom_site_fract_y
 _atom_site_fract_z
 _atom_site_fract_occupancy
 Mn  Mn1  1  0.95213  0.00000  0.37554  1
 Mn  Mn2  1  0.89523  0.50000  0.12192  1
 Mn  Mn3  1  0.22669  0.50000  0.10477  1
 Mn  Mn4  1  0.87808  0.50000  0.77331  1
 Mn  Mn5  1  0.39295  0.50000  0.43716  1
 Mn  Mn6  1  0.04421  0.50000  0.60705  1
 Mn  Mn7  1  0.56284  0.50000  0.95579  1
 Mn  Mn8  1  0.15516  0.00000  0.27470  1
 Mn  Mn9  1  0.11954  0.00000  0.84484  1
 Mn  Mn10  1  0.42341  0.00000  0.04787  1
 Mn  Mn11  1  0.62446  0.00000  0.57659  1
 Mn  Mn12  1  0.72530  0.00000  0.88046  1
 P  P1  1  0.00000  0.00000  -0.00000  1
 P  P2  1  0.59586  0.50000  0.72024  1
 P  P3  1  0.12438  0.50000  0.40414  1
 P  P4  1  0.70818  0.00000  0.11645  1
 P  P5  1  0.40827  0.00000  0.29182  1
 P  P6  1  0.88355  0.00000  0.59172  1
 P  P7  1  0.27976  0.50000  0.87562  1
 Sm  Sm1  1  0.33333  0.00000  0.66667  1
 Sm  Sm2  1  0.66666  0.50000  0.33333  1
