CIF file written using JARVIS-Tools package.
data_Sc2AgSn
_symmetry_space_group_name_H-M  'I4/mmm'
_cell_length_a       12.0311
_cell_length_b       8.48573
_cell_length_c       8.48574
_cell_angle_alpha    33.5438
_cell_angle_beta     19.5201
_cell_angle_gamma    19.5201

_symmetry_Int_Tables_number  139
_chemical_formula_structural  Sc2AgSn
_chemical_formula_sum  Sc2AgSn
_cell_volume  84.22918035775254
_cell_formula_units_Z  1
loop_
  _symmetry_equiv_pos_site_id
 _symmetry_equiv_pos_as_xyz
 1  'x, y, z'
loop_
 _atom_site_type_symbol
 _atom_site_label
 _atom_site_symmetry_multiplicity
 _atom_site_fract_x
 _atom_site_fract_y
 _atom_site_fract_z
 _atom_site_fract_occupancy
 Ag  Ag1  1  -0.00014  0.00011  0.00011  1
 Sc  Sc1  1  0.75007  -0.00002  -0.00002  1
 Sc  Sc2  1  0.25003  -0.00006  -0.00006  1
 Sn  Sn1  1  0.50004  -0.00003  -0.00003  1
