CIF file written using JARVIS-Tools package.
data_Li4HfO4
_symmetry_space_group_name_H-M  'Cmcm'
_cell_length_a       5.48421
_cell_length_b       5.48421
_cell_length_c       6.36969
_cell_angle_alpha    90
_cell_angle_beta     90
_cell_angle_gamma    95.9629

_symmetry_Int_Tables_number  63
_chemical_formula_structural  Li4HfO4
_chemical_formula_sum  Li8Hf2O8
_cell_volume  190.54152298914366
_cell_formula_units_Z  2
loop_
  _symmetry_equiv_pos_site_id
 _symmetry_equiv_pos_as_xyz
 1  'x, y, z'
loop_
 _atom_site_type_symbol
 _atom_site_label
 _atom_site_symmetry_multiplicity
 _atom_site_fract_x
 _atom_site_fract_y
 _atom_site_fract_z
 _atom_site_fract_occupancy
 Hf  Hf1  1  0.65255  0.65255  0.75000  1
 Hf  Hf2  1  0.34745  0.34745  0.25000  1
 Li  Li1  1  0.84344  0.15656  0.50000  1
 Li  Li2  1  0.84344  0.15656  0.00000  1
 Li  Li3  1  0.39923  0.11445  0.75000  1
 Li  Li4  1  0.15656  0.84344  0.50000  1
 Li  Li5  1  0.11445  0.39923  0.75000  1
 Li  Li6  1  0.60077  0.88555  0.25000  1
 Li  Li7  1  0.15656  0.84344  0.00000  1
 Li  Li8  1  0.88555  0.60077  0.25000  1
 O  O1  1  0.72568  0.30766  0.75000  1
 O  O2  1  0.27432  0.69234  0.25000  1
 O  O3  1  0.30766  0.72568  0.75000  1
 O  O4  1  0.20329  0.20329  0.50962  1
 O  O5  1  0.20329  0.20329  0.99038  1
 O  O6  1  0.79671  0.79671  0.49038  1
 O  O7  1  0.79671  0.79671  0.00962  1
 O  O8  1  0.69234  0.27432  0.25000  1
