CIF file written using JARVIS-Tools package.
data_Ca
_symmetry_space_group_name_H-M  'Im-3m'
_cell_length_a       4.36152
_cell_length_b       4.36152
_cell_length_c       8.48732
_cell_angle_alpha    90
_cell_angle_beta     90
_cell_angle_gamma    90.0056

_symmetry_Int_Tables_number  229
_chemical_formula_structural  Ca
_chemical_formula_sum  Ca4
_cell_volume  161.45327233818438
_cell_formula_units_Z  4
loop_
  _symmetry_equiv_pos_site_id
 _symmetry_equiv_pos_as_xyz
 1  'x, y, z'
loop_
 _atom_site_type_symbol
 _atom_site_label
 _atom_site_symmetry_multiplicity
 _atom_site_fract_x
 _atom_site_fract_y
 _atom_site_fract_z
 _atom_site_fract_occupancy
 Ca  Ca1  1  0.74999  0.25001  0.37501  1
 Ca  Ca2  1  0.25001  0.74999  0.62499  1
 Ca  Ca3  1  0.75001  0.24999  0.87501  1
 Ca  Ca4  1  0.24999  0.75001  0.12499  1
