CIF file written using JARVIS-Tools package.
data_U3Cl
_symmetry_space_group_name_H-M  'I4/mmm'
_cell_length_a       5.71258
_cell_length_b       5.71258
_cell_length_c       5.71258
_cell_angle_alpha    139.402
_cell_angle_beta     139.402
_cell_angle_gamma    58.7629

_symmetry_Int_Tables_number  139
_chemical_formula_structural  U3Cl
_chemical_formula_sum  U3Cl
_cell_volume  78.20293687969657
_cell_formula_units_Z  1
loop_
  _symmetry_equiv_pos_site_id
 _symmetry_equiv_pos_as_xyz
 1  'x, y, z'
loop_
 _atom_site_type_symbol
 _atom_site_label
 _atom_site_symmetry_multiplicity
 _atom_site_fract_x
 _atom_site_fract_y
 _atom_site_fract_z
 _atom_site_fract_occupancy
 Cl  Cl1  1  0.00000  0.00000  0.00000  1
 U  U1  1  0.75000  0.25000  0.50000  1
 U  U2  1  0.25000  0.75000  0.50000  1
 U  U3  1  0.50000  0.50000  0.00000  1
