CIF file written using JARVIS-Tools package.
data_LiMnRh2
_symmetry_space_group_name_H-M  'Immm'
_cell_length_a       9.85695
_cell_length_b       4.83267
_cell_length_c       4.83266
_cell_angle_alpha    54.978
_cell_angle_beta     31.3102
_cell_angle_gamma    31.31

_symmetry_Int_Tables_number  71
_chemical_formula_structural  LiMnRh2
_chemical_formula_sum  LiMnRh2
_cell_volume  50.73833615693417
_cell_formula_units_Z  1
loop_
  _symmetry_equiv_pos_site_id
 _symmetry_equiv_pos_as_xyz
 1  'x, y, z'
loop_
 _atom_site_type_symbol
 _atom_site_label
 _atom_site_symmetry_multiplicity
 _atom_site_fract_x
 _atom_site_fract_y
 _atom_site_fract_z
 _atom_site_fract_occupancy
 Li  Li1  1  0.00000  0.00001  0.00001  1
 Mn  Mn1  1  0.50000  -0.00001  -0.00001  1
 Rh  Rh1  1  0.74913  0.00162  0.00162  1
 Rh  Rh2  1  0.25086  -0.00162  -0.00162  1
