CIF file written using JARVIS-Tools package.
data_Te2O5
_symmetry_space_group_name_H-M  'P2_1'
_cell_length_a       5.4807
_cell_length_b       4.74039
_cell_length_c       7.96746
_cell_angle_alpha    90
_cell_angle_beta     105.422
_cell_angle_gamma    90

_symmetry_Int_Tables_number  4
_chemical_formula_structural  Te2O5
_chemical_formula_sum  Te4O0
_cell_volume  199.54655586279023
_cell_formula_units_Z  2
loop_
  _symmetry_equiv_pos_site_id
 _symmetry_equiv_pos_as_xyz
 1  'x, y, z'
loop_
 _atom_site_type_symbol
 _atom_site_label
 _atom_site_symmetry_multiplicity
 _atom_site_fract_x
 _atom_site_fract_y
 _atom_site_fract_z
 _atom_site_fract_occupancy
 O  O1  1  0.13371  0.04675  0.50075  1
 O  O2  1  0.86629  0.54675  0.49925  1
 O  O3  1  0.34777  0.17655  0.23343  1
 O  O4  1  0.65223  0.67655  0.76657  1
 O  O5  1  0.15850  0.78360  0.79592  1
 O  O6  1  0.84150  0.28360  0.20408  1
 O  O7  1  0.03766  0.72905  0.10478  1
 O  O8  1  0.96234  0.22905  0.89522  1
 O  O9  1  0.53721  0.72867  0.09986  1
 O  O10  1  0.46279  0.22867  0.90014  1
 Te  Te1  1  0.85687  0.89477  0.61669  1
 Te  Te2  1  0.14313  0.39477  0.38331  1
 Te  Te3  1  0.74022  0.49213  0.98502  1
 Te  Te4  1  0.25978  0.99213  0.01498  1
