CIF file written using JARVIS-Tools package.
data_Al2TcIr
_symmetry_space_group_name_H-M  'C2/m'
_cell_length_a       10.5775
_cell_length_b       6.1403
_cell_length_c       4.39422
_cell_angle_alpha    54.5135
_cell_angle_beta     33.1918
_cell_angle_gamma    28.1054

_symmetry_Int_Tables_number  12
_chemical_formula_structural  Al2TcIr
_chemical_formula_sum  Al2TcIr
_cell_volume  58.24973589312657
_cell_formula_units_Z  1
loop_
  _symmetry_equiv_pos_site_id
 _symmetry_equiv_pos_as_xyz
 1  'x, y, z'
loop_
 _atom_site_type_symbol
 _atom_site_label
 _atom_site_symmetry_multiplicity
 _atom_site_fract_x
 _atom_site_fract_y
 _atom_site_fract_z
 _atom_site_fract_occupancy
 Al  Al1  1  0.75340  0.99021  0.99619  1
 Al  Al2  1  0.24660  0.00979  0.00381  1
 Ir  Ir1  1  0.50000  0.00000  0.00000  1
 Tc  Tc1  1  0.00000  0.00000  0.00000  1
