CIF file written using JARVIS-Tools package.
data_Fe3OF7
_symmetry_space_group_name_H-M  'R3m'
_cell_length_a       5.50198
_cell_length_b       5.50198
_cell_length_c       5.50198
_cell_angle_alpha    116.603
_cell_angle_beta     116.603
_cell_angle_gamma    63.3967

_symmetry_Int_Tables_number  160
_chemical_formula_structural  Fe3OF7
_chemical_formula_sum  Fe3OF7
_cell_volume  126.62553476784018
_cell_formula_units_Z  1
loop_
  _symmetry_equiv_pos_site_id
 _symmetry_equiv_pos_as_xyz
 1  'x, y, z'
loop_
 _atom_site_type_symbol
 _atom_site_label
 _atom_site_symmetry_multiplicity
 _atom_site_fract_x
 _atom_site_fract_y
 _atom_site_fract_z
 _atom_site_fract_occupancy
 F  F1  1  0.13211  0.13211  0.86789  1
 F  F2  1  0.12909  0.12909  0.40585  1
 F  F3  1  0.12909  0.59415  0.87091  1
 F  F4  1  0.15782  0.62409  0.37591  1
 F  F5  1  0.59415  0.12909  0.87091  1
 F  F6  1  0.62409  0.15782  0.37591  1
 F  F7  1  0.62409  0.62409  0.84218  1
 Fe  Fe1  1  0.38219  0.38219  0.12734  1
 Fe  Fe2  1  0.38219  0.87266  0.61781  1
 Fe  Fe3  1  0.87266  0.38219  0.61781  1
 O  O1  1  0.60512  0.60512  0.39488  1
