CIF file written using JARVIS-Tools package.
data_K2NClO3
_symmetry_space_group_name_H-M  'Pnma'
_cell_length_a       5.68599
_cell_length_b       7.59468
_cell_length_c       10.0555
_cell_angle_alpha    90
_cell_angle_beta     90
_cell_angle_gamma    90

_symmetry_Int_Tables_number  62
_chemical_formula_structural  K2NClO3
_chemical_formula_sum  K8N4Cl4O2
_cell_volume  434.2314570806882
_cell_formula_units_Z  4
loop_
  _symmetry_equiv_pos_site_id
 _symmetry_equiv_pos_as_xyz
 1  'x, y, z'
loop_
 _atom_site_type_symbol
 _atom_site_label
 _atom_site_symmetry_multiplicity
 _atom_site_fract_x
 _atom_site_fract_y
 _atom_site_fract_z
 _atom_site_fract_occupancy
 Cl  Cl1  1  0.75000  0.77568  0.42127  1
 Cl  Cl2  1  0.25000  0.72432  0.92127  1
 Cl  Cl3  1  0.25000  0.22432  0.57873  1
 Cl  Cl4  1  0.75000  0.27568  0.07873  1
 K  K1  1  0.75000  0.33761  0.40493  1
 K  K2  1  0.25000  0.16239  0.90493  1
 K  K3  1  0.25000  0.48033  0.19668  1
 K  K4  1  0.75000  0.51967  0.80332  1
 K  K5  1  0.25000  0.66239  0.59507  1
 K  K6  1  0.75000  0.83761  0.09507  1
 K  K7  1  0.25000  0.98033  0.30332  1
 K  K8  1  0.75000  0.01967  0.69668  1
 N  N1  1  0.75000  0.96299  0.40569  1
 N  N2  1  0.25000  0.53701  0.90569  1
 N  N3  1  0.25000  0.03701  0.59431  1
 N  N4  1  0.75000  0.46299  0.09431  1
 O  O1  1  0.03795  0.81884  0.85985  1
 O  O2  1  0.75000  0.70594  0.56500  1
 O  O3  1  0.53795  0.68116  0.35985  1
 O  O4  1  0.96205  0.18116  0.14015  1
 O  O5  1  0.25000  0.29406  0.43500  1
 O  O6  1  0.03795  0.31884  0.64015  1
 O  O7  1  0.25000  0.79406  0.06500  1
 O  O8  1  0.46205  0.81884  0.85985  1
 O  O9  1  0.75000  0.20594  0.93500  1
 O  O10  1  0.53795  0.18116  0.14015  1
 O  O11  1  0.96205  0.68116  0.35985  1
 O  O12  1  0.46205  0.31884  0.64015  1
