CIF file written using JARVIS-Tools package.
data_Sr2InHg
_symmetry_space_group_name_H-M  'Immm'
_cell_length_a       13.2697
_cell_length_b       7.67612
_cell_length_c       7.67612
_cell_angle_alpha    29.5161
_cell_angle_beta     30.1918
_cell_angle_gamma    30.1918

_symmetry_Int_Tables_number  71
_chemical_formula_structural  Sr2InHg
_chemical_formula_sum  Sr2InHg
_cell_volume  172.7270428570833
_cell_formula_units_Z  1
loop_
  _symmetry_equiv_pos_site_id
 _symmetry_equiv_pos_as_xyz
 1  'x, y, z'
loop_
 _atom_site_type_symbol
 _atom_site_label
 _atom_site_symmetry_multiplicity
 _atom_site_fract_x
 _atom_site_fract_y
 _atom_site_fract_z
 _atom_site_fract_occupancy
 Hg  Hg1  1  0.50000  -0.00000  -0.00000  1
 In  In1  1  0.00000  0.00000  0.00000  1
 Sr  Sr1  1  0.73763  0.00000  0.00000  1
 Sr  Sr2  1  0.26237  -0.00000  -0.00000  1
