CIF file written using JARVIS-Tools package.
data_GaBiO3
_symmetry_space_group_name_H-M  'R3c'
_cell_length_a       5.61045
_cell_length_b       5.5776
_cell_length_c       5.5776
_cell_angle_alpha    60
_cell_angle_beta     60.1936
_cell_angle_gamma    90

_symmetry_Int_Tables_number  161
_chemical_formula_structural  GaBiO3
_chemical_formula_sum  Ga2Bi2O6
_cell_volume  123.77747214892565
_cell_formula_units_Z  2
loop_
  _symmetry_equiv_pos_site_id
 _symmetry_equiv_pos_as_xyz
 1  'x, y, z'
loop_
 _atom_site_type_symbol
 _atom_site_label
 _atom_site_symmetry_multiplicity
 _atom_site_fract_x
 _atom_site_fract_y
 _atom_site_fract_z
 _atom_site_fract_occupancy
 Bi  Bi1  1  0.64715  0.21572  0.56856  1
 Bi  Bi2  1  0.14715  0.71572  0.56856  1
 Ga  Ga1  1  0.46684  0.48895  0.02211  1
 Ga  Ga2  1  0.96684  0.98895  0.02211  1
 O  O1  1  0.76823  0.27318  0.91122  1
 O  O2  1  0.76823  0.81560  0.50495  1
 O  O3  1  0.76823  0.67945  0.04737  1
 O  O4  1  0.26823  0.31560  0.91122  1
 O  O5  1  0.26823  0.17945  0.50495  1
 O  O6  1  0.26823  0.77318  0.04737  1
