CIF file written using JARVIS-Tools package.
data_MgRu2W
_symmetry_space_group_name_H-M  'Immm'
_cell_length_a       10.4151
_cell_length_b       6.7324
_cell_length_c       6.73332
_cell_angle_alpha    40.5784
_cell_angle_beta     23.2094
_cell_angle_gamma    23.2155

_symmetry_Int_Tables_number  71
_chemical_formula_structural  MgRu2W
_chemical_formula_sum  MgRu2W
_cell_volume  61.349149096744696
_cell_formula_units_Z  1
loop_
  _symmetry_equiv_pos_site_id
 _symmetry_equiv_pos_as_xyz
 1  'x, y, z'
loop_
 _atom_site_type_symbol
 _atom_site_label
 _atom_site_symmetry_multiplicity
 _atom_site_fract_x
 _atom_site_fract_y
 _atom_site_fract_z
 _atom_site_fract_occupancy
 Mg  Mg1  1  1.00000  0.00000  0.00000  1
 Ru  Ru1  1  0.70876  0.02747  0.02746  1
 Ru  Ru2  1  0.29124  0.97253  0.97254  1
 W  W1  1  0.50000  0.00000  0.00000  1
