CIF file written using JARVIS-Tools package.
data_Hf2ZnOs
_symmetry_space_group_name_H-M  'Immm'
_cell_length_a       14.0527
_cell_length_b       7.43659
_cell_length_c       7.43659
_cell_angle_alpha    26.8509
_cell_angle_beta     19.1198
_cell_angle_gamma    19.1198

_symmetry_Int_Tables_number  71
_chemical_formula_structural  Hf2ZnOs
_chemical_formula_sum  Hf2ZnOs
_cell_volume  83.37631807804017
_cell_formula_units_Z  1
loop_
  _symmetry_equiv_pos_site_id
 _symmetry_equiv_pos_as_xyz
 1  'x, y, z'
loop_
 _atom_site_type_symbol
 _atom_site_label
 _atom_site_symmetry_multiplicity
 _atom_site_fract_x
 _atom_site_fract_y
 _atom_site_fract_z
 _atom_site_fract_occupancy
 Hf  Hf1  1  0.68024  -0.00000  -0.00000  1
 Hf  Hf2  1  0.31976  0.00000  0.00000  1
 Os  Os1  1  0.50000  0.00000  -0.00000  1
 Zn  Zn1  1  0.00000  0.00000  0.00000  1
