CIF file written using JARVIS-Tools package.
data_XeIF7
_symmetry_space_group_name_H-M  'I4/m'
_cell_length_a       7.55237
_cell_length_b       7.55236
_cell_length_c       7.58692
_cell_angle_alpha    119.85
_cell_angle_beta     119.849
_cell_angle_gamma    90

_symmetry_Int_Tables_number  87
_chemical_formula_structural  XeIF7
_chemical_formula_sum  Xe2I2F4
_cell_volume  307.3842028775038
_cell_formula_units_Z  2
loop_
  _symmetry_equiv_pos_site_id
 _symmetry_equiv_pos_as_xyz
 1  'x, y, z'
loop_
 _atom_site_type_symbol
 _atom_site_label
 _atom_site_symmetry_multiplicity
 _atom_site_fract_x
 _atom_site_fract_y
 _atom_site_fract_z
 _atom_site_fract_occupancy
 F  F1  1  0.19739  0.01744  0.52268  1
 F  F2  1  0.39555  0.74178  0.00000  1
 F  F3  1  0.60445  0.25822  -0.00000  1
 F  F4  1  0.25822  0.39555  -0.00000  1
 F  F5  1  0.11743  0.11743  0.23486  1
 F  F6  1  0.88257  0.88257  0.76514  1
 F  F7  1  0.32529  0.50524  0.52268  1
 F  F8  1  0.74178  0.60445  0.00000  1
 F  F9  1  0.50524  0.19739  0.52268  1
 F  F10  1  0.67471  0.49476  0.47732  1
 F  F11  1  0.98256  0.67471  0.47732  1
 F  F12  1  0.49476  0.80261  0.47732  1
 F  F13  1  0.80261  0.98256  0.47732  1
 F  F14  1  0.01744  0.32529  0.52268  1
 I  I1  1  0.70867  0.70867  0.41734  1
 I  I2  1  0.29133  0.29133  0.58266  1
 Xe  Xe1  1  0.50000  -0.00000  0.00000  1
 Xe  Xe2  1  -0.00000  0.50000  0.00000  1
