CIF file written using JARVIS-Tools package.
data_Ca2MgAl
_symmetry_space_group_name_H-M  'Immm'
_cell_length_a       18.0079
_cell_length_b       10.1357
_cell_length_c       10.1358
_cell_angle_alpha    24.7627
_cell_angle_beta     15.7242
_cell_angle_gamma    15.7241

_symmetry_Int_Tables_number  71
_chemical_formula_structural  Ca2MgAl
_chemical_formula_sum  Ca2MgAl
_cell_volume  131.4895039581244
_cell_formula_units_Z  1
loop_
  _symmetry_equiv_pos_site_id
 _symmetry_equiv_pos_as_xyz
 1  'x, y, z'
loop_
 _atom_site_type_symbol
 _atom_site_label
 _atom_site_symmetry_multiplicity
 _atom_site_fract_x
 _atom_site_fract_y
 _atom_site_fract_z
 _atom_site_fract_occupancy
 Al  Al1  1  0.50000  -0.00000  0.00000  1
 Ca  Ca1  1  0.48886  0.17413  0.17413  1
 Ca  Ca2  1  0.51114  0.82587  0.82587  1
 Mg  Mg1  1  0.00000  0.00000  0.00000  1
