CIF file written using JARVIS-Tools package.
data_Ti2OsRh
_symmetry_space_group_name_H-M  'Immm'
_cell_length_a       9.6334
_cell_length_b       5.55815
_cell_length_c       5.55815
_cell_angle_alpha    28.537
_cell_angle_beta     29.9339
_cell_angle_gamma    29.9339

_symmetry_Int_Tables_number  71
_chemical_formula_structural  Ti2OsRh
_chemical_formula_sum  Ti2OsRh
_cell_volume  63.650335381798094
_cell_formula_units_Z  1
loop_
  _symmetry_equiv_pos_site_id
 _symmetry_equiv_pos_as_xyz
 1  'x, y, z'
loop_
 _atom_site_type_symbol
 _atom_site_label
 _atom_site_symmetry_multiplicity
 _atom_site_fract_x
 _atom_site_fract_y
 _atom_site_fract_z
 _atom_site_fract_occupancy
 Os  Os1  1  0.50000  -0.00000  0.00000  1
 Rh  Rh1  1  0.00000  0.00000  0.00000  1
 Ti  Ti1  1  0.75201  -0.00000  -0.00000  1
 Ti  Ti2  1  0.24799  0.00000  0.00000  1
