CIF file written using JARVIS-Tools package.
data_LiY2In
_symmetry_space_group_name_H-M  'P-1'
_cell_length_a       13.048
_cell_length_b       8.6869
_cell_length_c       7.5679
_cell_angle_alpha    40.6119
_cell_angle_beta     26.6102
_cell_angle_gamma    19.5557

_symmetry_Int_Tables_number  2
_chemical_formula_structural  LiY2In
_chemical_formula_sum  LiY2In
_cell_volume  106.89373436901116
_cell_formula_units_Z  1
loop_
  _symmetry_equiv_pos_site_id
 _symmetry_equiv_pos_as_xyz
 1  'x, y, z'
loop_
 _atom_site_type_symbol
 _atom_site_label
 _atom_site_symmetry_multiplicity
 _atom_site_fract_x
 _atom_site_fract_y
 _atom_site_fract_z
 _atom_site_fract_occupancy
 In  In1  1  0.49999  0.00001  0.00000  1
 Li  Li1  1  -0.00000  0.00000  0.00000  1
 Y  Y1  1  0.73191  0.00869  0.01675  1
 Y  Y2  1  0.26810  -0.00870  -0.01675  1
