CIF file written using JARVIS-Tools package.
data_Mo2O5
_symmetry_space_group_name_H-M  'Cmcm'
_cell_length_a       11.9066
_cell_length_b       5.37272
_cell_length_c       3.81834
_cell_angle_alpha    110.815
_cell_angle_beta     90
_cell_angle_gamma    90

_symmetry_Int_Tables_number  63
_chemical_formula_structural  Mo2O5
_chemical_formula_sum  Mo4O0
_cell_volume  228.3209510080722
_cell_formula_units_Z  2
loop_
  _symmetry_equiv_pos_site_id
 _symmetry_equiv_pos_as_xyz
 1  'x, y, z'
loop_
 _atom_site_type_symbol
 _atom_site_label
 _atom_site_symmetry_multiplicity
 _atom_site_fract_x
 _atom_site_fract_y
 _atom_site_fract_z
 _atom_site_fract_occupancy
 Mo  Mo1  1  0.14943  0.88221  0.94110  1
 Mo  Mo2  1  0.35057  0.11779  0.55890  1
 Mo  Mo3  1  0.64943  0.11779  0.55890  1
 Mo  Mo4  1  0.85057  0.88221  0.94110  1
 O  O1  1  0.00000  -0.00080  -0.00040  1
 O  O2  1  0.13429  0.54982  0.77491  1
 O  O3  1  0.18601  0.97804  0.48902  1
 O  O4  1  0.31399  0.02196  0.01098  1
 O  O5  1  0.36571  0.45018  0.72509  1
 O  O6  1  0.50000  0.00080  0.50040  1
 O  O7  1  0.63429  0.45018  0.72509  1
 O  O8  1  0.86571  0.54982  0.77491  1
 O  O9  1  0.68601  0.02196  0.01098  1
 O  O10  1  0.81399  0.97804  0.48902  1
