CIF file written using JARVIS-Tools package.
data_Sm2Be2GeO7
_symmetry_space_group_name_H-M  'P-42_1m'
_cell_length_a       7.55319
_cell_length_b       7.55319
_cell_length_c       4.87783
_cell_angle_alpha    90
_cell_angle_beta     90
_cell_angle_gamma    90

_symmetry_Int_Tables_number  113
_chemical_formula_structural  Sm2Be2GeO7
_chemical_formula_sum  Sm4Be4Ge2O4
_cell_volume  278.28362949875145
_cell_formula_units_Z  2
loop_
  _symmetry_equiv_pos_site_id
 _symmetry_equiv_pos_as_xyz
 1  'x, y, z'
loop_
 _atom_site_type_symbol
 _atom_site_label
 _atom_site_symmetry_multiplicity
 _atom_site_fract_x
 _atom_site_fract_y
 _atom_site_fract_z
 _atom_site_fract_occupancy
 Be  Be1  1  0.36555  0.86555  0.04414  1
 Be  Be2  1  0.86555  0.63445  0.95586  1
 Be  Be3  1  0.63445  0.13445  0.04414  1
 Be  Be4  1  0.13445  0.36555  0.95586  1
 Ge  Ge1  1  0.50000  0.50000  0.00000  1
 Ge  Ge2  1  0.00000  0.00000  0.00000  1
 O  O1  1  0.35790  0.85790  0.71818  1
 O  O2  1  0.92085  0.82678  0.78872  1
 O  O3  1  0.07915  0.17322  0.78872  1
 O  O4  1  0.57915  0.32678  0.21128  1
 O  O5  1  0.42085  0.67322  0.21128  1
 O  O6  1  0.32678  0.42085  0.78872  1
 O  O7  1  0.17322  0.92085  0.21128  1
 O  O8  1  0.00000  0.50000  0.82334  1
 O  O9  1  0.82678  0.07915  0.21128  1
 O  O10  1  0.14210  0.35790  0.28182  1
 O  O11  1  0.64210  0.14210  0.71818  1
 O  O12  1  0.67322  0.57915  0.78872  1
 O  O13  1  0.85790  0.64210  0.28182  1
 O  O14  1  0.50000  0.00000  0.17666  1
 Sm  Sm1  1  0.34127  0.15873  0.50417  1
 Sm  Sm2  1  0.84127  0.34127  0.49583  1
 Sm  Sm3  1  0.15873  0.65873  0.49583  1
 Sm  Sm4  1  0.65873  0.84127  0.50417  1
