CIF file written using JARVIS-Tools package.
data_Ba2CuF6
_symmetry_space_group_name_H-M  'I4/mmm'
_cell_length_a       4.17917
_cell_length_b       4.17917
_cell_length_c       8.38623
_cell_angle_alpha    104.427
_cell_angle_beta     104.427
_cell_angle_gamma    90.0133

_symmetry_Int_Tables_number  139
_chemical_formula_structural  Ba2CuF6
_chemical_formula_sum  Ba2CuF6
_cell_volume  137.07361268368126
_cell_formula_units_Z  1
loop_
  _symmetry_equiv_pos_site_id
 _symmetry_equiv_pos_as_xyz
 1  'x, y, z'
loop_
 _atom_site_type_symbol
 _atom_site_label
 _atom_site_symmetry_multiplicity
 _atom_site_fract_x
 _atom_site_fract_y
 _atom_site_fract_z
 _atom_site_fract_occupancy
 Ba  Ba1  1  0.14827  0.14827  0.29658  1
 Ba  Ba2  1  0.85173  0.85173  0.70342  1
 Cu  Cu1  1  0.50000  0.50000  0.00000  1
 F  F1  1  0.37860  0.37860  0.75729  1
 F  F2  1  0.50000  0.00000  -0.00000  1
 F  F3  1  0.00000  0.50000  0.00000  1
 F  F4  1  0.62140  0.62140  0.24271  1
 F  F5  1  0.74998  0.25002  0.50000  1
 F  F6  1  0.25002  0.74998  0.50000  1
