CIF file written using JARVIS-Tools package.
data_Sr4Fe4O11
_symmetry_space_group_name_H-M  'Cmmm'
_cell_length_a       5.45872
_cell_length_b       6.66635
_cell_length_c       6.66634
_cell_angle_alpha    110.592
_cell_angle_beta     90
_cell_angle_gamma    90

_symmetry_Int_Tables_number  65
_chemical_formula_structural  Sr4Fe4O11
_chemical_formula_sum  Sr4Fe4O
_cell_volume  227.0875020625506
_cell_formula_units_Z  1
loop_
  _symmetry_equiv_pos_site_id
 _symmetry_equiv_pos_as_xyz
 1  'x, y, z'
loop_
 _atom_site_type_symbol
 _atom_site_label
 _atom_site_symmetry_multiplicity
 _atom_site_fract_x
 _atom_site_fract_y
 _atom_site_fract_z
 _atom_site_fract_occupancy
 Fe  Fe1  1  0.00000  0.74597  0.74597  1
 Fe  Fe2  1  0.00000  0.25403  0.25403  1
 Fe  Fe3  1  0.50000  0.50000  0.00000  1
 Fe  Fe4  1  0.50000  1.00000  0.50000  1
 O  O1  1  0.24119  0.89235  0.64975  1
 O  O2  1  0.24119  0.10765  0.35025  1
 O  O3  1  0.75881  0.64975  0.89234  1
 O  O4  1  0.75881  0.35025  0.10765  1
 O  O5  1  0.75881  0.10765  0.35025  1
 O  O6  1  0.75881  0.89235  0.64975  1
 O  O7  1  0.24119  0.35025  0.10765  1
 O  O8  1  0.50000  0.73306  0.26694  1
 O  O9  1  0.00000  0.50000  0.50000  1
 O  O10  1  0.50000  0.26694  0.73306  1
 O  O11  1  0.24119  0.64975  0.89234  1
 Sr  Sr1  1  0.50000  0.00000  0.00000  1
 Sr  Sr2  1  0.00000  0.74134  0.25866  1
 Sr  Sr3  1  0.00000  0.25866  0.74134  1
 Sr  Sr4  1  0.50000  0.50000  0.50000  1
