CIF file written using JARVIS-Tools package.
data_LiCd2Hg
_symmetry_space_group_name_H-M  'C2/m'
_cell_length_a       12.4931
_cell_length_b       8.15544
_cell_length_c       8.15559
_cell_angle_alpha    23.0702
_cell_angle_beta     18.8161
_cell_angle_gamma    18.8193

_symmetry_Int_Tables_number  12
_chemical_formula_structural  LiCd2Hg
_chemical_formula_sum  LiCd2Hg
_cell_volume  84.10946352756613
_cell_formula_units_Z  1
loop_
  _symmetry_equiv_pos_site_id
 _symmetry_equiv_pos_as_xyz
 1  'x, y, z'
loop_
 _atom_site_type_symbol
 _atom_site_label
 _atom_site_symmetry_multiplicity
 _atom_site_fract_x
 _atom_site_fract_y
 _atom_site_fract_z
 _atom_site_fract_occupancy
 Cd  Cd1  1  0.71472  0.02391  0.02389  1
 Cd  Cd2  1  0.28528  -0.02391  -0.02389  1
 Hg  Hg1  1  0.50000  -0.00000  -0.00000  1
 Li  Li1  1  0.00000  -0.00000  -0.00000  1
