CIF file written using JARVIS-Tools package.
data_CaYZn2
_symmetry_space_group_name_H-M  'Immm'
_cell_length_a       12.2322
_cell_length_b       7.04467
_cell_length_c       7.04467
_cell_angle_alpha    52.1119
_cell_angle_beta     29.7512
_cell_angle_gamma    29.7511

_symmetry_Int_Tables_number  71
_chemical_formula_structural  CaYZn2
_chemical_formula_sum  CaYZn2
_cell_volume  123.13039870498028
_cell_formula_units_Z  1
loop_
  _symmetry_equiv_pos_site_id
 _symmetry_equiv_pos_as_xyz
 1  'x, y, z'
loop_
 _atom_site_type_symbol
 _atom_site_label
 _atom_site_symmetry_multiplicity
 _atom_site_fract_x
 _atom_site_fract_y
 _atom_site_fract_z
 _atom_site_fract_occupancy
 Ca  Ca1  1  0.00000  0.00000  0.00000  1
 Y  Y1  1  0.50000  0.00000  0.00000  1
 Zn  Zn1  1  0.74434  0.00000  -0.00000  1
 Zn  Zn2  1  0.25566  -0.00000  0.00000  1
