CIF file written using JARVIS-Tools package.
data_Al5CuS8
_symmetry_space_group_name_H-M  'F-43m'
_cell_length_a       7.07913
_cell_length_b       7.07912
_cell_length_c       7.07912
_cell_angle_alpha    60
_cell_angle_beta     60
_cell_angle_gamma    60

_symmetry_Int_Tables_number  216
_chemical_formula_structural  Al5CuS8
_chemical_formula_sum  Al5CuS8
_cell_volume  250.8557660152338
_cell_formula_units_Z  1
loop_
  _symmetry_equiv_pos_site_id
 _symmetry_equiv_pos_as_xyz
 1  'x, y, z'
loop_
 _atom_site_type_symbol
 _atom_site_label
 _atom_site_symmetry_multiplicity
 _atom_site_fract_x
 _atom_site_fract_y
 _atom_site_fract_z
 _atom_site_fract_occupancy
 Al  Al1  1  0.01966  0.49345  0.49345  1
 Al  Al2  1  0.49345  0.49345  0.01966  1
 Al  Al3  1  0.49345  0.01966  0.49345  1
 Al  Al4  1  0.49345  0.49345  0.49345  1
 Al  Al5  1  0.87500  0.87500  0.87500  1
 Cu  Cu1  1  0.12500  0.12500  0.12500  1
 S  S1  1  0.25693  0.25693  0.25693  1
 S  S2  1  0.25693  0.72921  0.25693  1
 S  S3  1  0.25693  0.25693  0.72921  1
 S  S4  1  0.72921  0.25693  0.25693  1
 S  S5  1  0.27489  0.74170  0.74170  1
 S  S6  1  0.74170  0.74170  0.27489  1
 S  S7  1  0.74170  0.27489  0.74170  1
 S  S8  1  0.74170  0.74170  0.74170  1
