CIF file written using JARVIS-Tools package.
data_CaFeF4
_symmetry_space_group_name_H-M  'Ima2'
_cell_length_a       5.41179
_cell_length_b       5.36393
_cell_length_c       6.56144
_cell_angle_alpha    114.11
_cell_angle_beta     114.352
_cell_angle_gamma    90.0003

_symmetry_Int_Tables_number  46
_chemical_formula_structural  CaFeF4
_chemical_formula_sum  Ca2Fe2F8
_cell_volume  155.1001492937292
_cell_formula_units_Z  2
loop_
  _symmetry_equiv_pos_site_id
 _symmetry_equiv_pos_as_xyz
 1  'x, y, z'
loop_
 _atom_site_type_symbol
 _atom_site_label
 _atom_site_symmetry_multiplicity
 _atom_site_fract_x
 _atom_site_fract_y
 _atom_site_fract_z
 _atom_site_fract_occupancy
 Ca  Ca1  1  0.25127  0.24864  0.50210  1
 Ca  Ca2  1  0.75120  0.74864  0.50209  1
 F  F1  1  0.45127  0.31228  0.26883  1
 F  F2  1  0.18455  0.04499  0.73524  1
 F  F3  1  0.58290  0.67253  0.76017  1
 F  F4  1  0.05095  0.54494  0.73514  1
 F  F5  1  0.82492  0.91474  0.24422  1
 F  F6  1  0.31790  0.81224  0.26874  1
 F  F7  1  0.91967  0.41471  0.24416  1
 F  F8  1  0.67757  0.17252  0.76013  1
 Fe  Fe1  1  0.55049  0.05905  0.00215  1
 Fe  Fe2  1  0.95204  0.55901  0.00211  1
