CIF file written using JARVIS-Tools package.
data_NaZnPd2
_symmetry_space_group_name_H-M  'Immm'
_cell_length_a       10.5469
_cell_length_b       5.97348
_cell_length_c       5.97348
_cell_angle_alpha    48.1154
_cell_angle_beta     28.0165
_cell_angle_gamma    28.0166

_symmetry_Int_Tables_number  71
_chemical_formula_structural  NaZnPd2
_chemical_formula_sum  NaZnPd2
_cell_volume  71.60479533639167
_cell_formula_units_Z  1
loop_
  _symmetry_equiv_pos_site_id
 _symmetry_equiv_pos_as_xyz
 1  'x, y, z'
loop_
 _atom_site_type_symbol
 _atom_site_label
 _atom_site_symmetry_multiplicity
 _atom_site_fract_x
 _atom_site_fract_y
 _atom_site_fract_z
 _atom_site_fract_occupancy
 Na  Na1  1  0.00000  0.00000  0.00000  1
 Pd  Pd1  1  0.72964  0.00000  1.00000  1
 Pd  Pd2  1  0.27036  1.00000  0.00000  1
 Zn  Zn1  1  0.50000  -0.00000  0.00000  1
