CIF file written using JARVIS-Tools package.
data_Ta2OsPd
_symmetry_space_group_name_H-M  'C2/m'
_cell_length_a       11.2109
_cell_length_b       7.50253
_cell_length_c       7.5025
_cell_angle_alpha    22.3669
_cell_angle_beta     19.3819
_cell_angle_gamma    19.3825

_symmetry_Int_Tables_number  12
_chemical_formula_structural  Ta2OsPd
_chemical_formula_sum  Ta2OsPd
_cell_volume  65.91764734648851
_cell_formula_units_Z  1
loop_
  _symmetry_equiv_pos_site_id
 _symmetry_equiv_pos_as_xyz
 1  'x, y, z'
loop_
 _atom_site_type_symbol
 _atom_site_label
 _atom_site_symmetry_multiplicity
 _atom_site_fract_x
 _atom_site_fract_y
 _atom_site_fract_z
 _atom_site_fract_occupancy
 Os  Os1  1  0.50000  0.00000  0.00000  1
 Pd  Pd1  1  -0.00000  0.00000  0.00000  1
 Ta  Ta1  1  0.74836  0.00011  0.00012  1
 Ta  Ta2  1  0.25165  -0.00012  -0.00012  1
