CIF file written using JARVIS-Tools package.
data_Mo
_symmetry_space_group_name_H-M  'Cmcm'
_cell_length_a       2.9783
_cell_length_b       2.9783
_cell_length_c       9.27207
_cell_angle_alpha    90
_cell_angle_beta     90
_cell_angle_gamma    128.509

_symmetry_Int_Tables_number  63
_chemical_formula_structural  Mo
_chemical_formula_sum  Mo4
_cell_volume  64.3586797607294
_cell_formula_units_Z  4
loop_
  _symmetry_equiv_pos_site_id
 _symmetry_equiv_pos_as_xyz
 1  'x, y, z'
loop_
 _atom_site_type_symbol
 _atom_site_label
 _atom_site_symmetry_multiplicity
 _atom_site_fract_x
 _atom_site_fract_y
 _atom_site_fract_z
 _atom_site_fract_occupancy
 Mo  Mo1  1  0.00000  0.00000  0.50000  1
 Mo  Mo2  1  0.00000  0.00000  0.00000  1
 Mo  Mo3  1  0.73589  0.26411  0.75000  1
 Mo  Mo4  1  0.26411  0.73589  0.25000  1
