CIF file written using JARVIS-Tools package.
data_KTlHg2
_symmetry_space_group_name_H-M  'Immm'
_cell_length_a       12.9585
_cell_length_b       7.41386
_cell_length_c       7.41386
_cell_angle_alpha    50.5161
_cell_angle_beta     29.0802
_cell_angle_gamma    29.0803

_symmetry_Int_Tables_number  71
_chemical_formula_structural  KTlHg2
_chemical_formula_sum  KTlHg2
_cell_volume  141.45886605738605
_cell_formula_units_Z  1
loop_
  _symmetry_equiv_pos_site_id
 _symmetry_equiv_pos_as_xyz
 1  'x, y, z'
loop_
 _atom_site_type_symbol
 _atom_site_label
 _atom_site_symmetry_multiplicity
 _atom_site_fract_x
 _atom_site_fract_y
 _atom_site_fract_z
 _atom_site_fract_occupancy
 Hg  Hg1  1  0.73654  -0.00000  -0.00000  1
 Hg  Hg2  1  0.26346  0.00000  0.00000  1
 K  K1  1  0.00000  0.00000  0.00000  1
 Tl  Tl1  1  0.50000  0.00000  -0.00000  1
