CIF file written using JARVIS-Tools package.
data_Mg2HgPb
_symmetry_space_group_name_H-M  'C2/m'
_cell_length_a       11.9999
_cell_length_b       8.54246
_cell_length_c       8.54257
_cell_angle_alpha    23.9171
_cell_angle_beta     19.7386
_cell_angle_gamma    19.7396

_symmetry_Int_Tables_number  12
_chemical_formula_structural  Mg2HgPb
_chemical_formula_sum  Mg2HgPb
_cell_volume  96.78582783775869
_cell_formula_units_Z  1
loop_
  _symmetry_equiv_pos_site_id
 _symmetry_equiv_pos_as_xyz
 1  'x, y, z'
loop_
 _atom_site_type_symbol
 _atom_site_label
 _atom_site_symmetry_multiplicity
 _atom_site_fract_x
 _atom_site_fract_y
 _atom_site_fract_z
 _atom_site_fract_occupancy
 Hg  Hg1  1  0.00000  0.00000  0.00000  1
 Mg  Mg1  1  0.71504  0.02944  0.02944  1
 Mg  Mg2  1  0.28496  -0.02944  -0.02944  1
 Pb  Pb1  1  0.50000  0.00000  0.00000  1
