CIF file written using JARVIS-Tools package.
data_Be2PtAu
_symmetry_space_group_name_H-M  'Immm'
_cell_length_a       9.08774
_cell_length_b       5.30651
_cell_length_c       5.30652
_cell_angle_alpha    52.805
_cell_angle_beta     31.0985
_cell_angle_gamma    31.0984

_symmetry_Int_Tables_number  71
_chemical_formula_structural  Be2PtAu
_chemical_formula_sum  Be2PtAu
_cell_volume  59.802835141718695
_cell_formula_units_Z  1
loop_
  _symmetry_equiv_pos_site_id
 _symmetry_equiv_pos_as_xyz
 1  'x, y, z'
loop_
 _atom_site_type_symbol
 _atom_site_label
 _atom_site_symmetry_multiplicity
 _atom_site_fract_x
 _atom_site_fract_y
 _atom_site_fract_z
 _atom_site_fract_occupancy
 Au  Au1  1  0.50000  -0.00000  -0.00000  1
 Be  Be1  1  0.75570  0.00000  -0.00000  1
 Be  Be2  1  0.24430  -0.00000  0.00000  1
 Pt  Pt1  1  0.00000  0.00000  0.00000  1
