CIF file written using JARVIS-Tools package.
data_HfScHg2
_symmetry_space_group_name_H-M  'Immm'
_cell_length_a       11.8006
_cell_length_b       6.67869
_cell_length_c       6.67869
_cell_angle_alpha    27.4583
_cell_angle_beta     27.9382
_cell_angle_gamma    27.9382

_symmetry_Int_Tables_number  71
_chemical_formula_structural  HfScHg2
_chemical_formula_sum  HfScHg2
_cell_volume  100.92810394256642
_cell_formula_units_Z  1
loop_
  _symmetry_equiv_pos_site_id
 _symmetry_equiv_pos_as_xyz
 1  'x, y, z'
loop_
 _atom_site_type_symbol
 _atom_site_label
 _atom_site_symmetry_multiplicity
 _atom_site_fract_x
 _atom_site_fract_y
 _atom_site_fract_z
 _atom_site_fract_occupancy
 Hf  Hf1  1  0.50000  0.00000  0.00000  1
 Hg  Hg1  1  0.74675  0.00000  0.00000  1
 Hg  Hg2  1  0.25325  -0.00000  -0.00000  1
 Sc  Sc1  1  0.00000  0.00000  0.00000  1
