CIF file written using JARVIS-Tools package.
data_Ca2ZnGe
_symmetry_space_group_name_H-M  'Immm'
_cell_length_a       11.8544
_cell_length_b       6.88856
_cell_length_c       6.88855
_cell_angle_alpha    52.3153
_cell_angle_beta     30.6337
_cell_angle_gamma    30.6338

_symmetry_Int_Tables_number  71
_chemical_formula_structural  Ca2ZnGe
_chemical_formula_sum  Ca2ZnGe
_cell_volume  126.73503096509263
_cell_formula_units_Z  1
loop_
  _symmetry_equiv_pos_site_id
 _symmetry_equiv_pos_as_xyz
 1  'x, y, z'
loop_
 _atom_site_type_symbol
 _atom_site_label
 _atom_site_symmetry_multiplicity
 _atom_site_fract_x
 _atom_site_fract_y
 _atom_site_fract_z
 _atom_site_fract_occupancy
 Ca  Ca1  1  0.74988  0.00000  0.00000  1
 Ca  Ca2  1  0.25012  -0.00000  -0.00000  1
 Ge  Ge1  1  0.50000  -0.00000  -0.00000  1
 Zn  Zn1  1  0.00000  0.00000  0.00000  1
