CIF file written using JARVIS-Tools package.
data_LiY2Ga
_symmetry_space_group_name_H-M  'Immm'
_cell_length_a       17.2108
_cell_length_b       9.55846
_cell_length_c       9.55845
_cell_angle_alpha    23.0468
_cell_angle_beta     14.8194
_cell_angle_gamma    14.8167

_symmetry_Int_Tables_number  71
_chemical_formula_structural  LiY2Ga
_chemical_formula_sum  LiY2Ga
_cell_volume  100.3253944847947
_cell_formula_units_Z  1
loop_
  _symmetry_equiv_pos_site_id
 _symmetry_equiv_pos_as_xyz
 1  'x, y, z'
loop_
 _atom_site_type_symbol
 _atom_site_label
 _atom_site_symmetry_multiplicity
 _atom_site_fract_x
 _atom_site_fract_y
 _atom_site_fract_z
 _atom_site_fract_occupancy
 Ga  Ga1  1  0.50000  1.00000  -0.00000  1
 Li  Li1  1  0.00000  0.00000  0.00000  1
 Y  Y1  1  0.50374  0.16417  0.16414  1
 Y  Y2  1  0.49626  0.83583  0.83586  1
