CIF file written using JARVIS-Tools package.
data_SrLi2Tl
_symmetry_space_group_name_H-M  'Immm'
_cell_length_a       12.537
_cell_length_b       7.08502
_cell_length_c       7.08501
_cell_angle_alpha    31.6312
_cell_angle_beta     27.7783
_cell_angle_gamma    27.7783

_symmetry_Int_Tables_number  71
_chemical_formula_structural  SrLi2Tl
_chemical_formula_sum  SrLi2Tl
_cell_volume  129.6862214987951
_cell_formula_units_Z  1
loop_
  _symmetry_equiv_pos_site_id
 _symmetry_equiv_pos_as_xyz
 1  'x, y, z'
loop_
 _atom_site_type_symbol
 _atom_site_label
 _atom_site_symmetry_multiplicity
 _atom_site_fract_x
 _atom_site_fract_y
 _atom_site_fract_z
 _atom_site_fract_occupancy
 Li  Li1  1  0.71586  0.00000  -0.00000  1
 Li  Li2  1  0.28414  -0.00000  0.00000  1
 Sr  Sr1  1  0.00000  0.00000  0.00000  1
 Tl  Tl1  1  0.50000  -0.00000  -0.00000  1
