CIF file written using JARVIS-Tools package.
data_LiZnCd2
_symmetry_space_group_name_H-M  'C2/m'
_cell_length_a       11.4388
_cell_length_b       7.70335
_cell_length_c       7.70336
_cell_angle_alpha    24.2418
_cell_angle_beta     19.9437
_cell_angle_gamma    19.9436

_symmetry_Int_Tables_number  12
_chemical_formula_structural  LiZnCd2
_chemical_formula_sum  LiZnCd2
_cell_volume  76.62621243109866
_cell_formula_units_Z  1
loop_
  _symmetry_equiv_pos_site_id
 _symmetry_equiv_pos_as_xyz
 1  'x, y, z'
loop_
 _atom_site_type_symbol
 _atom_site_label
 _atom_site_symmetry_multiplicity
 _atom_site_fract_x
 _atom_site_fract_y
 _atom_site_fract_z
 _atom_site_fract_occupancy
 Cd  Cd1  1  0.74453  0.00399  0.00399  1
 Cd  Cd2  1  0.25547  -0.00399  -0.00399  1
 Li  Li1  1  0.00000  0.00000  0.00000  1
 Zn  Zn1  1  0.50000  0.00000  -0.00000  1
