CIF file written using JARVIS-Tools package.
data_Li2SnBi
_symmetry_space_group_name_H-M  'I4/mmm'
_cell_length_a       10.7961
_cell_length_b       6.30186
_cell_length_c       6.30187
_cell_angle_alpha    42.8093
_cell_angle_beta     31.0652
_cell_angle_gamma    31.0652

_symmetry_Int_Tables_number  139
_chemical_formula_structural  Li2SnBi
_chemical_formula_sum  Li2SnBi
_cell_volume  114.1634442168599
_cell_formula_units_Z  1
loop_
  _symmetry_equiv_pos_site_id
 _symmetry_equiv_pos_as_xyz
 1  'x, y, z'
loop_
 _atom_site_type_symbol
 _atom_site_label
 _atom_site_symmetry_multiplicity
 _atom_site_fract_x
 _atom_site_fract_y
 _atom_site_fract_z
 _atom_site_fract_occupancy
 Bi  Bi1  1  0.50000  0.00000  0.00000  1
 Li  Li1  1  0.75008  -0.00000  0.00000  1
 Li  Li2  1  0.24992  0.00000  -0.00000  1
 Sn  Sn1  1  0.00000  0.00000  0.00000  1
