CIF file written using JARVIS-Tools package.
data_Ba2MgIn
_symmetry_space_group_name_H-M  'Immm'
_cell_length_a       14.0433
_cell_length_b       7.81014
_cell_length_c       7.81014
_cell_angle_alpha    36.016
_cell_angle_beta     25.9671
_cell_angle_gamma    25.9672

_symmetry_Int_Tables_number  71
_chemical_formula_structural  Ba2MgIn
_chemical_formula_sum  Ba2MgIn
_cell_volume  164.22846526731203
_cell_formula_units_Z  1
loop_
  _symmetry_equiv_pos_site_id
 _symmetry_equiv_pos_as_xyz
 1  'x, y, z'
loop_
 _atom_site_type_symbol
 _atom_site_label
 _atom_site_symmetry_multiplicity
 _atom_site_fract_x
 _atom_site_fract_y
 _atom_site_fract_z
 _atom_site_fract_occupancy
 Ba  Ba1  1  0.75083  -0.00000  0.00000  1
 Ba  Ba2  1  0.24917  0.00000  -0.00000  1
 In  In1  1  0.50000  0.00000  0.00000  1
 Mg  Mg1  1  0.00000  0.00000  0.00000  1
