CIF file written using JARVIS-Tools package.
data_NaLi2Hg
_symmetry_space_group_name_H-M  'Immm'
_cell_length_a       11.5687
_cell_length_b       6.54767
_cell_length_c       6.54768
_cell_angle_alpha    30.2793
_cell_angle_beta     27.9425
_cell_angle_gamma    27.9424

_symmetry_Int_Tables_number  71
_chemical_formula_structural  NaLi2Hg
_chemical_formula_sum  NaLi2Hg
_cell_volume  100.79101445842541
_cell_formula_units_Z  1
loop_
  _symmetry_equiv_pos_site_id
 _symmetry_equiv_pos_as_xyz
 1  'x, y, z'
loop_
 _atom_site_type_symbol
 _atom_site_label
 _atom_site_symmetry_multiplicity
 _atom_site_fract_x
 _atom_site_fract_y
 _atom_site_fract_z
 _atom_site_fract_occupancy
 Hg  Hg1  1  0.50000  -0.00000  0.00000  1
 Li  Li1  1  0.72728  0.00000  -0.00000  1
 Li  Li2  1  0.27272  -0.00000  0.00000  1
 Na  Na1  1  0.00000  0.00000  0.00000  1
