CIF file written using JARVIS-Tools package.
data_AlCo2Si
_symmetry_space_group_name_H-M  'Immm'
_cell_length_a       9.79964
_cell_length_b       5.51575
_cell_length_c       5.51574
_cell_angle_alpha    27.148
_cell_angle_beta     27.3355
_cell_angle_gamma    27.3354

_symmetry_Int_Tables_number  71
_chemical_formula_structural  AlCo2Si
_chemical_formula_sum  AlCo2Si
_cell_volume  55.235601867504876
_cell_formula_units_Z  1
loop_
  _symmetry_equiv_pos_site_id
 _symmetry_equiv_pos_as_xyz
 1  'x, y, z'
loop_
 _atom_site_type_symbol
 _atom_site_label
 _atom_site_symmetry_multiplicity
 _atom_site_fract_x
 _atom_site_fract_y
 _atom_site_fract_z
 _atom_site_fract_occupancy
 Al  Al1  1  0.00000  0.00000  0.00000  1
 Co  Co1  1  0.26746  -0.00000  0.00000  1
 Co  Co2  1  0.73254  0.00000  -0.00000  1
 Si  Si1  1  0.50000  0.00000  -0.00000  1
