CIF file written using JARVIS-Tools package.
data_K3SiTe3
_symmetry_space_group_name_H-M  'C2/m'
_cell_length_a       8.33573
_cell_length_b       8.33573
_cell_length_c       8.8505
_cell_angle_alpha    105.174
_cell_angle_beta     105.174
_cell_angle_gamma    109.37

_symmetry_Int_Tables_number  12
_chemical_formula_structural  K3SiTe3
_chemical_formula_sum  K6Si2Te6
_cell_volume  517.2789769630928
_cell_formula_units_Z  2
loop_
  _symmetry_equiv_pos_site_id
 _symmetry_equiv_pos_as_xyz
 1  'x, y, z'
loop_
 _atom_site_type_symbol
 _atom_site_label
 _atom_site_symmetry_multiplicity
 _atom_site_fract_x
 _atom_site_fract_y
 _atom_site_fract_z
 _atom_site_fract_occupancy
 K  K1  1  0.79314  0.79314  0.32503  1
 K  K2  1  0.50000  0.00000  0.00000  1
 K  K3  1  0.65625  0.34375  0.50000  1
 K  K4  1  0.34375  0.65625  0.50000  1
 K  K5  1  -0.00000  0.50000  0.00000  1
 K  K6  1  0.20686  0.20686  0.67497  1
 Si  Si1  1  0.89146  0.89146  0.85985  1
 Si  Si2  1  0.10854  0.10854  0.14015  1
 Te  Te1  1  0.36647  0.36647  0.12157  1
 Te  Te2  1  0.63353  0.63353  0.87843  1
 Te  Te3  1  0.94549  0.25161  0.30014  1
 Te  Te4  1  0.74839  0.05451  0.69986  1
 Te  Te5  1  0.05451  0.74839  0.69986  1
 Te  Te6  1  0.25161  0.94549  0.30014  1
