CIF file written using JARVIS-Tools package.
data_NaIn2Bi
_symmetry_space_group_name_H-M  'Immm'
_cell_length_a       13.673
_cell_length_b       7.53112
_cell_length_c       7.53111
_cell_angle_alpha    41.1586
_cell_angle_beta     24.8012
_cell_angle_gamma    24.8013

_symmetry_Int_Tables_number  71
_chemical_formula_structural  NaIn2Bi
_chemical_formula_sum  NaIn2Bi
_cell_volume  124.80070652384427
_cell_formula_units_Z  1
loop_
  _symmetry_equiv_pos_site_id
 _symmetry_equiv_pos_as_xyz
 1  'x, y, z'
loop_
 _atom_site_type_symbol
 _atom_site_label
 _atom_site_symmetry_multiplicity
 _atom_site_fract_x
 _atom_site_fract_y
 _atom_site_fract_z
 _atom_site_fract_occupancy
 Bi  Bi1  1  0.50000  -0.00000  -0.00000  1
 In  In1  1  0.72772  0.00000  0.00000  1
 In  In2  1  0.27228  -0.00000  -0.00000  1
 Na  Na1  1  0.00000  0.00000  0.00000  1
