data_image0
_chemical_formula_structural       F2H4N2Sn
_chemical_formula_sum              "F2 H4 N2 Sn1"
_cell_length_a       3.24157
_cell_length_b       4.94594
_cell_length_c       5.51852
_cell_angle_alpha    105.193
_cell_angle_beta     107.08
_cell_angle_gamma    90

_space_group_name_H-M_alt    "P 1"
_space_group_IT_number       1

loop_
  _space_group_symop_operation_xyz
  'x, y, z'

loop_
  _atom_site_type_symbol
  _atom_site_label
  _atom_site_symmetry_multiplicity
  _atom_site_fract_x
  _atom_site_fract_y
  _atom_site_fract_z
  _atom_site_occupancy
  F   F1        1.0  0.12400  0.74700  0.24800  1.0000
  F   F2        1.0  0.87600  0.25300  0.75200  1.0000
  H   H1        1.0  0.61100  0.44300  0.22200  1.0000
  H   H2        1.0  0.70800  0.22600  0.41500  1.0000
  H   H3        1.0  0.29200  0.77400  0.58500  1.0000
  H   H4        1.0  0.38900  0.55700  0.77800  1.0000
  N   N1        1.0  0.61100  0.23600  0.22100  1.0000
  N   N2        1.0  0.38900  0.76400  0.77900  1.0000
  Sn  Sn1       1.0  0.00000  0.00000  0.00000  1.0000
