CIF file written using JARVIS-Tools package.
data_PaGaAu2
_symmetry_space_group_name_H-M  'Fm-3m'
_cell_length_a       4.88764
_cell_length_b       4.88759
_cell_length_c       4.88753
_cell_angle_alpha    59.9827
_cell_angle_beta     59.9809
_cell_angle_gamma    59.9801

_symmetry_Int_Tables_number  225
_chemical_formula_structural  PaGaAu2
_chemical_formula_sum  PaGaAu2
_cell_volume  82.52428748296096
_cell_formula_units_Z  1
loop_
  _symmetry_equiv_pos_site_id
 _symmetry_equiv_pos_as_xyz
 1  'x, y, z'
loop_
 _atom_site_type_symbol
 _atom_site_label
 _atom_site_symmetry_multiplicity
 _atom_site_fract_x
 _atom_site_fract_y
 _atom_site_fract_z
 _atom_site_fract_occupancy
 Au  Au1  1  0.50004  0.50004  0.50004  1
 Au  Au2  1  0.99996  -0.00004  -0.00004  1
 Ga  Ga1  1  0.25000  0.25000  0.25000  1
 Pa  Pa1  1  0.75000  0.75000  0.75000  1
