CIF file written using JARVIS-Tools package.
data_Y2MgCd
_symmetry_space_group_name_H-M  'C2/m'
_cell_length_a       13.121
_cell_length_b       9.06729
_cell_length_c       9.06618
_cell_angle_alpha    22.2199
_cell_angle_beta     19.4443
_cell_angle_gamma    19.4455

_symmetry_Int_Tables_number  12
_chemical_formula_structural  Y2MgCd
_chemical_formula_sum  Y2MgCd
_cell_volume  112.8423192482409
_cell_formula_units_Z  1
loop_
  _symmetry_equiv_pos_site_id
 _symmetry_equiv_pos_as_xyz
 1  'x, y, z'
loop_
 _atom_site_type_symbol
 _atom_site_label
 _atom_site_symmetry_multiplicity
 _atom_site_fract_x
 _atom_site_fract_y
 _atom_site_fract_z
 _atom_site_fract_occupancy
 Cd  Cd1  1  0.50000  0.00000  0.00000  1
 Mg  Mg1  1  0.00000  -0.00000  -0.00000  1
 Y  Y1  1  0.76241  0.99197  0.99197  1
 Y  Y2  1  0.23759  0.00803  0.00803  1
