CIF file written using JARVIS-Tools package.
data_Ba7Al10
_symmetry_space_group_name_H-M  'R-3m'
_cell_length_a       16.718
_cell_length_b       16.718
_cell_length_c       16.718
_cell_angle_alpha    20.9763
_cell_angle_beta     20.9763
_cell_angle_gamma    20.9763

_symmetry_Int_Tables_number  166
_chemical_formula_structural  Ba7Al10
_chemical_formula_sum  Ba7Al0
_cell_volume  524.3529629992246
_cell_formula_units_Z  1
loop_
  _symmetry_equiv_pos_site_id
 _symmetry_equiv_pos_as_xyz
 1  'x, y, z'
loop_
 _atom_site_type_symbol
 _atom_site_label
 _atom_site_symmetry_multiplicity
 _atom_site_fract_x
 _atom_site_fract_y
 _atom_site_fract_z
 _atom_site_fract_occupancy
 Al  Al1  1  0.20093  0.20093  0.20093  1
 Al  Al2  1  0.58110  0.58110  0.11156  1
 Al  Al3  1  0.41890  0.88844  0.41890  1
 Al  Al4  1  0.79907  0.79907  0.79907  1
 Al  Al5  1  0.58110  0.11156  0.58110  1
 Al  Al6  1  0.11156  0.58110  0.58110  1
 Al  Al7  1  0.88844  0.41890  0.41890  1
 Al  Al8  1  0.71585  0.71585  0.71585  1
 Al  Al9  1  0.41890  0.41890  0.88844  1
 Al  Al10  1  0.28415  0.28415  0.28415  1
 Ba  Ba1  1  0.50000  0.50000  0.50000  1
 Ba  Ba2  1  0.64050  0.64050  0.64050  1
 Ba  Ba3  1  0.87092  0.87092  0.87092  1
 Ba  Ba4  1  0.12908  0.12908  0.12908  1
 Ba  Ba5  1  0.94807  0.94807  0.94807  1
 Ba  Ba6  1  0.05193  0.05193  0.05193  1
 Ba  Ba7  1  0.35950  0.35950  0.35950  1
