CIF file written using JARVIS-Tools package.
data_CdPd2Pt
_symmetry_space_group_name_H-M  'Immm'
_cell_length_a       11.1361
_cell_length_b       6.88269
_cell_length_c       6.88109
_cell_angle_alpha    40.8122
_cell_angle_beta     23.1116
_cell_angle_gamma    23.0975

_symmetry_Int_Tables_number  71
_chemical_formula_structural  CdPd2Pt
_chemical_formula_sum  CdPd2Pt
_cell_volume  66.21529984131476
_cell_formula_units_Z  1
loop_
  _symmetry_equiv_pos_site_id
 _symmetry_equiv_pos_as_xyz
 1  'x, y, z'
loop_
 _atom_site_type_symbol
 _atom_site_label
 _atom_site_symmetry_multiplicity
 _atom_site_fract_x
 _atom_site_fract_y
 _atom_site_fract_z
 _atom_site_fract_occupancy
 Cd  Cd1  1  -0.00000  0.00000  0.00000  1
 Pd  Pd1  1  0.73669  0.00890  0.00891  1
 Pd  Pd2  1  0.26331  0.99110  0.99109  1
 Pt  Pt1  1  0.50000  0.00000  0.00000  1
