CIF file written using JARVIS-Tools package.
data_Ag2Te
_symmetry_space_group_name_H-M  'P2_1/c'
_cell_length_a       8.00134
_cell_length_b       4.50726
_cell_length_c       9.09935
_cell_angle_alpha    90
_cell_angle_beta     122.067
_cell_angle_gamma    90

_symmetry_Int_Tables_number  14
_chemical_formula_structural  Ag2Te
_chemical_formula_sum  Ag8Te4
_cell_volume  278.09362741484773
_cell_formula_units_Z  4
loop_
  _symmetry_equiv_pos_site_id
 _symmetry_equiv_pos_as_xyz
 1  'x, y, z'
loop_
 _atom_site_type_symbol
 _atom_site_label
 _atom_site_symmetry_multiplicity
 _atom_site_fract_x
 _atom_site_fract_y
 _atom_site_fract_z
 _atom_site_fract_occupancy
 Ag  Ag1  1  0.03401  0.11738  0.65940  1
 Ag  Ag2  1  0.96599  0.61738  0.84060  1
 Ag  Ag3  1  0.96599  0.88262  0.34060  1
 Ag  Ag4  1  0.03401  0.38262  0.15940  1
 Ag  Ag5  1  0.33324  0.85443  0.34717  1
 Ag  Ag6  1  0.66676  0.35443  0.15283  1
 Ag  Ag7  1  0.66676  0.14557  0.65283  1
 Ag  Ag8  1  0.33324  0.64557  0.84717  1
 Te  Te1  1  0.27581  0.14167  0.03532  1
 Te  Te2  1  0.72419  0.64167  0.46468  1
 Te  Te3  1  0.72419  0.85833  0.96468  1
 Te  Te4  1  0.27581  0.35833  0.53532  1
