CIF file written using JARVIS-Tools package.
data_KTl2In
_symmetry_space_group_name_H-M  'C2/m'
_cell_length_a       14.054
_cell_length_b       8.31777
_cell_length_c       8.31778
_cell_angle_alpha    35.0052
_cell_angle_beta     21.0805
_cell_angle_gamma    21.0805

_symmetry_Int_Tables_number  12
_chemical_formula_structural  KTl2In
_chemical_formula_sum  KTl2In
_cell_volume  115.38072011179257
_cell_formula_units_Z  1
loop_
  _symmetry_equiv_pos_site_id
 _symmetry_equiv_pos_as_xyz
 1  'x, y, z'
loop_
 _atom_site_type_symbol
 _atom_site_label
 _atom_site_symmetry_multiplicity
 _atom_site_fract_x
 _atom_site_fract_y
 _atom_site_fract_z
 _atom_site_fract_occupancy
 In  In1  1  0.50000  0.00000  0.00000  1
 K  K1  1  0.00000  0.00000  0.00000  1
 Tl  Tl1  1  0.65919  0.05601  0.05601  1
 Tl  Tl2  1  0.34081  -0.05601  -0.05601  1
