CIF file written using JARVIS-Tools package.
data_HgBiPb2
_symmetry_space_group_name_H-M  'C2/m'
_cell_length_a       13.4384
_cell_length_b       9.11662
_cell_length_c       5.81876
_cell_angle_alpha    44.9061
_cell_angle_beta     32.8807
_cell_angle_gamma    20.2738

_symmetry_Int_Tables_number  12
_chemical_formula_structural  HgBiPb2
_chemical_formula_sum  HgBiPb2
_cell_volume  121.53550689472127
_cell_formula_units_Z  1
loop_
  _symmetry_equiv_pos_site_id
 _symmetry_equiv_pos_as_xyz
 1  'x, y, z'
loop_
 _atom_site_type_symbol
 _atom_site_label
 _atom_site_symmetry_multiplicity
 _atom_site_fract_x
 _atom_site_fract_y
 _atom_site_fract_z
 _atom_site_fract_occupancy
 Bi  Bi1  1  0.50000  0.00000  -0.00000  1
 Hg  Hg1  1  0.00000  0.00000  0.00000  1
 Pb  Pb1  1  0.75084  0.01567  -0.01567  1
 Pb  Pb2  1  0.24916  -0.01567  0.01567  1
