CIF file written using JARVIS-Tools package.
data_LiNbRu2
_symmetry_space_group_name_H-M  'P-1'
_cell_length_a       10.2331
_cell_length_b       6.54472
_cell_length_c       6.56856
_cell_angle_alpha    41.2832
_cell_angle_beta     23.4656
_cell_angle_gamma    23.6291

_symmetry_Int_Tables_number  2
_chemical_formula_structural  LiNbRu2
_chemical_formula_sum  LiNbRu2
_cell_volume  58.30164507250639
_cell_formula_units_Z  1
loop_
  _symmetry_equiv_pos_site_id
 _symmetry_equiv_pos_as_xyz
 1  'x, y, z'
loop_
 _atom_site_type_symbol
 _atom_site_label
 _atom_site_symmetry_multiplicity
 _atom_site_fract_x
 _atom_site_fract_y
 _atom_site_fract_z
 _atom_site_fract_occupancy
 Li  Li1  1  -0.00000  0.00001  -0.00001  1
 Nb  Nb1  1  0.50000  0.00000  -0.00000  1
 Ru  Ru1  1  0.73651  0.00881  0.01028  1
 Ru  Ru2  1  0.26349  -0.00883  -0.01026  1
