CIF file written using JARVIS-Tools package.
data_Nb2Te3
_symmetry_space_group_name_H-M  'C2/m'
_cell_length_a       3.71704
_cell_length_b       7.86366
_cell_length_c       9.29682
_cell_angle_alpha    76.3268
_cell_angle_beta     78.4682
_cell_angle_gamma    76.329

_symmetry_Int_Tables_number  12
_chemical_formula_structural  Nb2Te3
_chemical_formula_sum  Nb4Te6
_cell_volume  253.5562590006039
_cell_formula_units_Z  2
loop_
  _symmetry_equiv_pos_site_id
 _symmetry_equiv_pos_as_xyz
 1  'x, y, z'
loop_
 _atom_site_type_symbol
 _atom_site_label
 _atom_site_symmetry_multiplicity
 _atom_site_fract_x
 _atom_site_fract_y
 _atom_site_fract_z
 _atom_site_fract_occupancy
 Nb  Nb1  1  0.66806  0.54763  0.11624  1
 Nb  Nb2  1  0.33194  0.45237  0.88376  1
 Nb  Nb3  1  0.75610  0.11355  0.37424  1
 Nb  Nb4  1  0.24390  0.88645  0.62576  1
 Te  Te1  1  0.41055  0.85604  0.32286  1
 Te  Te2  1  0.87259  0.21203  0.04280  1
 Te  Te3  1  0.12345  0.40446  0.34864  1
 Te  Te4  1  0.87655  0.59554  0.65136  1
 Te  Te5  1  0.58945  0.14396  0.67714  1
 Te  Te6  1  0.12741  0.78797  0.95720  1
