CIF file written using JARVIS-Tools package.
data_Y2GaCu
_symmetry_space_group_name_H-M  'Immm'
_cell_length_a       11.1662
_cell_length_b       11.5452
_cell_length_c       11.5452
_cell_angle_alpha    60.7427
_cell_angle_beta     61.08
_cell_angle_gamma    61.08

_symmetry_Int_Tables_number  71
_chemical_formula_structural  Y2GaCu
_chemical_formula_sum  Y2GaCu
_cell_volume  1075.3400736655708
_cell_formula_units_Z  1
loop_
  _symmetry_equiv_pos_site_id
 _symmetry_equiv_pos_as_xyz
 1  'x, y, z'
loop_
 _atom_site_type_symbol
 _atom_site_label
 _atom_site_symmetry_multiplicity
 _atom_site_fract_x
 _atom_site_fract_y
 _atom_site_fract_z
 _atom_site_fract_occupancy
 Cu  Cu1  1  0.00000  0.00000  0.00000  1
 Ga  Ga1  1  0.50000  -0.00000  -0.00000  1
 Y  Y1  1  0.75039  0.00000  0.00000  1
 Y  Y2  1  0.24961  -0.00000  -0.00000  1
