CIF file written using JARVIS-Tools package.
data_YCuSe2
_symmetry_space_group_name_H-M  'P3m1'
_cell_length_a       4.09314
_cell_length_b       4.09314
_cell_length_c       6.42735
_cell_angle_alpha    90
_cell_angle_beta     90
_cell_angle_gamma    120

_symmetry_Int_Tables_number  156
_chemical_formula_structural  YCuSe2
_chemical_formula_sum  YCuSe2
_cell_volume  93.25562372523407
_cell_formula_units_Z  1
loop_
  _symmetry_equiv_pos_site_id
 _symmetry_equiv_pos_as_xyz
 1  'x, y, z'
loop_
 _atom_site_type_symbol
 _atom_site_label
 _atom_site_symmetry_multiplicity
 _atom_site_fract_x
 _atom_site_fract_y
 _atom_site_fract_z
 _atom_site_fract_occupancy
 Cu  Cu1  1  0.66667  0.33333  0.12633  1
 Se  Se1  1  0.33333  0.66667  0.24085  1
 Se  Se2  1  0.66667  0.33333  0.74738  1
 Y  Y1  1  0.00000  0.00000  0.51143  1
