CIF file written using JARVIS-Tools package.
data_Li2TlIn
_symmetry_space_group_name_H-M  'C2/m'
_cell_length_a       11.6043
_cell_length_b       10.7444
_cell_length_c       10.7444
_cell_angle_alpha    59.4024
_cell_angle_beta     57.2475
_cell_angle_gamma    57.2472

_symmetry_Int_Tables_number  12
_chemical_formula_structural  Li2TlIn
_chemical_formula_sum  Li2TlIn
_cell_volume  902.1224928855404
_cell_formula_units_Z  1
loop_
  _symmetry_equiv_pos_site_id
 _symmetry_equiv_pos_as_xyz
 1  'x, y, z'
loop_
 _atom_site_type_symbol
 _atom_site_label
 _atom_site_symmetry_multiplicity
 _atom_site_fract_x
 _atom_site_fract_y
 _atom_site_fract_z
 _atom_site_fract_occupancy
 In  In1  1  -0.00000  0.00000  0.00000  1
 Li  Li1  1  0.75131  0.00004  0.00004  1
 Li  Li2  1  0.24869  0.99996  0.99996  1
 Tl  Tl1  1  0.50000  0.00000  0.00000  1
