CIF file written using JARVIS-Tools package.
data_LiCd2In
_symmetry_space_group_name_H-M  'C2/m'
_cell_length_a       12.3298
_cell_length_b       7.79512
_cell_length_c       7.79512
_cell_angle_alpha    34.8476
_cell_angle_beta     20.8349
_cell_angle_gamma    20.8349

_symmetry_Int_Tables_number  12
_chemical_formula_structural  LiCd2In
_chemical_formula_sum  LiCd2In
_cell_volume  86.12212383452112
_cell_formula_units_Z  1
loop_
  _symmetry_equiv_pos_site_id
 _symmetry_equiv_pos_as_xyz
 1  'x, y, z'
loop_
 _atom_site_type_symbol
 _atom_site_label
 _atom_site_symmetry_multiplicity
 _atom_site_fract_x
 _atom_site_fract_y
 _atom_site_fract_z
 _atom_site_fract_occupancy
 Cd  Cd1  1  0.80658  -0.03760  -0.03760  1
 Cd  Cd2  1  0.19342  0.03760  0.03760  1
 In  In1  1  0.50000  0.00000  -0.00000  1
 Li  Li1  1  0.00000  0.00000  0.00000  1
