CIF file written using JARVIS-Tools package.
data_Y2CuPt
_symmetry_space_group_name_H-M  'Immm'
_cell_length_a       10.4782
_cell_length_b       11.3453
_cell_length_c       11.3453
_cell_angle_alpha    61.8601
_cell_angle_beta     62.4978
_cell_angle_gamma    62.4978

_symmetry_Int_Tables_number  71
_chemical_formula_structural  Y2CuPt
_chemical_formula_sum  Y2CuPt
_cell_volume  1002.2524305271905
_cell_formula_units_Z  1
loop_
  _symmetry_equiv_pos_site_id
 _symmetry_equiv_pos_as_xyz
 1  'x, y, z'
loop_
 _atom_site_type_symbol
 _atom_site_label
 _atom_site_symmetry_multiplicity
 _atom_site_fract_x
 _atom_site_fract_y
 _atom_site_fract_z
 _atom_site_fract_occupancy
 Cu  Cu1  1  0.00000  0.00000  0.00000  1
 Pt  Pt1  1  0.50000  0.00000  0.00000  1
 Y  Y1  1  0.73945  -0.00000  0.00000  1
 Y  Y2  1  0.26055  0.00000  -0.00000  1
