CIF file written using JARVIS-Tools package.
data_KNa2Cd
_symmetry_space_group_name_H-M  'Immm'
_cell_length_a       14.1468
_cell_length_b       7.91659
_cell_length_c       7.91659
_cell_angle_alpha    28.3834
_cell_angle_beta     26.6851
_cell_angle_gamma    26.6851

_symmetry_Int_Tables_number  71
_chemical_formula_structural  KNa2Cd
_chemical_formula_sum  KNa2Cd
_cell_volume  163.57400884765565
_cell_formula_units_Z  1
loop_
  _symmetry_equiv_pos_site_id
 _symmetry_equiv_pos_as_xyz
 1  'x, y, z'
loop_
 _atom_site_type_symbol
 _atom_site_label
 _atom_site_symmetry_multiplicity
 _atom_site_fract_x
 _atom_site_fract_y
 _atom_site_fract_z
 _atom_site_fract_occupancy
 Cd  Cd1  1  0.50000  -0.00000  -0.00000  1
 K  K1  1  0.00000  0.00000  0.00000  1
 Na  Na1  1  0.71879  -0.00000  0.00000  1
 Na  Na2  1  0.28121  0.00000  -0.00000  1
