CIF file written using JARVIS-Tools package.
data_Ca2MgGa
_symmetry_space_group_name_H-M  'Fm-3m'
_cell_length_a       13.0173
_cell_length_b       9.20489
_cell_length_c       9.20488
_cell_angle_alpha    33.5781
_cell_angle_beta     19.484
_cell_angle_gamma    19.4841

_symmetry_Int_Tables_number  225
_chemical_formula_structural  Ca2MgGa
_chemical_formula_sum  Ca2MgGa
_cell_volume  106.2736903382006
_cell_formula_units_Z  1
loop_
  _symmetry_equiv_pos_site_id
 _symmetry_equiv_pos_as_xyz
 1  'x, y, z'
loop_
 _atom_site_type_symbol
 _atom_site_label
 _atom_site_symmetry_multiplicity
 _atom_site_fract_x
 _atom_site_fract_y
 _atom_site_fract_z
 _atom_site_fract_occupancy
 Ca  Ca1  1  0.74990  0.00004  0.00004  1
 Ca  Ca2  1  0.25010  -0.00004  -0.00004  1
 Ga  Ga1  1  0.50000  -0.00000  0.00000  1
 Mg  Mg1  1  0.00000  0.00000  0.00000  1
