CIF file written using JARVIS-Tools package.
data_Tb2CaO4
_symmetry_space_group_name_H-M  'Cmcm'
_cell_length_a       5.78807
_cell_length_b       5.78807
_cell_length_c       10.9786
_cell_angle_alpha    90
_cell_angle_beta     90
_cell_angle_gamma    33.3943

_symmetry_Int_Tables_number  63
_chemical_formula_structural  Tb2CaO4
_chemical_formula_sum  Tb4Ca2O8
_cell_volume  202.43895260540333
_cell_formula_units_Z  2
loop_
  _symmetry_equiv_pos_site_id
 _symmetry_equiv_pos_as_xyz
 1  'x, y, z'
loop_
 _atom_site_type_symbol
 _atom_site_label
 _atom_site_symmetry_multiplicity
 _atom_site_fract_x
 _atom_site_fract_y
 _atom_site_fract_z
 _atom_site_fract_occupancy
 Ca  Ca1  1  0.11287  0.11287  0.25000  1
 Ca  Ca2  1  0.88713  0.88713  0.75000  1
 O  O1  1  0.00000  0.00000  0.00000  1
 O  O2  1  0.00000  0.00000  0.50000  1
 O  O3  1  0.26760  0.26760  0.61417  1
 O  O4  1  0.46902  0.46902  0.25000  1
 O  O5  1  0.53098  0.53098  0.75000  1
 O  O6  1  0.73240  0.73240  0.38583  1
 O  O7  1  0.26760  0.26760  0.88583  1
 O  O8  1  0.73240  0.73240  0.11417  1
 Tb  Tb1  1  0.36789  0.36789  0.42508  1
 Tb  Tb2  1  0.36789  0.36789  0.07492  1
 Tb  Tb3  1  0.63211  0.63211  0.57492  1
 Tb  Tb4  1  0.63211  0.63211  0.92508  1
