CIF file written using JARVIS-Tools package.
data_Sr2ZnGe
_symmetry_space_group_name_H-M  'Immm'
_cell_length_a       12.7079
_cell_length_b       12.6037
_cell_length_c       12.6037
_cell_angle_alpha    60.0577
_cell_angle_beta     59.7262
_cell_angle_gamma    59.7262

_symmetry_Int_Tables_number  71
_chemical_formula_structural  Sr2ZnGe
_chemical_formula_sum  Sr2ZnGe
_cell_volume  1422.108247902545
_cell_formula_units_Z  1
loop_
  _symmetry_equiv_pos_site_id
 _symmetry_equiv_pos_as_xyz
 1  'x, y, z'
loop_
 _atom_site_type_symbol
 _atom_site_label
 _atom_site_symmetry_multiplicity
 _atom_site_fract_x
 _atom_site_fract_y
 _atom_site_fract_z
 _atom_site_fract_occupancy
 Ge  Ge1  1  0.50000  -0.00000  0.00000  1
 Sr  Sr1  1  0.72922  -0.00000  -0.00000  1
 Sr  Sr2  1  0.27078  0.00000  0.00000  1
 Zn  Zn1  1  0.00000  0.00000  0.00000  1
