CIF file written using JARVIS-Tools package.
data_YbSb2Te4
_symmetry_space_group_name_H-M  'I-42d'
_cell_length_a       8.47151
_cell_length_b       8.47151
_cell_length_c       8.47151
_cell_angle_alpha    109.072
_cell_angle_beta     110.273
_cell_angle_gamma    109.072

_symmetry_Int_Tables_number  122
_chemical_formula_structural  YbSb2Te4
_chemical_formula_sum  Yb2Sb4Te8
_cell_volume  467.9463730415132
_cell_formula_units_Z  2
loop_
  _symmetry_equiv_pos_site_id
 _symmetry_equiv_pos_as_xyz
 1  'x, y, z'
loop_
 _atom_site_type_symbol
 _atom_site_label
 _atom_site_symmetry_multiplicity
 _atom_site_fract_x
 _atom_site_fract_y
 _atom_site_fract_z
 _atom_site_fract_occupancy
 Sb  Sb1  1  0.25000  0.50644  0.25644  1
 Sb  Sb2  1  0.75000  0.99356  0.24356  1
 Sb  Sb3  1  0.74356  0.49356  0.25000  1
 Sb  Sb4  1  0.75644  0.00644  0.75000  1
 Te  Te1  1  0.00426  0.91359  0.53651  1
 Te  Te2  1  0.03651  0.41359  0.50426  1
 Te  Te3  1  0.49574  0.03225  0.90933  1
 Te  Te4  1  0.09067  0.08641  0.12293  1
 Te  Te5  1  0.40933  0.53225  0.99574  1
 Te  Te6  1  0.62293  0.58641  0.59067  1
 Te  Te7  1  0.46349  0.96775  0.37707  1
 Te  Te8  1  0.87707  0.46775  0.96349  1
 Yb  Yb1  1  0.12500  0.75000  0.87500  1
 Yb  Yb2  1  0.37500  0.25000  0.62500  1
