CIF file written using JARVIS-Tools package.
data_Al5CuSe8
_symmetry_space_group_name_H-M  'F-43m'
_cell_length_a       7.50384
_cell_length_b       7.50384
_cell_length_c       7.50384
_cell_angle_alpha    60
_cell_angle_beta     60
_cell_angle_gamma    60

_symmetry_Int_Tables_number  216
_chemical_formula_structural  Al5CuSe8
_chemical_formula_sum  Al5CuSe8
_cell_volume  298.76947287020425
_cell_formula_units_Z  1
loop_
  _symmetry_equiv_pos_site_id
 _symmetry_equiv_pos_as_xyz
 1  'x, y, z'
loop_
 _atom_site_type_symbol
 _atom_site_label
 _atom_site_symmetry_multiplicity
 _atom_site_fract_x
 _atom_site_fract_y
 _atom_site_fract_z
 _atom_site_fract_occupancy
 Al  Al1  1  0.25000  0.25000  0.25000  1
 Al  Al2  1  0.10420  0.63193  0.63193  1
 Al  Al3  1  0.63193  0.63193  0.10420  1
 Al  Al4  1  0.63193  0.10420  0.63193  1
 Al  Al5  1  0.63193  0.63193  0.63193  1
 Cu  Cu1  1  0.00000  0.00000  0.00000  1
 Se  Se1  1  0.38360  0.38360  0.38360  1
 Se  Se2  1  0.38360  0.84919  0.38360  1
 Se  Se3  1  0.38360  0.38360  0.84919  1
 Se  Se4  1  0.84919  0.38360  0.38360  1
 Se  Se5  1  0.39388  0.86871  0.86871  1
 Se  Se6  1  0.86871  0.86871  0.39388  1
 Se  Se7  1  0.86871  0.39388  0.86871  1
 Se  Se8  1  0.86871  0.86871  0.86871  1
