CIF file written using JARVIS-Tools package.
data_ZnFePO5
_symmetry_space_group_name_H-M  'P-1'
_cell_length_a       5.1567
_cell_length_b       5.57787
_cell_length_c       6.95445
_cell_angle_alpha    103.677
_cell_angle_beta     107.826
_cell_angle_gamma    102.056

_symmetry_Int_Tables_number  2
_chemical_formula_structural  ZnFePO5
_chemical_formula_sum  Zn2Fe2P2O0
_cell_volume  176.2708529593687
_cell_formula_units_Z  2
loop_
  _symmetry_equiv_pos_site_id
 _symmetry_equiv_pos_as_xyz
 1  'x, y, z'
loop_
 _atom_site_type_symbol
 _atom_site_label
 _atom_site_symmetry_multiplicity
 _atom_site_fract_x
 _atom_site_fract_y
 _atom_site_fract_z
 _atom_site_fract_occupancy
 Fe  Fe1  1  0.00426  0.49490  0.51455  1
 Fe  Fe2  1  0.00424  0.49493  0.01455  1
 O  O1  1  0.74266  0.72046  0.92622  1
 O  O2  1  0.90621  0.86419  0.65109  1
 O  O3  1  0.26583  0.26941  0.10290  1
 O  O4  1  0.10228  0.12566  0.37801  1
 O  O5  1  0.62784  0.29040  0.46386  1
 O  O6  1  0.35395  0.86520  0.17956  1
 O  O7  1  0.38066  0.69943  0.56524  1
 O  O8  1  0.65454  0.12465  0.84953  1
 O  O9  1  0.88547  0.53606  0.25199  1
 O  O10  1  0.12303  0.45378  0.77711  1
 P  P1  1  0.66942  0.84664  0.74859  1
 P  P2  1  0.33908  0.14321  0.28052  1
 Zn  Zn1  1  0.27451  0.16477  0.78552  1
 Zn  Zn2  1  0.73399  0.82507  0.24362  1
