CIF file written using JARVIS-Tools package.
data_LiHg2Rh
_symmetry_space_group_name_H-M  'C2/m'
_cell_length_a       11.1958
_cell_length_b       7.90748
_cell_length_c       7.90748
_cell_angle_alpha    33.0715
_cell_angle_beta     19.5352
_cell_angle_gamma    19.5353

_symmetry_Int_Tables_number  12
_chemical_formula_structural  LiHg2Rh
_chemical_formula_sum  LiHg2Rh
_cell_volume  69.94534462502344
_cell_formula_units_Z  1
loop_
  _symmetry_equiv_pos_site_id
 _symmetry_equiv_pos_as_xyz
 1  'x, y, z'
loop_
 _atom_site_type_symbol
 _atom_site_label
 _atom_site_symmetry_multiplicity
 _atom_site_fract_x
 _atom_site_fract_y
 _atom_site_fract_z
 _atom_site_fract_occupancy
 Hg  Hg1  1  0.73937  0.00898  0.00898  1
 Hg  Hg2  1  0.26063  -0.00898  -0.00898  1
 Li  Li1  1  0.00000  0.00000  0.00000  1
 Rh  Rh1  1  0.50000  -0.00000  -0.00000  1
