CIF file written using JARVIS-Tools package.
data_LiSnHg2
_symmetry_space_group_name_H-M  'Immm'
_cell_length_a       12.2429
_cell_length_b       7.66293
_cell_length_c       7.66294
_cell_angle_alpha    41.1647
_cell_angle_beta     23.3446
_cell_angle_gamma    23.3447

_symmetry_Int_Tables_number  71
_chemical_formula_structural  LiSnHg2
_chemical_formula_sum  LiSnHg2
_cell_volume  92.42411934696509
_cell_formula_units_Z  1
loop_
  _symmetry_equiv_pos_site_id
 _symmetry_equiv_pos_as_xyz
 1  'x, y, z'
loop_
 _atom_site_type_symbol
 _atom_site_label
 _atom_site_symmetry_multiplicity
 _atom_site_fract_x
 _atom_site_fract_y
 _atom_site_fract_z
 _atom_site_fract_occupancy
 Hg  Hg1  1  0.86156  0.92564  0.92564  1
 Hg  Hg2  1  0.13844  0.07436  0.07436  1
 Li  Li1  1  0.00000  0.00000  0.00000  1
 Sn  Sn1  1  0.50000  0.00000  0.00000  1
