CIF file written using JARVIS-Tools package.
data_LiWO2
_symmetry_space_group_name_H-M  'R-3m'
_cell_length_a       5.67474
_cell_length_b       5.67474
_cell_length_c       5.67475
_cell_angle_alpha    28.3631
_cell_angle_beta     28.3631
_cell_angle_gamma    28.3631

_symmetry_Int_Tables_number  166
_chemical_formula_structural  LiWO2
_chemical_formula_sum  LiWO2
_cell_volume  36.44440393164833
_cell_formula_units_Z  1
loop_
  _symmetry_equiv_pos_site_id
 _symmetry_equiv_pos_as_xyz
 1  'x, y, z'
loop_
 _atom_site_type_symbol
 _atom_site_label
 _atom_site_symmetry_multiplicity
 _atom_site_fract_x
 _atom_site_fract_y
 _atom_site_fract_z
 _atom_site_fract_occupancy
 Li  Li1  1  0.50000  0.50000  0.50000  1
 O  O1  1  0.24544  0.24544  0.24544  1
 O  O2  1  0.75456  0.75456  0.75456  1
 W  W1  1  0.00000  0.00000  0.00000  1
