CIF file written using JARVIS-Tools package.
data_Pr2Be2GeO7
_symmetry_space_group_name_H-M  'P-42_1m'
_cell_length_a       7.66879
_cell_length_b       7.66879
_cell_length_c       4.94626
_cell_angle_alpha    90
_cell_angle_beta     90
_cell_angle_gamma    90

_symmetry_Int_Tables_number  113
_chemical_formula_structural  Pr2Be2GeO7
_chemical_formula_sum  Pr4Be4Ge2O4
_cell_volume  290.89117801064185
_cell_formula_units_Z  2
loop_
  _symmetry_equiv_pos_site_id
 _symmetry_equiv_pos_as_xyz
 1  'x, y, z'
loop_
 _atom_site_type_symbol
 _atom_site_label
 _atom_site_symmetry_multiplicity
 _atom_site_fract_x
 _atom_site_fract_y
 _atom_site_fract_z
 _atom_site_fract_occupancy
 Be  Be1  1  0.36663  0.86663  0.04025  1
 Be  Be2  1  0.86663  0.63337  0.95975  1
 Be  Be3  1  0.63337  0.13337  0.04025  1
 Be  Be4  1  0.13337  0.36663  0.95975  1
 Ge  Ge1  1  0.50000  0.50000  0.00000  1
 Ge  Ge2  1  0.00000  0.00000  0.00000  1
 O  O1  1  0.35816  0.85816  0.71913  1
 O  O2  1  0.92264  0.82587  0.79596  1
 O  O3  1  0.07736  0.17413  0.79596  1
 O  O4  1  0.57736  0.32587  0.20404  1
 O  O5  1  0.42264  0.67413  0.20404  1
 O  O6  1  0.32587  0.42264  0.79596  1
 O  O7  1  0.17413  0.92264  0.20404  1
 O  O8  1  0.00000  0.50000  0.83120  1
 O  O9  1  0.82587  0.07736  0.20404  1
 O  O10  1  0.14184  0.35816  0.28087  1
 O  O11  1  0.64184  0.14184  0.71913  1
 O  O12  1  0.67413  0.57736  0.79596  1
 O  O13  1  0.85816  0.64184  0.28087  1
 O  O14  1  0.50000  0.00000  0.16880  1
 Pr  Pr1  1  0.34047  0.15953  0.50391  1
 Pr  Pr2  1  0.84047  0.34047  0.49609  1
 Pr  Pr3  1  0.15953  0.65953  0.49609  1
 Pr  Pr4  1  0.65953  0.84047  0.50391  1
