CIF file written using JARVIS-Tools package.
data_ZnCr2O4
_symmetry_space_group_name_H-M  'Pmmn'
_cell_length_a       5.06624
_cell_length_b       5.85633
_cell_length_c       10.1634
_cell_angle_alpha    90
_cell_angle_beta     90
_cell_angle_gamma    90

_symmetry_Int_Tables_number  59
_chemical_formula_structural  ZnCr2O4
_chemical_formula_sum  Zn4Cr8O6
_cell_volume  301.5421678899083
_cell_formula_units_Z  4
loop_
  _symmetry_equiv_pos_site_id
 _symmetry_equiv_pos_as_xyz
 1  'x, y, z'
loop_
 _atom_site_type_symbol
 _atom_site_label
 _atom_site_symmetry_multiplicity
 _atom_site_fract_x
 _atom_site_fract_y
 _atom_site_fract_z
 _atom_site_fract_occupancy
 Cr  Cr1  1  0.49023  0.50000  0.26421  1
 Cr  Cr2  1  0.00000  0.75000  0.75000  1
 Cr  Cr3  1  0.00000  0.25000  0.25000  1
 Cr  Cr4  1  0.00000  0.75000  0.25000  1
 Cr  Cr5  1  0.00000  0.25000  0.75000  1
 Cr  Cr6  1  0.49023  0.50000  0.73579  1
 Cr  Cr7  1  0.50977  0.00000  0.76421  1
 Cr  Cr8  1  0.50977  0.00000  0.23579  1
 O  O1  1  0.18984  0.00000  0.65345  1
 O  O2  1  0.18984  0.00000  0.34655  1
 O  O3  1  0.14489  0.50000  0.64403  1
 O  O4  1  0.33393  0.25239  0.85903  1
 O  O5  1  0.14489  0.50000  0.35597  1
 O  O6  1  0.66607  0.24761  0.35903  1
 O  O7  1  0.85511  0.00000  0.14403  1
 O  O8  1  0.85511  0.00000  0.85597  1
 O  O9  1  0.81016  0.50000  0.84655  1
 O  O10  1  0.66607  0.75239  0.64097  1
 O  O11  1  0.33393  0.25239  0.14097  1
 O  O12  1  0.33393  0.74761  0.85903  1
 O  O13  1  0.33393  0.74761  0.14097  1
 O  O14  1  0.81016  0.50000  0.15345  1
 O  O15  1  0.66607  0.75239  0.35903  1
 O  O16  1  0.66607  0.24761  0.64097  1
 Zn  Zn1  1  0.45965  0.00000  0.50000  1
 Zn  Zn2  1  0.54035  0.50000  0.00000  1
 Zn  Zn3  1  0.13959  0.00000  0.00000  1
 Zn  Zn4  1  0.86041  0.50000  0.50000  1
