CIF file written using JARVIS-Tools package.
data_HfTlAu2
_symmetry_space_group_name_H-M  'Immm'
_cell_length_a       11.6664
_cell_length_b       6.5678
_cell_length_c       6.56694
_cell_angle_alpha    25.409
_cell_angle_beta     27.3526
_cell_angle_gamma    27.3488

_symmetry_Int_Tables_number  71
_chemical_formula_structural  HfTlAu2
_chemical_formula_sum  HfTlAu2
_cell_volume  89.2761105696124
_cell_formula_units_Z  1
loop_
  _symmetry_equiv_pos_site_id
 _symmetry_equiv_pos_as_xyz
 1  'x, y, z'
loop_
 _atom_site_type_symbol
 _atom_site_label
 _atom_site_symmetry_multiplicity
 _atom_site_fract_x
 _atom_site_fract_y
 _atom_site_fract_z
 _atom_site_fract_occupancy
 Au  Au1  1  0.77016  -0.00004  0.00004  1
 Au  Au2  1  0.22984  0.00004  -0.00004  1
 Hf  Hf1  1  0.00000  0.00000  0.00000  1
 Tl  Tl1  1  0.50000  -0.00000  -0.00000  1
