CIF file written using JARVIS-Tools package.
data_KCr5S8
_symmetry_space_group_name_H-M  'C2/m'
_cell_length_a       3.47121
_cell_length_b       8.65202
_cell_length_c       8.90577
_cell_angle_alpha    104.131
_cell_angle_beta     101.238
_cell_angle_gamma    90

_symmetry_Int_Tables_number  12
_chemical_formula_structural  KCr5S8
_chemical_formula_sum  KCr5S8
_cell_volume  254.08159058996767
_cell_formula_units_Z  1
loop_
  _symmetry_equiv_pos_site_id
 _symmetry_equiv_pos_as_xyz
 1  'x, y, z'
loop_
 _atom_site_type_symbol
 _atom_site_label
 _atom_site_symmetry_multiplicity
 _atom_site_fract_x
 _atom_site_fract_y
 _atom_site_fract_z
 _atom_site_fract_occupancy
 Cr  Cr1  1  0.70394  0.33492  0.40788  1
 Cr  Cr2  1  0.34623  0.02764  0.69246  1
 Cr  Cr3  1  0.65377  0.97236  0.30754  1
 Cr  Cr4  1  0.00000  0.00000  0.00000  1
 Cr  Cr5  1  0.29606  0.66508  0.59212  1
 K  K1  1  0.50000  0.50000  -0.00000  1
 S  S1  1  0.23734  0.15333  0.47469  1
 S  S2  1  0.76266  0.84667  0.52531  1
 S  S3  1  0.16884  0.48895  0.33769  1
 S  S4  1  0.83116  0.51105  0.66231  1
 S  S5  1  0.08424  0.81835  0.16847  1
 S  S6  1  0.91576  0.18165  0.83153  1
 S  S7  1  0.42614  0.84498  0.85228  1
 S  S8  1  0.57386  0.15502  0.14772  1
