CIF file written using JARVIS-Tools package.
data_LaCo5
_symmetry_space_group_name_H-M  'Cccm'
_cell_length_a       5.03834
_cell_length_b       5.03834
_cell_length_c       7.84349
_cell_angle_alpha    90
_cell_angle_beta     90
_cell_angle_gamma    119.591

_symmetry_Int_Tables_number  66
_chemical_formula_structural  LaCo5
_chemical_formula_sum  La2Co0
_cell_volume  173.13684184957674
_cell_formula_units_Z  2
loop_
  _symmetry_equiv_pos_site_id
 _symmetry_equiv_pos_as_xyz
 1  'x, y, z'
loop_
 _atom_site_type_symbol
 _atom_site_label
 _atom_site_symmetry_multiplicity
 _atom_site_fract_x
 _atom_site_fract_y
 _atom_site_fract_z
 _atom_site_fract_occupancy
 Co  Co1  1  0.63318  0.30620  0.00000  1
 Co  Co2  1  0.00000  0.50000  0.76032  1
 Co  Co3  1  0.30620  0.63318  0.50000  1
 Co  Co4  1  0.69380  0.36682  0.50000  1
 Co  Co5  1  0.36682  0.69380  0.00000  1
 Co  Co6  1  0.50000  0.00000  0.26032  1
 Co  Co7  1  0.50000  0.00000  0.73968  1
 Co  Co8  1  0.00000  0.50000  0.23968  1
 Co  Co9  1  0.50000  0.50000  0.75000  1
 Co  Co10  1  0.50000  0.50000  0.25000  1
 La  La1  1  0.00000  0.00000  0.50000  1
 La  La2  1  0.00000  0.00000  0.00000  1
