CIF file written using JARVIS-Tools package.
data_BaCaGe
_symmetry_space_group_name_H-M  'Pnma'
_cell_length_a       5.0745
_cell_length_b       8.58341
_cell_length_c       9.10216
_cell_angle_alpha    90
_cell_angle_beta     90
_cell_angle_gamma    90

_symmetry_Int_Tables_number  62
_chemical_formula_structural  BaCaGe
_chemical_formula_sum  Ba4Ca4Ge4
_cell_volume  396.45833266661066
_cell_formula_units_Z  4
loop_
  _symmetry_equiv_pos_site_id
 _symmetry_equiv_pos_as_xyz
 1  'x, y, z'
loop_
 _atom_site_type_symbol
 _atom_site_label
 _atom_site_symmetry_multiplicity
 _atom_site_fract_x
 _atom_site_fract_y
 _atom_site_fract_z
 _atom_site_fract_occupancy
 Ba  Ba1  1  0.25000  0.02783  0.17519  1
 Ba  Ba2  1  0.75000  0.97217  0.82481  1
 Ba  Ba3  1  0.25000  0.52783  0.32481  1
 Ba  Ba4  1  0.75000  0.47217  0.67519  1
 Ca  Ca1  1  0.75000  0.85842  0.42409  1
 Ca  Ca2  1  0.25000  0.64158  0.92409  1
 Ca  Ca3  1  0.75000  0.35842  0.07591  1
 Ca  Ca4  1  0.25000  0.14158  0.57591  1
 Ge  Ge1  1  0.25000  0.28308  0.89191  1
 Ge  Ge2  1  0.75000  0.21692  0.39191  1
 Ge  Ge3  1  0.25000  0.78308  0.60809  1
 Ge  Ge4  1  0.75000  0.71692  0.10809  1
