CIF file written using JARVIS-Tools package.
data_Ca2CdGa
_symmetry_space_group_name_H-M  'C2/m'
_cell_length_a       17.6465
_cell_length_b       10.007
_cell_length_c       10.007
_cell_angle_alpha    24.1723
_cell_angle_beta     15.7456
_cell_angle_gamma    15.7457

_symmetry_Int_Tables_number  12
_chemical_formula_structural  Ca2CdGa
_chemical_formula_sum  Ca2CdGa
_cell_volume  127.74295523612847
_cell_formula_units_Z  1
loop_
  _symmetry_equiv_pos_site_id
 _symmetry_equiv_pos_as_xyz
 1  'x, y, z'
loop_
 _atom_site_type_symbol
 _atom_site_label
 _atom_site_symmetry_multiplicity
 _atom_site_fract_x
 _atom_site_fract_y
 _atom_site_fract_z
 _atom_site_fract_occupancy
 Ca  Ca1  1  0.02384  -0.18292  -0.18292  1
 Ca  Ca2  1  -0.02384  0.18292  0.18292  1
 Cd  Cd1  1  0.50000  0.00000  0.00000  1
 Ga  Ga1  1  0.00000  0.00000  0.00000  1
