CIF file written using JARVIS-Tools package.
data_Rb2AuI
_symmetry_space_group_name_H-M  'Immm'
_cell_length_a       13.2058
_cell_length_b       10.8347
_cell_length_c       10.8347
_cell_angle_alpha    54.0029
_cell_angle_beta     52.4523
_cell_angle_gamma    52.4523

_symmetry_Int_Tables_number  71
_chemical_formula_structural  Rb2AuI
_chemical_formula_sum  Rb2AuI
_cell_volume  914.9582822660569
_cell_formula_units_Z  1
loop_
  _symmetry_equiv_pos_site_id
 _symmetry_equiv_pos_as_xyz
 1  'x, y, z'
loop_
 _atom_site_type_symbol
 _atom_site_label
 _atom_site_symmetry_multiplicity
 _atom_site_fract_x
 _atom_site_fract_y
 _atom_site_fract_z
 _atom_site_fract_occupancy
 Au  Au1  1  0.50000  -0.00000  0.00000  1
 I  I1  1  0.00000  0.00000  0.00000  1
 Rb  Rb1  1  0.74218  -0.00000  0.00000  1
 Rb  Rb2  1  0.25782  0.00000  -0.00000  1
