CIF file written using JARVIS-Tools package.
data_K2MgF4
_symmetry_space_group_name_H-M  'I4/mmm'
_cell_length_a       3.97117
_cell_length_b       3.97116
_cell_length_c       7.16278
_cell_angle_alpha    106.094
_cell_angle_beta     106.094
_cell_angle_gamma    90

_symmetry_Int_Tables_number  139
_chemical_formula_structural  K2MgF4
_chemical_formula_sum  K2MgF4
_cell_volume  103.91615548949686
_cell_formula_units_Z  1
loop_
  _symmetry_equiv_pos_site_id
 _symmetry_equiv_pos_as_xyz
 1  'x, y, z'
loop_
 _atom_site_type_symbol
 _atom_site_label
 _atom_site_symmetry_multiplicity
 _atom_site_fract_x
 _atom_site_fract_y
 _atom_site_fract_z
 _atom_site_fract_occupancy
 F  F1  1  -0.00000  0.50000  0.00000  1
 F  F2  1  0.50000  0.00000  0.00000  1
 F  F3  1  0.84676  0.84676  0.69352  1
 F  F4  1  0.15324  0.15324  0.30648  1
 K  K1  1  0.64843  0.64843  0.29687  1
 K  K2  1  0.35157  0.35157  0.70313  1
 Mg  Mg1  1  0.00000  0.00000  0.00000  1
