CIF file written using JARVIS-Tools package.
data_LiNi2S2
_symmetry_space_group_name_H-M  'P-3m1'
_cell_length_a       3.67763
_cell_length_b       3.67724
_cell_length_c       6.11763
_cell_angle_alpha    89.9984
_cell_angle_beta     90
_cell_angle_gamma    120.003

_symmetry_Int_Tables_number  164
_chemical_formula_structural  LiNi2S2
_chemical_formula_sum  LiNi2S2
_cell_volume  71.6453774515454
_cell_formula_units_Z  1
loop_
  _symmetry_equiv_pos_site_id
 _symmetry_equiv_pos_as_xyz
 1  'x, y, z'
loop_
 _atom_site_type_symbol
 _atom_site_label
 _atom_site_symmetry_multiplicity
 _atom_site_fract_x
 _atom_site_fract_y
 _atom_site_fract_z
 _atom_site_fract_occupancy
 Li  Li1  1  -0.00004  0.00000  -0.00000  1
 Ni  Ni1  1  0.33328  0.66664  0.36919  1
 Ni  Ni2  1  0.66664  0.33336  0.63081  1
 S  S1  1  0.33329  0.66666  0.74326  1
 S  S2  1  0.66663  0.33334  0.25674  1
