CIF file written using JARVIS-Tools package.
data_Sr2MgCd
_symmetry_space_group_name_H-M  'I4/mmm'
_cell_length_a       19.2107
_cell_length_b       10.0204
_cell_length_c       10.0204
_cell_angle_alpha    23.2305
_cell_angle_beta     16.5429
_cell_angle_gamma    16.5429

_symmetry_Int_Tables_number  139
_chemical_formula_structural  Sr2MgCd
_chemical_formula_sum  Sr2MgCd
_cell_volume  156.3836274189881
_cell_formula_units_Z  1
loop_
  _symmetry_equiv_pos_site_id
 _symmetry_equiv_pos_as_xyz
 1  'x, y, z'
loop_
 _atom_site_type_symbol
 _atom_site_label
 _atom_site_symmetry_multiplicity
 _atom_site_fract_x
 _atom_site_fract_y
 _atom_site_fract_z
 _atom_site_fract_occupancy
 Cd  Cd1  1  0.50000  0.00000  0.00000  1
 Mg  Mg1  1  0.00000  0.00000  0.00000  1
 Sr  Sr1  1  0.66766  0.00001  0.00001  1
 Sr  Sr2  1  0.33234  -0.00001  -0.00001  1
