CIF file written using JARVIS-Tools package.
data_PCl3
_symmetry_space_group_name_H-M  'Pnma'
_cell_length_a       6.07635
_cell_length_b       7.78627
_cell_length_c       9.37963
_cell_angle_alpha    90
_cell_angle_beta     90
_cell_angle_gamma    90

_symmetry_Int_Tables_number  62
_chemical_formula_structural  PCl3
_chemical_formula_sum  P4Cl2
_cell_volume  443.77029916805174
_cell_formula_units_Z  4
loop_
  _symmetry_equiv_pos_site_id
 _symmetry_equiv_pos_as_xyz
 1  'x, y, z'
loop_
 _atom_site_type_symbol
 _atom_site_label
 _atom_site_symmetry_multiplicity
 _atom_site_fract_x
 _atom_site_fract_y
 _atom_site_fract_z
 _atom_site_fract_occupancy
 Cl  Cl1  1  0.73233  0.90440  0.91989  1
 Cl  Cl2  1  0.23233  0.59560  0.08011  1
 Cl  Cl3  1  0.76767  0.40440  0.58011  1
 Cl  Cl4  1  0.26767  0.09560  0.41989  1
 Cl  Cl5  1  0.83383  0.20053  0.25000  1
 Cl  Cl6  1  0.33383  0.29947  0.75000  1
 Cl  Cl7  1  0.66617  0.70053  0.25000  1
 Cl  Cl8  1  0.16617  0.79947  0.75000  1
 Cl  Cl9  1  0.73233  0.90440  0.58011  1
 Cl  Cl10  1  0.23233  0.59560  0.41989  1
 Cl  Cl11  1  0.76767  0.40440  0.91989  1
 Cl  Cl12  1  0.26767  0.09560  0.08011  1
 P  P1  1  0.92405  0.98827  0.75000  1
 P  P2  1  0.42405  0.51173  0.25000  1
 P  P3  1  0.57595  0.48827  0.75000  1
 P  P4  1  0.07595  0.01173  0.25000  1
