CIF file written using JARVIS-Tools package.
data_K2NaHg
_symmetry_space_group_name_H-M  'C2/m'
_cell_length_a       15.009
_cell_length_b       10.5728
_cell_length_c       10.5725
_cell_angle_alpha    33.6308
_cell_angle_beta     19.5932
_cell_angle_gamma    19.5929

_symmetry_Int_Tables_number  12
_chemical_formula_structural  K2NaHg
_chemical_formula_sum  K2NaHg
_cell_volume  164.62551289966578
_cell_formula_units_Z  1
loop_
  _symmetry_equiv_pos_site_id
 _symmetry_equiv_pos_as_xyz
 1  'x, y, z'
loop_
 _atom_site_type_symbol
 _atom_site_label
 _atom_site_symmetry_multiplicity
 _atom_site_fract_x
 _atom_site_fract_y
 _atom_site_fract_z
 _atom_site_fract_occupancy
 Hg  Hg1  1  0.50000  0.00000  0.00000  1
 K  K1  1  0.74935  0.00033  0.00033  1
 K  K2  1  0.25065  -0.00033  -0.00033  1
 Na  Na1  1  0.00000  -0.00000  -0.00000  1
