CIF file written using JARVIS-Tools package.
data_CrH
_symmetry_space_group_name_H-M  'P6_3/mmc'
_cell_length_a       2.68186
_cell_length_b       2.68186
_cell_length_c       4.62441
_cell_angle_alpha    90
_cell_angle_beta     90
_cell_angle_gamma    120

_symmetry_Int_Tables_number  194
_chemical_formula_structural  CrH
_chemical_formula_sum  Cr2H2
_cell_volume  28.804571089009
_cell_formula_units_Z  2
loop_
  _symmetry_equiv_pos_site_id
 _symmetry_equiv_pos_as_xyz
 1  'x, y, z'
loop_
 _atom_site_type_symbol
 _atom_site_label
 _atom_site_symmetry_multiplicity
 _atom_site_fract_x
 _atom_site_fract_y
 _atom_site_fract_z
 _atom_site_fract_occupancy
 Cr  Cr1  1  0.00000  0.00000  0.50000  1
 Cr  Cr2  1  0.00000  0.00000  0.00000  1
 H  H1  1  0.66672  0.33328  0.75000  1
 H  H2  1  0.33328  0.66672  0.25000  1
