CIF file written using JARVIS-Tools package.
data_InGeCl3
_symmetry_space_group_name_H-M  'R3m'
_cell_length_a       5.31827
_cell_length_b       5.31849
_cell_length_c       5.31942
_cell_angle_alpha    92.9367
_cell_angle_beta     92.925
_cell_angle_gamma    87.089

_symmetry_Int_Tables_number  160
_chemical_formula_structural  InGeCl3
_chemical_formula_sum  InGeCl3
_cell_volume  149.89208305088127
_cell_formula_units_Z  1
loop_
  _symmetry_equiv_pos_site_id
 _symmetry_equiv_pos_as_xyz
 1  'x, y, z'
loop_
 _atom_site_type_symbol
 _atom_site_label
 _atom_site_symmetry_multiplicity
 _atom_site_fract_x
 _atom_site_fract_y
 _atom_site_fract_z
 _atom_site_fract_occupancy
 Cl  Cl1  1  0.02873  0.52099  0.46485  1
 Cl  Cl2  1  0.52304  0.52116  0.95898  1
 Cl  Cl3  1  0.52282  0.02683  0.46478  1
 Ge  Ge1  1  0.49223  0.49018  0.49576  1
 In  In1  1  0.93319  0.93084  0.05563  1
