CIF file written using JARVIS-Tools package.
data_PdPb2Br6
_symmetry_space_group_name_H-M  'P2_1/c'
_cell_length_a       8.36225
_cell_length_b       6.71179
_cell_length_c       9.54454
_cell_angle_alpha    90
_cell_angle_beta     90.8513
_cell_angle_gamma    90

_symmetry_Int_Tables_number  14
_chemical_formula_structural  PdPb2Br6
_chemical_formula_sum  Pd2Pb4Br2
_cell_volume  535.6348535347432
_cell_formula_units_Z  2
loop_
  _symmetry_equiv_pos_site_id
 _symmetry_equiv_pos_as_xyz
 1  'x, y, z'
loop_
 _atom_site_type_symbol
 _atom_site_label
 _atom_site_symmetry_multiplicity
 _atom_site_fract_x
 _atom_site_fract_y
 _atom_site_fract_z
 _atom_site_fract_occupancy
 Br  Br1  1  0.97373  0.88378  0.24547  1
 Br  Br2  1  0.17402  0.64729  0.55944  1
 Br  Br3  1  0.32598  0.14729  0.44056  1
 Br  Br4  1  0.65463  0.80528  0.94604  1
 Br  Br5  1  0.67402  0.85271  0.55944  1
 Br  Br6  1  0.82598  0.35271  0.44056  1
 Br  Br7  1  0.34537  0.19472  0.05396  1
 Br  Br8  1  0.52627  0.38378  0.75453  1
 Br  Br9  1  0.84537  0.30528  0.05396  1
 Br  Br10  1  0.47373  0.61622  0.24547  1
 Br  Br11  1  0.02627  0.11622  0.75453  1
 Br  Br12  1  0.15463  0.69472  0.94604  1
 Pb  Pb1  1  0.88334  0.54308  0.72297  1
 Pb  Pb2  1  0.61666  0.04308  0.27703  1
 Pb  Pb3  1  0.11666  0.45692  0.27703  1
 Pb  Pb4  1  0.38334  0.95692  0.72297  1
 Pd  Pd1  1  0.00000  0.00000  0.00000  1
 Pd  Pd2  1  0.50000  0.50000  -0.00000  1
