CIF file written using JARVIS-Tools package.
data_LiTaO3
_symmetry_space_group_name_H-M  'R3c'
_cell_length_a       5.50826
_cell_length_b       5.50826
_cell_length_c       5.50827
_cell_angle_alpha    55.8736
_cell_angle_beta     55.8736
_cell_angle_gamma    55.8736

_symmetry_Int_Tables_number  161
_chemical_formula_structural  LiTaO3
_chemical_formula_sum  Li2Ta2O6
_cell_volume  106.87230880919854
_cell_formula_units_Z  2
loop_
  _symmetry_equiv_pos_site_id
 _symmetry_equiv_pos_as_xyz
 1  'x, y, z'
loop_
 _atom_site_type_symbol
 _atom_site_label
 _atom_site_symmetry_multiplicity
 _atom_site_fract_x
 _atom_site_fract_y
 _atom_site_fract_z
 _atom_site_fract_occupancy
 Li  Li1  1  0.28108  0.28108  0.28108  1
 Li  Li2  1  0.78108  0.78108  0.78108  1
 O  O1  1  0.61321  0.22593  0.86860  1
 O  O2  1  0.72593  0.11321  0.36860  1
 O  O3  1  0.11321  0.36860  0.72593  1
 O  O4  1  0.36860  0.72593  0.11321  1
 O  O5  1  0.86860  0.61321  0.22593  1
 O  O6  1  0.22593  0.86860  0.61321  1
 Ta  Ta1  1  0.99938  0.99938  0.99938  1
 Ta  Ta2  1  0.49938  0.49938  0.49938  1
