CIF file written using JARVIS-Tools package.
data_Sc2AlHg
_symmetry_space_group_name_H-M  'Immm'
_cell_length_a       11.7351
_cell_length_b       6.61527
_cell_length_c       6.61527
_cell_angle_alpha    27.8076
_cell_angle_beta     27.5045
_cell_angle_gamma    27.5045

_symmetry_Int_Tables_number  71
_chemical_formula_structural  Sc2AlHg
_chemical_formula_sum  Sc2AlHg
_cell_volume  97.3351897561165
_cell_formula_units_Z  1
loop_
  _symmetry_equiv_pos_site_id
 _symmetry_equiv_pos_as_xyz
 1  'x, y, z'
loop_
 _atom_site_type_symbol
 _atom_site_label
 _atom_site_symmetry_multiplicity
 _atom_site_fract_x
 _atom_site_fract_y
 _atom_site_fract_z
 _atom_site_fract_occupancy
 Al  Al1  1  0.00000  0.00000  0.00000  1
 Hg  Hg1  1  0.50000  -0.00000  -0.00000  1
 Sc  Sc1  1  0.74783  -0.00000  0.00000  1
 Sc  Sc2  1  0.25217  0.00000  -0.00000  1
