CIF file written using JARVIS-Tools package.
data_LiCa2Ag
_symmetry_space_group_name_H-M  'I4/mmm'
_cell_length_a       17.4814
_cell_length_b       9.12341
_cell_length_c       9.12897
_cell_angle_alpha    23.4659
_cell_angle_beta     16.7072
_cell_angle_gamma    16.7176

_symmetry_Int_Tables_number  139
_chemical_formula_structural  LiCa2Ag
_chemical_formula_sum  LiCa2Ag
_cell_volume  120.40274918986147
_cell_formula_units_Z  1
loop_
  _symmetry_equiv_pos_site_id
 _symmetry_equiv_pos_as_xyz
 1  'x, y, z'
loop_
 _atom_site_type_symbol
 _atom_site_label
 _atom_site_symmetry_multiplicity
 _atom_site_fract_x
 _atom_site_fract_y
 _atom_site_fract_z
 _atom_site_fract_occupancy
 Ag  Ag1  1  0.50000  -0.00000  0.00000  1
 Ca  Ca1  1  0.66855  0.99952  0.00048  1
 Ca  Ca2  1  0.33145  0.00048  0.99952  1
 Li  Li1  1  0.00000  0.00000  0.00000  1
