CIF file written using JARVIS-Tools package.
data_TiNi
_symmetry_space_group_name_H-M  'P2_1/m'
_cell_length_a       4.82363
_cell_length_b       2.94066
_cell_length_c       3.99832
_cell_angle_alpha    90
_cell_angle_beta     90
_cell_angle_gamma    75.6808

_symmetry_Int_Tables_number  11
_chemical_formula_structural  TiNi
_chemical_formula_sum  Ti2Ni2
_cell_volume  54.952858606633534
_cell_formula_units_Z  2
loop_
  _symmetry_equiv_pos_site_id
 _symmetry_equiv_pos_as_xyz
 1  'x, y, z'
loop_
 _atom_site_type_symbol
 _atom_site_label
 _atom_site_symmetry_multiplicity
 _atom_site_fract_x
 _atom_site_fract_y
 _atom_site_fract_z
 _atom_site_fract_occupancy
 Ni  Ni1  1  0.82747  0.07472  0.25000  1
 Ni  Ni2  1  0.17253  0.92528  0.75000  1
 Ti  Ti1  1  0.71463  0.62680  0.75000  1
 Ti  Ti2  1  0.28537  0.37320  0.25000  1
