CIF file written using JARVIS-Tools package.
data_KAg3Se2
_symmetry_space_group_name_H-M  'C2/m'
_cell_length_a       4.38109
_cell_length_b       8.55131
_cell_length_c       8.75438
_cell_angle_alpha    114.002
_cell_angle_beta     90
_cell_angle_gamma    104.843

_symmetry_Int_Tables_number  12
_chemical_formula_structural  KAg3Se2
_chemical_formula_sum  K2Ag6Se4
_cell_volume  287.593961729234
_cell_formula_units_Z  2
loop_
  _symmetry_equiv_pos_site_id
 _symmetry_equiv_pos_as_xyz
 1  'x, y, z'
loop_
 _atom_site_type_symbol
 _atom_site_label
 _atom_site_symmetry_multiplicity
 _atom_site_fract_x
 _atom_site_fract_y
 _atom_site_fract_z
 _atom_site_fract_occupancy
 Ag  Ag1  1  0.94119  0.88237  0.59521  1
 Ag  Ag2  1  0.05881  0.11763  0.40479  1
 Ag  Ag3  1  0.31169  0.62338  0.56941  1
 Ag  Ag4  1  0.68831  0.37662  0.43059  1
 Ag  Ag5  1  0.40597  0.81195  0.35228  1
 Ag  Ag6  1  0.59403  0.18805  0.64772  1
 K  K1  1  0.86427  0.72854  0.95256  1
 K  K2  1  0.13573  0.27146  0.04744  1
 Se  Se1  1  0.51566  0.03132  0.20544  1
 Se  Se2  1  0.48434  0.96868  0.79456  1
 Se  Se3  1  0.79549  0.59099  0.27983  1
 Se  Se4  1  0.20451  0.40901  0.72017  1
