CIF file written using JARVIS-Tools package.
data_Yb2SmS4
_symmetry_space_group_name_H-M  'I-42d'
_cell_length_a       7.26257
_cell_length_b       7.26257
_cell_length_c       7.26257
_cell_angle_alpha    108.832
_cell_angle_beta     108.832
_cell_angle_gamma    110.757

_symmetry_Int_Tables_number  122
_chemical_formula_structural  Yb2SmS4
_chemical_formula_sum  Yb4Sm2S8
_cell_volume  294.7702928387155
_cell_formula_units_Z  2
loop_
  _symmetry_equiv_pos_site_id
 _symmetry_equiv_pos_as_xyz
 1  'x, y, z'
loop_
 _atom_site_type_symbol
 _atom_site_label
 _atom_site_symmetry_multiplicity
 _atom_site_fract_x
 _atom_site_fract_y
 _atom_site_fract_z
 _atom_site_fract_occupancy
 S  S1  1  0.99840  0.35433  0.50586  1
 S  S2  1  0.50746  0.00160  0.85593  1
 S  S3  1  0.15152  0.14567  0.14407  1
 S  S4  1  0.34848  0.49254  0.99414  1
 S  S5  1  0.64567  0.65152  0.64407  1
 S  S6  1  0.50160  0.00746  0.35593  1
 S  S7  1  0.99254  0.84848  0.49414  1
 S  S8  1  0.85433  0.49840  0.00586  1
 Sm  Sm1  1  0.62500  0.37500  0.25000  1
 Sm  Sm2  1  0.87500  0.12500  0.75000  1
 Yb  Yb1  1  0.12467  0.75000  0.87467  1
 Yb  Yb2  1  0.25000  0.62467  0.37467  1
 Yb  Yb3  1  0.37533  0.25000  0.62533  1
 Yb  Yb4  1  0.75000  0.87533  0.12533  1
