CIF file written using JARVIS-Tools package.
data_Al2CrIr
_symmetry_space_group_name_H-M  'Immm'
_cell_length_a       12.2511
_cell_length_b       6.63046
_cell_length_c       6.63046
_cell_angle_alpha    37.2329
_cell_angle_beta     22.5045
_cell_angle_gamma    22.5045

_symmetry_Int_Tables_number  71
_chemical_formula_structural  Al2CrIr
_chemical_formula_sum  Al2CrIr
_cell_volume  72.61616622931153
_cell_formula_units_Z  1
loop_
  _symmetry_equiv_pos_site_id
 _symmetry_equiv_pos_as_xyz
 1  'x, y, z'
loop_
 _atom_site_type_symbol
 _atom_site_label
 _atom_site_symmetry_multiplicity
 _atom_site_fract_x
 _atom_site_fract_y
 _atom_site_fract_z
 _atom_site_fract_occupancy
 Al  Al1  1  0.70066  0.00000  0.00000  1
 Al  Al2  1  0.29934  -0.00000  -0.00000  1
 Cr  Cr1  1  0.00000  0.00000  0.00000  1
 Ir  Ir1  1  0.50000  0.00000  -0.00000  1
