CIF file written using JARVIS-Tools package.
data_MgNiF4
_symmetry_space_group_name_H-M  'I-4'
_cell_length_a       4.91818
_cell_length_b       4.91816
_cell_length_c       6.43897
_cell_angle_alpha    112.45
_cell_angle_beta     112.454
_cell_angle_gamma    90.0004

_symmetry_Int_Tables_number  82
_chemical_formula_structural  MgNiF4
_chemical_formula_sum  Mg2Ni2F8
_cell_volume  131.07702896244407
_cell_formula_units_Z  2
loop_
  _symmetry_equiv_pos_site_id
 _symmetry_equiv_pos_as_xyz
 1  'x, y, z'
loop_
 _atom_site_type_symbol
 _atom_site_label
 _atom_site_symmetry_multiplicity
 _atom_site_fract_x
 _atom_site_fract_y
 _atom_site_fract_z
 _atom_site_fract_occupancy
 F  F1  1  0.58052  0.51527  0.65003  1
 F  F2  1  0.89275  0.82826  0.15561  1
 F  F3  1  0.26216  0.32766  0.15560  1
 F  F4  1  0.48362  0.93002  0.34796  1
 F  F5  1  0.06883  0.13514  0.65005  1
 F  F6  1  0.17054  0.73667  0.84241  1
 F  F7  1  0.67113  0.10610  0.84238  1
 F  F8  1  0.86370  0.41825  0.34795  1
 Mg  Mg1  1  0.78753  0.78800  0.57566  1
 Mg  Mg2  1  0.21083  0.21130  0.42233  1
 Ni  Ni1  1  0.95494  0.45546  0.91059  1
 Ni  Ni2  1  0.54336  0.04388  0.08740  1
