CIF file written using JARVIS-Tools package.
data_MnBe2Os
_symmetry_space_group_name_H-M  'Immm'
_cell_length_a       8.80986
_cell_length_b       5.0557
_cell_length_c       5.0557
_cell_angle_alpha    49.4416
_cell_angle_beta     29.3924
_cell_angle_gamma    29.3924

_symmetry_Int_Tables_number  71
_chemical_formula_structural  MnBe2Os
_chemical_formula_sum  MnBe2Os
_cell_volume  48.379594063585216
_cell_formula_units_Z  1
loop_
  _symmetry_equiv_pos_site_id
 _symmetry_equiv_pos_as_xyz
 1  'x, y, z'
loop_
 _atom_site_type_symbol
 _atom_site_label
 _atom_site_symmetry_multiplicity
 _atom_site_fract_x
 _atom_site_fract_y
 _atom_site_fract_z
 _atom_site_fract_occupancy
 Be  Be1  1  0.75664  -0.00000  0.00000  1
 Be  Be2  1  0.24336  0.00000  -0.00000  1
 Mn  Mn1  1  0.00000  0.00000  0.00000  1
 Os  Os1  1  0.50000  -0.00000  -0.00000  1
