CIF file written using JARVIS-Tools package.
data_Sc2AlAu
_symmetry_space_group_name_H-M  'I4/mmm'
_cell_length_a       11.9073
_cell_length_b       7.98604
_cell_length_c       7.98596
_cell_angle_alpha    31.5926
_cell_angle_beta     19.252
_cell_angle_gamma    19.2507

_symmetry_Int_Tables_number  139
_chemical_formula_structural  Sc2AlAu
_chemical_formula_sum  Sc2AlAu
_cell_volume  76.91444740377345
_cell_formula_units_Z  1
loop_
  _symmetry_equiv_pos_site_id
 _symmetry_equiv_pos_as_xyz
 1  'x, y, z'
loop_
 _atom_site_type_symbol
 _atom_site_label
 _atom_site_symmetry_multiplicity
 _atom_site_fract_x
 _atom_site_fract_y
 _atom_site_fract_z
 _atom_site_fract_occupancy
 Al  Al1  1  0.00000  -0.00000  -0.00000  1
 Au  Au1  1  0.50000  -0.00000  -0.00000  1
 Sc  Sc1  1  0.74987  0.00008  0.00009  1
 Sc  Sc2  1  0.25013  -0.00008  -0.00009  1
