CIF file written using JARVIS-Tools package.
data_Zr2ZnCd
_symmetry_space_group_name_H-M  'I4/mmm'
_cell_length_a       12.0977
_cell_length_b       8.09928
_cell_length_c       8.09928
_cell_angle_alpha    31.5151
_cell_angle_beta     19.2337
_cell_angle_gamma    19.2338

_symmetry_Int_Tables_number  139
_chemical_formula_structural  Zr2ZnCd
_chemical_formula_sum  Zr2ZnCd
_cell_volume  80.37285219340733
_cell_formula_units_Z  1
loop_
  _symmetry_equiv_pos_site_id
 _symmetry_equiv_pos_as_xyz
 1  'x, y, z'
loop_
 _atom_site_type_symbol
 _atom_site_label
 _atom_site_symmetry_multiplicity
 _atom_site_fract_x
 _atom_site_fract_y
 _atom_site_fract_z
 _atom_site_fract_occupancy
 Cd  Cd1  1  0.50000  0.00000  0.00000  1
 Zn  Zn1  1  0.00000  0.00000  0.00000  1
 Zr  Zr1  1  0.75005  -0.00003  -0.00003  1
 Zr  Zr2  1  0.24995  0.00003  0.00003  1
