CIF file written using JARVIS-Tools package.
data_NpPt
_symmetry_space_group_name_H-M  'Cmcm'
_cell_length_a       3.92999
_cell_length_b       4.30779
_cell_length_c       5.64299
_cell_angle_alpha    90
_cell_angle_beta     110.379
_cell_angle_gamma    90

_symmetry_Int_Tables_number  63
_chemical_formula_structural  NpPt
_chemical_formula_sum  Np2Pt2
_cell_volume  89.5542427465227
_cell_formula_units_Z  2
loop_
  _symmetry_equiv_pos_site_id
 _symmetry_equiv_pos_as_xyz
 1  'x, y, z'
loop_
 _atom_site_type_symbol
 _atom_site_label
 _atom_site_symmetry_multiplicity
 _atom_site_fract_x
 _atom_site_fract_y
 _atom_site_fract_z
 _atom_site_fract_occupancy
 Np  Np1  1  0.86549  0.75000  0.73099  1
 Np  Np2  1  0.13451  0.25000  0.26901  1
 Pt  Pt1  1  0.59682  0.75000  0.19364  1
 Pt  Pt2  1  0.40318  0.25000  0.80636  1
