CIF file written using JARVIS-Tools package.
data_Al2Bi3O9
_symmetry_space_group_name_H-M  'Cc'
_cell_length_a       5.25738
_cell_length_b       5.68221
_cell_length_c       13.8325
_cell_angle_alpha    92.6715
_cell_angle_beta     90.01
_cell_angle_gamma    117.556

_symmetry_Int_Tables_number  9
_chemical_formula_structural  Al2Bi3O9
_chemical_formula_sum  Al4Bi6O8
_cell_volume  365.8393829725491
_cell_formula_units_Z  2
loop_
  _symmetry_equiv_pos_site_id
 _symmetry_equiv_pos_as_xyz
 1  'x, y, z'
loop_
 _atom_site_type_symbol
 _atom_site_label
 _atom_site_symmetry_multiplicity
 _atom_site_fract_x
 _atom_site_fract_y
 _atom_site_fract_z
 _atom_site_fract_occupancy
 Al  Al1  1  0.97042  0.91909  0.75613  1
 Al  Al2  1  0.62969  0.24712  0.10776  1
 Al  Al3  1  0.61724  0.24630  0.60773  1
 Al  Al4  1  0.94867  0.91929  0.25614  1
 Bi  Bi1  1  0.01805  0.03808  0.98749  1
 Bi  Bi2  1  0.65774  0.35538  0.34906  1
 Bi  Bi3  1  0.34618  0.67908  0.64980  1
 Bi  Bi4  1  0.69732  0.35539  0.84925  1
 Bi  Bi5  1  0.33335  0.67976  0.14965  1
 Bi  Bi6  1  0.01983  0.03817  0.48744  1
 O  O1  1  0.20628  0.19363  0.84508  1
 O  O2  1  0.72516  0.06115  0.71000  1
 O  O3  1  0.02279  0.76044  0.36601  1
 O  O4  1  0.41918  0.40881  0.06122  1
 O  O5  1  0.54960  0.67312  0.27775  1
 O  O6  1  0.47748  0.35478  0.50344  1
 O  O7  1  0.80413  0.01995  0.14715  1
 O  O8  1  0.12325  0.67291  0.77774  1
 O  O9  1  0.98737  0.19378  0.34522  1
 O  O10  1  0.98948  0.40816  0.56120  1
 O  O11  1  0.33598  0.06159  0.21008  1
 O  O12  1  0.65343  0.54523  0.68677  1
 O  O13  1  0.55119  0.92483  0.52973  1
 O  O14  1  0.37498  0.92589  0.02971  1
 O  O15  1  0.21496  0.01892  0.64680  1
 O  O16  1  0.73741  0.76014  0.86572  1
 O  O17  1  0.89232  0.54618  0.18694  1
 O  O18  1  0.87816  0.35611  0.00357  1
