CIF file written using JARVIS-Tools package.
data_NaGaHg2
_symmetry_space_group_name_H-M  'Immm'
_cell_length_a       11.9394
_cell_length_b       6.83155
_cell_length_c       6.83155
_cell_angle_alpha    25.9416
_cell_angle_beta     29.0913
_cell_angle_gamma    29.0913

_symmetry_Int_Tables_number  71
_chemical_formula_structural  NaGaHg2
_chemical_formula_sum  NaGaHg2
_cell_volume  107.88293730070494
_cell_formula_units_Z  1
loop_
  _symmetry_equiv_pos_site_id
 _symmetry_equiv_pos_as_xyz
 1  'x, y, z'
loop_
 _atom_site_type_symbol
 _atom_site_label
 _atom_site_symmetry_multiplicity
 _atom_site_fract_x
 _atom_site_fract_y
 _atom_site_fract_z
 _atom_site_fract_occupancy
 Ga  Ga1  1  0.50000  -0.00000  0.00000  1
 Hg  Hg1  1  0.73993  -0.00000  0.00000  1
 Hg  Hg2  1  0.26007  0.00000  -0.00000  1
 Na  Na1  1  0.00000  0.00000  0.00000  1
