CIF file written using JARVIS-Tools package.
data_Al2OsRu
_symmetry_space_group_name_H-M  'C2/m'
_cell_length_a       10.4097
_cell_length_b       7.21521
_cell_length_c       7.21544
_cell_angle_alpha    22.9539
_cell_angle_beta     19.4349
_cell_angle_gamma    19.4362

_symmetry_Int_Tables_number  12
_chemical_formula_structural  Al2OsRu
_chemical_formula_sum  Al2OsRu
_cell_volume  57.51783992538416
_cell_formula_units_Z  1
loop_
  _symmetry_equiv_pos_site_id
 _symmetry_equiv_pos_as_xyz
 1  'x, y, z'
loop_
 _atom_site_type_symbol
 _atom_site_label
 _atom_site_symmetry_multiplicity
 _atom_site_fract_x
 _atom_site_fract_y
 _atom_site_fract_z
 _atom_site_fract_occupancy
 Al  Al1  1  0.74807  0.00160  0.00166  1
 Al  Al2  1  0.25193  -0.00160  -0.00166  1
 Os  Os1  1  0.50000  0.00000  0.00000  1
 Ru  Ru1  1  0.00000  0.00000  0.00000  1
