CIF file written using JARVIS-Tools package.
data_Ba2HgBi
_symmetry_space_group_name_H-M  'Immm'
_cell_length_a       14.3979
_cell_length_b       6.03443
_cell_length_c       6.03465
_cell_angle_alpha    59.4829
_cell_angle_beta     35.0302
_cell_angle_gamma    35.0313

_symmetry_Int_Tables_number  71
_chemical_formula_structural  Ba2HgBi
_chemical_formula_sum  Ba2HgBi
_cell_volume  150.22379662995675
_cell_formula_units_Z  1
loop_
  _symmetry_equiv_pos_site_id
 _symmetry_equiv_pos_as_xyz
 1  'x, y, z'
loop_
 _atom_site_type_symbol
 _atom_site_label
 _atom_site_symmetry_multiplicity
 _atom_site_fract_x
 _atom_site_fract_y
 _atom_site_fract_z
 _atom_site_fract_occupancy
 Ba  Ba1  1  0.74786  0.00439  0.00439  1
 Ba  Ba2  1  0.25214  -0.00439  -0.00439  1
 Bi  Bi1  1  0.50000  -0.00000  -0.00000  1
 Hg  Hg1  1  0.00000  0.00000  0.00000  1
