CIF file written using JARVIS-Tools package.
data_Al2TcAu
_symmetry_space_group_name_H-M  'C2/m'
_cell_length_a       11.0688
_cell_length_b       4.60701
_cell_length_c       4.60701
_cell_angle_alpha    34.001
_cell_angle_beta     32.184
_cell_angle_gamma    32.1841

_symmetry_Int_Tables_number  12
_chemical_formula_structural  Al2TcAu
_chemical_formula_sum  Al2TcAu
_cell_volume  61.16272590765162
_cell_formula_units_Z  1
loop_
  _symmetry_equiv_pos_site_id
 _symmetry_equiv_pos_as_xyz
 1  'x, y, z'
loop_
 _atom_site_type_symbol
 _atom_site_label
 _atom_site_symmetry_multiplicity
 _atom_site_fract_x
 _atom_site_fract_y
 _atom_site_fract_z
 _atom_site_fract_occupancy
 Al  Al1  1  0.76294  -0.01422  -0.01422  1
 Al  Al2  1  0.23706  0.01422  0.01422  1
 Au  Au1  1  0.50000  0.00000  0.00000  1
 Tc  Tc1  1  0.00000  0.00000  0.00000  1
