CIF file written using JARVIS-Tools package.
data_Eu2H3Cl
_symmetry_space_group_name_H-M  'P-3m1'
_cell_length_a       3.66448
_cell_length_b       3.6648
_cell_length_c       7.14622
_cell_angle_alpha    90
_cell_angle_beta     89.9926
_cell_angle_gamma    120.003

_symmetry_Int_Tables_number  164
_chemical_formula_structural  Eu2H3Cl
_chemical_formula_sum  Eu2H3Cl
_cell_volume  83.11054736974206
_cell_formula_units_Z  1
loop_
  _symmetry_equiv_pos_site_id
 _symmetry_equiv_pos_as_xyz
 1  'x, y, z'
loop_
 _atom_site_type_symbol
 _atom_site_label
 _atom_site_symmetry_multiplicity
 _atom_site_fract_x
 _atom_site_fract_y
 _atom_site_fract_z
 _atom_site_fract_occupancy
 Cl  Cl1  1  0.00000  0.00000  0.00000  1
 Eu  Eu1  1  0.66683  0.33341  0.71461  1
 Eu  Eu2  1  0.33317  0.66659  0.28539  1
 H  H1  1  0.66655  0.33328  0.38020  1
 H  H2  1  0.33345  0.66672  0.61980  1
 H  H3  1  -0.00000  0.00000  0.50000  1
