CIF file written using JARVIS-Tools package.
data_CuSbPd2
_symmetry_space_group_name_H-M  'Immm'
_cell_length_a       9.66428
_cell_length_b       9.19261
_cell_length_c       9.19261
_cell_angle_alpha    60.2324
_cell_angle_beta     58.2877
_cell_angle_gamma    58.2877

_symmetry_Int_Tables_number  71
_chemical_formula_structural  CuSbPd2
_chemical_formula_sum  CuSbPd2
_cell_volume  562.9982219027066
_cell_formula_units_Z  1
loop_
  _symmetry_equiv_pos_site_id
 _symmetry_equiv_pos_as_xyz
 1  'x, y, z'
loop_
 _atom_site_type_symbol
 _atom_site_label
 _atom_site_symmetry_multiplicity
 _atom_site_fract_x
 _atom_site_fract_y
 _atom_site_fract_z
 _atom_site_fract_occupancy
 Cu  Cu1  1  0.00000  0.00000  0.00000  1
 Pd  Pd1  1  0.74876  -0.00000  -0.00000  1
 Pd  Pd2  1  0.25124  0.00000  0.00000  1
 Sb  Sb1  1  0.50000  0.00000  0.00000  1
