CIF file written using JARVIS-Tools package.
data_Ce4DyO9
_symmetry_space_group_name_H-M  'Imm2'
_cell_length_a       3.80988
_cell_length_b       5.51334
_cell_length_c       10.2904
_cell_angle_alpha    105.538
_cell_angle_beta     100.668
_cell_angle_gamma    90.0049

_symmetry_Int_Tables_number  44
_chemical_formula_structural  Ce4DyO9
_chemical_formula_sum  Ce4DyO9
_cell_volume  204.37129599227208
_cell_formula_units_Z  1
loop_
  _symmetry_equiv_pos_site_id
 _symmetry_equiv_pos_as_xyz
 1  'x, y, z'
loop_
 _atom_site_type_symbol
 _atom_site_label
 _atom_site_symmetry_multiplicity
 _atom_site_fract_x
 _atom_site_fract_y
 _atom_site_fract_z
 _atom_site_fract_occupancy
 Ce  Ce1  1  0.79797  0.80626  0.60189  1
 Ce  Ce2  1  0.60194  0.61793  0.20985  1
 Ce  Ce3  1  0.39126  0.40728  0.78849  1
 Ce  Ce4  1  0.19526  0.20354  0.39644  1
 Dy  Dy1  1  0.99664  0.95291  0.99917  1
 O  O1  1  0.69341  0.45455  0.39272  1
 O  O2  1  0.07920  0.33681  0.16431  1
 O  O3  1  0.91405  0.17181  0.83411  1
 O  O4  1  0.69866  0.95756  0.40328  1
 O  O5  1  0.10052  0.85420  0.20695  1
 O  O6  1  0.29985  0.06098  0.60563  1
 O  O7  1  0.49662  0.74447  0.99917  1
 O  O8  1  0.89273  0.64648  0.79137  1
 O  O9  1  0.29455  0.55343  0.59505  1
