CIF file written using JARVIS-Tools package.
data_Eu2H3Br
_symmetry_space_group_name_H-M  'C2/m'
_cell_length_a       3.83521
_cell_length_b       3.83517
_cell_length_c       7.58291
_cell_angle_alpha    97.6433
_cell_angle_beta     82.3543
_cell_angle_gamma    120.034

_symmetry_Int_Tables_number  12
_chemical_formula_structural  Eu2H3Br
_chemical_formula_sum  Eu2H3Br
_cell_volume  95.41358360443833
_cell_formula_units_Z  1
loop_
  _symmetry_equiv_pos_site_id
 _symmetry_equiv_pos_as_xyz
 1  'x, y, z'
loop_
 _atom_site_type_symbol
 _atom_site_label
 _atom_site_symmetry_multiplicity
 _atom_site_fract_x
 _atom_site_fract_y
 _atom_site_fract_z
 _atom_site_fract_occupancy
 Br  Br1  1  0.00000  0.00000  0.00000  1
 Eu  Eu1  1  0.73092  0.26891  0.70421  1
 Eu  Eu2  1  0.26908  0.73109  0.29579  1
 H  H1  1  0.60504  0.39514  0.29648  1
 H  H2  1  0.39496  0.60486  0.70352  1
 H  H3  1  0.00000  0.00000  0.50000  1
