CIF file written using JARVIS-Tools package.
data_Si2TcIr
_symmetry_space_group_name_H-M  'Immm'
_cell_length_a       9.16843
_cell_length_b       9.78609
_cell_length_c       9.7861
_cell_angle_alpha    61.3776
_cell_angle_beta     62.0666
_cell_angle_gamma    62.0666

_symmetry_Int_Tables_number  71
_chemical_formula_structural  Si2TcIr
_chemical_formula_sum  Si2TcIr
_cell_volume  646.3484941194738
_cell_formula_units_Z  1
loop_
  _symmetry_equiv_pos_site_id
 _symmetry_equiv_pos_as_xyz
 1  'x, y, z'
loop_
 _atom_site_type_symbol
 _atom_site_label
 _atom_site_symmetry_multiplicity
 _atom_site_fract_x
 _atom_site_fract_y
 _atom_site_fract_z
 _atom_site_fract_occupancy
 Ir  Ir1  1  0.50000  0.00000  0.00000  1
 Si  Si1  1  0.74629  0.00000  0.00000  1
 Si  Si2  1  0.25371  -0.00000  -0.00000  1
 Tc  Tc1  1  0.00000  0.00000  0.00000  1
