CIF file written using JARVIS-Tools package.
data_Rh3Se8
_symmetry_space_group_name_H-M  'P2_1/c'
_cell_length_a       6.03847
_cell_length_b       6.04264
_cell_length_c       13.4747
_cell_angle_alpha    90
_cell_angle_beta     115.992
_cell_angle_gamma    90

_symmetry_Int_Tables_number  14
_chemical_formula_structural  Rh3Se8
_chemical_formula_sum  Rh6Se6
_cell_volume  441.9394869759102
_cell_formula_units_Z  2
loop_
  _symmetry_equiv_pos_site_id
 _symmetry_equiv_pos_as_xyz
 1  'x, y, z'
loop_
 _atom_site_type_symbol
 _atom_site_label
 _atom_site_symmetry_multiplicity
 _atom_site_fract_x
 _atom_site_fract_y
 _atom_site_fract_z
 _atom_site_fract_occupancy
 Rh  Rh1  1  0.25754  0.98534  0.25101  1
 Rh  Rh2  1  0.74246  0.01466  0.74899  1
 Rh  Rh3  1  0.50000  0.00000  -0.00000  1
 Rh  Rh4  1  0.74246  0.48534  0.24899  1
 Rh  Rh5  1  0.25754  0.51466  0.75101  1
 Rh  Rh6  1  0.50000  0.50000  0.50000  1
 Se  Se1  1  0.19142  0.12497  0.80864  1
 Se  Se2  1  0.69161  0.10791  0.31236  1
 Se  Se3  1  0.17505  0.11322  0.06011  1
 Se  Se4  1  0.67613  0.11982  0.55639  1
 Se  Se5  1  0.30839  0.89209  0.68764  1
 Se  Se6  1  0.69161  0.39209  0.81236  1
 Se  Se7  1  0.67613  0.38018  0.05639  1
 Se  Se8  1  0.32387  0.61982  0.94361  1
 Se  Se9  1  0.30839  0.60791  0.18764  1
 Se  Se10  1  0.17505  0.38678  0.56011  1
 Se  Se11  1  0.82495  0.61322  0.43989  1
 Se  Se12  1  0.80858  0.62497  0.69136  1
 Se  Se13  1  0.82495  0.88678  0.93989  1
 Se  Se14  1  0.80858  0.87503  0.19136  1
 Se  Se15  1  0.19142  0.37503  0.30864  1
 Se  Se16  1  0.32387  0.88018  0.44361  1
