CIF file written using JARVIS-Tools package.
data_SrSnHg2
_symmetry_space_group_name_H-M  'C2/m'
_cell_length_a       13.1629
_cell_length_b       9.21355
_cell_length_c       9.21355
_cell_angle_alpha    33.3485
_cell_angle_beta     19.5015
_cell_angle_gamma    19.5015

_symmetry_Int_Tables_number  12
_chemical_formula_structural  SrSnHg2
_chemical_formula_sum  SrSnHg2
_cell_volume  109.41368492237365
_cell_formula_units_Z  1
loop_
  _symmetry_equiv_pos_site_id
 _symmetry_equiv_pos_as_xyz
 1  'x, y, z'
loop_
 _atom_site_type_symbol
 _atom_site_label
 _atom_site_symmetry_multiplicity
 _atom_site_fract_x
 _atom_site_fract_y
 _atom_site_fract_z
 _atom_site_fract_occupancy
 Hg  Hg1  1  0.74657  0.00259  0.00259  1
 Hg  Hg2  1  0.25343  -0.00259  -0.00259  1
 Sn  Sn1  1  0.50000  -0.00000  0.00000  1
 Sr  Sr1  1  0.00000  0.00000  0.00000  1
