CIF file written using JARVIS-Tools package.
data_InSnCl3
_symmetry_space_group_name_H-M  'R3m'
_cell_length_a       5.56872
_cell_length_b       5.56929
_cell_length_c       5.56835
_cell_angle_alpha    87.3342
_cell_angle_beta     87.2249
_cell_angle_gamma    92.9038

_symmetry_Int_Tables_number  160
_chemical_formula_structural  InSnCl3
_chemical_formula_sum  InSnCl3
_cell_volume  172.06389014945262
_cell_formula_units_Z  1
loop_
  _symmetry_equiv_pos_site_id
 _symmetry_equiv_pos_as_xyz
 1  'x, y, z'
loop_
 _atom_site_type_symbol
 _atom_site_label
 _atom_site_symmetry_multiplicity
 _atom_site_fract_x
 _atom_site_fract_y
 _atom_site_fract_z
 _atom_site_fract_occupancy
 Cl  Cl1  1  0.45866  0.01207  0.55419  1
 Cl  Cl2  1  0.45945  0.45783  0.00037  1
 Cl  Cl3  1  0.01430  0.45651  0.55501  1
 In  In1  1  0.07071  0.06875  0.94313  1
 Sn  Sn1  1  0.50689  0.50484  0.50731  1
