CIF file written using JARVIS-Tools package.
data_K2HgSe
_symmetry_space_group_name_H-M  'Fm-3m'
_cell_length_a       13.7057
_cell_length_b       5.59605
_cell_length_c       5.59604
_cell_angle_alpha    60.024
_cell_angle_beta     35.2769
_cell_angle_gamma    35.2769

_symmetry_Int_Tables_number  225
_chemical_formula_structural  K2HgSe
_chemical_formula_sum  K2HgSe
_cell_volume  123.96356060565088
_cell_formula_units_Z  1
loop_
  _symmetry_equiv_pos_site_id
 _symmetry_equiv_pos_as_xyz
 1  'x, y, z'
loop_
 _atom_site_type_symbol
 _atom_site_label
 _atom_site_symmetry_multiplicity
 _atom_site_fract_x
 _atom_site_fract_y
 _atom_site_fract_z
 _atom_site_fract_occupancy
 Hg  Hg1  1  0.50000  0.00000  0.00000  1
 K  K1  1  0.75002  0.00002  0.00002  1
 K  K2  1  0.24998  -0.00002  -0.00002  1
 Se  Se1  1  0.00000  0.00000  0.00000  1
