CIF file written using JARVIS-Tools package.
data_MgCdHg2
_symmetry_space_group_name_H-M  'Immm'
_cell_length_a       11.9531
_cell_length_b       6.75649
_cell_length_c       6.74756
_cell_angle_alpha    27.6075
_cell_angle_beta     27.7497
_cell_angle_gamma    27.7099

_symmetry_Int_Tables_number  71
_chemical_formula_structural  MgCdHg2
_chemical_formula_sum  MgCdHg2
_cell_volume  103.87967744575317
_cell_formula_units_Z  1
loop_
  _symmetry_equiv_pos_site_id
 _symmetry_equiv_pos_as_xyz
 1  'x, y, z'
loop_
 _atom_site_type_symbol
 _atom_site_label
 _atom_site_symmetry_multiplicity
 _atom_site_fract_x
 _atom_site_fract_y
 _atom_site_fract_z
 _atom_site_fract_occupancy
 Cd  Cd1  1  0.50000  -0.00000  0.00000  1
 Hg  Hg1  1  0.75637  -0.00014  0.00014  1
 Hg  Hg2  1  0.24363  0.00014  -0.00014  1
 Mg  Mg1  1  0.00000  0.00000  0.00000  1
