CIF file written using JARVIS-Tools package.
data_CoO
_symmetry_space_group_name_H-M  'P6_3mc'
_cell_length_a       3.1515
_cell_length_b       5.28416
_cell_length_c       3.1515
_cell_angle_alpha    90
_cell_angle_beta     120
_cell_angle_gamma    90

_symmetry_Int_Tables_number  186
_chemical_formula_structural  CoO
_chemical_formula_sum  Co2O2
_cell_volume  45.450733582221396
_cell_formula_units_Z  2
loop_
  _symmetry_equiv_pos_site_id
 _symmetry_equiv_pos_as_xyz
 1  'x, y, z'
loop_
 _atom_site_type_symbol
 _atom_site_label
 _atom_site_symmetry_multiplicity
 _atom_site_fract_x
 _atom_site_fract_y
 _atom_site_fract_z
 _atom_site_fract_occupancy
 Co  Co1  1  0.66667  0.00335  0.33333  1
 Co  Co2  1  0.33333  0.50335  0.66667  1
 O  O1  1  0.66667  0.37165  0.33333  1
 O  O2  1  0.33333  0.87165  0.66667  1
