CIF file written using JARVIS-Tools package.
data_Cu8O7
_symmetry_space_group_name_H-M  'I-4m2'
_cell_length_a       5.84197
_cell_length_b       5.84197
_cell_length_c       6.55085
_cell_angle_alpha    116.471
_cell_angle_beta     116.471
_cell_angle_gamma    90.0282

_symmetry_Int_Tables_number  119
_chemical_formula_structural  Cu8O7
_chemical_formula_sum  Cu8O7
_cell_volume  173.528994855985
_cell_formula_units_Z  1
loop_
  _symmetry_equiv_pos_site_id
 _symmetry_equiv_pos_as_xyz
 1  'x, y, z'
loop_
 _atom_site_type_symbol
 _atom_site_label
 _atom_site_symmetry_multiplicity
 _atom_site_fract_x
 _atom_site_fract_y
 _atom_site_fract_z
 _atom_site_fract_occupancy
 Cu  Cu1  1  0.01120  0.00287  0.00932  1
 Cu  Cu2  1  0.99183  0.48949  0.98243  1
 Cu  Cu3  1  0.51057  0.50560  0.51767  1
 Cu  Cu4  1  0.51051  0.00817  0.51757  1
 Cu  Cu5  1  0.49440  0.48943  0.98233  1
 Cu  Cu6  1  0.50158  0.00287  0.00935  1
 Cu  Cu7  1  0.99713  0.49842  0.49065  1
 Cu  Cu8  1  0.99713  0.98880  0.49068  1
 O  O1  1  0.12246  0.36894  0.74121  1
 O  O2  1  0.12671  0.87329  0.75000  1
 O  O3  1  0.63106  0.87754  0.75879  1
 O  O4  1  0.37702  0.62298  0.25000  1
 O  O5  1  0.39286  0.13922  0.28226  1
 O  O6  1  0.87674  0.12326  0.25000  1
 O  O7  1  0.86078  0.60714  0.21774  1
