CIF file written using JARVIS-Tools package.
data_Ca2ZnGa
_symmetry_space_group_name_H-M  'Fm-3m'
_cell_length_a       12.6306
_cell_length_b       8.93109
_cell_length_c       8.9311
_cell_angle_alpha    33.5599
_cell_angle_beta     19.473
_cell_angle_gamma    19.473

_symmetry_Int_Tables_number  225
_chemical_formula_structural  Ca2ZnGa
_chemical_formula_sum  Ca2ZnGa
_cell_volume  96.96366079501364
_cell_formula_units_Z  1
loop_
  _symmetry_equiv_pos_site_id
 _symmetry_equiv_pos_as_xyz
 1  'x, y, z'
loop_
 _atom_site_type_symbol
 _atom_site_label
 _atom_site_symmetry_multiplicity
 _atom_site_fract_x
 _atom_site_fract_y
 _atom_site_fract_z
 _atom_site_fract_occupancy
 Ca  Ca1  1  0.74998  0.00001  0.00001  1
 Ca  Ca2  1  0.25002  -0.00001  -0.00001  1
 Ga  Ga1  1  0.50000  0.00000  -0.00000  1
 Zn  Zn1  1  0.00000  0.00000  0.00000  1
