CIF file written using JARVIS-Tools package.
data_Hf2TcPd
_symmetry_space_group_name_H-M  'Fm-3m'
_cell_length_a       11.3479
_cell_length_b       8.02925
_cell_length_c       8.02974
_cell_angle_alpha    33.6058
_cell_angle_beta     19.4965
_cell_angle_gamma    19.499

_symmetry_Int_Tables_number  225
_chemical_formula_structural  Hf2TcPd
_chemical_formula_sum  Hf2TcPd
_cell_volume  70.57271439221226
_cell_formula_units_Z  1
loop_
  _symmetry_equiv_pos_site_id
 _symmetry_equiv_pos_as_xyz
 1  'x, y, z'
loop_
 _atom_site_type_symbol
 _atom_site_label
 _atom_site_symmetry_multiplicity
 _atom_site_fract_x
 _atom_site_fract_y
 _atom_site_fract_z
 _atom_site_fract_occupancy
 Hf  Hf1  1  0.74954  0.00032  0.00033  1
 Hf  Hf2  1  0.25046  -0.00032  -0.00033  1
 Pd  Pd1  1  0.50000  0.00000  0.00000  1
 Tc  Tc1  1  0.00000  -0.00000  -0.00000  1
