CIF file written using JARVIS-Tools package.
data_Fe2TeO6
_symmetry_space_group_name_H-M  'P4_2/mnm'
_cell_length_a       4.48811
_cell_length_b       4.48811
_cell_length_c       9.07359
_cell_angle_alpha    90
_cell_angle_beta     90
_cell_angle_gamma    90

_symmetry_Int_Tables_number  136
_chemical_formula_structural  Fe2TeO6
_chemical_formula_sum  Fe4Te2O2
_cell_volume  182.77052137518785
_cell_formula_units_Z  2
loop_
  _symmetry_equiv_pos_site_id
 _symmetry_equiv_pos_as_xyz
 1  'x, y, z'
loop_
 _atom_site_type_symbol
 _atom_site_label
 _atom_site_symmetry_multiplicity
 _atom_site_fract_x
 _atom_site_fract_y
 _atom_site_fract_z
 _atom_site_fract_occupancy
 Fe  Fe1  1  0.00000  0.00000  0.33170  1
 Fe  Fe2  1  0.50000  0.50000  0.83170  1
 Fe  Fe3  1  0.00000  0.00000  0.66830  1
 Fe  Fe4  1  0.50000  0.50000  0.16830  1
 O  O1  1  0.69940  0.69940  0.67408  1
 O  O2  1  0.30060  0.30060  0.67408  1
 O  O3  1  0.30060  0.30060  0.32592  1
 O  O4  1  0.19940  0.80060  0.17408  1
 O  O5  1  0.69940  0.69940  0.32592  1
 O  O6  1  0.80060  0.19940  0.82592  1
 O  O7  1  0.18305  0.81695  0.50000  1
 O  O8  1  0.80060  0.19940  0.17408  1
 O  O9  1  0.81695  0.18305  0.50000  1
 O  O10  1  0.19940  0.80060  0.82592  1
 O  O11  1  0.31695  0.31695  0.00000  1
 O  O12  1  0.68305  0.68305  0.00000  1
 Te  Te1  1  0.50000  0.50000  0.50000  1
 Te  Te2  1  0.00000  0.00000  0.00000  1
