CIF file written using JARVIS-Tools package.
data_HoAlO3
_symmetry_space_group_name_H-M  'Pnma'
_cell_length_a       5.18272
_cell_length_b       5.36304
_cell_length_c       7.40185
_cell_angle_alpha    90
_cell_angle_beta     90
_cell_angle_gamma    90

_symmetry_Int_Tables_number  62
_chemical_formula_structural  HoAlO3
_chemical_formula_sum  Ho4Al4O2
_cell_volume  205.73519245541974
_cell_formula_units_Z  4
loop_
  _symmetry_equiv_pos_site_id
 _symmetry_equiv_pos_as_xyz
 1  'x, y, z'
loop_
 _atom_site_type_symbol
 _atom_site_label
 _atom_site_symmetry_multiplicity
 _atom_site_fract_x
 _atom_site_fract_y
 _atom_site_fract_z
 _atom_site_fract_occupancy
 Al  Al1  1  0.50000  0.00000  0.50000  1
 Al  Al2  1  0.00000  0.50000  0.50000  1
 Al  Al3  1  0.00000  0.50000  0.00000  1
 Al  Al4  1  0.50000  0.00000  0.00000  1
 Ho  Ho1  1  0.01366  0.94334  0.75000  1
 Ho  Ho2  1  0.51366  0.55666  0.25000  1
 Ho  Ho3  1  0.48634  0.44334  0.75000  1
 Ho  Ho4  1  0.98634  0.05666  0.25000  1
 O  O1  1  0.70372  0.29542  0.45326  1
 O  O2  1  0.41095  0.97572  0.25000  1
 O  O3  1  0.79628  0.79542  0.04674  1
 O  O4  1  0.29628  0.70458  0.95326  1
 O  O5  1  0.20372  0.20458  0.54674  1
 O  O6  1  0.08905  0.47572  0.25000  1
 O  O7  1  0.20372  0.20458  0.95326  1
 O  O8  1  0.70372  0.29542  0.04674  1
 O  O9  1  0.29628  0.70458  0.54674  1
 O  O10  1  0.58905  0.02428  0.75000  1
 O  O11  1  0.79628  0.79542  0.45326  1
 O  O12  1  0.91095  0.52428  0.75000  1
