CIF file written using JARVIS-Tools package.
data_MgCoF4
_symmetry_space_group_name_H-M  'I-4'
_cell_length_a       4.94615
_cell_length_b       4.94619
_cell_length_c       6.45972
_cell_angle_alpha    112.512
_cell_angle_beta     112.512
_cell_angle_gamma    89.9954

_symmetry_Int_Tables_number  82
_chemical_formula_structural  MgCoF4
_chemical_formula_sum  Mg2Co2F8
_cell_volume  132.86518692834193
_cell_formula_units_Z  2
loop_
  _symmetry_equiv_pos_site_id
 _symmetry_equiv_pos_as_xyz
 1  'x, y, z'
loop_
 _atom_site_type_symbol
 _atom_site_label
 _atom_site_symmetry_multiplicity
 _atom_site_fract_x
 _atom_site_fract_y
 _atom_site_fract_z
 _atom_site_fract_occupancy
 Co  Co1  1  -0.03181  0.46654  0.93137  1
 Co  Co2  1  0.53827  0.03660  0.07153  1
 F  F1  1  0.63695  0.57869  0.65800  1
 F  F2  1  0.82641  0.77227  0.16786  1
 F  F3  1  0.34645  0.39728  0.16785  1
 F  F4  1  0.42605  0.97874  0.34488  1
 F  F5  1  0.02604  0.08100  0.65799  1
 F  F6  1  0.23247  0.65841  0.83503  1
 F  F7  1  0.60754  0.17834  0.83504  1
 F  F8  1  0.92383  0.36781  0.34487  1
 Mg  Mg1  1  0.71929  0.71764  0.43360  1
 Mg  Mg2  1  0.28715  0.28551  0.56933  1
