CIF file written using JARVIS-Tools package.
data_Y2ZnAg
_symmetry_space_group_name_H-M  'Immm'
_cell_length_a       11.9746
_cell_length_b       6.82106
_cell_length_c       6.82106
_cell_angle_alpha    26.8826
_cell_angle_beta     28.6257
_cell_angle_gamma    28.6257

_symmetry_Int_Tables_number  71
_chemical_formula_structural  Y2ZnAg
_chemical_formula_sum  Y2ZnAg
_cell_volume  108.50448078246073
_cell_formula_units_Z  1
loop_
  _symmetry_equiv_pos_site_id
 _symmetry_equiv_pos_as_xyz
 1  'x, y, z'
loop_
 _atom_site_type_symbol
 _atom_site_label
 _atom_site_symmetry_multiplicity
 _atom_site_fract_x
 _atom_site_fract_y
 _atom_site_fract_z
 _atom_site_fract_occupancy
 Ag  Ag1  1  0.50000  -0.00000  0.00000  1
 Y  Y1  1  0.74767  -0.00000  -0.00000  1
 Y  Y2  1  0.25233  0.00000  0.00000  1
 Zn  Zn1  1  0.00000  0.00000  0.00000  1
