CIF file written using JARVIS-Tools package.
data_Ba3As2O8
_symmetry_space_group_name_H-M  'R-3m'
_cell_length_a       7.91409
_cell_length_b       7.91409
_cell_length_c       7.91409
_cell_angle_alpha    43.2146
_cell_angle_beta     43.2146
_cell_angle_gamma    43.2147

_symmetry_Int_Tables_number  166
_chemical_formula_structural  Ba3As2O8
_chemical_formula_sum  Ba3As2O8
_cell_volume  210.74530255320795
_cell_formula_units_Z  1
loop_
  _symmetry_equiv_pos_site_id
 _symmetry_equiv_pos_as_xyz
 1  'x, y, z'
loop_
 _atom_site_type_symbol
 _atom_site_label
 _atom_site_symmetry_multiplicity
 _atom_site_fract_x
 _atom_site_fract_y
 _atom_site_fract_z
 _atom_site_fract_occupancy
 As  As1  1  0.59258  0.59258  0.59258  1
 As  As2  1  0.40742  0.40742  0.40742  1
 Ba  Ba1  1  0.79409  0.79409  0.79409  1
 Ba  Ba2  1  0.20591  0.20591  0.20591  1
 Ba  Ba3  1  0.00000  0.00000  0.00000  1
 O  O1  1  0.67240  0.67240  0.67240  1
 O  O2  1  0.32760  0.32760  0.32760  1
 O  O3  1  0.72658  0.72658  0.24314  1
 O  O4  1  0.72658  0.24314  0.72658  1
 O  O5  1  0.24314  0.72658  0.72658  1
 O  O6  1  0.27342  0.75686  0.27342  1
 O  O7  1  0.27342  0.27342  0.75686  1
 O  O8  1  0.75686  0.27342  0.27342  1
