CIF file written using JARVIS-Tools package.
data_AlFe2S4
_symmetry_space_group_name_H-M  'Imm2'
_cell_length_a       6.83748
_cell_length_b       6.83753
_cell_length_c       6.83766
_cell_angle_alpha    118.317
_cell_angle_beta     119.012
_cell_angle_gamma    92.3286

_symmetry_Int_Tables_number  44
_chemical_formula_structural  AlFe2S4
_chemical_formula_sum  Al2Fe4S8
_cell_volume  230.39165880856473
_cell_formula_units_Z  2
loop_
  _symmetry_equiv_pos_site_id
 _symmetry_equiv_pos_as_xyz
 1  'x, y, z'
loop_
 _atom_site_type_symbol
 _atom_site_label
 _atom_site_symmetry_multiplicity
 _atom_site_fract_x
 _atom_site_fract_y
 _atom_site_fract_z
 _atom_site_fract_occupancy
 Al  Al1  1  0.00749  0.02765  0.02015  1
 Al  Al2  1  0.00750  0.48738  0.47989  1
 Fe  Fe1  1  0.97916  -0.00975  0.48887  1
 Fe  Fe2  1  0.51051  -0.04146  0.44801  1
 Fe  Fe3  1  0.50139  -0.00972  0.01112  1
 Fe  Fe4  1  0.51050  0.56245  0.05194  1
 S  S1  1  0.75281  0.77534  0.02253  1
 S  S2  1  0.76988  0.74891  0.52098  1
 S  S3  1  0.75280  0.23027  0.47746  1
 S  S4  1  0.73805  0.23786  0.00028  1
 S  S5  1  0.25220  0.78686  0.53467  1
 S  S6  1  0.23757  0.23780  0.49976  1
 S  S7  1  0.22794  0.74894  -0.02099  1
 S  S8  1  0.25215  0.21748  -0.03471  1
