CIF file written using JARVIS-Tools package.
data_Ca2PdRh
_symmetry_space_group_name_H-M  'Immm'
_cell_length_a       10.2878
_cell_length_b       6.03426
_cell_length_c       6.03427
_cell_angle_alpha    30.1808
_cell_angle_beta     31.5206
_cell_angle_gamma    31.5206

_symmetry_Int_Tables_number  71
_chemical_formula_structural  Ca2PdRh
_chemical_formula_sum  Ca2PdRh
_cell_volume  88.43110582323008
_cell_formula_units_Z  1
loop_
  _symmetry_equiv_pos_site_id
 _symmetry_equiv_pos_as_xyz
 1  'x, y, z'
loop_
 _atom_site_type_symbol
 _atom_site_label
 _atom_site_symmetry_multiplicity
 _atom_site_fract_x
 _atom_site_fract_y
 _atom_site_fract_z
 _atom_site_fract_occupancy
 Ca  Ca1  1  0.75462  0.00000  0.00000  1
 Ca  Ca2  1  0.24538  -0.00000  -0.00000  1
 Pd  Pd1  1  0.50000  0.00000  0.00000  1
 Rh  Rh1  1  0.00000  0.00000  0.00000  1
