CIF file written using JARVIS-Tools package.
data_ZnSnO3
_symmetry_space_group_name_H-M  'R-3'
_cell_length_a       5.65151
_cell_length_b       5.65151
_cell_length_c       5.65151
_cell_angle_alpha    56.7172
_cell_angle_beta     56.7173
_cell_angle_gamma    56.7172

_symmetry_Int_Tables_number  148
_chemical_formula_structural  ZnSnO3
_chemical_formula_sum  Zn2Sn2O6
_cell_volume  117.96253665261455
_cell_formula_units_Z  2
loop_
  _symmetry_equiv_pos_site_id
 _symmetry_equiv_pos_as_xyz
 1  'x, y, z'
loop_
 _atom_site_type_symbol
 _atom_site_label
 _atom_site_symmetry_multiplicity
 _atom_site_fract_x
 _atom_site_fract_y
 _atom_site_fract_z
 _atom_site_fract_occupancy
 O  O1  1  0.05004  0.75856  0.44623  1
 O  O2  1  0.75856  0.44623  0.05004  1
 O  O3  1  0.44623  0.05004  0.75856  1
 O  O4  1  0.94996  0.24144  0.55377  1
 O  O5  1  0.55377  0.94996  0.24144  1
 O  O6  1  0.24144  0.55377  0.94996  1
 Sn  Sn1  1  0.14911  0.14911  0.14911  1
 Sn  Sn2  1  0.85089  0.85089  0.85089  1
 Zn  Zn1  1  0.36616  0.36616  0.36616  1
 Zn  Zn2  1  0.63384  0.63384  0.63384  1
