CIF file written using JARVIS-Tools package.
data_ZnBi2O4
_symmetry_space_group_name_H-M  'C2/c'
_cell_length_a       3.53917
_cell_length_b       6.36404
_cell_length_c       10.3709
_cell_angle_alpha    98.5721
_cell_angle_beta     99.8263
_cell_angle_gamma    106.145

_symmetry_Int_Tables_number  15
_chemical_formula_structural  ZnBi2O4
_chemical_formula_sum  Zn2Bi4O8
_cell_volume  216.2652485921259
_cell_formula_units_Z  2
loop_
  _symmetry_equiv_pos_site_id
 _symmetry_equiv_pos_as_xyz
 1  'x, y, z'
loop_
 _atom_site_type_symbol
 _atom_site_label
 _atom_site_symmetry_multiplicity
 _atom_site_fract_x
 _atom_site_fract_y
 _atom_site_fract_z
 _atom_site_fract_occupancy
 Bi  Bi1  1  0.66618  0.28935  0.07654  1
 Bi  Bi2  1  0.70751  0.78925  0.57646  1
 Bi  Bi3  1  0.27294  0.17769  0.40166  1
 Bi  Bi4  1  0.31426  0.67758  0.90157  1
 O  O1  1  0.67901  0.55431  0.76286  1
 O  O2  1  0.64621  0.05451  0.26293  1
 O  O3  1  0.33423  0.91243  0.71519  1
 O  O4  1  0.30143  0.41262  0.21525  1
 O  O5  1  0.10705  0.31844  0.90439  1
 O  O6  1  0.12370  0.81852  0.40436  1
 O  O7  1  0.87340  0.64850  0.07373  1
 O  O8  1  0.85674  0.14842  0.57375  1
 Zn  Zn1  1  0.35961  0.73356  0.23904  1
 Zn  Zn2  1  0.62083  0.23338  0.73908  1
