CIF file written using JARVIS-Tools package.
data_ZnCo2O4
_symmetry_space_group_name_H-M  'Pnma'
_cell_length_a       8.75085
_cell_length_b       2.82403
_cell_length_c       10.0239
_cell_angle_alpha    90
_cell_angle_beta     89.9992
_cell_angle_gamma    90

_symmetry_Int_Tables_number  62
_chemical_formula_structural  ZnCo2O4
_chemical_formula_sum  Zn4Co8O6
_cell_volume  247.716421501975
_cell_formula_units_Z  4
loop_
  _symmetry_equiv_pos_site_id
 _symmetry_equiv_pos_as_xyz
 1  'x, y, z'
loop_
 _atom_site_type_symbol
 _atom_site_label
 _atom_site_symmetry_multiplicity
 _atom_site_fract_x
 _atom_site_fract_y
 _atom_site_fract_z
 _atom_site_fract_occupancy
 Co  Co1  1  0.09631  0.00000  0.40278  1
 Co  Co2  1  0.04892  0.00000  0.88212  1
 Co  Co3  1  0.95108  0.50000  0.11789  1
 Co  Co4  1  0.45108  0.50000  0.38211  1
 Co  Co5  1  0.54892  0.00000  0.61788  1
 Co  Co6  1  0.40369  0.50000  0.90277  1
 Co  Co7  1  0.90368  0.50000  0.59723  1
 Co  Co8  1  0.59632  0.00000  0.09722  1
 O  O1  1  0.06455  0.50000  0.28343  1
 O  O2  1  0.93545  0.00000  0.71657  1
 O  O3  1  0.40959  0.50000  0.56752  1
 O  O4  1  0.80946  0.00000  0.16494  1
 O  O5  1  0.59041  0.00000  0.43247  1
 O  O6  1  0.30946  0.00000  0.33506  1
 O  O7  1  0.09041  0.00000  0.06753  1
 O  O8  1  0.90960  0.50000  0.93248  1
 O  O9  1  0.56455  0.50000  0.21656  1
 O  O10  1  0.69054  0.50000  0.66494  1
 O  O11  1  0.88711  0.00000  0.45847  1
 O  O12  1  0.11289  0.50000  0.54154  1
 O  O13  1  0.19054  0.50000  0.83506  1
 O  O14  1  0.43545  0.00000  0.78343  1
 O  O15  1  0.38711  0.00000  0.04153  1
 O  O16  1  0.61289  0.50000  0.95846  1
 Zn  Zn1  1  0.73751  0.00000  0.83868  1
 Zn  Zn2  1  0.26249  0.50000  0.16132  1
 Zn  Zn3  1  0.23750  0.00000  0.66132  1
 Zn  Zn4  1  0.76249  0.50000  0.33868  1
