CIF file written using JARVIS-Tools package.
data_Li2SnPb
_symmetry_space_group_name_H-M  'I4/mmm'
_cell_length_a       12.2215
_cell_length_b       8.39263
_cell_length_c       8.39262
_cell_angle_alpha    32.5165
_cell_angle_beta     19.4099
_cell_angle_gamma    19.4099

_symmetry_Int_Tables_number  139
_chemical_formula_structural  Li2SnPb
_chemical_formula_sum  Li2SnPb
_cell_volume  86.30241900008218
_cell_formula_units_Z  1
loop_
  _symmetry_equiv_pos_site_id
 _symmetry_equiv_pos_as_xyz
 1  'x, y, z'
loop_
 _atom_site_type_symbol
 _atom_site_label
 _atom_site_symmetry_multiplicity
 _atom_site_fract_x
 _atom_site_fract_y
 _atom_site_fract_z
 _atom_site_fract_occupancy
 Li  Li1  1  0.75003  -0.00006  -0.00006  1
 Li  Li2  1  0.24997  0.00006  0.00006  1
 Pb  Pb1  1  0.50000  -0.00000  -0.00000  1
 Sn  Sn1  1  0.00000  0.00000  0.00000  1
