CIF file written using JARVIS-Tools package.
data_ZnGaPd2
_symmetry_space_group_name_H-M  'Immm'
_cell_length_a       9.60126
_cell_length_b       10.2215
_cell_length_c       10.2215
_cell_angle_alpha    61.3016
_cell_angle_beta     61.9876
_cell_angle_gamma    61.9877

_symmetry_Int_Tables_number  71
_chemical_formula_structural  ZnGaPd2
_chemical_formula_sum  ZnGaPd2
_cell_volume  737.2032539743304
_cell_formula_units_Z  1
loop_
  _symmetry_equiv_pos_site_id
 _symmetry_equiv_pos_as_xyz
 1  'x, y, z'
loop_
 _atom_site_type_symbol
 _atom_site_label
 _atom_site_symmetry_multiplicity
 _atom_site_fract_x
 _atom_site_fract_y
 _atom_site_fract_z
 _atom_site_fract_occupancy
 Ga  Ga1  1  0.50000  -0.00000  -0.00000  1
 Pd  Pd1  1  0.74201  -0.00000  -0.00000  1
 Pd  Pd2  1  0.25799  0.00000  0.00000  1
 Zn  Zn1  1  0.00000  0.00000  0.00000  1
