CIF file written using JARVIS-Tools package.
data_CdRh2Pb
_symmetry_space_group_name_H-M  'C2/m'
_cell_length_a       11.0759
_cell_length_b       7.85734
_cell_length_c       7.85709
_cell_angle_alpha    23.5988
_cell_angle_beta     19.6617
_cell_angle_gamma    19.6615

_symmetry_Int_Tables_number  12
_chemical_formula_structural  CdRh2Pb
_chemical_formula_sum  CdRh2Pb
_cell_volume  74.7204699343603
_cell_formula_units_Z  1
loop_
  _symmetry_equiv_pos_site_id
 _symmetry_equiv_pos_as_xyz
 1  'x, y, z'
loop_
 _atom_site_type_symbol
 _atom_site_label
 _atom_site_symmetry_multiplicity
 _atom_site_fract_x
 _atom_site_fract_y
 _atom_site_fract_z
 _atom_site_fract_occupancy
 Cd  Cd1  1  1.00000  0.00000  0.00000  1
 Pb  Pb1  1  0.50000  0.00000  0.00000  1
 Rh  Rh1  1  0.74828  0.00207  0.00207  1
 Rh  Rh2  1  0.25172  0.99793  0.99793  1
