CIF file written using JARVIS-Tools package.
data_K2S3
_symmetry_space_group_name_H-M  'Cmc2_1'
_cell_length_a       6.17118
_cell_length_b       6.17117
_cell_length_c       7.34435
_cell_angle_alpha    90
_cell_angle_beta     90
_cell_angle_gamma    107.65

_symmetry_Int_Tables_number  36
_chemical_formula_structural  K2S3
_chemical_formula_sum  K4S6
_cell_volume  266.53093687316357
_cell_formula_units_Z  2
loop_
  _symmetry_equiv_pos_site_id
 _symmetry_equiv_pos_as_xyz
 1  'x, y, z'
loop_
 _atom_site_type_symbol
 _atom_site_label
 _atom_site_symmetry_multiplicity
 _atom_site_fract_x
 _atom_site_fract_y
 _atom_site_fract_z
 _atom_site_fract_occupancy
 K  K1  1  0.42303  0.57697  0.65973  1
 K  K2  1  0.57697  0.42303  0.15973  1
 K  K3  1  0.89467  0.10533  0.38648  1
 K  K4  1  0.10533  0.89467  0.88648  1
 S  S1  1  0.38901  0.07291  0.50229  1
 S  S2  1  0.61099  0.92709  0.00229  1
 S  S3  1  0.92709  0.61099  0.50229  1
 S  S4  1  0.07291  0.38901  0.00229  1
 S  S5  1  0.79565  0.20435  0.83990  1
 S  S6  1  0.20435  0.79565  0.33990  1
