CIF file written using JARVIS-Tools package.
data_CdCu2SiS4
_symmetry_space_group_name_H-M  'Pmn2_1'
_cell_length_a       6.29831
_cell_length_b       6.49561
_cell_length_c       7.65622
_cell_angle_alpha    90
_cell_angle_beta     90
_cell_angle_gamma    90

_symmetry_Int_Tables_number  31
_chemical_formula_structural  CdCu2SiS4
_chemical_formula_sum  Cd2Cu4Si2S8
_cell_volume  313.2263839236717
_cell_formula_units_Z  2
loop_
  _symmetry_equiv_pos_site_id
 _symmetry_equiv_pos_as_xyz
 1  'x, y, z'
loop_
 _atom_site_type_symbol
 _atom_site_label
 _atom_site_symmetry_multiplicity
 _atom_site_fract_x
 _atom_site_fract_y
 _atom_site_fract_z
 _atom_site_fract_occupancy
 Cd  Cd1  1  0.12699  0.65224  0.00000  1
 Cd  Cd2  1  0.62699  0.34776  0.50000  1
 Cu  Cu1  1  0.13051  0.17578  0.74835  1
 Cu  Cu2  1  0.63051  0.82422  0.75165  1
 Cu  Cu3  1  0.13051  0.17578  0.25165  1
 Cu  Cu4  1  0.63051  0.82422  0.24835  1
 S  S1  1  0.03269  0.35936  0.50000  1
 S  S2  1  0.46491  0.70792  0.50000  1
 S  S3  1  0.96491  0.29208  0.00000  1
 S  S4  1  0.49574  0.15949  0.22419  1
 S  S5  1  0.49574  0.15949  0.77581  1
 S  S6  1  0.99574  0.84051  0.72419  1
 S  S7  1  0.53269  0.64064  0.00000  1
 S  S8  1  0.99574  0.84051  0.27581  1
 Si  Si1  1  0.12291  0.68051  0.50000  1
 Si  Si2  1  0.62291  0.31949  0.00000  1
