CIF file written using JARVIS-Tools package.
data_SrLuCuSe3
_symmetry_space_group_name_H-M  'Cmcm'
_cell_length_a       4.04864
_cell_length_b       7.04249
_cell_length_c       10.3946
_cell_angle_alpha    90
_cell_angle_beta     90
_cell_angle_gamma    106.705

_symmetry_Int_Tables_number  63
_chemical_formula_structural  SrLuCuSe3
_chemical_formula_sum  Sr2Lu2Cu2Se6
_cell_volume  283.8680513319425
_cell_formula_units_Z  2
loop_
  _symmetry_equiv_pos_site_id
 _symmetry_equiv_pos_as_xyz
 1  'x, y, z'
loop_
 _atom_site_type_symbol
 _atom_site_label
 _atom_site_symmetry_multiplicity
 _atom_site_fract_x
 _atom_site_fract_y
 _atom_site_fract_z
 _atom_site_fract_occupancy
 Cu  Cu1  1  0.47045  0.94090  0.75000  1
 Cu  Cu2  1  0.52955  0.05910  0.25000  1
 Lu  Lu1  1  0.00000  0.00000  0.00000  1
 Lu  Lu2  1  0.00000  0.00000  0.50000  1
 Se  Se1  1  0.63834  0.27668  0.43966  1
 Se  Se2  1  0.07837  0.15674  0.75000  1
 Se  Se3  1  0.36166  0.72332  0.93966  1
 Se  Se4  1  0.63834  0.27668  0.06034  1
 Se  Se5  1  0.92163  0.84326  0.25000  1
 Se  Se6  1  0.36166  0.72332  0.56034  1
 Sr  Sr1  1  0.24813  0.49626  0.25000  1
 Sr  Sr2  1  0.75187  0.50374  0.75000  1
