CIF file written using JARVIS-Tools package.
data_BaSnS2
_symmetry_space_group_name_H-M  'P2_1/c'
_cell_length_a       6.15386
_cell_length_b       12.3019
_cell_length_c       6.30773
_cell_angle_alpha    90
_cell_angle_beta     96.0309
_cell_angle_gamma    90

_symmetry_Int_Tables_number  14
_chemical_formula_structural  BaSnS2
_chemical_formula_sum  Ba4Sn4S8
_cell_volume  474.87767224218044
_cell_formula_units_Z  4
loop_
  _symmetry_equiv_pos_site_id
 _symmetry_equiv_pos_as_xyz
 1  'x, y, z'
loop_
 _atom_site_type_symbol
 _atom_site_label
 _atom_site_symmetry_multiplicity
 _atom_site_fract_x
 _atom_site_fract_y
 _atom_site_fract_z
 _atom_site_fract_occupancy
 Ba  Ba1  1  0.05563  0.87848  0.76111  1
 Ba  Ba2  1  0.94437  0.37848  0.73889  1
 Ba  Ba3  1  0.94437  0.12152  0.23889  1
 Ba  Ba4  1  0.05563  0.62152  0.26111  1
 S  S1  1  0.56617  0.83981  0.88279  1
 S  S2  1  0.43383  0.33981  0.61721  1
 S  S3  1  0.43383  0.16019  0.11721  1
 S  S4  1  0.56617  0.66019  0.38279  1
 S  S5  1  0.11657  0.62332  0.76706  1
 S  S6  1  0.11657  0.87668  0.26706  1
 S  S7  1  0.88343  0.37668  0.23294  1
 S  S8  1  0.88343  0.12332  0.73294  1
 Sn  Sn1  1  0.53772  0.86974  0.29527  1
 Sn  Sn2  1  0.46228  0.13026  0.70473  1
 Sn  Sn3  1  0.46228  0.36974  0.20473  1
 Sn  Sn4  1  0.53772  0.63026  0.79527  1
