CIF file written using JARVIS-Tools package.
data_LiAg
_symmetry_space_group_name_H-M  'I4_1/amd'
_cell_length_a       3.92075
_cell_length_b       3.92075
_cell_length_c       5.01043
_cell_angle_alpha    113.033
_cell_angle_beta     113.033
_cell_angle_gamma    90

_symmetry_Int_Tables_number  141
_chemical_formula_structural  LiAg
_chemical_formula_sum  Li2Ag2
_cell_volume  64.15645916769535
_cell_formula_units_Z  2
loop_
  _symmetry_equiv_pos_site_id
 _symmetry_equiv_pos_as_xyz
 1  'x, y, z'
loop_
 _atom_site_type_symbol
 _atom_site_label
 _atom_site_symmetry_multiplicity
 _atom_site_fract_x
 _atom_site_fract_y
 _atom_site_fract_z
 _atom_site_fract_occupancy
 Ag  Ag1  1  0.25000  0.75000  0.50000  1
 Ag  Ag2  1  0.00000  0.00000  0.00000  1
 Li  Li1  1  0.75000  0.25000  0.50000  1
 Li  Li2  1  0.50000  0.50000  0.00000  1
