CIF file written using JARVIS-Tools package.
data_La5B2N6
_symmetry_space_group_name_H-M  'C2/m'
_cell_length_a       3.69951
_cell_length_b       6.55355
_cell_length_c       9.05337
_cell_angle_alpha    104.955
_cell_angle_beta     90
_cell_angle_gamma    106.395

_symmetry_Int_Tables_number  12
_chemical_formula_structural  La5B2N6
_chemical_formula_sum  La5B2N6
_cell_volume  202.81150375288655
_cell_formula_units_Z  1
loop_
  _symmetry_equiv_pos_site_id
 _symmetry_equiv_pos_as_xyz
 1  'x, y, z'
loop_
 _atom_site_type_symbol
 _atom_site_label
 _atom_site_symmetry_multiplicity
 _atom_site_fract_x
 _atom_site_fract_y
 _atom_site_fract_z
 _atom_site_fract_occupancy
 B  B1  1  0.94552  0.89104  0.41120  1
 B  B2  1  0.05448  0.10896  0.58880  1
 La  La1  1  0.37482  0.74964  0.62673  1
 La  La2  1  0.69171  0.38343  0.81836  1
 La  La3  1  0.00000  0.00000  0.00000  1
 La  La4  1  0.30829  0.61657  0.18164  1
 La  La5  1  0.62518  0.25036  0.37327  1
 N  N1  1  0.97423  0.94846  0.26362  1
 N  N2  1  0.65631  0.31262  0.07948  1
 N  N3  1  0.17066  0.34132  0.58272  1
 N  N4  1  0.02577  0.05154  0.73638  1
 N  N5  1  0.34369  0.68738  0.92052  1
 N  N6  1  0.82934  0.65868  0.41728  1
