CIF file written using JARVIS-Tools package.
data_YCuS2
_symmetry_space_group_name_H-M  'Pnma'
_cell_length_a       3.96177
_cell_length_b       6.27159
_cell_length_c       13.4283
_cell_angle_alpha    90
_cell_angle_beta     90
_cell_angle_gamma    90

_symmetry_Int_Tables_number  62
_chemical_formula_structural  YCuS2
_chemical_formula_sum  Y4Cu4S8
_cell_volume  333.64666922019427
_cell_formula_units_Z  4
loop_
  _symmetry_equiv_pos_site_id
 _symmetry_equiv_pos_as_xyz
 1  'x, y, z'
loop_
 _atom_site_type_symbol
 _atom_site_label
 _atom_site_symmetry_multiplicity
 _atom_site_fract_x
 _atom_site_fract_y
 _atom_site_fract_z
 _atom_site_fract_occupancy
 Cu  Cu1  1  0.25000  0.12181  0.95326  1
 Cu  Cu2  1  0.75000  0.62181  0.54674  1
 Cu  Cu3  1  0.75000  0.87819  0.04674  1
 Cu  Cu4  1  0.25000  0.37819  0.45326  1
 S  S1  1  0.25000  0.26127  0.79447  1
 S  S2  1  0.75000  0.73873  0.20553  1
 S  S3  1  0.75000  0.76127  0.70553  1
 S  S4  1  0.25000  0.23873  0.29447  1
 S  S5  1  0.25000  0.74466  0.96000  1
 S  S6  1  0.25000  0.75534  0.46000  1
 S  S7  1  0.75000  0.24466  0.54000  1
 S  S8  1  0.75000  0.25534  0.04000  1
 Y  Y1  1  0.25000  0.49933  0.13376  1
 Y  Y2  1  0.75000  0.50067  0.86624  1
 Y  Y3  1  0.75000  -0.00067  0.36624  1
 Y  Y4  1  0.25000  0.00067  0.63376  1
