CIF file written using JARVIS-Tools package.
data_Li2RhAu
_symmetry_space_group_name_H-M  'Immm'
_cell_length_a       9.50612
_cell_length_b       5.48372
_cell_length_c       5.48371
_cell_angle_alpha    30.275
_cell_angle_beta     29.9158
_cell_angle_gamma    29.9159

_symmetry_Int_Tables_number  71
_chemical_formula_structural  Li2RhAu
_chemical_formula_sum  Li2RhAu
_cell_volume  63.43567672901156
_cell_formula_units_Z  1
loop_
  _symmetry_equiv_pos_site_id
 _symmetry_equiv_pos_as_xyz
 1  'x, y, z'
loop_
 _atom_site_type_symbol
 _atom_site_label
 _atom_site_symmetry_multiplicity
 _atom_site_fract_x
 _atom_site_fract_y
 _atom_site_fract_z
 _atom_site_fract_occupancy
 Au  Au1  1  0.50000  0.00000  0.00000  1
 Li  Li1  1  0.75505  0.00000  -0.00000  1
 Li  Li2  1  0.24495  -0.00000  0.00000  1
 Rh  Rh1  1  0.00000  0.00000  0.00000  1
