CIF file written using JARVIS-Tools package.
data_Ba2Sn3O7
_symmetry_space_group_name_H-M  'Pmm2'
_cell_length_a       3.98088
_cell_length_b       3.79361
_cell_length_c       13.8539
_cell_angle_alpha    89.9949
_cell_angle_beta     89.9998
_cell_angle_gamma    89.9999

_symmetry_Int_Tables_number  25
_chemical_formula_structural  Ba2Sn3O7
_chemical_formula_sum  Ba2Sn3O7
_cell_volume  209.21947326830156
_cell_formula_units_Z  1
loop_
  _symmetry_equiv_pos_site_id
 _symmetry_equiv_pos_as_xyz
 1  'x, y, z'
loop_
 _atom_site_type_symbol
 _atom_site_label
 _atom_site_symmetry_multiplicity
 _atom_site_fract_x
 _atom_site_fract_y
 _atom_site_fract_z
 _atom_site_fract_occupancy
 Ba  Ba1  1  0.46164  0.49971  0.20826  1
 Ba  Ba2  1  0.46169  0.50005  0.79140  1
 O  O1  1  0.32672  0.49989  -0.00017  1
 O  O2  1  0.46226  -0.00035  0.34819  1
 O  O3  1  0.46230  0.00013  0.65146  1
 O  O4  1  0.96234  0.49969  0.33656  1
 O  O5  1  -0.03762  0.50009  0.66311  1
 O  O6  1  0.93475  -0.00021  0.13437  1
 O  O7  1  0.93483  -0.00004  0.86528  1
 Sn  Sn1  1  -0.03783  -0.00034  0.39714  1
 Sn  Sn2  1  0.96221  0.00011  0.60251  1
 Sn  Sn3  1  0.08106  -0.00012  -0.00017  1
