CIF file written using JARVIS-Tools package.
data_Y2HfO5
_symmetry_space_group_name_H-M  'C2/c'
_cell_length_a       5.49196
_cell_length_b       6.51802
_cell_length_c       7.64197
_cell_angle_alpha    68.7214
_cell_angle_beta     90
_cell_angle_gamma    65.0839

_symmetry_Int_Tables_number  15
_chemical_formula_structural  Y2HfO5
_chemical_formula_sum  Y4Hf2O0
_cell_volume  227.36797361821834
_cell_formula_units_Z  2
loop_
  _symmetry_equiv_pos_site_id
 _symmetry_equiv_pos_as_xyz
 1  'x, y, z'
loop_
 _atom_site_type_symbol
 _atom_site_label
 _atom_site_symmetry_multiplicity
 _atom_site_fract_x
 _atom_site_fract_y
 _atom_site_fract_z
 _atom_site_fract_occupancy
 Hf  Hf1  1  -0.00000  0.00000  0.50000  1
 Hf  Hf2  1  0.00000  0.00000  0.00000  1
 O  O1  1  0.75000  0.84939  0.95799  1
 O  O2  1  0.40061  0.84939  0.45799  1
 O  O3  1  0.01800  0.65268  0.64469  1
 O  O4  1  0.67069  0.34732  0.85531  1
 O  O5  1  0.32931  0.65268  0.14469  1
 O  O6  1  0.98200  0.34732  0.35531  1
 O  O7  1  0.59939  0.15061  0.54201  1
 O  O8  1  0.17627  -0.00000  0.75000  1
 O  O9  1  0.25000  0.15061  0.04201  1
 O  O10  1  0.82373  0.00000  0.25000  1
 Y  Y1  1  0.63275  0.71941  0.75439  1
 Y  Y2  1  0.64784  0.71941  0.25439  1
 Y  Y3  1  0.35216  0.28059  0.74561  1
 Y  Y4  1  0.36725  0.28059  0.24561  1
