CIF file written using JARVIS-Tools package.
data_LuAlO3
_symmetry_space_group_name_H-M  'Pnma'
_cell_length_a       5.09752
_cell_length_b       5.35267
_cell_length_c       7.32471
_cell_angle_alpha    90
_cell_angle_beta     90
_cell_angle_gamma    90

_symmetry_Int_Tables_number  62
_chemical_formula_structural  LuAlO3
_chemical_formula_sum  Lu4Al4O2
_cell_volume  199.85710849527558
_cell_formula_units_Z  4
loop_
  _symmetry_equiv_pos_site_id
 _symmetry_equiv_pos_as_xyz
 1  'x, y, z'
loop_
 _atom_site_type_symbol
 _atom_site_label
 _atom_site_symmetry_multiplicity
 _atom_site_fract_x
 _atom_site_fract_y
 _atom_site_fract_z
 _atom_site_fract_occupancy
 Al  Al1  1  0.00000  0.50000  0.00000  1
 Al  Al2  1  0.00000  0.50000  0.50000  1
 Al  Al3  1  0.50000  0.00000  0.00000  1
 Al  Al4  1  0.50000  0.00000  0.50000  1
 Lu  Lu1  1  0.01690  0.93475  0.75000  1
 Lu  Lu2  1  0.48310  0.43475  0.75000  1
 Lu  Lu3  1  0.51690  0.56525  0.25000  1
 Lu  Lu4  1  0.98310  0.06525  0.25000  1
 O  O1  1  0.10165  0.46799  0.25000  1
 O  O2  1  0.80308  0.80088  0.44748  1
 O  O3  1  0.19692  0.19912  0.94748  1
 O  O4  1  0.30308  0.69912  0.94748  1
 O  O5  1  0.19692  0.19912  0.55252  1
 O  O6  1  0.69692  0.30088  0.44748  1
 O  O7  1  0.60165  0.03201  0.75000  1
 O  O8  1  0.69692  0.30088  0.05252  1
 O  O9  1  0.30308  0.69912  0.55252  1
 O  O10  1  0.80308  0.80088  0.05252  1
 O  O11  1  0.39835  0.96799  0.25000  1
 O  O12  1  0.89835  0.53201  0.75000  1
