CIF file written using JARVIS-Tools package.
data_Mg2CoSbO6
_symmetry_space_group_name_H-M  'P2_1/m'
_cell_length_a       5.0415
_cell_length_b       7.57542
_cell_length_c       5.27428
_cell_angle_alpha    90
_cell_angle_beta     90.2958
_cell_angle_gamma    90

_symmetry_Int_Tables_number  11
_chemical_formula_structural  Mg2CoSbO6
_chemical_formula_sum  Mg4Co2Sb2O2
_cell_volume  201.42967814008927
_cell_formula_units_Z  2
loop_
  _symmetry_equiv_pos_site_id
 _symmetry_equiv_pos_as_xyz
 1  'x, y, z'
loop_
 _atom_site_type_symbol
 _atom_site_label
 _atom_site_symmetry_multiplicity
 _atom_site_fract_x
 _atom_site_fract_y
 _atom_site_fract_z
 _atom_site_fract_occupancy
 Co  Co1  1  0.50000  0.50000  -0.00000  1
 Co  Co2  1  0.50000  0.00000  -0.00000  1
 Mg  Mg1  1  0.47859  0.75000  0.41920  1
 Mg  Mg2  1  0.52141  0.25000  0.58080  1
 Mg  Mg3  1  0.01940  0.75000  0.95080  1
 Mg  Mg4  1  -0.01940  0.25000  0.04920  1
 O  O1  1  0.68004  0.42698  0.30695  1
 O  O2  1  0.86026  0.75000  0.56686  1
 O  O3  1  0.31996  0.92698  0.69305  1
 O  O4  1  0.19162  0.57327  0.18950  1
 O  O5  1  0.80838  0.07327  0.81050  1
 O  O6  1  0.19162  0.92673  0.18950  1
 O  O7  1  0.63557  0.75000  0.06466  1
 O  O8  1  0.68004  0.07302  0.30695  1
 O  O9  1  0.80838  0.42673  0.81050  1
 O  O10  1  0.31996  0.57302  0.69305  1
 O  O11  1  0.13974  0.25000  0.43314  1
 O  O12  1  0.36443  0.25000  0.93534  1
 Sb  Sb1  1  0.00000  0.00000  0.50000  1
 Sb  Sb2  1  0.00000  0.50000  0.50000  1
