CIF file written using JARVIS-Tools package.
data_K3Rh
_symmetry_space_group_name_H-M  'P-3m1'
_cell_length_a       5.64999
_cell_length_b       5.64941
_cell_length_c       6.27366
_cell_angle_alpha    90
_cell_angle_beta     89.973
_cell_angle_gamma    119.997

_symmetry_Int_Tables_number  164
_chemical_formula_structural  K3Rh
_chemical_formula_sum  K3Rh
_cell_volume  173.4274220616
_cell_formula_units_Z  1
loop_
  _symmetry_equiv_pos_site_id
 _symmetry_equiv_pos_as_xyz
 1  'x, y, z'
loop_
 _atom_site_type_symbol
 _atom_site_label
 _atom_site_symmetry_multiplicity
 _atom_site_fract_x
 _atom_site_fract_y
 _atom_site_fract_z
 _atom_site_fract_occupancy
 K  K1  1  0.00000  0.00000  0.50000  1
 K  K2  1  0.66678  0.33339  0.89104  1
 K  K3  1  0.33322  0.66661  0.10896  1
 Rh  Rh1  1  0.00000  0.00000  0.00000  1
