CIF file written using JARVIS-Tools package.
data_K2Se3
_symmetry_space_group_name_H-M  'Cmc2_1'
_cell_length_a       6.46479
_cell_length_b       6.46479
_cell_length_c       7.56624
_cell_angle_alpha    90
_cell_angle_beta     90
_cell_angle_gamma    107.518

_symmetry_Int_Tables_number  36
_chemical_formula_structural  K2Se3
_chemical_formula_sum  K4Se6
_cell_volume  301.5540453375815
_cell_formula_units_Z  2
loop_
  _symmetry_equiv_pos_site_id
 _symmetry_equiv_pos_as_xyz
 1  'x, y, z'
loop_
 _atom_site_type_symbol
 _atom_site_label
 _atom_site_symmetry_multiplicity
 _atom_site_fract_x
 _atom_site_fract_y
 _atom_site_fract_z
 _atom_site_fract_occupancy
 K  K1  1  0.09876  0.90124  0.87156  1
 K  K2  1  0.90124  0.09876  0.37156  1
 K  K3  1  0.58499  0.41501  0.15126  1
 K  K4  1  0.41501  0.58499  0.65126  1
 Se  Se1  1  0.78893  0.21107  0.81209  1
 Se  Se2  1  0.21107  0.78893  0.31209  1
 Se  Se3  1  0.09007  0.40556  0.00145  1
 Se  Se4  1  0.90993  0.59444  0.50145  1
 Se  Se5  1  0.59444  0.90993  0.00145  1
 Se  Se6  1  0.40556  0.09007  0.50145  1
