CIF file written using JARVIS-Tools package.
data_CeSmI4
_symmetry_space_group_name_H-M  'P-1'
_cell_length_a       7.46863
_cell_length_b       8.04138
_cell_length_c       8.80948
_cell_angle_alpha    112.851
_cell_angle_beta     110.483
_cell_angle_gamma    99.3895

_symmetry_Int_Tables_number  2
_chemical_formula_structural  CeSmI4
_chemical_formula_sum  Ce2Sm2I8
_cell_volume  428.4542889456416
_cell_formula_units_Z  2
loop_
  _symmetry_equiv_pos_site_id
 _symmetry_equiv_pos_as_xyz
 1  'x, y, z'
loop_
 _atom_site_type_symbol
 _atom_site_label
 _atom_site_symmetry_multiplicity
 _atom_site_fract_x
 _atom_site_fract_y
 _atom_site_fract_z
 _atom_site_fract_occupancy
 Ce  Ce1  1  0.24227  0.49219  0.98462  1
 Ce  Ce2  1  0.75773  0.50781  0.01538  1
 I  I1  1  0.13168  0.87490  0.12232  1
 I  I2  1  0.49087  0.24763  0.12220  1
 I  I3  1  0.28829  0.18560  0.63115  1
 I  I4  1  0.15706  0.55460  0.36894  1
 I  I5  1  0.84294  0.44540  0.63106  1
 I  I6  1  0.50913  0.75237  0.87780  1
 I  I7  1  0.71171  0.81440  0.36885  1
 I  I8  1  0.86832  0.12510  0.87768  1
 Sm  Sm1  1  0.11561  0.86571  0.73098  1
 Sm  Sm2  1  0.88439  0.13429  0.26902  1
