CIF file written using JARVIS-Tools package.
data_AgF2
_symmetry_space_group_name_H-M  'Pbca'
_cell_length_a       5.2415
_cell_length_b       5.66398
_cell_length_c       5.72585
_cell_angle_alpha    90
_cell_angle_beta     90
_cell_angle_gamma    90

_symmetry_Int_Tables_number  61
_chemical_formula_structural  AgF2
_chemical_formula_sum  Ag4F8
_cell_volume  169.98765434583865
_cell_formula_units_Z  4
loop_
  _symmetry_equiv_pos_site_id
 _symmetry_equiv_pos_as_xyz
 1  'x, y, z'
loop_
 _atom_site_type_symbol
 _atom_site_label
 _atom_site_symmetry_multiplicity
 _atom_site_fract_x
 _atom_site_fract_y
 _atom_site_fract_z
 _atom_site_fract_occupancy
 Ag  Ag1  1  0.50000  0.00000  0.50000  1
 Ag  Ag2  1  0.00000  0.50000  0.50000  1
 Ag  Ag3  1  0.50000  0.50000  0.00000  1
 Ag  Ag4  1  0.00000  0.00000  0.00000  1
 F  F1  1  0.67989  0.31026  0.62163  1
 F  F2  1  0.17989  0.18974  0.37837  1
 F  F3  1  0.32011  0.81026  0.87837  1
 F  F4  1  0.82011  0.68974  0.12163  1
 F  F5  1  0.17989  0.31026  0.87837  1
 F  F6  1  0.67989  0.18974  0.12163  1
 F  F7  1  0.82011  0.81026  0.62163  1
 F  F8  1  0.32011  0.68974  0.37837  1
