CIF file written using JARVIS-Tools package.
data_Li4TaN3
_symmetry_space_group_name_H-M  'Ibca'
_cell_length_a       4.88847
_cell_length_b       8.90825
_cell_length_c       8.90825
_cell_angle_alpha    65.9115
_cell_angle_beta     74.075
_cell_angle_gamma    74.075

_symmetry_Int_Tables_number  73
_chemical_formula_structural  Li4TaN3
_chemical_formula_sum  Li6Ta4N2
_cell_volume  334.68202464710487
_cell_formula_units_Z  4
loop_
  _symmetry_equiv_pos_site_id
 _symmetry_equiv_pos_as_xyz
 1  'x, y, z'
loop_
 _atom_site_type_symbol
 _atom_site_label
 _atom_site_symmetry_multiplicity
 _atom_site_fract_x
 _atom_site_fract_y
 _atom_site_fract_z
 _atom_site_fract_occupancy
 Li  Li1  1  0.84053  0.25000  0.25000  1
 Li  Li2  1  0.39018  0.62043  0.55023  1
 Li  Li3  1  0.06084  0.87957  0.94977  1
 Li  Li4  1  0.10982  0.44977  0.37957  1
 Li  Li5  1  0.43916  0.05023  0.12043  1
 Li  Li6  1  0.60982  0.37957  0.44977  1
 Li  Li7  1  0.93916  0.12043  0.05023  1
 Li  Li8  1  0.89018  0.55023  0.62043  1
 Li  Li9  1  0.65947  0.75000  0.75000  1
 Li  Li10  1  0.72557  0.02443  0.52443  1
 Li  Li11  1  0.77443  0.47557  0.97557  1
 Li  Li12  1  0.27443  0.97557  0.47557  1
 Li  Li13  1  0.22557  0.52443  0.02443  1
 Li  Li14  1  0.34053  0.25000  0.25000  1
 Li  Li15  1  0.15947  0.75000  0.75000  1
 Li  Li16  1  0.56084  0.94977  0.87957  1
 N  N1  1  0.75000  0.63179  0.36821  1
 N  N2  1  0.25000  0.86821  0.13179  1
 N  N3  1  0.25000  0.36821  0.63179  1
 N  N4  1  0.75000  0.13179  0.86821  1
 N  N5  1  0.65133  0.03974  0.28867  1
 N  N6  1  0.47974  0.46026  0.21133  1
 N  N7  1  0.84867  0.71133  0.96026  1
 N  N8  1  0.52026  0.53974  0.78867  1
 N  N9  1  0.34867  0.96026  0.71133  1
 N  N10  1  0.15133  0.28867  0.03974  1
 N  N11  1  0.02026  0.78867  0.53974  1
 N  N12  1  0.97974  0.21133  0.46026  1
 Ta  Ta1  1  0.58089  0.66911  0.16911  1
 Ta  Ta2  1  0.08089  0.16911  0.66911  1
 Ta  Ta3  1  0.41911  0.33089  0.83089  1
 Ta  Ta4  1  0.91911  0.83089  0.33089  1
