CIF file written using JARVIS-Tools package.
data_Al2HgO4
_symmetry_space_group_name_H-M  'Fd-3m'
_cell_length_a       6.03895
_cell_length_b       6.03902
_cell_length_c       6.03895
_cell_angle_alpha    120
_cell_angle_beta     90
_cell_angle_gamma    60.0004

_symmetry_Int_Tables_number  227
_chemical_formula_structural  Al2HgO4
_chemical_formula_sum  Al4Hg2O8
_cell_volume  155.73270083072677
_cell_formula_units_Z  2
loop_
  _symmetry_equiv_pos_site_id
 _symmetry_equiv_pos_as_xyz
 1  'x, y, z'
loop_
 _atom_site_type_symbol
 _atom_site_label
 _atom_site_symmetry_multiplicity
 _atom_site_fract_x
 _atom_site_fract_y
 _atom_site_fract_z
 _atom_site_fract_occupancy
 Al  Al1  1  0.37500  0.75000  0.37500  1
 Al  Al2  1  0.87500  0.75000  0.37500  1
 Al  Al3  1  0.37500  0.25000  0.87500  1
 Al  Al4  1  0.37500  0.25000  0.37500  1
 Hg  Hg1  1  0.75000  0.50000  0.75000  1
 Hg  Hg2  1  0.00000  0.00000  0.00000  1
 O  O1  1  0.60249  0.79502  0.60250  1
 O  O2  1  0.60249  0.79502  0.19252  1
 O  O3  1  0.14751  0.70498  0.14750  1
 O  O4  1  0.14751  0.70498  0.55748  1
 O  O5  1  0.55748  0.29502  0.14751  1
 O  O6  1  0.14750  0.29502  0.14751  1
 O  O7  1  0.60250  0.20498  0.60249  1
 O  O8  1  0.19252  0.20498  0.60249  1
