CIF file written using JARVIS-Tools package.
data_EuZnGe
_symmetry_space_group_name_H-M  'Pmmm'
_cell_length_a       4.22662
_cell_length_b       7.31889
_cell_length_c       4.08427
_cell_angle_alpha    90
_cell_angle_beta     90
_cell_angle_gamma    90

_symmetry_Int_Tables_number  47
_chemical_formula_structural  EuZnGe
_chemical_formula_sum  Eu2Zn2Ge2
_cell_volume  126.34337365553561
_cell_formula_units_Z  2
loop_
  _symmetry_equiv_pos_site_id
 _symmetry_equiv_pos_as_xyz
 1  'x, y, z'
loop_
 _atom_site_type_symbol
 _atom_site_label
 _atom_site_symmetry_multiplicity
 _atom_site_fract_x
 _atom_site_fract_y
 _atom_site_fract_z
 _atom_site_fract_occupancy
 Eu  Eu1  1  0.00000  0.00000  0.00000  1
 Eu  Eu2  1  0.50000  0.50000  0.00000  1
 Ge  Ge1  1  0.50000  0.82990  0.50000  1
 Ge  Ge2  1  0.50000  0.17010  0.50000  1
 Zn  Zn1  1  0.00000  0.66423  0.50000  1
 Zn  Zn2  1  0.00000  0.33577  0.50000  1
