CIF file written using JARVIS-Tools package.
data_K2SnAs2S6
_symmetry_space_group_name_H-M  'P-3'
_cell_length_a       6.75452
_cell_length_b       6.75452
_cell_length_c       7.19582
_cell_angle_alpha    90
_cell_angle_beta     90
_cell_angle_gamma    120

_symmetry_Int_Tables_number  147
_chemical_formula_structural  K2SnAs2S6
_chemical_formula_sum  K2SnAs2S6
_cell_volume  284.3153099924431
_cell_formula_units_Z  1
loop_
  _symmetry_equiv_pos_site_id
 _symmetry_equiv_pos_as_xyz
 1  'x, y, z'
loop_
 _atom_site_type_symbol
 _atom_site_label
 _atom_site_symmetry_multiplicity
 _atom_site_fract_x
 _atom_site_fract_y
 _atom_site_fract_z
 _atom_site_fract_occupancy
 As  As1  1  0.33333  0.66667  0.93518  1
 As  As2  1  0.66667  0.33333  0.06482  1
 K  K1  1  0.33333  0.66667  0.40353  1
 K  K2  1  0.66667  0.33333  0.59647  1
 S  S1  1  0.10510  0.76702  0.77251  1
 S  S2  1  0.33808  0.10510  0.22749  1
 S  S3  1  0.89490  0.23298  0.22749  1
 S  S4  1  0.76702  0.66192  0.22749  1
 S  S5  1  0.23298  0.33808  0.77251  1
 S  S6  1  0.66192  0.89490  0.77251  1
 Sn  Sn1  1  0.00000  0.00000  0.00000  1
