CIF file written using JARVIS-Tools package.
data_Er2Be2GeO7
_symmetry_space_group_name_H-M  'P-42_1m'
_cell_length_a       7.3856
_cell_length_b       7.3856
_cell_length_c       4.78456
_cell_angle_alpha    90
_cell_angle_beta     90
_cell_angle_gamma    90

_symmetry_Int_Tables_number  113
_chemical_formula_structural  Er2Be2GeO7
_chemical_formula_sum  Er4Be4Ge2O4
_cell_volume  260.9838157997689
_cell_formula_units_Z  2
loop_
  _symmetry_equiv_pos_site_id
 _symmetry_equiv_pos_as_xyz
 1  'x, y, z'
loop_
 _atom_site_type_symbol
 _atom_site_label
 _atom_site_symmetry_multiplicity
 _atom_site_fract_x
 _atom_site_fract_y
 _atom_site_fract_z
 _atom_site_fract_occupancy
 Be  Be1  1  0.36413  0.86413  0.05023  1
 Be  Be2  1  0.86413  0.63587  0.94977  1
 Be  Be3  1  0.63587  0.13587  0.05023  1
 Be  Be4  1  0.13587  0.36413  0.94977  1
 Er  Er1  1  0.65769  0.84231  0.50568  1
 Er  Er2  1  0.15769  0.65769  0.49432  1
 Er  Er3  1  0.84231  0.34231  0.49432  1
 Er  Er4  1  0.34231  0.15769  0.50568  1
 Ge  Ge1  1  0.50000  0.50000  0.00000  1
 Ge  Ge2  1  0.00000  0.00000  0.00000  1
 O  O1  1  0.91770  0.82863  0.77794  1
 O  O2  1  0.08230  0.17137  0.77794  1
 O  O3  1  0.58230  0.32863  0.22206  1
 O  O4  1  0.41770  0.67137  0.22206  1
 O  O5  1  0.32863  0.41770  0.77794  1
 O  O6  1  0.17137  0.91770  0.22206  1
 O  O7  1  0.35752  0.85752  0.71786  1
 O  O8  1  0.50000  0.00000  0.18986  1
 O  O9  1  0.14248  0.35752  0.28214  1
 O  O10  1  0.64248  0.14248  0.71786  1
 O  O11  1  0.67137  0.58230  0.77794  1
 O  O12  1  0.85752  0.64248  0.28214  1
 O  O13  1  0.00000  0.50000  0.81014  1
 O  O14  1  0.82863  0.08230  0.22206  1
