CIF file written using JARVIS-Tools package.
data_NiAgSe2
_symmetry_space_group_name_H-M  'R3m'
_cell_length_a       3.62074
_cell_length_b       3.62074
_cell_length_c       7.26109
_cell_angle_alpha    75.5625
_cell_angle_beta     75.5625
_cell_angle_gamma    60.0001

_symmetry_Int_Tables_number  160
_chemical_formula_structural  NiAgSe2
_chemical_formula_sum  NiAgSe2
_cell_volume  78.94750108194198
_cell_formula_units_Z  1
loop_
  _symmetry_equiv_pos_site_id
 _symmetry_equiv_pos_as_xyz
 1  'x, y, z'
loop_
 _atom_site_type_symbol
 _atom_site_label
 _atom_site_symmetry_multiplicity
 _atom_site_fract_x
 _atom_site_fract_y
 _atom_site_fract_z
 _atom_site_fract_occupancy
 Ag  Ag1  1  0.85033  0.85033  0.44901  1
 Ni  Ni1  1  0.00350  0.00350  0.98950  1
 Se  Se1  1  0.72875  0.72875  0.81376  1
 Se  Se2  1  0.27342  0.27342  0.17973  1
