CIF file written using JARVIS-Tools package.
data_Mn2Zn3O7
_symmetry_space_group_name_H-M  'Cmc2_1'
_cell_length_a       5.14326
_cell_length_b       5.08934
_cell_length_c       9.33523
_cell_angle_alpha    105.818
_cell_angle_beta     90
_cell_angle_gamma    90

_symmetry_Int_Tables_number  36
_chemical_formula_structural  Mn2Zn3O7
_chemical_formula_sum  Mn4Zn6O4
_cell_volume  235.10339164224916
_cell_formula_units_Z  2
loop_
  _symmetry_equiv_pos_site_id
 _symmetry_equiv_pos_as_xyz
 1  'x, y, z'
loop_
 _atom_site_type_symbol
 _atom_site_label
 _atom_site_symmetry_multiplicity
 _atom_site_fract_x
 _atom_site_fract_y
 _atom_site_fract_z
 _atom_site_fract_occupancy
 Mn  Mn1  1  0.75217  0.35129  0.20409  1
 Mn  Mn2  1  0.25217  0.64871  0.79591  1
 Mn  Mn3  1  0.25217  0.85280  0.20409  1
 Mn  Mn4  1  0.75217  0.14720  0.79591  1
 O  O1  1  0.69359  0.93848  0.59654  1
 O  O2  1  0.93703  0.00896  0.15340  1
 O  O3  1  0.19359  0.65806  0.59654  1
 O  O4  1  0.69359  0.34194  0.40346  1
 O  O5  1  0.05868  0.30469  0.73905  1
 O  O6  1  0.19359  0.06152  0.40346  1
 O  O7  1  0.55868  0.43436  0.73905  1
 O  O8  1  0.05868  0.56564  0.26095  1
 O  O9  1  0.93703  0.85556  0.84660  1
 O  O10  1  0.81610  0.36698  0.00000  1
 O  O11  1  0.55868  0.69531  0.26095  1
 O  O12  1  0.31610  0.63302  -0.00000  1
 O  O13  1  0.43703  0.14444  0.15340  1
 O  O14  1  0.43703  0.99104  0.84660  1
 Zn  Zn1  1  0.30582  0.04137  0.60523  1
 Zn  Zn2  1  0.80582  0.95863  0.39477  1
 Zn  Zn3  1  0.30582  0.43615  0.39477  1
 Zn  Zn4  1  0.80582  0.56385  0.60523  1
 Zn  Zn5  1  0.20931  0.24927  0.00000  1
 Zn  Zn6  1  0.70931  0.75073  -0.00000  1
