CIF file written using JARVIS-Tools package.
data_LiFeF4
_symmetry_space_group_name_H-M  'C2/c'
_cell_length_a       5.40137
_cell_length_b       7.86068
_cell_length_c       5.24731
_cell_angle_alpha    48.353
_cell_angle_beta     90
_cell_angle_gamma    69.9055

_symmetry_Int_Tables_number  15
_chemical_formula_structural  LiFeF4
_chemical_formula_sum  Li2Fe2F8
_cell_volume  147.84240301627932
_cell_formula_units_Z  2
loop_
  _symmetry_equiv_pos_site_id
 _symmetry_equiv_pos_as_xyz
 1  'x, y, z'
loop_
 _atom_site_type_symbol
 _atom_site_label
 _atom_site_symmetry_multiplicity
 _atom_site_fract_x
 _atom_site_fract_y
 _atom_site_fract_z
 _atom_site_fract_occupancy
 F  F1  1  0.98977  0.81020  0.61031  1
 F  F2  1  0.52428  0.71771  0.58765  1
 F  F3  1  0.20003  0.81020  0.11031  1
 F  F4  1  0.75801  0.71771  0.08765  1
 F  F5  1  0.24199  0.28229  0.91235  1
 F  F6  1  0.79997  0.18980  0.88969  1
 F  F7  1  0.47572  0.28229  0.41235  1
 F  F8  1  0.01023  0.18980  0.38969  1
 Fe  Fe1  1  0.82005  -0.00000  0.75000  1
 Fe  Fe2  1  0.17995  0.00000  0.25000  1
 Li  Li1  1  0.50000  0.50000  0.50000  1
 Li  Li2  1  -0.00000  0.50000  0.00000  1
