CIF file written using JARVIS-Tools package.
data_Li10BrN3
_symmetry_space_group_name_H-M  'P-6m2'
_cell_length_a       7.33861
_cell_length_b       7.33861
_cell_length_c       3.83218
_cell_angle_alpha    90
_cell_angle_beta     90
_cell_angle_gamma    120

_symmetry_Int_Tables_number  187
_chemical_formula_structural  Li10BrN3
_chemical_formula_sum  Li0BrN3
_cell_volume  178.73267538468576
_cell_formula_units_Z  1
loop_
  _symmetry_equiv_pos_site_id
 _symmetry_equiv_pos_as_xyz
 1  'x, y, z'
loop_
 _atom_site_type_symbol
 _atom_site_label
 _atom_site_symmetry_multiplicity
 _atom_site_fract_x
 _atom_site_fract_y
 _atom_site_fract_z
 _atom_site_fract_occupancy
 Br  Br1  1  0.00000  0.00000  0.50000  1
 Li  Li1  1  0.22137  0.44274  0.00000  1
 Li  Li2  1  0.22137  0.77863  0.00000  1
 Li  Li3  1  0.55726  0.77863  0.00000  1
 Li  Li4  1  0.83238  0.66476  0.00000  1
 Li  Li5  1  0.98402  0.49201  0.50000  1
 Li  Li6  1  0.50799  0.49201  0.50000  1
 Li  Li7  1  0.50799  0.01598  0.50000  1
 Li  Li8  1  0.66667  0.33333  0.00000  1
 Li  Li9  1  0.33524  0.16762  0.00000  1
 Li  Li10  1  0.83238  0.16762  0.00000  1
 N  N1  1  0.98296  0.49148  0.00000  1
 N  N2  1  0.50852  0.01704  0.00000  1
 N  N3  1  0.50852  0.49148  0.00000  1
