CIF file written using JARVIS-Tools package.
data_Y2MgTl
_symmetry_space_group_name_H-M  'C2/m'
_cell_length_a       13.0775
_cell_length_b       9.09655
_cell_length_c       9.09671
_cell_angle_alpha    23.0241
_cell_angle_beta     19.4178
_cell_angle_gamma    19.4185

_symmetry_Int_Tables_number  12
_chemical_formula_structural  Y2MgTl
_chemical_formula_sum  Y2MgTl
_cell_volume  114.84893936635999
_cell_formula_units_Z  1
loop_
  _symmetry_equiv_pos_site_id
 _symmetry_equiv_pos_as_xyz
 1  'x, y, z'
loop_
 _atom_site_type_symbol
 _atom_site_label
 _atom_site_symmetry_multiplicity
 _atom_site_fract_x
 _atom_site_fract_y
 _atom_site_fract_z
 _atom_site_fract_occupancy
 Mg  Mg1  1  -0.00001  0.00001  0.00001  1
 Tl  Tl1  1  0.50002  -0.00001  -0.00002  1
 Y  Y1  1  0.75859  0.99545  0.99546  1
 Y  Y2  1  0.24140  0.00456  0.00455  1
