CIF file written using JARVIS-Tools package.
data_Mg2SiO4
_symmetry_space_group_name_H-M  'P-3m1'
_cell_length_a       4.75388
_cell_length_b       6.10421
_cell_length_c       6.10391
_cell_angle_alpha    120.002
_cell_angle_beta     90.0017
_cell_angle_gamma    90

_symmetry_Int_Tables_number  164
_chemical_formula_structural  Mg2SiO4
_chemical_formula_sum  Mg4Si2O8
_cell_volume  153.39422872692145
_cell_formula_units_Z  2
loop_
  _symmetry_equiv_pos_site_id
 _symmetry_equiv_pos_as_xyz
 1  'x, y, z'
loop_
 _atom_site_type_symbol
 _atom_site_label
 _atom_site_symmetry_multiplicity
 _atom_site_fract_x
 _atom_site_fract_y
 _atom_site_fract_z
 _atom_site_fract_occupancy
 Mg  Mg1  1  0.50000  0.50000  -0.00000  1
 Mg  Mg2  1  0.50000  0.00000  0.00000  1
 Mg  Mg3  1  0.50000  0.50000  0.50000  1
 Mg  Mg4  1  0.50000  -0.00000  0.50000  1
 O  O1  1  0.24193  0.33333  0.66665  1
 O  O2  1  0.74170  0.19021  0.80980  1
 O  O3  1  0.74170  0.61960  0.80980  1
 O  O4  1  0.25833  0.80981  0.61962  1
 O  O5  1  0.75807  0.66667  0.33335  1
 O  O6  1  0.25830  0.80979  0.19020  1
 O  O7  1  0.25830  0.38040  0.19020  1
 O  O8  1  0.74167  0.19019  0.38038  1
 Si  Si1  1  0.09777  0.66667  0.33334  1
 Si  Si2  1  0.90223  0.33333  0.66666  1
