CIF file written using JARVIS-Tools package.
data_MgMnO3
_symmetry_space_group_name_H-M  'Pnma'
_cell_length_a       4.94868
_cell_length_b       5.18316
_cell_length_c       7.22706
_cell_angle_alpha    90
_cell_angle_beta     90
_cell_angle_gamma    90

_symmetry_Int_Tables_number  62
_chemical_formula_structural  MgMnO3
_chemical_formula_sum  Mg4Mn4O2
_cell_volume  185.37278420268615
_cell_formula_units_Z  4
loop_
  _symmetry_equiv_pos_site_id
 _symmetry_equiv_pos_as_xyz
 1  'x, y, z'
loop_
 _atom_site_type_symbol
 _atom_site_label
 _atom_site_symmetry_multiplicity
 _atom_site_fract_x
 _atom_site_fract_y
 _atom_site_fract_z
 _atom_site_fract_occupancy
 Mg  Mg1  1  0.98050  0.06760  0.25000  1
 Mg  Mg2  1  0.48050  0.43240  0.75000  1
 Mg  Mg3  1  0.51950  0.56760  0.25000  1
 Mg  Mg4  1  0.01950  0.93240  0.75000  1
 Mn  Mn1  1  0.50000  0.00000  0.00000  1
 Mn  Mn2  1  0.00000  0.50000  0.00000  1
 Mn  Mn3  1  0.00000  0.50000  0.50000  1
 Mn  Mn4  1  0.50000  0.00000  0.50000  1
 O  O1  1  0.87316  0.55228  0.75000  1
 O  O2  1  0.31216  0.69389  0.56624  1
 O  O3  1  0.62684  0.05228  0.75000  1
 O  O4  1  0.12684  0.44772  0.25000  1
 O  O5  1  0.37316  0.94772  0.25000  1
 O  O6  1  0.68784  0.30611  0.06624  1
 O  O7  1  0.81216  0.80611  0.06624  1
 O  O8  1  0.31216  0.69389  0.93376  1
 O  O9  1  0.68784  0.30611  0.43376  1
 O  O10  1  0.18784  0.19389  0.93376  1
 O  O11  1  0.18784  0.19389  0.56624  1
 O  O12  1  0.81216  0.80611  0.43376  1
