CIF file written using JARVIS-Tools package.
data_K2LiAlP2
_symmetry_space_group_name_H-M  'Ibam'
_cell_length_a       6.10488
_cell_length_b       6.12957
_cell_length_c       8.52985
_cell_angle_alpha    111.057
_cell_angle_beta     110.968
_cell_angle_gamma    90

_symmetry_Int_Tables_number  72
_chemical_formula_structural  K2LiAlP2
_chemical_formula_sum  K4Li2Al2P4
_cell_volume  275.10414905921016
_cell_formula_units_Z  2
loop_
  _symmetry_equiv_pos_site_id
 _symmetry_equiv_pos_as_xyz
 1  'x, y, z'
loop_
 _atom_site_type_symbol
 _atom_site_label
 _atom_site_symmetry_multiplicity
 _atom_site_fract_x
 _atom_site_fract_y
 _atom_site_fract_z
 _atom_site_fract_occupancy
 Al  Al1  1  0.25000  0.00000  0.00000  1
 Al  Al2  1  0.75000  0.00000  0.00000  1
 K  K1  1  0.82447  0.09867  0.64894  1
 K  K2  1  0.17553  0.90133  0.35106  1
 K  K3  1  0.67553  0.44973  0.35106  1
 K  K4  1  0.32447  0.55027  0.64894  1
 Li  Li1  1  0.25000  0.50000  -0.00000  1
 Li  Li2  1  0.75000  0.50000  -0.00000  1
 P  P1  1  0.91004  0.68700  0.82007  1
 P  P2  1  0.41004  0.13307  0.82007  1
 P  P3  1  0.58996  0.86693  0.17993  1
 P  P4  1  0.08996  0.31300  0.17993  1
