CIF file written using JARVIS-Tools package.
data_Eu2B4Rh5
_symmetry_space_group_name_H-M  'Fmmm'
_cell_length_a       5.47219
_cell_length_b       5.61201
_cell_length_c       6.30648
_cell_angle_alpha    77.7884
_cell_angle_beta     64.2876
_cell_angle_gamma    60.8208

_symmetry_Int_Tables_number  69
_chemical_formula_structural  Eu2B4Rh5
_chemical_formula_sum  Eu2B4Rh5
_cell_volume  152.351293715425
_cell_formula_units_Z  1
loop_
  _symmetry_equiv_pos_site_id
 _symmetry_equiv_pos_as_xyz
 1  'x, y, z'
loop_
 _atom_site_type_symbol
 _atom_site_label
 _atom_site_symmetry_multiplicity
 _atom_site_fract_x
 _atom_site_fract_y
 _atom_site_fract_z
 _atom_site_fract_occupancy
 B  B1  1  0.78928  0.68672  0.73472  1
 B  B2  1  0.21072  0.31328  0.26528  1
 B  B3  1  0.47600  0.31328  0.73472  1
 B  B4  1  0.52400  0.68672  0.26528  1
 Eu  Eu1  1  0.14283  0.00000  0.71435  1
 Eu  Eu2  1  0.85717  -0.00000  0.28565  1
 Rh  Rh1  1  0.50000  0.50000  -0.00000  1
 Rh  Rh2  1  0.25000  0.50000  0.50000  1
 Rh  Rh3  1  0.75000  0.50000  0.50000  1
 Rh  Rh4  1  -0.00000  0.50000  0.00000  1
 Rh  Rh5  1  0.50000  0.00000  -0.00000  1
