CIF file written using JARVIS-Tools package.
data_EuSnHg
_symmetry_space_group_name_H-M  'P6_3mc'
_cell_length_a       5.00954
_cell_length_b       5.00945
_cell_length_c       7.13365
_cell_angle_alpha    90
_cell_angle_beta     90
_cell_angle_gamma    120.001

_symmetry_Int_Tables_number  186
_chemical_formula_structural  EuSnHg
_chemical_formula_sum  Eu2Sn2Hg2
_cell_volume  155.03400817473081
_cell_formula_units_Z  2
loop_
  _symmetry_equiv_pos_site_id
 _symmetry_equiv_pos_as_xyz
 1  'x, y, z'
loop_
 _atom_site_type_symbol
 _atom_site_label
 _atom_site_symmetry_multiplicity
 _atom_site_fract_x
 _atom_site_fract_y
 _atom_site_fract_z
 _atom_site_fract_occupancy
 Eu  Eu1  1  -0.00000  -0.00001  0.74582  1
 Eu  Eu2  1  0.00000  0.00001  0.24582  1
 Hg  Hg1  1  0.66667  0.33334  0.53775  1
 Hg  Hg2  1  0.33333  0.66666  0.03775  1
 Sn  Sn1  1  0.66667  0.33334  0.98643  1
 Sn  Sn2  1  0.33333  0.66666  0.48643  1
