CIF file written using JARVIS-Tools package.
data_EuHgPb
_symmetry_space_group_name_H-M  'P6_3mc'
_cell_length_a       5.13682
_cell_length_b       5.13681
_cell_length_c       7.14132
_cell_angle_alpha    90
_cell_angle_beta     90
_cell_angle_gamma    120

_symmetry_Int_Tables_number  186
_chemical_formula_structural  EuHgPb
_chemical_formula_sum  Eu2Hg2Pb2
_cell_volume  163.1910825011796
_cell_formula_units_Z  2
loop_
  _symmetry_equiv_pos_site_id
 _symmetry_equiv_pos_as_xyz
 1  'x, y, z'
loop_
 _atom_site_type_symbol
 _atom_site_label
 _atom_site_symmetry_multiplicity
 _atom_site_fract_x
 _atom_site_fract_y
 _atom_site_fract_z
 _atom_site_fract_occupancy
 Eu  Eu1  1  0.00000  0.00000  0.74414  1
 Eu  Eu2  1  -0.00000  -0.00000  0.24414  1
 Hg  Hg1  1  0.66666  0.33333  0.53986  1
 Hg  Hg2  1  0.33334  0.66667  0.03986  1
 Pb  Pb1  1  0.66667  0.33333  0.98600  1
 Pb  Pb2  1  0.33333  0.66667  0.48600  1
