CIF file written using JARVIS-Tools package.
data_Te4Mo3WSe2S2
_symmetry_space_group_name_H-M  'P3m1'
_cell_length_a       3.40921
_cell_length_b       3.40939
_cell_length_c       34.9595
_cell_angle_alpha    90.0104
_cell_angle_beta     90.0021
_cell_angle_gamma    120.002

_symmetry_Int_Tables_number  156
_chemical_formula_structural  Te4Mo3WSe2S2
_chemical_formula_sum  Te4Mo3WSe2S2
_cell_volume  351.90100188293076
_cell_formula_units_Z  1
loop_
  _symmetry_equiv_pos_site_id
 _symmetry_equiv_pos_as_xyz
 1  'x, y, z'
loop_
 _atom_site_type_symbol
 _atom_site_label
 _atom_site_symmetry_multiplicity
 _atom_site_fract_x
 _atom_site_fract_y
 _atom_site_fract_z
 _atom_site_fract_occupancy
 Mo  Mo1  1  0.33331  0.66667  0.09107  1
 Mo  Mo2  1  0.33335  0.66672  0.46701  1
 Mo  Mo3  1  0.66667  0.33328  0.28791  1
 S  S1  1  0.66666  0.33332  0.42410  1
 S  S2  1  0.66676  0.33346  0.50990  1
 Se  Se1  1  0.33337  0.66675  0.33502  1
 Se  Se2  1  0.33320  0.66647  0.24083  1
 Te  Te1  1  0.33341  0.66680  0.71075  1
 Te  Te2  1  0.66657  0.33318  0.03755  1
 Te  Te3  1  0.66675  0.33348  0.14473  1
 Te  Te4  1  0.33324  0.66653  0.60297  1
 W  W1  1  0.66669  0.33333  0.65693  1
