CIF file written using JARVIS-Tools package.
data_MgBi4O8
_symmetry_space_group_name_H-M  'R-3m'
_cell_length_a       6.26528
_cell_length_b       6.26529
_cell_length_c       6.26529
_cell_angle_alpha    69.7545
_cell_angle_beta     69.7545
_cell_angle_gamma    69.7545

_symmetry_Int_Tables_number  166
_chemical_formula_structural  MgBi4O8
_chemical_formula_sum  MgBi4O8
_cell_volume  209.21015961671657
_cell_formula_units_Z  1
loop_
  _symmetry_equiv_pos_site_id
 _symmetry_equiv_pos_as_xyz
 1  'x, y, z'
loop_
 _atom_site_type_symbol
 _atom_site_label
 _atom_site_symmetry_multiplicity
 _atom_site_fract_x
 _atom_site_fract_y
 _atom_site_fract_z
 _atom_site_fract_occupancy
 Bi  Bi1  1  0.50000  1.00000  0.50000  1
 Bi  Bi2  1  1.00000  0.50000  0.50000  1
 Bi  Bi3  1  0.50000  0.50000  0.00000  1
 Bi  Bi4  1  0.00000  0.00000  0.00000  1
 Mg  Mg1  1  0.50000  0.50000  0.50000  1
 O  O1  1  0.73524  0.27803  0.73524  1
 O  O2  1  0.26475  0.26476  0.72197  1
 O  O3  1  0.26475  0.72197  0.26475  1
 O  O4  1  0.72197  0.26476  0.26476  1
 O  O5  1  0.25770  0.25770  0.25770  1
 O  O6  1  0.74230  0.74230  0.74230  1
 O  O7  1  0.27803  0.73525  0.73524  1
 O  O8  1  0.73525  0.73525  0.27803  1
