CIF file written using JARVIS-Tools package.
data_EuZnGe
_symmetry_space_group_name_H-M  'Pmma'
_cell_length_a       4.34206
_cell_length_b       7.33791
_cell_length_c       4.0206
_cell_angle_alpha    90
_cell_angle_beta     90
_cell_angle_gamma    90

_symmetry_Int_Tables_number  51
_chemical_formula_structural  EuZnGe
_chemical_formula_sum  Eu2Zn2Ge2
_cell_volume  128.10301986809128
_cell_formula_units_Z  2
loop_
  _symmetry_equiv_pos_site_id
 _symmetry_equiv_pos_as_xyz
 1  'x, y, z'
loop_
 _atom_site_type_symbol
 _atom_site_label
 _atom_site_symmetry_multiplicity
 _atom_site_fract_x
 _atom_site_fract_y
 _atom_site_fract_z
 _atom_site_fract_occupancy
 Eu  Eu1  1  0.25000  0.23407  0.00000  1
 Eu  Eu2  1  0.75000  0.76593  0.00000  1
 Ge  Ge1  1  0.25000  0.90656  0.50000  1
 Ge  Ge2  1  0.75000  0.09344  0.50000  1
 Zn  Zn1  1  0.25000  0.57019  0.50000  1
 Zn  Zn2  1  0.75000  0.42981  0.50000  1
