CIF file written using JARVIS-Tools package.
data_Li2PtPb
_symmetry_space_group_name_H-M  'Immm'
_cell_length_a       10.5688
_cell_length_b       6.00498
_cell_length_c       6.00498
_cell_angle_alpha    37.4681
_cell_angle_beta     28.3569
_cell_angle_gamma    28.357

_symmetry_Int_Tables_number  71
_chemical_formula_structural  Li2PtPb
_chemical_formula_sum  Li2PtPb
_cell_volume  85.65973214281013
_cell_formula_units_Z  1
loop_
  _symmetry_equiv_pos_site_id
 _symmetry_equiv_pos_as_xyz
 1  'x, y, z'
loop_
 _atom_site_type_symbol
 _atom_site_label
 _atom_site_symmetry_multiplicity
 _atom_site_fract_x
 _atom_site_fract_y
 _atom_site_fract_z
 _atom_site_fract_occupancy
 Li  Li1  1  0.77140  -0.00000  -0.00000  1
 Li  Li2  1  0.22860  0.00000  0.00000  1
 Pb  Pb1  1  0.50000  -0.00000  0.00000  1
 Pt  Pt1  1  0.00000  0.00000  0.00000  1
