CIF file written using JARVIS-Tools package.
data_Li2GaHg
_symmetry_space_group_name_H-M  'Immm'
_cell_length_a       10.4822
_cell_length_b       6.02885
_cell_length_c       6.02885
_cell_angle_alpha    30.5293
_cell_angle_beta     29.6186
_cell_angle_gamma    29.6185

_symmetry_Int_Tables_number  71
_chemical_formula_structural  Li2GaHg
_chemical_formula_sum  Li2GaHg
_cell_volume  83.9094782746916
_cell_formula_units_Z  1
loop_
  _symmetry_equiv_pos_site_id
 _symmetry_equiv_pos_as_xyz
 1  'x, y, z'
loop_
 _atom_site_type_symbol
 _atom_site_label
 _atom_site_symmetry_multiplicity
 _atom_site_fract_x
 _atom_site_fract_y
 _atom_site_fract_z
 _atom_site_fract_occupancy
 Ga  Ga1  1  0.00000  0.00000  0.00000  1
 Hg  Hg1  1  0.50000  0.00000  -0.00000  1
 Li  Li1  1  0.75208  0.00000  -0.00000  1
 Li  Li2  1  0.24792  -0.00000  0.00000  1
