CIF file written using JARVIS-Tools package.
data_Tb2O3
_symmetry_space_group_name_H-M  'Pn-3m'
_cell_length_a       5.36845
_cell_length_b       5.36845
_cell_length_c       5.3682
_cell_angle_alpha    90
_cell_angle_beta     90
_cell_angle_gamma    90

_symmetry_Int_Tables_number  224
_chemical_formula_structural  Tb2O3
_chemical_formula_sum  Tb4O6
_cell_volume  154.71324161159913
_cell_formula_units_Z  2
loop_
  _symmetry_equiv_pos_site_id
 _symmetry_equiv_pos_as_xyz
 1  'x, y, z'
loop_
 _atom_site_type_symbol
 _atom_site_label
 _atom_site_symmetry_multiplicity
 _atom_site_fract_x
 _atom_site_fract_y
 _atom_site_fract_z
 _atom_site_fract_occupancy
 O  O1  1  0.00000  0.50000  0.00000  1
 O  O2  1  0.50000  0.00000  0.00000  1
 O  O3  1  0.50000  0.00000  0.50000  1
 O  O4  1  0.00000  0.00000  0.50000  1
 O  O5  1  0.00000  0.50000  0.50000  1
 O  O6  1  0.50000  0.50000  0.00000  1
 Tb  Tb1  1  0.25000  0.75000  0.75000  1
 Tb  Tb2  1  0.75000  0.75000  0.25000  1
 Tb  Tb3  1  0.25000  0.25000  0.25000  1
 Tb  Tb4  1  0.75000  0.25000  0.75000  1
