CIF file written using JARVIS-Tools package.
data_KNa2P
_symmetry_space_group_name_H-M  'Immm'
_cell_length_a       13.84
_cell_length_b       8.6219
_cell_length_c       8.62158
_cell_angle_alpha    38.4017
_cell_angle_beta     22.1742
_cell_angle_gamma    22.1736

_symmetry_Int_Tables_number  71
_chemical_formula_structural  KNa2P
_chemical_formula_sum  KNa2P
_cell_volume  125.29447041024184
_cell_formula_units_Z  1
loop_
  _symmetry_equiv_pos_site_id
 _symmetry_equiv_pos_as_xyz
 1  'x, y, z'
loop_
 _atom_site_type_symbol
 _atom_site_label
 _atom_site_symmetry_multiplicity
 _atom_site_fract_x
 _atom_site_fract_y
 _atom_site_fract_z
 _atom_site_fract_occupancy
 K  K1  1  0.50000  0.00000  -0.00000  1
 Na  Na1  1  0.96337  0.85775  0.85772  1
 Na  Na2  1  0.03663  0.14225  0.14228  1
 P  P1  1  0.00000  0.00000  0.00000  1
