CIF file written using JARVIS-Tools package.
data_Li6MgBr8
_symmetry_space_group_name_H-M  'Fm-3m'
_cell_length_a       7.71273
_cell_length_b       7.71273
_cell_length_c       7.71273
_cell_angle_alpha    60
_cell_angle_beta     60
_cell_angle_gamma    60

_symmetry_Int_Tables_number  225
_chemical_formula_structural  Li6MgBr8
_chemical_formula_sum  Li6MgBr8
_cell_volume  324.42136386117176
_cell_formula_units_Z  1
loop_
  _symmetry_equiv_pos_site_id
 _symmetry_equiv_pos_as_xyz
 1  'x, y, z'
loop_
 _atom_site_type_symbol
 _atom_site_label
 _atom_site_symmetry_multiplicity
 _atom_site_fract_x
 _atom_site_fract_y
 _atom_site_fract_z
 _atom_site_fract_occupancy
 Br  Br1  1  0.25000  0.25000  0.25000  1
 Br  Br2  1  0.75000  0.75000  0.75000  1
 Br  Br3  1  0.75486  0.24514  0.24514  1
 Br  Br4  1  0.75486  0.75486  0.24514  1
 Br  Br5  1  0.24514  0.24514  0.75486  1
 Br  Br6  1  0.75486  0.24514  0.75486  1
 Br  Br7  1  0.24514  0.75486  0.24514  1
 Br  Br8  1  0.24514  0.75486  0.75486  1
 Li  Li1  1  0.50000  0.00000  -0.00000  1
 Li  Li2  1  0.00000  0.00000  0.50000  1
 Li  Li3  1  0.50000  0.50000  -0.00000  1
 Li  Li4  1  0.00000  0.50000  0.50000  1
 Li  Li5  1  0.00000  0.50000  -0.00000  1
 Li  Li6  1  0.50000  0.00000  0.50000  1
 Mg  Mg1  1  0.00000  0.00000  0.00000  1
