CIF file written using JARVIS-Tools package.
data_SiO2
_symmetry_space_group_name_H-M  'Pcca'
_cell_length_a       4.72683
_cell_length_b       6.90172
_cell_length_c       9.80031
_cell_angle_alpha    90
_cell_angle_beta     90
_cell_angle_gamma    90

_symmetry_Int_Tables_number  54
_chemical_formula_structural  SiO2
_chemical_formula_sum  Si8O6
_cell_volume  319.71818305611305
_cell_formula_units_Z  8
loop_
  _symmetry_equiv_pos_site_id
 _symmetry_equiv_pos_as_xyz
 1  'x, y, z'
loop_
 _atom_site_type_symbol
 _atom_site_label
 _atom_site_symmetry_multiplicity
 _atom_site_fract_x
 _atom_site_fract_y
 _atom_site_fract_z
 _atom_site_fract_occupancy
 O  O1  1  0.00000  0.50000  0.00000  1
 O  O2  1  0.00000  0.00000  0.50000  1
 O  O3  1  0.34889  0.00000  0.25000  1
 O  O4  1  0.50000  0.50000  0.50000  1
 O  O5  1  0.00000  0.50000  0.50000  1
 O  O6  1  0.50000  0.50000  0.00000  1
 O  O7  1  0.00000  0.75000  0.83428  1
 O  O8  1  0.00000  0.25000  0.16572  1
 O  O9  1  0.34889  0.50000  0.75000  1
 O  O10  1  0.00000  0.25000  0.66572  1
 O  O11  1  0.50000  0.00000  0.00000  1
 O  O12  1  0.00000  0.00000  0.00000  1
 O  O13  1  0.65111  0.50000  0.25000  1
 O  O14  1  0.50000  0.00000  0.50000  1
 O  O15  1  0.65111  0.00000  0.75000  1
 O  O16  1  0.00000  0.75000  0.33428  1
 Si  Si1  1  0.22846  0.07543  0.10339  1
 Si  Si2  1  0.22846  0.92457  0.39661  1
 Si  Si3  1  0.22846  0.57543  0.89661  1
 Si  Si4  1  0.22846  0.42457  0.60339  1
 Si  Si5  1  0.77154  0.07543  0.60339  1
 Si  Si6  1  0.77154  0.42457  0.10339  1
 Si  Si7  1  0.77154  0.57543  0.39661  1
 Si  Si8  1  0.77154  0.92457  0.89661  1
