CIF file written using JARVIS-Tools package.
data_VPO5
_symmetry_space_group_name_H-M  'Cc'
_cell_length_a       5.03258
_cell_length_b       5.03263
_cell_length_c       7.27723
_cell_angle_alpha    109.352
_cell_angle_beta     109.367
_cell_angle_gamma    86.797

_symmetry_Int_Tables_number  9
_chemical_formula_structural  VPO5
_chemical_formula_sum  V2P2O0
_cell_volume  163.75519970549604
_cell_formula_units_Z  2
loop_
  _symmetry_equiv_pos_site_id
 _symmetry_equiv_pos_as_xyz
 1  'x, y, z'
loop_
 _atom_site_type_symbol
 _atom_site_label
 _atom_site_symmetry_multiplicity
 _atom_site_fract_x
 _atom_site_fract_y
 _atom_site_fract_z
 _atom_site_fract_occupancy
 O  O1  1  0.16501  0.16301  0.92468  1
 O  O2  1  0.83120  0.84824  0.57920  1
 O  O3  1  0.84787  0.83163  0.07931  1
 O  O4  1  0.16255  0.16548  0.42481  1
 O  O5  1  0.16440  0.64318  0.35346  1
 O  O6  1  0.37718  0.85404  0.16682  1
 O  O7  1  0.85323  0.37747  0.66659  1
 O  O8  1  0.64264  0.16452  0.85327  1
 O  O9  1  0.67285  0.35650  0.26349  1
 O  O10  1  0.35591  0.67318  0.76370  1
 P  P1  1  0.87288  0.13567  0.75350  1
 P  P2  1  0.13535  0.87342  0.25365  1
 V  V1  1  0.94735  0.48293  0.46516  1
 V  V2  1  0.48249  0.94778  0.96520  1
