CIF file written using JARVIS-Tools package.
data_NaCdPb2
_symmetry_space_group_name_H-M  'C2/m'
_cell_length_a       12.9508
_cell_length_b       8.65607
_cell_length_c       8.65904
_cell_angle_alpha    22.7543
_cell_angle_beta     20.7278
_cell_angle_gamma    20.7427

_symmetry_Int_Tables_number  12
_chemical_formula_structural  NaCdPb2
_chemical_formula_sum  NaCdPb2
_cell_volume  112.59484591185726
_cell_formula_units_Z  1
loop_
  _symmetry_equiv_pos_site_id
 _symmetry_equiv_pos_as_xyz
 1  'x, y, z'
loop_
 _atom_site_type_symbol
 _atom_site_label
 _atom_site_symmetry_multiplicity
 _atom_site_fract_x
 _atom_site_fract_y
 _atom_site_fract_z
 _atom_site_fract_occupancy
 Cd  Cd1  1  0.50000  0.00000  -0.00001  1
 Na  Na1  1  0.00000  0.00000  -0.00000  1
 Pb  Pb1  1  0.74971  -0.00221  -0.00289  1
 Pb  Pb2  1  0.25029  0.00220  0.00290  1
