CIF file written using JARVIS-Tools package.
data_Zn3Sn
_symmetry_space_group_name_H-M  'I4/mmm'
_cell_length_a       5.1518
_cell_length_b       5.1518
_cell_length_c       5.1518
_cell_angle_alpha    131.105
_cell_angle_beta     131.105
_cell_angle_gamma    71.6467

_symmetry_Int_Tables_number  139
_chemical_formula_structural  Zn3Sn
_chemical_formula_sum  Zn3Sn
_cell_volume  75.95831270051049
_cell_formula_units_Z  1
loop_
  _symmetry_equiv_pos_site_id
 _symmetry_equiv_pos_as_xyz
 1  'x, y, z'
loop_
 _atom_site_type_symbol
 _atom_site_label
 _atom_site_symmetry_multiplicity
 _atom_site_fract_x
 _atom_site_fract_y
 _atom_site_fract_z
 _atom_site_fract_occupancy
 Sn  Sn1  1  0.00000  0.00000  0.00000  1
 Zn  Zn1  1  0.75000  0.25000  0.50000  1
 Zn  Zn2  1  0.25000  0.75000  0.50000  1
 Zn  Zn3  1  0.50000  0.50000  0.00000  1
