CIF file written using JARVIS-Tools package.
data_K2RbAs
_symmetry_space_group_name_H-M  'C2/m'
_cell_length_a       13.7899
_cell_length_b       9.67901
_cell_length_c       9.6795
_cell_angle_alpha    34.3018
_cell_angle_beta     19.9833
_cell_angle_gamma    19.9842

_symmetry_Int_Tables_number  12
_chemical_formula_structural  K2RbAs
_chemical_formula_sum  K2RbAs
_cell_volume  131.61446813683818
_cell_formula_units_Z  1
loop_
  _symmetry_equiv_pos_site_id
 _symmetry_equiv_pos_as_xyz
 1  'x, y, z'
loop_
 _atom_site_type_symbol
 _atom_site_label
 _atom_site_symmetry_multiplicity
 _atom_site_fract_x
 _atom_site_fract_y
 _atom_site_fract_z
 _atom_site_fract_occupancy
 As  As1  1  0.00000  0.00000  0.00000  1
 K  K1  1  -0.24281  -0.00456  -0.00455  1
 K  K2  1  0.24281  0.00456  0.00455  1
 Rb  Rb1  1  0.50000  -0.00000  -0.00000  1
