CIF file written using JARVIS-Tools package.
data_K2RbBi
_symmetry_space_group_name_H-M  'Immm'
_cell_length_a       19.6864
_cell_length_b       10.5324
_cell_length_c       10.5324
_cell_angle_alpha    34.8718
_cell_angle_beta     20.8418
_cell_angle_gamma    20.8418

_symmetry_Int_Tables_number  71
_chemical_formula_structural  K2RbBi
_chemical_formula_sum  K2RbBi
_cell_volume  251.0669837640982
_cell_formula_units_Z  1
loop_
  _symmetry_equiv_pos_site_id
 _symmetry_equiv_pos_as_xyz
 1  'x, y, z'
loop_
 _atom_site_type_symbol
 _atom_site_label
 _atom_site_symmetry_multiplicity
 _atom_site_fract_x
 _atom_site_fract_y
 _atom_site_fract_z
 _atom_site_fract_occupancy
 Bi  Bi1  1  0.50000  -0.00000  0.00000  1
 K  K1  1  0.67310  -0.00000  -0.00000  1
 K  K2  1  0.32690  0.00000  0.00000  1
 Rb  Rb1  1  0.00000  0.00000  0.00000  1
