CIF file written using JARVIS-Tools package.
data_Li3SbS4
_symmetry_space_group_name_H-M  'Pmn2_1'
_cell_length_a       6.41764
_cell_length_b       6.82554
_cell_length_c       7.93388
_cell_angle_alpha    90
_cell_angle_beta     90
_cell_angle_gamma    90

_symmetry_Int_Tables_number  31
_chemical_formula_structural  Li3SbS4
_chemical_formula_sum  Li6Sb2S8
_cell_volume  347.5346118872659
_cell_formula_units_Z  2
loop_
  _symmetry_equiv_pos_site_id
 _symmetry_equiv_pos_as_xyz
 1  'x, y, z'
loop_
 _atom_site_type_symbol
 _atom_site_label
 _atom_site_symmetry_multiplicity
 _atom_site_fract_x
 _atom_site_fract_y
 _atom_site_fract_z
 _atom_site_fract_occupancy
 Li  Li1  1  0.49804  0.84380  0.00000  1
 Li  Li2  1  0.00294  0.67262  0.24645  1
 Li  Li3  1  0.50294  0.32738  0.25355  1
 Li  Li4  1  0.99804  0.15620  0.50000  1
 Li  Li5  1  0.50294  0.32738  0.74645  1
 Li  Li6  1  0.00294  0.67262  0.75355  1
 S  S1  1  0.87962  0.84395  0.00000  1
 S  S2  1  0.37606  0.17955  0.00000  1
 S  S3  1  0.88199  0.33496  0.24470  1
 S  S4  1  0.38199  0.66504  0.25530  1
 S  S5  1  0.87606  0.82045  0.50000  1
 S  S6  1  0.37962  0.15605  0.50000  1
 S  S7  1  0.38199  0.66504  0.74470  1
 S  S8  1  0.88199  0.33496  0.75530  1
 Sb  Sb1  1  0.00532  0.17087  0.00000  1
 Sb  Sb2  1  0.50532  0.82913  0.50000  1
