CIF file written using JARVIS-Tools package.
data_MgSiN2
_symmetry_space_group_name_H-M  'Pna2_1'
_cell_length_a       5.02592
_cell_length_b       5.31112
_cell_length_c       6.48631
_cell_angle_alpha    90
_cell_angle_beta     90
_cell_angle_gamma    90

_symmetry_Int_Tables_number  33
_chemical_formula_structural  MgSiN2
_chemical_formula_sum  Mg4Si4N8
_cell_volume  173.14082389827828
_cell_formula_units_Z  4
loop_
  _symmetry_equiv_pos_site_id
 _symmetry_equiv_pos_as_xyz
 1  'x, y, z'
loop_
 _atom_site_type_symbol
 _atom_site_label
 _atom_site_symmetry_multiplicity
 _atom_site_fract_x
 _atom_site_fract_y
 _atom_site_fract_z
 _atom_site_fract_occupancy
 Mg  Mg1  1  0.98886  0.58445  0.87709  1
 Mg  Mg2  1  0.48886  0.91555  0.37709  1
 Mg  Mg3  1  0.48886  0.41555  0.12291  1
 Mg  Mg4  1  0.98886  0.08445  0.62291  1
 N  N1  1  0.40971  0.60885  0.84504  1
 N  N2  1  0.90971  0.39115  0.15496  1
 N  N3  1  0.90971  0.89115  0.34504  1
 N  N4  1  0.40971  0.10885  0.65496  1
 N  N5  1  0.34747  0.54941  0.40406  1
 N  N6  1  0.34747  0.04941  0.09594  1
 N  N7  1  0.84747  0.95059  0.90406  1
 N  N8  1  0.84747  0.45059  0.59594  1
 Si  Si1  1  -0.00002  0.07051  0.12543  1
 Si  Si2  1  0.49998  0.92949  0.87457  1
 Si  Si3  1  0.49998  0.42949  0.62543  1
 Si  Si4  1  -0.00002  0.57051  0.37457  1
