CIF file written using JARVIS-Tools package.
data_BaHo2PdO5
_symmetry_space_group_name_H-M  'P4/mbm'
_cell_length_a       6.52085
_cell_length_b       6.52085
_cell_length_c       5.8862
_cell_angle_alpha    90
_cell_angle_beta     90
_cell_angle_gamma    90

_symmetry_Int_Tables_number  127
_chemical_formula_structural  BaHo2PdO5
_chemical_formula_sum  Ba2Ho4Pd2O0
_cell_volume  250.2903251291171
_cell_formula_units_Z  2
loop_
  _symmetry_equiv_pos_site_id
 _symmetry_equiv_pos_as_xyz
 1  'x, y, z'
loop_
 _atom_site_type_symbol
 _atom_site_label
 _atom_site_symmetry_multiplicity
 _atom_site_fract_x
 _atom_site_fract_y
 _atom_site_fract_z
 _atom_site_fract_occupancy
 Ba  Ba1  1  0.50000  0.50000  0.00000  1
 Ba  Ba2  1  0.00000  0.00000  0.00000  1
 Ho  Ho1  1  0.82686  0.67314  0.50000  1
 Ho  Ho2  1  0.67314  0.17314  0.50000  1
 Ho  Ho3  1  0.32686  0.82686  0.50000  1
 Ho  Ho4  1  0.17314  0.32686  0.50000  1
 O  O1  1  0.85932  0.35932  0.73937  1
 O  O2  1  0.00000  0.00000  0.50000  1
 O  O3  1  0.14068  0.64068  0.26063  1
 O  O4  1  0.50000  0.50000  0.50000  1
 O  O5  1  0.35932  0.14068  0.26063  1
 O  O6  1  0.64068  0.85932  0.73937  1
 O  O7  1  0.14068  0.64068  0.73937  1
 O  O8  1  0.85932  0.35932  0.26063  1
 O  O9  1  0.64068  0.85932  0.26063  1
 O  O10  1  0.35932  0.14068  0.73937  1
 Pd  Pd1  1  0.50000  0.00000  0.00000  1
 Pd  Pd2  1  0.00000  0.50000  0.00000  1
