CIF file written using JARVIS-Tools package.
data_ZrTiAu2
_symmetry_space_group_name_H-M  'Immm'
_cell_length_a       11.7472
_cell_length_b       6.50176
_cell_length_c       6.50177
_cell_angle_alpha    43.1352
_cell_angle_beta     25.3933
_cell_angle_gamma    25.3933

_symmetry_Int_Tables_number  71
_chemical_formula_structural  ZrTiAu2
_chemical_formula_sum  ZrTiAu2
_cell_volume  80.6227172222761
_cell_formula_units_Z  1
loop_
  _symmetry_equiv_pos_site_id
 _symmetry_equiv_pos_as_xyz
 1  'x, y, z'
loop_
 _atom_site_type_symbol
 _atom_site_label
 _atom_site_symmetry_multiplicity
 _atom_site_fract_x
 _atom_site_fract_y
 _atom_site_fract_z
 _atom_site_fract_occupancy
 Au  Au1  1  0.78128  0.00000  0.00000  1
 Au  Au2  1  0.21872  -0.00000  -0.00000  1
 Ti  Ti1  1  0.00000  0.00000  0.00000  1
 Zr  Zr1  1  0.50000  -0.00000  -0.00000  1
