CIF file written using JARVIS-Tools package.
data_K2VAgSe4
_symmetry_space_group_name_H-M  'Fddd'
_cell_length_a       5.9752
_cell_length_b       7.27039
_cell_length_c       11.8458
_cell_angle_alpha    84.0513
_cell_angle_beta     75.3918
_cell_angle_gamma    65.7369

_symmetry_Int_Tables_number  70
_chemical_formula_structural  K2VAgSe4
_chemical_formula_sum  K4V2Ag2Se8
_cell_volume  453.982811431438
_cell_formula_units_Z  2
loop_
  _symmetry_equiv_pos_site_id
 _symmetry_equiv_pos_as_xyz
 1  'x, y, z'
loop_
 _atom_site_type_symbol
 _atom_site_label
 _atom_site_symmetry_multiplicity
 _atom_site_fract_x
 _atom_site_fract_y
 _atom_site_fract_z
 _atom_site_fract_occupancy
 Ag  Ag1  1  0.62500  0.75000  0.75000  1
 Ag  Ag2  1  0.37500  0.25000  0.25000  1
 K  K1  1  0.94209  0.75000  0.11583  1
 K  K2  1  0.30791  0.75000  0.38417  1
 K  K3  1  0.05791  0.25000  0.88417  1
 K  K4  1  0.69209  0.25000  0.61583  1
 Se  Se1  1  0.24840  0.03982  0.12970  1
 Se  Se2  1  0.37810  0.53982  0.87030  1
 Se  Se3  1  0.62190  0.46018  0.12970  1
 Se  Se4  1  0.91792  0.46018  0.37030  1
 Se  Se5  1  0.71179  0.03982  0.37030  1
 Se  Se6  1  0.08208  0.53982  0.62970  1
 Se  Se7  1  0.75160  0.96018  0.87030  1
 Se  Se8  1  0.28821  0.96018  0.62970  1
 V  V1  1  0.12500  0.75000  0.75000  1
 V  V2  1  0.87500  0.25000  0.25000  1
