CIF file written using JARVIS-Tools package.
data_NiHO2
_symmetry_space_group_name_H-M  'Cm'
_cell_length_a       2.94901
_cell_length_b       2.94465
_cell_length_c       4.72829
_cell_angle_alpha    90
_cell_angle_beta     72.0982
_cell_angle_gamma    60.049

_symmetry_Int_Tables_number  8
_chemical_formula_structural  NiHO2
_chemical_formula_sum  NiHO2
_cell_volume  33.26203357562183
_cell_formula_units_Z  1
loop_
  _symmetry_equiv_pos_site_id
 _symmetry_equiv_pos_as_xyz
 1  'x, y, z'
loop_
 _atom_site_type_symbol
 _atom_site_label
 _atom_site_symmetry_multiplicity
 _atom_site_fract_x
 _atom_site_fract_y
 _atom_site_fract_z
 _atom_site_fract_occupancy
 H  H1  1  0.01887  0.49057  0.46399  1
 Ni  Ni1  1  0.99600  0.00200  0.99749  1
 O  O1  1  0.18188  0.40906  0.22108  1
 O  O2  1  0.80325  0.59838  0.78419  1
