CIF file written using JARVIS-Tools package.
data_YV2O4
_symmetry_space_group_name_H-M  'Fd-3m'
_cell_length_a       6.26963
_cell_length_b       6.26962
_cell_length_c       6.26963
_cell_angle_alpha    59.9935
_cell_angle_beta     59.9936
_cell_angle_gamma    59.9935

_symmetry_Int_Tables_number  227
_chemical_formula_structural  YV2O4
_chemical_formula_sum  Y2V4O8
_cell_volume  174.23955597761727
_cell_formula_units_Z  2
loop_
  _symmetry_equiv_pos_site_id
 _symmetry_equiv_pos_as_xyz
 1  'x, y, z'
loop_
 _atom_site_type_symbol
 _atom_site_label
 _atom_site_symmetry_multiplicity
 _atom_site_fract_x
 _atom_site_fract_y
 _atom_site_fract_z
 _atom_site_fract_occupancy
 O  O1  1  0.20665  0.76446  0.76446  1
 O  O2  1  0.23554  0.23554  0.79335  1
 O  O3  1  0.23554  0.79335  0.23554  1
 O  O4  1  0.23553  0.23553  0.23553  1
 O  O5  1  0.76446  0.76446  0.20665  1
 O  O6  1  0.79335  0.23554  0.23554  1
 O  O7  1  0.76446  0.20665  0.76446  1
 O  O8  1  0.76447  0.76447  0.76447  1
 V  V1  1  -0.00000  0.50000  0.00000  1
 V  V2  1  0.00000  0.00000  0.00000  1
 V  V3  1  0.50000  0.00000  0.00000  1
 V  V4  1  0.00000  -0.00000  0.50000  1
 Y  Y1  1  0.62502  0.62502  0.62502  1
 Y  Y2  1  0.37498  0.37498  0.37498  1
