CIF file written using JARVIS-Tools package.
data_Sr2LiMg
_symmetry_space_group_name_H-M  'Immm'
_cell_length_a       13.5713
_cell_length_b       7.73288
_cell_length_c       7.73287
_cell_angle_alpha    28.36
_cell_angle_beta     28.657
_cell_angle_gamma    28.657

_symmetry_Int_Tables_number  71
_chemical_formula_structural  Sr2LiMg
_chemical_formula_sum  Sr2LiMg
_cell_volume  163.92104635285858
_cell_formula_units_Z  1
loop_
  _symmetry_equiv_pos_site_id
 _symmetry_equiv_pos_as_xyz
 1  'x, y, z'
loop_
 _atom_site_type_symbol
 _atom_site_label
 _atom_site_symmetry_multiplicity
 _atom_site_fract_x
 _atom_site_fract_y
 _atom_site_fract_z
 _atom_site_fract_occupancy
 Li  Li1  1  0.00000  0.00000  0.00000  1
 Mg  Mg1  1  0.50000  -0.00000  0.00000  1
 Sr  Sr1  1  0.76095  -0.00000  0.00000  1
 Sr  Sr2  1  0.23905  0.00000  -0.00000  1
