CIF file written using JARVIS-Tools package.
data_SrCuH6O5
_symmetry_space_group_name_H-M  'P2/c'
_cell_length_a       5.38131
_cell_length_b       6.23688
_cell_length_c       7.9472
_cell_angle_alpha    90
_cell_angle_beta     108.182
_cell_angle_gamma    90

_symmetry_Int_Tables_number  13
_chemical_formula_structural  SrCuH6O5
_chemical_formula_sum  Sr2Cu2H2O0
_cell_volume  253.41059972890582
_cell_formula_units_Z  2
loop_
  _symmetry_equiv_pos_site_id
 _symmetry_equiv_pos_as_xyz
 1  'x, y, z'
loop_
 _atom_site_type_symbol
 _atom_site_label
 _atom_site_symmetry_multiplicity
 _atom_site_fract_x
 _atom_site_fract_y
 _atom_site_fract_z
 _atom_site_fract_occupancy
 Cu  Cu1  1  0.00000  0.00000  0.00000  1
 Cu  Cu2  1  -0.00000  0.00000  0.50000  1
 H  H1  1  0.43256  0.71171  0.64375  1
 H  H2  1  0.34806  0.26896  0.53591  1
 H  H3  1  0.37142  0.04610  0.89261  1
 H  H4  1  0.56744  0.71171  0.85625  1
 H  H5  1  0.65194  0.73104  0.46409  1
 H  H6  1  0.56744  0.28829  0.35625  1
 H  H7  1  0.37142  0.95390  0.39261  1
 H  H8  1  0.34806  0.73104  0.03591  1
 H  H9  1  0.65194  0.26896  0.96409  1
 H  H10  1  0.62858  0.95390  0.10739  1
 H  H11  1  0.62858  0.04610  0.60739  1
 H  H12  1  0.43256  0.28829  0.14375  1
 O  O1  1  0.84273  0.71965  0.49445  1
 O  O2  1  0.28561  0.84470  0.44330  1
 O  O3  1  0.50000  0.61695  0.75000  1
 O  O4  1  0.15727  0.71965  0.00555  1
 O  O5  1  0.84273  0.28035  0.99445  1
 O  O6  1  0.71439  0.15530  0.55670  1
 O  O7  1  0.71439  0.84470  0.05670  1
 O  O8  1  0.15727  0.28035  0.50555  1
 O  O9  1  0.28561  0.15530  0.94330  1
 O  O10  1  0.50000  0.38305  0.25000  1
 Sr  Sr1  1  -0.00000  0.54607  0.25000  1
 Sr  Sr2  1  0.00000  0.45393  0.75000  1
