CIF file written using JARVIS-Tools package.
data_TaP
_symmetry_space_group_name_H-M  'I4_1md'
_cell_length_a       3.34778
_cell_length_b       3.34778
_cell_length_c       6.19447
_cell_angle_alpha    105.678
_cell_angle_beta     105.678
_cell_angle_gamma    90

_symmetry_Int_Tables_number  109
_chemical_formula_structural  TaP
_chemical_formula_sum  Ta2P2
_cell_volume  64.15588102958547
_cell_formula_units_Z  2
loop_
  _symmetry_equiv_pos_site_id
 _symmetry_equiv_pos_as_xyz
 1  'x, y, z'
loop_
 _atom_site_type_symbol
 _atom_site_label
 _atom_site_symmetry_multiplicity
 _atom_site_fract_x
 _atom_site_fract_y
 _atom_site_fract_z
 _atom_site_fract_occupancy
 P  P1  1  0.66649  0.16649  0.33298  1
 P  P2  1  0.41649  0.41649  0.83298  1
 Ta  Ta1  1  0.24951  0.74951  0.49902  1
 Ta  Ta2  1  0.99951  0.99951  0.99902  1
