CIF file written using JARVIS-Tools package.
data_Sc2TiTl
_symmetry_space_group_name_H-M  'C2/m'
_cell_length_a       12.6829
_cell_length_b       8.38784
_cell_length_c       8.38784
_cell_angle_alpha    22.368
_cell_angle_beta     18.4254
_cell_angle_gamma    18.4254

_symmetry_Int_Tables_number  12
_chemical_formula_structural  Sc2TiTl
_chemical_formula_sum  Sc2TiTl
_cell_volume  86.3838292238267
_cell_formula_units_Z  1
loop_
  _symmetry_equiv_pos_site_id
 _symmetry_equiv_pos_as_xyz
 1  'x, y, z'
loop_
 _atom_site_type_symbol
 _atom_site_label
 _atom_site_symmetry_multiplicity
 _atom_site_fract_x
 _atom_site_fract_y
 _atom_site_fract_z
 _atom_site_fract_occupancy
 Sc  Sc1  1  0.74582  0.00533  0.00533  1
 Sc  Sc2  1  0.25417  0.99468  0.99468  1
 Ti  Ti1  1  0.00000  1.00000  1.00000  1
 Tl  Tl1  1  0.50001  0.99999  1.00000  1
