CIF file written using JARVIS-Tools package.
data_CeAlO3
_symmetry_space_group_name_H-M  'Imma'
_cell_length_a       5.35273
_cell_length_b       5.34999
_cell_length_c       5.34999
_cell_angle_alpha    60.4486
_cell_angle_beta     59.9831
_cell_angle_gamma    59.9831

_symmetry_Int_Tables_number  74
_chemical_formula_structural  CeAlO3
_chemical_formula_sum  Ce2Al2O6
_cell_volume  108.66883733450003
_cell_formula_units_Z  2
loop_
  _symmetry_equiv_pos_site_id
 _symmetry_equiv_pos_as_xyz
 1  'x, y, z'
loop_
 _atom_site_type_symbol
 _atom_site_label
 _atom_site_symmetry_multiplicity
 _atom_site_fract_x
 _atom_site_fract_y
 _atom_site_fract_z
 _atom_site_fract_occupancy
 Al  Al1  1  0.50000  0.50000  0.50000  1
 Al  Al2  1  0.00000  0.00000  0.00000  1
 Ce  Ce1  1  0.75000  0.75145  0.74855  1
 Ce  Ce2  1  0.25000  0.24855  0.25145  1
 O  O1  1  0.77660  0.22340  0.72340  1
 O  O2  1  0.72340  0.77660  0.27660  1
 O  O3  1  0.22340  0.77660  0.27660  1
 O  O4  1  0.27660  0.22340  0.72340  1
 O  O5  1  0.25000  0.69875  0.80125  1
 O  O6  1  0.75000  0.30125  0.19875  1
