CIF file written using JARVIS-Tools package.
data_SrYPt2
_symmetry_space_group_name_H-M  'I4/mmm'
_cell_length_a       10.8956
_cell_length_b       6.22607
_cell_length_c       6.22606
_cell_angle_alpha    40.0638
_cell_angle_beta     28.9554
_cell_angle_gamma    28.9555

_symmetry_Int_Tables_number  139
_chemical_formula_structural  SrYPt2
_chemical_formula_sum  SrYPt2
_cell_volume  98.99167056307444
_cell_formula_units_Z  1
loop_
  _symmetry_equiv_pos_site_id
 _symmetry_equiv_pos_as_xyz
 1  'x, y, z'
loop_
 _atom_site_type_symbol
 _atom_site_label
 _atom_site_symmetry_multiplicity
 _atom_site_fract_x
 _atom_site_fract_y
 _atom_site_fract_z
 _atom_site_fract_occupancy
 Pt  Pt1  1  0.73753  0.00000  -0.00000  1
 Pt  Pt2  1  0.26247  -0.00000  0.00000  1
 Sr  Sr1  1  0.00000  0.00000  0.00000  1
 Y  Y1  1  0.50000  -0.00000  0.00000  1
