CIF file written using JARVIS-Tools package.
data_CaMn2S4
_symmetry_space_group_name_H-M  'C2/c'
_cell_length_a       7.23649
_cell_length_b       7.3435
_cell_length_c       7.34361
_cell_angle_alpha    89.449
_cell_angle_beta     118.692
_cell_angle_gamma    118.69

_symmetry_Int_Tables_number  15
_chemical_formula_structural  CaMn2S4
_chemical_formula_sum  Ca2Mn4S8
_cell_volume  287.6681087089688
_cell_formula_units_Z  2
loop_
  _symmetry_equiv_pos_site_id
 _symmetry_equiv_pos_as_xyz
 1  'x, y, z'
loop_
 _atom_site_type_symbol
 _atom_site_label
 _atom_site_symmetry_multiplicity
 _atom_site_fract_x
 _atom_site_fract_y
 _atom_site_fract_z
 _atom_site_fract_occupancy
 Ca  Ca1  1  0.00002  0.00001  -0.00002  1
 Ca  Ca2  1  0.50003  0.49998  0.50002  1
 Mn  Mn1  1  -0.00006  0.49998  -0.00004  1
 Mn  Mn2  1  0.50011  0.00002  0.00011  1
 Mn  Mn3  1  0.49994  0.49996  -0.00002  1
 Mn  Mn4  1  0.00010  0.50009  0.50002  1
 S  S1  1  0.95519  0.69865  0.22302  1
 S  S2  1  0.98855  0.27079  0.23979  1
 S  S3  1  0.54466  0.27688  0.80133  1
 S  S4  1  0.48853  0.73978  0.77077  1
 S  S5  1  0.45522  0.72302  0.19865  1
 S  S6  1  0.01149  0.72924  0.76020  1
 S  S7  1  0.51150  0.26019  0.22926  1
 S  S8  1  0.04468  0.30132  0.77689  1
