CIF file written using JARVIS-Tools package.
data_CaH2O2
_symmetry_space_group_name_H-M  'P-3m1'
_cell_length_a       3.5896
_cell_length_b       3.58931
_cell_length_c       4.82374
_cell_angle_alpha    90
_cell_angle_beta     89.9128
_cell_angle_gamma    119.997

_symmetry_Int_Tables_number  164
_chemical_formula_structural  CaH2O2
_chemical_formula_sum  CaH2O2
_cell_volume  53.82484523396151
_cell_formula_units_Z  1
loop_
  _symmetry_equiv_pos_site_id
 _symmetry_equiv_pos_as_xyz
 1  'x, y, z'
loop_
 _atom_site_type_symbol
 _atom_site_label
 _atom_site_symmetry_multiplicity
 _atom_site_fract_x
 _atom_site_fract_y
 _atom_site_fract_z
 _atom_site_fract_occupancy
 Ca  Ca1  1  0.00000  0.93976  0.00000  1
 H  H1  1  0.33403  0.60671  0.55737  1
 H  H2  1  0.66597  0.27268  0.44263  1
 O  O1  1  0.33390  0.60667  0.75979  1
 O  O2  1  0.66610  0.27277  0.24021  1
