CIF file written using JARVIS-Tools package.
data_CrSnRh2
_symmetry_space_group_name_H-M  'Imm2'
_cell_length_a       8.47241
_cell_length_b       5.12637
_cell_length_c       5.12638
_cell_angle_alpha    34.4932
_cell_angle_beta     34.2662
_cell_angle_gamma    34.2662

_symmetry_Int_Tables_number  44
_chemical_formula_structural  CrSnRh2
_chemical_formula_sum  CrSnRh2
_cell_volume  63.194664881947936
_cell_formula_units_Z  1
loop_
  _symmetry_equiv_pos_site_id
 _symmetry_equiv_pos_as_xyz
 1  'x, y, z'
loop_
 _atom_site_type_symbol
 _atom_site_label
 _atom_site_symmetry_multiplicity
 _atom_site_fract_x
 _atom_site_fract_y
 _atom_site_fract_z
 _atom_site_fract_occupancy
 Cr  Cr1  1  0.82828  0.17171  0.17171  1
 Rh  Rh1  1  0.91942  0.82421  0.82421  1
 Rh  Rh2  1  0.43213  0.82424  0.82424  1
 Sn  Sn1  1  0.32017  0.17985  0.17985  1
