CIF file written using JARVIS-Tools package.
data_LiFeP
_symmetry_space_group_name_H-M  'I4mm'
_cell_length_a       2.86788
_cell_length_b       2.86788
_cell_length_c       4.57792
_cell_angle_alpha    108.254
_cell_angle_beta     108.254
_cell_angle_gamma    90

_symmetry_Int_Tables_number  107
_chemical_formula_structural  LiFeP
_chemical_formula_sum  LiFeP
_cell_volume  33.75641530609874
_cell_formula_units_Z  1
loop_
  _symmetry_equiv_pos_site_id
 _symmetry_equiv_pos_as_xyz
 1  'x, y, z'
loop_
 _atom_site_type_symbol
 _atom_site_label
 _atom_site_symmetry_multiplicity
 _atom_site_fract_x
 _atom_site_fract_y
 _atom_site_fract_z
 _atom_site_fract_occupancy
 Fe  Fe1  1  0.22510  0.22510  0.45019  1
 Li  Li1  1  0.53170  0.53170  0.06339  1
 P  P1  1  0.84881  0.84881  0.69762  1
