CIF file written using JARVIS-Tools package.
data_Na3AgS2
_symmetry_space_group_name_H-M  'Ibam'
_cell_length_a       6.39247
_cell_length_b       6.9445
_cell_length_c       7.83423
_cell_angle_alpha    116.309
_cell_angle_beta     114.078
_cell_angle_gamma    89.9999

_symmetry_Int_Tables_number  72
_chemical_formula_structural  Na3AgS2
_chemical_formula_sum  Na6Ag2S4
_cell_volume  277.5959485517018
_cell_formula_units_Z  2
loop_
  _symmetry_equiv_pos_site_id
 _symmetry_equiv_pos_as_xyz
 1  'x, y, z'
loop_
 _atom_site_type_symbol
 _atom_site_label
 _atom_site_symmetry_multiplicity
 _atom_site_fract_x
 _atom_site_fract_y
 _atom_site_fract_z
 _atom_site_fract_occupancy
 Ag  Ag1  1  0.00000  0.50000  0.00000  1
 Ag  Ag2  1  0.00000  0.00000  0.00000  1
 Na  Na1  1  0.50000  0.75000  -0.00000  1
 Na  Na2  1  0.50000  0.25000  -0.00000  1
 Na  Na3  1  0.76839  0.51839  0.53678  1
 Na  Na4  1  0.23161  0.98161  0.46322  1
 Na  Na5  1  0.23161  0.48161  0.46322  1
 Na  Na6  1  0.76839  0.01839  0.53678  1
 S  S1  1  0.14019  0.36811  0.73622  1
 S  S2  1  0.40397  0.13189  0.26378  1
 S  S3  1  0.59603  0.86811  0.73622  1
 S  S4  1  0.85981  0.63189  0.26378  1
