CIF file written using JARVIS-Tools package.
data_Tm5Re2O12
_symmetry_space_group_name_H-M  'C2/m'
_cell_length_a       5.6096
_cell_length_b       6.73645
_cell_length_c       7.42209
_cell_angle_alpha    106.237
_cell_angle_beta     90
_cell_angle_gamma    114.605

_symmetry_Int_Tables_number  12
_chemical_formula_structural  Tm5Re2O12
_chemical_formula_sum  Tm5Re2O2
_cell_volume  242.64654004014508
_cell_formula_units_Z  1
loop_
  _symmetry_equiv_pos_site_id
 _symmetry_equiv_pos_as_xyz
 1  'x, y, z'
loop_
 _atom_site_type_symbol
 _atom_site_label
 _atom_site_symmetry_multiplicity
 _atom_site_fract_x
 _atom_site_fract_y
 _atom_site_fract_z
 _atom_site_fract_occupancy
 O  O1  1  0.41288  0.33565  0.08751  1
 O  O2  1  0.07724  0.66435  0.91249  1
 O  O3  1  0.58712  0.66435  0.91249  1
 O  O4  1  0.92276  0.33565  0.08751  1
 O  O5  1  0.59906  0.69336  0.42803  1
 O  O6  1  0.90570  0.30664  0.57197  1
 O  O7  1  0.40094  0.30664  0.57197  1
 O  O8  1  0.00090  0.00181  0.18183  1
 O  O9  1  0.99910  0.99819  0.81817  1
 O  O10  1  0.49748  0.99496  0.20882  1
 O  O11  1  0.09430  0.69336  0.42803  1
 O  O12  1  0.50252  0.00504  0.79118  1
 Re  Re1  1  0.28438  0.00000  0.00000  1
 Re  Re2  1  0.71562  0.00000  0.00000  1
 Tm  Tm1  1  0.80223  0.60446  0.64041  1
 Tm  Tm2  1  0.19777  0.39554  0.35959  1
 Tm  Tm3  1  0.18538  0.37077  0.82244  1
 Tm  Tm4  1  0.81462  0.62923  0.17756  1
 Tm  Tm5  1  0.50000  0.00000  0.50000  1
