CIF file written using JARVIS-Tools package.
data_Rb2VAgSe4
_symmetry_space_group_name_H-M  'Fddd'
_cell_length_a       5.99906
_cell_length_b       7.47678
_cell_length_c       12.2606
_cell_angle_alpha    84.3675
_cell_angle_beta     75.8389
_cell_angle_gamma    66.3481

_symmetry_Int_Tables_number  70
_chemical_formula_structural  Rb2VAgSe4
_chemical_formula_sum  Rb4V2Ag2Se8
_cell_volume  488.42800067797856
_cell_formula_units_Z  2
loop_
  _symmetry_equiv_pos_site_id
 _symmetry_equiv_pos_as_xyz
 1  'x, y, z'
loop_
 _atom_site_type_symbol
 _atom_site_label
 _atom_site_symmetry_multiplicity
 _atom_site_fract_x
 _atom_site_fract_y
 _atom_site_fract_z
 _atom_site_fract_occupancy
 Ag  Ag1  1  0.37500  0.25000  0.25000  1
 Ag  Ag2  1  0.62500  0.75000  0.75000  1
 Rb  Rb1  1  0.94288  0.75000  0.11424  1
 Rb  Rb2  1  0.30712  0.75000  0.38576  1
 Rb  Rb3  1  0.69288  0.25000  0.61424  1
 Rb  Rb4  1  0.05712  0.25000  0.88576  1
 Se  Se1  1  0.07498  0.54777  0.63388  1
 Se  Se2  1  0.75663  0.95223  0.86612  1
 Se  Se3  1  0.62275  0.45223  0.13388  1
 Se  Se4  1  0.70886  0.04777  0.36612  1
 Se  Se5  1  0.37725  0.54777  0.86612  1
 Se  Se6  1  0.29114  0.95223  0.63388  1
 Se  Se7  1  0.24337  0.04777  0.13388  1
 Se  Se8  1  0.92502  0.45223  0.36612  1
 V  V1  1  0.87500  0.25000  0.25000  1
 V  V2  1  0.12500  0.75000  0.75000  1
