CIF file written using JARVIS-Tools package.
data_ScSi2Tc
_symmetry_space_group_name_H-M  'R-3m'
_cell_length_a       10.4395
_cell_length_b       7.06571
_cell_length_c       4.08298
_cell_angle_alpha    29.9821
_cell_angle_beta     38.5388
_cell_angle_gamma    25.503

_symmetry_Int_Tables_number  166
_chemical_formula_structural  ScSi2Tc
_chemical_formula_sum  ScSi2Tc
_cell_volume  64.80075335365144
_cell_formula_units_Z  1
loop_
  _symmetry_equiv_pos_site_id
 _symmetry_equiv_pos_as_xyz
 1  'x, y, z'
loop_
 _atom_site_type_symbol
 _atom_site_label
 _atom_site_symmetry_multiplicity
 _atom_site_fract_x
 _atom_site_fract_y
 _atom_site_fract_z
 _atom_site_fract_occupancy
 Sc  Sc1  1  1.00000  -0.00000  -0.00000  1
 Si  Si1  1  0.67146  0.10457  0.00039  1
 Si  Si2  1  0.32854  -0.10457  -0.00039  1
 Tc  Tc1  1  0.50000  0.00000  -0.00000  1
