CIF file written using JARVIS-Tools package.
data_H2O
_symmetry_space_group_name_H-M  'P4_2nm'
_cell_length_a       3.40476
_cell_length_b       3.40476
_cell_length_c       3.22404
_cell_angle_alpha    90
_cell_angle_beta     90
_cell_angle_gamma    90

_symmetry_Int_Tables_number  102
_chemical_formula_structural  H2O
_chemical_formula_sum  H4O2
_cell_volume  37.374315341469206
_cell_formula_units_Z  2
loop_
  _symmetry_equiv_pos_site_id
 _symmetry_equiv_pos_as_xyz
 1  'x, y, z'
loop_
 _atom_site_type_symbol
 _atom_site_label
 _atom_site_symmetry_multiplicity
 _atom_site_fract_x
 _atom_site_fract_y
 _atom_site_fract_z
 _atom_site_fract_occupancy
 H  H1  1  0.33496  0.33496  0.32482  1
 H  H2  1  0.66504  0.66504  0.32482  1
 H  H3  1  0.83496  0.16504  0.82482  1
 H  H4  1  0.16504  0.83496  0.82482  1
 O  O1  1  0.00000  0.00000  0.01036  1
 O  O2  1  0.50000  0.50000  0.51036  1
