CIF file written using JARVIS-Tools package.
data_HfIr
_symmetry_space_group_name_H-M  'P2_1/m'
_cell_length_a       3.13978
_cell_length_b       4.49337
_cell_length_c       5.21538
_cell_angle_alpha    90
_cell_angle_beta     103.167
_cell_angle_gamma    90

_symmetry_Int_Tables_number  11
_chemical_formula_structural  HfIr
_chemical_formula_sum  Hf2Ir2
_cell_volume  71.64523007313804
_cell_formula_units_Z  2
loop_
  _symmetry_equiv_pos_site_id
 _symmetry_equiv_pos_as_xyz
 1  'x, y, z'
loop_
 _atom_site_type_symbol
 _atom_site_label
 _atom_site_symmetry_multiplicity
 _atom_site_fract_x
 _atom_site_fract_y
 _atom_site_fract_z
 _atom_site_fract_occupancy
 Hf  Hf1  1  0.11461  0.25000  0.78347  1
 Hf  Hf2  1  0.88539  0.75000  0.21653  1
 Ir  Ir1  1  0.42387  0.25000  0.31094  1
 Ir  Ir2  1  0.57613  0.75000  0.68906  1
