CIF file written using JARVIS-Tools package.
data_NaCaHg2
_symmetry_space_group_name_H-M  'Immm'
_cell_length_a       12.2863
_cell_length_b       7.09838
_cell_length_c       7.09838
_cell_angle_alpha    28.4526
_cell_angle_beta     30.068
_cell_angle_gamma    30.068

_symmetry_Int_Tables_number  71
_chemical_formula_structural  NaCaHg2
_chemical_formula_sum  NaCaHg2
_cell_volume  132.8525226695359
_cell_formula_units_Z  1
loop_
  _symmetry_equiv_pos_site_id
 _symmetry_equiv_pos_as_xyz
 1  'x, y, z'
loop_
 _atom_site_type_symbol
 _atom_site_label
 _atom_site_symmetry_multiplicity
 _atom_site_fract_x
 _atom_site_fract_y
 _atom_site_fract_z
 _atom_site_fract_occupancy
 Ca  Ca1  1  0.50000  0.00000  -0.00000  1
 Hg  Hg1  1  0.75305  0.00000  0.00000  1
 Hg  Hg2  1  0.24695  -0.00000  -0.00000  1
 Na  Na1  1  0.00000  0.00000  0.00000  1
