CIF file written using JARVIS-Tools package.
data_Na2Ta4O11
_symmetry_space_group_name_H-M  'R-3c'
_cell_length_a       12.8429
_cell_length_b       12.8429
_cell_length_c       12.8429
_cell_angle_alpha    28.1848
_cell_angle_beta     28.1848
_cell_angle_gamma    28.1848

_symmetry_Int_Tables_number  167
_chemical_formula_structural  Na2Ta4O11
_chemical_formula_sum  Na4Ta8O22
_cell_volume  417.49540432390074
_cell_formula_units_Z  2
loop_
  _symmetry_equiv_pos_site_id
 _symmetry_equiv_pos_as_xyz
 1  'x, y, z'
loop_
 _atom_site_type_symbol
 _atom_site_label
 _atom_site_symmetry_multiplicity
 _atom_site_fract_x
 _atom_site_fract_y
 _atom_site_fract_z
 _atom_site_fract_occupancy
 Na  Na1  1  0.83373  0.83373  0.83373  1
 Na  Na2  1  0.16627  0.16627  0.16627  1
 Na  Na3  1  0.33373  0.33373  0.33373  1
 Na  Na4  1  0.66627  0.66627  0.66627  1
 O  O1  1  0.00122  0.49878  0.25000  1
 O  O2  1  0.24712  0.72214  0.93893  1
 O  O3  1  0.93893  0.24712  0.72214  1
 O  O4  1  0.72214  0.93893  0.24712  1
 O  O5  1  0.77786  0.25288  0.56107  1
 O  O6  1  0.56107  0.77786  0.25288  1
 O  O7  1  0.75288  0.27786  0.06107  1
 O  O8  1  0.25000  0.00122  0.49878  1
 O  O9  1  0.06107  0.75288  0.27786  1
 O  O10  1  0.27786  0.06107  0.75288  1
 O  O11  1  0.22214  0.74712  0.43893  1
 O  O12  1  0.43893  0.22214  0.74712  1
 O  O13  1  0.25288  0.56107  0.77786  1
 O  O14  1  0.49878  0.25000  0.00122  1
 O  O15  1  0.09392  0.09392  0.09392  1
 O  O16  1  0.99878  0.50122  0.75000  1
 O  O17  1  0.40608  0.40608  0.40608  1
 O  O18  1  0.90608  0.90608  0.90608  1
 O  O19  1  0.59392  0.59392  0.59392  1
 O  O20  1  0.50122  0.75000  0.99878  1
 O  O21  1  0.74712  0.43893  0.22214  1
 O  O22  1  0.75000  0.99878  0.50122  1
 Ta  Ta1  1  0.75000  0.38612  0.11388  1
 Ta  Ta2  1  0.61388  0.88612  0.25000  1
 Ta  Ta3  1  0.38612  0.11388  0.75000  1
 Ta  Ta4  1  0.88612  0.25000  0.61388  1
 Ta  Ta5  1  0.00000  0.00000  0.00000  1
 Ta  Ta6  1  0.50000  0.50000  0.50000  1
 Ta  Ta7  1  0.11388  0.75000  0.38612  1
 Ta  Ta8  1  0.25000  0.61388  0.88612  1
