CIF file written using JARVIS-Tools package.
data_Zr2OsPd
_symmetry_space_group_name_H-M  'Immm'
_cell_length_a       10.3162
_cell_length_b       5.93433
_cell_length_c       5.93433
_cell_angle_alpha    50.8783
_cell_angle_beta     29.6344
_cell_angle_gamma    29.6344

_symmetry_Int_Tables_number  71
_chemical_formula_structural  Zr2OsPd
_chemical_formula_sum  Zr2OsPd
_cell_volume  76.4383756953819
_cell_formula_units_Z  1
loop_
  _symmetry_equiv_pos_site_id
 _symmetry_equiv_pos_as_xyz
 1  'x, y, z'
loop_
 _atom_site_type_symbol
 _atom_site_label
 _atom_site_symmetry_multiplicity
 _atom_site_fract_x
 _atom_site_fract_y
 _atom_site_fract_z
 _atom_site_fract_occupancy
 Os  Os1  1  0.50000  -0.00000  0.00000  1
 Pd  Pd1  1  0.00000  0.00000  0.00000  1
 Zr  Zr1  1  0.74579  -0.00000  -0.00000  1
 Zr  Zr2  1  0.25421  0.00000  0.00000  1
