CIF file written using JARVIS-Tools package.
data_Li2CdGeO4
_symmetry_space_group_name_H-M  'Pmn2_1'
_cell_length_a       5.18408
_cell_length_b       5.47034
_cell_length_c       6.69794
_cell_angle_alpha    90
_cell_angle_beta     90
_cell_angle_gamma    90

_symmetry_Int_Tables_number  31
_chemical_formula_structural  Li2CdGeO4
_chemical_formula_sum  Li4Cd2Ge2O8
_cell_volume  189.9445876913858
_cell_formula_units_Z  2
loop_
  _symmetry_equiv_pos_site_id
 _symmetry_equiv_pos_as_xyz
 1  'x, y, z'
loop_
 _atom_site_type_symbol
 _atom_site_label
 _atom_site_symmetry_multiplicity
 _atom_site_fract_x
 _atom_site_fract_y
 _atom_site_fract_z
 _atom_site_fract_occupancy
 Cd  Cd1  1  0.49048  0.18450  0.50000  1
 Cd  Cd2  1  0.99048  0.81550  0.00000  1
 Ge  Ge1  1  0.48166  0.18643  0.00000  1
 Ge  Ge2  1  0.98166  0.81357  0.50000  1
 Li  Li1  1  0.98789  0.32910  0.24994  1
 Li  Li2  1  0.48789  0.67090  0.74994  1
 Li  Li3  1  0.98789  0.32910  0.75006  1
 Li  Li4  1  0.48789  0.67090  0.25006  1
 O  O1  1  0.56088  0.86609  0.00000  1
 O  O2  1  0.13726  0.20533  0.00000  1
 O  O3  1  0.06088  0.13391  0.50000  1
 O  O4  1  0.63726  0.79467  0.50000  1
 O  O5  1  0.11297  0.66185  0.28690  1
 O  O6  1  0.61297  0.33815  0.21310  1
 O  O7  1  0.61297  0.33815  0.78690  1
 O  O8  1  0.11297  0.66185  0.71310  1
