CIF file written using JARVIS-Tools package.
data_Mg2AgPd
_symmetry_space_group_name_H-M  'Immm'
_cell_length_a       13.4926
_cell_length_b       7.27064
_cell_length_c       7.27064
_cell_angle_alpha    23.2386
_cell_angle_beta     21.8933
_cell_angle_gamma    21.8933

_symmetry_Int_Tables_number  71
_chemical_formula_structural  Mg2AgPd
_chemical_formula_sum  Mg2AgPd
_cell_volume  90.15847272113238
_cell_formula_units_Z  1
loop_
  _symmetry_equiv_pos_site_id
 _symmetry_equiv_pos_as_xyz
 1  'x, y, z'
loop_
 _atom_site_type_symbol
 _atom_site_label
 _atom_site_symmetry_multiplicity
 _atom_site_fract_x
 _atom_site_fract_y
 _atom_site_fract_z
 _atom_site_fract_occupancy
 Ag  Ag1  1  0.50000  0.00000  -0.00000  1
 Mg  Mg1  1  0.81374  -0.00000  0.00000  1
 Mg  Mg2  1  0.18626  0.00000  -0.00000  1
 Pd  Pd1  1  0.00000  0.00000  0.00000  1
