CIF file written using JARVIS-Tools package.
data_In2S3
_symmetry_space_group_name_H-M  'R-3c'
_cell_length_a       7.06958
_cell_length_b       7.06958
_cell_length_c       7.06957
_cell_angle_alpha    56.2107
_cell_angle_beta     56.2107
_cell_angle_gamma    56.2107

_symmetry_Int_Tables_number  167
_chemical_formula_structural  In2S3
_chemical_formula_sum  In4S6
_cell_volume  227.9301559309368
_cell_formula_units_Z  2
loop_
  _symmetry_equiv_pos_site_id
 _symmetry_equiv_pos_as_xyz
 1  'x, y, z'
loop_
 _atom_site_type_symbol
 _atom_site_label
 _atom_site_symmetry_multiplicity
 _atom_site_fract_x
 _atom_site_fract_y
 _atom_site_fract_z
 _atom_site_fract_occupancy
 In  In1  1  0.85623  0.85623  0.85623  1
 In  In2  1  0.64377  0.64377  0.64377  1
 In  In3  1  0.14377  0.14377  0.14377  1
 In  In4  1  0.35623  0.35623  0.35623  1
 S  S1  1  0.04788  0.75000  0.45212  1
 S  S2  1  0.75000  0.45212  0.04788  1
 S  S3  1  0.45212  0.04788  0.75000  1
 S  S4  1  0.95212  0.25000  0.54788  1
 S  S5  1  0.54788  0.95212  0.25000  1
 S  S6  1  0.25000  0.54788  0.95212  1
