CIF file written using JARVIS-Tools package.
data_MnBeIr2
_symmetry_space_group_name_H-M  'I4/mmm'
_cell_length_a       12.5187
_cell_length_b       6.59357
_cell_length_c       6.59356
_cell_angle_alpha    25.6902
_cell_angle_beta     18.3203
_cell_angle_gamma    18.3203

_symmetry_Int_Tables_number  139
_chemical_formula_structural  MnBeIr2
_chemical_formula_sum  MnBeIr2
_cell_volume  53.77335019857763
_cell_formula_units_Z  1
loop_
  _symmetry_equiv_pos_site_id
 _symmetry_equiv_pos_as_xyz
 1  'x, y, z'
loop_
 _atom_site_type_symbol
 _atom_site_label
 _atom_site_symmetry_multiplicity
 _atom_site_fract_x
 _atom_site_fract_y
 _atom_site_fract_z
 _atom_site_fract_occupancy
 Be  Be1  1  0.00000  0.00000  0.00000  1
 Ir  Ir1  1  0.68264  -0.00000  0.00000  1
 Ir  Ir2  1  0.31736  0.00000  -0.00000  1
 Mn  Mn1  1  0.50000  -0.00000  -0.00000  1
