CIF file written using JARVIS-Tools package.
data_Sr2LiIr
_symmetry_space_group_name_H-M  'I4/mmm'
_cell_length_a       17.6083
_cell_length_b       9.17869
_cell_length_c       9.17869
_cell_angle_alpha    23.0742
_cell_angle_beta     16.4241
_cell_angle_gamma    16.4241

_symmetry_Int_Tables_number  139
_chemical_formula_structural  Sr2LiIr
_chemical_formula_sum  Sr2LiIr
_cell_volume  118.59558781029602
_cell_formula_units_Z  1
loop_
  _symmetry_equiv_pos_site_id
 _symmetry_equiv_pos_as_xyz
 1  'x, y, z'
loop_
 _atom_site_type_symbol
 _atom_site_label
 _atom_site_symmetry_multiplicity
 _atom_site_fract_x
 _atom_site_fract_y
 _atom_site_fract_z
 _atom_site_fract_occupancy
 Ir  Ir1  1  0.50000  -0.00000  -0.00000  1
 Li  Li1  1  0.00000  0.00000  0.00000  1
 Sr  Sr1  1  0.65437  -0.00000  0.00000  1
 Sr  Sr2  1  0.34563  0.00000  -0.00000  1
