CIF file written using JARVIS-Tools package.
data_ScAg2Hg
_symmetry_space_group_name_H-M  'C2/m'
_cell_length_a       11.9406
_cell_length_b       7.90448
_cell_length_c       7.90486
_cell_angle_alpha    24.5969
_cell_angle_beta     19.0679
_cell_angle_gamma    19.0692

_symmetry_Int_Tables_number  12
_chemical_formula_structural  ScAg2Hg
_chemical_formula_sum  ScAg2Hg
_cell_volume  78.73345102158922
_cell_formula_units_Z  1
loop_
  _symmetry_equiv_pos_site_id
 _symmetry_equiv_pos_as_xyz
 1  'x, y, z'
loop_
 _atom_site_type_symbol
 _atom_site_label
 _atom_site_symmetry_multiplicity
 _atom_site_fract_x
 _atom_site_fract_y
 _atom_site_fract_z
 _atom_site_fract_occupancy
 Ag  Ag1  1  0.73201  0.01404  0.01400  1
 Ag  Ag2  1  0.26799  -0.01404  -0.01400  1
 Hg  Hg1  1  0.50000  0.00000  -0.00000  1
 Sc  Sc1  1  0.00000  0.00000  -0.00000  1
