CIF file written using JARVIS-Tools package.
data_MgMn2S4
_symmetry_space_group_name_H-M  'Fd-3m'
_cell_length_a       7.26315
_cell_length_b       7.26315
_cell_length_c       7.2621
_cell_angle_alpha    120.005
_cell_angle_beta     120.005
_cell_angle_gamma    90

_symmetry_Int_Tables_number  227
_chemical_formula_structural  MgMn2S4
_chemical_formula_sum  Mg2Mn4S8
_cell_volume  270.8536356738709
_cell_formula_units_Z  2
loop_
  _symmetry_equiv_pos_site_id
 _symmetry_equiv_pos_as_xyz
 1  'x, y, z'
loop_
 _atom_site_type_symbol
 _atom_site_label
 _atom_site_symmetry_multiplicity
 _atom_site_fract_x
 _atom_site_fract_y
 _atom_site_fract_z
 _atom_site_fract_occupancy
 Mg  Mg1  1  0.37500  0.62500  0.75000  1
 Mg  Mg2  1  0.62500  0.37500  0.25000  1
 Mn  Mn1  1  -0.00000  -0.00000  0.50000  1
 Mn  Mn2  1  -0.00000  0.50000  -0.00000  1
 Mn  Mn3  1  0.50000  -0.00000  0.50000  1
 Mn  Mn4  1  0.00000  0.00000  0.00000  1
 S  S1  1  0.76150  0.78458  0.52301  1
 S  S2  1  0.76158  0.23850  0.97699  1
 S  S3  1  0.21542  0.23850  0.97699  1
 S  S4  1  0.23850  0.21542  0.47699  1
 S  S5  1  0.23850  0.76158  0.47699  1
 S  S6  1  0.23842  0.76150  0.02301  1
 S  S7  1  0.76150  0.23842  0.52301  1
 S  S8  1  0.78458  0.76150  0.02301  1
