CIF file written using JARVIS-Tools package.
data_BeCo2P
_symmetry_space_group_name_H-M  'Immm'
_cell_length_a       10.2493
_cell_length_b       5.58286
_cell_length_c       5.58287
_cell_angle_alpha    37.4107
_cell_angle_beta     23.3759
_cell_angle_gamma    23.3759

_symmetry_Int_Tables_number  71
_chemical_formula_structural  BeCo2P
_chemical_formula_sum  BeCo2P
_cell_volume  47.86494761414072
_cell_formula_units_Z  1
loop_
  _symmetry_equiv_pos_site_id
 _symmetry_equiv_pos_as_xyz
 1  'x, y, z'
loop_
 _atom_site_type_symbol
 _atom_site_label
 _atom_site_symmetry_multiplicity
 _atom_site_fract_x
 _atom_site_fract_y
 _atom_site_fract_z
 _atom_site_fract_occupancy
 Be  Be1  1  0.00000  0.00000  0.00000  1
 Co  Co1  1  0.71217  -0.00000  0.00000  1
 Co  Co2  1  0.28783  0.00000  -0.00000  1
 P  P1  1  0.50000  -0.00000  -0.00000  1
