CIF file written using JARVIS-Tools package.
data_NaTl2Hg
_symmetry_space_group_name_H-M  'Immm'
_cell_length_a       12.9523
_cell_length_b       7.25013
_cell_length_c       7.25012
_cell_angle_alpha    23.2837
_cell_angle_beta     26.7159
_cell_angle_gamma    26.7158

_symmetry_Int_Tables_number  71
_chemical_formula_structural  NaTl2Hg
_chemical_formula_sum  NaTl2Hg
_cell_volume  110.3855142217487
_cell_formula_units_Z  1
loop_
  _symmetry_equiv_pos_site_id
 _symmetry_equiv_pos_as_xyz
 1  'x, y, z'
loop_
 _atom_site_type_symbol
 _atom_site_label
 _atom_site_symmetry_multiplicity
 _atom_site_fract_x
 _atom_site_fract_y
 _atom_site_fract_z
 _atom_site_fract_occupancy
 Hg  Hg1  1  0.50000  -0.00000  0.00000  1
 Na  Na1  1  0.00000  0.00000  0.00000  1
 Tl  Tl1  1  0.73899  -0.00000  0.00000  1
 Tl  Tl2  1  0.26101  0.00000  -0.00000  1
