CIF file written using JARVIS-Tools package.
data_Ti2MoAu
_symmetry_space_group_name_H-M  'P2/m'
_cell_length_a       10.7033
_cell_length_b       6.94665
_cell_length_c       7.9393
_cell_angle_alpha    20.626
_cell_angle_beta     19.5811
_cell_angle_gamma    22.537

_symmetry_Int_Tables_number  10
_chemical_formula_structural  Ti2MoAu
_chemical_formula_sum  Ti2MoAu
_cell_volume  65.16333817259948
_cell_formula_units_Z  1
loop_
  _symmetry_equiv_pos_site_id
 _symmetry_equiv_pos_as_xyz
 1  'x, y, z'
loop_
 _atom_site_type_symbol
 _atom_site_label
 _atom_site_symmetry_multiplicity
 _atom_site_fract_x
 _atom_site_fract_y
 _atom_site_fract_z
 _atom_site_fract_occupancy
 Au  Au1  1  0.49999  -0.00002  0.00003  1
 Mo  Mo1  1  -0.00000  0.00002  -0.00002  1
 Ti  Ti1  1  0.73093  -0.05860  0.09759  1
 Ti  Ti2  1  0.26908  0.05861  -0.09760  1
