CIF file written using JARVIS-Tools package.
data_VMo2S4
_symmetry_space_group_name_H-M  'C2/m'
_cell_length_a       3.17316
_cell_length_b       5.99484
_cell_length_c       6.61113
_cell_angle_alpha    113.33
_cell_angle_beta     103.886
_cell_angle_gamma    90

_symmetry_Int_Tables_number  12
_chemical_formula_structural  VMo2S4
_chemical_formula_sum  VMo2S4
_cell_volume  111.4651179171802
_cell_formula_units_Z  1
loop_
  _symmetry_equiv_pos_site_id
 _symmetry_equiv_pos_as_xyz
 1  'x, y, z'
loop_
 _atom_site_type_symbol
 _atom_site_label
 _atom_site_symmetry_multiplicity
 _atom_site_fract_x
 _atom_site_fract_y
 _atom_site_fract_z
 _atom_site_fract_occupancy
 Mo  Mo1  1  0.25937  0.31433  0.51874  1
 Mo  Mo2  1  0.74063  0.68567  0.48126  1
 S  S1  1  0.89663  0.56519  0.79327  1
 S  S2  1  0.63498  0.97067  0.26995  1
 S  S3  1  0.36502  0.02933  0.73005  1
 S  S4  1  0.10337  0.43481  0.20673  1
 V  V1  1  0.00000  0.00000  0.00000  1
