CIF file written using JARVIS-Tools package.
data_LiHfAu2
_symmetry_space_group_name_H-M  'Immm'
_cell_length_a       10.3925
_cell_length_b       5.93759
_cell_length_c       5.93758
_cell_angle_alpha    49.6496
_cell_angle_beta     28.9374
_cell_angle_gamma    28.9374

_symmetry_Int_Tables_number  71
_chemical_formula_structural  LiHfAu2
_chemical_formula_sum  LiHfAu2
_cell_volume  73.99355149731461
_cell_formula_units_Z  1
loop_
  _symmetry_equiv_pos_site_id
 _symmetry_equiv_pos_as_xyz
 1  'x, y, z'
loop_
 _atom_site_type_symbol
 _atom_site_label
 _atom_site_symmetry_multiplicity
 _atom_site_fract_x
 _atom_site_fract_y
 _atom_site_fract_z
 _atom_site_fract_occupancy
 Au  Au1  1  0.76907  -0.00000  -0.00000  1
 Au  Au2  1  0.23093  0.00000  0.00000  1
 Hf  Hf1  1  0.50000  0.00000  -0.00000  1
 Li  Li1  1  0.00000  0.00000  0.00000  1
