CIF file written using JARVIS-Tools package.
data_Ge
_symmetry_space_group_name_H-M  'P6_3/mmc'
_cell_length_a       3.91367
_cell_length_b       3.91367
_cell_length_c       6.29725
_cell_angle_alpha    90
_cell_angle_beta     90
_cell_angle_gamma    120.008

_symmetry_Int_Tables_number  194
_chemical_formula_structural  Ge
_chemical_formula_sum  Ge4
_cell_volume  83.5242870829389
_cell_formula_units_Z  4
loop_
  _symmetry_equiv_pos_site_id
 _symmetry_equiv_pos_as_xyz
 1  'x, y, z'
loop_
 _atom_site_type_symbol
 _atom_site_label
 _atom_site_symmetry_multiplicity
 _atom_site_fract_x
 _atom_site_fract_y
 _atom_site_fract_z
 _atom_site_fract_occupancy
 Ge  Ge1  1  -0.00001  0.00001  0.57113  1
 Ge  Ge2  1  0.00001  -0.00001  0.07113  1
 Ge  Ge3  1  0.66671  0.33329  0.32117  1
 Ge  Ge4  1  0.33329  0.66671  0.82117  1
