CIF file written using JARVIS-Tools package.
data_CaYAg2
_symmetry_space_group_name_H-M  'Immm'
_cell_length_a       11.6169
_cell_length_b       6.66309
_cell_length_c       6.66309
_cell_angle_alpha    28.0783
_cell_angle_beta     29.3388
_cell_angle_gamma    29.3388

_symmetry_Int_Tables_number  71
_chemical_formula_structural  CaYAg2
_chemical_formula_sum  CaYAg2
_cell_volume  106.52379395903287
_cell_formula_units_Z  1
loop_
  _symmetry_equiv_pos_site_id
 _symmetry_equiv_pos_as_xyz
 1  'x, y, z'
loop_
 _atom_site_type_symbol
 _atom_site_label
 _atom_site_symmetry_multiplicity
 _atom_site_fract_x
 _atom_site_fract_y
 _atom_site_fract_z
 _atom_site_fract_occupancy
 Ag  Ag1  1  0.74903  0.00000  0.00000  1
 Ag  Ag2  1  0.25097  -0.00000  -0.00000  1
 Ca  Ca1  1  0.00000  0.00000  0.00000  1
 Y  Y1  1  0.50000  -0.00000  -0.00000  1
