CIF file written using JARVIS-Tools package.
data_LiAuF4
_symmetry_space_group_name_H-M  'C2/c'
_cell_length_a       4.87118
_cell_length_b       6.38706
_cell_length_c       6.31689
_cell_angle_alpha    59.6318
_cell_angle_beta     70.0107
_cell_angle_gamma    90

_symmetry_Int_Tables_number  15
_chemical_formula_structural  LiAuF4
_chemical_formula_sum  Li2Au2F8
_cell_volume  155.6917212827154
_cell_formula_units_Z  2
loop_
  _symmetry_equiv_pos_site_id
 _symmetry_equiv_pos_as_xyz
 1  'x, y, z'
loop_
 _atom_site_type_symbol
 _atom_site_label
 _atom_site_symmetry_multiplicity
 _atom_site_fract_x
 _atom_site_fract_y
 _atom_site_fract_z
 _atom_site_fract_occupancy
 Au  Au1  1  -0.00000  0.49998  0.00000  1
 Au  Au2  1  0.50000  0.00002  0.00000  1
 F  F1  1  0.82656  0.72054  0.75110  1
 F  F2  1  0.32656  0.02837  0.75110  1
 F  F3  1  0.82329  0.29026  0.71782  1
 F  F4  1  0.32329  0.49193  0.71782  1
 F  F5  1  0.17671  0.70977  0.28217  1
 F  F6  1  0.67671  0.50806  0.28217  1
 F  F7  1  0.17342  0.27944  0.24892  1
 F  F8  1  0.67342  0.97165  0.24892  1
 Li  Li1  1  0.75002  0.66142  0.49999  1
 Li  Li2  1  0.25002  0.33859  0.49999  1
