CIF file written using JARVIS-Tools package.
data_NdSbPd
_symmetry_space_group_name_H-M  'Pmma'
_cell_length_a       4.53555
_cell_length_b       8.04118
_cell_length_c       8.19604
_cell_angle_alpha    90
_cell_angle_beta     90
_cell_angle_gamma    90

_symmetry_Int_Tables_number  51
_chemical_formula_structural  NdSbPd
_chemical_formula_sum  Nd4Sb4Pd4
_cell_volume  298.9189840204976
_cell_formula_units_Z  4
loop_
  _symmetry_equiv_pos_site_id
 _symmetry_equiv_pos_as_xyz
 1  'x, y, z'
loop_
 _atom_site_type_symbol
 _atom_site_label
 _atom_site_symmetry_multiplicity
 _atom_site_fract_x
 _atom_site_fract_y
 _atom_site_fract_z
 _atom_site_fract_occupancy
 Nd  Nd1  1  0.50000  0.75000  0.50035  1
 Nd  Nd2  1  0.00000  0.75000  0.99966  1
 Nd  Nd3  1  0.50000  0.25000  0.49965  1
 Nd  Nd4  1  0.00000  0.25000  0.00034  1
 Pd  Pd1  1  0.00000  0.50048  0.33614  1
 Pd  Pd2  1  0.00000  0.49952  0.66386  1
 Pd  Pd3  1  0.00000  0.99952  0.33614  1
 Pd  Pd4  1  0.00000  0.00048  0.66386  1
 Sb  Sb1  1  0.50000  0.49980  0.82128  1
 Sb  Sb2  1  0.50000  0.99980  0.17872  1
 Sb  Sb3  1  0.50000  0.50020  0.17872  1
 Sb  Sb4  1  0.50000  0.00020  0.82128  1
