CIF file written using JARVIS-Tools package.
data_H2W2O7
_symmetry_space_group_name_H-M  'P1'
_cell_length_a       6.71157
_cell_length_b       6.95773
_cell_length_c       7.24201
_cell_angle_alpha    114.793
_cell_angle_beta     90.7268
_cell_angle_gamma    113.072

_symmetry_Int_Tables_number  1
_chemical_formula_structural  H2W2O7
_chemical_formula_sum  H4W4O4
_cell_volume  276.03635543857337
_cell_formula_units_Z  2
loop_
  _symmetry_equiv_pos_site_id
 _symmetry_equiv_pos_as_xyz
 1  'x, y, z'
loop_
 _atom_site_type_symbol
 _atom_site_label
 _atom_site_symmetry_multiplicity
 _atom_site_fract_x
 _atom_site_fract_y
 _atom_site_fract_z
 _atom_site_fract_occupancy
 H  H1  1  0.61369  0.59968  -0.01173  1
 H  H2  1  0.35268  0.88507  0.54746  1
 H  H3  1  0.37750  0.07085  0.06871  1
 H  H4  1  0.85961  0.35671  0.75912  1
 O  O1  1  0.73818  0.62560  0.91154  1
 O  O2  1  0.20030  0.85975  0.49294  1
 O  O3  1  0.82562  0.73994  0.47162  1
 O  O4  1  0.66501  0.35033  0.39411  1
 O  O5  1  0.07195  0.74839  0.78894  1
 O  O6  1  0.06727  0.12360  0.83304  1
 O  O7  1  0.28192  0.13639  0.14783  1
 O  O8  1  0.90838  0.29902  0.62689  1
 O  O9  1  0.48248  0.75150  0.60285  1
 O  O10  1  0.48131  0.57918  0.17578  1
 O  O11  1  0.74044  0.04904  0.01188  1
 O  O12  1  0.32448  0.31172  0.58374  1
 O  O13  1  0.94300  0.98430  0.28359  1
 O  O14  1  0.12269  0.42293  0.33906  1
 W  W1  1  0.93893  0.94984  0.01385  1
 W  W2  1  0.47028  0.50496  0.37867  1
 W  W3  1  0.06821  0.09327  0.57013  1
 W  W4  1  0.96606  0.55796  0.50999  1
