CIF file written using JARVIS-Tools package.
data_Sr2ZnCd
_symmetry_space_group_name_H-M  'C2/m'
_cell_length_a       13.2409
_cell_length_b       10.4174
_cell_length_c       10.4174
_cell_angle_alpha    25.7575
_cell_angle_beta     18.5612
_cell_angle_gamma    18.5611

_symmetry_Int_Tables_number  12
_chemical_formula_structural  Sr2ZnCd
_chemical_formula_sum  Sr2ZnCd
_cell_volume  145.56981241646145
_cell_formula_units_Z  1
loop_
  _symmetry_equiv_pos_site_id
 _symmetry_equiv_pos_as_xyz
 1  'x, y, z'
loop_
 _atom_site_type_symbol
 _atom_site_label
 _atom_site_symmetry_multiplicity
 _atom_site_fract_x
 _atom_site_fract_y
 _atom_site_fract_z
 _atom_site_fract_occupancy
 Cd  Cd1  1  0.50000  -0.00000  -0.00000  1
 Sr  Sr1  1  0.73085  0.01523  0.01523  1
 Sr  Sr2  1  0.26915  -0.01523  -0.01523  1
 Zn  Zn1  1  0.00000  0.00000  0.00000  1
