CIF file written using JARVIS-Tools package.
data_EuZnGe
_symmetry_space_group_name_H-M  'P6/mmm'
_cell_length_a       4.50328
_cell_length_b       4.50328
_cell_length_c       7.2137
_cell_angle_alpha    90
_cell_angle_beta     90
_cell_angle_gamma    120

_symmetry_Int_Tables_number  191
_chemical_formula_structural  EuZnGe
_chemical_formula_sum  Eu2Zn2Ge2
_cell_volume  126.69112744303749
_cell_formula_units_Z  2
loop_
  _symmetry_equiv_pos_site_id
 _symmetry_equiv_pos_as_xyz
 1  'x, y, z'
loop_
 _atom_site_type_symbol
 _atom_site_label
 _atom_site_symmetry_multiplicity
 _atom_site_fract_x
 _atom_site_fract_y
 _atom_site_fract_z
 _atom_site_fract_occupancy
 Eu  Eu1  1  0.00003  0.00003  0.75703  1
 Eu  Eu2  1  0.00003  0.00003  0.24297  1
 Ge  Ge1  1  0.66670  0.33337  0.50000  1
 Ge  Ge2  1  0.33337  0.66670  0.50000  1
 Zn  Zn1  1  0.66670  0.33337  0.00000  1
 Zn  Zn2  1  0.33337  0.66670  0.00000  1
