CIF file written using JARVIS-Tools package.
data_PdN
_symmetry_space_group_name_H-M  'Cmcm'
_cell_length_a       3.02755
_cell_length_b       3.93806
_cell_length_c       4.26453
_cell_angle_alpha    90
_cell_angle_beta     90
_cell_angle_gamma    112.606

_symmetry_Int_Tables_number  63
_chemical_formula_structural  PdN
_chemical_formula_sum  Pd2N2
_cell_volume  46.93815913434935
_cell_formula_units_Z  2
loop_
  _symmetry_equiv_pos_site_id
 _symmetry_equiv_pos_as_xyz
 1  'x, y, z'
loop_
 _atom_site_type_symbol
 _atom_site_label
 _atom_site_symmetry_multiplicity
 _atom_site_fract_x
 _atom_site_fract_y
 _atom_site_fract_z
 _atom_site_fract_occupancy
 N  N1  1  0.32833  0.65666  0.75000  1
 N  N2  1  0.67167  0.34334  0.25000  1
 Pd  Pd1  1  0.38555  0.77110  0.25000  1
 Pd  Pd2  1  0.61445  0.22890  0.75000  1
