CIF file written using JARVIS-Tools package.
data_MnGaPd2
_symmetry_space_group_name_H-M  'Immm'
_cell_length_a       10.1611
_cell_length_b       5.74863
_cell_length_c       5.74863
_cell_angle_alpha    27.8861
_cell_angle_beta     27.8972
_cell_angle_gamma    27.8972

_symmetry_Int_Tables_number  71
_chemical_formula_structural  MnGaPd2
_chemical_formula_sum  MnGaPd2
_cell_volume  64.90222724863892
_cell_formula_units_Z  1
loop_
  _symmetry_equiv_pos_site_id
 _symmetry_equiv_pos_as_xyz
 1  'x, y, z'
loop_
 _atom_site_type_symbol
 _atom_site_label
 _atom_site_symmetry_multiplicity
 _atom_site_fract_x
 _atom_site_fract_y
 _atom_site_fract_z
 _atom_site_fract_occupancy
 Ga  Ga1  1  0.50000  -0.00000  0.00000  1
 Mn  Mn1  1  0.00000  0.00000  0.00000  1
 Pd  Pd1  1  0.74928  -0.00000  0.00000  1
 Pd  Pd2  1  0.25072  0.00000  -0.00000  1
