CIF file written using JARVIS-Tools package.
data_CaFe2S4
_symmetry_space_group_name_H-M  'Imma'
_cell_length_a       6.88241
_cell_length_b       7.02646
_cell_length_c       7.02635
_cell_angle_alpha    61.9296
_cell_angle_beta     60.6729
_cell_angle_gamma    60.6734

_symmetry_Int_Tables_number  74
_chemical_formula_structural  CaFe2S4
_chemical_formula_sum  Ca2Fe4S8
_cell_volume  246.094708506159
_cell_formula_units_Z  2
loop_
  _symmetry_equiv_pos_site_id
 _symmetry_equiv_pos_as_xyz
 1  'x, y, z'
loop_
 _atom_site_type_symbol
 _atom_site_label
 _atom_site_symmetry_multiplicity
 _atom_site_fract_x
 _atom_site_fract_y
 _atom_site_fract_z
 _atom_site_fract_occupancy
 Ca  Ca1  1  0.99999  0.00001  0.00000  1
 Ca  Ca2  1  0.00001  0.50000  0.49998  1
 Fe  Fe1  1  0.49999  -0.00001  0.50000  1
 Fe  Fe2  1  0.50001  0.00000  0.99998  1
 Fe  Fe3  1  0.00003  0.99999  0.50000  1
 Fe  Fe4  1  0.50000  0.50001  0.50000  1
 S  S1  1  0.27048  0.76013  0.69891  1
 S  S2  1  0.69895  0.76197  0.26195  1
 S  S3  1  0.27049  0.19888  0.26014  1
 S  S4  1  0.72291  0.23801  0.73800  1
 S  S5  1  0.72953  0.80113  0.73982  1
 S  S6  1  0.30105  0.23804  0.73803  1
 S  S7  1  0.27711  0.76199  0.26198  1
 S  S8  1  0.72951  0.23984  0.30113  1
