CIF file written using JARVIS-Tools package.
data_Y2InHg
_symmetry_space_group_name_H-M  'Immm'
_cell_length_a       11.9743
_cell_length_b       12.1469
_cell_length_c       12.1469
_cell_angle_alpha    60.9584
_cell_angle_beta     60.4552
_cell_angle_gamma    60.4551

_symmetry_Int_Tables_number  71
_chemical_formula_structural  Y2InHg
_chemical_formula_sum  Y2InHg
_cell_volume  1266.8063761751966
_cell_formula_units_Z  1
loop_
  _symmetry_equiv_pos_site_id
 _symmetry_equiv_pos_as_xyz
 1  'x, y, z'
loop_
 _atom_site_type_symbol
 _atom_site_label
 _atom_site_symmetry_multiplicity
 _atom_site_fract_x
 _atom_site_fract_y
 _atom_site_fract_z
 _atom_site_fract_occupancy
 Hg  Hg1  1  0.50000  -0.00000  -0.00000  1
 In  In1  1  0.00000  -0.00000  -0.00000  1
 Y  Y1  1  0.75574  0.00000  0.00000  1
 Y  Y2  1  0.24426  1.00000  1.00000  1
