CIF file written using JARVIS-Tools package.
data_PdN
_symmetry_space_group_name_H-M  'Cmcm'
_cell_length_a       3.93762
_cell_length_b       3.93762
_cell_length_c       4.2661
_cell_angle_alpha    90
_cell_angle_beta     90
_cell_angle_gamma    134.817

_symmetry_Int_Tables_number  63
_chemical_formula_structural  PdN
_chemical_formula_sum  Pd2N2
_cell_volume  46.92095566769243
_cell_formula_units_Z  2
loop_
  _symmetry_equiv_pos_site_id
 _symmetry_equiv_pos_as_xyz
 1  'x, y, z'
loop_
 _atom_site_type_symbol
 _atom_site_label
 _atom_site_symmetry_multiplicity
 _atom_site_fract_x
 _atom_site_fract_y
 _atom_site_fract_z
 _atom_site_fract_occupancy
 N  N1  1  0.67148  0.32852  0.25000  1
 N  N2  1  0.32852  0.67148  0.75000  1
 Pd  Pd1  1  0.61469  0.38531  0.75000  1
 Pd  Pd2  1  0.38531  0.61469  0.25000  1
