CIF file written using JARVIS-Tools package.
data_NaHg2Bi
_symmetry_space_group_name_H-M  'P-1'
_cell_length_a       13.2643
_cell_length_b       5.54629
_cell_length_c       7.56723
_cell_angle_alpha    52.2108
_cell_angle_beta     27.4777
_cell_angle_gamma    31.5281

_symmetry_Int_Tables_number  2
_chemical_formula_structural  NaHg2Bi
_chemical_formula_sum  NaHg2Bi
_cell_volume  107.9929051607276
_cell_formula_units_Z  1
loop_
  _symmetry_equiv_pos_site_id
 _symmetry_equiv_pos_as_xyz
 1  'x, y, z'
loop_
 _atom_site_type_symbol
 _atom_site_label
 _atom_site_symmetry_multiplicity
 _atom_site_fract_x
 _atom_site_fract_y
 _atom_site_fract_z
 _atom_site_fract_occupancy
 Bi  Bi1  1  0.50000  0.00000  0.00000  1
 Hg  Hg1  1  0.74716  -0.00033  0.02249  1
 Hg  Hg2  1  0.25284  0.00032  -0.02249  1
 Na  Na1  1  0.00000  0.00000  0.00000  1
