CIF file written using JARVIS-Tools package.
data_TiBe2Pd
_symmetry_space_group_name_H-M  'Immm'
_cell_length_a       9.63975
_cell_length_b       5.47385
_cell_length_c       5.47385
_cell_angle_alpha    27.3703
_cell_angle_beta     28.2939
_cell_angle_gamma    28.2939

_symmetry_Int_Tables_number  71
_chemical_formula_structural  TiBe2Pd
_chemical_formula_sum  TiBe2Pd
_cell_volume  56.133903254725084
_cell_formula_units_Z  1
loop_
  _symmetry_equiv_pos_site_id
 _symmetry_equiv_pos_as_xyz
 1  'x, y, z'
loop_
 _atom_site_type_symbol
 _atom_site_label
 _atom_site_symmetry_multiplicity
 _atom_site_fract_x
 _atom_site_fract_y
 _atom_site_fract_z
 _atom_site_fract_occupancy
 Be  Be1  1  0.73307  0.00000  0.00000  1
 Be  Be2  1  0.26693  -0.00000  -0.00000  1
 Pd  Pd1  1  0.50000  -0.00000  0.00000  1
 Ti  Ti1  1  0.00000  0.00000  0.00000  1
