CIF file written using JARVIS-Tools package.
data_W2NCl8
_symmetry_space_group_name_H-M  'P-1'
_cell_length_a       6.22416
_cell_length_b       6.28541
_cell_length_c       7.00117
_cell_angle_alpha    89.7146
_cell_angle_beta     81.1659
_cell_angle_gamma    82.4032

_symmetry_Int_Tables_number  2
_chemical_formula_structural  W2NCl8
_chemical_formula_sum  W2NCl8
_cell_volume  268.2385660527977
_cell_formula_units_Z  1
loop_
  _symmetry_equiv_pos_site_id
 _symmetry_equiv_pos_as_xyz
 1  'x, y, z'
loop_
 _atom_site_type_symbol
 _atom_site_label
 _atom_site_symmetry_multiplicity
 _atom_site_fract_x
 _atom_site_fract_y
 _atom_site_fract_z
 _atom_site_fract_occupancy
 Cl  Cl1  1  0.61656  0.61623  0.77630  1
 Cl  Cl2  1  0.88804  0.30505  0.41146  1
 Cl  Cl3  1  0.28350  0.19878  0.68725  1
 Cl  Cl4  1  0.78173  0.11197  0.87411  1
 Cl  Cl5  1  0.21827  0.88803  0.12589  1
 Cl  Cl6  1  0.38344  0.38377  0.22370  1
 Cl  Cl7  1  0.11196  0.69495  0.58854  1
 Cl  Cl8  1  0.71650  0.80122  0.31275  1
 N  N1  1  -0.00000  0.50000  0.00000  1
 W  W1  1  0.05314  0.59735  0.23185  1
 W  W2  1  0.94686  0.40265  0.76815  1
