CIF file written using JARVIS-Tools package.
data_Y2ZnCu
_symmetry_space_group_name_H-M  'C2/m'
_cell_length_a       11.1767
_cell_length_b       11.0728
_cell_length_c       11.0727
_cell_angle_alpha    59.699
_cell_angle_beta     59.608
_cell_angle_gamma    59.608

_symmetry_Int_Tables_number  12
_chemical_formula_structural  Y2ZnCu
_chemical_formula_sum  Y2ZnCu
_cell_volume  961.0065626273961
_cell_formula_units_Z  1
loop_
  _symmetry_equiv_pos_site_id
 _symmetry_equiv_pos_as_xyz
 1  'x, y, z'
loop_
 _atom_site_type_symbol
 _atom_site_label
 _atom_site_symmetry_multiplicity
 _atom_site_fract_x
 _atom_site_fract_y
 _atom_site_fract_z
 _atom_site_fract_occupancy
 Cu  Cu1  1  0.00000  0.00000  0.00000  1
 Y  Y1  1  0.76062  0.00002  0.00002  1
 Y  Y2  1  0.23938  0.99998  0.99998  1
 Zn  Zn1  1  0.50000  -0.00000  -0.00000  1
