CIF file written using JARVIS-Tools package.
data_Li2HgPb
_symmetry_space_group_name_H-M  'Immm'
_cell_length_a       10.7626
_cell_length_b       6.23009
_cell_length_c       6.23009
_cell_angle_alpha    46.7799
_cell_angle_beta     30.2587
_cell_angle_gamma    30.2587

_symmetry_Int_Tables_number  71
_chemical_formula_structural  Li2HgPb
_chemical_formula_sum  Li2HgPb
_cell_volume  102.93764809045365
_cell_formula_units_Z  1
loop_
  _symmetry_equiv_pos_site_id
 _symmetry_equiv_pos_as_xyz
 1  'x, y, z'
loop_
 _atom_site_type_symbol
 _atom_site_label
 _atom_site_symmetry_multiplicity
 _atom_site_fract_x
 _atom_site_fract_y
 _atom_site_fract_z
 _atom_site_fract_occupancy
 Hg  Hg1  1  0.00000  0.00000  0.00000  1
 Li  Li1  1  0.75861  0.00000  0.00000  1
 Li  Li2  1  0.24139  0.00000  0.00000  1
 Pb  Pb1  1  0.50000  0.00000  -0.00000  1
