CIF file written using JARVIS-Tools package.
data_MgNi4O8
_symmetry_space_group_name_H-M  'Cm'
_cell_length_a       2.89982
_cell_length_b       6.77138
_cell_length_c       6.99193
_cell_angle_alpha    92.8284
_cell_angle_beta     101.967
_cell_angle_gamma    102.359

_symmetry_Int_Tables_number  8
_chemical_formula_structural  MgNi4O8
_chemical_formula_sum  MgNi4O8
_cell_volume  130.5635282239317
_cell_formula_units_Z  1
loop_
  _symmetry_equiv_pos_site_id
 _symmetry_equiv_pos_as_xyz
 1  'x, y, z'
loop_
 _atom_site_type_symbol
 _atom_site_label
 _atom_site_symmetry_multiplicity
 _atom_site_fract_x
 _atom_site_fract_y
 _atom_site_fract_z
 _atom_site_fract_occupancy
 Mg  Mg1  1  0.53174  0.88731  0.17628  1
 Ni  Ni1  1  0.19404  0.82715  0.56106  1
 Ni  Ni2  1  0.35062  0.49538  0.20600  1
 Ni  Ni3  1  0.67512  0.50994  0.84045  1
 Ni  Ni4  1  0.84789  0.19748  0.49840  1
 O  O1  1  0.47655  0.34474  0.60849  1
 O  O2  1  0.22306  0.67425  0.77205  1
 O  O3  1  0.80725  0.33889  0.27572  1
 O  O4  1  0.55914  0.69854  0.41982  1
 O  O5  1  0.83285  0.99035  0.67554  1
 O  O6  1  0.88310  0.67470  0.09164  1
 O  O7  1  0.18932  0.02081  0.35795  1
 O  O8  1  0.15573  0.36434  0.94723  1
