CIF file written using JARVIS-Tools package.
data_CaFe4S8
_symmetry_space_group_name_H-M  'R-3m'
_cell_length_a       7.47197
_cell_length_b       7.47197
_cell_length_c       7.47197
_cell_angle_alpha    52.8333
_cell_angle_beta     52.8333
_cell_angle_gamma    52.8333

_symmetry_Int_Tables_number  166
_chemical_formula_structural  CaFe4S8
_chemical_formula_sum  CaFe4S8
_cell_volume  245.4017019366014
_cell_formula_units_Z  1
loop_
  _symmetry_equiv_pos_site_id
 _symmetry_equiv_pos_as_xyz
 1  'x, y, z'
loop_
 _atom_site_type_symbol
 _atom_site_label
 _atom_site_symmetry_multiplicity
 _atom_site_fract_x
 _atom_site_fract_y
 _atom_site_fract_z
 _atom_site_fract_occupancy
 Ca  Ca1  1  0.50000  0.50000  0.50000  1
 Fe  Fe1  1  0.50000  1.00000  0.50000  1
 Fe  Fe2  1  1.00000  0.50000  0.50000  1
 Fe  Fe3  1  0.50000  0.50000  -0.00000  1
 Fe  Fe4  1  0.00000  0.00000  0.00000  1
 S  S1  1  0.77099  0.26380  0.77099  1
 S  S2  1  0.22900  0.22901  0.73620  1
 S  S3  1  0.22900  0.73620  0.22900  1
 S  S4  1  0.73620  0.22901  0.22901  1
 S  S5  1  0.26696  0.26697  0.26696  1
 S  S6  1  0.73304  0.73304  0.73304  1
 S  S7  1  0.26380  0.77100  0.77099  1
 S  S8  1  0.77100  0.77100  0.26380  1
