CIF file written using JARVIS-Tools package.
data_Hf2IrOs
_symmetry_space_group_name_H-M  'Immm'
_cell_length_a       10.1946
_cell_length_b       5.86562
_cell_length_c       5.86561
_cell_angle_alpha    50.8405
_cell_angle_beta     29.656
_cell_angle_gamma    29.656

_symmetry_Int_Tables_number  71
_chemical_formula_structural  Hf2IrOs
_chemical_formula_sum  Hf2IrOs
_cell_volume  74.10232993301163
_cell_formula_units_Z  1
loop_
  _symmetry_equiv_pos_site_id
 _symmetry_equiv_pos_as_xyz
 1  'x, y, z'
loop_
 _atom_site_type_symbol
 _atom_site_label
 _atom_site_symmetry_multiplicity
 _atom_site_fract_x
 _atom_site_fract_y
 _atom_site_fract_z
 _atom_site_fract_occupancy
 Hf  Hf1  1  0.75020  0.00000  0.00000  1
 Hf  Hf2  1  0.24980  0.00000  0.00000  1
 Ir  Ir1  1  0.50000  0.00000  0.00000  1
 Os  Os1  1  0.00000  0.00000  0.00000  1
