CIF file written using JARVIS-Tools package.
data_Zr2ZnPt
_symmetry_space_group_name_H-M  'Immm'
_cell_length_a       10.7076
_cell_length_b       11.1338
_cell_length_c       11.1338
_cell_angle_alpha    60.0127
_cell_angle_beta     61.2584
_cell_angle_gamma    61.2584

_symmetry_Int_Tables_number  71
_chemical_formula_structural  Zr2ZnPt
_chemical_formula_sum  Zr2ZnPt
_cell_volume  956.1207154769843
_cell_formula_units_Z  1
loop_
  _symmetry_equiv_pos_site_id
 _symmetry_equiv_pos_as_xyz
 1  'x, y, z'
loop_
 _atom_site_type_symbol
 _atom_site_label
 _atom_site_symmetry_multiplicity
 _atom_site_fract_x
 _atom_site_fract_y
 _atom_site_fract_z
 _atom_site_fract_occupancy
 Pt  Pt1  1  0.50000  0.00000  0.00000  1
 Zn  Zn1  1  0.00000  0.00000  0.00000  1
 Zr  Zr1  1  0.72641  0.00000  0.00000  1
 Zr  Zr2  1  0.27359  -0.00000  -0.00000  1
