CIF file written using JARVIS-Tools package.
data_NaIn2Sn
_symmetry_space_group_name_H-M  'C2/m'
_cell_length_a       13.5778
_cell_length_b       7.54274
_cell_length_c       8.98978
_cell_angle_alpha    39.8143
_cell_angle_beta     18.6769
_cell_angle_gamma    26.3988

_symmetry_Int_Tables_number  12
_chemical_formula_structural  NaIn2Sn
_chemical_formula_sum  NaIn2Sn
_cell_volume  108.1678570358858
_cell_formula_units_Z  1
loop_
  _symmetry_equiv_pos_site_id
 _symmetry_equiv_pos_as_xyz
 1  'x, y, z'
loop_
 _atom_site_type_symbol
 _atom_site_label
 _atom_site_symmetry_multiplicity
 _atom_site_fract_x
 _atom_site_fract_y
 _atom_site_fract_z
 _atom_site_fract_occupancy
 In  In1  1  0.74915  0.00238  0.99840  1
 In  In2  1  0.25085  -0.00238  0.00160  1
 Na  Na1  1  0.00000  0.00000  0.00000  1
 Sn  Sn1  1  0.50000  0.00000  0.00000  1
