CIF file written using JARVIS-Tools package.
data_Tl2HgSe
_symmetry_space_group_name_H-M  'R-3m'
_cell_length_a       20.0168
_cell_length_b       13.6245
_cell_length_c       13.6245
_cell_angle_alpha    19.9901
_cell_angle_beta     11.5544
_cell_angle_gamma    11.5543

_symmetry_Int_Tables_number  166
_chemical_formula_structural  Tl2HgSe
_chemical_formula_sum  Tl2HgSe
_cell_volume  128.94614545717644
_cell_formula_units_Z  1
loop_
  _symmetry_equiv_pos_site_id
 _symmetry_equiv_pos_as_xyz
 1  'x, y, z'
loop_
 _atom_site_type_symbol
 _atom_site_label
 _atom_site_symmetry_multiplicity
 _atom_site_fract_x
 _atom_site_fract_y
 _atom_site_fract_z
 _atom_site_fract_occupancy
 Hg  Hg1  1  0.50000  -0.00000  0.00000  1
 Se  Se1  1  1.00000  0.00000  0.00000  1
 Tl  Tl1  1  0.74190  -0.00078  -0.00078  1
 Tl  Tl2  1  0.25811  0.00078  0.00078  1
