CIF file written using JARVIS-Tools package.
data_BaNd2ZnO5
_symmetry_space_group_name_H-M  'I4/mcm'
_cell_length_a       6.79817
_cell_length_b       6.79817
_cell_length_c       7.55486
_cell_angle_alpha    116.739
_cell_angle_beta     116.739
_cell_angle_gamma    90

_symmetry_Int_Tables_number  140
_chemical_formula_structural  BaNd2ZnO5
_chemical_formula_sum  Ba2Nd4Zn2O0
_cell_volume  269.35250644969017
_cell_formula_units_Z  2
loop_
  _symmetry_equiv_pos_site_id
 _symmetry_equiv_pos_as_xyz
 1  'x, y, z'
loop_
 _atom_site_type_symbol
 _atom_site_label
 _atom_site_symmetry_multiplicity
 _atom_site_fract_x
 _atom_site_fract_y
 _atom_site_fract_z
 _atom_site_fract_occupancy
 Ba  Ba1  1  0.25000  0.25000  0.50000  1
 Ba  Ba2  1  0.75000  0.75000  0.50000  1
 Nd  Nd1  1  0.32736  0.17264  -0.00000  1
 Nd  Nd2  1  0.17264  0.67264  0.00000  1
 Nd  Nd3  1  0.67264  0.82736  0.00000  1
 Nd  Nd4  1  0.82736  0.32736  -0.00000  1
 O  O1  1  0.51409  0.01409  0.73866  1
 O  O2  1  0.22457  0.72457  0.73866  1
 O  O3  1  0.01409  0.22457  0.73866  1
 O  O4  1  0.72457  0.51409  0.73866  1
 O  O5  1  0.98591  0.77543  0.26134  1
 O  O6  1  0.50000  0.50000  -0.00000  1
 O  O7  1  0.77543  0.27543  0.26134  1
 O  O8  1  0.48591  0.98591  0.26134  1
 O  O9  1  0.27543  0.48591  0.26134  1
 O  O10  1  0.00000  0.00000  0.00000  1
 Zn  Zn1  1  0.75000  0.25000  0.50000  1
 Zn  Zn2  1  0.25000  0.75000  0.50000  1
