CIF file written using JARVIS-Tools package.
data_K2ThCu2S4
_symmetry_space_group_name_H-M  'C2/m'
_cell_length_a       4.01904
_cell_length_b       7.53852
_cell_length_c       7.56825
_cell_angle_alpha    109.204
_cell_angle_beta     90
_cell_angle_gamma    105.46

_symmetry_Int_Tables_number  12
_chemical_formula_structural  K2ThCu2S4
_chemical_formula_sum  K2ThCu2S4
_cell_volume  207.7346321837535
_cell_formula_units_Z  1
loop_
  _symmetry_equiv_pos_site_id
 _symmetry_equiv_pos_as_xyz
 1  'x, y, z'
loop_
 _atom_site_type_symbol
 _atom_site_label
 _atom_site_symmetry_multiplicity
 _atom_site_fract_x
 _atom_site_fract_y
 _atom_site_fract_z
 _atom_site_fract_occupancy
 Cu  Cu1  1  0.68088  0.36176  0.98938  1
 Cu  Cu2  1  0.31912  0.63824  0.01062  1
 K  K1  1  0.13768  0.27537  0.56405  1
 K  K2  1  0.86232  0.72463  0.43595  1
 S  S1  1  0.52180  0.04361  0.75847  1
 S  S2  1  0.47820  0.95639  0.24153  1
 S  S3  1  0.20302  0.40604  0.17935  1
 S  S4  1  0.79698  0.59396  0.82065  1
 Th  Th1  1  0.00000  0.00000  0.00000  1
