CIF file written using JARVIS-Tools package.
data_Li2CuAu
_symmetry_space_group_name_H-M  'Immm'
_cell_length_a       9.63586
_cell_length_b       10.1881
_cell_length_c       10.1881
_cell_angle_alpha    61.1831
_cell_angle_beta     61.7774
_cell_angle_gamma    61.7774

_symmetry_Int_Tables_number  71
_chemical_formula_structural  Li2CuAu
_chemical_formula_sum  Li2CuAu
_cell_volume  732.2345750448548
_cell_formula_units_Z  1
loop_
  _symmetry_equiv_pos_site_id
 _symmetry_equiv_pos_as_xyz
 1  'x, y, z'
loop_
 _atom_site_type_symbol
 _atom_site_label
 _atom_site_symmetry_multiplicity
 _atom_site_fract_x
 _atom_site_fract_y
 _atom_site_fract_z
 _atom_site_fract_occupancy
 Au  Au1  1  0.50000  0.00000  -0.00000  1
 Cu  Cu1  1  0.00000  0.00000  0.00000  1
 Li  Li1  1  0.75158  -0.00000  0.00000  1
 Li  Li2  1  0.24842  0.00000  -0.00000  1
