CIF file written using JARVIS-Tools package.
data_LiTiS2
_symmetry_space_group_name_H-M  'R-3m'
_cell_length_a       3.46534
_cell_length_b       3.46534
_cell_length_c       6.42904
_cell_angle_alpha    74.3651
_cell_angle_beta     74.365
_cell_angle_gamma    60

_symmetry_Int_Tables_number  166
_chemical_formula_structural  LiTiS2
_chemical_formula_sum  LiTiS2
_cell_volume  63.5403760213422
_cell_formula_units_Z  1
loop_
  _symmetry_equiv_pos_site_id
 _symmetry_equiv_pos_as_xyz
 1  'x, y, z'
loop_
 _atom_site_type_symbol
 _atom_site_label
 _atom_site_symmetry_multiplicity
 _atom_site_fract_x
 _atom_site_fract_y
 _atom_site_fract_z
 _atom_site_fract_occupancy
 Li  Li1  1  0.50000  0.50000  0.50000  1
 S  S1  1  0.74636  0.74636  0.76091  1
 S  S2  1  0.25364  0.25364  0.23909  1
 Ti  Ti1  1  0.00000  0.00000  0.00000  1
