CIF file written using JARVIS-Tools package.
data_CaV2O4
_symmetry_space_group_name_H-M  'C2/m'
_cell_length_a       3.09062
_cell_length_b       6.86229
_cell_length_c       7.93885
_cell_angle_alpha    97.2897
_cell_angle_beta     101.224
_cell_angle_gamma    103.015

_symmetry_Int_Tables_number  12
_chemical_formula_structural  CaV2O4
_chemical_formula_sum  Ca2V4O8
_cell_volume  158.3223987615621
_cell_formula_units_Z  2
loop_
  _symmetry_equiv_pos_site_id
 _symmetry_equiv_pos_as_xyz
 1  'x, y, z'
loop_
 _atom_site_type_symbol
 _atom_site_label
 _atom_site_symmetry_multiplicity
 _atom_site_fract_x
 _atom_site_fract_y
 _atom_site_fract_z
 _atom_site_fract_occupancy
 Ca  Ca1  1  0.51707  0.86376  0.16241  1
 Ca  Ca2  1  0.46339  0.10318  0.81571  1
 O  O1  1  0.54220  0.40097  0.67546  1
 O  O2  1  0.76312  0.21674  0.30164  1
 O  O3  1  0.21727  0.75019  0.67647  1
 O  O4  1  0.43831  0.56597  0.30266  1
 O  O5  1  0.14954  0.30137  0.98985  1
 O  O6  1  0.13721  0.89158  0.37492  1
 O  O7  1  0.83089  0.66556  0.98826  1
 O  O8  1  0.84323  0.07537  0.60319  1
 V  V1  1  0.80170  0.43454  0.16092  1
 V  V2  1  0.64950  0.77792  0.51323  1
 V  V3  1  0.33091  0.18902  0.46489  1
 V  V4  1  0.17877  0.53239  0.81720  1
