CIF file written using JARVIS-Tools package.
data_LiTm2Cl5
_symmetry_space_group_name_H-M  'C2/c'
_cell_length_a       6.24367
_cell_length_b       7.19978
_cell_length_c       8.13673
_cell_angle_alpha    93.0351
_cell_angle_beta     112.561
_cell_angle_gamma    90

_symmetry_Int_Tables_number  15
_chemical_formula_structural  LiTm2Cl5
_chemical_formula_sum  Li2Tm4Cl0
_cell_volume  337.222413225809
_cell_formula_units_Z  2
loop_
  _symmetry_equiv_pos_site_id
 _symmetry_equiv_pos_as_xyz
 1  'x, y, z'
loop_
 _atom_site_type_symbol
 _atom_site_label
 _atom_site_symmetry_multiplicity
 _atom_site_fract_x
 _atom_site_fract_y
 _atom_site_fract_z
 _atom_site_fract_occupancy
 Cl  Cl1  1  0.87898  0.25000  0.00000  1
 Cl  Cl2  1  0.73241  0.17435  0.58901  1
 Cl  Cl3  1  0.49509  0.40312  0.18123  1
 Cl  Cl4  1  0.26759  0.82565  0.41099  1
 Cl  Cl5  1  0.50491  0.59688  0.81877  1
 Cl  Cl6  1  0.12102  0.75000  -0.00000  1
 Cl  Cl7  1  0.85660  0.67435  0.58901  1
 Cl  Cl8  1  0.68614  0.90312  0.18123  1
 Cl  Cl9  1  0.14340  0.32565  0.41099  1
 Cl  Cl10  1  0.31386  0.09688  0.81877  1
 Li  Li1  1  -0.00000  -0.00000  0.50000  1
 Li  Li2  1  0.50000  0.50000  0.50000  1
 Tm  Tm1  1  0.73402  0.93174  0.84629  1
 Tm  Tm2  1  0.26598  0.06826  0.15371  1
 Tm  Tm3  1  0.88773  0.56826  0.15371  1
 Tm  Tm4  1  0.11227  0.43174  0.84629  1
