CIF file written using JARVIS-Tools package.
data_Mg2Cr3O8
_symmetry_space_group_name_H-M  'C2/m'
_cell_length_a       4.84678
_cell_length_b       5.77677
_cell_length_c       5.88763
_cell_angle_alpha    119.379
_cell_angle_beta     107.872
_cell_angle_gamma    90

_symmetry_Int_Tables_number  12
_chemical_formula_structural  Mg2Cr3O8
_chemical_formula_sum  Mg2Cr3O8
_cell_volume  134.44246575964783
_cell_formula_units_Z  1
loop_
  _symmetry_equiv_pos_site_id
 _symmetry_equiv_pos_as_xyz
 1  'x, y, z'
loop_
 _atom_site_type_symbol
 _atom_site_label
 _atom_site_symmetry_multiplicity
 _atom_site_fract_x
 _atom_site_fract_y
 _atom_site_fract_z
 _atom_site_fract_occupancy
 Cr  Cr1  1  0.50000  1.00000  0.00000  1
 Cr  Cr2  1  1.00000  0.73392  -0.00000  1
 Cr  Cr3  1  1.00000  0.26608  0.00000  1
 Mg  Mg1  1  0.65603  0.72657  0.45315  1
 Mg  Mg2  1  0.34397  0.27343  0.54685  1
 O  O1  1  0.07498  0.39351  0.78702  1
 O  O2  1  0.92502  0.60649  0.21298  1
 O  O3  1  0.08097  0.89414  0.78827  1
 O  O4  1  0.91903  0.10586  0.21172  1
 O  O5  1  0.40362  0.34154  0.22687  1
 O  O6  1  0.40362  0.88533  0.22687  1
 O  O7  1  0.59638  0.11467  0.77313  1
 O  O8  1  0.59638  0.65846  0.77313  1
