CIF file written using JARVIS-Tools package.
data_LaAl2BRu2
_symmetry_space_group_name_H-M  'P4/mmm'
_cell_length_a       4.23461
_cell_length_b       4.23461
_cell_length_c       5.68126
_cell_angle_alpha    90
_cell_angle_beta     90
_cell_angle_gamma    90

_symmetry_Int_Tables_number  123
_chemical_formula_structural  LaAl2BRu2
_chemical_formula_sum  LaAl2BRu2
_cell_volume  101.87574542678928
_cell_formula_units_Z  1
loop_
  _symmetry_equiv_pos_site_id
 _symmetry_equiv_pos_as_xyz
 1  'x, y, z'
loop_
 _atom_site_type_symbol
 _atom_site_label
 _atom_site_symmetry_multiplicity
 _atom_site_fract_x
 _atom_site_fract_y
 _atom_site_fract_z
 _atom_site_fract_occupancy
 Al  Al1  1  0.50000  0.50000  0.74573  1
 Al  Al2  1  0.50000  0.50000  0.25427  1
 B  B1  1  0.00000  0.00000  0.00000  1
 La  La1  1  0.00000  0.00000  0.50000  1
 Ru  Ru1  1  0.50000  0.00000  0.00000  1
 Ru  Ru2  1  0.00000  0.50000  0.00000  1
