CIF file written using JARVIS-Tools package.
data_Na2HgAu
_symmetry_space_group_name_H-M  'I4/mmm'
_cell_length_a       11.5195
_cell_length_b       6.50009
_cell_length_c       6.50008
_cell_angle_alpha    38.2654
_cell_angle_beta     27.6128
_cell_angle_gamma    27.6128

_symmetry_Int_Tables_number  139
_chemical_formula_structural  Na2HgAu
_chemical_formula_sum  Na2HgAu
_cell_volume  104.5583359193777
_cell_formula_units_Z  1
loop_
  _symmetry_equiv_pos_site_id
 _symmetry_equiv_pos_as_xyz
 1  'x, y, z'
loop_
 _atom_site_type_symbol
 _atom_site_label
 _atom_site_symmetry_multiplicity
 _atom_site_fract_x
 _atom_site_fract_y
 _atom_site_fract_z
 _atom_site_fract_occupancy
 Au  Au1  1  0.00000  0.00000  0.00000  1
 Hg  Hg1  1  0.50000  -0.00000  -0.00000  1
 Na  Na1  1  0.75763  -0.00000  0.00000  1
 Na  Na2  1  0.24237  0.00000  -0.00000  1
