CIF file written using JARVIS-Tools package.
data_Sr2Ti6N2O11
_symmetry_space_group_name_H-M  'Cm'
_cell_length_a       3.84957
_cell_length_b       7.7538
_cell_length_c       9.31836
_cell_angle_alpha    98.9146
_cell_angle_beta     89.9996
_cell_angle_gamma    104.374

_symmetry_Int_Tables_number  8
_chemical_formula_structural  Sr2Ti6N2O11
_chemical_formula_sum  Sr2Ti6N2O
_cell_volume  265.96480585521863
_cell_formula_units_Z  1
loop_
  _symmetry_equiv_pos_site_id
 _symmetry_equiv_pos_as_xyz
 1  'x, y, z'
loop_
 _atom_site_type_symbol
 _atom_site_label
 _atom_site_symmetry_multiplicity
 _atom_site_fract_x
 _atom_site_fract_y
 _atom_site_fract_z
 _atom_site_fract_occupancy
 N  N1  1  0.76753  0.53227  0.75198  1
 N  N2  1  0.15982  0.31688  0.90222  1
 O  O1  1  0.12794  0.25308  0.61233  1
 O  O2  1  0.06372  0.12462  0.30707  1
 O  O3  1  0.87348  0.74421  0.38235  1
 O  O4  1  0.83553  0.66824  0.09175  1
 O  O5  1  0.36741  0.73201  0.89706  1
 O  O6  1  0.93895  0.87510  0.71101  1
 O  O7  1  0.24064  0.47850  0.24475  1
 O  O8  1  0.70238  0.40196  0.42911  1
 O  O9  1  0.63763  0.27249  0.12433  1
 O  O10  1  -0.00087  0.99548  0.01299  1
 O  O11  1  0.30600  0.60920  0.56625  1
 Sr  Sr1  1  0.55351  0.10422  0.75337  1
 Sr  Sr2  1  0.45962  0.91643  0.21146  1
 Ti  Ti1  1  0.12344  0.24411  0.07890  1
 Ti  Ti2  1  0.16573  0.32866  0.43354  1
 Ti  Ti3  1  0.23755  0.47231  0.76837  1
 Ti  Ti4  1  0.76875  0.53473  0.23750  1
 Ti  Ti5  1  0.83556  0.66832  0.57184  1
 Ti  Ti6  1  0.87835  0.75387  0.90000  1
