CIF file written using JARVIS-Tools package.
data_CaMo2O4
_symmetry_space_group_name_H-M  'Cmcm'
_cell_length_a       3.3172
_cell_length_b       5.02199
_cell_length_c       10.1995
_cell_angle_alpha    90
_cell_angle_beta     90
_cell_angle_gamma    109.285

_symmetry_Int_Tables_number  63
_chemical_formula_structural  CaMo2O4
_chemical_formula_sum  Ca2Mo4O8
_cell_volume  160.3785131457807
_cell_formula_units_Z  2
loop_
  _symmetry_equiv_pos_site_id
 _symmetry_equiv_pos_as_xyz
 1  'x, y, z'
loop_
 _atom_site_type_symbol
 _atom_site_label
 _atom_site_symmetry_multiplicity
 _atom_site_fract_x
 _atom_site_fract_y
 _atom_site_fract_z
 _atom_site_fract_occupancy
 Ca  Ca1  1  0.37612  0.75224  0.75000  1
 Ca  Ca2  1  0.62388  0.24776  0.25000  1
 Mo  Mo1  1  0.88628  0.77255  0.05899  1
 Mo  Mo2  1  0.11372  0.22745  0.94101  1
 Mo  Mo3  1  0.88628  0.77255  0.44101  1
 Mo  Mo4  1  0.11372  0.22745  0.55899  1
 O  O1  1  0.24520  0.49040  0.39098  1
 O  O2  1  0.75480  0.50960  0.60902  1
 O  O3  1  0.75480  0.50960  0.89098  1
 O  O4  1  0.24520  0.49040  0.10902  1
 O  O5  1  0.95072  0.90143  0.25000  1
 O  O6  1  0.04928  0.09857  0.75000  1
 O  O7  1  0.50000  0.00000  0.00000  1
 O  O8  1  0.50000  0.00000  0.50000  1
