CIF file written using JARVIS-Tools package.
data_LaNi3Rh2
_symmetry_space_group_name_H-M  'P6/mmm'
_cell_length_a       5.1051
_cell_length_b       5.1051
_cell_length_c       4.1845
_cell_angle_alpha    90
_cell_angle_beta     90
_cell_angle_gamma    119.998

_symmetry_Int_Tables_number  191
_chemical_formula_structural  LaNi3Rh2
_chemical_formula_sum  LaNi3Rh2
_cell_volume  94.44817713761705
_cell_formula_units_Z  1
loop_
  _symmetry_equiv_pos_site_id
 _symmetry_equiv_pos_as_xyz
 1  'x, y, z'
loop_
 _atom_site_type_symbol
 _atom_site_label
 _atom_site_symmetry_multiplicity
 _atom_site_fract_x
 _atom_site_fract_y
 _atom_site_fract_z
 _atom_site_fract_occupancy
 La  La1  1  0.00001  0.00001  0.00000  1
 Ni  Ni1  1  0.50002  0.50002  0.50000  1
 Ni  Ni2  1  0.50002  0.00002  0.50000  1
 Ni  Ni3  1  0.00002  0.50002  0.50000  1
 Rh  Rh1  1  0.66666  0.33337  0.00000  1
 Rh  Rh2  1  0.33337  0.66666  0.00000  1
