CIF file written using JARVIS-Tools package.
data_MgSb4O8
_symmetry_space_group_name_H-M  'R-3m'
_cell_length_a       6.26217
_cell_length_b       6.26217
_cell_length_c       6.26217
_cell_angle_alpha    66.6552
_cell_angle_beta     66.6552
_cell_angle_gamma    66.6552

_symmetry_Int_Tables_number  166
_chemical_formula_structural  MgSb4O8
_chemical_formula_sum  MgSb4O8
_cell_volume  198.4970384489325
_cell_formula_units_Z  1
loop_
  _symmetry_equiv_pos_site_id
 _symmetry_equiv_pos_as_xyz
 1  'x, y, z'
loop_
 _atom_site_type_symbol
 _atom_site_label
 _atom_site_symmetry_multiplicity
 _atom_site_fract_x
 _atom_site_fract_y
 _atom_site_fract_z
 _atom_site_fract_occupancy
 Mg  Mg1  1  0.50000  0.50000  0.50000  1
 O  O1  1  0.73935  0.28421  0.73935  1
 O  O2  1  0.26065  0.26065  0.71579  1
 O  O3  1  0.26065  0.71579  0.26065  1
 O  O4  1  0.71579  0.26065  0.26065  1
 O  O5  1  0.26469  0.26469  0.26469  1
 O  O6  1  0.73531  0.73531  0.73531  1
 O  O7  1  0.28421  0.73935  0.73935  1
 O  O8  1  0.73935  0.73935  0.28421  1
 Sb  Sb1  1  0.50000  1.00000  0.50000  1
 Sb  Sb2  1  1.00000  0.50000  0.50000  1
 Sb  Sb3  1  0.50000  0.50000  -0.00000  1
 Sb  Sb4  1  0.00000  0.00000  0.00000  1
