CIF file written using JARVIS-Tools package.
data_PbS
_symmetry_space_group_name_H-M  'C2/m'
_cell_length_a       4.23201
_cell_length_b       4.23201
_cell_length_c       6.3022
_cell_angle_alpha    81.5821
_cell_angle_beta     81.5821
_cell_angle_gamma    89.5157

_symmetry_Int_Tables_number  12
_chemical_formula_structural  PbS
_chemical_formula_sum  Pb2S2
_cell_volume  110.44327389053569
_cell_formula_units_Z  2
loop_
  _symmetry_equiv_pos_site_id
 _symmetry_equiv_pos_as_xyz
 1  'x, y, z'
loop_
 _atom_site_type_symbol
 _atom_site_label
 _atom_site_symmetry_multiplicity
 _atom_site_fract_x
 _atom_site_fract_y
 _atom_site_fract_z
 _atom_site_fract_occupancy
 Pb  Pb1  1  0.21259  0.21259  0.23406  1
 Pb  Pb2  1  0.78741  0.78741  0.76594  1
 S  S1  1  0.69118  0.69118  0.21281  1
 S  S2  1  0.30882  0.30882  0.78719  1
