CIF file written using JARVIS-Tools package.
data_TlSn2Br5
_symmetry_space_group_name_H-M  'I4/mcm'
_cell_length_a       8.3529
_cell_length_b       8.3529
_cell_length_c       9.25009
_cell_angle_alpha    116.84
_cell_angle_beta     116.84
_cell_angle_gamma    90

_symmetry_Int_Tables_number  140
_chemical_formula_structural  TlSn2Br5
_chemical_formula_sum  Tl2Sn4Br0
_cell_volume  496.6917683453104
_cell_formula_units_Z  2
loop_
  _symmetry_equiv_pos_site_id
 _symmetry_equiv_pos_as_xyz
 1  'x, y, z'
loop_
 _atom_site_type_symbol
 _atom_site_label
 _atom_site_symmetry_multiplicity
 _atom_site_fract_x
 _atom_site_fract_y
 _atom_site_fract_z
 _atom_site_fract_occupancy
 Br  Br1  1  0.01832  0.20304  0.72136  1
 Br  Br2  1  0.20304  0.70304  0.72136  1
 Br  Br3  1  0.50000  0.50000  0.00000  1
 Br  Br4  1  0.51832  0.01832  0.72136  1
 Br  Br5  1  0.98168  0.79696  0.27864  1
 Br  Br6  1  0.70304  0.51832  0.72136  1
 Br  Br7  1  0.79696  0.29696  0.27864  1
 Br  Br8  1  0.48168  0.98168  0.27864  1
 Br  Br9  1  0.00000  0.00000  0.00000  1
 Br  Br10  1  0.29696  0.48168  0.27864  1
 Sn  Sn1  1  0.67139  0.82861  0.00000  1
 Sn  Sn2  1  0.82861  0.32861  -0.00000  1
 Sn  Sn3  1  0.17139  0.67139  0.00000  1
 Sn  Sn4  1  0.32861  0.17139  -0.00000  1
 Tl  Tl1  1  0.25000  0.25000  0.50000  1
 Tl  Tl2  1  0.75000  0.75000  0.50000  1
