CIF file written using JARVIS-Tools package.
data_CaCo2O4
_symmetry_space_group_name_H-M  'C2/m'
_cell_length_a       2.90822
_cell_length_b       7.0167
_cell_length_c       8.19412
_cell_angle_alpha    69.5087
_cell_angle_beta     79.7788
_cell_angle_gamma    78.0405

_symmetry_Int_Tables_number  12
_chemical_formula_structural  CaCo2O4
_chemical_formula_sum  Ca2Co4O8
_cell_volume  152.2230051575225
_cell_formula_units_Z  2
loop_
  _symmetry_equiv_pos_site_id
 _symmetry_equiv_pos_as_xyz
 1  'x, y, z'
loop_
 _atom_site_type_symbol
 _atom_site_label
 _atom_site_symmetry_multiplicity
 _atom_site_fract_x
 _atom_site_fract_y
 _atom_site_fract_z
 _atom_site_fract_occupancy
 Ca  Ca1  1  0.62305  0.90963  0.85413  1
 Ca  Ca2  1  0.39270  0.05917  0.16516  1
 Co  Co1  1  0.42904  0.37072  0.78102  1
 Co  Co2  1  0.84595  0.78801  0.52990  1
 Co  Co3  1  0.16981  0.18080  0.48940  1
 Co  Co4  1  0.58671  0.59809  0.23828  1
 O  O1  1  0.13901  0.42499  0.30678  1
 O  O2  1  0.58062  0.22866  0.61992  1
 O  O3  1  0.43514  0.74015  0.39938  1
 O  O4  1  0.87675  0.54381  0.71251  1
 O  O5  1  0.95010  0.18996  0.91962  1
 O  O6  1  0.23892  0.88701  0.64499  1
 O  O7  1  0.06564  0.77886  0.09968  1
 O  O8  1  0.77684  0.08179  0.37432  1
