CIF file written using JARVIS-Tools package.
data_ZnSbF5
_symmetry_space_group_name_H-M  'P1'
_cell_length_a       5.29838
_cell_length_b       5.03496
_cell_length_c       8.04843
_cell_angle_alpha    91.0513
_cell_angle_beta     76.8151
_cell_angle_gamma    101.705

_symmetry_Int_Tables_number  1
_chemical_formula_structural  ZnSbF5
_chemical_formula_sum  Zn2Sb2F0
_cell_volume  204.6142889205371
_cell_formula_units_Z  2
loop_
  _symmetry_equiv_pos_site_id
 _symmetry_equiv_pos_as_xyz
 1  'x, y, z'
loop_
 _atom_site_type_symbol
 _atom_site_label
 _atom_site_symmetry_multiplicity
 _atom_site_fract_x
 _atom_site_fract_y
 _atom_site_fract_z
 _atom_site_fract_occupancy
 F  F1  1  0.07088  0.84048  0.78899  1
 F  F2  1  0.78401  -0.02260  0.34481  1
 F  F3  1  0.60579  0.87566  0.68625  1
 F  F4  1  0.81761  0.25663  0.90183  1
 F  F5  1  0.35062  0.32576  0.84200  1
 F  F6  1  0.78512  0.39413  0.55765  1
 F  F7  1  0.63537  0.74107  0.02693  1
 F  F8  1  0.32039  0.65786  0.45487  1
 F  F9  1  0.05945  0.48154  0.13533  1
 F  F10  1  0.41660  0.17863  0.23210  1
 Sb  Sb1  1  0.04307  0.08292  0.01387  1
 Sb  Sb2  1  0.48031  0.07309  0.51377  1
 Zn  Zn1  1  0.38398  0.55667  0.22219  1
 Zn  Zn2  1  0.73294  0.57415  0.78147  1
