CIF file written using JARVIS-Tools package.
data_GaMo4Se8
_symmetry_space_group_name_H-M  'F-43m'
_cell_length_a       7.26594
_cell_length_b       7.26595
_cell_length_c       7.26595
_cell_angle_alpha    60
_cell_angle_beta     60
_cell_angle_gamma    60

_symmetry_Int_Tables_number  216
_chemical_formula_structural  GaMo4Se8
_chemical_formula_sum  GaMo4Se8
_cell_volume  271.24497498674884
_cell_formula_units_Z  1
loop_
  _symmetry_equiv_pos_site_id
 _symmetry_equiv_pos_as_xyz
 1  'x, y, z'
loop_
 _atom_site_type_symbol
 _atom_site_label
 _atom_site_symmetry_multiplicity
 _atom_site_fract_x
 _atom_site_fract_y
 _atom_site_fract_z
 _atom_site_fract_occupancy
 Ga  Ga1  1  0.00000  0.00000  0.00000  1
 Mo  Mo1  1  0.40003  0.79990  0.40003  1
 Mo  Mo2  1  0.79990  0.40003  0.40003  1
 Mo  Mo3  1  0.40003  0.40003  0.79990  1
 Mo  Mo4  1  0.40003  0.40003  0.40003  1
 Se  Se1  1  0.13678  0.58965  0.13678  1
 Se  Se2  1  0.58965  0.13678  0.13678  1
 Se  Se3  1  0.13678  0.13678  0.58965  1
 Se  Se4  1  0.63598  0.63598  0.63598  1
 Se  Se5  1  0.63598  0.63598  0.09206  1
 Se  Se6  1  0.09206  0.63598  0.63598  1
 Se  Se7  1  0.63598  0.09206  0.63598  1
 Se  Se8  1  0.13678  0.13678  0.13678  1
