CIF file written using JARVIS-Tools package.
data_Te2MoW2Se2S2
_symmetry_space_group_name_H-M  'P3m1'
_cell_length_a       3.3539
_cell_length_b       3.35391
_cell_length_c       29.1989
_cell_angle_alpha    90.0018
_cell_angle_beta     90
_cell_angle_gamma    120

_symmetry_Int_Tables_number  156
_chemical_formula_structural  Te2MoW2Se2S2
_chemical_formula_sum  Te2MoW2Se2S2
_cell_volume  284.4447944711734
_cell_formula_units_Z  1
loop_
  _symmetry_equiv_pos_site_id
 _symmetry_equiv_pos_as_xyz
 1  'x, y, z'
loop_
 _atom_site_type_symbol
 _atom_site_label
 _atom_site_symmetry_multiplicity
 _atom_site_fract_x
 _atom_site_fract_y
 _atom_site_fract_z
 _atom_site_fract_occupancy
 Mo  Mo1  1  0.33327  0.66655  0.11124  1
 S  S1  1  0.66665  0.33331  0.52806  1
 S  S2  1  0.66666  0.33332  0.63235  1
 Se  Se1  1  0.66659  0.33318  0.05430  1
 Se  Se2  1  0.66662  0.33325  0.16828  1
 Te  Te1  1  0.33339  0.66678  0.41486  1
 Te  Te2  1  0.33337  0.66674  0.28408  1
 W  W1  1  0.33333  0.66665  0.58024  1
 W  W2  1  0.66671  0.33343  0.34944  1
