CIF file written using JARVIS-Tools package.
data_MgSiNiO5
_symmetry_space_group_name_H-M  'P-1'
_cell_length_a       4.98978
_cell_length_b       5.39141
_cell_length_c       6.67726
_cell_angle_alpha    105.986
_cell_angle_beta     99.1111
_cell_angle_gamma    110.138

_symmetry_Int_Tables_number  2
_chemical_formula_structural  MgSiNiO5
_chemical_formula_sum  Mg2Si2Ni2O0
_cell_volume  155.6186057230406
_cell_formula_units_Z  2
loop_
  _symmetry_equiv_pos_site_id
 _symmetry_equiv_pos_as_xyz
 1  'x, y, z'
loop_
 _atom_site_type_symbol
 _atom_site_label
 _atom_site_symmetry_multiplicity
 _atom_site_fract_x
 _atom_site_fract_y
 _atom_site_fract_z
 _atom_site_fract_occupancy
 Mg  Mg1  1  0.86958  0.72055  0.24680  1
 Mg  Mg2  1  0.13616  0.28410  0.73904  1
 Ni  Ni1  1  0.50287  0.00233  0.49293  1
 Ni  Ni2  1  0.50287  0.00233  0.99293  1
 O  O1  1  0.49047  0.35534  0.14291  1
 O  O2  1  0.20244  0.14039  0.40128  1
 O  O3  1  0.51527  0.64931  0.84294  1
 O  O4  1  0.80330  0.86426  0.58456  1
 O  O5  1  0.80244  0.37312  0.61571  1
 O  O6  1  0.09213  0.79390  0.97018  1
 O  O7  1  0.20331  0.63154  0.37014  1
 O  O8  1  0.91361  0.21074  0.01567  1
 O  O9  1  0.37461  0.05073  0.74017  1
 O  O10  1  0.63114  0.95393  0.24568  1
 Si  Si1  1  0.19697  0.32267  0.23645  1
 Si  Si2  1  0.80878  0.68198  0.74940  1
