CIF file written using JARVIS-Tools package.
data_Rb2NbAgS4
_symmetry_space_group_name_H-M  'Fddd'
_cell_length_a       5.92951
_cell_length_b       7.37517
_cell_length_c       12.0524
_cell_angle_alpha    84.325
_cell_angle_beta     75.7597
_cell_angle_gamma    66.2973

_symmetry_Int_Tables_number  70
_chemical_formula_structural  Rb2NbAgS4
_chemical_formula_sum  Rb4Nb2Ag2S8
_cell_volume  467.7730350534307
_cell_formula_units_Z  2
loop_
  _symmetry_equiv_pos_site_id
 _symmetry_equiv_pos_as_xyz
 1  'x, y, z'
loop_
 _atom_site_type_symbol
 _atom_site_label
 _atom_site_symmetry_multiplicity
 _atom_site_fract_x
 _atom_site_fract_y
 _atom_site_fract_z
 _atom_site_fract_occupancy
 Ag  Ag1  1  0.12500  0.75000  0.75000  1
 Ag  Ag2  1  0.87500  0.25000  0.25000  1
 Nb  Nb1  1  0.62500  0.75000  0.75000  1
 Nb  Nb2  1  0.37500  0.25000  0.25000  1
 Rb  Rb1  1  0.55556  0.25000  0.88889  1
 Rb  Rb2  1  0.44444  0.75000  0.11111  1
 Rb  Rb3  1  0.19444  0.25000  0.61111  1
 Rb  Rb4  1  0.80556  0.75000  0.38889  1
 S  S1  1  0.56780  0.54593  0.63482  1
 S  S2  1  0.24855  0.95407  0.86518  1
 S  S3  1  0.88627  0.54593  0.86518  1
 S  S4  1  0.79738  0.95407  0.63482  1
 S  S5  1  0.43220  0.45407  0.36518  1
 S  S6  1  0.20262  0.04593  0.36518  1
 S  S7  1  0.11373  0.45407  0.13482  1
 S  S8  1  0.75145  0.04593  0.13482  1
