CIF file written using JARVIS-Tools package.
data_ZrNCl
_symmetry_space_group_name_H-M  'R-3m'
_cell_length_a       9.5025
_cell_length_b       9.5025
_cell_length_c       9.5025
_cell_angle_alpha    21.9913
_cell_angle_beta     21.9913
_cell_angle_gamma    21.9914

_symmetry_Int_Tables_number  166
_chemical_formula_structural  ZrNCl
_chemical_formula_sum  Zr2N2Cl2
_cell_volume  105.47942735707186
_cell_formula_units_Z  2
loop_
  _symmetry_equiv_pos_site_id
 _symmetry_equiv_pos_as_xyz
 1  'x, y, z'
loop_
 _atom_site_type_symbol
 _atom_site_label
 _atom_site_symmetry_multiplicity
 _atom_site_fract_x
 _atom_site_fract_y
 _atom_site_fract_z
 _atom_site_fract_occupancy
 Cl  Cl1  1  0.38759  0.38759  0.38759  1
 Cl  Cl2  1  0.61241  0.61241  0.61241  1
 N  N1  1  0.86437  0.86437  0.86437  1
 N  N2  1  0.13563  0.13563  0.13563  1
 Zr  Zr1  1  0.78587  0.78587  0.78587  1
 Zr  Zr2  1  0.21413  0.21413  0.21413  1
