CIF file written using JARVIS-Tools package.
data_Sr2TlIn
_symmetry_space_group_name_H-M  'Immm'
_cell_length_a       13.218
_cell_length_b       14.3342
_cell_length_c       14.3342
_cell_angle_alpha    61.462
_cell_angle_beta     62.5441
_cell_angle_gamma    62.5441

_symmetry_Int_Tables_number  71
_chemical_formula_structural  Sr2TlIn
_chemical_formula_sum  Sr2TlIn
_cell_volume  2013.637740102588
_cell_formula_units_Z  1
loop_
  _symmetry_equiv_pos_site_id
 _symmetry_equiv_pos_as_xyz
 1  'x, y, z'
loop_
 _atom_site_type_symbol
 _atom_site_label
 _atom_site_symmetry_multiplicity
 _atom_site_fract_x
 _atom_site_fract_y
 _atom_site_fract_z
 _atom_site_fract_occupancy
 In  In1  1  0.00000  0.00000  0.00000  1
 Sr  Sr1  1  0.75110  0.00000  -0.00000  1
 Sr  Sr2  1  0.24890  -0.00000  0.00000  1
 Tl  Tl1  1  0.50000  -0.00000  0.00000  1
