CIF file written using JARVIS-Tools package.
data_AgTe6Mo6
_symmetry_space_group_name_H-M  'C2/m'
_cell_length_a       4.59987
_cell_length_b       9.20193
_cell_length_c       9.3322
_cell_angle_alpha    118.415
_cell_angle_beta     90
_cell_angle_gamma    104.474

_symmetry_Int_Tables_number  12
_chemical_formula_structural  AgTe6Mo6
_chemical_formula_sum  AgTe6Mo6
_cell_volume  333.0976897995088
_cell_formula_units_Z  1
loop_
  _symmetry_equiv_pos_site_id
 _symmetry_equiv_pos_as_xyz
 1  'x, y, z'
loop_
 _atom_site_type_symbol
 _atom_site_label
 _atom_site_symmetry_multiplicity
 _atom_site_fract_x
 _atom_site_fract_y
 _atom_site_fract_z
 _atom_site_fract_occupancy
 Ag  Ag1  1  0.00000  0.00000  0.00000  1
 Mo  Mo1  1  0.71532  0.43064  0.31342  1
 Mo  Mo2  1  0.28468  0.56936  0.68658  1
 Mo  Mo3  1  0.84693  0.69385  0.62102  1
 Mo  Mo4  1  0.15307  0.30615  0.37898  1
 Mo  Mo5  1  0.68638  0.37275  0.56700  1
 Mo  Mo6  1  0.31362  0.62725  0.43300  1
 Te  Te1  1  0.11600  0.23200  0.64183  1
 Te  Te2  1  0.53963  0.07926  0.25233  1
 Te  Te3  1  0.46037  0.92074  0.74767  1
 Te  Te4  1  0.81898  0.63796  0.90096  1
 Te  Te5  1  0.18102  0.36204  0.09904  1
 Te  Te6  1  0.88400  0.76800  0.35817  1
