CIF file written using JARVIS-Tools package.
data_Co2P2O7
_symmetry_space_group_name_H-M  'P-1'
_cell_length_a       4.54994
_cell_length_b       5.24974
_cell_length_c       5.25796
_cell_angle_alpha    103.305
_cell_angle_beta     97.9196
_cell_angle_gamma    97.9378

_symmetry_Int_Tables_number  2
_chemical_formula_structural  Co2P2O7
_chemical_formula_sum  Co2P2O7
_cell_volume  119.1612878296688
_cell_formula_units_Z  1
loop_
  _symmetry_equiv_pos_site_id
 _symmetry_equiv_pos_as_xyz
 1  'x, y, z'
loop_
 _atom_site_type_symbol
 _atom_site_label
 _atom_site_symmetry_multiplicity
 _atom_site_fract_x
 _atom_site_fract_y
 _atom_site_fract_z
 _atom_site_fract_occupancy
 Co  Co1  1  0.49963  0.31723  0.68324  1
 Co  Co2  1  0.50037  0.68277  0.31676  1
 O  O1  1  0.72002  0.07148  0.38073  1
 O  O2  1  0.27994  0.61869  0.92801  1
 O  O3  1  0.20814  0.37820  0.37795  1
 O  O4  1  0.00000  0.00000  0.00000  1
 O  O5  1  0.27998  0.92852  0.61927  1
 O  O6  1  0.79186  0.62180  0.62205  1
 O  O7  1  0.72006  0.38131  0.07199  1
 P  P1  1  0.09562  0.78248  0.78254  1
 P  P2  1  0.90438  0.21752  0.21746  1
