CIF file written using JARVIS-Tools package.
data_BaYCl5
_symmetry_space_group_name_H-M  'C2/c'
_cell_length_a       6.67619
_cell_length_b       6.67619
_cell_length_c       10.7063
_cell_angle_alpha    72.3316
_cell_angle_beta     107.668
_cell_angle_gamma    111.862

_symmetry_Int_Tables_number  15
_chemical_formula_structural  BaYCl5
_chemical_formula_sum  Ba2Y2Cl0
_cell_volume  412.0824856600413
_cell_formula_units_Z  2
loop_
  _symmetry_equiv_pos_site_id
 _symmetry_equiv_pos_as_xyz
 1  'x, y, z'
loop_
 _atom_site_type_symbol
 _atom_site_label
 _atom_site_symmetry_multiplicity
 _atom_site_fract_x
 _atom_site_fract_y
 _atom_site_fract_z
 _atom_site_fract_occupancy
 Ba  Ba1  1  0.49020  0.49020  0.75000  1
 Ba  Ba2  1  0.50980  0.50980  0.25000  1
 Cl  Cl1  1  0.04820  0.61897  0.63174  1
 Cl  Cl2  1  0.79301  0.57352  0.02625  1
 Cl  Cl3  1  0.38103  0.95180  0.13174  1
 Cl  Cl4  1  0.05587  0.05587  0.75000  1
 Cl  Cl5  1  0.57352  0.79301  0.47375  1
 Cl  Cl6  1  0.42648  0.20699  0.52625  1
 Cl  Cl7  1  0.94413  0.94413  0.25000  1
 Cl  Cl8  1  0.61897  0.04820  0.86826  1
 Cl  Cl9  1  0.20699  0.42648  -0.02625  1
 Cl  Cl10  1  0.95180  0.38103  0.36826  1
 Y  Y1  1  -0.00000  0.00000  0.50000  1
 Y  Y2  1  0.00000  0.00000  0.00000  1
