CIF file written using JARVIS-Tools package.
data_ScSiRu2
_symmetry_space_group_name_H-M  'Amm2'
_cell_length_a       10.2073
_cell_length_b       3.63717
_cell_length_c       4.72281
_cell_angle_alpha    39.6564
_cell_angle_beta     33.8204
_cell_angle_gamma    44.5846

_symmetry_Int_Tables_number  38
_chemical_formula_structural  ScSiRu2
_chemical_formula_sum  ScSiRu2
_cell_volume  60.966302666239585
_cell_formula_units_Z  1
loop_
  _symmetry_equiv_pos_site_id
 _symmetry_equiv_pos_as_xyz
 1  'x, y, z'
loop_
 _atom_site_type_symbol
 _atom_site_label
 _atom_site_symmetry_multiplicity
 _atom_site_fract_x
 _atom_site_fract_y
 _atom_site_fract_z
 _atom_site_fract_occupancy
 Ru  Ru1  1  0.75498  -0.19004  0.18004  1
 Ru  Ru2  1  0.19702  0.08890  0.01706  1
 Sc  Sc1  1  0.52104  -0.07302  0.03089  1
 Si  Si1  1  0.02696  0.17415  -0.22800  1
