CIF file written using JARVIS-Tools package.
data_Mn3P
_symmetry_space_group_name_H-M  'I-4'
_cell_length_a       4.44902
_cell_length_b       6.68581
_cell_length_c       6.68581
_cell_angle_alpha    83.6442
_cell_angle_beta     70.566
_cell_angle_gamma    70.566

_symmetry_Int_Tables_number  82
_chemical_formula_structural  Mn3P
_chemical_formula_sum  Mn2P4
_cell_volume  176.85604500553214
_cell_formula_units_Z  4
loop_
  _symmetry_equiv_pos_site_id
 _symmetry_equiv_pos_as_xyz
 1  'x, y, z'
loop_
 _atom_site_type_symbol
 _atom_site_label
 _atom_site_symmetry_multiplicity
 _atom_site_fract_x
 _atom_site_fract_y
 _atom_site_fract_z
 _atom_site_fract_occupancy
 Mn  Mn1  1  0.34137  0.67607  0.61678  1
 Mn  Mn2  1  0.04185  0.61678  0.32393  1
 Mn  Mn3  1  0.98256  0.38322  0.67607  1
 Mn  Mn4  1  0.63422  0.32393  0.38322  1
 Mn  Mn5  1  0.93055  0.04718  0.60735  1
 Mn  Mn6  1  0.46210  0.60735  0.95282  1
 Mn  Mn7  1  0.02226  0.39265  0.04718  1
 Mn  Mn8  1  0.58509  0.95282  0.39265  1
 Mn  Mn9  1  0.13226  0.97688  0.18698  1
 Mn  Mn10  1  0.68076  0.18698  0.02312  1
 Mn  Mn11  1  0.89086  0.81302  0.97688  1
 Mn  Mn12  1  0.29612  0.02312  0.81302  1
 P  P1  1  0.20327  0.25035  0.33072  1
 P  P2  1  0.46601  0.33072  0.74965  1
 P  P3  1  0.54638  0.66928  0.25035  1
 P  P4  1  0.78434  0.74965  0.66928  1
