CIF file written using JARVIS-Tools package.
data_HfVAu2
_symmetry_space_group_name_H-M  'C2/m'
_cell_length_a       11.5071
_cell_length_b       5.18981
_cell_length_c       5.18638
_cell_angle_alpha    45.2346
_cell_angle_beta     28.3144
_cell_angle_gamma    28.2555

_symmetry_Int_Tables_number  12
_chemical_formula_structural  HfVAu2
_chemical_formula_sum  HfVAu2
_cell_volume  65.95194730343647
_cell_formula_units_Z  1
loop_
  _symmetry_equiv_pos_site_id
 _symmetry_equiv_pos_as_xyz
 1  'x, y, z'
loop_
 _atom_site_type_symbol
 _atom_site_label
 _atom_site_symmetry_multiplicity
 _atom_site_fract_x
 _atom_site_fract_y
 _atom_site_fract_z
 _atom_site_fract_occupancy
 Au  Au1  1  0.74258  0.01527  0.01524  1
 Au  Au2  1  0.25742  -0.01527  -0.01524  1
 Hf  Hf1  1  0.50000  0.00000  0.00000  1
 V  V1  1  0.00000  0.00000  0.00000  1
