CIF file written using JARVIS-Tools package.
data_Sr2Ti6N2O11
_symmetry_space_group_name_H-M  'Cm'
_cell_length_a       3.84713
_cell_length_b       7.78954
_cell_length_c       9.29626
_cell_angle_alpha    98.5984
_cell_angle_beta     89.9988
_cell_angle_gamma    104.298

_symmetry_Int_Tables_number  8
_chemical_formula_structural  Sr2Ti6N2O11
_chemical_formula_sum  Sr2Ti6N2O
_cell_volume  266.72253781781546
_cell_formula_units_Z  1
loop_
  _symmetry_equiv_pos_site_id
 _symmetry_equiv_pos_as_xyz
 1  'x, y, z'
loop_
 _atom_site_type_symbol
 _atom_site_label
 _atom_site_symmetry_multiplicity
 _atom_site_fract_x
 _atom_site_fract_y
 _atom_site_fract_z
 _atom_site_fract_occupancy
 N  N1  1  0.29395  0.59124  0.58053  1
 N  N2  1  0.93215  0.86764  0.71641  1
 O  O1  1  0.83390  0.67114  0.09606  1
 O  O2  1  0.87246  0.74821  0.38214  1
 O  O3  1  0.12215  0.24767  0.61655  1
 O  O4  1  0.15150  0.30633  0.90348  1
 O  O5  1  0.63636  0.27605  0.11616  1
 O  O6  1  0.06521  0.13378  0.29908  1
 O  O7  1  0.75365  0.51064  0.76796  1
 O  O8  1  0.23754  0.47841  0.24129  1
 O  O9  1  0.35741  0.71815  0.89397  1
 O  O10  1  0.99654  -0.00359  0.01953  1
 O  O11  1  0.69685  0.39704  0.42717  1
 Sr  Sr1  1  0.45509  0.91352  0.22158  1
 Sr  Sr2  1  0.55390  0.11113  0.75421  1
 Ti  Ti1  1  0.88601  0.77535  0.89245  1
 Ti  Ti2  1  0.83328  0.66989  0.56565  1
 Ti  Ti3  1  0.76651  0.53633  0.23427  1
 Ti  Ti4  1  0.24102  0.48538  0.75544  1
 Ti  Ti5  1  0.16448  0.33233  0.43972  1
 Ti  Ti6  1  0.12028  0.24389  0.08500  1
