CIF file written using JARVIS-Tools package.
data_SrHg2Bi
_symmetry_space_group_name_H-M  'C2/m'
_cell_length_a       13.3638
_cell_length_b       8.3842
_cell_length_c       8.38419
_cell_angle_alpha    41.4087
_cell_angle_beta     23.4911
_cell_angle_gamma    23.4911

_symmetry_Int_Tables_number  12
_chemical_formula_structural  SrHg2Bi
_chemical_formula_sum  SrHg2Bi
_cell_volume  122.28731197688134
_cell_formula_units_Z  1
loop_
  _symmetry_equiv_pos_site_id
 _symmetry_equiv_pos_as_xyz
 1  'x, y, z'
loop_
 _atom_site_type_symbol
 _atom_site_label
 _atom_site_symmetry_multiplicity
 _atom_site_fract_x
 _atom_site_fract_y
 _atom_site_fract_z
 _atom_site_fract_occupancy
 Bi  Bi1  1  0.50000  0.00000  -0.00000  1
 Hg  Hg1  1  0.75248  -0.00202  -0.00202  1
 Hg  Hg2  1  0.24752  0.00202  0.00202  1
 Sr  Sr1  1  0.00000  0.00000  0.00000  1
