CIF file written using JARVIS-Tools package.
data_HgSeO4
_symmetry_space_group_name_H-M  'Pmn2_1'
_cell_length_a       4.96737
_cell_length_b       5.08299
_cell_length_c       6.81767
_cell_angle_alpha    90
_cell_angle_beta     90
_cell_angle_gamma    90

_symmetry_Int_Tables_number  31
_chemical_formula_structural  HgSeO4
_chemical_formula_sum  Hg2Se2O8
_cell_volume  172.13986861776664
_cell_formula_units_Z  2
loop_
  _symmetry_equiv_pos_site_id
 _symmetry_equiv_pos_as_xyz
 1  'x, y, z'
loop_
 _atom_site_type_symbol
 _atom_site_label
 _atom_site_symmetry_multiplicity
 _atom_site_fract_x
 _atom_site_fract_y
 _atom_site_fract_z
 _atom_site_fract_occupancy
 Hg  Hg1  1  0.14853  0.50082  0.50000  1
 Hg  Hg2  1  0.85147  0.00082  0.00000  1
 O  O1  1  0.69841  0.30681  0.50000  1
 O  O2  1  0.30159  0.80681  0.00000  1
 O  O3  1  0.32523  0.92432  0.50000  1
 O  O4  1  0.67477  0.42432  0.00000  1
 O  O5  1  0.80604  0.82949  0.69260  1
 O  O6  1  0.19396  0.32949  0.80740  1
 O  O7  1  0.19396  0.32949  0.19260  1
 O  O8  1  0.80604  0.82949  0.30740  1
 Se  Se1  1  0.65697  0.98088  0.50000  1
 Se  Se2  1  0.34303  0.48088  0.00000  1
