CIF file written using JARVIS-Tools package.
data_Sr2CdHg
_symmetry_space_group_name_H-M  'Immm'
_cell_length_a       13.2879
_cell_length_b       7.68941
_cell_length_c       7.68942
_cell_angle_alpha    51.1708
_cell_angle_beta     30.2271
_cell_angle_gamma    30.2272

_symmetry_Int_Tables_number  71
_chemical_formula_structural  Sr2CdHg
_chemical_formula_sum  Sr2CdHg
_cell_volume  175.57413626087634
_cell_formula_units_Z  1
loop_
  _symmetry_equiv_pos_site_id
 _symmetry_equiv_pos_as_xyz
 1  'x, y, z'
loop_
 _atom_site_type_symbol
 _atom_site_label
 _atom_site_symmetry_multiplicity
 _atom_site_fract_x
 _atom_site_fract_y
 _atom_site_fract_z
 _atom_site_fract_occupancy
 Cd  Cd1  1  0.00000  0.00000  0.00000  1
 Hg  Hg1  1  0.50000  -0.00000  0.00000  1
 Sr  Sr1  1  0.74137  -0.00000  -0.00000  1
 Sr  Sr2  1  0.25863  0.00000  0.00000  1
