CIF file written using JARVIS-Tools package.
data_In5B4Ir9
_symmetry_space_group_name_H-M  'P-62m'
_cell_length_a       5.65374
_cell_length_b       5.65375
_cell_length_c       10.4003
_cell_angle_alpha    90
_cell_angle_beta     90
_cell_angle_gamma    120

_symmetry_Int_Tables_number  189
_chemical_formula_structural  In5B4Ir9
_chemical_formula_sum  In5B4Ir9
_cell_volume  287.9062210323911
_cell_formula_units_Z  1
loop_
  _symmetry_equiv_pos_site_id
 _symmetry_equiv_pos_as_xyz
 1  'x, y, z'
loop_
 _atom_site_type_symbol
 _atom_site_label
 _atom_site_symmetry_multiplicity
 _atom_site_fract_x
 _atom_site_fract_y
 _atom_site_fract_z
 _atom_site_fract_occupancy
 B  B1  1  0.33333  0.66667  0.85305  1
 B  B2  1  0.66667  0.33333  0.14695  1
 B  B3  1  0.33333  0.66667  0.14695  1
 B  B4  1  0.66667  0.33333  0.85305  1
 In  In1  1  0.00000  0.00000  0.00000  1
 In  In2  1  0.00000  0.00000  0.34360  1
 In  In3  1  0.00000  0.00000  0.65640  1
 In  In4  1  0.66667  0.33333  0.50000  1
 In  In5  1  0.33333  0.66667  0.50000  1
 Ir  Ir1  1  0.52408  0.52408  0.00000  1
 Ir  Ir2  1  0.47592  0.00000  0.00000  1
 Ir  Ir3  1  -0.00000  0.47303  0.27545  1
 Ir  Ir4  1  0.47303  0.00000  0.72455  1
 Ir  Ir5  1  0.47303  0.00000  0.27545  1
 Ir  Ir6  1  -0.00000  0.47592  0.00000  1
 Ir  Ir7  1  0.52697  0.52697  0.72455  1
 Ir  Ir8  1  -0.00000  0.47303  0.72455  1
 Ir  Ir9  1  0.52697  0.52697  0.27545  1
