CIF file written using JARVIS-Tools package.
data_Be2OsPt
_symmetry_space_group_name_H-M  'Immm'
_cell_length_a       8.88448
_cell_length_b       5.2106
_cell_length_c       5.2106
_cell_angle_alpha    29.1229
_cell_angle_beta     31.511
_cell_angle_gamma    31.511

_symmetry_Int_Tables_number  71
_chemical_formula_structural  Be2OsPt
_chemical_formula_sum  Be2OsPt
_cell_volume  55.578441677983776
_cell_formula_units_Z  1
loop_
  _symmetry_equiv_pos_site_id
 _symmetry_equiv_pos_as_xyz
 1  'x, y, z'
loop_
 _atom_site_type_symbol
 _atom_site_label
 _atom_site_symmetry_multiplicity
 _atom_site_fract_x
 _atom_site_fract_y
 _atom_site_fract_z
 _atom_site_fract_occupancy
 Be  Be1  1  0.74856  -0.00000  0.00000  1
 Be  Be2  1  0.25144  0.00000  -0.00000  1
 Os  Os1  1  0.00000  0.00000  0.00000  1
 Pt  Pt1  1  0.50000  -0.00000  0.00000  1
