CIF file written using JARVIS-Tools package.
data_Zr2AgPdF11
_symmetry_space_group_name_H-M  'C2/m'
_cell_length_a       5.90669
_cell_length_b       5.90669
_cell_length_c       7.9024
_cell_angle_alpha    69.2042
_cell_angle_beta     69.2042
_cell_angle_gamma    73.0422

_symmetry_Int_Tables_number  12
_chemical_formula_structural  Zr2AgPdF11
_chemical_formula_sum  Zr2AgPdF
_cell_volume  236.58738437614937
_cell_formula_units_Z  1
loop_
  _symmetry_equiv_pos_site_id
 _symmetry_equiv_pos_as_xyz
 1  'x, y, z'
loop_
 _atom_site_type_symbol
 _atom_site_label
 _atom_site_symmetry_multiplicity
 _atom_site_fract_x
 _atom_site_fract_y
 _atom_site_fract_z
 _atom_site_fract_occupancy
 Ag  Ag1  1  0.00000  0.00000  0.00000  1
 F  F1  1  0.80412  0.23356  0.69147  1
 F  F2  1  0.76644  0.19588  0.30853  1
 F  F3  1  0.19588  0.76644  0.30853  1
 F  F4  1  0.23356  0.80412  0.69147  1
 F  F5  1  0.50000  0.50000  0.50000  1
 F  F6  1  0.33608  0.66392  0.00000  1
 F  F7  1  0.66392  0.33608  -0.00000  1
 F  F8  1  0.25526  0.25526  0.34371  1
 F  F9  1  0.74474  0.74474  0.65629  1
 F  F10  1  0.27539  0.27539  0.89210  1
 F  F11  1  0.72461  0.72461  0.10790  1
 Pd  Pd1  1  -0.00000  -0.00000  0.50000  1
 Zr  Zr1  1  0.49300  0.49300  0.23656  1
 Zr  Zr2  1  0.50700  0.50700  0.76344  1
