CIF file written using JARVIS-Tools package.
data_TlSnPb2
_symmetry_space_group_name_H-M  'Immm'
_cell_length_a       11.8447
_cell_length_b       11.7471
_cell_length_c       11.7471
_cell_angle_alpha    56.3064
_cell_angle_beta     59.7138
_cell_angle_gamma    59.7138

_symmetry_Int_Tables_number  71
_chemical_formula_structural  TlSnPb2
_chemical_formula_sum  TlSnPb2
_cell_volume  1115.5036856589409
_cell_formula_units_Z  1
loop_
  _symmetry_equiv_pos_site_id
 _symmetry_equiv_pos_as_xyz
 1  'x, y, z'
loop_
 _atom_site_type_symbol
 _atom_site_label
 _atom_site_symmetry_multiplicity
 _atom_site_fract_x
 _atom_site_fract_y
 _atom_site_fract_z
 _atom_site_fract_occupancy
 Pb  Pb1  1  0.76768  -0.00000  -0.00000  1
 Pb  Pb2  1  0.23232  0.00000  0.00000  1
 Sn  Sn1  1  0.00000  -0.00000  -0.00000  1
 Tl  Tl1  1  0.50000  0.00000  0.00000  1
