CIF file written using JARVIS-Tools package.
data_Mg2GaPd
_symmetry_space_group_name_H-M  'Immm'
_cell_length_a       14.4516
_cell_length_b       7.64457
_cell_length_c       7.64457
_cell_angle_alpha    29.5262
_cell_angle_beta     19.0531
_cell_angle_gamma    19.053

_symmetry_Int_Tables_number  71
_chemical_formula_structural  Mg2GaPd
_chemical_formula_sum  Mg2GaPd
_cell_volume  87.82057440177567
_cell_formula_units_Z  1
loop_
  _symmetry_equiv_pos_site_id
 _symmetry_equiv_pos_as_xyz
 1  'x, y, z'
loop_
 _atom_site_type_symbol
 _atom_site_label
 _atom_site_symmetry_multiplicity
 _atom_site_fract_x
 _atom_site_fract_y
 _atom_site_fract_z
 _atom_site_fract_occupancy
 Ga  Ga1  1  0.00000  0.00000  0.00000  1
 Mg  Mg1  1  0.68232  0.00000  0.00000  1
 Mg  Mg2  1  0.31768  -0.00000  -0.00000  1
 Pd  Pd1  1  0.50000  0.00000  0.00000  1
