CIF file written using JARVIS-Tools package.
data_NaSr2Mg
_symmetry_space_group_name_H-M  'Immm'
_cell_length_a       14.8764
_cell_length_b       10.4956
_cell_length_c       10.4956
_cell_angle_alpha    33.2425
_cell_angle_beta     19.37
_cell_angle_gamma    19.37

_symmetry_Int_Tables_number  71
_chemical_formula_structural  NaSr2Mg
_chemical_formula_sum  NaSr2Mg
_cell_volume  157.3835765006518
_cell_formula_units_Z  1
loop_
  _symmetry_equiv_pos_site_id
 _symmetry_equiv_pos_as_xyz
 1  'x, y, z'
loop_
 _atom_site_type_symbol
 _atom_site_label
 _atom_site_symmetry_multiplicity
 _atom_site_fract_x
 _atom_site_fract_y
 _atom_site_fract_z
 _atom_site_fract_occupancy
 Mg  Mg1  1  0.50000  0.00000  -0.00000  1
 Na  Na1  1  0.00000  0.00000  0.00000  1
 Sr  Sr1  1  0.74993  -0.00001  -0.00001  1
 Sr  Sr2  1  0.25007  0.00001  0.00001  1
