CIF file written using JARVIS-Tools package.
data_Sr2AgSb
_symmetry_space_group_name_H-M  'Immm'
_cell_length_a       12.1399
_cell_length_b       12.8018
_cell_length_c       12.8018
_cell_angle_alpha    61.2115
_cell_angle_beta     61.6958
_cell_angle_gamma    61.6958

_symmetry_Int_Tables_number  71
_chemical_formula_structural  Sr2AgSb
_chemical_formula_sum  Sr2AgSb
_cell_volume  1455.205222915614
_cell_formula_units_Z  1
loop_
  _symmetry_equiv_pos_site_id
 _symmetry_equiv_pos_as_xyz
 1  'x, y, z'
loop_
 _atom_site_type_symbol
 _atom_site_label
 _atom_site_symmetry_multiplicity
 _atom_site_fract_x
 _atom_site_fract_y
 _atom_site_fract_z
 _atom_site_fract_occupancy
 Ag  Ag1  1  0.00000  0.00000  0.00000  1
 Sb  Sb1  1  0.50000  -0.00000  -0.00000  1
 Sr  Sr1  1  0.74045  0.00000  0.00000  1
 Sr  Sr2  1  0.25955  -0.00000  -0.00000  1
