CIF file written using JARVIS-Tools package.
data_MnBi2Te4
_symmetry_space_group_name_H-M  'R-3m'
_cell_length_a       4.34512
_cell_length_b       4.34512
_cell_length_c       14.1039
_cell_angle_alpha    81.139
_cell_angle_beta     81.139
_cell_angle_gamma    60.0001

_symmetry_Int_Tables_number  166
_chemical_formula_structural  MnBi2Te4
_chemical_formula_sum  MnBi2Te4
_cell_volume  226.93036396400655
_cell_formula_units_Z  1
loop_
  _symmetry_equiv_pos_site_id
 _symmetry_equiv_pos_as_xyz
 1  'x, y, z'
loop_
 _atom_site_type_symbol
 _atom_site_label
 _atom_site_symmetry_multiplicity
 _atom_site_fract_x
 _atom_site_fract_y
 _atom_site_fract_z
 _atom_site_fract_occupancy
 Bi  Bi1  1  0.42209  0.42209  0.73374  1
 Bi  Bi2  1  0.57791  0.57791  0.26626  1
 Mn  Mn1  1  0.00000  0.00000  0.00000  1
 Te  Te1  1  0.13115  0.13115  0.60654  1
 Te  Te2  1  0.86885  0.86885  0.39346  1
 Te  Te3  1  0.29671  0.29671  0.10986  1
 Te  Te4  1  0.70329  0.70329  0.89014  1
