CIF file written using JARVIS-Tools package.
data_CaTl2O4
_symmetry_space_group_name_H-M  'Cmcm'
_cell_length_a       3.36766
_cell_length_b       5.84713
_cell_length_c       10.566
_cell_angle_alpha    90
_cell_angle_beta     90
_cell_angle_gamma    106.737

_symmetry_Int_Tables_number  63
_chemical_formula_structural  CaTl2O4
_chemical_formula_sum  Ca2Tl4O8
_cell_volume  199.24287282765073
_cell_formula_units_Z  2
loop_
  _symmetry_equiv_pos_site_id
 _symmetry_equiv_pos_as_xyz
 1  'x, y, z'
loop_
 _atom_site_type_symbol
 _atom_site_label
 _atom_site_symmetry_multiplicity
 _atom_site_fract_x
 _atom_site_fract_y
 _atom_site_fract_z
 _atom_site_fract_occupancy
 Ca  Ca1  1  0.89104  0.78208  0.25000  1
 Ca  Ca2  1  0.10896  0.21792  0.75000  1
 O  O1  1  0.53632  0.07264  0.25000  1
 O  O2  1  0.46368  0.92736  0.75000  1
 O  O3  1  0.00000  0.00000  0.50000  1
 O  O4  1  0.00000  0.00000  0.00000  1
 O  O5  1  0.28144  0.56287  0.11834  1
 O  O6  1  0.71856  0.43713  0.88166  1
 O  O7  1  0.28144  0.56287  0.38166  1
 O  O8  1  0.71856  0.43713  0.61834  1
 Tl  Tl1  1  0.36547  0.73095  0.57220  1
 Tl  Tl2  1  0.63453  0.26905  0.42780  1
 Tl  Tl3  1  0.63453  0.26905  0.07220  1
 Tl  Tl4  1  0.36547  0.73095  0.92780  1
