CIF file written using JARVIS-Tools package.
data_Li3Co4O8
_symmetry_space_group_name_H-M  'C2/m'
_cell_length_a       9.89714
_cell_length_b       9.89714
_cell_length_c       4.95463
_cell_angle_alpha    33.2082
_cell_angle_beta     33.2081
_cell_angle_gamma    33.2588

_symmetry_Int_Tables_number  12
_chemical_formula_structural  Li3Co4O8
_chemical_formula_sum  Li3Co4O8
_cell_volume  129.7137806840425
_cell_formula_units_Z  1
loop_
  _symmetry_equiv_pos_site_id
 _symmetry_equiv_pos_as_xyz
 1  'x, y, z'
loop_
 _atom_site_type_symbol
 _atom_site_label
 _atom_site_symmetry_multiplicity
 _atom_site_fract_x
 _atom_site_fract_y
 _atom_site_fract_z
 _atom_site_fract_occupancy
 Co  Co1  1  0.00197  0.00197  0.00047  1
 Co  Co2  1  0.00124  0.49876  -0.00000  1
 Co  Co3  1  0.49876  0.00124  0.00000  1
 Co  Co4  1  0.49803  0.49803  -0.00047  1
 Li  Li1  1  0.25000  0.75000  0.50000  1
 Li  Li2  1  0.75000  0.25000  0.50000  1
 Li  Li3  1  0.75000  0.75000  0.50000  1
 O  O1  1  0.12868  0.12868  0.27727  1
 O  O2  1  0.12501  0.63945  0.26003  1
 O  O3  1  0.63945  0.12501  0.26003  1
 O  O4  1  0.63083  0.63083  0.25496  1
 O  O5  1  0.37132  0.37132  0.72273  1
 O  O6  1  0.37499  0.86055  0.73997  1
 O  O7  1  0.86055  0.37499  0.73997  1
 O  O8  1  0.86917  0.86917  0.74504  1
