CIF file written using JARVIS-Tools package.
data_SrCaAg2
_symmetry_space_group_name_H-M  'Immm'
_cell_length_a       13.1006
_cell_length_b       9.26491
_cell_length_c       9.26491
_cell_angle_alpha    33.6335
_cell_angle_beta     19.5022
_cell_angle_gamma    19.5022

_symmetry_Int_Tables_number  71
_chemical_formula_structural  SrCaAg2
_chemical_formula_sum  SrCaAg2
_cell_volume  108.39241704391998
_cell_formula_units_Z  1
loop_
  _symmetry_equiv_pos_site_id
 _symmetry_equiv_pos_as_xyz
 1  'x, y, z'
loop_
 _atom_site_type_symbol
 _atom_site_label
 _atom_site_symmetry_multiplicity
 _atom_site_fract_x
 _atom_site_fract_y
 _atom_site_fract_z
 _atom_site_fract_occupancy
 Ag  Ag1  1  0.74949  0.00025  0.00025  1
 Ag  Ag2  1  0.25051  -0.00025  -0.00025  1
 Ca  Ca1  1  0.00000  0.00000  0.00000  1
 Sr  Sr1  1  0.50000  -0.00000  -0.00000  1
