CIF file written using JARVIS-Tools package.
data_LiFeAs
_symmetry_space_group_name_H-M  'I4mm'
_cell_length_a       3.0374
_cell_length_b       3.0374
_cell_length_c       4.51098
_cell_angle_alpha    109.674
_cell_angle_beta     109.674
_cell_angle_gamma    90

_symmetry_Int_Tables_number  107
_chemical_formula_structural  LiFeAs
_chemical_formula_sum  LiFeAs
_cell_volume  36.59749682320181
_cell_formula_units_Z  1
loop_
  _symmetry_equiv_pos_site_id
 _symmetry_equiv_pos_as_xyz
 1  'x, y, z'
loop_
 _atom_site_type_symbol
 _atom_site_label
 _atom_site_symmetry_multiplicity
 _atom_site_fract_x
 _atom_site_fract_y
 _atom_site_fract_z
 _atom_site_fract_occupancy
 As  As1  1  0.85767  0.85767  0.71533  1
 Fe  Fe1  1  0.21305  0.21305  0.42609  1
 Li  Li1  1  0.53499  0.53499  0.06997  1
