CIF file written using JARVIS-Tools package.
data_Al2CuTc
_symmetry_space_group_name_H-M  'Immm'
_cell_length_a       9.72764
_cell_length_b       9.54099
_cell_length_c       9.54099
_cell_angle_alpha    59.846
_cell_angle_beta     59.3507
_cell_angle_gamma    59.3508

_symmetry_Int_Tables_number  71
_chemical_formula_structural  Al2CuTc
_chemical_formula_sum  Al2CuTc
_cell_volume  619.2251298477593
_cell_formula_units_Z  1
loop_
  _symmetry_equiv_pos_site_id
 _symmetry_equiv_pos_as_xyz
 1  'x, y, z'
loop_
 _atom_site_type_symbol
 _atom_site_label
 _atom_site_symmetry_multiplicity
 _atom_site_fract_x
 _atom_site_fract_y
 _atom_site_fract_z
 _atom_site_fract_occupancy
 Al  Al1  1  0.75136  -0.00000  0.00000  1
 Al  Al2  1  0.24864  0.00000  -0.00000  1
 Cu  Cu1  1  0.00000  0.00000  0.00000  1
 Tc  Tc1  1  0.50000  0.00000  -0.00000  1
