CIF file written using JARVIS-Tools package.
data_AlGaPd2
_symmetry_space_group_name_H-M  'Immm'
_cell_length_a       10.6897
_cell_length_b       4.37113
_cell_length_c       4.37113
_cell_angle_alpha    60.2641
_cell_angle_beta     35.3689
_cell_angle_gamma    35.369

_symmetry_Int_Tables_number  71
_chemical_formula_structural  AlGaPd2
_chemical_formula_sum  AlGaPd2
_cell_volume  59.0972830213818
_cell_formula_units_Z  1
loop_
  _symmetry_equiv_pos_site_id
 _symmetry_equiv_pos_as_xyz
 1  'x, y, z'
loop_
 _atom_site_type_symbol
 _atom_site_label
 _atom_site_symmetry_multiplicity
 _atom_site_fract_x
 _atom_site_fract_y
 _atom_site_fract_z
 _atom_site_fract_occupancy
 Al  Al1  1  0.00000  0.00000  0.00000  1
 Ga  Ga1  1  0.50000  0.00000  -0.00000  1
 Pd  Pd1  1  0.74967  0.00030  0.00030  1
 Pd  Pd2  1  0.25033  -0.00030  -0.00030  1
