CIF file written using JARVIS-Tools package.
data_DyTaO4
_symmetry_space_group_name_H-M  'P2/c'
_cell_length_a       5.14297
_cell_length_b       5.4684
_cell_length_c       5.33685
_cell_angle_alpha    90
_cell_angle_beta     96.4969
_cell_angle_gamma    90

_symmetry_Int_Tables_number  13
_chemical_formula_structural  DyTaO4
_chemical_formula_sum  Dy2Ta2O8
_cell_volume  149.1287052882083
_cell_formula_units_Z  2
loop_
  _symmetry_equiv_pos_site_id
 _symmetry_equiv_pos_as_xyz
 1  'x, y, z'
loop_
 _atom_site_type_symbol
 _atom_site_label
 _atom_site_symmetry_multiplicity
 _atom_site_fract_x
 _atom_site_fract_y
 _atom_site_fract_z
 _atom_site_fract_occupancy
 Dy  Dy1  1  -0.00000  0.76481  0.25000  1
 Dy  Dy2  1  -0.00000  0.23519  0.75000  1
 O  O1  1  0.26683  0.56170  0.99085  1
 O  O2  1  0.73317  0.56170  0.50915  1
 O  O3  1  0.73317  0.43830  0.00915  1
 O  O4  1  0.26683  0.43830  0.49085  1
 O  O5  1  0.74941  0.08082  0.40134  1
 O  O6  1  0.25059  0.08082  0.09866  1
 O  O7  1  0.25059  0.91918  0.59866  1
 O  O8  1  0.74941  0.91918  0.90134  1
 Ta  Ta1  1  0.50000  0.69601  0.75000  1
 Ta  Ta2  1  0.50000  0.30399  0.25000  1
