CIF file written using JARVIS-Tools package.
data_FeMoClO4
_symmetry_space_group_name_H-M  'P4/nmm'
_cell_length_a       6.57969
_cell_length_b       6.57969
_cell_length_c       4.85934
_cell_angle_alpha    90
_cell_angle_beta     90
_cell_angle_gamma    90

_symmetry_Int_Tables_number  129
_chemical_formula_structural  FeMoClO4
_chemical_formula_sum  Fe2Mo2Cl2O8
_cell_volume  210.37190384117554
_cell_formula_units_Z  2
loop_
  _symmetry_equiv_pos_site_id
 _symmetry_equiv_pos_as_xyz
 1  'x, y, z'
loop_
 _atom_site_type_symbol
 _atom_site_label
 _atom_site_symmetry_multiplicity
 _atom_site_fract_x
 _atom_site_fract_y
 _atom_site_fract_z
 _atom_site_fract_occupancy
 Cl  Cl1  1  0.50000  0.00000  0.72083  1
 Cl  Cl2  1  0.00000  0.50000  0.27917  1
 Fe  Fe1  1  0.50000  0.00000  0.23480  1
 Fe  Fe2  1  0.00000  0.50000  0.76520  1
 Mo  Mo1  1  0.00000  0.00000  0.00000  1
 Mo  Mo2  1  0.50000  0.50000  0.00000  1
 O  O1  1  0.50000  0.71773  0.21901  1
 O  O2  1  0.50000  0.28227  0.21901  1
 O  O3  1  0.78227  0.00000  0.21901  1
 O  O4  1  0.21773  0.00000  0.21901  1
 O  O5  1  0.71773  0.50000  0.78099  1
 O  O6  1  0.00000  0.78227  0.78099  1
 O  O7  1  0.28227  0.50000  0.78099  1
 O  O8  1  0.00000  0.21773  0.78099  1
