CIF file written using JARVIS-Tools package.
data_YbRbS2
_symmetry_space_group_name_H-M  'R-3m'
_cell_length_a       4.14137
_cell_length_b       4.14137
_cell_length_c       7.89555
_cell_angle_alpha    74.7958
_cell_angle_beta     74.7958
_cell_angle_gamma    59.9999

_symmetry_Int_Tables_number  166
_chemical_formula_structural  YbRbS2
_chemical_formula_sum  YbRbS2
_cell_volume  111.7671019557702
_cell_formula_units_Z  1
loop_
  _symmetry_equiv_pos_site_id
 _symmetry_equiv_pos_as_xyz
 1  'x, y, z'
loop_
 _atom_site_type_symbol
 _atom_site_label
 _atom_site_symmetry_multiplicity
 _atom_site_fract_x
 _atom_site_fract_y
 _atom_site_fract_z
 _atom_site_fract_occupancy
 Rb  Rb1  1  0.00000  0.00000  0.00000  1
 S  S1  1  0.23136  0.23136  0.30593  1
 S  S2  1  0.76864  0.76864  0.69407  1
 Yb  Yb1  1  0.50000  0.50000  0.50000  1
