CIF file written using JARVIS-Tools package.
data_ZnInRh2
_symmetry_space_group_name_H-M  'Immm'
_cell_length_a       10.3148
_cell_length_b       5.80434
_cell_length_c       5.80434
_cell_angle_alpha    38.1721
_cell_angle_beta     27.3094
_cell_angle_gamma    27.3095

_symmetry_Int_Tables_number  71
_chemical_formula_structural  ZnInRh2
_chemical_formula_sum  ZnInRh2
_cell_volume  73.13920484658584
_cell_formula_units_Z  1
loop_
  _symmetry_equiv_pos_site_id
 _symmetry_equiv_pos_as_xyz
 1  'x, y, z'
loop_
 _atom_site_type_symbol
 _atom_site_label
 _atom_site_symmetry_multiplicity
 _atom_site_fract_x
 _atom_site_fract_y
 _atom_site_fract_z
 _atom_site_fract_occupancy
 In  In1  1  0.50000  -0.00000  0.00000  1
 Rh  Rh1  1  0.76241  -0.00000  0.00000  1
 Rh  Rh2  1  0.23759  0.00000  -0.00000  1
 Zn  Zn1  1  0.00000  0.00000  0.00000  1
