CIF file written using JARVIS-Tools package.
data_Sr3As2O8
_symmetry_space_group_name_H-M  'R-3m'
_cell_length_a       7.47481
_cell_length_b       7.47488
_cell_length_c       7.47488
_cell_angle_alpha    44.2667
_cell_angle_beta     44.267
_cell_angle_gamma    44.2668

_symmetry_Int_Tables_number  166
_chemical_formula_structural  Sr3As2O8
_chemical_formula_sum  Sr3As2O8
_cell_volume  184.91772432152683
_cell_formula_units_Z  1
loop_
  _symmetry_equiv_pos_site_id
 _symmetry_equiv_pos_as_xyz
 1  'x, y, z'
loop_
 _atom_site_type_symbol
 _atom_site_label
 _atom_site_symmetry_multiplicity
 _atom_site_fract_x
 _atom_site_fract_y
 _atom_site_fract_z
 _atom_site_fract_occupancy
 As  As1  1  0.59370  0.59372  0.59371  1
 As  As2  1  0.40628  0.40630  0.40628  1
 O  O1  1  0.26812  0.76770  0.26816  1
 O  O2  1  0.23231  0.73182  0.73189  1
 O  O3  1  0.67813  0.67828  0.67822  1
 O  O4  1  0.32172  0.32187  0.32179  1
 O  O5  1  0.73181  0.73191  0.23231  1
 O  O6  1  0.26817  0.26812  0.76767  1
 O  O7  1  0.76768  0.26817  0.26810  1
 O  O8  1  0.73191  0.23233  0.73182  1
 Sr  Sr1  1  0.00005  0.99996  0.99999  1
 Sr  Sr2  1  0.20290  0.20292  0.20290  1
 Sr  Sr3  1  0.79709  0.79710  0.79709  1
