CIF file written using JARVIS-Tools package.
data_CeNdI4
_symmetry_space_group_name_H-M  'C2/c'
_cell_length_a       7.48222
_cell_length_b       8.12426
_cell_length_c       8.83529
_cell_angle_alpha    112.864
_cell_angle_beta     110.264
_cell_angle_gamma    99.6126

_symmetry_Int_Tables_number  15
_chemical_formula_structural  CeNdI4
_chemical_formula_sum  Ce2Nd2I8
_cell_volume  435.07830844136663
_cell_formula_units_Z  2
loop_
  _symmetry_equiv_pos_site_id
 _symmetry_equiv_pos_as_xyz
 1  'x, y, z'
loop_
 _atom_site_type_symbol
 _atom_site_label
 _atom_site_symmetry_multiplicity
 _atom_site_fract_x
 _atom_site_fract_y
 _atom_site_fract_z
 _atom_site_fract_occupancy
 Ce  Ce1  1  0.24227  0.49231  0.98448  1
 Ce  Ce2  1  0.75773  0.50769  0.01552  1
 I  I1  1  0.48896  0.24906  0.12187  1
 I  I2  1  0.13265  0.87260  0.12181  1
 I  I3  1  0.51104  0.75094  0.87813  1
 I  I4  1  0.70851  0.81028  0.36719  1
 I  I5  1  0.29149  0.18972  0.63281  1
 I  I6  1  0.86735  0.12740  0.87819  1
 I  I7  1  0.15862  0.55676  0.36712  1
 I  I8  1  0.84138  0.44324  0.63288  1
 Nd  Nd1  1  0.88553  0.13559  0.27107  1
 Nd  Nd2  1  0.11447  0.86441  0.72893  1
