CIF file written using JARVIS-Tools package.
data_CaMn2O4
_symmetry_space_group_name_H-M  'C2/m'
_cell_length_a       2.89916
_cell_length_b       7.69552
_cell_length_c       8.36573
_cell_angle_alpha    70.2586
_cell_angle_beta     80.0218
_cell_angle_gamma    79.1413

_symmetry_Int_Tables_number  12
_chemical_formula_structural  CaMn2O4
_chemical_formula_sum  Ca2Mn4O8
_cell_volume  171.31095062670005
_cell_formula_units_Z  2
loop_
  _symmetry_equiv_pos_site_id
 _symmetry_equiv_pos_as_xyz
 1  'x, y, z'
loop_
 _atom_site_type_symbol
 _atom_site_label
 _atom_site_symmetry_multiplicity
 _atom_site_fract_x
 _atom_site_fract_y
 _atom_site_fract_z
 _atom_site_fract_occupancy
 Ca  Ca1  1  0.60922  0.93421  0.84378  1
 Ca  Ca2  1  0.39238  0.03410  0.17769  1
 Mn  Mn1  1  0.41504  0.35429  0.81225  1
 Mn  Mn2  1  0.83865  0.77445  0.54473  1
 Mn  Mn3  1  0.16297  0.19387  0.47673  1
 Mn  Mn4  1  0.58658  0.61400  0.20920  1
 O  O1  1  0.13293  0.44697  0.28356  1
 O  O2  1  0.57529  0.22603  0.61991  1
 O  O3  1  0.42631  0.74230  0.40154  1
 O  O4  1  0.86870  0.52132  0.73788  1
 O  O5  1  0.94263  0.17500  0.93638  1
 O  O6  1  0.23497  0.86552  0.66101  1
 O  O7  1  0.05899  0.79329  0.08508  1
 O  O8  1  0.76664  0.10282  0.36044  1
