CIF file written using JARVIS-Tools package.
data_LaTeCl
_symmetry_space_group_name_H-M  'P4/nmm'
_cell_length_a       4.54212
_cell_length_b       4.54212
_cell_length_c       8.30586
_cell_angle_alpha    90
_cell_angle_beta     90
_cell_angle_gamma    90

_symmetry_Int_Tables_number  129
_chemical_formula_structural  LaTeCl
_chemical_formula_sum  La2Te2Cl2
_cell_volume  171.35680257355668
_cell_formula_units_Z  2
loop_
  _symmetry_equiv_pos_site_id
 _symmetry_equiv_pos_as_xyz
 1  'x, y, z'
loop_
 _atom_site_type_symbol
 _atom_site_label
 _atom_site_symmetry_multiplicity
 _atom_site_fract_x
 _atom_site_fract_y
 _atom_site_fract_z
 _atom_site_fract_occupancy
 Cl  Cl1  1  0.75000  0.25000  0.00000  1
 Cl  Cl2  1  0.25000  0.75000  0.00000  1
 La  La1  1  0.75000  0.75000  0.75910  1
 La  La2  1  0.25000  0.25000  0.24090  1
 Te  Te1  1  0.75000  0.75000  0.36166  1
 Te  Te2  1  0.25000  0.25000  0.63834  1
