CIF file written using JARVIS-Tools package.
data_YTlSe2
_symmetry_space_group_name_H-M  'R-3m'
_cell_length_a       4.16552
_cell_length_b       4.16552
_cell_length_c       8.08457
_cell_angle_alpha    75.0711
_cell_angle_beta     75.0711
_cell_angle_gamma    60.0001

_symmetry_Int_Tables_number  166
_chemical_formula_structural  YTlSe2
_chemical_formula_sum  YTlSe2
_cell_volume  115.98581411635658
_cell_formula_units_Z  1
loop_
  _symmetry_equiv_pos_site_id
 _symmetry_equiv_pos_as_xyz
 1  'x, y, z'
loop_
 _atom_site_type_symbol
 _atom_site_label
 _atom_site_symmetry_multiplicity
 _atom_site_fract_x
 _atom_site_fract_y
 _atom_site_fract_z
 _atom_site_fract_occupancy
 Se  Se1  1  0.23510  0.23510  0.29469  1
 Se  Se2  1  0.76490  0.76490  0.70531  1
 Tl  Tl1  1  0.00000  0.00000  0.00000  1
 Y  Y1  1  0.50000  0.50000  0.50000  1
