CIF file written using JARVIS-Tools package.
data_CaFe2O4
_symmetry_space_group_name_H-M  'Cm'
_cell_length_a       2.92651
_cell_length_b       7.02172
_cell_length_c       8.30685
_cell_angle_alpha    71.9549
_cell_angle_beta     79.8559
_cell_angle_gamma    77.9731

_symmetry_Int_Tables_number  8
_chemical_formula_structural  CaFe2O4
_chemical_formula_sum  Ca2Fe4O8
_cell_volume  157.59311781377488
_cell_formula_units_Z  2
loop_
  _symmetry_equiv_pos_site_id
 _symmetry_equiv_pos_as_xyz
 1  'x, y, z'
loop_
 _atom_site_type_symbol
 _atom_site_label
 _atom_site_symmetry_multiplicity
 _atom_site_fract_x
 _atom_site_fract_y
 _atom_site_fract_z
 _atom_site_fract_occupancy
 Ca  Ca1  1  0.38110  0.08679  0.15083  1
 Ca  Ca2  1  0.61291  0.94734  0.82679  1
 Fe  Fe1  1  0.58735  0.62522  0.19998  1
 Fe  Fe2  1  0.15971  0.21692  0.46356  1
 Fe  Fe3  1  0.84270  0.80174  0.51276  1
 Fe  Fe4  1  0.40635  0.40295  0.78422  1
 O  O1  1  0.83917  0.58902  0.73253  1
 O  O2  1  0.43842  0.75214  0.37091  1
 O  O3  1  0.56253  0.28954  0.58533  1
 O  O4  1  0.14941  0.43201  0.26906  1
 O  O5  1  0.06634  0.80769  0.05957  1
 O  O6  1  0.76998  0.10476  0.35514  1
 O  O7  1  0.93364  0.22384  0.90871  1
 O  O8  1  0.21716  0.94566  0.61993  1
