CIF file written using JARVIS-Tools package.
data_Ba2Ge
_symmetry_space_group_name_H-M  'Pnma'
_cell_length_a       5.41656
_cell_length_b       8.43203
_cell_length_c       10.1663
_cell_angle_alpha    90
_cell_angle_beta     90
_cell_angle_gamma    90

_symmetry_Int_Tables_number  62
_chemical_formula_structural  Ba2Ge
_chemical_formula_sum  Ba8Ge4
_cell_volume  464.3221679644384
_cell_formula_units_Z  4
loop_
  _symmetry_equiv_pos_site_id
 _symmetry_equiv_pos_as_xyz
 1  'x, y, z'
loop_
 _atom_site_type_symbol
 _atom_site_label
 _atom_site_symmetry_multiplicity
 _atom_site_fract_x
 _atom_site_fract_y
 _atom_site_fract_z
 _atom_site_fract_occupancy
 Ba  Ba1  1  0.75000  0.35283  0.08397  1
 Ba  Ba2  1  0.25000  0.64717  0.91603  1
 Ba  Ba3  1  0.75000  0.85283  0.41603  1
 Ba  Ba4  1  0.25000  0.14717  0.58397  1
 Ba  Ba5  1  0.25000  0.01983  0.17285  1
 Ba  Ba6  1  0.75000  0.98017  0.82715  1
 Ba  Ba7  1  0.25000  0.51983  0.32715  1
 Ba  Ba8  1  0.75000  0.48017  0.67285  1
 Ge  Ge1  1  0.25000  0.74804  0.60057  1
 Ge  Ge2  1  0.75000  0.25196  0.39943  1
 Ge  Ge3  1  0.25000  0.24804  0.89943  1
 Ge  Ge4  1  0.75000  0.75196  0.10057  1
