CIF file written using JARVIS-Tools package.
data_Mg2Ni3O8
_symmetry_space_group_name_H-M  'C2/m'
_cell_length_a       4.81103
_cell_length_b       5.66492
_cell_length_c       5.72732
_cell_angle_alpha    119.64
_cell_angle_beta     105.486
_cell_angle_gamma    90.0001

_symmetry_Int_Tables_number  12
_chemical_formula_structural  Mg2Ni3O8
_chemical_formula_sum  Mg2Ni3O8
_cell_volume  129.10726746860698
_cell_formula_units_Z  1
loop_
  _symmetry_equiv_pos_site_id
 _symmetry_equiv_pos_as_xyz
 1  'x, y, z'
loop_
 _atom_site_type_symbol
 _atom_site_label
 _atom_site_symmetry_multiplicity
 _atom_site_fract_x
 _atom_site_fract_y
 _atom_site_fract_z
 _atom_site_fract_occupancy
 Mg  Mg1  1  0.64028  0.71824  0.43648  1
 Mg  Mg2  1  0.35972  0.28176  0.56352  1
 Ni  Ni1  1  0.50000  1.00000  -0.00000  1
 Ni  Ni2  1  1.00000  0.74589  -0.00000  1
 Ni  Ni3  1  1.00000  0.25411  0.00000  1
 O  O1  1  0.06462  0.39059  0.78119  1
 O  O2  1  0.93538  0.60941  0.21881  1
 O  O3  1  0.09799  0.89672  0.79345  1
 O  O4  1  0.90201  0.10327  0.20655  1
 O  O5  1  0.39003  0.33959  0.22665  1
 O  O6  1  0.39003  0.88706  0.22665  1
 O  O7  1  0.60997  0.11294  0.77335  1
 O  O8  1  0.60997  0.66041  0.77335  1
