CIF file written using JARVIS-Tools package.
data_Hf2CuMo
_symmetry_space_group_name_H-M  'Immm'
_cell_length_a       10.0187
_cell_length_b       10.4941
_cell_length_c       10.4941
_cell_angle_alpha    61.3391
_cell_angle_beta     61.4637
_cell_angle_gamma    61.4637

_symmetry_Int_Tables_number  71
_chemical_formula_structural  Hf2CuMo
_chemical_formula_sum  Hf2CuMo
_cell_volume  805.0804268593572
_cell_formula_units_Z  1
loop_
  _symmetry_equiv_pos_site_id
 _symmetry_equiv_pos_as_xyz
 1  'x, y, z'
loop_
 _atom_site_type_symbol
 _atom_site_label
 _atom_site_symmetry_multiplicity
 _atom_site_fract_x
 _atom_site_fract_y
 _atom_site_fract_z
 _atom_site_fract_occupancy
 Cu  Cu1  1  0.00000  0.00000  0.00000  1
 Hf  Hf1  1  0.72997  0.00001  0.00001  1
 Hf  Hf2  1  0.27003  0.99999  0.99999  1
 Mo  Mo1  1  0.50000  -0.00000  -0.00000  1
