CIF file written using JARVIS-Tools package.
data_PICl6
_symmetry_space_group_name_H-M  'P-42_1m'
_cell_length_a       9.31798
_cell_length_b       9.31798
_cell_length_c       5.57319
_cell_angle_alpha    90
_cell_angle_beta     90
_cell_angle_gamma    90

_symmetry_Int_Tables_number  113
_chemical_formula_structural  PICl6
_chemical_formula_sum  P2I2Cl2
_cell_volume  483.89125902558675
_cell_formula_units_Z  2
loop_
  _symmetry_equiv_pos_site_id
 _symmetry_equiv_pos_as_xyz
 1  'x, y, z'
loop_
 _atom_site_type_symbol
 _atom_site_label
 _atom_site_symmetry_multiplicity
 _atom_site_fract_x
 _atom_site_fract_y
 _atom_site_fract_z
 _atom_site_fract_occupancy
 Cl  Cl1  1  0.30338  0.80338  0.83615  1
 Cl  Cl2  1  0.08594  0.14524  0.71356  1
 Cl  Cl3  1  0.19662  0.30338  0.16385  1
 Cl  Cl4  1  0.69662  0.19662  0.83615  1
 Cl  Cl5  1  0.35476  0.41406  0.71356  1
 Cl  Cl6  1  0.80338  0.69662  0.16385  1
 Cl  Cl7  1  0.58594  0.35476  0.28644  1
 Cl  Cl8  1  0.14524  0.91406  0.28644  1
 Cl  Cl9  1  0.41406  0.64524  0.28644  1
 Cl  Cl10  1  0.64524  0.58594  0.71356  1
 Cl  Cl11  1  0.85476  0.08594  0.28644  1
 Cl  Cl12  1  0.91406  0.85476  0.71356  1
 I  I1  1  0.00000  0.50000  0.16790  1
 I  I2  1  0.50000  0.00000  0.83210  1
 P  P1  1  0.00000  0.00000  0.50000  1
 P  P2  1  0.50000  0.50000  0.50000  1
