CIF file written using JARVIS-Tools package.
data_LaS2
_symmetry_space_group_name_H-M  'P4/nmm'
_cell_length_a       4.05459
_cell_length_b       4.05459
_cell_length_c       8.29463
_cell_angle_alpha    90
_cell_angle_beta     90
_cell_angle_gamma    90

_symmetry_Int_Tables_number  129
_chemical_formula_structural  LaS2
_chemical_formula_sum  La2S4
_cell_volume  136.3613396097733
_cell_formula_units_Z  2
loop_
  _symmetry_equiv_pos_site_id
 _symmetry_equiv_pos_as_xyz
 1  'x, y, z'
loop_
 _atom_site_type_symbol
 _atom_site_label
 _atom_site_symmetry_multiplicity
 _atom_site_fract_x
 _atom_site_fract_y
 _atom_site_fract_z
 _atom_site_fract_occupancy
 La  La1  1  0.75000  0.75000  0.72446  1
 La  La2  1  0.25000  0.25000  0.27554  1
 S  S1  1  0.75000  0.75000  0.36486  1
 S  S2  1  0.25000  0.25000  0.63514  1
 S  S3  1  0.75000  0.25000  0.00000  1
 S  S4  1  0.25000  0.75000  0.00000  1
