CIF file written using JARVIS-Tools package.
data_MoWSe2S2
_symmetry_space_group_name_H-M  'P3m1'
_cell_length_a       3.25839
_cell_length_b       3.2584
_cell_length_c       25.7203
_cell_angle_alpha    90.0051
_cell_angle_beta     90
_cell_angle_gamma    120

_symmetry_Int_Tables_number  156
_chemical_formula_structural  MoWSe2S2
_chemical_formula_sum  Mo2W2Se4S4
_cell_volume  236.49155000826303
_cell_formula_units_Z  2
loop_
  _symmetry_equiv_pos_site_id
 _symmetry_equiv_pos_as_xyz
 1  'x, y, z'
loop_
 _atom_site_type_symbol
 _atom_site_label
 _atom_site_symmetry_multiplicity
 _atom_site_fract_x
 _atom_site_fract_y
 _atom_site_fract_z
 _atom_site_fract_occupancy
 Mo  Mo1  1  0.33307  0.66614  0.00566  1
 Mo  Mo2  1  0.66660  0.33321  0.25492  1
 S  S1  1  0.33329  0.66658  0.31501  1
 S  S2  1  0.66667  0.33333  0.43553  1
 S  S3  1  0.66675  0.33349  0.55631  1
 S  S4  1  0.33324  0.66648  0.19481  1
 Se  Se1  1  0.33365  0.66730  0.81286  1
 Se  Se2  1  0.66639  0.33278  0.93964  1
 Se  Se3  1  0.66642  0.33284  0.07166  1
 Se  Se4  1  0.33360  0.66720  0.68002  1
 W  W1  1  0.33338  0.66675  0.49591  1
 W  W2  1  0.66695  0.33390  0.74643  1
