CIF file written using JARVIS-Tools package.
data_AgSbPd2
_symmetry_space_group_name_H-M  'Fm-3m'
_cell_length_a       11.3534
_cell_length_b       8.02671
_cell_length_c       4.63694
_cell_angle_alpha    30.0004
_cell_angle_beta     35.2328
_cell_angle_gamma    19.4722

_symmetry_Int_Tables_number  225
_chemical_formula_structural  AgSbPd2
_chemical_formula_sum  AgSbPd2
_cell_volume  70.43170223814555
_cell_formula_units_Z  1
loop_
  _symmetry_equiv_pos_site_id
 _symmetry_equiv_pos_as_xyz
 1  'x, y, z'
loop_
 _atom_site_type_symbol
 _atom_site_label
 _atom_site_symmetry_multiplicity
 _atom_site_fract_x
 _atom_site_fract_y
 _atom_site_fract_z
 _atom_site_fract_occupancy
 Ag  Ag1  1  0.00000  0.00000  0.00000  1
 Pd  Pd1  1  0.75003  -0.00006  -0.00002  1
 Pd  Pd2  1  0.24997  0.00006  0.00002  1
 Sb  Sb1  1  0.50000  -0.00000  0.00000  1
