CIF file written using JARVIS-Tools package.
data_SmGe2
_symmetry_space_group_name_H-M  'I4_1/amd'
_cell_length_a       4.06134
_cell_length_b       4.06133
_cell_length_c       8.75618
_cell_angle_alpha    103.41
_cell_angle_beta     103.41
_cell_angle_gamma    89.9999

_symmetry_Int_Tables_number  141
_chemical_formula_structural  SmGe2
_chemical_formula_sum  Sm2Ge4
_cell_volume  136.43956731256316
_cell_formula_units_Z  2
loop_
  _symmetry_equiv_pos_site_id
 _symmetry_equiv_pos_as_xyz
 1  'x, y, z'
loop_
 _atom_site_type_symbol
 _atom_site_label
 _atom_site_symmetry_multiplicity
 _atom_site_fract_x
 _atom_site_fract_y
 _atom_site_fract_z
 _atom_site_fract_occupancy
 Ge  Ge1  1  0.70373  0.95373  0.90746  1
 Ge  Ge2  1  0.45373  0.20373  0.40746  1
 Ge  Ge3  1  0.54627  0.79627  0.59254  1
 Ge  Ge4  1  0.29627  0.04627  0.09254  1
 Sm  Sm1  1  0.87500  0.62500  0.25000  1
 Sm  Sm2  1  0.12500  0.37500  0.75000  1
