CIF file written using JARVIS-Tools package.
data_AlGaRu2
_symmetry_space_group_name_H-M  'Immm'
_cell_length_a       10.216
_cell_length_b       5.78045
_cell_length_c       5.78045
_cell_angle_alpha    26.5407
_cell_angle_beta     27.9116
_cell_angle_gamma    27.9116

_symmetry_Int_Tables_number  71
_chemical_formula_structural  AlGaRu2
_chemical_formula_sum  AlGaRu2
_cell_volume  63.93333304151492
_cell_formula_units_Z  1
loop_
  _symmetry_equiv_pos_site_id
 _symmetry_equiv_pos_as_xyz
 1  'x, y, z'
loop_
 _atom_site_type_symbol
 _atom_site_label
 _atom_site_symmetry_multiplicity
 _atom_site_fract_x
 _atom_site_fract_y
 _atom_site_fract_z
 _atom_site_fract_occupancy
 Al  Al1  1  0.00000  0.00000  0.00000  1
 Ga  Ga1  1  0.50000  -0.00000  -0.00000  1
 Ru  Ru1  1  0.73993  0.00000  0.00000  1
 Ru  Ru2  1  0.26007  -0.00000  -0.00000  1
