CIF file written using JARVIS-Tools package.
data_Sr2In2O5
_symmetry_space_group_name_H-M  'Ima2'
_cell_length_a       5.88104
_cell_length_b       6.11523
_cell_length_c       9.02136
_cell_angle_alpha    109.812
_cell_angle_beta     109.023
_cell_angle_gamma    90

_symmetry_Int_Tables_number  46
_chemical_formula_structural  Sr2In2O5
_chemical_formula_sum  Sr4In4O0
_cell_volume  286.33548011094643
_cell_formula_units_Z  2
loop_
  _symmetry_equiv_pos_site_id
 _symmetry_equiv_pos_as_xyz
 1  'x, y, z'
loop_
 _atom_site_type_symbol
 _atom_site_label
 _atom_site_symmetry_multiplicity
 _atom_site_fract_x
 _atom_site_fract_y
 _atom_site_fract_z
 _atom_site_fract_occupancy
 In  In1  1  0.29142  0.31181  0.50000  1
 In  In2  1  0.50186  0.50000  -0.00000  1
 In  In3  1  0.00186  -0.00000  -0.00000  1
 In  In4  1  0.79142  0.68819  0.50000  1
 O  O1  1  0.73839  0.72545  0.96434  1
 O  O2  1  0.15061  0.63297  0.50000  1
 O  O3  1  0.59166  0.72098  0.27756  1
 O  O4  1  0.31410  0.27902  0.72244  1
 O  O5  1  0.09166  0.05658  0.27756  1
 O  O6  1  0.81410  0.94342  0.72244  1
 O  O7  1  0.77405  0.27455  0.03566  1
 O  O8  1  0.65061  0.36703  0.50000  1
 O  O9  1  0.27405  0.26112  0.03566  1
 O  O10  1  0.23839  0.73888  0.96434  1
 Sr  Sr1  1  0.40854  0.91669  0.78517  1
 Sr  Sr2  1  0.62337  0.08331  0.21483  1
 Sr  Sr3  1  0.90854  0.36848  0.78517  1
 Sr  Sr4  1  0.12337  0.63152  0.21483  1
