CIF file written using JARVIS-Tools package.
data_Ti3Zn2O8
_symmetry_space_group_name_H-M  'C2/m'
_cell_length_a       5.11397
_cell_length_b       6.03966
_cell_length_c       6.51237
_cell_angle_alpha    117.627
_cell_angle_beta     119.64
_cell_angle_gamma    90

_symmetry_Int_Tables_number  12
_chemical_formula_structural  Ti3Zn2O8
_chemical_formula_sum  Ti3Zn2O8
_cell_volume  147.86590363541126
_cell_formula_units_Z  1
loop_
  _symmetry_equiv_pos_site_id
 _symmetry_equiv_pos_as_xyz
 1  'x, y, z'
loop_
 _atom_site_type_symbol
 _atom_site_label
 _atom_site_symmetry_multiplicity
 _atom_site_fract_x
 _atom_site_fract_y
 _atom_site_fract_z
 _atom_site_fract_occupancy
 O  O1  1  0.00515  0.38958  0.77917  1
 O  O2  1  0.99485  0.61042  0.22083  1
 O  O3  1  0.02806  0.88937  0.77875  1
 O  O4  1  0.97194  0.11062  0.22125  1
 O  O5  1  0.45487  0.33805  0.21271  1
 O  O6  1  0.45487  0.87466  0.21271  1
 O  O7  1  0.54513  0.12534  0.78729  1
 O  O8  1  0.54513  0.66195  0.78729  1
 Ti  Ti1  1  0.50000  1.00000  0.00000  1
 Ti  Ti2  1  1.00000  0.73418  -0.00000  1
 Ti  Ti3  1  1.00000  0.26582  0.00000  1
 Zn  Zn1  1  0.71536  0.68553  0.37106  1
 Zn  Zn2  1  0.28464  0.31447  0.62894  1
