CIF file written using JARVIS-Tools package.
data_NbS2
_symmetry_space_group_name_H-M  'P6_3/mmc'
_cell_length_a       3.39057
_cell_length_b       5.87262
_cell_length_c       12.966
_cell_angle_alpha    89.9719
_cell_angle_beta     89.9556
_cell_angle_gamma    30.0007

_symmetry_Int_Tables_number  194
_chemical_formula_structural  NbS2
_chemical_formula_sum  Nb2S4
_cell_volume  129.08960728697153
_cell_formula_units_Z  2
loop_
  _symmetry_equiv_pos_site_id
 _symmetry_equiv_pos_as_xyz
 1  'x, y, z'
loop_
 _atom_site_type_symbol
 _atom_site_label
 _atom_site_symmetry_multiplicity
 _atom_site_fract_x
 _atom_site_fract_y
 _atom_site_fract_z
 _atom_site_fract_occupancy
 Nb  Nb1  1  -0.00003  0.00004  0.00000  1
 Nb  Nb2  1  0.00007  0.99995  0.50000  1
 S  S1  1  -0.00065  0.33356  0.11954  1
 S  S2  1  0.00055  0.66654  0.88046  1
 S  S3  1  -0.00055  0.66680  0.61954  1
 S  S4  1  0.00071  0.33310  0.38046  1
