data_image0
_chemical_formula_structural       Ga2In2Te4
_chemical_formula_sum              "Ga2 In2 Te4"
_cell_length_a       6.89414
_cell_length_b       6.89414
_cell_length_c       6.89414
_cell_angle_alpha    120.2
_cell_angle_beta     104.388
_cell_angle_gamma    104.388

_space_group_name_H-M_alt    "P 1"
_space_group_IT_number       1

loop_
  _space_group_symop_operation_xyz
  'x, y, z'

loop_
  _atom_site_type_symbol
  _atom_site_label
  _atom_site_symmetry_multiplicity
  _atom_site_fract_x
  _atom_site_fract_y
  _atom_site_fract_z
  _atom_site_occupancy
  Ga  Ga1       1.0  0.50000  0.75000  0.25000  1.0000
  Ga  Ga2       1.0  0.50000  0.25000  0.75000  1.0000
  In  In1       1.0  0.00000  0.25000  0.25000  1.0000
  In  In2       1.0  0.00000  0.75000  0.75000  1.0000
  Te  Te1       1.0  0.50000  0.32600  0.17400  1.0000
  Te  Te2       1.0  0.15200  0.82600  0.32600  1.0000
  Te  Te3       1.0  0.84800  0.17400  0.67400  1.0000
  Te  Te4       1.0  0.50000  0.67400  0.82600  1.0000
