CIF file written using JARVIS-Tools package.
data_VN
_symmetry_space_group_name_H-M  'P4/nmm'
_cell_length_a       2.89066
_cell_length_b       2.89113
_cell_length_c       4.21302
_cell_angle_alpha    89.9971
_cell_angle_beta     89.9982
_cell_angle_gamma    90.0005

_symmetry_Int_Tables_number  129
_chemical_formula_structural  VN
_chemical_formula_sum  V2N2
_cell_volume  35.20945993490757
_cell_formula_units_Z  2
loop_
  _symmetry_equiv_pos_site_id
 _symmetry_equiv_pos_as_xyz
 1  'x, y, z'
loop_
 _atom_site_type_symbol
 _atom_site_label
 _atom_site_symmetry_multiplicity
 _atom_site_fract_x
 _atom_site_fract_y
 _atom_site_fract_z
 _atom_site_fract_occupancy
 N  N1  1  0.37408  0.87626  0.51260  1
 N  N2  1  0.87396  0.37613  0.98433  1
 V  V1  1  0.37394  0.87611  0.02548  1
 V  V2  1  0.87411  0.37628  0.47145  1
