CIF file written using JARVIS-Tools package.
data_KNa2As
_symmetry_space_group_name_H-M  'Fm-3m'
_cell_length_a       12.7261
_cell_length_b       8.99896
_cell_length_c       8.999
_cell_angle_alpha    33.5738
_cell_angle_beta     19.4786
_cell_angle_gamma    19.4784

_symmetry_Int_Tables_number  225
_chemical_formula_structural  KNa2As
_chemical_formula_sum  KNa2As
_cell_volume  99.21557266588707
_cell_formula_units_Z  1
loop_
  _symmetry_equiv_pos_site_id
 _symmetry_equiv_pos_as_xyz
 1  'x, y, z'
loop_
 _atom_site_type_symbol
 _atom_site_label
 _atom_site_symmetry_multiplicity
 _atom_site_fract_x
 _atom_site_fract_y
 _atom_site_fract_z
 _atom_site_fract_occupancy
 As  As1  1  0.50000  -0.00000  0.00000  1
 K  K1  1  0.00000  0.00000  0.00000  1
 Na  Na1  1  0.74961  0.00021  0.00022  1
 Na  Na2  1  0.25039  0.99979  0.99978  1
