CIF file written using JARVIS-Tools package.
data_Li2MgAg
_symmetry_space_group_name_H-M  'Immm'
_cell_length_a       10.8251
_cell_length_b       6.10281
_cell_length_c       6.10281
_cell_angle_alpha    46.1255
_cell_angle_beta     27.5146
_cell_angle_gamma    27.5145

_symmetry_Int_Tables_number  71
_chemical_formula_structural  Li2MgAg
_chemical_formula_sum  Li2MgAg
_cell_volume  77.3482360301116
_cell_formula_units_Z  1
loop_
  _symmetry_equiv_pos_site_id
 _symmetry_equiv_pos_as_xyz
 1  'x, y, z'
loop_
 _atom_site_type_symbol
 _atom_site_label
 _atom_site_symmetry_multiplicity
 _atom_site_fract_x
 _atom_site_fract_y
 _atom_site_fract_z
 _atom_site_fract_occupancy
 Ag  Ag1  1  0.50000  0.00000  0.00000  1
 Li  Li1  1  0.73117  0.00000  -0.00000  1
 Li  Li2  1  0.26883  -0.00000  0.00000  1
 Mg  Mg1  1  0.00000  0.00000  0.00000  1
