CIF file written using JARVIS-Tools package.
data_TaFe2Ge
_symmetry_space_group_name_H-M  'I4/mmm'
_cell_length_a       10.2703
_cell_length_b       7.10834
_cell_length_c       7.10834
_cell_angle_alpha    32.8513
_cell_angle_beta     19.4677
_cell_angle_gamma    19.4677

_symmetry_Int_Tables_number  139
_chemical_formula_structural  TaFe2Ge
_chemical_formula_sum  TaFe2Ge
_cell_volume  51.7674335216108
_cell_formula_units_Z  1
loop_
  _symmetry_equiv_pos_site_id
 _symmetry_equiv_pos_as_xyz
 1  'x, y, z'
loop_
 _atom_site_type_symbol
 _atom_site_label
 _atom_site_symmetry_multiplicity
 _atom_site_fract_x
 _atom_site_fract_y
 _atom_site_fract_z
 _atom_site_fract_occupancy
 Fe  Fe1  1  0.75048  -0.00030  -0.00030  1
 Fe  Fe2  1  0.24952  0.00030  0.00030  1
 Ge  Ge1  1  0.00000  0.00000  0.00000  1
 Ta  Ta1  1  0.50000  0.00000  0.00000  1
