CIF file written using JARVIS-Tools package.
data_TiCdAu2
_symmetry_space_group_name_H-M  'C2/m'
_cell_length_a       11.2889
_cell_length_b       8.0108
_cell_length_c       8.01041
_cell_angle_alpha    22.6725
_cell_angle_beta     19.4839
_cell_angle_gamma    19.4835

_symmetry_Int_Tables_number  12
_chemical_formula_structural  TiCdAu2
_chemical_formula_sum  TiCdAu2
_cell_volume  76.73920245478048
_cell_formula_units_Z  1
loop_
  _symmetry_equiv_pos_site_id
 _symmetry_equiv_pos_as_xyz
 1  'x, y, z'
loop_
 _atom_site_type_symbol
 _atom_site_label
 _atom_site_symmetry_multiplicity
 _atom_site_fract_x
 _atom_site_fract_y
 _atom_site_fract_z
 _atom_site_fract_occupancy
 Au  Au1  1  0.70208  0.03830  0.03827  1
 Au  Au2  1  0.29792  -0.03830  -0.03827  1
 Cd  Cd1  1  0.50000  0.00000  0.00000  1
 Ti  Ti1  1  -0.00000  0.00000  -0.00000  1
