CIF file written using JARVIS-Tools package.
data_ScAl8Fe4
_symmetry_space_group_name_H-M  'I4/mmm'
_cell_length_a       5.02054
_cell_length_b       6.57312
_cell_length_c       6.57311
_cell_angle_alpha    81.6137
_cell_angle_beta     67.5487
_cell_angle_gamma    67.5486

_symmetry_Int_Tables_number  139
_chemical_formula_structural  ScAl8Fe4
_chemical_formula_sum  ScAl8Fe4
_cell_volume  185.27996170242673
_cell_formula_units_Z  1
loop_
  _symmetry_equiv_pos_site_id
 _symmetry_equiv_pos_as_xyz
 1  'x, y, z'
loop_
 _atom_site_type_symbol
 _atom_site_label
 _atom_site_symmetry_multiplicity
 _atom_site_fract_x
 _atom_site_fract_y
 _atom_site_fract_z
 _atom_site_fract_occupancy
 Al  Al1  1  0.66573  0.33427  0.33427  1
 Al  Al2  1  0.00000  0.66573  0.33427  1
 Al  Al3  1  -0.00000  0.33427  0.66573  1
 Al  Al4  1  0.33427  0.66573  0.66573  1
 Al  Al5  1  0.71859  0.78141  0.78141  1
 Al  Al6  1  0.28141  0.21859  0.21859  1
 Al  Al7  1  0.50000  0.78141  0.21859  1
 Al  Al8  1  0.50000  0.21859  0.78141  1
 Fe  Fe1  1  0.50000  0.50000  -0.00000  1
 Fe  Fe2  1  0.00000  0.50000  -0.00000  1
 Fe  Fe3  1  0.50000  0.00000  0.50000  1
 Fe  Fe4  1  -0.00000  0.00000  0.50000  1
 Sc  Sc1  1  0.00000  0.00000  0.00000  1
