CIF file written using JARVIS-Tools package.
data_Ba3MgNb2O9
_symmetry_space_group_name_H-M  'P-3m1'
_cell_length_a       5.84275
_cell_length_b       5.84275
_cell_length_c       7.17014
_cell_angle_alpha    90
_cell_angle_beta     90
_cell_angle_gamma    120

_symmetry_Int_Tables_number  164
_chemical_formula_structural  Ba3MgNb2O9
_chemical_formula_sum  Ba3MgNb2O9
_cell_volume  211.97908501363997
_cell_formula_units_Z  1
loop_
  _symmetry_equiv_pos_site_id
 _symmetry_equiv_pos_as_xyz
 1  'x, y, z'
loop_
 _atom_site_type_symbol
 _atom_site_label
 _atom_site_symmetry_multiplicity
 _atom_site_fract_x
 _atom_site_fract_y
 _atom_site_fract_z
 _atom_site_fract_occupancy
 Ba  Ba1  1  0.00000  0.00000  0.00000  1
 Ba  Ba2  1  0.66667  0.33333  0.33307  1
 Ba  Ba3  1  0.33333  0.66667  0.66693  1
 Mg  Mg1  1  0.00000  0.00000  0.50000  1
 Nb  Nb1  1  0.66667  0.33333  0.82070  1
 Nb  Nb2  1  0.33333  0.66667  0.17930  1
 O  O1  1  0.65888  0.82944  0.32713  1
 O  O2  1  0.17056  0.34112  0.32713  1
 O  O3  1  0.17056  0.82944  0.32713  1
 O  O4  1  0.82944  0.17056  0.67287  1
 O  O5  1  0.82944  0.65888  0.67287  1
 O  O6  1  0.34112  0.17056  0.67287  1
 O  O7  1  0.50000  -0.00000  0.00000  1
 O  O8  1  0.50000  0.50000  0.00000  1
 O  O9  1  -0.00000  0.50000  0.00000  1
