CIF file written using JARVIS-Tools package.
data_Li2AlAu
_symmetry_space_group_name_H-M  'Immm'
_cell_length_a       11.3816
_cell_length_b       7.31339
_cell_length_c       7.31334
_cell_angle_alpha    30.8374
_cell_angle_beta     19.164
_cell_angle_gamma    19.1642

_symmetry_Int_Tables_number  71
_chemical_formula_structural  Li2AlAu
_chemical_formula_sum  Li2AlAu
_cell_volume  62.32907166609223
_cell_formula_units_Z  1
loop_
  _symmetry_equiv_pos_site_id
 _symmetry_equiv_pos_as_xyz
 1  'x, y, z'
loop_
 _atom_site_type_symbol
 _atom_site_label
 _atom_site_symmetry_multiplicity
 _atom_site_fract_x
 _atom_site_fract_y
 _atom_site_fract_z
 _atom_site_fract_occupancy
 Al  Al1  1  -0.00000  0.00000  0.00000  1
 Au  Au1  1  0.50000  -0.00000  -0.00000  1
 Li  Li1  1  0.74481  0.00346  0.00346  1
 Li  Li2  1  0.25519  -0.00346  -0.00346  1
