CIF file written using JARVIS-Tools package.
data_Ba2TlAg
_symmetry_space_group_name_H-M  'Immm'
_cell_length_a       13.1063
_cell_length_b       14.0486
_cell_length_c       14.0486
_cell_angle_alpha    61.4329
_cell_angle_beta     62.195
_cell_angle_gamma    62.195

_symmetry_Int_Tables_number  71
_chemical_formula_structural  Ba2TlAg
_chemical_formula_sum  Ba2TlAg
_cell_volume  1908.2972377493038
_cell_formula_units_Z  1
loop_
  _symmetry_equiv_pos_site_id
 _symmetry_equiv_pos_as_xyz
 1  'x, y, z'
loop_
 _atom_site_type_symbol
 _atom_site_label
 _atom_site_symmetry_multiplicity
 _atom_site_fract_x
 _atom_site_fract_y
 _atom_site_fract_z
 _atom_site_fract_occupancy
 Ag  Ag1  1  0.00000  0.00000  0.00000  1
 Ba  Ba1  1  0.75266  -0.00000  0.00000  1
 Ba  Ba2  1  0.24734  0.00000  -0.00000  1
 Tl  Tl1  1  0.50000  -0.00000  -0.00000  1
