CIF file written using JARVIS-Tools package.
data_Li2PbO3
_symmetry_space_group_name_H-M  'C2/c'
_cell_length_a       5.40874
_cell_length_b       5.40873
_cell_length_c       5.49537
_cell_angle_alpha    99.876
_cell_angle_beta     99.8761
_cell_angle_gamma    120.034

_symmetry_Int_Tables_number  15
_chemical_formula_structural  Li2PbO3
_chemical_formula_sum  Li4Pb2O6
_cell_volume  130.72407393899684
_cell_formula_units_Z  2
loop_
  _symmetry_equiv_pos_site_id
 _symmetry_equiv_pos_as_xyz
 1  'x, y, z'
loop_
 _atom_site_type_symbol
 _atom_site_label
 _atom_site_symmetry_multiplicity
 _atom_site_fract_x
 _atom_site_fract_y
 _atom_site_fract_z
 _atom_site_fract_occupancy
 Li  Li1  1  0.25676  0.74324  0.75000  1
 Li  Li2  1  0.74324  0.25676  0.25000  1
 Li  Li3  1  0.58151  0.41849  0.75000  1
 Li  Li4  1  0.41849  0.58151  0.25000  1
 O  O1  1  0.00000  0.50000  -0.00000  1
 O  O2  1  0.50000  0.00000  0.50000  1
 O  O3  1  0.67258  0.83387  0.99270  1
 O  O4  1  0.16613  0.32742  0.50730  1
 O  O5  1  0.32742  0.16613  0.00730  1
 O  O6  1  0.83387  0.67258  0.49270  1
 Pb  Pb1  1  0.08936  0.91064  0.25000  1
 Pb  Pb2  1  0.91064  0.08936  0.75000  1
