CIF file written using JARVIS-Tools package.
data_LaFe5H12
_symmetry_space_group_name_H-M  'P6/mmm'
_cell_length_a       5.78358
_cell_length_b       5.78358
_cell_length_c       4.2326
_cell_angle_alpha    90
_cell_angle_beta     90
_cell_angle_gamma    120

_symmetry_Int_Tables_number  191
_chemical_formula_structural  LaFe5H12
_chemical_formula_sum  LaFe5H2
_cell_volume  122.6115725269668
_cell_formula_units_Z  1
loop_
  _symmetry_equiv_pos_site_id
 _symmetry_equiv_pos_as_xyz
 1  'x, y, z'
loop_
 _atom_site_type_symbol
 _atom_site_label
 _atom_site_symmetry_multiplicity
 _atom_site_fract_x
 _atom_site_fract_y
 _atom_site_fract_z
 _atom_site_fract_occupancy
 Fe  Fe1  1  0.50000  0.00000  0.50000  1
 Fe  Fe2  1  0.00000  0.50000  0.50000  1
 Fe  Fe3  1  0.66667  0.33333  0.00000  1
 Fe  Fe4  1  0.50000  0.50000  0.50000  1
 Fe  Fe5  1  0.33333  0.66667  0.00000  1
 H  H1  1  0.21286  0.42573  0.73468  1
 H  H2  1  0.78714  0.57427  0.73468  1
 H  H3  1  0.21286  0.42573  0.26532  1
 H  H4  1  0.78714  0.57427  0.26532  1
 H  H5  1  0.78714  0.21286  0.26532  1
 H  H6  1  0.21286  0.78714  0.26532  1
 H  H7  1  0.21286  0.78714  0.73468  1
 H  H8  1  0.42573  0.21286  0.73468  1
 H  H9  1  0.57427  0.78714  0.26532  1
 H  H10  1  0.78714  0.21286  0.73468  1
 H  H11  1  0.57427  0.78714  0.73468  1
 H  H12  1  0.42573  0.21286  0.26532  1
 La  La1  1  0.00000  0.00000  0.00000  1
