CIF file written using JARVIS-Tools package.
data_Y2ZnPt
_symmetry_space_group_name_H-M  'R-3m'
_cell_length_a       11.7269
_cell_length_b       9.37847
_cell_length_c       9.37847
_cell_angle_alpha    25.0266
_cell_angle_beta     18.2161
_cell_angle_gamma    18.2162

_symmetry_Int_Tables_number  166
_chemical_formula_structural  Y2ZnPt
_chemical_formula_sum  Y2ZnPt
_cell_volume  100.71633237597673
_cell_formula_units_Z  1
loop_
  _symmetry_equiv_pos_site_id
 _symmetry_equiv_pos_as_xyz
 1  'x, y, z'
loop_
 _atom_site_type_symbol
 _atom_site_label
 _atom_site_symmetry_multiplicity
 _atom_site_fract_x
 _atom_site_fract_y
 _atom_site_fract_z
 _atom_site_fract_occupancy
 Pt  Pt1  1  0.50000  0.00000  -0.00000  1
 Y  Y1  1  0.79071  -0.03251  -0.03251  1
 Y  Y2  1  0.20929  0.03251  0.03251  1
 Zn  Zn1  1  0.00000  0.00000  0.00000  1
