CIF file written using JARVIS-Tools package.
data_BeFePt2
_symmetry_space_group_name_H-M  'Immm'
_cell_length_a       10.6481
_cell_length_b       7.26525
_cell_length_c       7.2653
_cell_angle_alpha    30.2001
_cell_angle_beta     18.4707
_cell_angle_gamma    18.4702

_symmetry_Int_Tables_number  71
_chemical_formula_structural  BeFePt2
_chemical_formula_sum  BeFePt2
_cell_volume  52.79923580611604
_cell_formula_units_Z  1
loop_
  _symmetry_equiv_pos_site_id
 _symmetry_equiv_pos_as_xyz
 1  'x, y, z'
loop_
 _atom_site_type_symbol
 _atom_site_label
 _atom_site_symmetry_multiplicity
 _atom_site_fract_x
 _atom_site_fract_y
 _atom_site_fract_z
 _atom_site_fract_occupancy
 Be  Be1  1  1.00001  0.99999  0.99999  1
 Fe  Fe1  1  0.50000  0.00000  1.00000  1
 Pt  Pt1  1  0.70134  0.03244  0.03244  1
 Pt  Pt2  1  0.29865  0.96757  0.96757  1
