CIF file written using JARVIS-Tools package.
data_Ag3P11
_symmetry_space_group_name_H-M  'Cm'
_cell_length_a       6.65035
_cell_length_b       7.59805
_cell_length_c       7.59805
_cell_angle_alpha    60.1574
_cell_angle_beta     65.2428
_cell_angle_gamma    65.2429

_symmetry_Int_Tables_number  8
_chemical_formula_structural  Ag3P11
_chemical_formula_sum  Ag3P
_cell_volume  291.4233114686172
_cell_formula_units_Z  1
loop_
  _symmetry_equiv_pos_site_id
 _symmetry_equiv_pos_as_xyz
 1  'x, y, z'
loop_
 _atom_site_type_symbol
 _atom_site_label
 _atom_site_symmetry_multiplicity
 _atom_site_fract_x
 _atom_site_fract_y
 _atom_site_fract_z
 _atom_site_fract_occupancy
 Ag  Ag1  1  0.01786  0.70729  0.70729  1
 Ag  Ag2  1  0.80404  0.40993  0.40993  1
 Ag  Ag3  1  -0.00569  0.00620  0.00620  1
 P  P1  1  0.04457  0.19010  0.19010  1
 P  P2  1  0.05107  0.50769  0.50769  1
 P  P3  1  0.73121  0.91735  0.91735  1
 P  P4  1  0.53177  0.73334  0.22505  1
 P  P5  1  0.53177  0.22505  0.73334  1
 P  P6  1  0.50881  0.38760  0.08519  1
 P  P7  1  0.50881  0.08519  0.38760  1
 P  P8  1  0.27241  0.39321  0.94219  1
 P  P9  1  0.27241  0.94219  0.39321  1
 P  P10  1  0.26569  0.65090  0.18794  1
 P  P11  1  0.26569  0.18794  0.65090  1
