CIF file written using JARVIS-Tools package.
data_ZnMo6O16
_symmetry_space_group_name_H-M  'P3m1'
_cell_length_a       5.95309
_cell_length_b       5.95309
_cell_length_c       9.32065
_cell_angle_alpha    90
_cell_angle_beta     90
_cell_angle_gamma    120

_symmetry_Int_Tables_number  156
_chemical_formula_structural  ZnMo6O16
_chemical_formula_sum  ZnMo6O6
_cell_volume  286.0627842434435
_cell_formula_units_Z  1
loop_
  _symmetry_equiv_pos_site_id
 _symmetry_equiv_pos_as_xyz
 1  'x, y, z'
loop_
 _atom_site_type_symbol
 _atom_site_label
 _atom_site_symmetry_multiplicity
 _atom_site_fract_x
 _atom_site_fract_y
 _atom_site_fract_z
 _atom_site_fract_occupancy
 Mo  Mo1  1  0.17490  0.34980  0.06892  1
 Mo  Mo2  1  0.34137  0.17068  0.58314  1
 Mo  Mo3  1  0.17490  0.82510  0.06892  1
 Mo  Mo4  1  0.82932  0.17068  0.58314  1
 Mo  Mo5  1  0.82932  0.65863  0.58314  1
 Mo  Mo6  1  0.65020  0.82510  0.06892  1
 O  O1  1  0.48338  0.96675  0.95075  1
 O  O2  1  0.00000  0.00000  0.46881  1
 O  O3  1  0.00000  0.00000  0.96523  1
 O  O4  1  0.66667  0.33333  0.70399  1
 O  O5  1  0.33333  0.66667  0.19791  1
 O  O6  1  0.32154  0.16077  0.17661  1
 O  O7  1  0.48338  0.51662  0.95075  1
 O  O8  1  0.52177  0.04353  0.45632  1
 O  O9  1  0.83923  0.67846  0.17661  1
 O  O10  1  0.52177  0.47823  0.45632  1
 O  O11  1  0.03325  0.51662  0.95075  1
 O  O12  1  0.83923  0.16077  0.17661  1
 O  O13  1  0.68421  0.84211  0.67891  1
 O  O14  1  0.15789  0.31579  0.67891  1
 O  O15  1  0.15789  0.84211  0.67891  1
 O  O16  1  0.95647  0.47823  0.45632  1
 Zn  Zn1  1  0.66667  0.33333  0.28207  1
