CIF file written using JARVIS-Tools package.
data_SnBi
_symmetry_space_group_name_H-M  'Cmce'
_cell_length_a       6.57646
_cell_length_b       6.57645
_cell_length_c       6.5202
_cell_angle_alpha    90
_cell_angle_beta     90
_cell_angle_gamma    120.275

_symmetry_Int_Tables_number  64
_chemical_formula_structural  SnBi
_chemical_formula_sum  Sn4Bi4
_cell_volume  243.5372586337435
_cell_formula_units_Z  4
loop_
  _symmetry_equiv_pos_site_id
 _symmetry_equiv_pos_as_xyz
 1  'x, y, z'
loop_
 _atom_site_type_symbol
 _atom_site_label
 _atom_site_symmetry_multiplicity
 _atom_site_fract_x
 _atom_site_fract_y
 _atom_site_fract_z
 _atom_site_fract_occupancy
 Bi  Bi1  1  0.20566  0.79434  0.00000  1
 Bi  Bi2  1  0.70566  0.29434  0.50000  1
 Bi  Bi3  1  0.29434  0.70566  0.50000  1
 Bi  Bi4  1  0.79434  0.20566  0.00000  1
 Sn  Sn1  1  0.33178  0.33178  0.83047  1
 Sn  Sn2  1  0.66822  0.66822  0.16953  1
 Sn  Sn3  1  0.83178  0.83178  0.66953  1
 Sn  Sn4  1  0.16822  0.16822  0.33047  1
