CIF file written using JARVIS-Tools package.
data_ScTlAg2
_symmetry_space_group_name_H-M  'I4/mmm'
_cell_length_a       11.8965
_cell_length_b       8.22204
_cell_length_c       8.22187
_cell_angle_alpha    32.7427
_cell_angle_beta     19.4307
_cell_angle_gamma    19.4308

_symmetry_Int_Tables_number  139
_chemical_formula_structural  ScTlAg2
_chemical_formula_sum  ScTlAg2
_cell_volume  80.1052485314311
_cell_formula_units_Z  1
loop_
  _symmetry_equiv_pos_site_id
 _symmetry_equiv_pos_as_xyz
 1  'x, y, z'
loop_
 _atom_site_type_symbol
 _atom_site_label
 _atom_site_symmetry_multiplicity
 _atom_site_fract_x
 _atom_site_fract_y
 _atom_site_fract_z
 _atom_site_fract_occupancy
 Ag  Ag1  1  0.75007  -0.00005  -0.00007  1
 Ag  Ag2  1  0.24993  0.00005  0.00007  1
 Sc  Sc1  1  0.00000  0.00000  0.00000  1
 Tl  Tl1  1  0.50000  0.00000  -0.00000  1
