CIF file written using JARVIS-Tools package.
data_RbAs
_symmetry_space_group_name_H-M  'P2_12_12_1'
_cell_length_a       6.65437
_cell_length_b       6.91747
_cell_length_c       12.0254
_cell_angle_alpha    90
_cell_angle_beta     90
_cell_angle_gamma    90

_symmetry_Int_Tables_number  19
_chemical_formula_structural  RbAs
_chemical_formula_sum  Rb8As8
_cell_volume  553.5457796055045
_cell_formula_units_Z  8
loop_
  _symmetry_equiv_pos_site_id
 _symmetry_equiv_pos_as_xyz
 1  'x, y, z'
loop_
 _atom_site_type_symbol
 _atom_site_label
 _atom_site_symmetry_multiplicity
 _atom_site_fract_x
 _atom_site_fract_y
 _atom_site_fract_z
 _atom_site_fract_occupancy
 As  As1  1  0.17297  0.18002  0.11084  1
 As  As2  1  0.67297  0.31998  0.88916  1
 As  As3  1  0.82703  0.68002  0.38916  1
 As  As4  1  0.32703  0.81998  0.61084  1
 As  As5  1  0.40783  0.43020  0.02919  1
 As  As6  1  0.90783  0.06980  0.97081  1
 As  As7  1  0.59217  0.93020  0.47081  1
 As  As8  1  0.09217  0.56980  0.52919  1
 Rb  Rb1  1  0.09697  0.11075  0.41616  1
 Rb  Rb2  1  0.59697  0.38925  0.58384  1
 Rb  Rb3  1  0.90303  0.61075  0.08384  1
 Rb  Rb4  1  0.40303  0.88925  0.91616  1
 Rb  Rb5  1  0.67108  0.16169  0.21876  1
 Rb  Rb6  1  0.17108  0.33831  0.78124  1
 Rb  Rb7  1  0.32892  0.66169  0.28124  1
 Rb  Rb8  1  0.82892  0.83831  0.71876  1
