CIF file written using JARVIS-Tools package.
data_NaYAu2
_symmetry_space_group_name_H-M  'C2/m'
_cell_length_a       11.8196
_cell_length_b       4.06684
_cell_length_c       4.0667
_cell_angle_alpha    59.9205
_cell_angle_beta     46.6144
_cell_angle_gamma    46.6115

_symmetry_Int_Tables_number  12
_chemical_formula_structural  NaYAu2
_chemical_formula_sum  NaYAu2
_cell_volume  103.0807818466865
_cell_formula_units_Z  1
loop_
  _symmetry_equiv_pos_site_id
 _symmetry_equiv_pos_as_xyz
 1  'x, y, z'
loop_
 _atom_site_type_symbol
 _atom_site_label
 _atom_site_symmetry_multiplicity
 _atom_site_fract_x
 _atom_site_fract_y
 _atom_site_fract_z
 _atom_site_fract_occupancy
 Au  Au1  1  0.73790  0.01652  0.01653  1
 Au  Au2  1  0.26210  -0.01652  -0.01653  1
 Na  Na1  1  0.00000  -0.00000  0.00000  1
 Y  Y1  1  0.50000  -0.00000  0.00000  1
