CIF file written using JARVIS-Tools package.
data_Li4UO5
_symmetry_space_group_name_H-M  'I4/m'
_cell_length_a       4.4364
_cell_length_b       5.24011
_cell_length_c       5.24011
_cell_angle_alpha    79.6773
_cell_angle_beta     64.9561
_cell_angle_gamma    64.9561

_symmetry_Int_Tables_number  87
_chemical_formula_structural  Li4UO5
_chemical_formula_sum  Li4UO5
_cell_volume  99.98915991775903
_cell_formula_units_Z  1
loop_
  _symmetry_equiv_pos_site_id
 _symmetry_equiv_pos_as_xyz
 1  'x, y, z'
loop_
 _atom_site_type_symbol
 _atom_site_label
 _atom_site_symmetry_multiplicity
 _atom_site_fract_x
 _atom_site_fract_y
 _atom_site_fract_z
 _atom_site_fract_occupancy
 Li  Li1  1  0.81645  0.76395  0.60315  1
 Li  Li2  1  0.18355  0.23605  0.39685  1
 Li  Li3  1  0.41960  0.39685  0.76395  1
 Li  Li4  1  0.58040  0.60315  0.23605  1
 O  O1  1  0.91206  0.37828  0.79761  1
 O  O2  1  0.70967  0.20239  0.37828  1
 O  O3  1  0.50000  0.00000  0.00000  1
 O  O4  1  0.08794  0.62172  0.20239  1
 O  O5  1  0.29033  0.79761  0.62172  1
 U  U1  1  0.00000  0.00000  0.00000  1
