CIF file written using JARVIS-Tools package.
data_SrLi2In
_symmetry_space_group_name_H-M  'R-3m'
_cell_length_a       12.287
_cell_length_b       8.94982
_cell_length_c       8.94982
_cell_angle_alpha    31.5287
_cell_angle_beta     19.4075
_cell_angle_gamma    19.4074

_symmetry_Int_Tables_number  166
_chemical_formula_structural  SrLi2In
_chemical_formula_sum  SrLi2In
_cell_volume  102.30926303407729
_cell_formula_units_Z  1
loop_
  _symmetry_equiv_pos_site_id
 _symmetry_equiv_pos_as_xyz
 1  'x, y, z'
loop_
 _atom_site_type_symbol
 _atom_site_label
 _atom_site_symmetry_multiplicity
 _atom_site_fract_x
 _atom_site_fract_y
 _atom_site_fract_z
 _atom_site_fract_occupancy
 In  In1  1  0.50000  -0.00000  0.00000  1
 Li  Li1  1  0.93925  -0.15140  -0.15140  1
 Li  Li2  1  0.06075  0.15140  0.15140  1
 Sr  Sr1  1  0.00000  0.00000  0.00000  1
