CIF file written using JARVIS-Tools package.
data_SrCuF4
_symmetry_space_group_name_H-M  'I4/mcm'
_cell_length_a       5.70277
_cell_length_b       5.70278
_cell_length_c       6.68009
_cell_angle_alpha    115.268
_cell_angle_beta     115.268
_cell_angle_gamma    90

_symmetry_Int_Tables_number  140
_chemical_formula_structural  SrCuF4
_chemical_formula_sum  Sr2Cu2F8
_cell_volume  173.1997373462868
_cell_formula_units_Z  2
loop_
  _symmetry_equiv_pos_site_id
 _symmetry_equiv_pos_as_xyz
 1  'x, y, z'
loop_
 _atom_site_type_symbol
 _atom_site_label
 _atom_site_symmetry_multiplicity
 _atom_site_fract_x
 _atom_site_fract_y
 _atom_site_fract_z
 _atom_site_fract_occupancy
 Cu  Cu1  1  0.50000  0.00000  0.00000  1
 Cu  Cu2  1  0.00000  0.50000  0.00000  1
 F  F1  1  0.95434  0.45434  0.24954  1
 F  F2  1  0.70479  0.20479  0.75046  1
 F  F3  1  0.04566  0.54566  0.75046  1
 F  F4  1  0.20479  0.04566  0.75046  1
 F  F5  1  0.29521  0.79521  0.24954  1
 F  F6  1  0.45434  0.29521  0.24954  1
 F  F7  1  0.79521  0.95434  0.24954  1
 F  F8  1  0.54566  0.70479  0.75046  1
 Sr  Sr1  1  0.75000  0.75000  0.50000  1
 Sr  Sr2  1  0.25000  0.25000  0.50000  1
