CIF file written using JARVIS-Tools package.
data_ZnF2
_symmetry_space_group_name_H-M  'Pbcn'
_cell_length_a       4.70768
_cell_length_b       5.21399
_cell_length_c       5.73933
_cell_angle_alpha    90
_cell_angle_beta     90
_cell_angle_gamma    90

_symmetry_Int_Tables_number  60
_chemical_formula_structural  ZnF2
_chemical_formula_sum  Zn4F8
_cell_volume  140.87641367045725
_cell_formula_units_Z  4
loop_
  _symmetry_equiv_pos_site_id
 _symmetry_equiv_pos_as_xyz
 1  'x, y, z'
loop_
 _atom_site_type_symbol
 _atom_site_label
 _atom_site_symmetry_multiplicity
 _atom_site_fract_x
 _atom_site_fract_y
 _atom_site_fract_z
 _atom_site_fract_occupancy
 F  F1  1  0.73259  0.07985  0.61100  1
 F  F2  1  0.23259  0.92015  0.88900  1
 F  F3  1  0.76741  0.57985  0.88900  1
 F  F4  1  0.26741  0.42015  0.61100  1
 F  F5  1  0.73259  0.57985  0.38900  1
 F  F6  1  0.23259  0.42015  0.11100  1
 F  F7  1  0.76741  0.07985  0.11100  1
 F  F8  1  0.26741  0.92015  0.38900  1
 Zn  Zn1  1  0.50000  0.75000  0.66280  1
 Zn  Zn2  1  0.00000  0.25000  0.83720  1
 Zn  Zn3  1  0.50000  0.25000  0.33720  1
 Zn  Zn4  1  0.00000  0.75000  0.16280  1
