CIF file written using JARVIS-Tools package.
data_MgCoO3
_symmetry_space_group_name_H-M  'C2/c'
_cell_length_a       6.36424
_cell_length_b       6.36424
_cell_length_c       4.94038
_cell_angle_alpha    93.1659
_cell_angle_beta     86.8341
_cell_angle_gamma    96.3242

_symmetry_Int_Tables_number  15
_chemical_formula_structural  MgCoO3
_chemical_formula_sum  Mg4Co4O2
_cell_volume  198.33748415904225
_cell_formula_units_Z  4
loop_
  _symmetry_equiv_pos_site_id
 _symmetry_equiv_pos_as_xyz
 1  'x, y, z'
loop_
 _atom_site_type_symbol
 _atom_site_label
 _atom_site_symmetry_multiplicity
 _atom_site_fract_x
 _atom_site_fract_y
 _atom_site_fract_z
 _atom_site_fract_occupancy
 Co  Co1  1  0.08422  0.08422  0.75000  1
 Co  Co2  1  0.73658  0.73658  0.75000  1
 Co  Co3  1  0.26342  0.26342  0.25000  1
 Co  Co4  1  0.91578  0.91578  0.25000  1
 Mg  Mg1  1  0.17862  0.60625  0.77513  1
 Mg  Mg2  1  0.39375  0.82138  0.27513  1
 Mg  Mg3  1  0.60625  0.17862  0.72487  1
 Mg  Mg4  1  0.82138  0.39375  0.22487  1
 O  O1  1  0.01976  0.81490  0.57069  1
 O  O2  1  0.81490  0.01976  0.92931  1
 O  O3  1  0.11521  0.33637  0.95605  1
 O  O4  1  0.27530  0.52886  0.39473  1
 O  O5  1  0.18510  0.98024  0.07069  1
 O  O6  1  0.72470  0.47114  0.60527  1
 O  O7  1  0.52886  0.27530  0.10527  1
 O  O8  1  0.33637  0.11521  0.54395  1
 O  O9  1  0.66363  0.88479  0.45605  1
 O  O10  1  0.88479  0.66363  0.04395  1
 O  O11  1  0.47114  0.72470  0.89473  1
 O  O12  1  0.98024  0.18510  0.42931  1
