CIF file written using JARVIS-Tools package.
data_Be2SiO4
_symmetry_space_group_name_H-M  'R-3'
_cell_length_a       7.76656
_cell_length_b       7.76656
_cell_length_c       7.76656
_cell_angle_alpha    107.99
_cell_angle_beta     107.99
_cell_angle_gamma    107.99

_symmetry_Int_Tables_number  148
_chemical_formula_structural  Be2SiO4
_chemical_formula_sum  Be2Si6O24
_cell_volume  379.12231935622737
_cell_formula_units_Z  6
loop_
  _symmetry_equiv_pos_site_id
 _symmetry_equiv_pos_as_xyz
 1  'x, y, z'
loop_
 _atom_site_type_symbol
 _atom_site_label
 _atom_site_symmetry_multiplicity
 _atom_site_fract_x
 _atom_site_fract_y
 _atom_site_fract_z
 _atom_site_fract_occupancy
 Be  Be1  1  0.12733  0.89799  0.72151  1
 Be  Be2  1  0.27849  0.87267  0.10201  1
 Be  Be3  1  0.89799  0.72151  0.12733  1
 Be  Be4  1  0.72151  0.12733  0.89799  1
 Be  Be5  1  0.10201  0.27849  0.87267  1
 Be  Be6  1  0.20577  0.43125  0.60986  1
 Be  Be7  1  0.87267  0.10201  0.27849  1
 Be  Be8  1  0.43125  0.60986  0.20577  1
 Be  Be9  1  0.39014  0.79423  0.56875  1
 Be  Be10  1  0.56875  0.39014  0.79423  1
 Be  Be11  1  0.79423  0.56875  0.39014  1
 Be  Be12  1  0.60986  0.20577  0.43125  1
 O  O1  1  0.41632  0.74946  0.08396  1
 O  O2  1  0.03751  0.70555  0.00360  1
 O  O3  1  0.58368  0.25054  0.91604  1
 O  O4  1  0.25054  0.91604  0.58368  1
 O  O5  1  0.91604  0.58368  0.25054  1
 O  O6  1  0.74946  0.08396  0.41632  1
 O  O7  1  0.62868  0.95954  0.66244  1
 O  O8  1  0.33756  0.37132  0.04046  1
 O  O9  1  0.37132  0.04046  0.33756  1
 O  O10  1  0.04046  0.33756  0.37132  1
 O  O11  1  0.32889  0.29366  0.62453  1
 O  O12  1  0.00360  0.03751  0.70555  1
 O  O13  1  0.08396  0.41632  0.74946  1
 O  O14  1  0.70555  0.00360  0.03751  1
 O  O15  1  0.67111  0.70634  0.37547  1
 O  O16  1  0.99640  0.96249  0.29445  1
 O  O17  1  0.29445  0.99640  0.96249  1
 O  O18  1  0.29366  0.62453  0.32889  1
 O  O19  1  0.37547  0.67111  0.70634  1
 O  O20  1  0.62453  0.32889  0.29366  1
 O  O21  1  0.70634  0.37547  0.67111  1
 O  O22  1  0.95954  0.66244  0.62868  1
 O  O23  1  0.96249  0.29445  0.99640  1
 O  O24  1  0.66244  0.62868  0.95954  1
 Si  Si1  1  0.94543  0.53836  0.76601  1
 Si  Si2  1  0.76601  0.94543  0.53836  1
 Si  Si3  1  0.23399  0.05457  0.46164  1
 Si  Si4  1  0.05457  0.46164  0.23399  1
 Si  Si5  1  0.53836  0.76601  0.94543  1
 Si  Si6  1  0.46164  0.23399  0.05457  1
