CIF file written using JARVIS-Tools package.
data_NaYIn2
_symmetry_space_group_name_H-M  'C2/m'
_cell_length_a       12.8211
_cell_length_b       9.05322
_cell_length_c       5.26345
_cell_angle_alpha    30.1076
_cell_angle_beta     35.3201
_cell_angle_gamma    19.6411

_symmetry_Int_Tables_number  12
_chemical_formula_structural  NaYIn2
_chemical_formula_sum  NaYIn2
_cell_volume  103.00798971720046
_cell_formula_units_Z  1
loop_
  _symmetry_equiv_pos_site_id
 _symmetry_equiv_pos_as_xyz
 1  'x, y, z'
loop_
 _atom_site_type_symbol
 _atom_site_label
 _atom_site_symmetry_multiplicity
 _atom_site_fract_x
 _atom_site_fract_y
 _atom_site_fract_z
 _atom_site_fract_occupancy
 In  In1  1  0.75078  -0.00101  0.00101  1
 In  In2  1  0.24922  0.00101  -0.00101  1
 Na  Na1  1  0.00000  0.00000  0.00000  1
 Y  Y1  1  0.50000  0.00000  0.00000  1
