CIF file written using JARVIS-Tools package.
data_LiY2Tl
_symmetry_space_group_name_H-M  'Immm'
_cell_length_a       12.6584
_cell_length_b       7.10971
_cell_length_c       7.10972
_cell_angle_alpha    45.4284
_cell_angle_beta     27.0993
_cell_angle_gamma    27.0993

_symmetry_Int_Tables_number  71
_chemical_formula_structural  LiY2Tl
_chemical_formula_sum  LiY2Tl
_cell_volume  119.42598124289498
_cell_formula_units_Z  1
loop_
  _symmetry_equiv_pos_site_id
 _symmetry_equiv_pos_as_xyz
 1  'x, y, z'
loop_
 _atom_site_type_symbol
 _atom_site_label
 _atom_site_symmetry_multiplicity
 _atom_site_fract_x
 _atom_site_fract_y
 _atom_site_fract_z
 _atom_site_fract_occupancy
 Li  Li1  1  0.00000  0.00000  0.00000  1
 Tl  Tl1  1  0.50000  0.00000  0.00000  1
 Y  Y1  1  0.74645  -0.00000  0.00000  1
 Y  Y2  1  0.25355  0.00000  -0.00000  1
