CIF file written using JARVIS-Tools package.
data_Hg3Se2Cl2
_symmetry_space_group_name_H-M  'I2_13'
_cell_length_a       7.95464
_cell_length_b       7.95464
_cell_length_c       7.95464
_cell_angle_alpha    109.471
_cell_angle_beta     109.471
_cell_angle_gamma    109.471

_symmetry_Int_Tables_number  199
_chemical_formula_structural  Hg3Se2Cl2
_chemical_formula_sum  Hg6Se4Cl4
_cell_volume  387.4716806381537
_cell_formula_units_Z  2
loop_
  _symmetry_equiv_pos_site_id
 _symmetry_equiv_pos_as_xyz
 1  'x, y, z'
loop_
 _atom_site_type_symbol
 _atom_site_label
 _atom_site_symmetry_multiplicity
 _atom_site_fract_x
 _atom_site_fract_y
 _atom_site_fract_z
 _atom_site_fract_occupancy
 Cl  Cl1  1  0.46850  0.50000  -0.00000  1
 Cl  Cl2  1  0.50000  -0.00000  0.46850  1
 Cl  Cl3  1  0.00000  0.46850  0.50000  1
 Cl  Cl4  1  0.03150  0.03150  0.03150  1
 Hg  Hg1  1  0.75000  0.94020  0.19020  1
 Hg  Hg2  1  0.30980  0.25000  0.55980  1
 Hg  Hg3  1  0.55980  0.30980  0.25000  1
 Hg  Hg4  1  0.19020  0.75000  0.94020  1
 Hg  Hg5  1  0.94020  0.19020  0.75000  1
 Hg  Hg6  1  0.25000  0.55980  0.30980  1
 Se  Se1  1  0.94719  0.50000  0.00000  1
 Se  Se2  1  0.50000  0.00000  0.94719  1
 Se  Se3  1  0.55281  0.55281  0.55281  1
 Se  Se4  1  -0.00000  0.94719  0.50000  1
