CIF file written using JARVIS-Tools package.
data_CrTcGe2
_symmetry_space_group_name_H-M  'Immm'
_cell_length_a       9.71491
_cell_length_b       9.94461
_cell_length_c       9.94462
_cell_angle_alpha    59.1064
_cell_angle_beta     60.7612
_cell_angle_gamma    60.7612

_symmetry_Int_Tables_number  71
_chemical_formula_structural  CrTcGe2
_chemical_formula_sum  CrTcGe2
_cell_volume  682.2108042746294
_cell_formula_units_Z  1
loop_
  _symmetry_equiv_pos_site_id
 _symmetry_equiv_pos_as_xyz
 1  'x, y, z'
loop_
 _atom_site_type_symbol
 _atom_site_label
 _atom_site_symmetry_multiplicity
 _atom_site_fract_x
 _atom_site_fract_y
 _atom_site_fract_z
 _atom_site_fract_occupancy
 Cr  Cr1  1  0.00000  0.00000  0.00000  1
 Ge  Ge1  1  0.74578  -0.00000  -0.00000  1
 Ge  Ge2  1  0.25422  0.00000  0.00000  1
 Tc  Tc1  1  0.50000  0.00000  -0.00000  1
