CIF file written using JARVIS-Tools package.
data_Nd2UTe4
_symmetry_space_group_name_H-M  'I-42d'
_cell_length_a       8.19707
_cell_length_b       8.19707
_cell_length_c       8.19707
_cell_angle_alpha    109.391
_cell_angle_beta     109.631
_cell_angle_gamma    109.391

_symmetry_Int_Tables_number  122
_chemical_formula_structural  Nd2UTe4
_chemical_formula_sum  Nd4U2Te8
_cell_volume  423.9857498332479
_cell_formula_units_Z  2
loop_
  _symmetry_equiv_pos_site_id
 _symmetry_equiv_pos_as_xyz
 1  'x, y, z'
loop_
 _atom_site_type_symbol
 _atom_site_label
 _atom_site_symmetry_multiplicity
 _atom_site_fract_x
 _atom_site_fract_y
 _atom_site_fract_z
 _atom_site_fract_occupancy
 Nd  Nd1  1  0.25000  0.62279  0.37279  1
 Nd  Nd2  1  0.75000  0.87721  0.12721  1
 Nd  Nd3  1  0.62721  0.37721  0.25000  1
 Nd  Nd4  1  0.87279  0.12279  0.75000  1
 Te  Te1  1  0.00435  0.85129  0.50355  1
 Te  Te2  1  0.00355  0.35129  0.50435  1
 Te  Te3  1  0.49645  0.00080  0.34773  1
 Te  Te4  1  0.15306  0.14871  0.15227  1
 Te  Te5  1  0.34694  0.49920  0.99565  1
 Te  Te6  1  0.49565  0.99920  0.84694  1
 Te  Te7  1  0.65227  0.64871  0.65306  1
 Te  Te8  1  0.84773  0.50080  0.99645  1
 U  U1  1  0.12500  0.75000  0.87500  1
 U  U2  1  0.37500  0.25000  0.62500  1
