CIF file written using JARVIS-Tools package.
data_Li2InGa
_symmetry_space_group_name_H-M  'C2/m'
_cell_length_a       11.5682
_cell_length_b       7.92564
_cell_length_c       7.92564
_cell_angle_alpha    22.2855
_cell_angle_beta     19.6372
_cell_angle_gamma    19.6372

_symmetry_Int_Tables_number  12
_chemical_formula_structural  Li2InGa
_chemical_formula_sum  Li2InGa
_cell_volume  77.22013553127864
_cell_formula_units_Z  1
loop_
  _symmetry_equiv_pos_site_id
 _symmetry_equiv_pos_as_xyz
 1  'x, y, z'
loop_
 _atom_site_type_symbol
 _atom_site_label
 _atom_site_symmetry_multiplicity
 _atom_site_fract_x
 _atom_site_fract_y
 _atom_site_fract_z
 _atom_site_fract_occupancy
 Ga  Ga1  1  0.00000  0.00000  0.00000  1
 In  In1  1  0.50000  -0.00000  0.00000  1
 Li  Li1  1  0.72411  0.02207  0.02207  1
 Li  Li2  1  0.27589  -0.02207  -0.02207  1
