CIF file written using JARVIS-Tools package.
data_Yb2PrDyS6
_symmetry_space_group_name_H-M  'P2_1/m'
_cell_length_a       10.8625
_cell_length_b       4.09957
_cell_length_c       11.4131
_cell_angle_alpha    90
_cell_angle_beta     104.642
_cell_angle_gamma    90

_symmetry_Int_Tables_number  11
_chemical_formula_structural  Yb2PrDyS6
_chemical_formula_sum  Yb4Pr2Dy2S2
_cell_volume  491.7345580629384
_cell_formula_units_Z  2
loop_
  _symmetry_equiv_pos_site_id
 _symmetry_equiv_pos_as_xyz
 1  'x, y, z'
loop_
 _atom_site_type_symbol
 _atom_site_label
 _atom_site_symmetry_multiplicity
 _atom_site_fract_x
 _atom_site_fract_y
 _atom_site_fract_z
 _atom_site_fract_occupancy
 Dy  Dy1  1  0.16974  0.75000  0.03071  1
 Dy  Dy2  1  0.83026  0.25000  0.96929  1
 Pr  Pr1  1  0.47224  0.25000  0.81804  1
 Pr  Pr2  1  0.52776  0.75000  0.18196  1
 S  S1  1  0.70007  0.25000  0.74063  1
 S  S2  1  0.37078  0.25000  0.03212  1
 S  S3  1  0.09935  0.25000  0.42923  1
 S  S4  1  0.62922  0.75000  0.96788  1
 S  S5  1  0.59691  0.25000  0.38507  1
 S  S6  1  0.40309  0.75000  0.61493  1
 S  S7  1  0.29993  0.75000  0.25937  1
 S  S8  1  0.72753  0.25000  0.27262  1
 S  S9  1  0.95026  0.75000  0.10563  1
 S  S10  1  0.90065  0.75000  0.57077  1
 S  S11  1  0.27247  0.75000  0.72738  1
 S  S12  1  0.04974  0.25000  0.89437  1
 Yb  Yb1  1  0.67158  0.75000  0.58543  1
 Yb  Yb2  1  0.94751  0.75000  0.35059  1
 Yb  Yb3  1  0.05249  0.25000  0.64941  1
 Yb  Yb4  1  0.32842  0.25000  0.41457  1
