CIF file written using JARVIS-Tools package.
data_LiHg2Pt
_symmetry_space_group_name_H-M  'C2/m'
_cell_length_a       13.5798
_cell_length_b       7.3364
_cell_length_c       7.33756
_cell_angle_alpha    34.3249
_cell_angle_beta     20.6939
_cell_angle_gamma    20.6543

_symmetry_Int_Tables_number  12
_chemical_formula_structural  LiHg2Pt
_chemical_formula_sum  LiHg2Pt
_cell_volume  83.62574417878076
_cell_formula_units_Z  1
loop_
  _symmetry_equiv_pos_site_id
 _symmetry_equiv_pos_as_xyz
 1  'x, y, z'
loop_
 _atom_site_type_symbol
 _atom_site_label
 _atom_site_symmetry_multiplicity
 _atom_site_fract_x
 _atom_site_fract_y
 _atom_site_fract_z
 _atom_site_fract_occupancy
 Hg  Hg1  1  0.21856  0.46114  0.46074  1
 Hg  Hg2  1  0.78144  0.53886  -0.46074  1
 Li  Li1  1  0.00000  0.00000  0.00000  1
 Pt  Pt1  1  0.50000  -0.00000  1.00000  1
