CIF file written using JARVIS-Tools package.
data_VZn2N2
_symmetry_space_group_name_H-M  'C2/m'
_cell_length_a       4.73488
_cell_length_b       5.89374
_cell_length_c       5.69865
_cell_angle_alpha    61.4416
_cell_angle_beta     65.453
_cell_angle_gamma    66.3163

_symmetry_Int_Tables_number  12
_chemical_formula_structural  VZn2N2
_chemical_formula_sum  V2Zn4N4
_cell_volume  122.88153570561894
_cell_formula_units_Z  2
loop_
  _symmetry_equiv_pos_site_id
 _symmetry_equiv_pos_as_xyz
 1  'x, y, z'
loop_
 _atom_site_type_symbol
 _atom_site_label
 _atom_site_symmetry_multiplicity
 _atom_site_fract_x
 _atom_site_fract_y
 _atom_site_fract_z
 _atom_site_fract_occupancy
 N  N1  1  0.15536  0.26589  0.42340  1
 N  N2  1  0.84464  0.73411  0.57660  1
 N  N3  1  0.52886  0.19472  0.74756  1
 N  N4  1  0.47114  0.80528  0.25244  1
 V  V1  1  0.35004  0.17168  0.12824  1
 V  V2  1  0.64996  0.82832  0.87176  1
 Zn  Zn1  1  0.70874  0.24112  0.34141  1
 Zn  Zn2  1  0.29126  0.75888  0.65859  1
 Zn  Zn3  1  0.05459  0.69045  0.20037  1
 Zn  Zn4  1  0.94541  0.30955  0.79963  1
