CIF file written using JARVIS-Tools package.
data_NdAs2
_symmetry_space_group_name_H-M  'P2_1/c'
_cell_length_a       4.1481
_cell_length_b       6.91115
_cell_length_c       10.6029
_cell_angle_alpha    90
_cell_angle_beta     106.787
_cell_angle_gamma    90

_symmetry_Int_Tables_number  14
_chemical_formula_structural  NdAs2
_chemical_formula_sum  Nd4As8
_cell_volume  291.01211577480524
_cell_formula_units_Z  4
loop_
  _symmetry_equiv_pos_site_id
 _symmetry_equiv_pos_as_xyz
 1  'x, y, z'
loop_
 _atom_site_type_symbol
 _atom_site_label
 _atom_site_symmetry_multiplicity
 _atom_site_fract_x
 _atom_site_fract_y
 _atom_site_fract_z
 _atom_site_fract_occupancy
 As  As1  1  0.72883  0.87626  0.04971  1
 As  As2  1  0.27117  0.37626  0.45029  1
 As  As3  1  0.27117  0.12374  0.95029  1
 As  As4  1  0.72883  0.62374  0.54971  1
 As  As5  1  0.53911  0.35858  0.82897  1
 As  As6  1  0.46089  0.85858  0.67103  1
 As  As7  1  0.46089  0.64142  0.17103  1
 As  As8  1  0.53911  0.14142  0.32897  1
 Nd  Nd1  1  0.08852  0.81123  0.35931  1
 Nd  Nd2  1  0.91148  0.31123  0.14069  1
 Nd  Nd3  1  0.91148  0.18877  0.64069  1
 Nd  Nd4  1  0.08852  0.68877  0.85931  1
