CIF file written using JARVIS-Tools package.
data_LiNiO2
_symmetry_space_group_name_H-M  'Cm'
_cell_length_a       2.98851
_cell_length_b       2.82329
_cell_length_c       4.96368
_cell_angle_alpha    90.0409
_cell_angle_beta     92.3549
_cell_angle_gamma    118.186

_symmetry_Int_Tables_number  8
_chemical_formula_structural  LiNiO2
_chemical_formula_sum  LiNiO2
_cell_volume  36.8735309050868
_cell_formula_units_Z  1
loop_
  _symmetry_equiv_pos_site_id
 _symmetry_equiv_pos_as_xyz
 1  'x, y, z'
loop_
 _atom_site_type_symbol
 _atom_site_label
 _atom_site_symmetry_multiplicity
 _atom_site_fract_x
 _atom_site_fract_y
 _atom_site_fract_z
 _atom_site_fract_occupancy
 Li  Li1  1  0.67231  0.33655  0.40301  1
 Ni  Ni1  1  0.01022  0.00498  0.97056  1
 O  O1  1  0.29949  0.64987  0.19849  1
 O  O2  1  0.68448  0.34190  0.77874  1
