CIF file written using JARVIS-Tools package.
data_CeCo3
_symmetry_space_group_name_H-M  'R-3m'
_cell_length_a       8.63836
_cell_length_b       8.63836
_cell_length_c       8.63835
_cell_angle_alpha    32.7723
_cell_angle_beta     32.7724
_cell_angle_gamma    32.7724

_symmetry_Int_Tables_number  166
_chemical_formula_structural  CeCo3
_chemical_formula_sum  Ce3Co9
_cell_volume  168.0208913435619
_cell_formula_units_Z  3
loop_
  _symmetry_equiv_pos_site_id
 _symmetry_equiv_pos_as_xyz
 1  'x, y, z'
loop_
 _atom_site_type_symbol
 _atom_site_label
 _atom_site_symmetry_multiplicity
 _atom_site_fract_x
 _atom_site_fract_y
 _atom_site_fract_z
 _atom_site_fract_occupancy
 Ce  Ce1  1  0.86204  0.86204  0.86204  1
 Ce  Ce2  1  0.13796  0.13796  0.13796  1
 Ce  Ce3  1  0.00000  0.00000  0.00000  1
 Co  Co1  1  0.33277  0.33277  0.33277  1
 Co  Co2  1  0.42003  0.42003  0.91863  1
 Co  Co3  1  0.57997  0.57997  0.08137  1
 Co  Co4  1  0.66723  0.66723  0.66723  1
 Co  Co5  1  0.57997  0.08137  0.57997  1
 Co  Co6  1  0.91863  0.42003  0.42003  1
 Co  Co7  1  0.42003  0.91863  0.42003  1
 Co  Co8  1  0.50000  0.50000  0.50000  1
 Co  Co9  1  0.08137  0.57997  0.57997  1
