CIF file written using JARVIS-Tools package.
data_Sc2GaHg
_symmetry_space_group_name_H-M  'Immm'
_cell_length_a       11.5477
_cell_length_b       6.55702
_cell_length_c       6.55702
_cell_angle_alpha    28.1388
_cell_angle_beta     28.2896
_cell_angle_gamma    28.2896

_symmetry_Int_Tables_number  71
_chemical_formula_structural  Sc2GaHg
_chemical_formula_sum  Sc2GaHg
_cell_volume  98.20505484946415
_cell_formula_units_Z  1
loop_
  _symmetry_equiv_pos_site_id
 _symmetry_equiv_pos_as_xyz
 1  'x, y, z'
loop_
 _atom_site_type_symbol
 _atom_site_label
 _atom_site_symmetry_multiplicity
 _atom_site_fract_x
 _atom_site_fract_y
 _atom_site_fract_z
 _atom_site_fract_occupancy
 Ga  Ga1  1  0.00000  0.00000  0.00000  1
 Hg  Hg1  1  0.50000  0.00000  -0.00000  1
 Sc  Sc1  1  0.75433  0.00000  0.00000  1
 Sc  Sc2  1  0.24567  0.00000  -0.00000  1
