CIF file written using JARVIS-Tools package.
data_Ni9O13
_symmetry_space_group_name_H-M  'C2/m'
_cell_length_a       2.86883
_cell_length_b       4.97583
_cell_length_c       16.258
_cell_angle_alpha    97.0606
_cell_angle_beta     95.0579
_cell_angle_gamma    106.764

_symmetry_Int_Tables_number  12
_chemical_formula_structural  Ni9O13
_chemical_formula_sum  Ni9O3
_cell_volume  218.65835971875043
_cell_formula_units_Z  1
loop_
  _symmetry_equiv_pos_site_id
 _symmetry_equiv_pos_as_xyz
 1  'x, y, z'
loop_
 _atom_site_type_symbol
 _atom_site_label
 _atom_site_symmetry_multiplicity
 _atom_site_fract_x
 _atom_site_fract_y
 _atom_site_fract_z
 _atom_site_fract_occupancy
 Ni  Ni1  1  -0.00000  0.50000  0.50000  1
 Ni  Ni2  1  0.39715  0.75137  0.04282  1
 Ni  Ni3  1  0.60285  0.24863  0.95718  1
 Ni  Ni4  1  0.66791  0.91960  0.41598  1
 Ni  Ni5  1  0.33209  0.08040  0.58402  1
 Ni  Ni6  1  0.18674  0.24709  0.12591  1
 Ni  Ni7  1  0.81326  0.75291  0.87409  1
 Ni  Ni8  1  0.32905  0.33472  0.32259  1
 Ni  Ni9  1  0.67095  0.66528  0.67741  1
 O  O1  1  0.00000  0.00000  0.00000  1
 O  O2  1  0.33694  0.20250  0.47141  1
 O  O3  1  0.65520  0.53625  0.77461  1
 O  O4  1  0.77172  0.47515  0.06810  1
 O  O5  1  0.22828  0.52485  0.93190  1
 O  O6  1  0.00324  0.61583  0.39043  1
 O  O7  1  0.42801  -0.00335  0.85970  1
 O  O8  1  0.69910  0.07782  0.31976  1
 O  O9  1  0.30090  0.92218  0.68024  1
 O  O10  1  0.57199  0.00335  0.14030  1
 O  O11  1  0.99676  0.38417  0.60957  1
 O  O12  1  0.34480  0.46375  0.22539  1
 O  O13  1  0.66306  0.79750  0.52859  1
