CIF file written using JARVIS-Tools package.
data_Ba2LiHg
_symmetry_space_group_name_H-M  'I4/mmm'
_cell_length_a       20.1599
_cell_length_b       10.4774
_cell_length_c       10.4774
_cell_angle_alpha    22.2444
_cell_angle_beta     15.8321
_cell_angle_gamma    15.8321

_symmetry_Int_Tables_number  139
_chemical_formula_structural  Ba2LiHg
_chemical_formula_sum  Ba2LiHg
_cell_volume  164.7211253153042
_cell_formula_units_Z  1
loop_
  _symmetry_equiv_pos_site_id
 _symmetry_equiv_pos_as_xyz
 1  'x, y, z'
loop_
 _atom_site_type_symbol
 _atom_site_label
 _atom_site_symmetry_multiplicity
 _atom_site_fract_x
 _atom_site_fract_y
 _atom_site_fract_z
 _atom_site_fract_occupancy
 Ba  Ba1  1  0.66261  -0.00000  -0.00000  1
 Ba  Ba2  1  0.33739  -0.00000  0.00000  1
 Hg  Hg1  1  0.50000  -0.00000  0.00000  1
 Li  Li1  1  0.00000  0.00000  0.00000  1
