CIF file written using JARVIS-Tools package.
data_Pu2SnPt2
_symmetry_space_group_name_H-M  'P4/mbm'
_cell_length_a       7.71573
_cell_length_b       7.71573
_cell_length_c       3.79023
_cell_angle_alpha    90
_cell_angle_beta     90
_cell_angle_gamma    90

_symmetry_Int_Tables_number  127
_chemical_formula_structural  Pu2SnPt2
_chemical_formula_sum  Pu4Sn2Pt4
_cell_volume  225.64142575967367
_cell_formula_units_Z  2
loop_
  _symmetry_equiv_pos_site_id
 _symmetry_equiv_pos_as_xyz
 1  'x, y, z'
loop_
 _atom_site_type_symbol
 _atom_site_label
 _atom_site_symmetry_multiplicity
 _atom_site_fract_x
 _atom_site_fract_y
 _atom_site_fract_z
 _atom_site_fract_occupancy
 Pt  Pt1  1  0.13006  0.63006  0.00000  1
 Pt  Pt2  1  0.63006  0.86994  0.00000  1
 Pt  Pt3  1  0.86994  0.36994  0.00000  1
 Pt  Pt4  1  0.36994  0.13006  0.00000  1
 Pu  Pu1  1  0.32717  0.82717  0.50000  1
 Pu  Pu2  1  0.82717  0.67283  0.50000  1
 Pu  Pu3  1  0.17283  0.32717  0.50000  1
 Pu  Pu4  1  0.67283  0.17283  0.50000  1
 Sn  Sn1  1  0.50000  0.50000  0.00000  1
 Sn  Sn2  1  0.00000  0.00000  0.00000  1
