CIF file written using JARVIS-Tools package.
data_Hg3Te2Cl2
_symmetry_space_group_name_H-M  'I2_13'
_cell_length_a       8.17561
_cell_length_b       8.17561
_cell_length_c       8.17561
_cell_angle_alpha    109.471
_cell_angle_beta     109.471
_cell_angle_gamma    109.471

_symmetry_Int_Tables_number  199
_chemical_formula_structural  Hg3Te2Cl2
_chemical_formula_sum  Hg6Te4Cl4
_cell_volume  420.66737359851317
_cell_formula_units_Z  2
loop_
  _symmetry_equiv_pos_site_id
 _symmetry_equiv_pos_as_xyz
 1  'x, y, z'
loop_
 _atom_site_type_symbol
 _atom_site_label
 _atom_site_symmetry_multiplicity
 _atom_site_fract_x
 _atom_site_fract_y
 _atom_site_fract_z
 _atom_site_fract_occupancy
 Cl  Cl1  1  0.04470  0.04470  0.04470  1
 Cl  Cl2  1  0.00000  0.45530  0.50000  1
 Cl  Cl3  1  0.50000  0.00000  0.45530  1
 Cl  Cl4  1  0.45530  0.50000  1.00000  1
 Hg  Hg1  1  0.25000  0.56426  0.31426  1
 Hg  Hg2  1  0.93574  0.18574  0.75000  1
 Hg  Hg3  1  0.18574  0.75000  0.93574  1
 Hg  Hg4  1  0.56426  0.31426  0.25000  1
 Hg  Hg5  1  0.31426  0.25000  0.56426  1
 Hg  Hg6  1  0.75000  0.93574  0.18574  1
 Te  Te1  1  0.57106  0.57106  0.57106  1
 Te  Te2  1  0.00000  0.92894  0.50000  1
 Te  Te3  1  0.50000  0.00000  0.92894  1
 Te  Te4  1  0.92894  0.50000  1.00000  1
