CIF file written using JARVIS-Tools package.
data_KNi2S2
_symmetry_space_group_name_H-M  'I4/mmm'
_cell_length_a       3.80844
_cell_length_b       3.80845
_cell_length_c       6.72491
_cell_angle_alpha    106.449
_cell_angle_beta     106.449
_cell_angle_gamma    89.9999

_symmetry_Int_Tables_number  139
_chemical_formula_structural  KNi2S2
_chemical_formula_sum  KNi2S2
_cell_volume  89.37753247076596
_cell_formula_units_Z  1
loop_
  _symmetry_equiv_pos_site_id
 _symmetry_equiv_pos_as_xyz
 1  'x, y, z'
loop_
 _atom_site_type_symbol
 _atom_site_label
 _atom_site_symmetry_multiplicity
 _atom_site_fract_x
 _atom_site_fract_y
 _atom_site_fract_z
 _atom_site_fract_occupancy
 K  K1  1  0.00000  0.00000  0.00000  1
 Ni  Ni1  1  0.25000  0.75000  0.50000  1
 Ni  Ni2  1  0.75000  0.25000  0.50000  1
 S  S1  1  0.34954  0.34954  0.69909  1
 S  S2  1  0.65046  0.65046  0.30091  1
