CIF file written using JARVIS-Tools package.
data_U2AlCo3
_symmetry_space_group_name_H-M  'P6_3/mmc'
_cell_length_a       5.16887
_cell_length_b       5.16887
_cell_length_c       7.60204
_cell_angle_alpha    90
_cell_angle_beta     90
_cell_angle_gamma    120

_symmetry_Int_Tables_number  194
_chemical_formula_structural  U2AlCo3
_chemical_formula_sum  U4Al2Co6
_cell_volume  175.8939199595549
_cell_formula_units_Z  2
loop_
  _symmetry_equiv_pos_site_id
 _symmetry_equiv_pos_as_xyz
 1  'x, y, z'
loop_
 _atom_site_type_symbol
 _atom_site_label
 _atom_site_symmetry_multiplicity
 _atom_site_fract_x
 _atom_site_fract_y
 _atom_site_fract_z
 _atom_site_fract_occupancy
 Al  Al1  1  0.00000  0.00000  0.00000  1
 Al  Al2  1  0.00000  0.00000  0.50000  1
 Co  Co1  1  0.82927  0.17073  0.75000  1
 Co  Co2  1  0.17073  0.34146  0.25000  1
 Co  Co3  1  0.65854  0.82927  0.25000  1
 Co  Co4  1  0.34146  0.17073  0.75000  1
 Co  Co5  1  0.82927  0.65854  0.75000  1
 Co  Co6  1  0.17073  0.82927  0.25000  1
 U  U1  1  0.33333  0.66667  0.92850  1
 U  U2  1  0.66667  0.33333  0.42850  1
 U  U3  1  0.66667  0.33333  0.07150  1
 U  U4  1  0.33333  0.66667  0.57150  1
