CIF file written using JARVIS-Tools package.
data_MgTi4O9
_symmetry_space_group_name_H-M  'P4/n'
_cell_length_a       4.73858
_cell_length_b       7.75347
_cell_length_c       7.75347
_cell_angle_alpha    90
_cell_angle_beta     90
_cell_angle_gamma    90

_symmetry_Int_Tables_number  85
_chemical_formula_structural  MgTi4O9
_chemical_formula_sum  Mg2Ti8O8
_cell_volume  284.86637846257617
_cell_formula_units_Z  2
loop_
  _symmetry_equiv_pos_site_id
 _symmetry_equiv_pos_as_xyz
 1  'x, y, z'
loop_
 _atom_site_type_symbol
 _atom_site_label
 _atom_site_symmetry_multiplicity
 _atom_site_fract_x
 _atom_site_fract_y
 _atom_site_fract_z
 _atom_site_fract_occupancy
 Mg  Mg1  1  0.28011  0.25000  0.25000  1
 Mg  Mg2  1  0.71989  0.75000  0.75000  1
 O  O1  1  0.50000  0.75000  0.25000  1
 O  O2  1  0.50000  0.25000  0.75000  1
 O  O3  1  -0.07826  0.70934  0.00824  1
 O  O4  1  0.43114  0.64681  0.54565  1
 O  O5  1  -0.07826  0.00824  0.79066  1
 O  O6  1  -0.07826  0.79066  0.49176  1
 O  O7  1  0.07827  0.29066  -0.00824  1
 O  O8  1  -0.07826  0.49176  0.70934  1
 O  O9  1  0.07827  -0.00824  0.20934  1
 O  O10  1  0.56885  0.04565  0.35319  1
 O  O11  1  0.56885  0.14681  0.04565  1
 O  O12  1  0.56885  0.35319  0.45435  1
 O  O13  1  0.56885  0.45435  0.14681  1
 O  O14  1  0.43114  0.54565  0.85319  1
 O  O15  1  0.43114  0.85319  0.95435  1
 O  O16  1  0.07827  0.20934  0.50824  1
 O  O17  1  0.07827  0.50824  0.29066  1
 O  O18  1  0.43114  0.95435  0.64681  1
 Ti  Ti1  1  0.27522  0.05823  0.86145  1
 Ti  Ti2  1  0.72479  0.55823  0.36145  1
 Ti  Ti3  1  0.27522  0.86145  0.44177  1
 Ti  Ti4  1  0.72479  0.36145  0.94177  1
 Ti  Ti5  1  0.27522  0.44177  0.63855  1
 Ti  Ti6  1  0.72479  0.94177  0.13855  1
 Ti  Ti7  1  0.72479  0.13855  0.55823  1
 Ti  Ti8  1  0.27522  0.63855  0.05823  1
