CIF file written using JARVIS-Tools package.
data_SrClF
_symmetry_space_group_name_H-M  'P4/nmm'
_cell_length_a       4.12588
_cell_length_b       4.12588
_cell_length_c       6.98093
_cell_angle_alpha    90
_cell_angle_beta     90
_cell_angle_gamma    90

_symmetry_Int_Tables_number  129
_chemical_formula_structural  SrClF
_chemical_formula_sum  Sr2Cl2F2
_cell_volume  118.83560609737944
_cell_formula_units_Z  2
loop_
  _symmetry_equiv_pos_site_id
 _symmetry_equiv_pos_as_xyz
 1  'x, y, z'
loop_
 _atom_site_type_symbol
 _atom_site_label
 _atom_site_symmetry_multiplicity
 _atom_site_fract_x
 _atom_site_fract_y
 _atom_site_fract_z
 _atom_site_fract_occupancy
 Cl  Cl1  1  0.25000  0.25000  0.64391  1
 Cl  Cl2  1  0.75000  0.75000  0.35609  1
 F  F1  1  0.25000  0.75000  0.00000  1
 F  F2  1  0.75000  0.25000  0.00000  1
 Sr  Sr1  1  0.75000  0.75000  0.79750  1
 Sr  Sr2  1  0.25000  0.25000  0.20250  1
