CIF file written using JARVIS-Tools package.
data_NaErPO4F
_symmetry_space_group_name_H-M  'C2/m'
_cell_length_a       5.63492
_cell_length_b       5.63492
_cell_length_c       6.46023
_cell_angle_alpha    77.2018
_cell_angle_beta     77.2017
_cell_angle_gamma    75.5087

_symmetry_Int_Tables_number  12
_chemical_formula_structural  NaErPO4F
_chemical_formula_sum  Na2Er2P2O8F2
_cell_volume  190.64733329776985
_cell_formula_units_Z  2
loop_
  _symmetry_equiv_pos_site_id
 _symmetry_equiv_pos_as_xyz
 1  'x, y, z'
loop_
 _atom_site_type_symbol
 _atom_site_label
 _atom_site_symmetry_multiplicity
 _atom_site_fract_x
 _atom_site_fract_y
 _atom_site_fract_z
 _atom_site_fract_occupancy
 Er  Er1  1  0.28318  0.28318  0.11676  1
 Er  Er2  1  0.71682  0.71682  0.88324  1
 F  F1  1  0.51932  0.51932  0.18927  1
 F  F2  1  0.48068  0.48068  0.81073  1
 Na  Na1  1  0.70537  0.29463  0.50000  1
 Na  Na2  1  0.29463  0.70537  0.50000  1
 O  O1  1  0.98330  0.62897  0.15329  1
 O  O2  1  0.37103  0.01670  0.84671  1
 O  O3  1  0.02036  0.02036  0.27191  1
 O  O4  1  0.97964  0.97964  0.72809  1
 O  O5  1  0.74196  0.74196  0.51043  1
 O  O6  1  0.25804  0.25804  0.48957  1
 O  O7  1  0.01670  0.37103  0.84671  1
 O  O8  1  0.62897  0.98330  0.15329  1
 P  P1  1  0.84695  0.84695  0.27613  1
 P  P2  1  0.15305  0.15305  0.72387  1
