CIF file written using JARVIS-Tools package.
data_VINCl3
_symmetry_space_group_name_H-M  'P-1'
_cell_length_a       5.94783
_cell_length_b       7.69799
_cell_length_c       8.16207
_cell_angle_alpha    62.5327
_cell_angle_beta     85.3475
_cell_angle_gamma    70.2023

_symmetry_Int_Tables_number  2
_chemical_formula_structural  VINCl3
_chemical_formula_sum  V2I2N2Cl6
_cell_volume  310.72025724509143
_cell_formula_units_Z  2
loop_
  _symmetry_equiv_pos_site_id
 _symmetry_equiv_pos_as_xyz
 1  'x, y, z'
loop_
 _atom_site_type_symbol
 _atom_site_label
 _atom_site_symmetry_multiplicity
 _atom_site_fract_x
 _atom_site_fract_y
 _atom_site_fract_z
 _atom_site_fract_occupancy
 Cl  Cl1  1  0.85060  0.66369  0.07280  1
 Cl  Cl2  1  0.77800  0.81567  0.60588  1
 Cl  Cl3  1  0.14940  0.33631  0.92720  1
 Cl  Cl4  1  0.65920  0.27389  0.14204  1
 Cl  Cl5  1  0.22200  0.18433  0.39412  1
 Cl  Cl6  1  0.34080  0.72611  0.85796  1
 I  I1  1  0.71119  0.18233  0.67877  1
 I  I2  1  0.28881  0.81767  0.32123  1
 N  N1  1  0.70740  0.40299  0.73971  1
 N  N2  1  0.29260  0.59701  0.26029  1
 V  V1  1  0.74887  0.52519  0.84926  1
 V  V2  1  0.25113  0.47481  0.15074  1
