CIF file written using JARVIS-Tools package.
data_Ca2PAu
_symmetry_space_group_name_H-M  'Immm'
_cell_length_a       10.7484
_cell_length_b       11.8862
_cell_length_c       11.8862
_cell_angle_alpha    62.0879
_cell_angle_beta     63.1185
_cell_angle_gamma    63.1185

_symmetry_Int_Tables_number  71
_chemical_formula_structural  Ca2PAu
_chemical_formula_sum  Ca2PAu
_cell_volume  1139.8299303319623
_cell_formula_units_Z  1
loop_
  _symmetry_equiv_pos_site_id
 _symmetry_equiv_pos_as_xyz
 1  'x, y, z'
loop_
 _atom_site_type_symbol
 _atom_site_label
 _atom_site_symmetry_multiplicity
 _atom_site_fract_x
 _atom_site_fract_y
 _atom_site_fract_z
 _atom_site_fract_occupancy
 Au  Au1  1  0.50000  0.00000  0.00000  1
 Ca  Ca1  1  0.76787  0.00000  0.00000  1
 Ca  Ca2  1  0.23213  1.00000  1.00000  1
 P  P1  1  0.00000  0.00000  0.00000  1
