CIF file written using JARVIS-Tools package.
data_Li8PbO6
_symmetry_space_group_name_H-M  'R-3'
_cell_length_a       6.15044
_cell_length_b       6.15044
_cell_length_c       6.15044
_cell_angle_alpha    53.6516
_cell_angle_beta     53.6516
_cell_angle_gamma    53.6516

_symmetry_Int_Tables_number  148
_chemical_formula_structural  Li8PbO6
_chemical_formula_sum  Li8PbO6
_cell_volume  140.08903138481537
_cell_formula_units_Z  1
loop_
  _symmetry_equiv_pos_site_id
 _symmetry_equiv_pos_as_xyz
 1  'x, y, z'
loop_
 _atom_site_type_symbol
 _atom_site_label
 _atom_site_symmetry_multiplicity
 _atom_site_fract_x
 _atom_site_fract_y
 _atom_site_fract_z
 _atom_site_fract_occupancy
 Li  Li1  1  0.35043  0.35043  0.35043  1
 Li  Li2  1  0.49193  0.10088  0.77147  1
 Li  Li3  1  0.77147  0.49193  0.10088  1
 Li  Li4  1  0.10088  0.77147  0.49193  1
 Li  Li5  1  0.50807  0.89912  0.22853  1
 Li  Li6  1  0.22853  0.50807  0.89912  1
 Li  Li7  1  0.64957  0.64957  0.64957  1
 Li  Li8  1  0.89912  0.22853  0.50807  1
 O  O1  1  0.24255  0.90038  0.60284  1
 O  O2  1  0.09962  0.39716  0.75745  1
 O  O3  1  0.75745  0.09962  0.39716  1
 O  O4  1  0.60284  0.24255  0.90038  1
 O  O5  1  0.90038  0.60284  0.24255  1
 O  O6  1  0.39716  0.75745  0.09962  1
 Pb  Pb1  1  0.00000  0.00000  0.00000  1
