CIF file written using JARVIS-Tools package.
data_Hf2NiMo
_symmetry_space_group_name_H-M  'C2/m'
_cell_length_a       9.39985
_cell_length_b       7.25695
_cell_length_c       7.25694
_cell_angle_alpha    53.6422
_cell_angle_beta     48.2105
_cell_angle_gamma    48.2104

_symmetry_Int_Tables_number  12
_chemical_formula_structural  Hf2NiMo
_chemical_formula_sum  Hf2NiMo
_cell_volume  265.1602753308307
_cell_formula_units_Z  1
loop_
  _symmetry_equiv_pos_site_id
 _symmetry_equiv_pos_as_xyz
 1  'x, y, z'
loop_
 _atom_site_type_symbol
 _atom_site_label
 _atom_site_symmetry_multiplicity
 _atom_site_fract_x
 _atom_site_fract_y
 _atom_site_fract_z
 _atom_site_fract_occupancy
 Hf  Hf1  1  0.74724  0.00044  0.00044  1
 Hf  Hf2  1  0.25276  0.99956  0.99956  1
 Mo  Mo1  1  0.50000  0.00000  0.00000  1
 Ni  Ni1  1  0.00000  -0.00000  -0.00000  1
