CIF file written using JARVIS-Tools package.
data_ZnCr2F12
_symmetry_space_group_name_H-M  'P-1'
_cell_length_a       5.24793
_cell_length_b       10.5508
_cell_length_c       5.27684
_cell_angle_alpha    55.2871
_cell_angle_beta     55.0449
_cell_angle_gamma    55.4954

_symmetry_Int_Tables_number  2
_chemical_formula_structural  ZnCr2F12
_chemical_formula_sum  ZnCr2F2
_cell_volume  183.9117812006927
_cell_formula_units_Z  1
loop_
  _symmetry_equiv_pos_site_id
 _symmetry_equiv_pos_as_xyz
 1  'x, y, z'
loop_
 _atom_site_type_symbol
 _atom_site_label
 _atom_site_symmetry_multiplicity
 _atom_site_fract_x
 _atom_site_fract_y
 _atom_site_fract_z
 _atom_site_fract_occupancy
 Cr  Cr1  1  0.49505  0.23696  0.51991  1
 Cr  Cr2  1  0.50495  0.76304  0.48009  1
 F  F1  1  0.12027  0.20647  0.72895  1
 F  F2  1  0.13331  0.70327  0.72872  1
 F  F3  1  0.40332  0.36459  0.13365  1
 F  F4  1  0.41795  0.86449  0.12422  1
 F  F5  1  0.72694  0.06404  0.41268  1
 F  F6  1  0.72984  0.56636  0.40277  1
 F  F7  1  0.27016  0.43364  0.59723  1
 F  F8  1  0.27306  0.93596  0.58732  1
 F  F9  1  0.58205  0.13551  0.87578  1
 F  F10  1  0.59668  0.63541  0.86635  1
 F  F11  1  0.86669  0.29673  0.27128  1
 F  F12  1  0.87973  0.79353  0.27105  1
 Zn  Zn1  1  -0.00000  0.50000  -0.00000  1
