CIF file written using JARVIS-Tools package.
data_CaGe2O5
_symmetry_space_group_name_H-M  'C2/c'
_cell_length_a       5.54279
_cell_length_b       5.54279
_cell_length_c       6.94452
_cell_angle_alpha    103.502
_cell_angle_beta     103.502
_cell_angle_gamma    106.855

_symmetry_Int_Tables_number  15
_chemical_formula_structural  CaGe2O5
_chemical_formula_sum  Ca2Ge4O0
_cell_volume  187.8571708589979
_cell_formula_units_Z  2
loop_
  _symmetry_equiv_pos_site_id
 _symmetry_equiv_pos_as_xyz
 1  'x, y, z'
loop_
 _atom_site_type_symbol
 _atom_site_label
 _atom_site_symmetry_multiplicity
 _atom_site_fract_x
 _atom_site_fract_y
 _atom_site_fract_z
 _atom_site_fract_occupancy
 Ca  Ca1  1  0.33007  0.66993  0.75000  1
 Ca  Ca2  1  0.66993  0.33007  0.25000  1
 Ge  Ge1  1  0.31540  0.68460  0.25000  1
 Ge  Ge2  1  0.68460  0.31540  0.75000  1
 Ge  Ge3  1  0.00000  0.00000  0.00000  1
 Ge  Ge4  1  -0.00000  -0.00000  0.50000  1
 O  O1  1  0.68981  0.09418  0.89799  1
 O  O2  1  0.90582  0.31019  0.60201  1
 O  O3  1  0.31019  0.90582  0.10201  1
 O  O4  1  0.09418  0.68981  0.39799  1
 O  O5  1  0.24932  0.36769  0.06945  1
 O  O6  1  0.63231  0.75068  0.43055  1
 O  O7  1  0.07161  0.92839  0.75000  1
 O  O8  1  0.92839  0.07161  0.25000  1
 O  O9  1  0.36769  0.24932  0.56945  1
 O  O10  1  0.75068  0.63231  0.93055  1
