CIF file written using JARVIS-Tools package.
data_NaIn2Pb
_symmetry_space_group_name_H-M  'Immm'
_cell_length_a       13.4738
_cell_length_b       8.23708
_cell_length_c       8.24137
_cell_angle_alpha    40.9579
_cell_angle_beta     23.0728
_cell_angle_gamma    23.0955

_symmetry_Int_Tables_number  71
_chemical_formula_structural  NaIn2Pb
_chemical_formula_sum  NaIn2Pb
_cell_volume  113.2736743185754
_cell_formula_units_Z  1
loop_
  _symmetry_equiv_pos_site_id
 _symmetry_equiv_pos_as_xyz
 1  'x, y, z'
loop_
 _atom_site_type_symbol
 _atom_site_label
 _atom_site_symmetry_multiplicity
 _atom_site_fract_x
 _atom_site_fract_y
 _atom_site_fract_z
 _atom_site_fract_occupancy
 In  In1  1  0.77320  0.98451  0.98449  1
 In  In2  1  0.22680  0.01549  0.01550  1
 Na  Na1  1  0.00000  0.00000  0.00000  1
 Pb  Pb1  1  0.50000  -0.00000  0.00000  1
