CIF file written using JARVIS-Tools package.
data_Hf2MoPt
_symmetry_space_group_name_H-M  'Immm'
_cell_length_a       9.79194
_cell_length_b       10.8141
_cell_length_c       10.8141
_cell_angle_alpha    61.9821
_cell_angle_beta     63.0798
_cell_angle_gamma    63.0799

_symmetry_Int_Tables_number  71
_chemical_formula_structural  Hf2MoPt
_chemical_formula_sum  Hf2MoPt
_cell_volume  858.4273337336591
_cell_formula_units_Z  1
loop_
  _symmetry_equiv_pos_site_id
 _symmetry_equiv_pos_as_xyz
 1  'x, y, z'
loop_
 _atom_site_type_symbol
 _atom_site_label
 _atom_site_symmetry_multiplicity
 _atom_site_fract_x
 _atom_site_fract_y
 _atom_site_fract_z
 _atom_site_fract_occupancy
 Hf  Hf1  1  0.75718  1.00000  1.00000  1
 Hf  Hf2  1  0.24282  0.00000  0.00000  1
 Mo  Mo1  1  0.00000  -0.00000  -0.00000  1
 Pt  Pt1  1  0.50000  0.00000  0.00000  1
