CIF file written using JARVIS-Tools package.
data_Rb6C5
_symmetry_space_group_name_H-M  'P-62m'
_cell_length_a       7.67526
_cell_length_b       7.67526
_cell_length_c       7.73342
_cell_angle_alpha    90
_cell_angle_beta     90
_cell_angle_gamma    120

_symmetry_Int_Tables_number  189
_chemical_formula_structural  Rb6C5
_chemical_formula_sum  Rb6C5
_cell_volume  394.53767670686017
_cell_formula_units_Z  1
loop_
  _symmetry_equiv_pos_site_id
 _symmetry_equiv_pos_as_xyz
 1  'x, y, z'
loop_
 _atom_site_type_symbol
 _atom_site_label
 _atom_site_symmetry_multiplicity
 _atom_site_fract_x
 _atom_site_fract_y
 _atom_site_fract_z
 _atom_site_fract_occupancy
 C  C1  1  0.33333  0.66667  0.76170  1
 C  C2  1  0.00000  0.00000  0.50000  1
 C  C3  1  0.66667  0.33333  0.23830  1
 C  C4  1  0.66667  0.33333  0.76170  1
 C  C5  1  0.33333  0.66667  0.23830  1
 Rb  Rb1  1  0.38907  0.38907  0.50000  1
 Rb  Rb2  1  0.61093  0.00000  0.50000  1
 Rb  Rb3  1  0.65358  0.65358  0.00000  1
 Rb  Rb4  1  0.34642  0.00000  0.00000  1
 Rb  Rb5  1  0.00000  0.34642  0.00000  1
 Rb  Rb6  1  0.00000  0.61093  0.50000  1
