CIF file written using JARVIS-Tools package.
data_K2S5
_symmetry_space_group_name_H-M  'P2_12_12_1'
_cell_length_a       6.61253
_cell_length_b       6.40277
_cell_length_c       17.0276
_cell_angle_alpha    90
_cell_angle_beta     90
_cell_angle_gamma    90

_symmetry_Int_Tables_number  19
_chemical_formula_structural  K2S5
_chemical_formula_sum  K8S20
_cell_volume  720.9212823839323
_cell_formula_units_Z  4
loop_
  _symmetry_equiv_pos_site_id
 _symmetry_equiv_pos_as_xyz
 1  'x, y, z'
loop_
 _atom_site_type_symbol
 _atom_site_label
 _atom_site_symmetry_multiplicity
 _atom_site_fract_x
 _atom_site_fract_y
 _atom_site_fract_z
 _atom_site_fract_occupancy
 K  K1  1  0.00662  0.33019  0.41188  1
 K  K2  1  0.99338  0.83019  0.08812  1
 K  K3  1  0.50662  0.16981  0.58812  1
 K  K4  1  0.49338  0.66981  0.91188  1
 K  K5  1  0.16514  0.86790  0.73828  1
 K  K6  1  0.83486  0.36790  0.76172  1
 K  K7  1  0.66514  0.63210  0.26172  1
 K  K8  1  0.33486  0.13210  0.23828  1
 S  S1  1  0.59193  0.99286  0.40049  1
 S  S2  1  0.13393  0.19787  0.94958  1
 S  S3  1  0.09193  0.50714  0.59951  1
 S  S4  1  0.00432  0.19648  0.59157  1
 S  S5  1  0.50432  0.30352  0.40843  1
 S  S6  1  0.99568  0.69648  0.90843  1
 S  S7  1  0.40807  0.49286  0.09951  1
 S  S8  1  0.49568  0.80352  0.09157  1
 S  S9  1  0.90807  0.00714  0.90049  1
 S  S10  1  0.63393  0.30213  0.05042  1
 S  S11  1  0.38745  0.17734  0.87543  1
 S  S12  1  0.33387  0.33978  0.77260  1
 S  S13  1  0.83387  0.16022  0.22740  1
 S  S14  1  0.61255  0.67734  0.62457  1
 S  S15  1  0.36607  0.80213  0.44958  1
 S  S16  1  0.11255  0.82266  0.37543  1
 S  S17  1  0.88745  0.32266  0.12457  1
 S  S18  1  0.66613  0.83978  0.72740  1
 S  S19  1  0.16613  0.66022  0.27260  1
 S  S20  1  0.86607  0.69787  0.55042  1
