CIF file written using JARVIS-Tools package.
data_Ag2HgS2
_symmetry_space_group_name_H-M  'P2_1/c'
_cell_length_a       4.17828
_cell_length_b       7.94284
_cell_length_c       6.72523
_cell_angle_alpha    90
_cell_angle_beta     109.932
_cell_angle_gamma    90

_symmetry_Int_Tables_number  14
_chemical_formula_structural  Ag2HgS2
_chemical_formula_sum  Ag4Hg2S4
_cell_volume  209.82318178394513
_cell_formula_units_Z  2
loop_
  _symmetry_equiv_pos_site_id
 _symmetry_equiv_pos_as_xyz
 1  'x, y, z'
loop_
 _atom_site_type_symbol
 _atom_site_label
 _atom_site_symmetry_multiplicity
 _atom_site_fract_x
 _atom_site_fract_y
 _atom_site_fract_z
 _atom_site_fract_occupancy
 Ag  Ag1  1  0.38733  0.14949  0.59923  1
 Ag  Ag2  1  0.61267  0.64949  0.90077  1
 Ag  Ag3  1  0.38733  0.35051  0.09923  1
 Ag  Ag4  1  0.61267  0.85051  0.40077  1
 Hg  Hg1  1  0.00000  0.50000  0.50000  1
 Hg  Hg2  1  0.00000  0.00000  0.00000  1
 S  S1  1  0.18904  0.87388  0.73082  1
 S  S2  1  0.81096  0.37388  0.76918  1
 S  S3  1  0.81096  0.12612  0.26918  1
 S  S4  1  0.18904  0.62612  0.23082  1
