CIF file written using JARVIS-Tools package.
data_Y2AgHg
_symmetry_space_group_name_H-M  'P-1'
_cell_length_a       16.9175
_cell_length_b       14.1263
_cell_length_c       12.7791
_cell_angle_alpha    22.143
_cell_angle_beta     13.3766
_cell_angle_gamma    10.9938

_symmetry_Int_Tables_number  2
_chemical_formula_structural  Y2AgHg
_chemical_formula_sum  Y2AgHg
_cell_volume  102.150680037572
_cell_formula_units_Z  1
loop_
  _symmetry_equiv_pos_site_id
 _symmetry_equiv_pos_as_xyz
 1  'x, y, z'
loop_
 _atom_site_type_symbol
 _atom_site_label
 _atom_site_symmetry_multiplicity
 _atom_site_fract_x
 _atom_site_fract_y
 _atom_site_fract_z
 _atom_site_fract_occupancy
 Ag  Ag1  1  0.00000  0.00000  0.00000  1
 Hg  Hg1  1  0.50000  -0.00000  -0.00000  1
 Y  Y1  1  0.44410  0.20272  0.10367  1
 Y  Y2  1  0.55590  0.79728  0.89633  1
