CIF file written using JARVIS-Tools package.
data_Mg2Ti3O8
_symmetry_space_group_name_H-M  'C2/m'
_cell_length_a       4.95983
_cell_length_b       5.96331
_cell_length_c       5.99683
_cell_angle_alpha    119.815
_cell_angle_beta     108.323
_cell_angle_gamma    90

_symmetry_Int_Tables_number  12
_chemical_formula_structural  Mg2Ti3O8
_chemical_formula_sum  Mg2Ti3O8
_cell_volume  143.43360307266983
_cell_formula_units_Z  1
loop_
  _symmetry_equiv_pos_site_id
 _symmetry_equiv_pos_as_xyz
 1  'x, y, z'
loop_
 _atom_site_type_symbol
 _atom_site_label
 _atom_site_symmetry_multiplicity
 _atom_site_fract_x
 _atom_site_fract_y
 _atom_site_fract_z
 _atom_site_fract_occupancy
 Mg  Mg1  1  0.65286  0.72371  0.44743  1
 Mg  Mg2  1  0.34713  0.27629  0.55257  1
 O  O1  1  0.07994  0.39403  0.78806  1
 O  O2  1  0.92006  0.60597  0.21194  1
 O  O3  1  0.08055  0.89152  0.78303  1
 O  O4  1  0.91945  0.10848  0.21697  1
 O  O5  1  0.40651  0.34160  0.23120  1
 O  O6  1  0.40651  0.88960  0.23120  1
 O  O7  1  0.59349  0.11040  0.76880  1
 O  O8  1  0.59349  0.65840  0.76880  1
 Ti  Ti1  1  0.50000  1.00000  -0.00000  1
 Ti  Ti2  1  1.00000  0.73287  0.00000  1
 Ti  Ti3  1  1.00000  0.26713  -0.00000  1
