CIF file written using JARVIS-Tools package.
data_Rb3TaO8
_symmetry_space_group_name_H-M  'I-42m'
_cell_length_a       6.41843
_cell_length_b       6.41844
_cell_length_c       6.41844
_cell_angle_alpha    103.035
_cell_angle_beta     112.782
_cell_angle_gamma    112.782

_symmetry_Int_Tables_number  121
_chemical_formula_structural  Rb3TaO8
_chemical_formula_sum  Rb3TaO8
_cell_volume  201.6507730448501
_cell_formula_units_Z  1
loop_
  _symmetry_equiv_pos_site_id
 _symmetry_equiv_pos_as_xyz
 1  'x, y, z'
loop_
 _atom_site_type_symbol
 _atom_site_label
 _atom_site_symmetry_multiplicity
 _atom_site_fract_x
 _atom_site_fract_y
 _atom_site_fract_z
 _atom_site_fract_occupancy
 O  O1  1  0.58715  0.81172  0.81172  1
 O  O2  1  -0.00000  0.18828  0.77543  1
 O  O3  1  0.00000  0.77543  0.18828  1
 O  O4  1  0.41285  0.22457  0.22457  1
 O  O5  1  0.27179  0.32250  0.32250  1
 O  O6  1  -0.00000  0.67750  0.94929  1
 O  O7  1  -0.00000  0.94929  0.67750  1
 O  O8  1  0.72821  0.05071  0.05071  1
 Rb  Rb1  1  -0.00000  0.50000  0.50000  1
 Rb  Rb2  1  0.50000  0.25000  0.75000  1
 Rb  Rb3  1  0.50000  0.75000  0.25000  1
 Ta  Ta1  1  0.00000  0.00000  0.00000  1
