CIF file written using JARVIS-Tools package.
data_BaFeF4
_symmetry_space_group_name_H-M  'Cmc2_1'
_cell_length_a       4.30739
_cell_length_b       5.80324
_cell_length_c       7.69293
_cell_angle_alpha    90
_cell_angle_beta     106.258
_cell_angle_gamma    90

_symmetry_Int_Tables_number  36
_chemical_formula_structural  BaFeF4
_chemical_formula_sum  Ba2Fe2F8
_cell_volume  184.6095730991431
_cell_formula_units_Z  2
loop_
  _symmetry_equiv_pos_site_id
 _symmetry_equiv_pos_as_xyz
 1  'x, y, z'
loop_
 _atom_site_type_symbol
 _atom_site_label
 _atom_site_symmetry_multiplicity
 _atom_site_fract_x
 _atom_site_fract_y
 _atom_site_fract_z
 _atom_site_fract_occupancy
 Ba  Ba1  1  0.85241  0.96988  0.70481  1
 Ba  Ba2  1  0.14759  0.46988  0.29519  1
 F  F1  1  0.91971  0.50831  0.83942  1
 F  F2  1  0.08029  0.00831  0.16058  1
 F  F3  1  0.46912  0.84275  0.93823  1
 F  F4  1  0.53088  0.34275  0.06177  1
 F  F5  1  0.69990  0.21204  0.39979  1
 F  F6  1  0.30010  0.71204  0.60021  1
 F  F7  1  0.67322  0.73367  0.34644  1
 F  F8  1  0.32678  0.23367  0.65356  1
 Fe  Fe1  1  0.41142  0.50575  0.82283  1
 Fe  Fe2  1  0.58858  0.00575  0.17717  1
