CIF file written using JARVIS-Tools package.
data_Mg2FeN2
_symmetry_space_group_name_H-M  'C2/m'
_cell_length_a       4.29601
_cell_length_b       5.46145
_cell_length_c       6.2109
_cell_angle_alpha    63.6782
_cell_angle_beta     69.7665
_cell_angle_gamma    66.8399

_symmetry_Int_Tables_number  12
_chemical_formula_structural  Mg2FeN2
_chemical_formula_sum  Mg4Fe2N4
_cell_volume  117.45993804692864
_cell_formula_units_Z  2
loop_
  _symmetry_equiv_pos_site_id
 _symmetry_equiv_pos_as_xyz
 1  'x, y, z'
loop_
 _atom_site_type_symbol
 _atom_site_label
 _atom_site_symmetry_multiplicity
 _atom_site_fract_x
 _atom_site_fract_y
 _atom_site_fract_z
 _atom_site_fract_occupancy
 Fe  Fe1  1  0.36861  0.13877  0.12401  1
 Fe  Fe2  1  0.63139  0.86123  0.87599  1
 Mg  Mg1  1  0.67648  0.24067  0.40638  1
 Mg  Mg2  1  0.32352  0.75933  0.59362  1
 Mg  Mg3  1  0.02849  0.69336  0.24966  1
 Mg  Mg4  1  0.97151  0.30664  0.75034  1
 N  N1  1  0.18041  0.24544  0.39375  1
 N  N2  1  0.81959  0.75456  0.60625  1
 N  N3  1  0.47703  0.26004  0.78590  1
 N  N4  1  0.52297  0.73996  0.21410  1
