CIF file written using JARVIS-Tools package.
data_Li8Bi2PdO10
_symmetry_space_group_name_H-M  'C2/m'
_cell_length_a       4.26888
_cell_length_b       5.31295
_cell_length_c       11.1141
_cell_angle_alpha    76.344
_cell_angle_beta     78.9277
_cell_angle_gamma    66.3128

_symmetry_Int_Tables_number  12
_chemical_formula_structural  Li8Bi2PdO10
_chemical_formula_sum  Li8Bi2PdO0
_cell_volume  222.9678683530318
_cell_formula_units_Z  1
loop_
  _symmetry_equiv_pos_site_id
 _symmetry_equiv_pos_as_xyz
 1  'x, y, z'
loop_
 _atom_site_type_symbol
 _atom_site_label
 _atom_site_symmetry_multiplicity
 _atom_site_fract_x
 _atom_site_fract_y
 _atom_site_fract_z
 _atom_site_fract_occupancy
 Bi  Bi1  1  0.18545  0.91018  0.71893  1
 Bi  Bi2  1  0.81455  0.08982  0.28107  1
 Li  Li1  1  0.62043  0.22235  0.53679  1
 Li  Li2  1  0.24997  0.40760  0.09245  1
 Li  Li3  1  0.07960  0.45423  0.38658  1
 Li  Li4  1  0.92040  0.54577  0.61342  1
 Li  Li5  1  0.75003  0.59240  0.90755  1
 Li  Li6  1  0.37957  0.77765  0.46321  1
 Li  Li7  1  0.54561  0.71209  0.19668  1
 Li  Li8  1  0.45439  0.28791  0.80332  1
 O  O1  1  0.13115  0.18799  0.54970  1
 O  O2  1  0.03781  0.75551  0.16888  1
 O  O3  1  0.21156  0.66534  0.91155  1
 O  O4  1  0.59401  0.45220  0.35977  1
 O  O5  1  0.78844  0.33466  0.08845  1
 O  O6  1  0.32625  0.09181  0.25569  1
 O  O7  1  0.67375  0.90819  0.74431  1
 O  O8  1  0.96219  0.24449  0.83112  1
 O  O9  1  0.86885  0.81201  0.45030  1
 O  O10  1  0.40599  0.54780  0.64023  1
 Pd  Pd1  1  0.00000  0.00000  0.00000  1
