CIF file written using JARVIS-Tools package.
data_BePRu2
_symmetry_space_group_name_H-M  'Immm'
_cell_length_a       12.3329
_cell_length_b       7.19689
_cell_length_c       7.19689
_cell_angle_alpha    25.1529
_cell_angle_beta     16.5051
_cell_angle_gamma    16.505

_symmetry_Int_Tables_number  71
_chemical_formula_structural  BePRu2
_chemical_formula_sum  BePRu2
_cell_volume  50.76409503700414
_cell_formula_units_Z  1
loop_
  _symmetry_equiv_pos_site_id
 _symmetry_equiv_pos_as_xyz
 1  'x, y, z'
loop_
 _atom_site_type_symbol
 _atom_site_label
 _atom_site_symmetry_multiplicity
 _atom_site_fract_x
 _atom_site_fract_y
 _atom_site_fract_z
 _atom_site_fract_occupancy
 Be  Be1  1  0.00000  0.00000  0.00000  1
 P  P1  1  0.50000  -0.00000  -0.00000  1
 Ru  Ru1  1  0.52699  0.14867  0.14867  1
 Ru  Ru2  1  0.47301  0.85133  0.85133  1
