CIF file written using JARVIS-Tools package.
data_LuCu2O4
_symmetry_space_group_name_H-M  'I4_1/a'
_cell_length_a       5.58354
_cell_length_b       6.19734
_cell_length_c       6.19735
_cell_angle_alpha    100.852
_cell_angle_beta     63.2276
_cell_angle_gamma    63.2276

_symmetry_Int_Tables_number  88
_chemical_formula_structural  LuCu2O4
_chemical_formula_sum  Lu2Cu4O8
_cell_volume  148.9366635399252
_cell_formula_units_Z  2
loop_
  _symmetry_equiv_pos_site_id
 _symmetry_equiv_pos_as_xyz
 1  'x, y, z'
loop_
 _atom_site_type_symbol
 _atom_site_label
 _atom_site_symmetry_multiplicity
 _atom_site_fract_x
 _atom_site_fract_y
 _atom_site_fract_z
 _atom_site_fract_occupancy
 Cu  Cu1  1  0.00000  0.50000  -0.00000  1
 Cu  Cu2  1  0.50000  0.50000  -0.00000  1
 Cu  Cu3  1  0.00000  0.50000  0.50000  1
 Cu  Cu4  1  0.50000  -0.00000  0.00000  1
 Lu  Lu1  1  0.25000  0.87500  0.62500  1
 Lu  Lu2  1  0.75000  0.12500  0.37500  1
 O  O1  1  0.10080  0.72765  0.37085  1
 O  O2  1  0.60080  0.87085  0.22765  1
 O  O3  1  0.19935  0.52831  0.67151  1
 O  O4  1  0.69935  0.17151  0.02831  1
 O  O5  1  0.30065  0.82849  0.97169  1
 O  O6  1  0.80065  0.47169  0.32849  1
 O  O7  1  0.39920  0.12915  0.77235  1
 O  O8  1  0.89920  0.27235  0.62915  1
