CIF file written using JARVIS-Tools package.
data_MgBiAsO6
_symmetry_space_group_name_H-M  'P2_1/m'
_cell_length_a       6.35872
_cell_length_b       5.67585
_cell_length_c       7.51734
_cell_angle_alpha    90
_cell_angle_beta     118.189
_cell_angle_gamma    90

_symmetry_Int_Tables_number  11
_chemical_formula_structural  MgBiAsO6
_chemical_formula_sum  Mg2Bi2As2O2
_cell_volume  239.1299460464432
_cell_formula_units_Z  2
loop_
  _symmetry_equiv_pos_site_id
 _symmetry_equiv_pos_as_xyz
 1  'x, y, z'
loop_
 _atom_site_type_symbol
 _atom_site_label
 _atom_site_symmetry_multiplicity
 _atom_site_fract_x
 _atom_site_fract_y
 _atom_site_fract_z
 _atom_site_fract_occupancy
 As  As1  1  0.40131  0.25000  0.14611  1
 As  As2  1  0.59869  0.75000  0.85389  1
 Bi  Bi1  1  0.21790  0.25000  0.57957  1
 Bi  Bi2  1  0.78210  0.75000  0.42043  1
 Mg  Mg1  1  0.13856  0.75000  0.94532  1
 Mg  Mg2  1  0.86144  0.25000  0.05468  1
 O  O1  1  0.76873  -0.01764  0.85005  1
 O  O2  1  0.66698  0.25000  0.37863  1
 O  O3  1  0.23127  0.01764  0.14995  1
 O  O4  1  0.48537  0.25000  -0.03927  1
 O  O5  1  0.93725  0.02566  0.30268  1
 O  O6  1  0.51463  0.75000  0.03927  1
 O  O7  1  0.93725  0.47434  0.30268  1
 O  O8  1  0.23127  0.48236  0.14995  1
 O  O9  1  0.06275  0.52566  0.69732  1
 O  O10  1  0.76873  0.51764  0.85005  1
 O  O11  1  0.06275  0.97434  0.69732  1
 O  O12  1  0.33302  0.75000  0.62137  1
