CIF file written using JARVIS-Tools package.
data_ScCu2Hg
_symmetry_space_group_name_H-M  'Immm'
_cell_length_a       10.4327
_cell_length_b       9.3191
_cell_length_c       9.31928
_cell_angle_alpha    56.2733
_cell_angle_beta     55.9612
_cell_angle_gamma    55.9629

_symmetry_Int_Tables_number  71
_chemical_formula_structural  ScCu2Hg
_chemical_formula_sum  ScCu2Hg
_cell_volume  582.2849532287422
_cell_formula_units_Z  1
loop_
  _symmetry_equiv_pos_site_id
 _symmetry_equiv_pos_as_xyz
 1  'x, y, z'
loop_
 _atom_site_type_symbol
 _atom_site_label
 _atom_site_symmetry_multiplicity
 _atom_site_fract_x
 _atom_site_fract_y
 _atom_site_fract_z
 _atom_site_fract_occupancy
 Cu  Cu1  1  0.75393  1.00000  0.00000  1
 Cu  Cu2  1  0.24607  0.00000  1.00000  1
 Hg  Hg1  1  0.50000  -0.00000  -0.00000  1
 Sc  Sc1  1  0.00000  0.00000  0.00000  1
