CIF file written using JARVIS-Tools package.
data_Te8MoW3
_symmetry_space_group_name_H-M  'P3m1'
_cell_length_a       3.56974
_cell_length_b       3.56972
_cell_length_c       38.0508
_cell_angle_alpha    90.0007
_cell_angle_beta     90
_cell_angle_gamma    120

_symmetry_Int_Tables_number  156
_chemical_formula_structural  Te8MoW3
_chemical_formula_sum  Te8MoW3
_cell_volume  419.917624025954
_cell_formula_units_Z  1
loop_
  _symmetry_equiv_pos_site_id
 _symmetry_equiv_pos_as_xyz
 1  'x, y, z'
loop_
 _atom_site_type_symbol
 _atom_site_label
 _atom_site_symmetry_multiplicity
 _atom_site_fract_x
 _atom_site_fract_y
 _atom_site_fract_z
 _atom_site_fract_occupancy
 Mo  Mo1  1  0.66668  0.33337  0.28198  1
 Te  Te1  1  0.33335  0.66670  0.32959  1
 Te  Te2  1  0.33335  0.66671  0.70469  1
 Te  Te3  1  0.66665  0.33330  0.04689  1
 Te  Te4  1  0.66665  0.33330  0.42158  1
 Te  Te5  1  0.66665  0.33329  0.14238  1
 Te  Te6  1  0.66666  0.33332  0.51712  1
 Te  Te7  1  0.33335  0.66669  0.23438  1
 Te  Te8  1  0.33334  0.66668  0.60920  1
 W  W1  1  0.33331  0.66662  0.09459  1
 W  W2  1  0.33332  0.66664  0.46936  1
 W  W3  1  0.66668  0.33337  0.65699  1
