CIF file written using JARVIS-Tools package.
data_NiHO2
_symmetry_space_group_name_H-M  'P3m1'
_cell_length_a       2.94374
_cell_length_b       2.94376
_cell_length_c       4.43297
_cell_angle_alpha    90
_cell_angle_beta     89.9923
_cell_angle_gamma    120

_symmetry_Int_Tables_number  156
_chemical_formula_structural  NiHO2
_chemical_formula_sum  NiHO2
_cell_volume  33.267975141793094
_cell_formula_units_Z  1
loop_
  _symmetry_equiv_pos_site_id
 _symmetry_equiv_pos_as_xyz
 1  'x, y, z'
loop_
 _atom_site_type_symbol
 _atom_site_label
 _atom_site_symmetry_multiplicity
 _atom_site_fract_x
 _atom_site_fract_y
 _atom_site_fract_z
 _atom_site_fract_occupancy
 H  H1  1  0.66678  0.33339  0.54849  1
 Ni  Ni1  1  0.99994  0.99997  0.99862  1
 O  O1  1  0.33321  0.66661  0.21077  1
 O  O2  1  0.66667  0.33334  0.77208  1
