CIF file written using JARVIS-Tools package.
data_Li2UI6
_symmetry_space_group_name_H-M  'P-31c'
_cell_length_a       7.36474
_cell_length_b       7.36474
_cell_length_c       13.8166
_cell_angle_alpha    90
_cell_angle_beta     90
_cell_angle_gamma    120

_symmetry_Int_Tables_number  163
_chemical_formula_structural  Li2UI6
_chemical_formula_sum  Li4U2I2
_cell_volume  649.0044234620067
_cell_formula_units_Z  2
loop_
  _symmetry_equiv_pos_site_id
 _symmetry_equiv_pos_as_xyz
 1  'x, y, z'
loop_
 _atom_site_type_symbol
 _atom_site_label
 _atom_site_symmetry_multiplicity
 _atom_site_fract_x
 _atom_site_fract_y
 _atom_site_fract_z
 _atom_site_fract_occupancy
 I  I1  1  0.66858  0.66678  0.12476  1
 I  I2  1  0.33322  0.00180  0.12476  1
 I  I3  1  0.00180  0.33322  0.62476  1
 I  I4  1  0.66858  0.00180  0.37524  1
 I  I5  1  0.66678  -0.00180  0.87524  1
 I  I6  1  0.66678  0.66858  0.62476  1
 I  I7  1  -0.00180  0.66678  0.37524  1
 I  I8  1  0.33142  0.33322  0.87524  1
 I  I9  1  0.33142  -0.00180  0.62476  1
 I  I10  1  0.00180  0.66858  0.87524  1
 I  I11  1  -0.00180  0.33142  0.12476  1
 I  I12  1  0.33322  0.33142  0.37524  1
 Li  Li1  1  0.00000  0.00000  0.75000  1
 Li  Li2  1  0.00000  0.00000  0.25000  1
 Li  Li3  1  0.33333  0.66667  0.75000  1
 Li  Li4  1  0.66667  0.33333  0.25000  1
 U  U1  1  0.33333  0.66667  0.25000  1
 U  U2  1  0.66667  0.33333  0.75000  1
