CIF file written using JARVIS-Tools package.
data_LiCoNiO4
_symmetry_space_group_name_H-M  'Imma'
_cell_length_a       5.70081
_cell_length_b       5.67593
_cell_length_c       5.67593
_cell_angle_alpha    59.9081
_cell_angle_beta     59.855
_cell_angle_gamma    59.855

_symmetry_Int_Tables_number  74
_chemical_formula_structural  LiCoNiO4
_chemical_formula_sum  Li2Co2Ni2O8
_cell_volume  129.49084156338958
_cell_formula_units_Z  2
loop_
  _symmetry_equiv_pos_site_id
 _symmetry_equiv_pos_as_xyz
 1  'x, y, z'
loop_
 _atom_site_type_symbol
 _atom_site_label
 _atom_site_symmetry_multiplicity
 _atom_site_fract_x
 _atom_site_fract_y
 _atom_site_fract_z
 _atom_site_fract_occupancy
 Co  Co1  1  0.50000  0.00000  0.50000  1
 Co  Co2  1  0.50000  0.50000  -0.00000  1
 Li  Li1  1  0.12116  0.12884  0.12884  1
 Li  Li2  1  0.87884  0.87116  0.87116  1
 Ni  Ni1  1  0.00000  0.50000  0.50000  1
 Ni  Ni2  1  0.50000  0.50000  0.50000  1
 O  O1  1  0.26533  0.26357  0.26357  1
 O  O2  1  0.26357  0.26334  0.70953  1
 O  O3  1  0.26357  0.70953  0.26334  1
 O  O4  1  0.70754  0.26357  0.26357  1
 O  O5  1  0.29246  0.73643  0.73643  1
 O  O6  1  0.73643  0.73666  0.29047  1
 O  O7  1  0.73643  0.29047  0.73666  1
 O  O8  1  0.73467  0.73643  0.73643  1
