CIF file written using JARVIS-Tools package.
data_P2Ir
_symmetry_space_group_name_H-M  'P2_1/c'
_cell_length_a       5.82335
_cell_length_b       5.85848
_cell_length_c       5.92305
_cell_angle_alpha    90
_cell_angle_beta     111.307
_cell_angle_gamma    90

_symmetry_Int_Tables_number  14
_chemical_formula_structural  P2Ir
_chemical_formula_sum  P8Ir4
_cell_volume  188.25877119377907
_cell_formula_units_Z  4
loop_
  _symmetry_equiv_pos_site_id
 _symmetry_equiv_pos_as_xyz
 1  'x, y, z'
loop_
 _atom_site_type_symbol
 _atom_site_label
 _atom_site_symmetry_multiplicity
 _atom_site_fract_x
 _atom_site_fract_y
 _atom_site_fract_z
 _atom_site_fract_occupancy
 Ir  Ir1  1  0.72845  0.50092  0.20900  1
 Ir  Ir2  1  0.27155  0.00092  0.29100  1
 Ir  Ir3  1  0.27155  0.49908  0.79100  1
 Ir  Ir4  1  0.72845  0.99908  0.70900  1
 P  P1  1  0.84218  0.11882  0.13005  1
 P  P2  1  0.15782  0.61882  0.36995  1
 P  P3  1  0.15782  0.88118  0.86995  1
 P  P4  1  0.84218  0.38118  0.63005  1
 P  P5  1  0.66574  0.62360  0.81198  1
 P  P6  1  0.33426  0.12360  0.68802  1
 P  P7  1  0.33426  0.37640  0.18802  1
 P  P8  1  0.66574  0.87640  0.31198  1
