CIF file written using JARVIS-Tools package.
data_CuAuSe4
_symmetry_space_group_name_H-M  'P2_1/m'
_cell_length_a       4.32934
_cell_length_b       7.56797
_cell_length_c       8.20403
_cell_angle_alpha    90
_cell_angle_beta     92.955
_cell_angle_gamma    90

_symmetry_Int_Tables_number  11
_chemical_formula_structural  CuAuSe4
_chemical_formula_sum  Cu2Au2Se8
_cell_volume  268.4421034485044
_cell_formula_units_Z  2
loop_
  _symmetry_equiv_pos_site_id
 _symmetry_equiv_pos_as_xyz
 1  'x, y, z'
loop_
 _atom_site_type_symbol
 _atom_site_label
 _atom_site_symmetry_multiplicity
 _atom_site_fract_x
 _atom_site_fract_y
 _atom_site_fract_z
 _atom_site_fract_occupancy
 Au  Au1  1  0.50000  0.50000  0.00000  1
 Au  Au2  1  0.50000  0.00000  0.00000  1
 Cu  Cu1  1  0.97886  0.25000  0.34194  1
 Cu  Cu2  1  0.02114  0.75000  0.65806  1
 Se  Se1  1  0.58640  0.00215  0.30637  1
 Se  Se2  1  0.41360  0.50215  0.69363  1
 Se  Se3  1  0.41360  0.99785  0.69363  1
 Se  Se4  1  0.58640  0.49785  0.30637  1
 Se  Se5  1  0.93435  0.75000  0.36494  1
 Se  Se6  1  0.06565  0.25000  0.63506  1
 Se  Se7  1  0.86364  0.75000  0.93781  1
 Se  Se8  1  0.13636  0.25000  0.06219  1
