CIF file written using JARVIS-Tools package.
data_Te2MoWSeS
_symmetry_space_group_name_H-M  'P3m1'
_cell_length_a       3.41015
_cell_length_b       3.41011
_cell_length_c       38.5527
_cell_angle_alpha    90.0001
_cell_angle_beta     90
_cell_angle_gamma    120

_symmetry_Int_Tables_number  156
_chemical_formula_structural  Te2MoWSeS
_chemical_formula_sum  Te4Mo2W2Se2S2
_cell_volume  388.26276106986614
_cell_formula_units_Z  2
loop_
  _symmetry_equiv_pos_site_id
 _symmetry_equiv_pos_as_xyz
 1  'x, y, z'
loop_
 _atom_site_type_symbol
 _atom_site_label
 _atom_site_symmetry_multiplicity
 _atom_site_fract_x
 _atom_site_fract_y
 _atom_site_fract_z
 _atom_site_fract_occupancy
 Mo  Mo1  1  0.33332  0.66664  0.09397  1
 Mo  Mo2  1  0.66668  0.33337  0.65752  1
 S  S1  1  0.66664  0.33328  0.05516  1
 S  S2  1  0.66664  0.33328  0.13291  1
 Se  Se1  1  0.66665  0.33329  0.42677  1
 Se  Se2  1  0.66665  0.33329  0.51260  1
 Te  Te1  1  0.33336  0.66672  0.33066  1
 Te  Te2  1  0.33335  0.66671  0.70594  1
 Te  Te3  1  0.33335  0.66671  0.23285  1
 Te  Te4  1  0.33335  0.66671  0.60896  1
 W  W1  1  0.33332  0.66664  0.46963  1
 W  W2  1  0.66669  0.33337  0.28177  1
