CIF file written using JARVIS-Tools package.
data_Fe3Sn2
_symmetry_space_group_name_H-M  'R-3m'
_cell_length_a       7.26362
_cell_length_b       7.26361
_cell_length_c       7.26361
_cell_angle_alpha    43.0605
_cell_angle_beta     43.0605
_cell_angle_gamma    43.0605

_symmetry_Int_Tables_number  166
_chemical_formula_structural  Fe3Sn2
_chemical_formula_sum  Fe6Sn4
_cell_volume  161.95042739593072
_cell_formula_units_Z  2
loop_
  _symmetry_equiv_pos_site_id
 _symmetry_equiv_pos_as_xyz
 1  'x, y, z'
loop_
 _atom_site_type_symbol
 _atom_site_label
 _atom_site_symmetry_multiplicity
 _atom_site_fract_x
 _atom_site_fract_y
 _atom_site_fract_z
 _atom_site_fract_occupancy
 Fe  Fe1  1  0.60535  0.13027  0.60535  1
 Fe  Fe2  1  0.60535  0.60535  0.13027  1
 Fe  Fe3  1  0.13027  0.60535  0.60535  1
 Fe  Fe4  1  0.86973  0.39465  0.39465  1
 Fe  Fe5  1  0.39465  0.86973  0.39465  1
 Fe  Fe6  1  0.39465  0.39465  0.86973  1
 Sn  Sn1  1  0.10605  0.10605  0.10605  1
 Sn  Sn2  1  0.89395  0.89395  0.89395  1
 Sn  Sn3  1  0.33029  0.33029  0.33029  1
 Sn  Sn4  1  0.66971  0.66971  0.66971  1
