CIF file written using JARVIS-Tools package.
data_MnTc2Mo
_symmetry_space_group_name_H-M  'Immm'
_cell_length_a       10.5216
_cell_length_b       5.8244
_cell_length_c       5.8244
_cell_angle_alpha    27.1454
_cell_angle_beta     25.4139
_cell_angle_gamma    25.4139

_symmetry_Int_Tables_number  71
_chemical_formula_structural  MnTc2Mo
_chemical_formula_sum  MnTc2Mo
_cell_volume  60.193198361589765
_cell_formula_units_Z  1
loop_
  _symmetry_equiv_pos_site_id
 _symmetry_equiv_pos_as_xyz
 1  'x, y, z'
loop_
 _atom_site_type_symbol
 _atom_site_label
 _atom_site_symmetry_multiplicity
 _atom_site_fract_x
 _atom_site_fract_y
 _atom_site_fract_z
 _atom_site_fract_occupancy
 Mn  Mn1  1  0.00000  0.00000  0.00000  1
 Mo  Mo1  1  0.50000  -0.00000  0.00000  1
 Tc  Tc1  1  0.78930  0.00000  -0.00000  1
 Tc  Tc2  1  0.21070  -0.00000  0.00000  1
