CIF file written using JARVIS-Tools package.
data_MgMn2O4
_symmetry_space_group_name_H-M  'C2/m'
_cell_length_a       2.84164
_cell_length_b       7.5768
_cell_length_c       8.10634
_cell_angle_alpha    73.4411
_cell_angle_beta     79.9066
_cell_angle_gamma    79.1927

_symmetry_Int_Tables_number  12
_chemical_formula_structural  MgMn2O4
_chemical_formula_sum  Mg2Mn4O8
_cell_volume  162.94720280155076
_cell_formula_units_Z  2
loop_
  _symmetry_equiv_pos_site_id
 _symmetry_equiv_pos_as_xyz
 1  'x, y, z'
loop_
 _atom_site_type_symbol
 _atom_site_label
 _atom_site_symmetry_multiplicity
 _atom_site_fract_x
 _atom_site_fract_y
 _atom_site_fract_z
 _atom_site_fract_occupancy
 Mg  Mg1  1  0.30948  0.21693  0.16402  1
 Mg  Mg2  1  0.68581  0.81530  0.81302  1
 Mn  Mn1  1  0.60883  0.61856  0.16366  1
 Mn  Mn2  1  0.14524  0.20384  0.50555  1
 Mn  Mn3  1  0.84999  0.82839  0.47150  1
 Mn  Mn4  1  0.38643  0.41367  0.81339  1
 O  O1  1  0.85277  0.57827  0.71606  1
 O  O2  1  0.44206  0.78229  0.33346  1
 O  O3  1  0.55318  0.24995  0.64358  1
 O  O4  1  0.14249  0.45396  0.26098  1
 O  O5  1  0.12526  0.74877  0.00062  1
 O  O6  1  0.75796  0.13064  0.35331  1
 O  O7  1  0.87000  0.28345  0.97643  1
 O  O8  1  0.23729  0.90159  0.62374  1
