CIF file written using JARVIS-Tools package.
data_BaCu2SnSe4
_symmetry_space_group_name_H-M  'Ama2'
_cell_length_a       6.59856
_cell_length_b       6.59856
_cell_length_c       11.2121
_cell_angle_alpha    90
_cell_angle_beta     90
_cell_angle_gamma    117.666

_symmetry_Int_Tables_number  40
_chemical_formula_structural  BaCu2SnSe4
_chemical_formula_sum  Ba2Cu4Sn2Se8
_cell_volume  432.37210213816036
_cell_formula_units_Z  2
loop_
  _symmetry_equiv_pos_site_id
 _symmetry_equiv_pos_as_xyz
 1  'x, y, z'
loop_
 _atom_site_type_symbol
 _atom_site_label
 _atom_site_symmetry_multiplicity
 _atom_site_fract_x
 _atom_site_fract_y
 _atom_site_fract_z
 _atom_site_fract_occupancy
 Ba  Ba1  1  0.63247  0.63247  0.50000  1
 Ba  Ba2  1  0.63247  0.63247  0.00000  1
 Cu  Cu1  1  0.44671  0.01033  0.12949  1
 Cu  Cu2  1  0.44671  0.01033  0.37051  1
 Cu  Cu3  1  0.01033  0.44671  0.62949  1
 Cu  Cu4  1  0.01033  0.44671  0.87051  1
 Se  Se1  1  0.32356  0.44573  0.75000  1
 Se  Se2  1  0.74601  0.96321  0.25000  1
 Se  Se3  1  0.44573  0.32356  0.25000  1
 Se  Se4  1  0.96321  0.74601  0.75000  1
 Se  Se5  1  0.64369  0.13016  0.93117  1
 Se  Se6  1  0.13016  0.64369  0.06883  1
 Se  Se7  1  0.64369  0.13016  0.56883  1
 Se  Se8  1  0.13016  0.64369  0.43117  1
 Sn  Sn1  1  0.07709  0.37694  0.25000  1
 Sn  Sn2  1  0.37694  0.07709  0.75000  1
