CIF file written using JARVIS-Tools package.
data_Yb2Se3
_symmetry_space_group_name_H-M  'Fddd'
_cell_length_a       6.69344
_cell_length_b       6.69343
_cell_length_c       15.1023
_cell_angle_alpha    96.1972
_cell_angle_beta     96.1973
_cell_angle_gamma    120.855

_symmetry_Int_Tables_number  70
_chemical_formula_structural  Yb2Se3
_chemical_formula_sum  Yb8Se2
_cell_volume  566.7910761009929
_cell_formula_units_Z  4
loop_
  _symmetry_equiv_pos_site_id
 _symmetry_equiv_pos_as_xyz
 1  'x, y, z'
loop_
 _atom_site_type_symbol
 _atom_site_label
 _atom_site_symmetry_multiplicity
 _atom_site_fract_x
 _atom_site_fract_y
 _atom_site_fract_z
 _atom_site_fract_occupancy
 Se  Se1  1  0.68918  0.93918  0.25000  1
 Se  Se2  1  0.78299  0.04171  0.58993  1
 Se  Se3  1  0.30694  0.54823  0.58993  1
 Se  Se4  1  0.95829  0.21701  0.91007  1
 Se  Se5  1  0.54823  0.30694  0.08993  1
 Se  Se6  1  0.21701  0.95829  0.41007  1
 Se  Se7  1  0.69306  0.45177  0.41007  1
 Se  Se8  1  0.04171  0.78299  0.08993  1
 Se  Se9  1  0.45177  0.69306  0.91007  1
 Se  Se10  1  0.93918  0.68918  0.75000  1
 Se  Se11  1  0.06082  0.31082  0.25000  1
 Se  Se12  1  0.31082  0.06082  0.75000  1
 Yb  Yb1  1  0.03362  0.78362  0.56725  1
 Yb  Yb2  1  0.62586  0.87586  0.75171  1
 Yb  Yb3  1  0.12414  0.37414  0.74829  1
 Yb  Yb4  1  0.37414  0.12414  0.24829  1
 Yb  Yb5  1  0.87586  0.62586  0.25171  1
 Yb  Yb6  1  0.96638  0.21638  0.43275  1
 Yb  Yb7  1  0.78362  0.03362  0.06725  1
 Yb  Yb8  1  0.21638  0.96638  0.93275  1
