CIF file written using JARVIS-Tools package.
data_MgCr2O4
_symmetry_space_group_name_H-M  'C2/m'
_cell_length_a       2.94184
_cell_length_b       7.37286
_cell_length_c       7.28007
_cell_angle_alpha    78.1154
_cell_angle_beta     78.3415
_cell_angle_gamma    78.4917

_symmetry_Int_Tables_number  12
_chemical_formula_structural  MgCr2O4
_chemical_formula_sum  Mg2Cr4O8
_cell_volume  149.26294636062278
_cell_formula_units_Z  2
loop_
  _symmetry_equiv_pos_site_id
 _symmetry_equiv_pos_as_xyz
 1  'x, y, z'
loop_
 _atom_site_type_symbol
 _atom_site_label
 _atom_site_symmetry_multiplicity
 _atom_site_fract_x
 _atom_site_fract_y
 _atom_site_fract_z
 _atom_site_fract_occupancy
 Cr  Cr1  1  0.63073  0.17283  0.56581  1
 Cr  Cr2  1  0.13939  0.51971  0.20163  1
 Cr  Cr3  1  0.85609  0.45733  0.83060  1
 Cr  Cr4  1  0.36473  0.80422  0.46642  1
 Mg  Mg1  1  0.32110  0.15467  0.20323  1
 Mg  Mg2  1  0.67436  0.82238  0.82900  1
 O  O1  1  0.86294  0.66874  0.60549  1
 O  O2  1  0.45930  0.29996  0.78156  1
 O  O3  1  0.53617  0.67709  0.25066  1
 O  O4  1  0.13252  0.30831  0.42675  1
 O  O5  1  0.16552  0.98417  0.68491  1
 O  O6  1  0.77584  0.34408  0.10436  1
 O  O7  1  0.82995  0.99288  0.34732  1
 O  O8  1  0.21964  0.63296  0.92788  1
