CIF file written using JARVIS-Tools package.
data_Rb2Te
_symmetry_space_group_name_H-M  'Pnma'
_cell_length_a       5.55251
_cell_length_b       8.88815
_cell_length_c       10.9777
_cell_angle_alpha    90
_cell_angle_beta     90
_cell_angle_gamma    90

_symmetry_Int_Tables_number  62
_chemical_formula_structural  Rb2Te
_chemical_formula_sum  Rb8Te4
_cell_volume  541.7662757863891
_cell_formula_units_Z  4
loop_
  _symmetry_equiv_pos_site_id
 _symmetry_equiv_pos_as_xyz
 1  'x, y, z'
loop_
 _atom_site_type_symbol
 _atom_site_label
 _atom_site_symmetry_multiplicity
 _atom_site_fract_x
 _atom_site_fract_y
 _atom_site_fract_z
 _atom_site_fract_occupancy
 Rb  Rb1  1  0.75000  0.96908  0.17933  1
 Rb  Rb2  1  0.25000  0.03092  0.82067  1
 Rb  Rb3  1  0.75000  0.46908  0.32067  1
 Rb  Rb4  1  0.25000  0.53092  0.67933  1
 Rb  Rb5  1  0.75000  0.84725  0.57097  1
 Rb  Rb6  1  0.25000  0.15275  0.42903  1
 Rb  Rb7  1  0.75000  0.34725  0.92903  1
 Rb  Rb8  1  0.25000  0.65275  0.07097  1
 Te  Te1  1  0.75000  0.75345  0.88484  1
 Te  Te2  1  0.25000  0.24655  0.11516  1
 Te  Te3  1  0.75000  0.25345  0.61516  1
 Te  Te4  1  0.25000  0.74655  0.38484  1
