CIF file written using JARVIS-Tools package.
data_In2IrRh
_symmetry_space_group_name_H-M  'Immm'
_cell_length_a       10.2885
_cell_length_b       9.91956
_cell_length_c       9.91956
_cell_angle_alpha    58.416
_cell_angle_beta     58.7619
_cell_angle_gamma    58.7619

_symmetry_Int_Tables_number  71
_chemical_formula_structural  In2IrRh
_chemical_formula_sum  In2IrRh
_cell_volume  693.6858220750556
_cell_formula_units_Z  1
loop_
  _symmetry_equiv_pos_site_id
 _symmetry_equiv_pos_as_xyz
 1  'x, y, z'
loop_
 _atom_site_type_symbol
 _atom_site_label
 _atom_site_symmetry_multiplicity
 _atom_site_fract_x
 _atom_site_fract_y
 _atom_site_fract_z
 _atom_site_fract_occupancy
 In  In1  1  0.74918  0.00000  0.00000  1
 In  In2  1  0.25082  -0.00000  -0.00000  1
 Ir  Ir1  1  0.50000  -0.00000  -0.00000  1
 Rh  Rh1  1  -0.00000  0.00000  0.00000  1
