CIF file written using JARVIS-Tools package.
data_BaCaSi
_symmetry_space_group_name_H-M  'Pnma'
_cell_length_a       5.05697
_cell_length_b       8.55038
_cell_length_c       9.09712
_cell_angle_alpha    90
_cell_angle_beta     90
_cell_angle_gamma    90

_symmetry_Int_Tables_number  62
_chemical_formula_structural  BaCaSi
_chemical_formula_sum  Ba4Ca4Si4
_cell_volume  393.35044871884276
_cell_formula_units_Z  4
loop_
  _symmetry_equiv_pos_site_id
 _symmetry_equiv_pos_as_xyz
 1  'x, y, z'
loop_
 _atom_site_type_symbol
 _atom_site_label
 _atom_site_symmetry_multiplicity
 _atom_site_fract_x
 _atom_site_fract_y
 _atom_site_fract_z
 _atom_site_fract_occupancy
 Ba  Ba1  1  0.25000  0.02711  0.17572  1
 Ba  Ba2  1  0.75000  0.97289  0.82428  1
 Ba  Ba3  1  0.25000  0.52711  0.32428  1
 Ba  Ba4  1  0.75000  0.47289  0.67572  1
 Ca  Ca1  1  0.75000  0.35827  0.07545  1
 Ca  Ca2  1  0.25000  0.64173  0.92455  1
 Ca  Ca3  1  0.75000  0.85827  0.42455  1
 Ca  Ca4  1  0.25000  0.14173  0.57545  1
 Si  Si1  1  0.25000  0.78289  0.60822  1
 Si  Si2  1  0.75000  0.21711  0.39178  1
 Si  Si3  1  0.25000  0.28289  0.89178  1
 Si  Si4  1  0.75000  0.71711  0.10822  1
