CIF file written using JARVIS-Tools package.
data_Ca2MgPb
_symmetry_space_group_name_H-M  'Immm'
_cell_length_a       13.1719
_cell_length_b       7.44252
_cell_length_c       7.44251
_cell_angle_alpha    46.7981
_cell_angle_beta     27.76
_cell_angle_gamma    27.76

_symmetry_Int_Tables_number  71
_chemical_formula_structural  Ca2MgPb
_chemical_formula_sum  Ca2MgPb
_cell_volume  141.02939764779143
_cell_formula_units_Z  1
loop_
  _symmetry_equiv_pos_site_id
 _symmetry_equiv_pos_as_xyz
 1  'x, y, z'
loop_
 _atom_site_type_symbol
 _atom_site_label
 _atom_site_symmetry_multiplicity
 _atom_site_fract_x
 _atom_site_fract_y
 _atom_site_fract_z
 _atom_site_fract_occupancy
 Ca  Ca1  1  0.73901  -0.00000  0.00000  1
 Ca  Ca2  1  0.26099  0.00000  -0.00000  1
 Mg  Mg1  1  0.00000  0.00000  0.00000  1
 Pb  Pb1  1  0.50000  -0.00000  0.00000  1
