CIF file written using JARVIS-Tools package.
data_H3S
_symmetry_space_group_name_H-M  'I4mm'
_cell_length_a       3.76817
_cell_length_b       3.76838
_cell_length_c       3.76838
_cell_angle_alpha    83.8563
_cell_angle_beta     123.602
_cell_angle_gamma    123.602

_symmetry_Int_Tables_number  107
_chemical_formula_structural  H3S
_chemical_formula_sum  H3S
_cell_volume  35.55768420323638
_cell_formula_units_Z  1
loop_
  _symmetry_equiv_pos_site_id
 _symmetry_equiv_pos_as_xyz
 1  'x, y, z'
loop_
 _atom_site_type_symbol
 _atom_site_label
 _atom_site_symmetry_multiplicity
 _atom_site_fract_x
 _atom_site_fract_y
 _atom_site_fract_z
 _atom_site_fract_occupancy
 H  H1  1  0.20216  0.42847  0.92876  1
 H  H2  1  0.20216  0.92876  0.42847  1
 H  H3  1  0.70223  0.70115  0.70115  1
 S  S1  1  0.70225  0.94163  0.94163  1
