CIF file written using JARVIS-Tools package.
data_ZrHgAu2
_symmetry_space_group_name_H-M  'Fm-3m'
_cell_length_a       11.752
_cell_length_b       8.30925
_cell_length_c       8.30923
_cell_angle_alpha    33.5681
_cell_angle_beta     19.4791
_cell_angle_gamma    19.4791

_symmetry_Int_Tables_number  225
_chemical_formula_structural  ZrHgAu2
_chemical_formula_sum  ZrHgAu2
_cell_volume  78.1492672969295
_cell_formula_units_Z  1
loop_
  _symmetry_equiv_pos_site_id
 _symmetry_equiv_pos_as_xyz
 1  'x, y, z'
loop_
 _atom_site_type_symbol
 _atom_site_label
 _atom_site_symmetry_multiplicity
 _atom_site_fract_x
 _atom_site_fract_y
 _atom_site_fract_z
 _atom_site_fract_occupancy
 Au  Au1  1  0.74998  0.00001  0.00001  1
 Au  Au2  1  0.25002  -0.00001  -0.00001  1
 Hg  Hg1  1  0.50000  -0.00000  -0.00000  1
 Zr  Zr1  1  0.00000  0.00000  0.00000  1
