CIF file written using JARVIS-Tools package.
data_Cu2Mo3Se4
_symmetry_space_group_name_H-M  'P-1'
_cell_length_a       6.87408
_cell_length_b       6.89787
_cell_length_c       8.05622
_cell_angle_alpha    73.9443
_cell_angle_beta     74.9625
_cell_angle_gamma    85.8397

_symmetry_Int_Tables_number  2
_chemical_formula_structural  Cu2Mo3Se4
_chemical_formula_sum  Cu4Mo6Se8
_cell_volume  354.5264213832186
_cell_formula_units_Z  2
loop_
  _symmetry_equiv_pos_site_id
 _symmetry_equiv_pos_as_xyz
 1  'x, y, z'
loop_
 _atom_site_type_symbol
 _atom_site_label
 _atom_site_symmetry_multiplicity
 _atom_site_fract_x
 _atom_site_fract_y
 _atom_site_fract_z
 _atom_site_fract_occupancy
 Cu  Cu1  1  0.26975  0.14295  0.01444  1
 Cu  Cu2  1  0.73025  0.85705  0.98556  1
 Cu  Cu3  1  0.64249  0.23103  0.91897  1
 Cu  Cu4  1  0.35751  0.76897  0.08103  1
 Mo  Mo1  1  0.49872  0.99811  0.73560  1
 Mo  Mo2  1  0.50128  0.00189  0.26440  1
 Mo  Mo3  1  0.57479  0.72220  0.54446  1
 Mo  Mo4  1  0.77718  0.07404  0.42024  1
 Mo  Mo5  1  0.22282  0.92596  0.57976  1
 Mo  Mo6  1  0.42521  0.27780  0.45554  1
 Se  Se1  1  0.16112  0.21230  0.29904  1
 Se  Se2  1  0.14935  0.19718  0.75327  1
 Se  Se3  1  0.83888  0.78770  0.70096  1
 Se  Se4  1  0.69676  0.35299  0.15458  1
 Se  Se5  1  0.29069  0.66246  0.39866  1
 Se  Se6  1  0.30324  0.64701  0.84542  1
 Se  Se7  1  0.85065  0.80282  0.24673  1
 Se  Se8  1  0.70931  0.33754  0.60134  1
