CIF file written using JARVIS-Tools package.
data_Te6MoW3Se2
_symmetry_space_group_name_H-M  'P3m1'
_cell_length_a       3.50488
_cell_length_b       3.50488
_cell_length_c       36.9913
_cell_angle_alpha    90.001
_cell_angle_beta     90
_cell_angle_gamma    120

_symmetry_Int_Tables_number  156
_chemical_formula_structural  Te6MoW3Se2
_chemical_formula_sum  Te6MoW3Se2
_cell_volume  393.52881580341875
_cell_formula_units_Z  1
loop_
  _symmetry_equiv_pos_site_id
 _symmetry_equiv_pos_as_xyz
 1  'x, y, z'
loop_
 _atom_site_type_symbol
 _atom_site_label
 _atom_site_symmetry_multiplicity
 _atom_site_fract_x
 _atom_site_fract_y
 _atom_site_fract_z
 _atom_site_fract_occupancy
 Mo  Mo1  1  0.66668  0.33335  0.28601  1
 Se  Se1  1  0.66666  0.33332  0.42658  1
 Se  Se2  1  0.66667  0.33333  0.51432  1
 Te  Te1  1  0.33333  0.66667  0.33562  1
 Te  Te2  1  0.33336  0.66673  0.70474  1
 Te  Te3  1  0.66664  0.33328  0.04171  1
 Te  Te4  1  0.66666  0.33332  0.14133  1
 Te  Te5  1  0.33335  0.66670  0.23639  1
 Te  Te6  1  0.33333  0.66665  0.60514  1
 W  W1  1  0.33331  0.66663  0.09147  1
 W  W2  1  0.33333  0.66666  0.47045  1
 W  W3  1  0.66668  0.33336  0.65498  1
