CIF file written using JARVIS-Tools package.
data_CaCuF4
_symmetry_space_group_name_H-M  'I4/mcm'
_cell_length_a       5.43801
_cell_length_b       5.438
_cell_length_c       6.45561
_cell_angle_alpha    114.909
_cell_angle_beta     114.909
_cell_angle_gamma    90

_symmetry_Int_Tables_number  140
_chemical_formula_structural  CaCuF4
_chemical_formula_sum  Ca2Cu2F8
_cell_volume  153.34374308316924
_cell_formula_units_Z  2
loop_
  _symmetry_equiv_pos_site_id
 _symmetry_equiv_pos_as_xyz
 1  'x, y, z'
loop_
 _atom_site_type_symbol
 _atom_site_label
 _atom_site_symmetry_multiplicity
 _atom_site_fract_x
 _atom_site_fract_y
 _atom_site_fract_z
 _atom_site_fract_occupancy
 Ca  Ca1  1  0.25000  0.25000  0.50000  1
 Ca  Ca2  1  0.75000  0.75000  0.50000  1
 Cu  Cu1  1  0.00000  0.50000  -0.00000  1
 Cu  Cu2  1  0.50000  0.00000  -0.00000  1
 F  F1  1  0.94949  0.44949  0.25709  1
 F  F2  1  0.69240  0.19240  0.74291  1
 F  F3  1  0.05051  0.55051  0.74291  1
 F  F4  1  0.19240  0.05051  0.74291  1
 F  F5  1  0.30760  0.80760  0.25709  1
 F  F6  1  0.44949  0.30760  0.25709  1
 F  F7  1  0.80760  0.94949  0.25709  1
 F  F8  1  0.55051  0.69240  0.74291  1
