CIF file written using JARVIS-Tools package.
data_Ag3SeNO3
_symmetry_space_group_name_H-M  'R3c'
_cell_length_a       6.27113
_cell_length_b       6.27113
_cell_length_c       6.27113
_cell_angle_alpha    85.1602
_cell_angle_beta     85.1602
_cell_angle_gamma    85.1602

_symmetry_Int_Tables_number  161
_chemical_formula_structural  Ag3SeNO3
_chemical_formula_sum  Ag6Se2N2O6
_cell_volume  244.12796439854944
_cell_formula_units_Z  2
loop_
  _symmetry_equiv_pos_site_id
 _symmetry_equiv_pos_as_xyz
 1  'x, y, z'
loop_
 _atom_site_type_symbol
 _atom_site_label
 _atom_site_symmetry_multiplicity
 _atom_site_fract_x
 _atom_site_fract_y
 _atom_site_fract_z
 _atom_site_fract_occupancy
 Ag  Ag1  1  0.79990  0.25767  0.93412  1
 Ag  Ag2  1  0.93412  0.79990  0.25767  1
 Ag  Ag3  1  0.25767  0.93412  0.79990  1
 Ag  Ag4  1  0.29990  0.43412  0.75767  1
 Ag  Ag5  1  0.43412  0.75767  0.29990  1
 Ag  Ag6  1  0.75767  0.29990  0.43412  1
 N  N1  1  0.43114  0.43114  0.43114  1
 N  N2  1  0.93114  0.93114  0.93114  1
 O  O1  1  0.65675  0.58445  0.93680  1
 O  O2  1  0.58445  0.93680  0.65675  1
 O  O3  1  0.93680  0.65675  0.58445  1
 O  O4  1  0.43680  0.08445  0.15675  1
 O  O5  1  0.08445  0.15675  0.43680  1
 O  O6  1  0.15675  0.43680  0.08445  1
 Se  Se1  1  0.28088  0.28088  0.28088  1
 Se  Se2  1  0.78088  0.78088  0.78088  1
