CIF file written using JARVIS-Tools package.
data_Te2W
_symmetry_space_group_name_H-M  'P-3m1'
_cell_length_a       3.57035
_cell_length_b       3.57035
_cell_length_c       38.0909
_cell_angle_alpha    90.0012
_cell_angle_beta     90
_cell_angle_gamma    120

_symmetry_Int_Tables_number  164
_chemical_formula_structural  Te2W
_chemical_formula_sum  Te8W4
_cell_volume  420.5068139219529
_cell_formula_units_Z  4
loop_
  _symmetry_equiv_pos_site_id
 _symmetry_equiv_pos_as_xyz
 1  'x, y, z'
loop_
 _atom_site_type_symbol
 _atom_site_label
 _atom_site_symmetry_multiplicity
 _atom_site_fract_x
 _atom_site_fract_y
 _atom_site_fract_z
 _atom_site_fract_occupancy
 Te  Te1  1  0.33335  0.66669  0.32971  1
 Te  Te2  1  0.33336  0.66672  0.70455  1
 Te  Te3  1  0.66664  0.33328  0.04691  1
 Te  Te4  1  0.66665  0.33331  0.42175  1
 Te  Te5  1  0.66665  0.33330  0.14229  1
 Te  Te6  1  0.66666  0.33332  0.51718  1
 Te  Te7  1  0.33334  0.66668  0.23428  1
 Te  Te8  1  0.33335  0.66670  0.60917  1
 W  W1  1  0.33331  0.66663  0.09456  1
 W  W2  1  0.33332  0.66665  0.46947  1
 W  W3  1  0.66668  0.33335  0.28199  1
 W  W4  1  0.66669  0.33337  0.65690  1
