CIF file written using JARVIS-Tools package.
data_MgBi2O6
_symmetry_space_group_name_H-M  'Pmn2_1'
_cell_length_a       5.80968
_cell_length_b       5.42106
_cell_length_c       7.96724
_cell_angle_alpha    90
_cell_angle_beta     89.9993
_cell_angle_gamma    90

_symmetry_Int_Tables_number  31
_chemical_formula_structural  MgBi2O6
_chemical_formula_sum  Mg2Bi4O2
_cell_volume  250.9250488213143
_cell_formula_units_Z  2
loop_
  _symmetry_equiv_pos_site_id
 _symmetry_equiv_pos_as_xyz
 1  'x, y, z'
loop_
 _atom_site_type_symbol
 _atom_site_label
 _atom_site_symmetry_multiplicity
 _atom_site_fract_x
 _atom_site_fract_y
 _atom_site_fract_z
 _atom_site_fract_occupancy
 Bi  Bi1  1  0.76144  0.48985  0.99840  1
 Bi  Bi2  1  0.23856  0.98985  0.00160  1
 Bi  Bi3  1  0.23856  0.98981  0.49842  1
 Bi  Bi4  1  0.76144  0.48981  0.50158  1
 Mg  Mg1  1  0.32852  0.46140  0.74999  1
 Mg  Mg2  1  0.67148  0.96140  0.25001  1
 O  O1  1  0.08461  0.34029  0.57175  1
 O  O2  1  0.91539  0.84029  0.42825  1
 O  O3  1  0.66833  0.61863  0.74999  1
 O  O4  1  0.48023  0.71345  0.08466  1
 O  O5  1  0.51977  0.21345  0.91534  1
 O  O6  1  0.08467  0.34040  0.92832  1
 O  O7  1  0.91533  0.84040  0.07168  1
 O  O8  1  0.48021  0.71340  0.41535  1
 O  O9  1  0.20526  0.82164  0.75001  1
 O  O10  1  0.79474  0.32164  0.24999  1
 O  O11  1  0.51979  0.21340  0.58465  1
 O  O12  1  0.33167  0.11863  0.25001  1
