CIF file written using JARVIS-Tools package.
data_CaScRh2
_symmetry_space_group_name_H-M  'Immm'
_cell_length_a       10.1234
_cell_length_b       5.80717
_cell_length_c       5.80717
_cell_angle_alpha    41.4937
_cell_angle_beta     29.3513
_cell_angle_gamma    29.3512

_symmetry_Int_Tables_number  71
_chemical_formula_structural  CaScRh2
_chemical_formula_sum  CaScRh2
_cell_volume  81.94166511455427
_cell_formula_units_Z  1
loop_
  _symmetry_equiv_pos_site_id
 _symmetry_equiv_pos_as_xyz
 1  'x, y, z'
loop_
 _atom_site_type_symbol
 _atom_site_label
 _atom_site_symmetry_multiplicity
 _atom_site_fract_x
 _atom_site_fract_y
 _atom_site_fract_z
 _atom_site_fract_occupancy
 Ca  Ca1  1  0.00000  0.00000  0.00000  1
 Rh  Rh1  1  0.73047  -0.00000  0.00000  1
 Rh  Rh2  1  0.26953  0.00000  -0.00000  1
 Sc  Sc1  1  0.50000  0.00000  0.00000  1
