CIF file written using JARVIS-Tools package.
data_CuSiTc2
_symmetry_space_group_name_H-M  'Immm'
_cell_length_a       9.48345
_cell_length_b       9.95749
_cell_length_c       9.95749
_cell_angle_alpha    61.0352
_cell_angle_beta     61.5627
_cell_angle_gamma    61.5627

_symmetry_Int_Tables_number  71
_chemical_formula_structural  CuSiTc2
_chemical_formula_sum  CuSiTc2
_cell_volume  685.5701522001367
_cell_formula_units_Z  1
loop_
  _symmetry_equiv_pos_site_id
 _symmetry_equiv_pos_as_xyz
 1  'x, y, z'
loop_
 _atom_site_type_symbol
 _atom_site_label
 _atom_site_symmetry_multiplicity
 _atom_site_fract_x
 _atom_site_fract_y
 _atom_site_fract_z
 _atom_site_fract_occupancy
 Cu  Cu1  1  0.50000  -0.00000  -0.00000  1
 Si  Si1  1  0.00000  0.00000  0.00000  1
 Tc  Tc1  1  0.76064  0.00000  0.00000  1
 Tc  Tc2  1  0.23936  -0.00000  -0.00000  1
