CIF file written using JARVIS-Tools package.
data_CN2
_symmetry_space_group_name_H-M  'I-4m2'
_cell_length_a       2.46496
_cell_length_b       2.46496
_cell_length_c       3.4685
_cell_angle_alpha    110.814
_cell_angle_beta     110.814
_cell_angle_gamma    90

_symmetry_Int_Tables_number  119
_chemical_formula_structural  CN2
_chemical_formula_sum  CN2
_cell_volume  18.22045452404207
_cell_formula_units_Z  1
loop_
  _symmetry_equiv_pos_site_id
 _symmetry_equiv_pos_as_xyz
 1  'x, y, z'
loop_
 _atom_site_type_symbol
 _atom_site_label
 _atom_site_symmetry_multiplicity
 _atom_site_fract_x
 _atom_site_fract_y
 _atom_site_fract_z
 _atom_site_fract_occupancy
 C  C1  1  0.25000  0.75000  0.50000  1
 N  N1  1  0.61211  0.61211  0.22423  1
 N  N2  1  0.38789  0.38789  0.77577  1
