CIF file written using JARVIS-Tools package.
data_V4ZnO8
_symmetry_space_group_name_H-M  'Cm'
_cell_length_a       2.89483
_cell_length_b       7.31074
_cell_length_c       7.45812
_cell_angle_alpha    80.4161
_cell_angle_beta     78.8116
_cell_angle_gamma    78.5853

_symmetry_Int_Tables_number  8
_chemical_formula_structural  V4ZnO8
_chemical_formula_sum  V4ZnO8
_cell_volume  150.42397095832348
_cell_formula_units_Z  1
loop_
  _symmetry_equiv_pos_site_id
 _symmetry_equiv_pos_as_xyz
 1  'x, y, z'
loop_
 _atom_site_type_symbol
 _atom_site_label
 _atom_site_symmetry_multiplicity
 _atom_site_fract_x
 _atom_site_fract_y
 _atom_site_fract_z
 _atom_site_fract_occupancy
 O  O1  1  0.14033  0.32884  0.37931  1
 O  O2  1  0.53522  0.66444  0.25387  1
 O  O3  1  0.46345  0.35890  0.70293  1
 O  O4  1  0.85440  0.69506  0.58490  1
 O  O5  1  0.82348  0.99069  0.35115  1
 O  O6  1  0.20282  0.67581  0.90734  1
 O  O7  1  0.15696  0.02207  0.65281  1
 O  O8  1  0.77736  0.38999  0.04402  1
 V  V1  1  0.36874  0.82275  0.42856  1
 V  V2  1  0.85216  0.49246  0.79199  1
 V  V3  1  0.15775  0.50907  0.16418  1
 V  V4  1  0.64101  0.19618  0.51059  1
 Zn  Zn1  1  0.65237  0.87215  0.81192  1
