CIF file written using JARVIS-Tools package.
data_AgPS3
_symmetry_space_group_name_H-M  'C2/m'
_cell_length_a       6.62281
_cell_length_b       6.62281
_cell_length_c       6.65482
_cell_angle_alpha    94.6061
_cell_angle_beta     117.536
_cell_angle_gamma    117.05

_symmetry_Int_Tables_number  12
_chemical_formula_structural  AgPS3
_chemical_formula_sum  Ag2P2S6
_cell_volume  214.3451449444292
_cell_formula_units_Z  2
loop_
  _symmetry_equiv_pos_site_id
 _symmetry_equiv_pos_as_xyz
 1  'x, y, z'
loop_
 _atom_site_type_symbol
 _atom_site_label
 _atom_site_symmetry_multiplicity
 _atom_site_fract_x
 _atom_site_fract_y
 _atom_site_fract_z
 _atom_site_fract_occupancy
 Ag  Ag1  1  0.72143  0.72143  -0.00000  1
 Ag  Ag2  1  0.27857  0.27857  0.00000  1
 P  P1  1  0.06364  0.34381  0.40745  1
 P  P2  1  0.93636  0.65619  0.59255  1
 S  S1  1  0.64998  0.71140  0.36138  1
 S  S2  1  0.35002  0.28860  0.63862  1
 S  S3  1  0.77298  0.27298  0.50000  1
 S  S4  1  0.22702  0.72702  0.50000  1
 S  S5  1  0.13091  0.82123  0.95214  1
 S  S6  1  0.86909  0.17877  0.04786  1
