CIF file written using JARVIS-Tools package.
data_ZrO2
_symmetry_space_group_name_H-M  'Pnma'
_cell_length_a       3.35472
_cell_length_b       5.6112
_cell_length_c       6.53763
_cell_angle_alpha    90
_cell_angle_beta     90
_cell_angle_gamma    90

_symmetry_Int_Tables_number  62
_chemical_formula_structural  ZrO2
_chemical_formula_sum  Zr4O8
_cell_volume  123.06457217556327
_cell_formula_units_Z  4
loop_
  _symmetry_equiv_pos_site_id
 _symmetry_equiv_pos_as_xyz
 1  'x, y, z'
loop_
 _atom_site_type_symbol
 _atom_site_label
 _atom_site_symmetry_multiplicity
 _atom_site_fract_x
 _atom_site_fract_y
 _atom_site_fract_z
 _atom_site_fract_occupancy
 O  O1  1  0.75000  0.47581  0.83914  1
 O  O2  1  0.25000  0.52419  0.16086  1
 O  O3  1  0.75000  0.97581  0.66086  1
 O  O4  1  0.25000  0.02419  0.33914  1
 O  O5  1  0.75000  0.36004  0.42516  1
 O  O6  1  0.25000  0.63996  0.57484  1
 O  O7  1  0.75000  0.86004  0.07484  1
 O  O8  1  0.25000  0.13996  0.92516  1
 Zr  Zr1  1  0.25000  0.25304  0.61067  1
 Zr  Zr2  1  0.75000  0.74696  0.38933  1
 Zr  Zr3  1  0.25000  0.75304  0.88933  1
 Zr  Zr4  1  0.75000  0.24696  0.11067  1
