CIF file written using JARVIS-Tools package.
data_Na2PdS2
_symmetry_space_group_name_H-M  'Cmc2_1'
_cell_length_a       3.57563
_cell_length_b       5.46548
_cell_length_c       10.8506
_cell_angle_alpha    90
_cell_angle_beta     90
_cell_angle_gamma    109.093

_symmetry_Int_Tables_number  36
_chemical_formula_structural  Na2PdS2
_chemical_formula_sum  Na4Pd2S4
_cell_volume  200.38226613137982
_cell_formula_units_Z  2
loop_
  _symmetry_equiv_pos_site_id
 _symmetry_equiv_pos_as_xyz
 1  'x, y, z'
loop_
 _atom_site_type_symbol
 _atom_site_label
 _atom_site_symmetry_multiplicity
 _atom_site_fract_x
 _atom_site_fract_y
 _atom_site_fract_z
 _atom_site_fract_occupancy
 Na  Na1  1  0.43228  0.86456  0.87603  1
 Na  Na2  1  0.56772  0.13544  0.37603  1
 Na  Na3  1  0.82719  0.65437  0.58796  1
 Na  Na4  1  0.17281  0.34563  0.08796  1
 Pd  Pd1  1  0.13470  0.26939  0.75126  1
 Pd  Pd2  1  0.86530  0.73061  0.25126  1
 S  S1  1  0.54640  0.09280  0.63313  1
 S  S2  1  0.45360  0.90720  0.13313  1
 S  S3  1  0.72098  0.44196  0.87163  1
 S  S4  1  0.27902  0.55804  0.37163  1
