CIF file written using JARVIS-Tools package.
data_TiCdRh2
_symmetry_space_group_name_H-M  'C2/m'
_cell_length_a       11.4175
_cell_length_b       7.76171
_cell_length_c       7.76171
_cell_angle_alpha    22.5996
_cell_angle_beta     17.9824
_cell_angle_gamma    17.9824

_symmetry_Int_Tables_number  12
_chemical_formula_structural  TiCdRh2
_chemical_formula_sum  TiCdRh2
_cell_volume  64.30835671201274
_cell_formula_units_Z  1
loop_
  _symmetry_equiv_pos_site_id
 _symmetry_equiv_pos_as_xyz
 1  'x, y, z'
loop_
 _atom_site_type_symbol
 _atom_site_label
 _atom_site_symmetry_multiplicity
 _atom_site_fract_x
 _atom_site_fract_y
 _atom_site_fract_z
 _atom_site_fract_occupancy
 Cd  Cd1  1  0.50000  -0.00000  0.00000  1
 Rh  Rh1  1  0.68851  0.04235  0.04235  1
 Rh  Rh2  1  0.31149  -0.04235  -0.04235  1
 Ti  Ti1  1  1.00000  -0.00000  0.00000  1
