CIF file written using JARVIS-Tools package.
data_Hg3Te2Br2
_symmetry_space_group_name_H-M  'I2_13'
_cell_length_a       8.3978
_cell_length_b       8.3978
_cell_length_c       8.3978
_cell_angle_alpha    109.471
_cell_angle_beta     109.471
_cell_angle_gamma    109.471

_symmetry_Int_Tables_number  199
_chemical_formula_structural  Hg3Te2Br2
_chemical_formula_sum  Hg6Te4Br4
_cell_volume  455.9050394831719
_cell_formula_units_Z  2
loop_
  _symmetry_equiv_pos_site_id
 _symmetry_equiv_pos_as_xyz
 1  'x, y, z'
loop_
 _atom_site_type_symbol
 _atom_site_label
 _atom_site_symmetry_multiplicity
 _atom_site_fract_x
 _atom_site_fract_y
 _atom_site_fract_z
 _atom_site_fract_occupancy
 Br  Br1  1  0.46812  0.50000  0.00000  1
 Br  Br2  1  0.50000  0.00000  0.46812  1
 Br  Br3  1  -0.00000  0.46812  0.50000  1
 Br  Br4  1  0.03188  0.03188  0.03188  1
 Hg  Hg1  1  0.75000  0.94024  0.19024  1
 Hg  Hg2  1  0.30976  0.25000  0.55976  1
 Hg  Hg3  1  0.55976  0.30976  0.25000  1
 Hg  Hg4  1  0.19024  0.75000  0.94024  1
 Hg  Hg5  1  0.94024  0.19024  0.75000  1
 Hg  Hg6  1  0.25000  0.55976  0.30976  1
 Te  Te1  1  0.94176  0.50000  0.00000  1
 Te  Te2  1  0.50000  0.00000  0.94176  1
 Te  Te3  1  0.55824  0.55824  0.55824  1
 Te  Te4  1  -0.00000  0.94176  0.50000  1
