CIF file written using JARVIS-Tools package.
data_LiScS2
_symmetry_space_group_name_H-M  'R-3m'
_cell_length_a       3.68299
_cell_length_b       3.68299
_cell_length_c       6.40803
_cell_angle_alpha    73.2992
_cell_angle_beta     73.2992
_cell_angle_gamma    59.9999

_symmetry_Int_Tables_number  166
_chemical_formula_structural  LiScS2
_chemical_formula_sum  LiScS2
_cell_volume  71.0108271564686
_cell_formula_units_Z  1
loop_
  _symmetry_equiv_pos_site_id
 _symmetry_equiv_pos_as_xyz
 1  'x, y, z'
loop_
 _atom_site_type_symbol
 _atom_site_label
 _atom_site_symmetry_multiplicity
 _atom_site_fract_x
 _atom_site_fract_y
 _atom_site_fract_z
 _atom_site_fract_occupancy
 Li  Li1  1  0.00000  0.00000  0.00000  1
 S  S1  1  0.75259  0.75259  0.74223  1
 S  S2  1  0.24741  0.24741  0.25777  1
 Sc  Sc1  1  0.50000  0.50000  0.50000  1
