CIF file written using JARVIS-Tools package.
data_ZnMo2O4
_symmetry_space_group_name_H-M  'Cmcm'
_cell_length_a       2.79945
_cell_length_b       5.05428
_cell_length_c       10.5218
_cell_angle_alpha    90
_cell_angle_beta     90
_cell_angle_gamma    106.078

_symmetry_Int_Tables_number  63
_chemical_formula_structural  ZnMo2O4
_chemical_formula_sum  Zn2Mo4O8
_cell_volume  143.0526015790666
_cell_formula_units_Z  2
loop_
  _symmetry_equiv_pos_site_id
 _symmetry_equiv_pos_as_xyz
 1  'x, y, z'
loop_
 _atom_site_type_symbol
 _atom_site_label
 _atom_site_symmetry_multiplicity
 _atom_site_fract_x
 _atom_site_fract_y
 _atom_site_fract_z
 _atom_site_fract_occupancy
 Mo  Mo1  1  0.84266  0.68532  0.06142  1
 Mo  Mo2  1  0.15734  0.31468  0.93858  1
 Mo  Mo3  1  0.84266  0.68532  0.43858  1
 Mo  Mo4  1  0.15734  0.31468  0.56142  1
 O  O1  1  0.19913  0.39826  0.36983  1
 O  O2  1  0.80087  0.60174  0.63017  1
 O  O3  1  0.80087  0.60174  0.86983  1
 O  O4  1  0.19913  0.39826  0.13017  1
 O  O5  1  0.92888  0.85776  0.25000  1
 O  O6  1  0.07112  0.14224  0.75000  1
 O  O7  1  0.50000  0.00000  0.00000  1
 O  O8  1  0.50000  0.00000  0.50000  1
 Zn  Zn1  1  0.42049  0.84098  0.75000  1
 Zn  Zn2  1  0.57951  0.15902  0.25000  1
