CIF file written using JARVIS-Tools package.
data_InBi2S4Cl
_symmetry_space_group_name_H-M  'C2/m'
_cell_length_a       3.94699
_cell_length_b       6.55429
_cell_length_c       8.39987
_cell_angle_alpha    67.9662
_cell_angle_beta     76.4117
_cell_angle_gamma    72.4763

_symmetry_Int_Tables_number  12
_chemical_formula_structural  InBi2S4Cl
_chemical_formula_sum  InBi2S4Cl
_cell_volume  190.24521685331888
_cell_formula_units_Z  1
loop_
  _symmetry_equiv_pos_site_id
 _symmetry_equiv_pos_as_xyz
 1  'x, y, z'
loop_
 _atom_site_type_symbol
 _atom_site_label
 _atom_site_symmetry_multiplicity
 _atom_site_fract_x
 _atom_site_fract_y
 _atom_site_fract_z
 _atom_site_fract_occupancy
 Bi  Bi1  1  0.20217  0.31730  0.27836  1
 Bi  Bi2  1  0.79783  0.68270  0.72164  1
 Cl  Cl1  1  0.50000  0.50000  0.50000  1
 In  In1  1  0.00000  0.00000  0.00000  1
 S  S1  1  0.83778  0.00531  0.31912  1
 S  S2  1  0.62563  0.69315  0.05560  1
 S  S3  1  0.16222  0.99469  0.68088  1
 S  S4  1  0.37437  0.30685  0.94440  1
