CIF file written using JARVIS-Tools package.
data_LiCrIr2
_symmetry_space_group_name_H-M  'Immm'
_cell_length_a       10.0614
_cell_length_b       5.66535
_cell_length_c       5.66536
_cell_angle_alpha    45.9483
_cell_angle_beta     27.3796
_cell_angle_gamma    27.3797

_symmetry_Int_Tables_number  71
_chemical_formula_structural  LiCrIr2
_chemical_formula_sum  LiCrIr2
_cell_volume  61.30943843416989
_cell_formula_units_Z  1
loop_
  _symmetry_equiv_pos_site_id
 _symmetry_equiv_pos_as_xyz
 1  'x, y, z'
loop_
 _atom_site_type_symbol
 _atom_site_label
 _atom_site_symmetry_multiplicity
 _atom_site_fract_x
 _atom_site_fract_y
 _atom_site_fract_z
 _atom_site_fract_occupancy
 Cr  Cr1  1  0.50000  0.00000  0.00000  1
 Ir  Ir1  1  0.72151  1.00000  1.00000  1
 Ir  Ir2  1  0.27849  0.00000  0.00000  1
 Li  Li1  1  0.00000  0.00000  0.00000  1
