CIF file written using JARVIS-Tools package.
data_KInP2S7
_symmetry_space_group_name_H-M  'C2'
_cell_length_a       6.25644
_cell_length_b       6.69247
_cell_length_c       6.69246
_cell_angle_alpha    97.5952
_cell_angle_beta     95.2655
_cell_angle_gamma    95.2655

_symmetry_Int_Tables_number  5
_chemical_formula_structural  KInP2S7
_chemical_formula_sum  KInP2S7
_cell_volume  275.0527777113505
_cell_formula_units_Z  1
loop_
  _symmetry_equiv_pos_site_id
 _symmetry_equiv_pos_as_xyz
 1  'x, y, z'
loop_
 _atom_site_type_symbol
 _atom_site_label
 _atom_site_symmetry_multiplicity
 _atom_site_fract_x
 _atom_site_fract_y
 _atom_site_fract_z
 _atom_site_fract_occupancy
 In  In1  1  -0.00000  0.50058  0.49942  1
 K  K1  1  0.50000  0.09217  0.90783  1
 P  P1  1  0.09025  0.03650  0.36225  1
 P  P2  1  0.90975  0.63775  0.96350  1
 S  S1  1  -0.00000  0.96250  0.03750  1
 S  S2  1  0.73853  0.53012  0.17835  1
 S  S3  1  0.30372  0.28779  0.36885  1
 S  S4  1  0.69628  0.63115  0.71221  1
 S  S5  1  0.82374  0.11043  0.49213  1
 S  S6  1  0.17626  0.50787  0.88957  1
 S  S7  1  0.26147  0.82165  0.46988  1
