CIF file written using JARVIS-Tools package.
data_LiTaGeO5
_symmetry_space_group_name_H-M  'C2/c'
_cell_length_a       5.59347
_cell_length_b       5.59346
_cell_length_c       7.55328
_cell_angle_alpha    109.863
_cell_angle_beta     109.863
_cell_angle_gamma    93.4159

_symmetry_Int_Tables_number  15
_chemical_formula_structural  LiTaGeO5
_chemical_formula_sum  Li2Ta2Ge2O0
_cell_volume  204.90435778113837
_cell_formula_units_Z  2
loop_
  _symmetry_equiv_pos_site_id
 _symmetry_equiv_pos_as_xyz
 1  'x, y, z'
loop_
 _atom_site_type_symbol
 _atom_site_label
 _atom_site_symmetry_multiplicity
 _atom_site_fract_x
 _atom_site_fract_y
 _atom_site_fract_z
 _atom_site_fract_occupancy
 Ge  Ge1  1  0.63705  0.36295  0.75000  1
 Ge  Ge2  1  0.36295  0.63705  0.25000  1
 Li  Li1  1  0.69351  0.30649  0.25000  1
 Li  Li2  1  0.30649  0.69351  0.75000  1
 O  O1  1  0.75600  0.23389  0.55467  1
 O  O2  1  0.24400  0.76611  0.44533  1
 O  O3  1  0.23389  0.75600  0.05467  1
 O  O4  1  0.30941  0.29345  0.15290  1
 O  O5  1  0.93273  0.06727  0.25000  1
 O  O6  1  0.06727  0.93273  0.75000  1
 O  O7  1  0.70655  0.69059  0.34710  1
 O  O8  1  0.29345  0.30941  0.65290  1
 O  O9  1  0.69059  0.70655  0.84710  1
 O  O10  1  0.76611  0.24400  0.94533  1
 Ta  Ta1  1  0.00000  0.00000  0.00000  1
 Ta  Ta2  1  -0.00000  -0.00000  0.50000  1
