CIF file written using JARVIS-Tools package.
data_CaCrF4
_symmetry_space_group_name_H-M  'I4/mcm'
_cell_length_a       5.462
_cell_length_b       5.46199
_cell_length_c       6.5651
_cell_angle_alpha    114.579
_cell_angle_beta     114.581
_cell_angle_gamma    89.9992

_symmetry_Int_Tables_number  140
_chemical_formula_structural  CaCrF4
_chemical_formula_sum  Ca2Cr2F8
_cell_volume  158.38661633190705
_cell_formula_units_Z  2
loop_
  _symmetry_equiv_pos_site_id
 _symmetry_equiv_pos_as_xyz
 1  'x, y, z'
loop_
 _atom_site_type_symbol
 _atom_site_label
 _atom_site_symmetry_multiplicity
 _atom_site_fract_x
 _atom_site_fract_y
 _atom_site_fract_z
 _atom_site_fract_occupancy
 Ca  Ca1  1  0.25082  0.25013  0.50086  1
 Ca  Ca2  1  0.75082  0.75014  0.50086  1
 Cr  Cr1  1  0.50085  0.00015  0.00088  1
 Cr  Cr2  1  0.00079  0.50014  0.00083  1
 F  F1  1  0.44816  0.31340  0.26144  1
 F  F2  1  0.18760  0.05276  0.74027  1
 F  F3  1  0.55354  0.68688  0.74035  1
 F  F4  1  0.05345  0.55276  0.74023  1
 F  F5  1  0.81409  0.94752  0.26149  1
 F  F6  1  0.31404  0.81337  0.26139  1
 F  F7  1  0.94812  0.44746  0.26141  1
 F  F8  1  0.68758  0.18686  0.74028  1
