CIF file written using JARVIS-Tools package.
data_MgNiPO5
_symmetry_space_group_name_H-M  'P-1'
_cell_length_a       5.27842
_cell_length_b       5.32104
_cell_length_c       6.35232
_cell_angle_alpha    105.414
_cell_angle_beta     95.0807
_cell_angle_gamma    107.028

_symmetry_Int_Tables_number  2
_chemical_formula_structural  MgNiPO5
_chemical_formula_sum  Mg2Ni2P2O0
_cell_volume  161.75607377574147
_cell_formula_units_Z  2
loop_
  _symmetry_equiv_pos_site_id
 _symmetry_equiv_pos_as_xyz
 1  'x, y, z'
loop_
 _atom_site_type_symbol
 _atom_site_label
 _atom_site_symmetry_multiplicity
 _atom_site_fract_x
 _atom_site_fract_y
 _atom_site_fract_z
 _atom_site_fract_occupancy
 Mg  Mg1  1  0.88654  0.72558  0.25856  1
 Mg  Mg2  1  0.11466  0.27705  0.72769  1
 Ni  Ni1  1  0.50059  0.00134  0.49315  1
 Ni  Ni2  1  0.50058  0.00133  -0.00685  1
 O  O1  1  0.52350  0.37140  0.17981  1
 O  O2  1  0.18062  0.15442  0.38587  1
 O  O3  1  0.47770  0.63126  0.80649  1
 O  O4  1  0.82054  0.84822  0.60038  1
 O  O5  1  0.77573  0.36294  0.60407  1
 O  O6  1  -0.02685  0.73406  0.95506  1
 O  O7  1  0.22547  0.63973  0.38226  1
 O  O8  1  0.02807  0.26871  0.03122  1
 O  O9  1  0.38534  0.07653  0.75753  1
 O  O10  1  0.61585  0.92613  0.22876  1
 P  P1  1  0.23775  0.35487  0.23896  1
 P  P2  1  0.76343  0.64781  0.74733  1
