CIF file written using JARVIS-Tools package.
data_CaUS2
_symmetry_space_group_name_H-M  'I-42d'
_cell_length_a       8.8572
_cell_length_b       8.85721
_cell_length_c       8.8572
_cell_angle_alpha    128.246
_cell_angle_beta     76.2261
_cell_angle_gamma    128.246

_symmetry_Int_Tables_number  122
_chemical_formula_structural  CaUS2
_chemical_formula_sum  Ca4U4S8
_cell_volume  416.5376366058277
_cell_formula_units_Z  4
loop_
  _symmetry_equiv_pos_site_id
 _symmetry_equiv_pos_as_xyz
 1  'x, y, z'
loop_
 _atom_site_type_symbol
 _atom_site_label
 _atom_site_symmetry_multiplicity
 _atom_site_fract_x
 _atom_site_fract_y
 _atom_site_fract_z
 _atom_site_fract_occupancy
 Ca  Ca1  1  0.14559  0.89559  0.25000  1
 Ca  Ca2  1  0.35441  0.60441  0.75000  1
 Ca  Ca3  1  0.25000  0.10441  0.85441  1
 Ca  Ca4  1  0.75000  0.39559  0.64559  1
 S  S1  1  0.98114  0.25639  0.52720  1
 S  S2  1  0.47280  0.95394  0.72919  1
 S  S3  1  0.27081  0.24361  0.22475  1
 S  S4  1  0.22919  0.45394  0.97280  1
 S  S5  1  0.72475  0.74361  0.77081  1
 S  S6  1  0.51886  0.04606  0.27525  1
 S  S7  1  0.02720  0.75639  0.48114  1
 S  S8  1  0.77525  0.54606  0.01886  1
 U  U1  1  0.25000  0.59655  0.34655  1
 U  U2  1  0.75000  0.90345  0.15345  1
 U  U3  1  0.65345  0.40345  0.25000  1
 U  U4  1  0.84655  0.09655  0.75000  1
