CIF file written using JARVIS-Tools package.
data_AlCuS2
_symmetry_space_group_name_H-M  'R3m'
_cell_length_a       3.59276
_cell_length_b       3.59276
_cell_length_c       6.38032
_cell_angle_alpha    73.6473
_cell_angle_beta     73.6473
_cell_angle_gamma    60

_symmetry_Int_Tables_number  160
_chemical_formula_structural  AlCuS2
_chemical_formula_sum  AlCuS2
_cell_volume  67.44852602975004
_cell_formula_units_Z  1
loop_
  _symmetry_equiv_pos_site_id
 _symmetry_equiv_pos_as_xyz
 1  'x, y, z'
loop_
 _atom_site_type_symbol
 _atom_site_label
 _atom_site_symmetry_multiplicity
 _atom_site_fract_x
 _atom_site_fract_y
 _atom_site_fract_z
 _atom_site_fract_occupancy
 Al  Al1  1  0.00215  0.00215  0.99355  1
 Cu  Cu1  1  0.85749  0.85749  0.42753  1
 S  S1  1  0.73360  0.73360  0.79921  1
 S  S2  1  0.25377  0.25377  0.23870  1
