CIF file written using JARVIS-Tools package.
data_LiMg
_symmetry_space_group_name_H-M  'Pm-3m'
_cell_length_a       4.84008
_cell_length_b       3.42407
_cell_length_c       4.84182
_cell_angle_alpha    90
_cell_angle_beta     90
_cell_angle_gamma    90

_symmetry_Int_Tables_number  221
_chemical_formula_structural  LiMg
_chemical_formula_sum  Li2Mg2
_cell_volume  80.24223326258235
_cell_formula_units_Z  2
loop_
  _symmetry_equiv_pos_site_id
 _symmetry_equiv_pos_as_xyz
 1  'x, y, z'
loop_
 _atom_site_type_symbol
 _atom_site_label
 _atom_site_symmetry_multiplicity
 _atom_site_fract_x
 _atom_site_fract_y
 _atom_site_fract_z
 _atom_site_fract_occupancy
 Li  Li1  1  0.75000  0.50000  0.25008  1
 Li  Li2  1  0.25000  0.50000  0.74992  1
 Mg  Mg1  1  0.75000  0.00000  0.75005  1
 Mg  Mg2  1  0.25000  0.00000  0.24995  1
