CIF file written using JARVIS-Tools package.
data_Na2AlZnF7
_symmetry_space_group_name_H-M  'Imma'
_cell_length_a       7.12452
_cell_length_b       7.24873
_cell_length_c       7.24873
_cell_angle_alpha    61.5605
_cell_angle_beta     60.5652
_cell_angle_gamma    60.5652

_symmetry_Int_Tables_number  74
_chemical_formula_structural  Na2AlZnF7
_chemical_formula_sum  Na4Al2Zn2F4
_cell_volume  270.00530357063417
_cell_formula_units_Z  2
loop_
  _symmetry_equiv_pos_site_id
 _symmetry_equiv_pos_as_xyz
 1  'x, y, z'
loop_
 _atom_site_type_symbol
 _atom_site_label
 _atom_site_symmetry_multiplicity
 _atom_site_fract_x
 _atom_site_fract_y
 _atom_site_fract_z
 _atom_site_fract_occupancy
 Al  Al1  1  0.00000  0.50000  0.50000  1
 Al  Al2  1  0.50000  0.00000  0.00000  1
 F  F1  1  0.57463  0.04903  0.17490  1
 F  F2  1  0.42537  0.95097  0.82510  1
 F  F3  1  0.08287  0.63998  0.19428  1
 F  F4  1  0.29857  0.32510  0.45097  1
 F  F5  1  0.58287  0.69428  0.13998  1
 F  F6  1  0.07463  0.67490  0.54903  1
 F  F7  1  0.92537  0.32510  0.45097  1
 F  F8  1  0.79857  0.95097  0.82510  1
 F  F9  1  0.75000  0.12684  0.37316  1
 F  F10  1  0.91713  0.36002  0.80572  1
 F  F11  1  0.41713  0.30572  0.86002  1
 F  F12  1  0.70143  0.67490  0.54903  1
 F  F13  1  0.20143  0.04903  0.17490  1
 F  F14  1  0.25000  0.87316  0.62684  1
 Na  Na1  1  0.50000  0.50000  0.50000  1
 Na  Na2  1  0.50000  0.50000  -0.00000  1
 Na  Na3  1  -0.00000  0.50000  -0.00000  1
 Na  Na4  1  0.00000  0.00000  0.00000  1
 Zn  Zn1  1  0.50000  0.00000  0.50000  1
 Zn  Zn2  1  -0.00000  0.00000  0.50000  1
