CIF file written using JARVIS-Tools package.
data_Ba2NaSn
_symmetry_space_group_name_H-M  'C2/m'
_cell_length_a       14.776
_cell_length_b       10.4358
_cell_length_c       6.0532
_cell_angle_alpha    30.0768
_cell_angle_beta     35.2607
_cell_angle_gamma    19.5637

_symmetry_Int_Tables_number  12
_chemical_formula_structural  Ba2NaSn
_chemical_formula_sum  Ba2NaSn
_cell_volume  156.63617470370576
_cell_formula_units_Z  1
loop_
  _symmetry_equiv_pos_site_id
 _symmetry_equiv_pos_as_xyz
 1  'x, y, z'
loop_
 _atom_site_type_symbol
 _atom_site_label
 _atom_site_symmetry_multiplicity
 _atom_site_fract_x
 _atom_site_fract_y
 _atom_site_fract_z
 _atom_site_fract_occupancy
 Ba  Ba1  1  0.74993  0.00008  -0.00008  1
 Ba  Ba2  1  0.25007  -0.00008  0.00008  1
 Na  Na1  1  0.00000  0.00000  0.00000  1
 Sn  Sn1  1  0.50000  0.00000  0.00000  1
