CIF file written using JARVIS-Tools package.
data_Sr2PdAu
_symmetry_space_group_name_H-M  'C2/m'
_cell_length_a       12.5782
_cell_length_b       8.85789
_cell_length_c       8.8579
_cell_angle_alpha    35.2524
_cell_angle_beta     20.4398
_cell_angle_gamma    20.4397

_symmetry_Int_Tables_number  12
_chemical_formula_structural  Sr2PdAu
_chemical_formula_sum  Sr2PdAu
_cell_volume  103.97762173823631
_cell_formula_units_Z  1
loop_
  _symmetry_equiv_pos_site_id
 _symmetry_equiv_pos_as_xyz
 1  'x, y, z'
loop_
 _atom_site_type_symbol
 _atom_site_label
 _atom_site_symmetry_multiplicity
 _atom_site_fract_x
 _atom_site_fract_y
 _atom_site_fract_z
 _atom_site_fract_occupancy
 Au  Au1  1  0.50000  0.00000  -0.00000  1
 Pd  Pd1  1  0.00000  0.00000  0.00000  1
 Sr  Sr1  1  0.75491  -0.00298  -0.00298  1
 Sr  Sr2  1  0.24509  0.00298  0.00298  1
