CIF file written using JARVIS-Tools package.
data_Rb2HgTe
_symmetry_space_group_name_H-M  'C2/m'
_cell_length_a       14.8223
_cell_length_b       10.4816
_cell_length_c       10.4816
_cell_angle_alpha    33.5828
_cell_angle_beta     19.4617
_cell_angle_gamma    19.4617

_symmetry_Int_Tables_number  12
_chemical_formula_structural  Rb2HgTe
_chemical_formula_sum  Rb2HgTe
_cell_volume  156.16925999610942
_cell_formula_units_Z  1
loop_
  _symmetry_equiv_pos_site_id
 _symmetry_equiv_pos_as_xyz
 1  'x, y, z'
loop_
 _atom_site_type_symbol
 _atom_site_label
 _atom_site_symmetry_multiplicity
 _atom_site_fract_x
 _atom_site_fract_y
 _atom_site_fract_z
 _atom_site_fract_occupancy
 Hg  Hg1  1  0.50000  -0.00000  -0.00000  1
 Rb  Rb1  1  0.74980  0.00016  0.00016  1
 Rb  Rb2  1  0.25020  -0.00016  -0.00016  1
 Te  Te1  1  0.00000  0.00000  0.00000  1
