CIF file written using JARVIS-Tools package.
data_Y2CuAg
_symmetry_space_group_name_H-M  'Immm'
_cell_length_a       11.0215
_cell_length_b       12.2626
_cell_length_c       12.2626
_cell_angle_alpha    64.1058
_cell_angle_beta     63.2952
_cell_angle_gamma    63.2951

_symmetry_Int_Tables_number  71
_chemical_formula_structural  Y2CuAg
_chemical_formula_sum  Y2CuAg
_cell_volume  1264.097732813419
_cell_formula_units_Z  1
loop_
  _symmetry_equiv_pos_site_id
 _symmetry_equiv_pos_as_xyz
 1  'x, y, z'
loop_
 _atom_site_type_symbol
 _atom_site_label
 _atom_site_symmetry_multiplicity
 _atom_site_fract_x
 _atom_site_fract_y
 _atom_site_fract_z
 _atom_site_fract_occupancy
 Ag  Ag1  1  0.50000  -0.00000  0.00000  1
 Cu  Cu1  1  0.00000  0.00000  0.00000  1
 Y  Y1  1  0.76833  0.00000  0.00000  1
 Y  Y2  1  0.23167  -0.00000  -0.00000  1
