CIF file written using JARVIS-Tools package.
data_Ba2AsBr
_symmetry_space_group_name_H-M  'Fm-3m'
_cell_length_a       13.9578
_cell_length_b       9.86966
_cell_length_c       9.86975
_cell_angle_alpha    33.558
_cell_angle_beta     19.4715
_cell_angle_gamma    19.4715

_symmetry_Int_Tables_number  225
_chemical_formula_structural  Ba2AsBr
_chemical_formula_sum  Ba2AsBr
_cell_volume  130.83354345570086
_cell_formula_units_Z  1
loop_
  _symmetry_equiv_pos_site_id
 _symmetry_equiv_pos_as_xyz
 1  'x, y, z'
loop_
 _atom_site_type_symbol
 _atom_site_label
 _atom_site_symmetry_multiplicity
 _atom_site_fract_x
 _atom_site_fract_y
 _atom_site_fract_z
 _atom_site_fract_occupancy
 As  As1  1  0.00000  0.00000  0.00000  1
 Ba  Ba1  1  0.74999  0.00000  0.00000  1
 Ba  Ba2  1  0.25001  1.00000  1.00000  1
 Br  Br1  1  0.50000  -0.00000  -0.00000  1
