CIF file written using JARVIS-Tools package.
data_Zr2IrRh
_symmetry_space_group_name_H-M  'Immm'
_cell_length_a       10.1526
_cell_length_b       5.85792
_cell_length_c       5.85792
_cell_angle_alpha    28.8186
_cell_angle_beta     29.938
_cell_angle_gamma    29.938

_symmetry_Int_Tables_number  71
_chemical_formula_structural  Zr2IrRh
_chemical_formula_sum  Zr2IrRh
_cell_volume  75.00784025875075
_cell_formula_units_Z  1
loop_
  _symmetry_equiv_pos_site_id
 _symmetry_equiv_pos_as_xyz
 1  'x, y, z'
loop_
 _atom_site_type_symbol
 _atom_site_label
 _atom_site_symmetry_multiplicity
 _atom_site_fract_x
 _atom_site_fract_y
 _atom_site_fract_z
 _atom_site_fract_occupancy
 Ir  Ir1  1  0.50000  0.00000  -0.00000  1
 Rh  Rh1  1  0.00000  0.00000  0.00000  1
 Zr  Zr1  1  0.75210  -0.00000  -0.00000  1
 Zr  Zr2  1  0.24790  0.00000  0.00000  1
