CIF file written using JARVIS-Tools package.
data_LiVF4
_symmetry_space_group_name_H-M  'Cmmm'
_cell_length_a       3.08916
_cell_length_b       6.60526
_cell_length_c       6.43254
_cell_angle_alpha    90
_cell_angle_beta     90.0037
_cell_angle_gamma    90

_symmetry_Int_Tables_number  65
_chemical_formula_structural  LiVF4
_chemical_formula_sum  Li2V2F8
_cell_volume  131.2543263694459
_cell_formula_units_Z  2
loop_
  _symmetry_equiv_pos_site_id
 _symmetry_equiv_pos_as_xyz
 1  'x, y, z'
loop_
 _atom_site_type_symbol
 _atom_site_label
 _atom_site_symmetry_multiplicity
 _atom_site_fract_x
 _atom_site_fract_y
 _atom_site_fract_z
 _atom_site_fract_occupancy
 F  F1  1  0.00012  0.80848  0.75420  1
 F  F2  1  0.00012  0.19152  0.75420  1
 F  F3  1  0.50008  0.00000  0.45947  1
 F  F4  1  0.49994  0.50000  0.54899  1
 F  F5  1  0.50014  0.00000  0.04895  1
 F  F6  1  0.49983  0.50000  0.95951  1
 F  F7  1  -0.00012  0.30848  0.25426  1
 F  F8  1  -0.00012  0.69152  0.25426  1
 Li  Li1  1  -0.00014  0.50000  0.75423  1
 Li  Li2  1  0.00015  0.00000  0.25426  1
 V  V1  1  0.49987  0.50000  0.25425  1
 V  V2  1  0.50013  0.00000  0.75421  1
