CIF file written using JARVIS-Tools package.
data_Ca2MgHg
_symmetry_space_group_name_H-M  'C2/m'
_cell_length_a       18.1404
_cell_length_b       10.2266
_cell_length_c       8.71541
_cell_angle_alpha    21.082
_cell_angle_beta     18.1615
_cell_angle_gamma    15.4048

_symmetry_Int_Tables_number  12
_chemical_formula_structural  Ca2MgHg
_chemical_formula_sum  Ca2MgHg
_cell_volume  131.01133101869277
_cell_formula_units_Z  1
loop_
  _symmetry_equiv_pos_site_id
 _symmetry_equiv_pos_as_xyz
 1  'x, y, z'
loop_
 _atom_site_type_symbol
 _atom_site_label
 _atom_site_symmetry_multiplicity
 _atom_site_fract_x
 _atom_site_fract_y
 _atom_site_fract_z
 _atom_site_fract_occupancy
 Ca  Ca1  1  0.66494  0.17045  0.82955  1
 Ca  Ca2  1  0.33506  0.82955  0.17045  1
 Hg  Hg1  1  0.50000  -0.00000  0.00000  1
 Mg  Mg1  1  0.00000  0.00000  0.00000  1
