CIF file written using JARVIS-Tools package.
data_Li2AgAs
_symmetry_space_group_name_H-M  'Immm'
_cell_length_a       9.89369
_cell_length_b       5.73859
_cell_length_c       5.7386
_cell_angle_alpha    30.3273
_cell_angle_beta     30.4546
_cell_angle_gamma    30.4546

_symmetry_Int_Tables_number  71
_chemical_formula_structural  Li2AgAs
_chemical_formula_sum  Li2AgAs
_cell_volume  73.99957765871669
_cell_formula_units_Z  1
loop_
  _symmetry_equiv_pos_site_id
 _symmetry_equiv_pos_as_xyz
 1  'x, y, z'
loop_
 _atom_site_type_symbol
 _atom_site_label
 _atom_site_symmetry_multiplicity
 _atom_site_fract_x
 _atom_site_fract_y
 _atom_site_fract_z
 _atom_site_fract_occupancy
 Ag  Ag1  1  0.50000  -0.00000  -0.00000  1
 As  As1  1  0.00000  0.00000  0.00000  1
 Li  Li1  1  0.75775  1.00000  1.00000  1
 Li  Li2  1  0.24225  0.00000  0.00000  1
