CIF file written using JARVIS-Tools package.
data_LiMgIn2
_symmetry_space_group_name_H-M  'I4/mmm'
_cell_length_a       12.289
_cell_length_b       8.44513
_cell_length_c       8.44474
_cell_angle_alpha    32.5226
_cell_angle_beta     19.4022
_cell_angle_gamma    19.4011

_symmetry_Int_Tables_number  139
_chemical_formula_structural  LiMgIn2
_chemical_formula_sum  LiMgIn2
_cell_volume  87.71668578437519
_cell_formula_units_Z  1
loop_
  _symmetry_equiv_pos_site_id
 _symmetry_equiv_pos_as_xyz
 1  'x, y, z'
loop_
 _atom_site_type_symbol
 _atom_site_label
 _atom_site_symmetry_multiplicity
 _atom_site_fract_x
 _atom_site_fract_y
 _atom_site_fract_z
 _atom_site_fract_occupancy
 In  In1  1  0.74991  0.00009  0.00002  1
 In  In2  1  0.25009  0.99991  0.99997  1
 Li  Li1  1  0.00000  0.00000  0.00000  1
 Mg  Mg1  1  0.50000  -0.00000  0.00000  1
