CIF file written using JARVIS-Tools package.
data_KSn3Au3
_symmetry_space_group_name_H-M  'Pmmn'
_cell_length_a       4.7447
_cell_length_b       7.8041
_cell_length_c       9.50888
_cell_angle_alpha    90
_cell_angle_beta     90
_cell_angle_gamma    90

_symmetry_Int_Tables_number  59
_chemical_formula_structural  KSn3Au3
_chemical_formula_sum  K2Sn6Au6
_cell_volume  352.09629803492425
_cell_formula_units_Z  2
loop_
  _symmetry_equiv_pos_site_id
 _symmetry_equiv_pos_as_xyz
 1  'x, y, z'
loop_
 _atom_site_type_symbol
 _atom_site_label
 _atom_site_symmetry_multiplicity
 _atom_site_fract_x
 _atom_site_fract_y
 _atom_site_fract_z
 _atom_site_fract_occupancy
 Au  Au1  1  0.75000  0.03107  0.41450  1
 Au  Au2  1  0.25000  0.25000  0.07212  1
 Au  Au3  1  0.75000  0.75000  0.92788  1
 Au  Au4  1  0.25000  0.96893  0.58550  1
 Au  Au5  1  0.25000  0.53107  0.58550  1
 Au  Au6  1  0.75000  0.46893  0.41450  1
 K  K1  1  0.25000  0.75000  0.26691  1
 K  K2  1  0.75000  0.25000  0.73309  1
 Sn  Sn1  1  0.75000  0.45417  0.12196  1
 Sn  Sn2  1  0.75000  0.04583  0.12196  1
 Sn  Sn3  1  0.25000  0.95417  0.87804  1
 Sn  Sn4  1  0.25000  0.54583  0.87804  1
 Sn  Sn5  1  0.25000  0.25000  0.38465  1
 Sn  Sn6  1  0.75000  0.75000  0.61535  1
