CIF file written using JARVIS-Tools package.
data_Na2PtS2
_symmetry_space_group_name_H-M  'Cmc2_1'
_cell_length_a       3.58532
_cell_length_b       5.48544
_cell_length_c       10.8277
_cell_angle_alpha    90
_cell_angle_beta     90
_cell_angle_gamma    109.075

_symmetry_Int_Tables_number  36
_chemical_formula_structural  Na2PtS2
_chemical_formula_sum  Na4Pt2S4
_cell_volume  201.25600645441838
_cell_formula_units_Z  2
loop_
  _symmetry_equiv_pos_site_id
 _symmetry_equiv_pos_as_xyz
 1  'x, y, z'
loop_
 _atom_site_type_symbol
 _atom_site_label
 _atom_site_symmetry_multiplicity
 _atom_site_fract_x
 _atom_site_fract_y
 _atom_site_fract_z
 _atom_site_fract_occupancy
 Na  Na1  1  0.17075  0.34149  0.09318  1
 Na  Na2  1  0.82925  0.65851  0.59318  1
 Na  Na3  1  0.43247  0.86494  0.87641  1
 Na  Na4  1  0.56753  0.13506  0.37641  1
 Pt  Pt1  1  0.86390  0.72779  0.25459  1
 Pt  Pt2  1  0.13610  0.27221  0.75459  1
 S  S1  1  0.55125  0.10250  0.63516  1
 S  S2  1  0.44875  0.89750  0.13516  1
 S  S3  1  0.72054  0.44108  0.87466  1
 S  S4  1  0.27946  0.55892  0.37466  1
