CIF file written using JARVIS-Tools package.
data_ScAgO2
_symmetry_space_group_name_H-M  'R3m'
_cell_length_a       3.17096
_cell_length_b       3.17095
_cell_length_c       6.39645
_cell_angle_alpha    75.6486
_cell_angle_beta     75.6485
_cell_angle_gamma    60

_symmetry_Int_Tables_number  160
_chemical_formula_structural  ScAgO2
_chemical_formula_sum  ScAgO2
_cell_volume  53.36914655212159
_cell_formula_units_Z  1
loop_
  _symmetry_equiv_pos_site_id
 _symmetry_equiv_pos_as_xyz
 1  'x, y, z'
loop_
 _atom_site_type_symbol
 _atom_site_label
 _atom_site_symmetry_multiplicity
 _atom_site_fract_x
 _atom_site_fract_y
 _atom_site_fract_z
 _atom_site_fract_occupancy
 Ag  Ag1  1  0.84111  0.84111  0.47668  1
 O  O1  1  0.72405  0.72405  0.82784  1
 O  O2  1  0.27381  0.27381  0.17856  1
 Sc  Sc1  1  0.00203  0.00203  0.99392  1
