CIF file written using JARVIS-Tools package.
data_CdPdAu2
_symmetry_space_group_name_H-M  'Immm'
_cell_length_a       11.2422
_cell_length_b       6.29201
_cell_length_c       6.29202
_cell_angle_alpha    25.4249
_cell_angle_beta     26.6998
_cell_angle_gamma    26.6998

_symmetry_Int_Tables_number  71
_chemical_formula_structural  CdPdAu2
_chemical_formula_sum  CdPdAu2
_cell_volume  76.73539997963668
_cell_formula_units_Z  1
loop_
  _symmetry_equiv_pos_site_id
 _symmetry_equiv_pos_as_xyz
 1  'x, y, z'
loop_
 _atom_site_type_symbol
 _atom_site_label
 _atom_site_symmetry_multiplicity
 _atom_site_fract_x
 _atom_site_fract_y
 _atom_site_fract_z
 _atom_site_fract_occupancy
 Au  Au1  1  0.75677  0.00000  -0.00000  1
 Au  Au2  1  0.24323  -0.00000  0.00000  1
 Cd  Cd1  1  0.50000  -0.00000  -0.00000  1
 Pd  Pd1  1  0.00000  0.00000  0.00000  1
