CIF file written using JARVIS-Tools package.
data_Zn2Ni3O8
_symmetry_space_group_name_H-M  'C2/m'
_cell_length_a       4.88405
_cell_length_b       5.66332
_cell_length_c       5.62064
_cell_angle_alpha    120.251
_cell_angle_beta     101.703
_cell_angle_gamma    90

_symmetry_Int_Tables_number  12
_chemical_formula_structural  Zn2Ni3O8
_chemical_formula_sum  Zn2Ni3O8
_cell_volume  130.5405425657767
_cell_formula_units_Z  1
loop_
  _symmetry_equiv_pos_site_id
 _symmetry_equiv_pos_as_xyz
 1  'x, y, z'
loop_
 _atom_site_type_symbol
 _atom_site_label
 _atom_site_symmetry_multiplicity
 _atom_site_fract_x
 _atom_site_fract_y
 _atom_site_fract_z
 _atom_site_fract_occupancy
 Ni  Ni1  1  0.50000  1.00000  -0.00000  1
 Ni  Ni2  1  1.00000  0.74875  -0.00000  1
 Ni  Ni3  1  1.00000  0.25125  0.00000  1
 O  O1  1  0.07831  0.39041  0.78082  1
 O  O2  1  0.92169  0.60959  0.21918  1
 O  O3  1  0.12054  0.89896  0.79792  1
 O  O4  1  0.87946  0.10104  0.20208  1
 O  O5  1  0.37053  0.33938  0.22711  1
 O  O6  1  0.37053  0.88774  0.22711  1
 O  O7  1  0.62947  0.11226  0.77289  1
 O  O8  1  0.62947  0.66062  0.77289  1
 Zn  Zn1  1  0.61358  0.70705  0.41409  1
 Zn  Zn2  1  0.38642  0.29295  0.58591  1
