CIF file written using JARVIS-Tools package.
data_AlH3O3
_symmetry_space_group_name_H-M  'P-1'
_cell_length_a       5.05811
_cell_length_b       5.21176
_cell_length_c       5.83548
_cell_angle_alpha    59.883
_cell_angle_beta     54.8381
_cell_angle_gamma    59.4756

_symmetry_Int_Tables_number  2
_chemical_formula_structural  AlH3O3
_chemical_formula_sum  Al2H6O6
_cell_volume  103.43972335288893
_cell_formula_units_Z  2
loop_
  _symmetry_equiv_pos_site_id
 _symmetry_equiv_pos_as_xyz
 1  'x, y, z'
loop_
 _atom_site_type_symbol
 _atom_site_label
 _atom_site_symmetry_multiplicity
 _atom_site_fract_x
 _atom_site_fract_y
 _atom_site_fract_z
 _atom_site_fract_occupancy
 Al  Al1  1  0.66771  0.66832  0.99200  1
 Al  Al2  1  0.33981  0.32133  0.00559  1
 H  H1  1  0.81665  0.17358  0.56723  1
 H  H2  1  0.19081  0.81608  0.43035  1
 H  H3  1  0.21399  0.36936  0.61088  1
 H  H4  1  0.79355  0.62028  0.38671  1
 H  H5  1  0.29780  0.87601  0.74387  1
 H  H6  1  0.70981  0.11364  0.25362  1
 O  O1  1  0.74666  0.06822  0.77886  1
 O  O2  1  0.26083  0.92144  0.21871  1
 O  O3  1  0.11654  0.45186  0.77222  1
 O  O4  1  0.89098  0.53781  0.22536  1
 O  O5  1  0.49314  0.69330  0.76348  1
 O  O6  1  0.51442  0.29634  0.23409  1
