CIF file written using JARVIS-Tools package.
data_LiGaHg2
_symmetry_space_group_name_H-M  'Immm'
_cell_length_a       11.4602
_cell_length_b       6.55731
_cell_length_c       6.5573
_cell_angle_alpha    25.3457
_cell_angle_beta     29.0912
_cell_angle_gamma    29.0913

_symmetry_Int_Tables_number  71
_chemical_formula_structural  LiGaHg2
_chemical_formula_sum  LiGaHg2
_cell_volume  93.8117492925616
_cell_formula_units_Z  1
loop_
  _symmetry_equiv_pos_site_id
 _symmetry_equiv_pos_as_xyz
 1  'x, y, z'
loop_
 _atom_site_type_symbol
 _atom_site_label
 _atom_site_symmetry_multiplicity
 _atom_site_fract_x
 _atom_site_fract_y
 _atom_site_fract_z
 _atom_site_fract_occupancy
 Ga  Ga1  1  0.50000  0.00000  0.00000  1
 Hg  Hg1  1  0.76083  0.00000  -0.00000  1
 Hg  Hg2  1  0.23917  -0.00000  0.00000  1
 Li  Li1  1  0.00000  0.00000  0.00000  1
