CIF file written using JARVIS-Tools package.
data_Al8Cr5
_symmetry_space_group_name_H-M  'R3m'
_cell_length_a       7.88914
_cell_length_b       7.88915
_cell_length_c       7.88915
_cell_angle_alpha    109.769
_cell_angle_beta     109.769
_cell_angle_gamma    109.769

_symmetry_Int_Tables_number  160
_chemical_formula_structural  Al8Cr5
_chemical_formula_sum  Al6Cr0
_cell_volume  373.7499378606407
_cell_formula_units_Z  2
loop_
  _symmetry_equiv_pos_site_id
 _symmetry_equiv_pos_as_xyz
 1  'x, y, z'
loop_
 _atom_site_type_symbol
 _atom_site_label
 _atom_site_symmetry_multiplicity
 _atom_site_fract_x
 _atom_site_fract_y
 _atom_site_fract_z
 _atom_site_fract_occupancy
 Al  Al1  1  0.69911  0.69911  0.69911  1
 Al  Al2  1  0.73371  0.38178  0.73371  1
 Al  Al3  1  0.64313  -0.00008  0.64313  1
 Al  Al4  1  0.64313  0.64313  -0.00008  1
 Al  Al5  1  0.33643  0.55543  0.33643  1
 Al  Al6  1  0.33643  0.33643  0.55543  1
 Al  Al7  1  0.55543  0.33643  0.33643  1
 Al  Al8  1  0.66712  0.04147  0.28306  1
 Al  Al9  1  -0.00008  0.64313  0.64313  1
 Al  Al10  1  0.38178  0.73371  0.73371  1
 Al  Al11  1  0.28306  0.66712  0.04147  1
 Al  Al12  1  0.04147  0.28306  0.66712  1
 Al  Al13  1  0.66712  0.28306  0.04147  1
 Al  Al14  1  0.04147  0.66712  0.28306  1
 Al  Al15  1  0.28306  0.04147  0.66712  1
 Al  Al16  1  0.73371  0.73371  0.38178  1
 Cr  Cr1  1  0.36363  0.36363  0.01745  1
 Cr  Cr2  1  0.14968  0.14968  0.14968  1
 Cr  Cr3  1  0.01922  0.01922  0.80042  1
 Cr  Cr4  1  0.01922  0.80042  0.01922  1
 Cr  Cr5  1  0.33053  0.98608  0.98608  1
 Cr  Cr6  1  0.98608  0.98608  0.33053  1
 Cr  Cr7  1  0.36363  0.01745  0.36363  1
 Cr  Cr8  1  0.80042  0.01922  0.01922  1
 Cr  Cr9  1  0.98608  0.33053  0.98608  1
 Cr  Cr10  1  0.01745  0.36363  0.36363  1
