CIF file written using JARVIS-Tools package.
data_AgBrO2
_symmetry_space_group_name_H-M  'P1'
_cell_length_a       4.39714
_cell_length_b       5.15558
_cell_length_c       4.42675
_cell_angle_alpha    89.9591
_cell_angle_beta     119.746
_cell_angle_gamma    87.9014

_symmetry_Int_Tables_number  1
_chemical_formula_structural  AgBrO2
_chemical_formula_sum  AgBrO2
_cell_volume  87.05102219209601
_cell_formula_units_Z  1
loop_
  _symmetry_equiv_pos_site_id
 _symmetry_equiv_pos_as_xyz
 1  'x, y, z'
loop_
 _atom_site_type_symbol
 _atom_site_label
 _atom_site_symmetry_multiplicity
 _atom_site_fract_x
 _atom_site_fract_y
 _atom_site_fract_z
 _atom_site_fract_occupancy
 Ag  Ag1  1  0.55364  0.86728  0.65672  1
 Br  Br1  1  0.88634  0.99971  0.32036  1
 O  O1  1  0.29874  0.50334  0.01907  1
 O  O2  1  0.97660  0.47082  0.86416  1
