CIF file written using JARVIS-Tools package.
data_NaCdPd2
_symmetry_space_group_name_H-M  'C2/m'
_cell_length_a       11.4577
_cell_length_b       7.68837
_cell_length_c       7.68862
_cell_angle_alpha    22.9457
_cell_angle_beta     19.2637
_cell_angle_gamma    19.2639

_symmetry_Int_Tables_number  12
_chemical_formula_structural  NaCdPd2
_chemical_formula_sum  NaCdPd2
_cell_volume  70.91913969408282
_cell_formula_units_Z  1
loop_
  _symmetry_equiv_pos_site_id
 _symmetry_equiv_pos_as_xyz
 1  'x, y, z'
loop_
 _atom_site_type_symbol
 _atom_site_label
 _atom_site_symmetry_multiplicity
 _atom_site_fract_x
 _atom_site_fract_y
 _atom_site_fract_z
 _atom_site_fract_occupancy
 Cd  Cd1  1  0.50000  -0.00000  -0.00000  1
 Na  Na1  1  0.00000  -0.00000  -0.00000  1
 Pd  Pd1  1  0.77169  -0.01550  -0.01552  1
 Pd  Pd2  1  0.22831  0.01550  0.01552  1
