CIF file written using JARVIS-Tools package.
data_CuB2C8N8
_symmetry_space_group_name_H-M  'C2/m'
_cell_length_a       5.92336
_cell_length_b       7.29047
_cell_length_c       7.51358
_cell_angle_alpha    119.022
_cell_angle_beta     93.5896
_cell_angle_gamma    90

_symmetry_Int_Tables_number  12
_chemical_formula_structural  CuB2C8N8
_chemical_formula_sum  CuB2C8N8
_cell_volume  282.9957188006537
_cell_formula_units_Z  1
loop_
  _symmetry_equiv_pos_site_id
 _symmetry_equiv_pos_as_xyz
 1  'x, y, z'
loop_
 _atom_site_type_symbol
 _atom_site_label
 _atom_site_symmetry_multiplicity
 _atom_site_fract_x
 _atom_site_fract_y
 _atom_site_fract_z
 _atom_site_fract_occupancy
 B  B1  1  0.13498  0.33375  0.66751  1
 B  B2  1  0.86502  0.66625  0.33249  1
 C  C1  1  0.24040  0.56655  0.77871  1
 C  C2  1  0.13138  0.66159  0.32317  1
 C  C3  1  0.24040  0.21216  0.77871  1
 C  C4  1  0.19870  0.21870  0.43740  1
 C  C5  1  0.75960  0.43345  0.22129  1
 C  C6  1  0.86862  0.33841  0.67683  1
 C  C7  1  0.80130  0.78130  0.56260  1
 C  C8  1  0.75960  0.78784  0.22129  1
 Cu  Cu1  1  0.50000  0.00000  0.00000  1
 N  N1  1  0.31824  0.73532  0.85798  1
 N  N2  1  0.67292  0.34044  0.68089  1
 N  N3  1  0.75704  0.86588  0.73176  1
 N  N4  1  0.31824  0.12266  0.85798  1
 N  N5  1  0.68176  0.87734  0.14202  1
 N  N6  1  0.24296  0.13412  0.26824  1
 N  N7  1  0.68176  0.26468  0.14202  1
 N  N8  1  0.32708  0.65956  0.31911  1
