CIF file written using JARVIS-Tools package.
data_MgTa2O6
_symmetry_space_group_name_H-M  'P4_2/mnm'
_cell_length_a       4.75671
_cell_length_b       4.75671
_cell_length_c       9.2578
_cell_angle_alpha    90
_cell_angle_beta     90
_cell_angle_gamma    90

_symmetry_Int_Tables_number  136
_chemical_formula_structural  MgTa2O6
_chemical_formula_sum  Mg2Ta4O2
_cell_volume  209.46928935879706
_cell_formula_units_Z  2
loop_
  _symmetry_equiv_pos_site_id
 _symmetry_equiv_pos_as_xyz
 1  'x, y, z'
loop_
 _atom_site_type_symbol
 _atom_site_label
 _atom_site_symmetry_multiplicity
 _atom_site_fract_x
 _atom_site_fract_y
 _atom_site_fract_z
 _atom_site_fract_occupancy
 Mg  Mg1  1  0.00000  0.00000  0.00000  1
 Mg  Mg2  1  0.50000  0.50000  0.50000  1
 O  O1  1  0.70209  0.70209  0.67528  1
 O  O2  1  0.29791  0.29791  0.67528  1
 O  O3  1  0.29791  0.29791  0.32472  1
 O  O4  1  0.20209  0.79791  0.17528  1
 O  O5  1  0.70209  0.70209  0.32472  1
 O  O6  1  0.79791  0.20209  0.82472  1
 O  O7  1  0.30981  0.30981  0.00000  1
 O  O8  1  0.19019  0.80981  0.50000  1
 O  O9  1  0.80981  0.19019  0.50000  1
 O  O10  1  0.69019  0.69019  0.00000  1
 O  O11  1  0.79791  0.20209  0.17528  1
 O  O12  1  0.20209  0.79791  0.82472  1
 Ta  Ta1  1  0.00000  0.00000  0.66782  1
 Ta  Ta2  1  0.50000  0.50000  0.16782  1
 Ta  Ta3  1  0.00000  0.00000  0.33218  1
 Ta  Ta4  1  0.50000  0.50000  0.83218  1
