CIF file written using JARVIS-Tools package.
data_ErTaO4
_symmetry_space_group_name_H-M  'C2/c'
_cell_length_a       5.07194
_cell_length_b       5.30086
_cell_length_c       6.48154
_cell_angle_alpha    111.847
_cell_angle_beta     110.66
_cell_angle_gamma    95.3944

_symmetry_Int_Tables_number  15
_chemical_formula_structural  ErTaO4
_chemical_formula_sum  Er2Ta2O8
_cell_volume  146.1617665602
_cell_formula_units_Z  2
loop_
  _symmetry_equiv_pos_site_id
 _symmetry_equiv_pos_as_xyz
 1  'x, y, z'
loop_
 _atom_site_type_symbol
 _atom_site_label
 _atom_site_symmetry_multiplicity
 _atom_site_fract_x
 _atom_site_fract_y
 _atom_site_fract_z
 _atom_site_fract_occupancy
 Er  Er1  1  0.38118  0.63118  0.26237  1
 Er  Er2  1  0.61882  0.36882  0.73763  1
 O  O1  1  0.00212  0.78548  0.06224  1
 O  O2  1  0.56012  0.27676  0.06224  1
 O  O3  1  0.99788  0.21452  0.93776  1
 O  O4  1  0.43988  0.72324  0.93776  1
 O  O5  1  0.21124  0.37146  0.42313  1
 O  O6  1  0.71189  0.05168  0.42313  1
 O  O7  1  0.78876  0.62854  0.57687  1
 O  O8  1  0.28811  0.94832  0.57687  1
 Ta  Ta1  1  0.85275  0.10275  0.20550  1
 Ta  Ta2  1  0.14725  0.89725  0.79450  1
