CIF file written using JARVIS-Tools package.
data_YbNbO4
_symmetry_space_group_name_H-M  'C2/c'
_cell_length_a       5.23725
_cell_length_b       5.2799
_cell_length_c       6.5467
_cell_angle_alpha    113.549
_cell_angle_beta     113.344
_cell_angle_gamma    90.5327

_symmetry_Int_Tables_number  15
_chemical_formula_structural  YbNbO4
_chemical_formula_sum  Yb2Nb2O8
_cell_volume  149.3185352934739
_cell_formula_units_Z  2
loop_
  _symmetry_equiv_pos_site_id
 _symmetry_equiv_pos_as_xyz
 1  'x, y, z'
loop_
 _atom_site_type_symbol
 _atom_site_label
 _atom_site_symmetry_multiplicity
 _atom_site_fract_x
 _atom_site_fract_y
 _atom_site_fract_z
 _atom_site_fract_occupancy
 Nb  Nb1  1  0.62737  0.87737  0.75473  1
 Nb  Nb2  1  0.37263  0.12263  0.24527  1
 O  O1  1  0.77012  0.96536  0.55963  1
 O  O2  1  0.28951  0.59426  0.55963  1
 O  O3  1  0.22988  0.03464  0.44037  1
 O  O4  1  0.71049  0.40574  0.44037  1
 O  O5  1  0.08763  0.26930  0.05827  1
 O  O6  1  0.47064  0.78897  0.05827  1
 O  O7  1  0.91237  0.73070  0.94173  1
 O  O8  1  0.52936  0.21103  0.94173  1
 Yb  Yb1  1  0.12471  0.37471  0.74943  1
 Yb  Yb2  1  0.87529  0.62529  0.25057  1
