CIF file written using JARVIS-Tools package.
data_K2CaC2O6
_symmetry_space_group_name_H-M  'R-3m'
_cell_length_a       6.71446
_cell_length_b       6.71446
_cell_length_c       6.71446
_cell_angle_alpha    47.6276
_cell_angle_beta     47.6276
_cell_angle_gamma    47.6276

_symmetry_Int_Tables_number  166
_chemical_formula_structural  K2CaC2O6
_chemical_formula_sum  K2CaC2O6
_cell_volume  151.23826015297666
_cell_formula_units_Z  1
loop_
  _symmetry_equiv_pos_site_id
 _symmetry_equiv_pos_as_xyz
 1  'x, y, z'
loop_
 _atom_site_type_symbol
 _atom_site_label
 _atom_site_symmetry_multiplicity
 _atom_site_fract_x
 _atom_site_fract_y
 _atom_site_fract_z
 _atom_site_fract_occupancy
 C  C1  1  0.58734  0.58734  0.58734  1
 C  C2  1  0.41266  0.41266  0.41266  1
 Ca  Ca1  1  0.00000  0.00000  0.00000  1
 K  K1  1  0.20955  0.20955  0.20955  1
 K  K2  1  0.79045  0.79045  0.79045  1
 O  O1  1  0.68957  0.27490  0.27490  1
 O  O2  1  0.27490  0.27490  0.68957  1
 O  O3  1  0.27490  0.68957  0.27490  1
 O  O4  1  0.72510  0.31043  0.72510  1
 O  O5  1  0.72510  0.72510  0.31043  1
 O  O6  1  0.31043  0.72510  0.72510  1
