CIF file written using JARVIS-Tools package.
data_MgB2H8
_symmetry_space_group_name_H-M  'Pmc2_1'
_cell_length_a       4.30641
_cell_length_b       5.33407
_cell_length_c       8.45007
_cell_angle_alpha    90
_cell_angle_beta     90
_cell_angle_gamma    90

_symmetry_Int_Tables_number  26
_chemical_formula_structural  MgB2H8
_chemical_formula_sum  Mg2B4H6
_cell_volume  194.10422029488586
_cell_formula_units_Z  2
loop_
  _symmetry_equiv_pos_site_id
 _symmetry_equiv_pos_as_xyz
 1  'x, y, z'
loop_
 _atom_site_type_symbol
 _atom_site_label
 _atom_site_symmetry_multiplicity
 _atom_site_fract_x
 _atom_site_fract_y
 _atom_site_fract_z
 _atom_site_fract_occupancy
 B  B1  1  0.00000  0.52715  0.24623  1
 B  B2  1  0.00000  0.47285  0.74623  1
 B  B3  1  0.50000  0.05528  0.97693  1
 B  B4  1  0.50000  0.94472  0.47693  1
 H  H1  1  0.50000  0.71808  0.44411  1
 H  H2  1  0.27821  -0.00331  0.56326  1
 H  H3  1  0.50000  0.06701  0.35696  1
 H  H4  1  0.50000  0.93299  0.85696  1
 H  H5  1  0.00000  0.40445  0.37006  1
 H  H6  1  0.75960  0.47547  0.17622  1
 H  H7  1  0.27821  0.00331  0.06326  1
 H  H8  1  0.00000  0.75518  0.26340  1
 H  H9  1  0.50000  0.28192  0.94411  1
 H  H10  1  0.00000  0.24482  0.76340  1
 H  H11  1  0.75960  0.52453  0.67622  1
 H  H12  1  0.72179  0.00331  0.06326  1
 H  H13  1  0.00000  0.59555  0.87006  1
 H  H14  1  0.72179  -0.00331  0.56326  1
 H  H15  1  0.24040  0.52453  0.67622  1
 H  H16  1  0.24040  0.47547  0.17622  1
 Mg  Mg1  1  0.00000  0.28361  0.00438  1
 Mg  Mg2  1  0.00000  0.71639  0.50438  1
