CIF file written using JARVIS-Tools package.
data_Li2PtAu
_symmetry_space_group_name_H-M  'Immm'
_cell_length_a       9.53074
_cell_length_b       5.5123
_cell_length_c       5.5123
_cell_angle_alpha    30.339
_cell_angle_beta     30.1746
_cell_angle_gamma    30.1745

_symmetry_Int_Tables_number  71
_chemical_formula_structural  Li2PtAu
_chemical_formula_sum  Li2PtAu
_cell_volume  65.04213605572602
_cell_formula_units_Z  1
loop_
  _symmetry_equiv_pos_site_id
 _symmetry_equiv_pos_as_xyz
 1  'x, y, z'
loop_
 _atom_site_type_symbol
 _atom_site_label
 _atom_site_symmetry_multiplicity
 _atom_site_fract_x
 _atom_site_fract_y
 _atom_site_fract_z
 _atom_site_fract_occupancy
 Au  Au1  1  0.50000  -0.00000  0.00000  1
 Li  Li1  1  0.75393  0.00000  1.00000  1
 Li  Li2  1  0.24607  1.00000  0.00000  1
 Pt  Pt1  1  0.00000  0.00000  0.00000  1
