CIF file written using JARVIS-Tools package.
data_Ba2YCu4O8
_symmetry_space_group_name_H-M  'Cmmm'
_cell_length_a       3.94657
_cell_length_b       3.75673
_cell_length_c       14.6037
_cell_angle_alpha    97.39
_cell_angle_beta     90
_cell_angle_gamma    90

_symmetry_Int_Tables_number  65
_chemical_formula_structural  Ba2YCu4O8
_chemical_formula_sum  Ba2YCu4O8
_cell_volume  214.71905942095438
_cell_formula_units_Z  1
loop_
  _symmetry_equiv_pos_site_id
 _symmetry_equiv_pos_as_xyz
 1  'x, y, z'
loop_
 _atom_site_type_symbol
 _atom_site_label
 _atom_site_symmetry_multiplicity
 _atom_site_fract_x
 _atom_site_fract_y
 _atom_site_fract_z
 _atom_site_fract_occupancy
 Ba  Ba1  1  0.50000  0.35868  0.71737  1
 Ba  Ba2  1  0.50000  0.64132  0.28263  1
 Cu  Cu1  1  0.00000  0.92549  0.85099  1
 Cu  Cu2  1  0.00000  0.07451  0.14901  1
 Cu  Cu3  1  0.00000  0.78654  0.57308  1
 Cu  Cu4  1  0.00000  0.21346  0.42692  1
 O  O1  1  0.00000  0.85113  0.70227  1
 O  O2  1  0.00000  0.14887  0.29773  1
 O  O3  1  0.00000  0.45570  0.91140  1
 O  O4  1  0.00000  0.54430  0.08860  1
 O  O5  1  0.50000  0.92519  0.85038  1
 O  O6  1  0.50000  0.07481  0.14962  1
 O  O7  1  0.00000  0.27960  0.55920  1
 O  O8  1  0.00000  0.72040  0.44080  1
 Y  Y1  1  0.50000  0.00000  0.00000  1
