CIF file written using JARVIS-Tools package.
data_CaCo2O4
_symmetry_space_group_name_H-M  'C2/m'
_cell_length_a       2.90844
_cell_length_b       7.01377
_cell_length_c       8.19337
_cell_angle_alpha    69.5451
_cell_angle_beta     79.7753
_cell_angle_gamma    78.0329

_symmetry_Int_Tables_number  12
_chemical_formula_structural  CaCo2O4
_chemical_formula_sum  Ca2Co4O8
_cell_volume  152.18639481650084
_cell_formula_units_Z  2
loop_
  _symmetry_equiv_pos_site_id
 _symmetry_equiv_pos_as_xyz
 1  'x, y, z'
loop_
 _atom_site_type_symbol
 _atom_site_label
 _atom_site_symmetry_multiplicity
 _atom_site_fract_x
 _atom_site_fract_y
 _atom_site_fract_z
 _atom_site_fract_occupancy
 Ca  Ca1  1  0.61397  0.90878  0.85534  1
 Ca  Ca2  1  0.38369  0.05815  0.16655  1
 Co  Co1  1  0.41985  0.36989  0.78251  1
 Co  Co2  1  0.83693  0.78702  0.53121  1
 Co  Co3  1  0.16074  0.17992  0.49067  1
 Co  Co4  1  0.57782  0.59705  0.23937  1
 O  O1  1  0.13016  0.42388  0.30786  1
 O  O2  1  0.57146  0.22802  0.62112  1
 O  O3  1  0.42621  0.73892  0.40076  1
 O  O4  1  0.86751  0.54305  0.71403  1
 O  O5  1  0.94096  0.18912  -0.07894  1
 O  O6  1  0.22983  0.88621  0.64622  1
 O  O7  1  0.05671  0.77782  0.10083  1
 O  O8  1  0.76784  0.08072  0.37567  1
