CIF file written using JARVIS-Tools package.
data_SrNb6O16
_symmetry_space_group_name_H-M  'Amm2'
_cell_length_a       3.92242
_cell_length_b       9.15761
_cell_length_c       9.15761
_cell_angle_alpha    110.144
_cell_angle_beta     90
_cell_angle_gamma    90

_symmetry_Int_Tables_number  38
_chemical_formula_structural  SrNb6O16
_chemical_formula_sum  SrNb6O6
_cell_volume  308.820948699324
_cell_formula_units_Z  1
loop_
  _symmetry_equiv_pos_site_id
 _symmetry_equiv_pos_as_xyz
 1  'x, y, z'
loop_
 _atom_site_type_symbol
 _atom_site_label
 _atom_site_symmetry_multiplicity
 _atom_site_fract_x
 _atom_site_fract_y
 _atom_site_fract_z
 _atom_site_fract_occupancy
 Nb  Nb1  1  0.00000  0.62740  0.99989  1
 Nb  Nb2  1  0.00000  0.20784  0.79216  1
 Nb  Nb3  1  0.00000  0.74152  0.62121  1
 Nb  Nb4  1  0.00000  0.37879  0.25848  1
 Nb  Nb5  1  0.00000  0.00011  0.37260  1
 Nb  Nb6  1  0.00000  0.99422  0.00578  1
 O  O1  1  0.00000  0.50992  0.49008  1
 O  O2  1  0.00000  0.85724  0.14276  1
 O  O3  1  0.00000  0.53675  0.16954  1
 O  O4  1  0.00000  0.83046  0.46325  1
 O  O5  1  0.00000  0.76168  0.85435  1
 O  O6  1  0.00000  0.14565  0.23832  1
 O  O7  1  0.00000  0.44285  0.81158  1
 O  O8  1  0.50000  0.00380  0.99620  1
 O  O9  1  0.50000  0.99835  0.37424  1
 O  O10  1  0.50000  0.70733  0.63359  1
 O  O11  1  0.50000  0.36641  0.29267  1
 O  O12  1  0.50000  0.62576  0.00165  1
 O  O13  1  0.00000  0.98579  0.76324  1
 O  O14  1  0.00000  0.23676  0.01421  1
 O  O15  1  0.00000  0.18842  0.55715  1
 O  O16  1  0.50000  0.22447  0.77553  1
 Sr  Sr1  1  0.50000  0.39850  0.60150  1
