CIF file written using JARVIS-Tools package.
data_TiI3
_symmetry_space_group_name_H-M  'Pmmn'
_cell_length_a       6.41356
_cell_length_b       7.15147
_cell_length_c       12.3722
_cell_angle_alpha    90
_cell_angle_beta     90
_cell_angle_gamma    90

_symmetry_Int_Tables_number  59
_chemical_formula_structural  TiI3
_chemical_formula_sum  Ti4I2
_cell_volume  567.4663071013043
_cell_formula_units_Z  4
loop_
  _symmetry_equiv_pos_site_id
 _symmetry_equiv_pos_as_xyz
 1  'x, y, z'
loop_
 _atom_site_type_symbol
 _atom_site_label
 _atom_site_symmetry_multiplicity
 _atom_site_fract_x
 _atom_site_fract_y
 _atom_site_fract_z
 _atom_site_fract_occupancy
 I  I1  1  0.50000  0.59004  0.33698  1
 I  I2  1  0.00000  0.40996  0.16302  1
 I  I3  1  0.50000  0.59004  0.66302  1
 I  I4  1  0.00000  0.40996  0.83698  1
 I  I5  1  0.50000  0.09021  0.84286  1
 I  I6  1  0.00000  0.90979  0.65714  1
 I  I7  1  0.50000  0.09021  0.15714  1
 I  I8  1  0.00000  0.90979  0.34286  1
 I  I9  1  0.50000  0.07894  0.50000  1
 I  I10  1  0.00000  0.92106  0.00000  1
 I  I11  1  0.50000  0.56087  0.00000  1
 I  I12  1  0.00000  0.43913  0.50000  1
 Ti  Ti1  1  0.72856  0.75342  0.50000  1
 Ti  Ti2  1  0.22856  0.24658  0.00000  1
 Ti  Ti3  1  0.27144  0.75342  0.50000  1
 Ti  Ti4  1  0.77144  0.24658  0.00000  1
