CIF file written using JARVIS-Tools package.
data_InBi2Se4Br
_symmetry_space_group_name_H-M  'C2/m'
_cell_length_a       4.16311
_cell_length_b       10.718
_cell_length_c       11.772
_cell_angle_alpha    64.7026
_cell_angle_beta     79.8154
_cell_angle_gamma    78.8014

_symmetry_Int_Tables_number  12
_chemical_formula_structural  InBi2Se4Br
_chemical_formula_sum  In2Bi4Se8Br2
_cell_volume  463.2416010454119
_cell_formula_units_Z  2
loop_
  _symmetry_equiv_pos_site_id
 _symmetry_equiv_pos_as_xyz
 1  'x, y, z'
loop_
 _atom_site_type_symbol
 _atom_site_label
 _atom_site_symmetry_multiplicity
 _atom_site_fract_x
 _atom_site_fract_y
 _atom_site_fract_z
 _atom_site_fract_occupancy
 Bi  Bi1  1  0.79740  0.30310  0.10211  1
 Bi  Bi2  1  0.20260  0.69690  0.89789  1
 Bi  Bi3  1  0.54951  0.66735  0.23362  1
 Bi  Bi4  1  0.45049  0.33265  0.76638  1
 Br  Br1  1  0.60098  0.33055  0.46750  1
 Br  Br2  1  0.39902  0.66945  0.53250  1
 In  In1  1  0.16189  0.11108  0.56514  1
 In  In2  1  0.83811  0.88892  0.43486  1
 Se  Se1  1  0.03887  0.14008  0.78218  1
 Se  Se2  1  0.82251  0.50135  0.85362  1
 Se  Se3  1  0.28339  0.08653  0.34668  1
 Se  Se4  1  0.40481  0.16637  0.02401  1
 Se  Se5  1  0.59519  0.83363  0.97599  1
 Se  Se6  1  0.17749  0.49865  0.14638  1
 Se  Se7  1  0.96113  0.85992  0.21782  1
 Se  Se8  1  0.71661  0.91347  0.65332  1
