CIF file written using JARVIS-Tools package.
data_LiDyO2
_symmetry_space_group_name_H-M  'P2_1/c'
_cell_length_a       6.22408
_cell_length_b       6.10361
_cell_length_c       6.33715
_cell_angle_alpha    90
_cell_angle_beta     119.58
_cell_angle_gamma    90

_symmetry_Int_Tables_number  14
_chemical_formula_structural  LiDyO2
_chemical_formula_sum  Li4Dy4O8
_cell_volume  209.36660204524898
_cell_formula_units_Z  4
loop_
  _symmetry_equiv_pos_site_id
 _symmetry_equiv_pos_as_xyz
 1  'x, y, z'
loop_
 _atom_site_type_symbol
 _atom_site_label
 _atom_site_symmetry_multiplicity
 _atom_site_fract_x
 _atom_site_fract_y
 _atom_site_fract_z
 _atom_site_fract_occupancy
 Dy  Dy1  1  0.22982  0.86749  0.97293  1
 Dy  Dy2  1  0.22982  0.63251  0.47293  1
 Dy  Dy3  1  0.77018  0.13251  0.02707  1
 Dy  Dy4  1  0.77018  0.36749  0.52707  1
 Li  Li1  1  0.30004  0.33993  0.07695  1
 Li  Li2  1  0.69996  0.83993  0.42305  1
 Li  Li3  1  0.69996  0.66007  0.92305  1
 Li  Li4  1  0.30004  0.16007  0.57695  1
 O  O1  1  0.45079  0.60567  0.26175  1
 O  O2  1  0.98097  0.81970  0.14153  1
 O  O3  1  0.54921  0.10567  0.23825  1
 O  O4  1  0.54921  0.39433  0.73825  1
 O  O5  1  0.01903  0.18030  0.85847  1
 O  O6  1  0.01903  0.31970  0.35847  1
 O  O7  1  0.98097  0.68030  0.64153  1
 O  O8  1  0.45079  0.89433  0.76175  1
