CIF file written using JARVIS-Tools package.
data_CaCr2F10
_symmetry_space_group_name_H-M  'C2'
_cell_length_a       5.46026
_cell_length_b       5.46026
_cell_length_c       7.40745
_cell_angle_alpha    69.7265
_cell_angle_beta     69.7264
_cell_angle_gamma    72.313

_symmetry_Int_Tables_number  5
_chemical_formula_structural  CaCr2F10
_chemical_formula_sum  CaCr2F0
_cell_volume  190.04833119893559
_cell_formula_units_Z  1
loop_
  _symmetry_equiv_pos_site_id
 _symmetry_equiv_pos_as_xyz
 1  'x, y, z'
loop_
 _atom_site_type_symbol
 _atom_site_label
 _atom_site_symmetry_multiplicity
 _atom_site_fract_x
 _atom_site_fract_y
 _atom_site_fract_z
 _atom_site_fract_occupancy
 Ca  Ca1  1  0.45801  0.54199  0.25000  1
 Cr  Cr1  1  0.01043  0.00953  0.99127  1
 Cr  Cr2  1  0.99047  0.98957  0.50873  1
 F  F1  1  0.81179  0.73319  0.62538  1
 F  F2  1  0.26681  0.18821  0.87462  1
 F  F3  1  0.17572  0.26355  0.37797  1
 F  F4  1  0.73645  0.82428  0.12203  1
 F  F5  1  0.92494  0.07506  0.75000  1
 F  F6  1  0.07962  0.92038  0.25000  1
 F  F7  1  0.76245  0.30930  0.03836  1
 F  F8  1  0.69070  0.23755  0.46164  1
 F  F9  1  0.24489  0.69419  0.97825  1
 F  F10  1  0.30581  0.75511  0.52175  1
