CIF file written using JARVIS-Tools package.
data_MnAlO3
_symmetry_space_group_name_H-M  'Pnma'
_cell_length_a       4.83319
_cell_length_b       4.94037
_cell_length_c       8.26932
_cell_angle_alpha    90.0054
_cell_angle_beta     89.9989
_cell_angle_gamma    90.0009

_symmetry_Int_Tables_number  62
_chemical_formula_structural  MnAlO3
_chemical_formula_sum  Mn4Al4O2
_cell_volume  197.4530315674397
_cell_formula_units_Z  4
loop_
  _symmetry_equiv_pos_site_id
 _symmetry_equiv_pos_as_xyz
 1  'x, y, z'
loop_
 _atom_site_type_symbol
 _atom_site_label
 _atom_site_symmetry_multiplicity
 _atom_site_fract_x
 _atom_site_fract_y
 _atom_site_fract_z
 _atom_site_fract_occupancy
 Al  Al1  1  0.01607  0.00831  0.24998  1
 Al  Al2  1  0.51606  0.49170  0.75000  1
 Al  Al3  1  0.48393  0.50831  0.24998  1
 Al  Al4  1  0.98394  0.99170  0.75001  1
 Mn  Mn1  1  0.00001  0.50001  0.49997  1
 Mn  Mn2  1  0.49999  -0.00000  0.49999  1
 Mn  Mn3  1  0.50002  0.00000  0.99998  1
 Mn  Mn4  1  0.99998  0.49999  0.99997  1
 O  O1  1  0.33834  0.32470  0.58363  1
 O  O2  1  0.64759  0.83351  0.75002  1
 O  O3  1  0.16164  0.82470  0.91637  1
 O  O4  1  0.66165  0.67533  0.08364  1
 O  O5  1  0.83838  0.17526  0.41637  1
 O  O6  1  0.85241  0.33351  0.75004  1
 O  O7  1  0.83836  0.17532  0.08364  1
 O  O8  1  0.33836  0.32470  0.91636  1
 O  O9  1  0.66162  0.67526  0.41638  1
 O  O10  1  0.35243  0.16650  0.24999  1
 O  O11  1  0.16165  0.82470  0.58365  1
 O  O12  1  0.14758  0.66650  0.25002  1
