CIF file written using JARVIS-Tools package.
data_BaNa2Pb
_symmetry_space_group_name_H-M  'C2/m'
_cell_length_a       14.9343
_cell_length_b       9.18613
_cell_length_c       9.18247
_cell_angle_alpha    38.7193
_cell_angle_beta     22.263
_cell_angle_gamma    22.244

_symmetry_Int_Tables_number  12
_chemical_formula_structural  BaNa2Pb
_chemical_formula_sum  BaNa2Pb
_cell_volume  152.92891860409662
_cell_formula_units_Z  1
loop_
  _symmetry_equiv_pos_site_id
 _symmetry_equiv_pos_as_xyz
 1  'x, y, z'
loop_
 _atom_site_type_symbol
 _atom_site_label
 _atom_site_symmetry_multiplicity
 _atom_site_fract_x
 _atom_site_fract_y
 _atom_site_fract_z
 _atom_site_fract_occupancy
 Ba  Ba1  1  -0.00000  0.00000  0.00000  1
 Na  Na1  1  0.63034  0.07951  0.07959  1
 Na  Na2  1  0.36966  -0.07951  -0.07959  1
 Pb  Pb1  1  0.50000  0.00000  0.00000  1
