CIF file written using JARVIS-Tools package.
data_Nd3UCl3O6
_symmetry_space_group_name_H-M  'P6_3/m'
_cell_length_a       9.40946
_cell_length_b       9.40946
_cell_length_c       5.56829
_cell_angle_alpha    90
_cell_angle_beta     90
_cell_angle_gamma    120

_symmetry_Int_Tables_number  176
_chemical_formula_structural  Nd3UCl3O6
_chemical_formula_sum  Nd6U2Cl6O2
_cell_volume  426.9548175949326
_cell_formula_units_Z  2
loop_
  _symmetry_equiv_pos_site_id
 _symmetry_equiv_pos_as_xyz
 1  'x, y, z'
loop_
 _atom_site_type_symbol
 _atom_site_label
 _atom_site_symmetry_multiplicity
 _atom_site_fract_x
 _atom_site_fract_y
 _atom_site_fract_z
 _atom_site_fract_occupancy
 Cl  Cl1  1  0.18766  0.24662  0.25000  1
 Cl  Cl2  1  0.24662  0.05896  0.75000  1
 Cl  Cl3  1  0.94104  0.18766  0.75000  1
 Cl  Cl4  1  0.75338  0.94104  0.25000  1
 Cl  Cl5  1  0.05896  0.81234  0.25000  1
 Cl  Cl6  1  0.81234  0.75338  0.75000  1
 Nd  Nd1  1  0.59602  0.90806  0.75000  1
 Nd  Nd2  1  0.90806  0.31204  0.25000  1
 Nd  Nd3  1  0.68796  0.59602  0.25000  1
 Nd  Nd4  1  0.31204  0.40398  0.75000  1
 Nd  Nd5  1  0.09194  0.68796  0.75000  1
 Nd  Nd6  1  0.40398  0.09194  0.25000  1
 O  O1  1  0.15054  0.51505  0.00464  1
 O  O2  1  0.84946  0.48495  0.50464  1
 O  O3  1  0.48495  0.63549  0.00464  1
 O  O4  1  0.36451  0.84946  0.49536  1
 O  O5  1  0.48495  0.63549  0.49536  1
 O  O6  1  0.36451  0.84946  0.00464  1
 O  O7  1  0.63549  0.15054  0.99536  1
 O  O8  1  0.51505  0.36451  0.99536  1
 O  O9  1  0.63549  0.15054  0.50464  1
 O  O10  1  0.51505  0.36451  0.50464  1
 O  O11  1  0.15054  0.51505  0.49536  1
 O  O12  1  0.84946  0.48495  0.99536  1
 U  U1  1  0.66667  0.33333  0.75000  1
 U  U2  1  0.33333  0.66667  0.25000  1
