CIF file written using JARVIS-Tools package.
data_Li2CuPd
_symmetry_space_group_name_H-M  'Immm'
_cell_length_a       9.66065
_cell_length_b       9.51729
_cell_length_c       9.5173
_cell_angle_alpha    59.9627
_cell_angle_beta     59.5005
_cell_angle_gamma    59.5005

_symmetry_Int_Tables_number  71
_chemical_formula_structural  Li2CuPd
_chemical_formula_sum  Li2CuPd
_cell_volume  613.8712301803632
_cell_formula_units_Z  1
loop_
  _symmetry_equiv_pos_site_id
 _symmetry_equiv_pos_as_xyz
 1  'x, y, z'
loop_
 _atom_site_type_symbol
 _atom_site_label
 _atom_site_symmetry_multiplicity
 _atom_site_fract_x
 _atom_site_fract_y
 _atom_site_fract_z
 _atom_site_fract_occupancy
 Cu  Cu1  1  0.00000  0.00000  0.00000  1
 Li  Li1  1  0.74701  0.00000  0.00000  1
 Li  Li2  1  0.25299  -0.00000  -0.00000  1
 Pd  Pd1  1  0.50000  0.00000  -0.00000  1
