CIF file written using JARVIS-Tools package.
data_AgSb2F12
_symmetry_space_group_name_H-M  'P-1'
_cell_length_a       5.10053
_cell_length_b       5.45232
_cell_length_c       8.72719
_cell_angle_alpha    103.903
_cell_angle_beta     88.954
_cell_angle_gamma    113.4

_symmetry_Int_Tables_number  2
_chemical_formula_structural  AgSb2F12
_chemical_formula_sum  AgSb2F2
_cell_volume  215.40236334550187
_cell_formula_units_Z  1
loop_
  _symmetry_equiv_pos_site_id
 _symmetry_equiv_pos_as_xyz
 1  'x, y, z'
loop_
 _atom_site_type_symbol
 _atom_site_label
 _atom_site_symmetry_multiplicity
 _atom_site_fract_x
 _atom_site_fract_y
 _atom_site_fract_z
 _atom_site_fract_occupancy
 Ag  Ag1  1  0.50000  0.50000  0.50000  1
 F  F1  1  0.79842  0.76129  0.36893  1
 F  F2  1  0.20158  0.23871  0.63107  1
 F  F3  1  0.34064  0.75487  0.22669  1
 F  F4  1  0.31981  0.77338  0.87155  1
 F  F5  1  0.68019  0.22662  0.12845  1
 F  F6  1  0.86064  0.80111  0.72240  1
 F  F7  1  0.13936  0.19889  0.27760  1
 F  F8  1  0.29692  0.78187  0.56486  1
 F  F9  1  0.70308  0.21813  0.43514  1
 F  F10  1  0.19930  0.25486  0.95307  1
 F  F11  1  0.80070  0.74514  0.04693  1
 F  F12  1  0.65936  0.24513  0.77331  1
 Sb  Sb1  1  0.26409  0.02354  0.77273  1
 Sb  Sb2  1  0.73591  0.97646  0.22727  1
