CIF file written using JARVIS-Tools package.
data_Te2MoW2Se2S2
_symmetry_space_group_name_H-M  'Cm'
_cell_length_a       3.35842
_cell_length_b       3.35893
_cell_length_c       26.1082
_cell_angle_alpha    90.0994
_cell_angle_beta     90
_cell_angle_gamma    119.995

_symmetry_Int_Tables_number  8
_chemical_formula_structural  Te2MoW2Se2S2
_chemical_formula_sum  Te2MoW2Se2S2
_cell_volume  255.0729855403798
_cell_formula_units_Z  1
loop_
  _symmetry_equiv_pos_site_id
 _symmetry_equiv_pos_as_xyz
 1  'x, y, z'
loop_
 _atom_site_type_symbol
 _atom_site_label
 _atom_site_symmetry_multiplicity
 _atom_site_fract_x
 _atom_site_fract_y
 _atom_site_fract_z
 _atom_site_fract_occupancy
 Mo  Mo1  1  0.66610  0.33220  0.34150  1
 S  S1  1  0.33367  0.66734  0.39946  1
 S  S2  1  0.33251  0.66502  0.28355  1
 Se  Se1  1  0.66678  0.33355  0.03697  1
 Se  Se2  1  0.66758  0.33516  0.16494  1
 Te  Te1  1  0.66550  0.33100  0.52539  1
 Te  Te2  1  0.66732  0.33463  0.67155  1
 W  W1  1  0.33388  0.66775  0.10092  1
 W  W2  1  0.33327  0.66654  0.59858  1
