CIF file written using JARVIS-Tools package.
data_MgGa
_symmetry_space_group_name_H-M  'Pmmn'
_cell_length_a       3.15612
_cell_length_b       5.25521
_cell_length_c       4.7911
_cell_angle_alpha    90
_cell_angle_beta     90
_cell_angle_gamma    90

_symmetry_Int_Tables_number  59
_chemical_formula_structural  MgGa
_chemical_formula_sum  Mg2Ga2
_cell_volume  79.46561851948174
_cell_formula_units_Z  2
loop_
  _symmetry_equiv_pos_site_id
 _symmetry_equiv_pos_as_xyz
 1  'x, y, z'
loop_
 _atom_site_type_symbol
 _atom_site_label
 _atom_site_symmetry_multiplicity
 _atom_site_fract_x
 _atom_site_fract_y
 _atom_site_fract_z
 _atom_site_fract_occupancy
 Ga  Ga1  1  0.00000  0.00000  0.09844  1
 Ga  Ga2  1  0.50000  0.50000  0.90156  1
 Mg  Mg1  1  0.50000  0.00000  0.60542  1
 Mg  Mg2  1  0.00000  0.50000  0.39458  1
