CIF file written using JARVIS-Tools package.
data_Bi2SO2
_symmetry_space_group_name_H-M  'Pnnm'
_cell_length_a       3.86978
_cell_length_b       3.88137
_cell_length_c       12.0972
_cell_angle_alpha    90
_cell_angle_beta     90
_cell_angle_gamma    90

_symmetry_Int_Tables_number  58
_chemical_formula_structural  Bi2SO2
_chemical_formula_sum  Bi4S2O4
_cell_volume  181.7007996326243
_cell_formula_units_Z  2
loop_
  _symmetry_equiv_pos_site_id
 _symmetry_equiv_pos_as_xyz
 1  'x, y, z'
loop_
 _atom_site_type_symbol
 _atom_site_label
 _atom_site_symmetry_multiplicity
 _atom_site_fract_x
 _atom_site_fract_y
 _atom_site_fract_z
 _atom_site_fract_occupancy
 Bi  Bi1  1  0.50000  0.45207  0.85687  1
 Bi  Bi2  1  0.50000  0.54793  0.14313  1
 Bi  Bi3  1  0.00000  0.95207  0.64313  1
 Bi  Bi4  1  0.00000  0.04793  0.35687  1
 O  O1  1  0.00000  0.46411  0.74968  1
 O  O2  1  0.00000  0.53589  0.25032  1
 O  O3  1  0.50000  0.96411  0.75032  1
 O  O4  1  0.50000  0.03589  0.24968  1
 S  S1  1  0.00000  0.00000  0.00000  1
 S  S2  1  0.50000  0.50000  0.50000  1
