data_image0
_chemical_formula_structural       PdS6Ta2
_chemical_formula_sum              "Pd1 S6 Ta2"
_cell_length_a       3.28231
_cell_length_b       6.41508
_cell_length_c       9.32175
_cell_angle_alpha    96.7556
_cell_angle_beta     100.14
_cell_angle_gamma    104.823

_space_group_name_H-M_alt    "P 1"
_space_group_IT_number       1

loop_
  _space_group_symop_operation_xyz
  'x, y, z'

loop_
  _atom_site_type_symbol
  _atom_site_label
  _atom_site_symmetry_multiplicity
  _atom_site_fract_x
  _atom_site_fract_y
  _atom_site_fract_z
  _atom_site_occupancy
  Pd  Pd1       1.0  0.00000  0.00000  0.00000  1.0000
  S   S1        1.0  0.91500  0.70200  0.12900  1.0000
  S   S2        1.0  0.22500  0.20900  0.24100  1.0000
  S   S3        1.0  0.12500  0.79000  0.46000  1.0000
  S   S4        1.0  0.87500  0.21000  0.54000  1.0000
  S   S5        1.0  0.77500  0.79100  0.75900  1.0000
  S   S6        1.0  0.08460  0.29800  0.87100  1.0000
  Ta  Ta1       1.0  0.61000  0.92700  0.29300  1.0000
  Ta  Ta2       1.0  0.39000  0.07260  0.70700  1.0000
