CIF file written using JARVIS-Tools package.
data_V2Zn2O5
_symmetry_space_group_name_H-M  'Pbam'
_cell_length_a       7.48512
_cell_length_b       3.26596
_cell_length_c       10.2979
_cell_angle_alpha    90
_cell_angle_beta     89.9974
_cell_angle_gamma    90

_symmetry_Int_Tables_number  55
_chemical_formula_structural  V2Zn2O5
_chemical_formula_sum  V4Zn4O0
_cell_volume  251.74401871828513
_cell_formula_units_Z  2
loop_
  _symmetry_equiv_pos_site_id
 _symmetry_equiv_pos_as_xyz
 1  'x, y, z'
loop_
 _atom_site_type_symbol
 _atom_site_label
 _atom_site_symmetry_multiplicity
 _atom_site_fract_x
 _atom_site_fract_y
 _atom_site_fract_z
 _atom_site_fract_occupancy
 O  O1  1  0.83187  0.50000  0.43581  1
 O  O2  1  0.00005  0.00000  -0.00006  1
 O  O3  1  0.84738  0.00000  0.71708  1
 O  O4  1  0.34738  0.00000  0.78292  1
 O  O5  1  0.50005  0.00000  0.50006  1
 O  O6  1  0.66813  0.50000  0.93583  1
 O  O7  1  0.33187  0.50000  0.06418  1
 O  O8  1  0.15261  0.00000  0.28291  1
 O  O9  1  0.16812  0.50000  0.56417  1
 O  O10  1  0.65260  0.00000  0.21709  1
 V  V1  1  0.19295  0.00000  0.10265  1
 V  V2  1  0.80704  0.00000  0.89733  1
 V  V3  1  0.30703  0.00000  0.60267  1
 V  V4  1  0.69296  0.00000  0.39734  1
 Zn  Zn1  1  0.90641  0.50000  0.62894  1
 Zn  Zn2  1  0.09357  0.50000  0.37105  1
 Zn  Zn3  1  0.40641  0.50000  0.87106  1
 Zn  Zn4  1  0.59356  0.50000  0.12895  1
