CIF file written using JARVIS-Tools package.
data_Sr2PdPt
_symmetry_space_group_name_H-M  'Immm'
_cell_length_a       11.0406
_cell_length_b       6.33984
_cell_length_c       6.33984
_cell_angle_alpha    38.9851
_cell_angle_beta     29.4559
_cell_angle_gamma    29.456

_symmetry_Int_Tables_number  71
_chemical_formula_structural  Sr2PdPt
_chemical_formula_sum  Sr2PdPt
_cell_volume  106.97523778801678
_cell_formula_units_Z  1
loop_
  _symmetry_equiv_pos_site_id
 _symmetry_equiv_pos_as_xyz
 1  'x, y, z'
loop_
 _atom_site_type_symbol
 _atom_site_label
 _atom_site_symmetry_multiplicity
 _atom_site_fract_x
 _atom_site_fract_y
 _atom_site_fract_z
 _atom_site_fract_occupancy
 Pd  Pd1  1  0.00000  0.00000  0.00000  1
 Pt  Pt1  1  0.50000  0.00000  0.00000  1
 Sr  Sr1  1  0.75589  0.00000  -0.00000  1
 Sr  Sr2  1  0.24411  -0.00000  0.00000  1
