CIF file written using JARVIS-Tools package.
data_AlCoO3
_symmetry_space_group_name_H-M  'Pnma'
_cell_length_a       4.72223
_cell_length_b       4.91839
_cell_length_c       7.36106
_cell_angle_alpha    90
_cell_angle_beta     90
_cell_angle_gamma    90

_symmetry_Int_Tables_number  62
_chemical_formula_structural  AlCoO3
_chemical_formula_sum  Al4Co4O2
_cell_volume  170.96630435854874
_cell_formula_units_Z  4
loop_
  _symmetry_equiv_pos_site_id
 _symmetry_equiv_pos_as_xyz
 1  'x, y, z'
loop_
 _atom_site_type_symbol
 _atom_site_label
 _atom_site_symmetry_multiplicity
 _atom_site_fract_x
 _atom_site_fract_y
 _atom_site_fract_z
 _atom_site_fract_occupancy
 Al  Al1  1  0.03154  0.93025  0.75000  1
 Al  Al2  1  0.53154  0.56975  0.25000  1
 Al  Al3  1  0.46846  0.43025  0.75000  1
 Al  Al4  1  0.96846  0.06975  0.25000  1
 Co  Co1  1  0.00000  0.50000  0.50000  1
 Co  Co2  1  0.50000  0.00000  0.50000  1
 Co  Co3  1  0.50000  0.00000  0.00000  1
 Co  Co4  1  0.00000  0.50000  0.00000  1
 O  O1  1  0.68554  0.31081  0.41298  1
 O  O2  1  0.34331  0.91517  0.25000  1
 O  O3  1  0.81446  0.81081  0.08702  1
 O  O4  1  0.31446  0.68919  0.91298  1
 O  O5  1  0.18554  0.18919  0.58702  1
 O  O6  1  0.15669  0.41517  0.25000  1
 O  O7  1  0.18554  0.18919  0.91298  1
 O  O8  1  0.68554  0.31081  0.08702  1
 O  O9  1  0.31446  0.68919  0.58702  1
 O  O10  1  0.65669  0.08483  0.75000  1
 O  O11  1  0.81446  0.81081  0.41298  1
 O  O12  1  0.84331  0.58483  0.75000  1
