CIF file written using JARVIS-Tools package.
data_CuSe
_symmetry_space_group_name_H-M  'Cmcm'
_cell_length_a       3.97103
_cell_length_b       4.06316
_cell_length_c       17.2874
_cell_angle_alpha    90
_cell_angle_beta     90
_cell_angle_gamma    119.253

_symmetry_Int_Tables_number  63
_chemical_formula_structural  CuSe
_chemical_formula_sum  Cu6Se6
_cell_volume  243.36027540632324
_cell_formula_units_Z  6
loop_
  _symmetry_equiv_pos_site_id
 _symmetry_equiv_pos_as_xyz
 1  'x, y, z'
loop_
 _atom_site_type_symbol
 _atom_site_label
 _atom_site_symmetry_multiplicity
 _atom_site_fract_x
 _atom_site_fract_y
 _atom_site_fract_z
 _atom_site_fract_occupancy
 Cu  Cu1  1  0.65096  0.30191  0.11116  1
 Cu  Cu2  1  0.34904  0.69809  0.88884  1
 Cu  Cu3  1  0.34904  0.69809  0.61116  1
 Cu  Cu4  1  0.65096  0.30191  0.38884  1
 Cu  Cu5  1  0.57441  0.14881  0.75000  1
 Cu  Cu6  1  0.42559  0.85119  0.25000  1
 Se  Se1  1  0.24776  0.49553  0.75000  1
 Se  Se2  1  0.75224  0.50447  0.25000  1
 Se  Se3  1  0.01608  0.03216  0.57018  1
 Se  Se4  1  0.98392  0.96784  0.07018  1
 Se  Se5  1  0.01608  0.03216  0.92982  1
 Se  Se6  1  0.98392  0.96784  0.42982  1
