CIF file written using JARVIS-Tools package.
data_MnBeRu2
_symmetry_space_group_name_H-M  'I4/mmm'
_cell_length_a       12.0321
_cell_length_b       6.36498
_cell_length_c       6.36498
_cell_angle_alpha    26.7098
_cell_angle_beta     19.0592
_cell_angle_gamma    19.0591

_symmetry_Int_Tables_number  139
_chemical_formula_structural  MnBeRu2
_chemical_formula_sum  MnBeRu2
_cell_volume  51.9780082100437
_cell_formula_units_Z  1
loop_
  _symmetry_equiv_pos_site_id
 _symmetry_equiv_pos_as_xyz
 1  'x, y, z'
loop_
 _atom_site_type_symbol
 _atom_site_label
 _atom_site_symmetry_multiplicity
 _atom_site_fract_x
 _atom_site_fract_y
 _atom_site_fract_z
 _atom_site_fract_occupancy
 Be  Be1  1  0.00000  0.00000  0.00000  1
 Mn  Mn1  1  0.50000  0.00000  0.00000  1
 Ru  Ru1  1  0.68639  -0.00000  -0.00000  1
 Ru  Ru2  1  0.31361  0.00000  0.00000  1
