CIF file written using JARVIS-Tools package.
data_Li2InPb
_symmetry_space_group_name_H-M  'C2/m'
_cell_length_a       12.1134
_cell_length_b       5.07725
_cell_length_c       8.3682
_cell_angle_alpha    43.3536
_cell_angle_beta     19.6038
_cell_angle_gamma    33.5723

_symmetry_Int_Tables_number  12
_chemical_formula_structural  Li2InPb
_chemical_formula_sum  Li2InPb
_cell_volume  90.74377089202557
_cell_formula_units_Z  1
loop_
  _symmetry_equiv_pos_site_id
 _symmetry_equiv_pos_as_xyz
 1  'x, y, z'
loop_
 _atom_site_type_symbol
 _atom_site_label
 _atom_site_symmetry_multiplicity
 _atom_site_fract_x
 _atom_site_fract_y
 _atom_site_fract_z
 _atom_site_fract_occupancy
 In  In1  1  0.00000  0.00000  0.00000  1
 Li  Li1  1  0.75040  0.00036  -0.00036  1
 Li  Li2  1  0.24960  -0.00036  0.00036  1
 Pb  Pb1  1  0.50000  -0.00000  -0.00000  1
