CIF file written using JARVIS-Tools package.
data_Na3Co2SbO6
_symmetry_space_group_name_H-M  'C2/m'
_cell_length_a       5.35226
_cell_length_b       5.35203
_cell_length_c       5.64408
_cell_angle_alpha    99.241
_cell_angle_beta     99.2441
_cell_angle_gamma    119.083

_symmetry_Int_Tables_number  12
_chemical_formula_structural  Na3Co2SbO6
_chemical_formula_sum  Na3Co2SbO6
_cell_volume  134.01275584460575
_cell_formula_units_Z  1
loop_
  _symmetry_equiv_pos_site_id
 _symmetry_equiv_pos_as_xyz
 1  'x, y, z'
loop_
 _atom_site_type_symbol
 _atom_site_label
 _atom_site_symmetry_multiplicity
 _atom_site_fract_x
 _atom_site_fract_y
 _atom_site_fract_z
 _atom_site_fract_occupancy
 Co  Co1  1  0.66173  0.33822  0.00000  1
 Co  Co2  1  0.33827  0.66178  -0.00000  1
 Na  Na1  1  0.17633  0.82366  0.50000  1
 Na  Na2  1  0.82367  0.17634  0.50000  1
 Na  Na3  1  0.50000  0.50000  0.50000  1
 O  O1  1  0.06716  0.38648  0.20665  1
 O  O2  1  0.61353  0.93286  0.79334  1
 O  O3  1  0.38647  0.06714  0.20666  1
 O  O4  1  0.93284  0.61352  0.79335  1
 O  O5  1  0.24616  0.24618  0.79047  1
 O  O6  1  0.75384  0.75382  0.20953  1
 Sb  Sb1  1  -0.00000  -0.00000  -0.00000  1
