CIF file written using JARVIS-Tools package.
data_CaTlHg2
_symmetry_space_group_name_H-M  'Immm'
_cell_length_a       12.3813
_cell_length_b       7.013
_cell_length_c       7.013
_cell_angle_alpha    46.3034
_cell_angle_beta     28.0252
_cell_angle_gamma    28.0252

_symmetry_Int_Tables_number  71
_chemical_formula_structural  CaTlHg2
_chemical_formula_sum  CaTlHg2
_cell_volume  123.18963129836183
_cell_formula_units_Z  1
loop_
  _symmetry_equiv_pos_site_id
 _symmetry_equiv_pos_as_xyz
 1  'x, y, z'
loop_
 _atom_site_type_symbol
 _atom_site_label
 _atom_site_symmetry_multiplicity
 _atom_site_fract_x
 _atom_site_fract_y
 _atom_site_fract_z
 _atom_site_fract_occupancy
 Ca  Ca1  1  0.00000  0.00000  0.00000  1
 Hg  Hg1  1  0.74688  -0.00000  -0.00000  1
 Hg  Hg2  1  0.25312  0.00000  0.00000  1
 Tl  Tl1  1  0.50000  0.00000  0.00000  1
