CIF file written using JARVIS-Tools package.
data_GeSe
_symmetry_space_group_name_H-M  'Pnma'
_cell_length_a       3.89688
_cell_length_b       4.4787
_cell_length_c       11.1517
_cell_angle_alpha    90
_cell_angle_beta     90
_cell_angle_gamma    90

_symmetry_Int_Tables_number  62
_chemical_formula_structural  GeSe
_chemical_formula_sum  Ge4Se4
_cell_volume  194.62937065961765
_cell_formula_units_Z  4
loop_
  _symmetry_equiv_pos_site_id
 _symmetry_equiv_pos_as_xyz
 1  'x, y, z'
loop_
 _atom_site_type_symbol
 _atom_site_label
 _atom_site_symmetry_multiplicity
 _atom_site_fract_x
 _atom_site_fract_y
 _atom_site_fract_z
 _atom_site_fract_occupancy
 Ge  Ge1  1  0.25000  0.12128  0.12530  1
 Ge  Ge2  1  0.75000  0.87872  0.87470  1
 Ge  Ge3  1  0.75000  0.62128  0.37470  1
 Ge  Ge4  1  0.25000  0.37872  0.62530  1
 Se  Se1  1  0.25000  0.49306  0.85358  1
 Se  Se2  1  0.75000  0.50694  0.14642  1
 Se  Se3  1  0.75000  -0.00694  0.64642  1
 Se  Se4  1  0.25000  0.00694  0.35358  1
