CIF file written using JARVIS-Tools package.
data_LiBH4
_symmetry_space_group_name_H-M  'Pnma'
_cell_length_a       4.37923
_cell_length_b       6.64338
_cell_length_c       6.90687
_cell_angle_alpha    90
_cell_angle_beta     90
_cell_angle_gamma    90

_symmetry_Int_Tables_number  62
_chemical_formula_structural  LiBH4
_chemical_formula_sum  Li4B4H6
_cell_volume  200.94086954006698
_cell_formula_units_Z  4
loop_
  _symmetry_equiv_pos_site_id
 _symmetry_equiv_pos_as_xyz
 1  'x, y, z'
loop_
 _atom_site_type_symbol
 _atom_site_label
 _atom_site_symmetry_multiplicity
 _atom_site_fract_x
 _atom_site_fract_y
 _atom_site_fract_z
 _atom_site_fract_occupancy
 B  B1  1  0.25000  0.43580  0.30025  1
 B  B2  1  0.75000  0.56420  0.69975  1
 B  B3  1  0.75000  0.93580  0.19975  1
 B  B4  1  0.25000  0.06420  0.80025  1
 H  H1  1  0.75000  0.41743  0.59215  1
 H  H2  1  0.52494  0.93594  0.30497  1
 H  H3  1  0.02494  0.06406  0.69503  1
 H  H4  1  0.47506  0.43594  0.19503  1
 H  H5  1  0.75000  0.78006  0.10305  1
 H  H6  1  0.47506  0.06406  0.69503  1
 H  H7  1  0.97506  0.93594  0.30497  1
 H  H8  1  0.97506  0.56406  0.80497  1
 H  H9  1  0.02494  0.43594  0.19503  1
 H  H10  1  0.25000  0.21994  0.89695  1
 H  H11  1  0.75000  0.08257  0.09215  1
 H  H12  1  0.52494  0.56406  0.80497  1
 H  H13  1  0.25000  0.58257  0.40785  1
 H  H14  1  0.25000  0.28006  0.39695  1
 H  H15  1  0.75000  0.71994  0.60305  1
 H  H16  1  0.25000  0.91743  0.90785  1
 Li  Li1  1  0.25000  0.38806  0.66033  1
 Li  Li2  1  0.75000  0.61194  0.33967  1
 Li  Li3  1  0.75000  0.88806  0.83967  1
 Li  Li4  1  0.25000  0.11194  0.16033  1
