CIF file written using JARVIS-Tools package.
data_YSnRu2
_symmetry_space_group_name_H-M  'C2/m'
_cell_length_a       11.7168
_cell_length_b       4.80223
_cell_length_c       4.80221
_cell_angle_alpha    41.2023
_cell_angle_beta     32.5789
_cell_angle_gamma    32.5792

_symmetry_Int_Tables_number  12
_chemical_formula_structural  YSnRu2
_chemical_formula_sum  YSnRu2
_cell_volume  77.50482029512065
_cell_formula_units_Z  1
loop_
  _symmetry_equiv_pos_site_id
 _symmetry_equiv_pos_as_xyz
 1  'x, y, z'
loop_
 _atom_site_type_symbol
 _atom_site_label
 _atom_site_symmetry_multiplicity
 _atom_site_fract_x
 _atom_site_fract_y
 _atom_site_fract_z
 _atom_site_fract_occupancy
 Ru  Ru1  1  0.69713  0.06238  0.06238  1
 Ru  Ru2  1  0.30287  0.93763  0.93762  1
 Sn  Sn1  1  0.50000  0.00000  0.00000  1
 Y  Y1  1  0.00000  -0.00000  -0.00000  1
