CIF file written using JARVIS-Tools package.
data_GeTe
_symmetry_space_group_name_H-M  'Fm-3m'
_cell_length_a       6.03216
_cell_length_b       6.03216
_cell_length_c       6.03216
_cell_angle_alpha    90
_cell_angle_beta     90
_cell_angle_gamma    90

_symmetry_Int_Tables_number  225
_chemical_formula_structural  GeTe
_chemical_formula_sum  Ge4Te4
_cell_volume  219.49186131142775
_cell_formula_units_Z  4
loop_
  _symmetry_equiv_pos_site_id
 _symmetry_equiv_pos_as_xyz
 1  'x, y, z'
loop_
 _atom_site_type_symbol
 _atom_site_label
 _atom_site_symmetry_multiplicity
 _atom_site_fract_x
 _atom_site_fract_y
 _atom_site_fract_z
 _atom_site_fract_occupancy
 Ge  Ge1  1  0.50000  0.00000  0.50000  1
 Ge  Ge2  1  0.50000  0.50000  0.00000  1
 Ge  Ge3  1  0.00000  0.00000  0.00000  1
 Ge  Ge4  1  0.00000  0.50000  0.50000  1
 Te  Te1  1  0.00000  0.00000  0.50000  1
 Te  Te2  1  0.00000  0.50000  0.00000  1
 Te  Te3  1  0.50000  0.00000  0.00000  1
 Te  Te4  1  0.50000  0.50000  0.50000  1
