CIF file written using JARVIS-Tools package.
data_Ca2V2O5
_symmetry_space_group_name_H-M  'Pbam'
_cell_length_a       5.28134
_cell_length_b       3.89769
_cell_length_c       10.308
_cell_angle_alpha    90
_cell_angle_beta     90.0003
_cell_angle_gamma    90

_symmetry_Int_Tables_number  55
_chemical_formula_structural  Ca2V2O5
_chemical_formula_sum  Ca4V4O0
_cell_volume  212.19004287130392
_cell_formula_units_Z  2
loop_
  _symmetry_equiv_pos_site_id
 _symmetry_equiv_pos_as_xyz
 1  'x, y, z'
loop_
 _atom_site_type_symbol
 _atom_site_label
 _atom_site_symmetry_multiplicity
 _atom_site_fract_x
 _atom_site_fract_y
 _atom_site_fract_z
 _atom_site_fract_occupancy
 Ca  Ca1  1  0.78622  0.50000  0.12454  1
 Ca  Ca2  1  0.21378  0.50000  0.87545  1
 Ca  Ca3  1  0.28622  0.50000  0.37546  1
 Ca  Ca4  1  0.71378  0.50000  0.62455  1
 O  O1  1  0.00000  0.00000  0.00000  1
 O  O2  1  0.89496  0.00000  0.71018  1
 O  O3  1  0.39496  0.00000  0.78982  1
 O  O4  1  0.50000  0.00000  0.50000  1
 O  O5  1  0.70942  0.50000  0.88821  1
 O  O6  1  0.29059  0.50000  0.11179  1
 O  O7  1  0.79059  0.50000  0.38821  1
 O  O8  1  0.60504  0.00000  0.21018  1
 O  O9  1  0.10504  0.00000  0.28982  1
 O  O10  1  0.20942  0.50000  0.61179  1
 V  V1  1  0.27596  0.00000  0.12498  1
 V  V2  1  0.72404  0.00000  0.87502  1
 V  V3  1  0.22404  0.00000  0.62498  1
 V  V4  1  0.77596  0.00000  0.37502  1
