CIF file written using JARVIS-Tools package.
data_KThCuS3
_symmetry_space_group_name_H-M  'Cmcm'
_cell_length_a       4.08517
_cell_length_b       7.14806
_cell_length_c       10.5695
_cell_angle_alpha    90
_cell_angle_beta     90
_cell_angle_gamma    106.604

_symmetry_Int_Tables_number  63
_chemical_formula_structural  KThCuS3
_chemical_formula_sum  K2Th2Cu2S6
_cell_volume  295.7714043595702
_cell_formula_units_Z  2
loop_
  _symmetry_equiv_pos_site_id
 _symmetry_equiv_pos_as_xyz
 1  'x, y, z'
loop_
 _atom_site_type_symbol
 _atom_site_label
 _atom_site_symmetry_multiplicity
 _atom_site_fract_x
 _atom_site_fract_y
 _atom_site_fract_z
 _atom_site_fract_occupancy
 Cu  Cu1  1  0.46674  0.93349  0.25000  1
 Cu  Cu2  1  0.53326  0.06651  0.75000  1
 K  K1  1  0.74403  0.48807  0.25000  1
 K  K2  1  0.25597  0.51193  0.75000  1
 S  S1  1  0.62942  0.25883  0.93280  1
 S  S2  1  0.37058  0.74117  0.06720  1
 S  S3  1  0.93367  0.86734  0.75000  1
 S  S4  1  0.06633  0.13266  0.25000  1
 S  S5  1  0.37058  0.74117  0.43280  1
 S  S6  1  0.62942  0.25883  0.56720  1
 Th  Th1  1  0.00000  0.00000  0.00000  1
 Th  Th2  1  0.00000  0.00000  0.50000  1
