CIF file written using JARVIS-Tools package.
data_Ca5Au4
_symmetry_space_group_name_H-M  'P2_1/c'
_cell_length_a       7.70411
_cell_length_b       8.04782
_cell_length_c       8.04783
_cell_angle_alpha    90
_cell_angle_beta     110.287
_cell_angle_gamma    90

_symmetry_Int_Tables_number  14
_chemical_formula_structural  Ca5Au4
_chemical_formula_sum  Ca0Au8
_cell_volume  468.0244174787571
_cell_formula_units_Z  2
loop_
  _symmetry_equiv_pos_site_id
 _symmetry_equiv_pos_as_xyz
 1  'x, y, z'
loop_
 _atom_site_type_symbol
 _atom_site_label
 _atom_site_symmetry_multiplicity
 _atom_site_fract_x
 _atom_site_fract_y
 _atom_site_fract_z
 _atom_site_fract_occupancy
 Au  Au1  1  0.13276  0.63521  0.01471  1
 Au  Au2  1  0.86724  0.36479  0.98529  1
 Au  Au3  1  0.34612  0.53445  0.58200  1
 Au  Au4  1  0.36724  0.13521  0.98529  1
 Au  Au5  1  0.84612  0.96555  0.58200  1
 Au  Au6  1  0.63276  0.86479  0.01471  1
 Au  Au7  1  0.15388  0.03445  0.41800  1
 Au  Au8  1  0.65388  0.46555  0.41800  1
 Ca  Ca1  1  0.00000  0.00000  0.00000  1
 Ca  Ca2  1  0.06207  0.32184  0.68999  1
 Ca  Ca3  1  0.25565  0.33248  0.25558  1
 Ca  Ca4  1  0.74435  0.66752  0.74442  1
 Ca  Ca5  1  0.93793  0.67816  0.31001  1
 Ca  Ca6  1  0.24435  0.83248  0.74442  1
 Ca  Ca7  1  0.75565  0.16752  0.25558  1
 Ca  Ca8  1  0.50000  0.50000  -0.00000  1
 Ca  Ca9  1  0.43793  0.82184  0.31001  1
 Ca  Ca10  1  0.56207  0.17816  0.68999  1
