CIF file written using JARVIS-Tools package.
data_RbC
_symmetry_space_group_name_H-M  'Pnma'
_cell_length_a       4.71735
_cell_length_b       9.28169
_cell_length_c       9.71843
_cell_angle_alpha    90
_cell_angle_beta     90
_cell_angle_gamma    90

_symmetry_Int_Tables_number  62
_chemical_formula_structural  RbC
_chemical_formula_sum  Rb8C8
_cell_volume  425.5211200166328
_cell_formula_units_Z  8
loop_
  _symmetry_equiv_pos_site_id
 _symmetry_equiv_pos_as_xyz
 1  'x, y, z'
loop_
 _atom_site_type_symbol
 _atom_site_label
 _atom_site_symmetry_multiplicity
 _atom_site_fract_x
 _atom_site_fract_y
 _atom_site_fract_z
 _atom_site_fract_occupancy
 C  C1  1  0.25000  0.66866  0.35232  1
 C  C2  1  0.75000  0.33134  0.64768  1
 C  C3  1  0.25000  0.16866  0.14768  1
 C  C4  1  0.75000  0.83134  0.85232  1
 C  C5  1  0.25000  0.79099  0.40927  1
 C  C6  1  0.75000  0.20901  0.59073  1
 C  C7  1  0.25000  0.29099  0.09073  1
 C  C8  1  0.75000  0.70901  0.90927  1
 Rb  Rb1  1  0.25000  0.98881  0.67126  1
 Rb  Rb2  1  0.75000  0.01119  0.32874  1
 Rb  Rb3  1  0.25000  0.48881  0.82874  1
 Rb  Rb4  1  0.75000  0.51119  0.17126  1
 Rb  Rb5  1  0.25000  0.33853  0.42680  1
 Rb  Rb6  1  0.75000  0.66147  0.57320  1
 Rb  Rb7  1  0.25000  0.83853  0.07320  1
 Rb  Rb8  1  0.75000  0.16147  0.92680  1
