CIF file written using JARVIS-Tools package.
data_Ca2SnN2
_symmetry_space_group_name_H-M  'C2'
_cell_length_a       5.11821
_cell_length_b       6.1139
_cell_length_c       6.83305
_cell_angle_alpha    112.287
_cell_angle_beta     90.0013
_cell_angle_gamma    114.744

_symmetry_Int_Tables_number  5
_chemical_formula_structural  Ca2SnN2
_chemical_formula_sum  Ca4Sn2N4
_cell_volume  176.44651495020932
_cell_formula_units_Z  2
loop_
  _symmetry_equiv_pos_site_id
 _symmetry_equiv_pos_as_xyz
 1  'x, y, z'
loop_
 _atom_site_type_symbol
 _atom_site_label
 _atom_site_symmetry_multiplicity
 _atom_site_fract_x
 _atom_site_fract_y
 _atom_site_fract_z
 _atom_site_fract_occupancy
 Ca  Ca1  1  0.32782  0.66693  0.41565  1
 Ca  Ca2  1  0.65876  0.32882  0.58401  1
 Ca  Ca3  1  0.98192  0.96966  0.25767  1
 Ca  Ca4  1  0.01013  0.02608  0.74200  1
 N  N1  1  0.79007  0.64600  0.39947  1
 N  N2  1  0.14193  0.34973  0.60019  1
 N  N3  1  0.47339  0.01571  0.77695  1
 N  N4  1  0.45556  -0.01997  0.22271  1
 Sn  Sn1  1  0.72528  0.29921  0.11355  1
 Sn  Sn2  1  0.42393  0.69651  0.88611  1
