CIF file written using JARVIS-Tools package.
data_Al5C3N
_symmetry_space_group_name_H-M  'P6_3/mmc'
_cell_length_a       3.3462
_cell_length_b       3.3462
_cell_length_c       21.0121
_cell_angle_alpha    90
_cell_angle_beta     90
_cell_angle_gamma    120

_symmetry_Int_Tables_number  194
_chemical_formula_structural  Al5C3N
_chemical_formula_sum  Al0C6N2
_cell_volume  203.75344274092308
_cell_formula_units_Z  2
loop_
  _symmetry_equiv_pos_site_id
 _symmetry_equiv_pos_as_xyz
 1  'x, y, z'
loop_
 _atom_site_type_symbol
 _atom_site_label
 _atom_site_symmetry_multiplicity
 _atom_site_fract_x
 _atom_site_fract_y
 _atom_site_fract_z
 _atom_site_fract_occupancy
 Al  Al1  1  0.33333  0.66667  0.24876  1
 Al  Al2  1  0.66667  0.33333  0.95099  1
 Al  Al3  1  0.00000  0.00000  0.84501  1
 Al  Al4  1  0.00000  0.00000  0.34501  1
 Al  Al5  1  0.00000  0.00000  0.65250  1
 Al  Al6  1  0.66667  0.33333  0.74876  1
 Al  Al7  1  0.66667  0.33333  0.54652  1
 Al  Al8  1  0.33333  0.66667  0.04652  1
 Al  Al9  1  0.00000  0.00000  0.15250  1
 Al  Al10  1  0.33333  0.66667  0.45099  1
 C  C1  1  0.33333  0.66667  0.13858  1
 C  C2  1  0.66667  0.33333  0.63858  1
 C  C3  1  0.66667  0.33333  0.85893  1
 C  C4  1  0.33333  0.66667  0.35893  1
 C  C5  1  0.00000  0.00000  0.49876  1
 C  C6  1  0.00000  0.00000  0.99876  1
 N  N1  1  0.00000  0.00000  0.24876  1
 N  N2  1  0.00000  0.00000  0.74876  1
