CIF file written using JARVIS-Tools package.
data_Li6ZnO4
_symmetry_space_group_name_H-M  'P4_2/nmc'
_cell_length_a       6.524
_cell_length_b       6.524
_cell_length_c       4.6389
_cell_angle_alpha    90
_cell_angle_beta     90
_cell_angle_gamma    90

_symmetry_Int_Tables_number  137
_chemical_formula_structural  Li6ZnO4
_chemical_formula_sum  Li2Zn2O8
_cell_volume  197.4437650102164
_cell_formula_units_Z  2
loop_
  _symmetry_equiv_pos_site_id
 _symmetry_equiv_pos_as_xyz
 1  'x, y, z'
loop_
 _atom_site_type_symbol
 _atom_site_label
 _atom_site_symmetry_multiplicity
 _atom_site_fract_x
 _atom_site_fract_y
 _atom_site_fract_z
 _atom_site_fract_occupancy
 Li  Li1  1  0.50000  0.00000  0.96009  1
 Li  Li2  1  0.21753  0.78247  0.00000  1
 Li  Li3  1  0.78247  0.21753  0.00000  1
 Li  Li4  1  0.71753  0.71753  0.50000  1
 Li  Li5  1  0.28247  0.28247  0.50000  1
 Li  Li6  1  0.50000  0.00000  0.46009  1
 Li  Li7  1  0.00000  0.50000  0.53991  1
 Li  Li8  1  0.78247  0.78247  0.00000  1
 Li  Li9  1  0.21753  0.21753  0.00000  1
 Li  Li10  1  0.00000  0.50000  0.03991  1
 Li  Li11  1  0.28247  0.71753  0.50000  1
 Li  Li12  1  0.71753  0.28247  0.50000  1
 O  O1  1  0.00000  0.26437  0.28000  1
 O  O2  1  0.76437  0.50000  0.78000  1
 O  O3  1  0.23563  0.50000  0.78000  1
 O  O4  1  0.00000  0.73563  0.28000  1
 O  O5  1  0.73563  0.00000  0.72000  1
 O  O6  1  0.50000  0.76437  0.22000  1
 O  O7  1  0.50000  0.23563  0.22000  1
 O  O8  1  0.26437  0.00000  0.72000  1
 Zn  Zn1  1  0.00000  0.00000  0.50000  1
 Zn  Zn2  1  0.50000  0.50000  0.00000  1
