CIF file written using JARVIS-Tools package.
data_Pr3CuSnS7
_symmetry_space_group_name_H-M  'P6_3'
_cell_length_a       10.2381
_cell_length_b       10.2381
_cell_length_c       6.07572
_cell_angle_alpha    90
_cell_angle_beta     90
_cell_angle_gamma    120

_symmetry_Int_Tables_number  173
_chemical_formula_structural  Pr3CuSnS7
_chemical_formula_sum  Pr6Cu2Sn2S4
_cell_volume  551.5267295547834
_cell_formula_units_Z  2
loop_
  _symmetry_equiv_pos_site_id
 _symmetry_equiv_pos_as_xyz
 1  'x, y, z'
loop_
 _atom_site_type_symbol
 _atom_site_label
 _atom_site_symmetry_multiplicity
 _atom_site_fract_x
 _atom_site_fract_y
 _atom_site_fract_z
 _atom_site_fract_occupancy
 Cu  Cu1  1  0.00000  0.00000  0.71546  1
 Cu  Cu2  1  0.00000  0.00000  0.21546  1
 Pr  Pr1  1  0.77906  0.64269  0.26177  1
 Pr  Pr2  1  0.86363  0.22094  0.26177  1
 Pr  Pr3  1  0.13637  0.77906  0.76177  1
 Pr  Pr4  1  0.35731  0.13637  0.26177  1
 Pr  Pr5  1  0.64269  0.86363  0.76177  1
 Pr  Pr6  1  0.22094  0.35731  0.76177  1
 S  S1  1  0.09940  0.84460  0.22987  1
 S  S2  1  0.42796  0.91240  0.50542  1
 S  S3  1  0.48444  0.57204  0.50542  1
 S  S4  1  0.66667  0.33333  0.44436  1
 S  S5  1  0.84460  0.74520  0.72987  1
 S  S6  1  0.57204  0.08760  0.00542  1
 S  S7  1  0.25480  0.09940  0.72987  1
 S  S8  1  0.15540  0.25480  0.22987  1
 S  S9  1  0.90060  0.15540  0.72987  1
 S  S10  1  0.33333  0.66667  0.94436  1
 S  S11  1  0.91240  0.48444  0.00542  1
 S  S12  1  0.08760  0.51556  0.50542  1
 S  S13  1  0.74520  0.90060  0.22987  1
 S  S14  1  0.51556  0.42796  0.00542  1
 Sn  Sn1  1  0.33333  0.66667  0.33519  1
 Sn  Sn2  1  0.66667  0.33333  0.83519  1
