CIF file written using JARVIS-Tools package.
data_Sr2YRuO6
_symmetry_space_group_name_H-M  'P2_1/c'
_cell_length_a       5.7895
_cell_length_b       5.83805
_cell_length_c       10.0111
_cell_angle_alpha    90
_cell_angle_beta     124.961
_cell_angle_gamma    90

_symmetry_Int_Tables_number  14
_chemical_formula_structural  Sr2YRuO6
_chemical_formula_sum  Sr4Y2Ru2O2
_cell_volume  277.30657221065667
_cell_formula_units_Z  2
loop_
  _symmetry_equiv_pos_site_id
 _symmetry_equiv_pos_as_xyz
 1  'x, y, z'
loop_
 _atom_site_type_symbol
 _atom_site_label
 _atom_site_symmetry_multiplicity
 _atom_site_fract_x
 _atom_site_fract_y
 _atom_site_fract_z
 _atom_site_fract_occupancy
 O  O1  1  0.73161  0.19908  0.96160  1
 O  O2  1  0.80785  0.51819  0.73373  1
 O  O3  1  0.26839  0.80092  0.03840  1
 O  O4  1  0.19215  0.48181  0.26627  1
 O  O5  1  0.80785  0.98181  0.23373  1
 O  O6  1  0.19215  0.01819  0.76627  1
 O  O7  1  0.34418  0.27158  0.04022  1
 O  O8  1  0.34418  0.22842  0.54022  1
 O  O9  1  0.65582  0.72842  0.95978  1
 O  O10  1  0.73161  0.30092  0.46160  1
 O  O11  1  0.26839  0.69908  0.53840  1
 O  O12  1  0.65582  0.77158  0.45978  1
 Ru  Ru1  1  0.50000  0.50000  0.50000  1
 Ru  Ru2  1  0.50000  0.00000  0.00000  1
 Sr  Sr1  1  0.25868  0.46439  0.75074  1
 Sr  Sr2  1  0.74132  0.96439  0.74926  1
 Sr  Sr3  1  0.25868  0.03561  0.25074  1
 Sr  Sr4  1  0.74132  0.53561  0.24926  1
 Y  Y1  1  0.00000  0.50000  0.00000  1
 Y  Y2  1  0.00000  0.00000  0.50000  1
