CIF file written using JARVIS-Tools package.
data_ZrScCo2
_symmetry_space_group_name_H-M  'Immm'
_cell_length_a       9.48618
_cell_length_b       5.52342
_cell_length_c       5.52342
_cell_angle_alpha    29.3069
_cell_angle_beta     30.8265
_cell_angle_gamma    30.8266

_symmetry_Int_Tables_number  71
_chemical_formula_structural  ZrScCo2
_chemical_formula_sum  ZrScCo2
_cell_volume  65.25316894773242
_cell_formula_units_Z  1
loop_
  _symmetry_equiv_pos_site_id
 _symmetry_equiv_pos_as_xyz
 1  'x, y, z'
loop_
 _atom_site_type_symbol
 _atom_site_label
 _atom_site_symmetry_multiplicity
 _atom_site_fract_x
 _atom_site_fract_y
 _atom_site_fract_z
 _atom_site_fract_occupancy
 Co  Co1  1  0.75196  -0.00000  0.00000  1
 Co  Co2  1  0.24804  0.00000  -0.00000  1
 Sc  Sc1  1  0.00000  0.00000  0.00000  1
 Zr  Zr1  1  0.50000  0.00000  0.00000  1
