CIF file written using JARVIS-Tools package.
data_ZnCoO3
_symmetry_space_group_name_H-M  'Pnma'
_cell_length_a       4.9789
_cell_length_b       5.03341
_cell_length_c       7.31161
_cell_angle_alpha    90
_cell_angle_beta     90
_cell_angle_gamma    90

_symmetry_Int_Tables_number  62
_chemical_formula_structural  ZnCoO3
_chemical_formula_sum  Zn4Co4O2
_cell_volume  183.23487306423195
_cell_formula_units_Z  4
loop_
  _symmetry_equiv_pos_site_id
 _symmetry_equiv_pos_as_xyz
 1  'x, y, z'
loop_
 _atom_site_type_symbol
 _atom_site_label
 _atom_site_symmetry_multiplicity
 _atom_site_fract_x
 _atom_site_fract_y
 _atom_site_fract_z
 _atom_site_fract_occupancy
 Co  Co1  1  0.50000  0.00000  0.00000  1
 Co  Co2  1  0.00000  0.50000  0.00000  1
 Co  Co3  1  0.00000  0.50000  0.50000  1
 Co  Co4  1  0.50000  0.00000  0.50000  1
 O  O1  1  0.68096  0.31438  0.06149  1
 O  O2  1  0.88560  0.56748  0.75000  1
 O  O3  1  0.31904  0.68562  0.56149  1
 O  O4  1  0.61440  0.06748  0.75000  1
 O  O5  1  0.11440  0.43252  0.25000  1
 O  O6  1  0.38560  0.93252  0.25000  1
 O  O7  1  0.18096  0.18562  0.56149  1
 O  O8  1  0.81904  0.81438  0.43851  1
 O  O9  1  0.31904  0.68562  0.93851  1
 O  O10  1  0.68096  0.31438  0.43851  1
 O  O11  1  0.18096  0.18562  0.93851  1
 O  O12  1  0.81904  0.81438  0.06149  1
 Zn  Zn1  1  0.00049  0.95659  0.75000  1
 Zn  Zn2  1  0.50049  0.54341  0.25000  1
 Zn  Zn3  1  0.49951  0.45659  0.75000  1
 Zn  Zn4  1  0.99951  0.04341  0.25000  1
