CIF file written using JARVIS-Tools package.
data_SeO2
_symmetry_space_group_name_H-M  'Pmc2_1'
_cell_length_a       4.56612
_cell_length_b       5.16413
_cell_length_c       14.6717
_cell_angle_alpha    90
_cell_angle_beta     90
_cell_angle_gamma    90

_symmetry_Int_Tables_number  26
_chemical_formula_structural  SeO2
_chemical_formula_sum  Se8O6
_cell_volume  345.960443847789
_cell_formula_units_Z  8
loop_
  _symmetry_equiv_pos_site_id
 _symmetry_equiv_pos_as_xyz
 1  'x, y, z'
loop_
 _atom_site_type_symbol
 _atom_site_label
 _atom_site_symmetry_multiplicity
 _atom_site_fract_x
 _atom_site_fract_y
 _atom_site_fract_z
 _atom_site_fract_occupancy
 O  O1  1  0.52867  0.00000  0.33712  1
 O  O2  1  0.35677  0.25026  0.17010  1
 O  O3  1  0.64323  0.25026  0.67010  1
 O  O4  1  0.05458  0.74866  0.91935  1
 O  O5  1  0.94542  0.25134  0.41935  1
 O  O6  1  0.64323  0.74974  0.67010  1
 O  O7  1  0.82124  0.50000  0.22436  1
 O  O8  1  0.06288  0.00000  0.59052  1
 O  O9  1  0.93712  0.00000  0.09052  1
 O  O10  1  0.17876  0.50000  0.72436  1
 O  O11  1  0.40293  0.50000  0.48267  1
 O  O12  1  0.35677  0.74974  0.17010  1
 O  O13  1  0.59707  0.50000  0.98267  1
 O  O14  1  0.47133  0.00000  0.83712  1
 O  O15  1  0.94542  0.74866  0.41935  1
 O  O16  1  0.05458  0.25134  0.91935  1
 Se  Se1  1  0.47149  0.50000  0.25176  1
 Se  Se2  1  0.04908  0.50000  0.50384  1
 Se  Se3  1  0.66978  0.00000  0.44073  1
 Se  Se4  1  0.91852  0.00000  0.69360  1
 Se  Se5  1  0.33022  0.00000  0.94073  1
 Se  Se6  1  0.08148  0.00000  0.19360  1
 Se  Se7  1  0.95092  0.50000  0.00384  1
 Se  Se8  1  0.52851  0.50000  0.75176  1
