CIF file written using JARVIS-Tools package.
data_Na2TlCd
_symmetry_space_group_name_H-M  'Immm'
_cell_length_a       13.3367
_cell_length_b       8.85243
_cell_length_c       8.85244
_cell_angle_alpha    31.4829
_cell_angle_beta     19.2993
_cell_angle_gamma    19.2994

_symmetry_Int_Tables_number  71
_chemical_formula_structural  Na2TlCd
_chemical_formula_sum  Na2TlCd
_cell_volume  107.04364835138666
_cell_formula_units_Z  1
loop_
  _symmetry_equiv_pos_site_id
 _symmetry_equiv_pos_as_xyz
 1  'x, y, z'
loop_
 _atom_site_type_symbol
 _atom_site_label
 _atom_site_symmetry_multiplicity
 _atom_site_fract_x
 _atom_site_fract_y
 _atom_site_fract_z
 _atom_site_fract_occupancy
 Cd  Cd1  1  0.00000  0.00000  0.00000  1
 Na  Na1  1  0.74956  0.00037  0.00037  1
 Na  Na2  1  0.25044  0.99963  0.99963  1
 Tl  Tl1  1  0.50000  0.00000  0.00000  1
