CIF file written using JARVIS-Tools package.
data_CaSbRh2
_symmetry_space_group_name_H-M  'Immm'
_cell_length_a       10.8954
_cell_length_b       6.19023
_cell_length_c       6.19023
_cell_angle_alpha    28.3062
_cell_angle_beta     28.3517
_cell_angle_gamma    28.3518

_symmetry_Int_Tables_number  71
_chemical_formula_structural  CaSbRh2
_chemical_formula_sum  CaSbRh2
_cell_volume  83.11674048162992
_cell_formula_units_Z  1
loop_
  _symmetry_equiv_pos_site_id
 _symmetry_equiv_pos_as_xyz
 1  'x, y, z'
loop_
 _atom_site_type_symbol
 _atom_site_label
 _atom_site_symmetry_multiplicity
 _atom_site_fract_x
 _atom_site_fract_y
 _atom_site_fract_z
 _atom_site_fract_occupancy
 Ca  Ca1  1  0.00000  0.00000  0.00000  1
 Rh  Rh1  1  0.73726  -0.00000  -0.00000  1
 Rh  Rh2  1  0.26274  0.00000  0.00000  1
 Sb  Sb1  1  0.50000  -0.00000  0.00000  1
