CIF file written using JARVIS-Tools package.
data_MgCr2O4
_symmetry_space_group_name_H-M  'Cmcm'
_cell_length_a       2.89159
_cell_length_b       4.98324
_cell_length_c       9.70846
_cell_angle_alpha    90
_cell_angle_beta     90
_cell_angle_gamma    106.866

_symmetry_Int_Tables_number  63
_chemical_formula_structural  MgCr2O4
_chemical_formula_sum  Mg2Cr4O8
_cell_volume  133.87680086931073
_cell_formula_units_Z  2
loop_
  _symmetry_equiv_pos_site_id
 _symmetry_equiv_pos_as_xyz
 1  'x, y, z'
loop_
 _atom_site_type_symbol
 _atom_site_label
 _atom_site_symmetry_multiplicity
 _atom_site_fract_x
 _atom_site_fract_y
 _atom_site_fract_z
 _atom_site_fract_occupancy
 Cr  Cr1  1  0.86659  0.73318  0.07253  1
 Cr  Cr2  1  0.13341  0.26682  0.92747  1
 Cr  Cr3  1  0.86659  0.73318  0.42747  1
 Cr  Cr4  1  0.13341  0.26682  0.57253  1
 Mg  Mg1  1  0.38816  0.77633  0.75000  1
 Mg  Mg2  1  0.61184  0.22367  0.25000  1
 O  O1  1  0.23054  0.46108  0.38641  1
 O  O2  1  0.76946  0.53892  0.61359  1
 O  O3  1  0.76946  0.53892  0.88641  1
 O  O4  1  0.23054  0.46108  0.11359  1
 O  O5  1  0.96286  0.92573  0.25000  1
 O  O6  1  0.03714  0.07427  0.75000  1
 O  O7  1  0.50000  0.00000  0.00000  1
 O  O8  1  0.50000  0.00000  0.50000  1
