CIF file written using JARVIS-Tools package.
data_SnS
_symmetry_space_group_name_H-M  'Cmcm'
_cell_length_a       3.77128
_cell_length_b       5.78866
_cell_length_c       5.90387
_cell_angle_alpha    90
_cell_angle_beta     108.626
_cell_angle_gamma    90

_symmetry_Int_Tables_number  63
_chemical_formula_structural  SnS
_chemical_formula_sum  Sn2S2
_cell_volume  122.1348423035593
_cell_formula_units_Z  2
loop_
  _symmetry_equiv_pos_site_id
 _symmetry_equiv_pos_as_xyz
 1  'x, y, z'
loop_
 _atom_site_type_symbol
 _atom_site_label
 _atom_site_symmetry_multiplicity
 _atom_site_fract_x
 _atom_site_fract_y
 _atom_site_fract_z
 _atom_site_fract_occupancy
 S  S1  1  0.18908  0.25000  0.37817  1
 S  S2  1  0.81092  0.75000  0.62183  1
 Sn  Sn1  1  0.85119  0.25000  0.70238  1
 Sn  Sn2  1  0.14881  0.75000  0.29762  1
