CIF file written using JARVIS-Tools package.
data_LuBi3O6
_symmetry_space_group_name_H-M  'R-3'
_cell_length_a       6.94462
_cell_length_b       6.94462
_cell_length_c       6.94463
_cell_angle_alpha    93.7494
_cell_angle_beta     93.7494
_cell_angle_gamma    93.7494

_symmetry_Int_Tables_number  148
_chemical_formula_structural  LuBi3O6
_chemical_formula_sum  Lu2Bi6O2
_cell_volume  332.6745986819219
_cell_formula_units_Z  2
loop_
  _symmetry_equiv_pos_site_id
 _symmetry_equiv_pos_as_xyz
 1  'x, y, z'
loop_
 _atom_site_type_symbol
 _atom_site_label
 _atom_site_symmetry_multiplicity
 _atom_site_fract_x
 _atom_site_fract_y
 _atom_site_fract_z
 _atom_site_fract_occupancy
 Bi  Bi1  1  0.07334  0.55752  0.25212  1
 Bi  Bi2  1  0.25212  0.07334  0.55752  1
 Bi  Bi3  1  0.44248  0.74788  0.92666  1
 Bi  Bi4  1  0.55752  0.25212  0.07334  1
 Bi  Bi5  1  0.74788  0.92666  0.44248  1
 Bi  Bi6  1  0.92666  0.44248  0.74788  1
 Lu  Lu1  1  0.00000  0.00000  0.00000  1
 Lu  Lu2  1  0.50000  0.50000  0.50000  1
 O  O1  1  0.06180  0.69472  0.93188  1
 O  O2  1  0.93188  0.06180  0.69472  1
 O  O3  1  0.19496  0.40237  0.53084  1
 O  O4  1  0.30528  0.06812  0.93820  1
 O  O5  1  0.06812  0.93820  0.30528  1
 O  O6  1  0.69472  0.93188  0.06180  1
 O  O7  1  0.53084  0.19496  0.40237  1
 O  O8  1  0.59763  0.46916  0.80504  1
 O  O9  1  0.40237  0.53084  0.19496  1
 O  O10  1  0.80504  0.59763  0.46916  1
 O  O11  1  0.46916  0.80504  0.59763  1
 O  O12  1  0.93820  0.30528  0.06812  1
