CIF file written using JARVIS-Tools package.
data_LiZnHg2
_symmetry_space_group_name_H-M  'Immm'
_cell_length_a       10.9154
_cell_length_b       6.2808
_cell_length_c       6.2808
_cell_angle_alpha    31.3518
_cell_angle_beta     29.6633
_cell_angle_gamma    29.6633

_symmetry_Int_Tables_number  71
_chemical_formula_structural  LiZnHg2
_chemical_formula_sum  LiZnHg2
_cell_volume  96.48154580118063
_cell_formula_units_Z  1
loop_
  _symmetry_equiv_pos_site_id
 _symmetry_equiv_pos_as_xyz
 1  'x, y, z'
loop_
 _atom_site_type_symbol
 _atom_site_label
 _atom_site_symmetry_multiplicity
 _atom_site_fract_x
 _atom_site_fract_y
 _atom_site_fract_z
 _atom_site_fract_occupancy
 Hg  Hg1  1  0.75605  0.00000  -0.00000  1
 Hg  Hg2  1  0.24395  -0.00000  0.00000  1
 Li  Li1  1  0.00000  0.00000  0.00000  1
 Zn  Zn1  1  0.50000  -0.00000  -0.00000  1
