CIF file written using JARVIS-Tools package.
data_Mg2Mo3O8
_symmetry_space_group_name_H-M  'C2/m'
_cell_length_a       4.94184
_cell_length_b       5.7068
_cell_length_c       6.20719
_cell_angle_alpha    117.367
_cell_angle_beta     107.931
_cell_angle_gamma    90

_symmetry_Int_Tables_number  12
_chemical_formula_structural  Mg2Mo3O8
_chemical_formula_sum  Mg2Mo3O8
_cell_volume  145.82268588364454
_cell_formula_units_Z  1
loop_
  _symmetry_equiv_pos_site_id
 _symmetry_equiv_pos_as_xyz
 1  'x, y, z'
loop_
 _atom_site_type_symbol
 _atom_site_label
 _atom_site_symmetry_multiplicity
 _atom_site_fract_x
 _atom_site_fract_y
 _atom_site_fract_z
 _atom_site_fract_occupancy
 Mg  Mg1  1  0.66650  0.73429  0.46858  1
 Mg  Mg2  1  0.33350  0.26571  0.53142  1
 Mo  Mo1  1  0.50000  1.00000  -0.00000  1
 Mo  Mo2  1  1.00000  0.71673  -0.00000  1
 Mo  Mo3  1  1.00000  0.28327  0.00000  1
 O  O1  1  0.09372  0.38040  0.76080  1
 O  O2  1  0.90628  0.61960  0.23920  1
 O  O3  1  0.06558  0.88820  0.77640  1
 O  O4  1  0.93442  0.11180  0.22359  1
 O  O5  1  0.41483  0.35985  0.23967  1
 O  O6  1  0.41483  0.87982  0.23967  1
 O  O7  1  0.58517  0.12018  0.76033  1
 O  O8  1  0.58517  0.64015  0.76033  1
