CIF file written using JARVIS-Tools package.
data_ZnBi4O8
_symmetry_space_group_name_H-M  'R-3m'
_cell_length_a       6.17624
_cell_length_b       6.17624
_cell_length_c       6.17625
_cell_angle_alpha    71.5247
_cell_angle_beta     71.5247
_cell_angle_gamma    71.5248

_symmetry_Int_Tables_number  166
_chemical_formula_structural  ZnBi4O8
_chemical_formula_sum  ZnBi4O8
_cell_volume  205.71176200754772
_cell_formula_units_Z  1
loop_
  _symmetry_equiv_pos_site_id
 _symmetry_equiv_pos_as_xyz
 1  'x, y, z'
loop_
 _atom_site_type_symbol
 _atom_site_label
 _atom_site_symmetry_multiplicity
 _atom_site_fract_x
 _atom_site_fract_y
 _atom_site_fract_z
 _atom_site_fract_occupancy
 Bi  Bi1  1  0.50000  1.00000  0.50000  1
 Bi  Bi2  1  1.00000  0.50000  0.50000  1
 Bi  Bi3  1  0.50000  0.50000  0.00000  1
 Bi  Bi4  1  0.00000  0.00000  0.00000  1
 O  O1  1  0.73689  0.27381  0.73689  1
 O  O2  1  0.26311  0.26311  0.72619  1
 O  O3  1  0.26311  0.72619  0.26311  1
 O  O4  1  0.72618  0.26311  0.26311  1
 O  O5  1  0.25620  0.25620  0.25620  1
 O  O6  1  0.74380  0.74380  0.74380  1
 O  O7  1  0.27382  0.73689  0.73689  1
 O  O8  1  0.73689  0.73689  0.27381  1
 Zn  Zn1  1  0.50000  0.50000  0.50000  1
