CIF file written using JARVIS-Tools package.
data_Ba3BPO7
_symmetry_space_group_name_H-M  'P6_3mc'
_cell_length_a       5.56154
_cell_length_b       5.56154
_cell_length_c       14.7758
_cell_angle_alpha    90
_cell_angle_beta     90
_cell_angle_gamma    120

_symmetry_Int_Tables_number  186
_chemical_formula_structural  Ba3BPO7
_chemical_formula_sum  Ba6B2P2O4
_cell_volume  395.7959223360514
_cell_formula_units_Z  2
loop_
  _symmetry_equiv_pos_site_id
 _symmetry_equiv_pos_as_xyz
 1  'x, y, z'
loop_
 _atom_site_type_symbol
 _atom_site_label
 _atom_site_symmetry_multiplicity
 _atom_site_fract_x
 _atom_site_fract_y
 _atom_site_fract_z
 _atom_site_fract_occupancy
 B  B1  1  0.33333  0.66667  0.25896  1
 B  B2  1  0.66667  0.33333  0.75896  1
 Ba  Ba1  1  0.00000  0.00000  0.28115  1
 Ba  Ba2  1  0.33333  0.66667  0.61795  1
 Ba  Ba3  1  0.00000  0.00000  0.78115  1
 Ba  Ba4  1  0.66667  0.33333  0.11795  1
 Ba  Ba5  1  0.66667  0.33333  0.40239  1
 Ba  Ba6  1  0.33333  0.66667  0.90239  1
 O  O1  1  0.52162  0.47838  0.75831  1
 O  O2  1  0.15099  0.84901  0.46658  1
 O  O3  1  0.47838  0.52162  0.25831  1
 O  O4  1  0.84901  0.15099  0.96658  1
 O  O5  1  0.15099  0.30198  0.46658  1
 O  O6  1  0.00000  0.00000  0.60813  1
 O  O7  1  0.30198  0.15099  0.96658  1
 O  O8  1  0.52162  0.04325  0.75831  1
 O  O9  1  0.04325  0.52162  0.25831  1
 O  O10  1  0.84901  0.69802  0.96658  1
 O  O11  1  0.69802  0.84901  0.46658  1
 O  O12  1  0.00000  0.00000  0.10813  1
 O  O13  1  0.95675  0.47838  0.75831  1
 O  O14  1  0.47838  0.95675  0.25831  1
 P  P1  1  0.00000  0.00000  0.50345  1
 P  P2  1  0.00000  0.00000  0.00345  1
