CIF file written using JARVIS-Tools package.
data_Ba2YTaO6
_symmetry_space_group_name_H-M  'I4/m'
_cell_length_a       6.00077
_cell_length_b       6.00077
_cell_length_c       6.01571
_cell_angle_alpha    119.918
_cell_angle_beta     119.918
_cell_angle_gamma    90

_symmetry_Int_Tables_number  87
_chemical_formula_structural  Ba2YTaO6
_chemical_formula_sum  Ba2YTaO6
_cell_volume  153.55426763111623
_cell_formula_units_Z  1
loop_
  _symmetry_equiv_pos_site_id
 _symmetry_equiv_pos_as_xyz
 1  'x, y, z'
loop_
 _atom_site_type_symbol
 _atom_site_label
 _atom_site_symmetry_multiplicity
 _atom_site_fract_x
 _atom_site_fract_y
 _atom_site_fract_z
 _atom_site_fract_occupancy
 Ba  Ba1  1  0.25000  0.75000  0.50000  1
 Ba  Ba2  1  0.75000  0.25000  0.50000  1
 O  O1  1  0.75997  0.71184  -0.00000  1
 O  O2  1  0.28816  0.75997  -0.00000  1
 O  O3  1  0.71184  0.24003  0.00000  1
 O  O4  1  0.24003  0.28816  0.00000  1
 O  O5  1  0.26389  0.26389  0.52778  1
 O  O6  1  0.73611  0.73611  0.47222  1
 Ta  Ta1  1  0.50000  0.50000  -0.00000  1
 Y  Y1  1  0.00000  0.00000  0.00000  1
