CIF file written using JARVIS-Tools package.
data_Sc2InAu
_symmetry_space_group_name_H-M  'I4/mmm'
_cell_length_a       14.2905
_cell_length_b       7.64363
_cell_length_c       7.64363
_cell_angle_alpha    29.0961
_cell_angle_beta     20.8046
_cell_angle_gamma    20.8046

_symmetry_Int_Tables_number  139
_chemical_formula_structural  Sc2InAu
_chemical_formula_sum  Sc2InAu
_cell_volume  105.3287258474561
_cell_formula_units_Z  1
loop_
  _symmetry_equiv_pos_site_id
 _symmetry_equiv_pos_as_xyz
 1  'x, y, z'
loop_
 _atom_site_type_symbol
 _atom_site_label
 _atom_site_symmetry_multiplicity
 _atom_site_fract_x
 _atom_site_fract_y
 _atom_site_fract_z
 _atom_site_fract_occupancy
 Au  Au1  1  0.50000  -0.00000  -0.00000  1
 In  In1  1  0.00000  0.00000  0.00000  1
 Sc  Sc1  1  0.69031  -0.00000  -0.00000  1
 Sc  Sc2  1  0.30969  0.00000  0.00000  1
