CIF file written using JARVIS-Tools package.
data_Mn3Zn2O8
_symmetry_space_group_name_H-M  'P6_3mc'
_cell_length_a       5.78759
_cell_length_b       5.78759
_cell_length_c       9.31882
_cell_angle_alpha    90
_cell_angle_beta     90
_cell_angle_gamma    120

_symmetry_Int_Tables_number  186
_chemical_formula_structural  Mn3Zn2O8
_chemical_formula_sum  Mn6Zn4O6
_cell_volume  270.3259617918372
_cell_formula_units_Z  2
loop_
  _symmetry_equiv_pos_site_id
 _symmetry_equiv_pos_as_xyz
 1  'x, y, z'
loop_
 _atom_site_type_symbol
 _atom_site_label
 _atom_site_symmetry_multiplicity
 _atom_site_fract_x
 _atom_site_fract_y
 _atom_site_fract_z
 _atom_site_fract_occupancy
 Mn  Mn1  1  0.67308  0.83654  0.75485  1
 Mn  Mn2  1  0.83654  0.67308  0.25485  1
 Mn  Mn3  1  0.16346  0.83654  0.75485  1
 Mn  Mn4  1  0.83654  0.16346  0.25485  1
 Mn  Mn5  1  0.32692  0.16346  0.25485  1
 Mn  Mn6  1  0.16346  0.32692  0.75485  1
 O  O1  1  0.84257  0.68514  0.85756  1
 O  O2  1  0.68514  0.84257  0.35756  1
 O  O3  1  0.48197  0.96394  0.63743  1
 O  O4  1  0.84257  0.15743  0.85756  1
 O  O5  1  0.31486  0.15743  0.85756  1
 O  O6  1  0.15743  0.31486  0.35756  1
 O  O7  1  0.15743  0.84257  0.35756  1
 O  O8  1  0.03606  0.51803  0.63743  1
 O  O9  1  0.51803  0.48197  0.13743  1
 O  O10  1  0.33333  0.66667  0.86206  1
 O  O11  1  0.00000  0.00000  0.14898  1
 O  O12  1  0.51803  0.03606  0.13743  1
 O  O13  1  0.96394  0.48197  0.13743  1
 O  O14  1  0.48197  0.51803  0.63743  1
 O  O15  1  0.00000  0.00000  0.64898  1
 O  O16  1  0.66667  0.33333  0.36206  1
 Zn  Zn1  1  0.33333  0.66667  0.46754  1
 Zn  Zn2  1  0.66667  0.33333  0.96754  1
 Zn  Zn3  1  0.66667  0.33333  0.57839  1
 Zn  Zn4  1  0.33333  0.66667  0.07839  1
