CIF file written using JARVIS-Tools package.
data_Sr2CaUO6
_symmetry_space_group_name_H-M  'P2_1/c'
_cell_length_a       5.95167
_cell_length_b       6.11653
_cell_length_c       10.3355
_cell_angle_alpha    90
_cell_angle_beta     124.857
_cell_angle_gamma    90

_symmetry_Int_Tables_number  14
_chemical_formula_structural  Sr2CaUO6
_chemical_formula_sum  Sr4Ca2U2O2
_cell_volume  308.74160971002976
_cell_formula_units_Z  2
loop_
  _symmetry_equiv_pos_site_id
 _symmetry_equiv_pos_as_xyz
 1  'x, y, z'
loop_
 _atom_site_type_symbol
 _atom_site_label
 _atom_site_symmetry_multiplicity
 _atom_site_fract_x
 _atom_site_fract_y
 _atom_site_fract_z
 _atom_site_fract_occupancy
 Ca  Ca1  1  0.50000  0.50000  0.50000  1
 Ca  Ca2  1  0.50000  0.00000  0.00000  1
 O  O1  1  0.75250  0.21937  0.93905  1
 O  O2  1  0.86934  0.54275  0.76505  1
 O  O3  1  0.24750  0.78063  0.06095  1
 O  O4  1  0.13066  0.45725  0.23495  1
 O  O5  1  0.86934  0.95725  0.26505  1
 O  O6  1  0.13066  0.04275  0.73495  1
 O  O7  1  0.33376  0.31113  0.04959  1
 O  O8  1  0.33376  0.18887  0.54959  1
 O  O9  1  0.75250  0.28063  0.43905  1
 O  O10  1  0.66624  0.81113  0.45041  1
 O  O11  1  0.24750  0.71937  0.56095  1
 O  O12  1  0.66624  0.68887  0.95041  1
 Sr  Sr1  1  0.26578  0.45136  0.75251  1
 Sr  Sr2  1  0.73422  0.95136  0.74749  1
 Sr  Sr3  1  0.26578  0.04864  0.25251  1
 Sr  Sr4  1  0.73422  0.54864  0.24749  1
 U  U1  1  -0.00000  0.00000  0.50000  1
 U  U2  1  0.00000  0.50000  0.00000  1
