CIF file written using JARVIS-Tools package.
data_LiBe2Os
_symmetry_space_group_name_H-M  'I4/mmm'
_cell_length_a       9.70404
_cell_length_b       6.45232
_cell_length_c       6.45234
_cell_angle_alpha    31.2373
_cell_angle_beta     19.1694
_cell_angle_gamma    19.1691

_symmetry_Int_Tables_number  139
_chemical_formula_structural  LiBe2Os
_chemical_formula_sum  LiBe2Os
_cell_volume  40.89162421207322
_cell_formula_units_Z  1
loop_
  _symmetry_equiv_pos_site_id
 _symmetry_equiv_pos_as_xyz
 1  'x, y, z'
loop_
 _atom_site_type_symbol
 _atom_site_label
 _atom_site_symmetry_multiplicity
 _atom_site_fract_x
 _atom_site_fract_y
 _atom_site_fract_z
 _atom_site_fract_occupancy
 Be  Be1  1  0.74998  0.00002  0.00003  1
 Be  Be2  1  0.25002  -0.00002  -0.00003  1
 Li  Li1  1  0.00000  0.00000  0.00000  1
 Os  Os1  1  0.50000  -0.00000  -0.00000  1
