CIF file written using JARVIS-Tools package.
data_InCuS2
_symmetry_space_group_name_H-M  'R3m'
_cell_length_a       3.87679
_cell_length_b       3.8768
_cell_length_c       6.56319
_cell_angle_alpha    72.8218
_cell_angle_beta     72.8218
_cell_angle_gamma    59.9999

_symmetry_Int_Tables_number  160
_chemical_formula_structural  InCuS2
_chemical_formula_sum  InCuS2
_cell_volume  80.30502659496506
_cell_formula_units_Z  1
loop_
  _symmetry_equiv_pos_site_id
 _symmetry_equiv_pos_as_xyz
 1  'x, y, z'
loop_
 _atom_site_type_symbol
 _atom_site_label
 _atom_site_symmetry_multiplicity
 _atom_site_fract_x
 _atom_site_fract_y
 _atom_site_fract_z
 _atom_site_fract_occupancy
 Cu  Cu1  1  0.86320  0.86320  0.41040  1
 In  In1  1  0.00424  0.00424  0.98729  1
 S  S1  1  0.73945  0.73945  0.78164  1
 S  S2  1  0.24011  0.24011  0.27967  1
