CIF file written using JARVIS-Tools package.
data_LiCaSb
_symmetry_space_group_name_H-M  'Pnma'
_cell_length_a       4.61928
_cell_length_b       7.62661
_cell_length_c       8.27126
_cell_angle_alpha    90
_cell_angle_beta     90
_cell_angle_gamma    90

_symmetry_Int_Tables_number  62
_chemical_formula_structural  LiCaSb
_chemical_formula_sum  Li4Ca4Sb4
_cell_volume  291.39181750754295
_cell_formula_units_Z  4
loop_
  _symmetry_equiv_pos_site_id
 _symmetry_equiv_pos_as_xyz
 1  'x, y, z'
loop_
 _atom_site_type_symbol
 _atom_site_label
 _atom_site_symmetry_multiplicity
 _atom_site_fract_x
 _atom_site_fract_y
 _atom_site_fract_z
 _atom_site_fract_occupancy
 Ca  Ca1  1  0.75000  0.49058  0.70323  1
 Ca  Ca2  1  0.75000  0.99058  0.79677  1
 Ca  Ca3  1  0.25000  0.50942  0.29677  1
 Ca  Ca4  1  0.25000  0.00942  0.20323  1
 Li  Li1  1  0.75000  0.84755  0.42713  1
 Li  Li2  1  0.25000  0.15245  0.57287  1
 Li  Li3  1  0.25000  0.65245  0.92713  1
 Li  Li4  1  0.75000  0.34755  0.07287  1
 Sb  Sb1  1  0.75000  0.73111  0.09888  1
 Sb  Sb2  1  0.25000  0.26889  0.90112  1
 Sb  Sb3  1  0.75000  0.23111  0.40112  1
 Sb  Sb4  1  0.25000  0.76889  0.59888  1
