CIF file written using JARVIS-Tools package.
data_CrHO2
_symmetry_space_group_name_H-M  'Pnma'
_cell_length_a       2.99983
_cell_length_b       4.46068
_cell_length_c       9.85205
_cell_angle_alpha    90
_cell_angle_beta     90
_cell_angle_gamma    90

_symmetry_Int_Tables_number  62
_chemical_formula_structural  CrHO2
_chemical_formula_sum  Cr4H4O8
_cell_volume  131.83332509702478
_cell_formula_units_Z  4
loop_
  _symmetry_equiv_pos_site_id
 _symmetry_equiv_pos_as_xyz
 1  'x, y, z'
loop_
 _atom_site_type_symbol
 _atom_site_label
 _atom_site_symmetry_multiplicity
 _atom_site_fract_x
 _atom_site_fract_y
 _atom_site_fract_z
 _atom_site_fract_occupancy
 Cr  Cr1  1  0.25000  0.54395  0.63983  1
 Cr  Cr2  1  0.25000  0.95605  0.13983  1
 Cr  Cr3  1  0.75000  0.45605  0.36017  1
 Cr  Cr4  1  0.75000  0.04395  0.86017  1
 H  H1  1  0.25000  0.92042  0.40566  1
 H  H2  1  0.25000  0.57958  0.90566  1
 H  H3  1  0.75000  0.07958  0.59434  1
 H  H4  1  0.75000  0.42042  0.09434  1
 O  O1  1  0.25000  0.19664  0.30623  1
 O  O2  1  0.25000  0.30336  0.80623  1
 O  O3  1  0.75000  0.80336  0.69377  1
 O  O4  1  0.75000  0.69664  0.19377  1
 O  O5  1  0.25000  0.70611  0.44362  1
 O  O6  1  0.25000  0.79389  0.94362  1
 O  O7  1  0.75000  0.29389  0.55638  1
 O  O8  1  0.75000  0.20611  0.05638  1
