CIF file written using JARVIS-Tools package.
data_CaBi4O8
_symmetry_space_group_name_H-M  'R-3m'
_cell_length_a       6.80901
_cell_length_b       6.80901
_cell_length_c       6.80901
_cell_angle_alpha    63.2159
_cell_angle_beta     63.2159
_cell_angle_gamma    63.2159

_symmetry_Int_Tables_number  166
_chemical_formula_structural  CaBi4O8
_chemical_formula_sum  CaBi4O8
_cell_volume  239.13191528478367
_cell_formula_units_Z  1
loop_
  _symmetry_equiv_pos_site_id
 _symmetry_equiv_pos_as_xyz
 1  'x, y, z'
loop_
 _atom_site_type_symbol
 _atom_site_label
 _atom_site_symmetry_multiplicity
 _atom_site_fract_x
 _atom_site_fract_y
 _atom_site_fract_z
 _atom_site_fract_occupancy
 Bi  Bi1  1  0.50000  1.00000  0.50000  1
 Bi  Bi2  1  1.00000  0.50000  0.50000  1
 Bi  Bi3  1  0.50000  0.50000  -0.00000  1
 Bi  Bi4  1  0.00000  0.00000  0.00000  1
 Ca  Ca1  1  0.50000  0.50000  0.50000  1
 O  O1  1  0.74955  0.28069  0.74955  1
 O  O2  1  0.25045  0.25045  0.71931  1
 O  O3  1  0.25045  0.71931  0.25045  1
 O  O4  1  0.71931  0.25045  0.25045  1
 O  O5  1  0.26853  0.26853  0.26853  1
 O  O6  1  0.73147  0.73147  0.73147  1
 O  O7  1  0.28069  0.74955  0.74955  1
 O  O8  1  0.74955  0.74955  0.28069  1
