CIF file written using JARVIS-Tools package.
data_MgMo6O16
_symmetry_space_group_name_H-M  'P3m1'
_cell_length_a       5.94356
_cell_length_b       5.94356
_cell_length_c       9.41543
_cell_angle_alpha    90
_cell_angle_beta     90
_cell_angle_gamma    120

_symmetry_Int_Tables_number  156
_chemical_formula_structural  MgMo6O16
_chemical_formula_sum  MgMo6O6
_cell_volume  288.04714331528163
_cell_formula_units_Z  1
loop_
  _symmetry_equiv_pos_site_id
 _symmetry_equiv_pos_as_xyz
 1  'x, y, z'
loop_
 _atom_site_type_symbol
 _atom_site_label
 _atom_site_symmetry_multiplicity
 _atom_site_fract_x
 _atom_site_fract_y
 _atom_site_fract_z
 _atom_site_fract_occupancy
 Mg  Mg1  1  0.66667  0.33333  0.96989  1
 Mo  Mo1  1  0.68049  0.84025  0.74089  1
 Mo  Mo2  1  0.82945  0.65889  0.26090  1
 Mo  Mo3  1  0.15975  0.84025  0.74089  1
 Mo  Mo4  1  0.82945  0.17055  0.26090  1
 Mo  Mo5  1  0.34111  0.17055  0.26090  1
 Mo  Mo6  1  0.15975  0.31951  0.74089  1
 O  O1  1  0.84073  0.68146  0.86215  1
 O  O2  1  0.68316  0.84158  0.35650  1
 O  O3  1  0.15842  0.84158  0.35650  1
 O  O4  1  0.84073  0.15927  0.86215  1
 O  O5  1  0.48652  0.97305  0.64442  1
 O  O6  1  0.15842  0.31684  0.35650  1
 O  O7  1  0.31854  0.15927  0.86215  1
 O  O8  1  0.52220  0.47780  0.13519  1
 O  O9  1  0.48652  0.51348  0.64442  1
 O  O10  1  0.52220  0.04439  0.13519  1
 O  O11  1  0.00000  0.00000  0.61155  1
 O  O12  1  0.00000  0.00000  0.14803  1
 O  O13  1  0.33333  0.66667  0.85327  1
 O  O14  1  0.95561  0.47780  0.13519  1
 O  O15  1  0.02695  0.51348  0.64442  1
 O  O16  1  0.66667  0.33333  0.38105  1
