CIF file written using JARVIS-Tools package.
data_Si2TcRh
_symmetry_space_group_name_H-M  'Immm'
_cell_length_a       9.79411
_cell_length_b       5.60047
_cell_length_c       5.60047
_cell_angle_alpha    49.9237
_cell_angle_beta     29.0259
_cell_angle_gamma    29.0258

_symmetry_Int_Tables_number  71
_chemical_formula_structural  Si2TcRh
_chemical_formula_sum  Si2TcRh
_cell_volume  62.080113079368175
_cell_formula_units_Z  1
loop_
  _symmetry_equiv_pos_site_id
 _symmetry_equiv_pos_as_xyz
 1  'x, y, z'
loop_
 _atom_site_type_symbol
 _atom_site_label
 _atom_site_symmetry_multiplicity
 _atom_site_fract_x
 _atom_site_fract_y
 _atom_site_fract_z
 _atom_site_fract_occupancy
 Rh  Rh1  1  0.50000  0.00000  -0.00000  1
 Si  Si1  1  0.74267  -0.00000  0.00000  1
 Si  Si2  1  0.25733  0.00000  -0.00000  1
 Tc  Tc1  1  0.00000  0.00000  0.00000  1
