CIF file written using JARVIS-Tools package.
data_MgCoF5
_symmetry_space_group_name_H-M  'C2/c'
_cell_length_a       5.11734
_cell_length_b       5.11734
_cell_length_c       7.16785
_cell_angle_alpha    96.9065
_cell_angle_beta     112.082
_cell_angle_gamma    107.759

_symmetry_Int_Tables_number  15
_chemical_formula_structural  MgCoF5
_chemical_formula_sum  Mg2Co2F0
_cell_volume  159.67290651683786
_cell_formula_units_Z  2
loop_
  _symmetry_equiv_pos_site_id
 _symmetry_equiv_pos_as_xyz
 1  'x, y, z'
loop_
 _atom_site_type_symbol
 _atom_site_label
 _atom_site_symmetry_multiplicity
 _atom_site_fract_x
 _atom_site_fract_y
 _atom_site_fract_z
 _atom_site_fract_occupancy
 Co  Co1  1  0.00000  0.00000  0.00000  1
 Co  Co2  1  0.50000  0.00000  0.50000  1
 F  F1  1  0.35138  0.10138  0.25000  1
 F  F2  1  0.64862  0.89862  0.75000  1
 F  F3  1  0.57064  0.71748  0.36812  1
 F  F4  1  0.84936  0.20252  0.13188  1
 F  F5  1  0.75382  0.67490  0.03302  1
 F  F6  1  0.14188  0.72080  0.46698  1
 F  F7  1  0.24618  0.32510  0.96698  1
 F  F8  1  0.85812  0.27920  0.53302  1
 F  F9  1  0.15064  0.79748  0.86812  1
 F  F10  1  0.42936  0.28252  0.63188  1
 Mg  Mg1  1  0.28436  0.53436  0.75000  1
 Mg  Mg2  1  0.71564  0.46564  0.25000  1
