data_image0
_chemical_formula_structural       Cl6NbRb2
_chemical_formula_sum              "Cl6 Nb1 Rb2"
_cell_length_a       7.09181
_cell_length_b       7.09181
_cell_length_c       7.09181
_cell_angle_alpha    92.0558
_cell_angle_beta     118.82
_cell_angle_gamma    118.82

_space_group_name_H-M_alt    "P 1"
_space_group_IT_number       1

loop_
  _space_group_symop_operation_xyz
  'x, y, z'

loop_
  _atom_site_type_symbol
  _atom_site_label
  _atom_site_symmetry_multiplicity
  _atom_site_fract_x
  _atom_site_fract_y
  _atom_site_fract_z
  _atom_site_occupancy
  Cl  Cl1       1.0  0.00000  0.76100  0.23900  1.0000
  Cl  Cl2       1.0  0.47800  0.23900  0.23900  1.0000
  Cl  Cl3       1.0  0.00000  0.24600  0.24600  1.0000
  Cl  Cl4       1.0  0.00000  0.75400  0.75400  1.0000
  Cl  Cl5       1.0  0.00000  0.23900  0.76100  1.0000
  Cl  Cl6       1.0  0.52200  0.76100  0.76100  1.0000
  Nb  Nb1       1.0  0.00000  0.00000  0.00000  1.0000
  Rb  Rb1       1.0  0.50000  0.75000  0.25000  1.0000
  Rb  Rb2       1.0  0.50000  0.25000  0.75000  1.0000
