CIF file written using JARVIS-Tools package.
data_BeFeCo2
_symmetry_space_group_name_H-M  'C2/m'
_cell_length_a       9.55225
_cell_length_b       6.31964
_cell_length_c       6.31963
_cell_angle_alpha    22.0456
_cell_angle_beta     19.1429
_cell_angle_gamma    19.1429

_symmetry_Int_Tables_number  12
_chemical_formula_structural  BeFeCo2
_chemical_formula_sum  BeFeCo2
_cell_volume  38.86578164959988
_cell_formula_units_Z  1
loop_
  _symmetry_equiv_pos_site_id
 _symmetry_equiv_pos_as_xyz
 1  'x, y, z'
loop_
 _atom_site_type_symbol
 _atom_site_label
 _atom_site_symmetry_multiplicity
 _atom_site_fract_x
 _atom_site_fract_y
 _atom_site_fract_z
 _atom_site_fract_occupancy
 Be  Be1  1  -0.00001  0.00001  0.00001  1
 Co  Co1  1  0.74154  0.00666  0.00666  1
 Co  Co2  1  0.25848  -0.00668  -0.00668  1
 Fe  Fe1  1  0.49999  0.00001  0.00001  1
