CIF file written using JARVIS-Tools package.
data_KFe
_symmetry_space_group_name_H-M  'Imma'
_cell_length_a       4.09225
_cell_length_b       6.10931
_cell_length_c       6.10931
_cell_angle_alpha    108.201
_cell_angle_beta     109.594
_cell_angle_gamma    109.594

_symmetry_Int_Tables_number  74
_chemical_formula_structural  KFe
_chemical_formula_sum  K2Fe2
_cell_volume  119.02475854725105
_cell_formula_units_Z  2
loop_
  _symmetry_equiv_pos_site_id
 _symmetry_equiv_pos_as_xyz
 1  'x, y, z'
loop_
 _atom_site_type_symbol
 _atom_site_label
 _atom_site_symmetry_multiplicity
 _atom_site_fract_x
 _atom_site_fract_y
 _atom_site_fract_z
 _atom_site_fract_occupancy
 Fe  Fe1  1  0.25000  0.53927  0.46073  1
 Fe  Fe2  1  0.75000  0.46073  0.53927  1
 K  K1  1  0.25000  0.15916  0.84084  1
 K  K2  1  0.75000  0.84084  0.15916  1
