CIF file written using JARVIS-Tools package.
data_BrCl
_symmetry_space_group_name_H-M  'Cmcm'
_cell_length_a       3.94836
_cell_length_b       3.94836
_cell_length_c       7.8167
_cell_angle_alpha    90
_cell_angle_beta     90
_cell_angle_gamma    110.09

_symmetry_Int_Tables_number  63
_chemical_formula_structural  BrCl
_chemical_formula_sum  Br2Cl2
_cell_volume  114.44413295378469
_cell_formula_units_Z  2
loop_
  _symmetry_equiv_pos_site_id
 _symmetry_equiv_pos_as_xyz
 1  'x, y, z'
loop_
 _atom_site_type_symbol
 _atom_site_label
 _atom_site_symmetry_multiplicity
 _atom_site_fract_x
 _atom_site_fract_y
 _atom_site_fract_z
 _atom_site_fract_occupancy
 Br  Br1  1  0.00054  0.00054  0.37487  1
 Br  Br2  1  0.99946  0.99946  0.87487  1
 Cl  Cl1  1  0.68142  0.68142  0.62513  1
 Cl  Cl2  1  0.31858  0.31858  0.12513  1
