CIF file written using JARVIS-Tools package.
data_MoSe2Cl12
_symmetry_space_group_name_H-M  'Fdd2'
_cell_length_a       8.51065
_cell_length_b       8.51065
_cell_length_c       12.1066
_cell_angle_alpha    108.682
_cell_angle_beta     108.682
_cell_angle_gamma    95.0872

_symmetry_Int_Tables_number  43
_chemical_formula_structural  MoSe2Cl12
_chemical_formula_sum  Mo2Se4Cl24
_cell_volume  768.8376021518773
_cell_formula_units_Z  2
loop_
  _symmetry_equiv_pos_site_id
 _symmetry_equiv_pos_as_xyz
 1  'x, y, z'
loop_
 _atom_site_type_symbol
 _atom_site_label
 _atom_site_symmetry_multiplicity
 _atom_site_fract_x
 _atom_site_fract_y
 _atom_site_fract_z
 _atom_site_fract_occupancy
 Cl  Cl1  1  0.39984  0.58585  0.24742  1
 Cl  Cl2  1  0.00673  0.34480  0.09358  1
 Cl  Cl3  1  0.24500  0.89877  0.40736  1
 Cl  Cl4  1  0.16237  0.50860  0.40736  1
 Cl  Cl5  1  0.83585  0.14984  0.74742  1
 Cl  Cl6  1  0.50006  0.32108  0.56713  1
 Cl  Cl7  1  0.99878  0.83685  0.59358  1
 Cl  Cl8  1  0.33071  0.65843  0.75379  1
 Cl  Cl9  1  0.67270  0.98920  0.40720  1
 Cl  Cl10  1  0.66800  0.48450  0.90720  1
 Cl  Cl11  1  0.57108  0.25006  0.06713  1
 Cl  Cl12  1  0.34536  0.17309  0.25379  1
 Cl  Cl13  1  0.84758  0.66157  0.24742  1
 Cl  Cl14  1  0.73450  0.41800  0.40720  1
 Cl  Cl15  1  0.91157  0.59758  0.74742  1
 Cl  Cl16  1  0.90843  0.08071  0.25379  1
 Cl  Cl17  1  0.49605  0.81707  0.06713  1
 Cl  Cl18  1  0.14877  0.99500  0.90736  1
 Cl  Cl19  1  0.08685  0.74878  0.09358  1
 Cl  Cl20  1  0.75860  0.91237  0.90736  1
 Cl  Cl21  1  0.06707  0.24605  0.56713  1
 Cl  Cl22  1  0.23920  0.42270  0.90720  1
 Cl  Cl23  1  0.59480  0.75673  0.59358  1
 Cl  Cl24  1  0.42309  0.09536  0.75379  1
 Mo  Mo1  1  0.87335  0.87335  0.74671  1
 Mo  Mo2  1  0.12335  0.62335  0.24671  1
 Se  Se1  1  0.66827  0.22739  0.91312  1
 Se  Se2  1  0.47739  0.41827  0.41312  1
 Se  Se3  1  0.24484  0.68573  0.91312  1
 Se  Se4  1  0.93573  0.99484  0.41312  1
