CIF file written using JARVIS-Tools package.
data_Ba4Fe2S4I5
_symmetry_space_group_name_H-M  'I4/m'
_cell_length_a       5.04485
_cell_length_b       10.0709
_cell_length_c       10.0709
_cell_angle_alpha    86.4033
_cell_angle_beta     75.4948
_cell_angle_gamma    75.4948

_symmetry_Int_Tables_number  87
_chemical_formula_structural  Ba4Fe2S4I5
_chemical_formula_sum  Ba4Fe2S4I5
_cell_volume  479.5644777533507
_cell_formula_units_Z  1
loop_
  _symmetry_equiv_pos_site_id
 _symmetry_equiv_pos_as_xyz
 1  'x, y, z'
loop_
 _atom_site_type_symbol
 _atom_site_label
 _atom_site_symmetry_multiplicity
 _atom_site_fract_x
 _atom_site_fract_y
 _atom_site_fract_z
 _atom_site_fract_occupancy
 Ba  Ba1  1  0.05645  0.69237  0.19472  1
 Ba  Ba2  1  0.25118  0.80528  0.69237  1
 Ba  Ba3  1  0.74882  0.19472  0.30763  1
 Ba  Ba4  1  0.94355  0.30763  0.80528  1
 Fe  Fe1  1  0.25000  0.50000  0.50000  1
 Fe  Fe2  1  0.75000  0.50000  0.50000  1
 I  I1  1  0.29525  0.33825  0.07125  1
 I  I2  1  0.36650  0.92875  0.33825  1
 I  I3  1  0.70475  0.66175  0.92875  1
 I  I4  1  0.00000  0.00000  0.00000  1
 I  I5  1  0.63350  0.07125  0.66175  1
 S  S1  1  0.90272  0.67806  0.51649  1
 S  S2  1  0.41921  0.48351  0.67806  1
 S  S3  1  0.09728  0.32194  0.48351  1
 S  S4  1  0.58079  0.51649  0.32194  1
