CIF file written using JARVIS-Tools package.
data_NaNb3O8
_symmetry_space_group_name_H-M  'Ibam'
_cell_length_a       7.16377
_cell_length_b       7.34121
_cell_length_c       7.34121
_cell_angle_alpha    60.8538
_cell_angle_beta     60.7964
_cell_angle_gamma    60.7964

_symmetry_Int_Tables_number  72
_chemical_formula_structural  NaNb3O8
_chemical_formula_sum  Na2Nb6O6
_cell_volume  278.0209995108429
_cell_formula_units_Z  2
loop_
  _symmetry_equiv_pos_site_id
 _symmetry_equiv_pos_as_xyz
 1  'x, y, z'
loop_
 _atom_site_type_symbol
 _atom_site_label
 _atom_site_symmetry_multiplicity
 _atom_site_fract_x
 _atom_site_fract_y
 _atom_site_fract_z
 _atom_site_fract_occupancy
 Na  Na1  1  0.75000  -0.00000  0.00000  1
 Na  Na2  1  0.25000  -0.00000  0.00000  1
 Nb  Nb1  1  0.75000  0.50000  0.50000  1
 Nb  Nb2  1  0.73621  0.01160  0.51598  1
 Nb  Nb3  1  0.26379  0.98840  0.48402  1
 Nb  Nb4  1  0.76379  0.48402  0.98840  1
 Nb  Nb5  1  0.23621  0.51598  0.01160  1
 Nb  Nb6  1  0.25000  0.50000  0.50000  1
 O  O1  1  0.84050  0.55940  0.16244  1
 O  O2  1  0.93766  0.16244  0.55940  1
 O  O3  1  0.65950  0.83756  0.44060  1
 O  O4  1  0.43766  0.55940  0.16244  1
 O  O5  1  0.15950  0.44060  0.83756  1
 O  O6  1  0.06234  0.83756  0.44060  1
 O  O7  1  0.34050  0.16244  0.55940  1
 O  O8  1  0.57668  0.31760  0.52904  1
 O  O9  1  0.16580  0.81856  0.84983  1
 O  O10  1  0.56234  0.44060  0.83756  1
 O  O11  1  0.66580  0.84983  0.81856  1
 O  O12  1  0.42332  0.68240  0.47096  1
 O  O13  1  0.92332  0.47096  0.68240  1
 O  O14  1  0.07668  0.52904  0.31760  1
 O  O15  1  0.83420  0.18144  0.15017  1
 O  O16  1  0.33420  0.15017  0.18144  1
