CIF file written using JARVIS-Tools package.
data_YCoO3
_symmetry_space_group_name_H-M  'Pnma'
_cell_length_a       5.50176
_cell_length_b       5.14043
_cell_length_c       7.38059
_cell_angle_alpha    90
_cell_angle_beta     89.9998
_cell_angle_gamma    90

_symmetry_Int_Tables_number  62
_chemical_formula_structural  YCoO3
_chemical_formula_sum  Y4Co4O2
_cell_volume  208.73331835264622
_cell_formula_units_Z  4
loop_
  _symmetry_equiv_pos_site_id
 _symmetry_equiv_pos_as_xyz
 1  'x, y, z'
loop_
 _atom_site_type_symbol
 _atom_site_label
 _atom_site_symmetry_multiplicity
 _atom_site_fract_x
 _atom_site_fract_y
 _atom_site_fract_z
 _atom_site_fract_occupancy
 Co  Co1  1  0.50000  0.00000  0.50000  1
 Co  Co2  1  0.00000  0.50000  0.50000  1
 Co  Co3  1  0.00000  0.50000  0.00000  1
 Co  Co4  1  0.50000  0.00000  -0.00000  1
 O  O1  1  0.52885  0.10168  0.25000  1
 O  O2  1  0.69798  0.69031  0.44966  1
 O  O3  1  0.02885  0.39832  0.25000  1
 O  O4  1  0.19798  0.80969  0.05034  1
 O  O5  1  0.30202  0.30969  0.94966  1
 O  O6  1  0.80202  0.19031  0.55034  1
 O  O7  1  0.19798  0.80969  0.44966  1
 O  O8  1  0.47115  0.89832  0.75000  1
 O  O9  1  0.69798  0.69031  0.05034  1
 O  O10  1  0.30202  0.30969  0.55034  1
 O  O11  1  0.97115  0.60168  0.75000  1
 O  O12  1  0.80202  0.19031  0.94966  1
 Y  Y1  1  0.92489  0.97888  0.25000  1
 Y  Y2  1  0.57511  0.47888  0.75000  1
 Y  Y3  1  0.42489  0.52112  0.25000  1
 Y  Y4  1  0.07511  0.02112  0.75000  1
