CIF file written using JARVIS-Tools package.
data_MgFe2O4
_symmetry_space_group_name_H-M  'C2/m'
_cell_length_a       2.81606
_cell_length_b       7.89324
_cell_length_c       7.22436
_cell_angle_alpha    71.7931
_cell_angle_beta     78.7631
_cell_angle_gamma    79.7256

_symmetry_Int_Tables_number  12
_chemical_formula_structural  MgFe2O4
_chemical_formula_sum  Mg2Fe4O8
_cell_volume  148.42414912720284
_cell_formula_units_Z  2
loop_
  _symmetry_equiv_pos_site_id
 _symmetry_equiv_pos_as_xyz
 1  'x, y, z'
loop_
 _atom_site_type_symbol
 _atom_site_label
 _atom_site_symmetry_multiplicity
 _atom_site_fract_x
 _atom_site_fract_y
 _atom_site_fract_z
 _atom_site_fract_occupancy
 Fe  Fe1  1  0.58987  0.19927  0.62109  1
 Fe  Fe2  1  0.15766  0.47790  0.20690  1
 Fe  Fe3  1  0.83781  0.49915  0.82533  1
 Fe  Fe4  1  0.40560  0.77778  0.41114  1
 Mg  Mg1  1  0.33003  0.14413  0.19590  1
 Mg  Mg2  1  0.66542  0.83292  0.83634  1
 O  O1  1  0.84444  0.70135  0.60993  1
 O  O2  1  0.43427  0.37890  0.75266  1
 O  O3  1  0.56121  0.59815  0.27957  1
 O  O4  1  0.15103  0.27570  0.42230  1
 O  O5  1  0.11028  0.02104  0.75852  1
 O  O6  1  0.78170  0.34346  0.09323  1
 O  O7  1  0.88519  0.95601  0.27371  1
 O  O8  1  0.21377  0.63358  0.93900  1
