CIF file written using JARVIS-Tools package.
data_TiCdO3
_symmetry_space_group_name_H-M  'Pnma'
_cell_length_a       5.35287
_cell_length_b       5.46662
_cell_length_c       7.69421
_cell_angle_alpha    90
_cell_angle_beta     90
_cell_angle_gamma    90

_symmetry_Int_Tables_number  62
_chemical_formula_structural  TiCdO3
_chemical_formula_sum  Ti4Cd4O2
_cell_volume  225.14855791873555
_cell_formula_units_Z  4
loop_
  _symmetry_equiv_pos_site_id
 _symmetry_equiv_pos_as_xyz
 1  'x, y, z'
loop_
 _atom_site_type_symbol
 _atom_site_label
 _atom_site_symmetry_multiplicity
 _atom_site_fract_x
 _atom_site_fract_y
 _atom_site_fract_z
 _atom_site_fract_occupancy
 Cd  Cd1  1  0.00836  0.96108  0.75000  1
 Cd  Cd2  1  0.50836  0.53892  0.25000  1
 Cd  Cd3  1  0.49164  0.46108  0.75000  1
 Cd  Cd4  1  0.99164  0.03892  0.25000  1
 O  O1  1  0.09065  0.47128  0.25000  1
 O  O2  1  0.70019  0.29694  0.45261  1
 O  O3  1  0.40935  0.97128  0.25000  1
 O  O4  1  0.79981  0.79694  0.04739  1
 O  O5  1  0.29981  0.70306  0.95261  1
 O  O6  1  0.20019  0.20306  0.54739  1
 O  O7  1  0.79981  0.79694  0.45261  1
 O  O8  1  0.90935  0.52872  0.75000  1
 O  O9  1  0.70019  0.29694  0.04739  1
 O  O10  1  0.29981  0.70306  0.54739  1
 O  O11  1  0.59065  0.02872  0.75000  1
 O  O12  1  0.20019  0.20306  0.95261  1
 Ti  Ti1  1  0.00000  0.50000  0.00000  1
 Ti  Ti2  1  0.50000  0.00000  0.00000  1
 Ti  Ti3  1  0.50000  0.00000  0.50000  1
 Ti  Ti4  1  0.00000  0.50000  0.50000  1
