CIF file written using JARVIS-Tools package.
data_SiC
_symmetry_space_group_name_H-M  'P3m1'
_cell_length_a       3.10042
_cell_length_b       3.10042
_cell_length_c       12.6864
_cell_angle_alpha    90
_cell_angle_beta     90
_cell_angle_gamma    120

_symmetry_Int_Tables_number  156
_chemical_formula_structural  SiC
_chemical_formula_sum  Si5C5
_cell_volume  105.61119135888701
_cell_formula_units_Z  5
loop_
  _symmetry_equiv_pos_site_id
 _symmetry_equiv_pos_as_xyz
 1  'x, y, z'
loop_
 _atom_site_type_symbol
 _atom_site_label
 _atom_site_symmetry_multiplicity
 _atom_site_fract_x
 _atom_site_fract_y
 _atom_site_fract_z
 _atom_site_fract_occupancy
 C  C1  1  0.66667  0.33333  0.95052  1
 C  C2  1  0.33333  0.66667  0.34993  1
 C  C3  1  0.00000  0.00000  0.15015  1
 C  C4  1  0.66667  0.33333  0.54959  1
 C  C5  1  0.00000  0.00000  0.75008  1
 Si  Si1  1  0.66667  0.33333  0.39965  1
 Si  Si2  1  0.66667  0.33333  0.80016  1
 Si  Si3  1  0.00000  0.00000  0.00024  1
 Si  Si4  1  0.33333  0.66667  0.19995  1
 Si  Si5  1  0.00000  0.00000  0.59972  1
