CIF file written using JARVIS-Tools package.
data_LiHg2Au
_symmetry_space_group_name_H-M  'C2/m'
_cell_length_a       14.7191
_cell_length_b       6.71706
_cell_length_c       8.79208
_cell_angle_alpha    25.9966
_cell_angle_beta     15.9632
_cell_angle_gamma    21.1007

_symmetry_Int_Tables_number  12
_chemical_formula_structural  LiHg2Au
_chemical_formula_sum  LiHg2Au
_cell_volume  86.05014193470647
_cell_formula_units_Z  1
loop_
  _symmetry_equiv_pos_site_id
 _symmetry_equiv_pos_as_xyz
 1  'x, y, z'
loop_
 _atom_site_type_symbol
 _atom_site_label
 _atom_site_symmetry_multiplicity
 _atom_site_fract_x
 _atom_site_fract_y
 _atom_site_fract_z
 _atom_site_fract_occupancy
 Au  Au1  1  0.50000  -0.00000  0.00000  1
 Hg  Hg1  1  0.68068  -0.13946  0.13916  1
 Hg  Hg2  1  0.31932  0.13946  -0.13916  1
 Li  Li1  1  -0.00000  -0.00000  0.00000  1
