CIF file written using JARVIS-Tools package.
data_Ca2PbAu
_symmetry_space_group_name_H-M  'C2/m'
_cell_length_a       12.0824
_cell_length_b       9.09773
_cell_length_c       9.09772
_cell_angle_alpha    15.769
_cell_angle_beta     20.0285
_cell_angle_gamma    20.0283

_symmetry_Int_Tables_number  12
_chemical_formula_structural  Ca2PbAu
_chemical_formula_sum  Ca2PbAu
_cell_volume  86.09942334421179
_cell_formula_units_Z  1
loop_
  _symmetry_equiv_pos_site_id
 _symmetry_equiv_pos_as_xyz
 1  'x, y, z'
loop_
 _atom_site_type_symbol
 _atom_site_label
 _atom_site_symmetry_multiplicity
 _atom_site_fract_x
 _atom_site_fract_y
 _atom_site_fract_z
 _atom_site_fract_occupancy
 Au  Au1  1  -0.00000  -0.00000  0.00000  1
 Ca  Ca1  1  0.74600  0.01021  0.01019  1
 Ca  Ca2  1  0.25400  -0.01021  -0.01019  1
 Pb  Pb1  1  0.50000  0.00000  -0.00000  1
