CIF file written using JARVIS-Tools package.
data_ZnCo2O4
_symmetry_space_group_name_H-M  'C2/m'
_cell_length_a       2.84353
_cell_length_b       6.89673
_cell_length_c       7.07897
_cell_angle_alpha    82.4776
_cell_angle_beta     78.413
_cell_angle_gamma    78.1021

_symmetry_Int_Tables_number  12
_chemical_formula_structural  ZnCo2O4
_chemical_formula_sum  Zn2Co4O8
_cell_volume  132.49429057507066
_cell_formula_units_Z  2
loop_
  _symmetry_equiv_pos_site_id
 _symmetry_equiv_pos_as_xyz
 1  'x, y, z'
loop_
 _atom_site_type_symbol
 _atom_site_label
 _atom_site_symmetry_multiplicity
 _atom_site_fract_x
 _atom_site_fract_y
 _atom_site_fract_z
 _atom_site_fract_occupancy
 Co  Co1  1  0.63742  0.17720  0.54807  1
 Co  Co2  1  0.14912  0.49828  0.20356  1
 Co  Co3  1  0.84635  0.47876  0.82867  1
 Co  Co4  1  0.35804  0.79985  0.48416  1
 O  O1  1  0.84796  0.68008  0.62410  1
 O  O2  1  0.45914  0.32731  0.75450  1
 O  O3  1  0.53632  0.64974  0.27773  1
 O  O4  1  0.14751  0.29698  0.40813  1
 O  O5  1  0.16267  0.00459  0.67013  1
 O  O6  1  0.78984  0.33847  0.08196  1
 O  O7  1  0.83280  0.97246  0.36210  1
 O  O8  1  0.20563  0.63857  0.95027  1
 Zn  Zn1  1  0.37020  0.10463  0.15518  1
 Zn  Zn2  1  0.62528  0.87241  0.87705  1
