CIF file written using JARVIS-Tools package.
data_CaNiO2
_symmetry_space_group_name_H-M  'C2/m'
_cell_length_a       3.10118
_cell_length_b       7.93218
_cell_length_c       8.97561
_cell_angle_alpha    112.436
_cell_angle_beta     99.9479
_cell_angle_gamma    89.9995

_symmetry_Int_Tables_number  12
_chemical_formula_structural  CaNiO2
_chemical_formula_sum  Ca4Ni4O8
_cell_volume  200.4836348675635
_cell_formula_units_Z  4
loop_
  _symmetry_equiv_pos_site_id
 _symmetry_equiv_pos_as_xyz
 1  'x, y, z'
loop_
 _atom_site_type_symbol
 _atom_site_label
 _atom_site_symmetry_multiplicity
 _atom_site_fract_x
 _atom_site_fract_y
 _atom_site_fract_z
 _atom_site_fract_occupancy
 Ca  Ca1  1  0.70111  0.13746  0.39900  1
 Ca  Ca2  1  0.30529  0.84117  0.60736  1
 Ca  Ca3  1  0.99613  0.71698  0.98905  1
 Ca  Ca4  1  0.01028  0.26167  0.01732  1
 Ni  Ni1  1  0.37566  0.24707  0.74808  1
 Ni  Ni2  1  0.83051  0.52661  0.65785  1
 Ni  Ni3  1  0.17586  0.45205  0.34853  1
 Ni  Ni4  1  0.63072  0.73155  0.25823  1
 O  O1  1  0.09417  0.56922  0.18511  1
 O  O2  1  0.60094  0.25523  0.19866  1
 O  O3  1  0.40546  0.72342  0.80771  1
 O  O4  1  0.91227  0.40939  0.82131  1
 O  O5  1  0.84596  0.07949  0.68868  1
 O  O6  1  0.26568  0.35802  0.52816  1
 O  O7  1  0.16034  0.89912  0.31746  1
 O  O8  1  0.74071  0.62063  0.47821  1
