CIF file written using JARVIS-Tools package.
data_CaFe2Si4O12
_symmetry_space_group_name_H-M  'C2'
_cell_length_a       5.25384
_cell_length_b       6.42512
_cell_length_c       6.42512
_cell_angle_alpha    84.6472
_cell_angle_beta     77.1737
_cell_angle_gamma    77.1738

_symmetry_Int_Tables_number  5
_chemical_formula_structural  CaFe2Si4O12
_chemical_formula_sum  CaFe2Si4O2
_cell_volume  205.98005384132802
_cell_formula_units_Z  1
loop_
  _symmetry_equiv_pos_site_id
 _symmetry_equiv_pos_as_xyz
 1  'x, y, z'
loop_
 _atom_site_type_symbol
 _atom_site_label
 _atom_site_symmetry_multiplicity
 _atom_site_fract_x
 _atom_site_fract_y
 _atom_site_fract_z
 _atom_site_fract_occupancy
 Ca  Ca1  1  0.25000  0.69945  0.30055  1
 Fe  Fe1  1  0.75000  0.91741  0.08259  1
 Fe  Fe2  1  0.25000  0.09036  0.90964  1
 O  O1  1  0.62562  0.96529  0.81655  1
 O  O2  1  0.29355  0.37607  0.91323  1
 O  O3  1  0.36188  0.03127  0.19435  1
 O  O4  1  0.49568  0.34564  0.35961  1
 O  O5  1  0.13812  0.80565  0.96873  1
 O  O6  1  0.87438  0.18345  0.03471  1
 O  O7  1  0.68716  0.62645  0.10260  1
 O  O8  1  0.81284  0.89740  0.37355  1
 O  O9  1  0.00388  0.37835  0.33906  1
 O  O10  1  0.00432  0.64039  0.65436  1
 O  O11  1  0.20645  0.08677  0.62393  1
 O  O12  1  0.49612  0.66094  0.62165  1
 Si  Si1  1  0.23435  0.60822  0.79837  1
 Si  Si2  1  0.72294  0.80242  0.61595  1
 Si  Si3  1  0.77706  0.38405  0.19758  1
 Si  Si4  1  0.26565  0.20163  0.39178  1
