CIF file written using JARVIS-Tools package.
data_Co5SbO8
_symmetry_space_group_name_H-M  'R-3m'
_cell_length_a       5.96919
_cell_length_b       5.82387
_cell_length_c       5.82387
_cell_angle_alpha    59.9999
_cell_angle_beta     60.8021
_cell_angle_gamma    60.802

_symmetry_Int_Tables_number  166
_chemical_formula_structural  Co5SbO8
_chemical_formula_sum  Co5SbO8
_cell_volume  144.8720700361851
_cell_formula_units_Z  1
loop_
  _symmetry_equiv_pos_site_id
 _symmetry_equiv_pos_as_xyz
 1  'x, y, z'
loop_
 _atom_site_type_symbol
 _atom_site_label
 _atom_site_symmetry_multiplicity
 _atom_site_fract_x
 _atom_site_fract_y
 _atom_site_fract_z
 _atom_site_fract_occupancy
 Co  Co1  1  0.09343  0.13552  0.13552  1
 Co  Co2  1  0.50000  0.00000  0.50000  1
 Co  Co3  1  0.50000  0.50000  0.50000  1
 Co  Co4  1  0.50000  0.50000  -0.00000  1
 Co  Co5  1  0.90657  0.86448  0.86448  1
 O  O1  1  0.26885  0.25450  0.25450  1
 O  O2  1  0.26885  0.72214  0.25450  1
 O  O3  1  0.26885  0.25450  0.72214  1
 O  O4  1  0.70439  0.26520  0.26520  1
 O  O5  1  0.29561  0.73480  0.73480  1
 O  O6  1  0.73115  0.74550  0.27786  1
 O  O7  1  0.73115  0.27786  0.74550  1
 O  O8  1  0.73115  0.74550  0.74550  1
 Sb  Sb1  1  0.00000  0.50000  0.50000  1
