CIF file written using JARVIS-Tools package.
data_Hf2ZnTc
_symmetry_space_group_name_H-M  'Immm'
_cell_length_a       10.7027
_cell_length_b       6.06687
_cell_length_c       6.06687
_cell_angle_alpha    47.862
_cell_angle_beta     28.1076
_cell_angle_gamma    28.1077

_symmetry_Int_Tables_number  71
_chemical_formula_structural  Hf2ZnTc
_chemical_formula_sum  Hf2ZnTc
_cell_volume  76.58297777286991
_cell_formula_units_Z  1
loop_
  _symmetry_equiv_pos_site_id
 _symmetry_equiv_pos_as_xyz
 1  'x, y, z'
loop_
 _atom_site_type_symbol
 _atom_site_label
 _atom_site_symmetry_multiplicity
 _atom_site_fract_x
 _atom_site_fract_y
 _atom_site_fract_z
 _atom_site_fract_occupancy
 Hf  Hf1  1  0.74583  1.00000  0.00000  1
 Hf  Hf2  1  0.25417  0.00000  1.00000  1
 Tc  Tc1  1  0.50000  -0.00000  0.00000  1
 Zn  Zn1  1  0.00000  0.00000  0.00000  1
