CIF file written using JARVIS-Tools package.
data_Al2FeO4
_symmetry_space_group_name_H-M  'Imma'
_cell_length_a       5.67253
_cell_length_b       5.67254
_cell_length_c       5.71663
_cell_angle_alpha    59.7426
_cell_angle_beta     59.7425
_cell_angle_gamma    59.5618

_symmetry_Int_Tables_number  74
_chemical_formula_structural  Al2FeO4
_chemical_formula_sum  Al4Fe2O8
_cell_volume  129.1311894229412
_cell_formula_units_Z  2
loop_
  _symmetry_equiv_pos_site_id
 _symmetry_equiv_pos_as_xyz
 1  'x, y, z'
loop_
 _atom_site_type_symbol
 _atom_site_label
 _atom_site_symmetry_multiplicity
 _atom_site_fract_x
 _atom_site_fract_y
 _atom_site_fract_z
 _atom_site_fract_occupancy
 Al  Al1  1  0.12893  0.12893  0.12107  1
 Al  Al2  1  0.50000  0.50000  -0.00000  1
 Al  Al3  1  0.50000  0.50000  0.50000  1
 Al  Al4  1  0.87107  0.87107  0.87893  1
 Fe  Fe1  1  0.00000  0.50000  0.50000  1
 Fe  Fe2  1  0.50000  0.00000  0.50000  1
 O  O1  1  0.26300  0.26300  0.23953  1
 O  O2  1  0.26300  0.26300  0.73447  1
 O  O3  1  0.26795  0.73497  0.24854  1
 O  O4  1  0.73497  0.26795  0.24854  1
 O  O5  1  0.26503  0.73205  0.75146  1
 O  O6  1  0.73205  0.26503  0.75146  1
 O  O7  1  0.73700  0.73700  0.26553  1
 O  O8  1  0.73700  0.73700  0.76047  1
