CIF file written using JARVIS-Tools package.
data_CaCl2
_symmetry_space_group_name_H-M  'Pbcn'
_cell_length_a       6.23941
_cell_length_b       6.9093
_cell_length_c       7.64711
_cell_angle_alpha    90
_cell_angle_beta     90
_cell_angle_gamma    90

_symmetry_Int_Tables_number  60
_chemical_formula_structural  CaCl2
_chemical_formula_sum  Ca4Cl8
_cell_volume  329.6668785366143
_cell_formula_units_Z  4
loop_
  _symmetry_equiv_pos_site_id
 _symmetry_equiv_pos_as_xyz
 1  'x, y, z'
loop_
 _atom_site_type_symbol
 _atom_site_label
 _atom_site_symmetry_multiplicity
 _atom_site_fract_x
 _atom_site_fract_y
 _atom_site_fract_z
 _atom_site_fract_occupancy
 Ca  Ca1  1  0.00000  0.25000  0.15225  1
 Ca  Ca2  1  0.50000  0.25000  0.65225  1
 Ca  Ca3  1  0.00000  0.75000  0.84775  1
 Ca  Ca4  1  0.50000  0.75000  0.34775  1
 Cl  Cl1  1  0.24127  0.42287  0.89309  1
 Cl  Cl2  1  0.74127  0.57713  0.60691  1
 Cl  Cl3  1  0.75873  0.57713  0.10691  1
 Cl  Cl4  1  0.24127  0.92287  0.10691  1
 Cl  Cl5  1  0.74127  0.07713  0.39309  1
 Cl  Cl6  1  0.25873  0.42287  0.39309  1
 Cl  Cl7  1  0.25873  0.92287  0.60691  1
 Cl  Cl8  1  0.75873  0.07713  0.89309  1
