CIF file written using JARVIS-Tools package.
data_Zr3AlN
_symmetry_space_group_name_H-M  'Cmcm'
_cell_length_a       3.37701
_cell_length_b       6.03483
_cell_length_c       9.01025
_cell_angle_alpha    90
_cell_angle_beta     90
_cell_angle_gamma    106.248

_symmetry_Int_Tables_number  63
_chemical_formula_structural  Zr3AlN
_chemical_formula_sum  Zr6Al2N2
_cell_volume  176.29172844508284
_cell_formula_units_Z  2
loop_
  _symmetry_equiv_pos_site_id
 _symmetry_equiv_pos_as_xyz
 1  'x, y, z'
loop_
 _atom_site_type_symbol
 _atom_site_label
 _atom_site_symmetry_multiplicity
 _atom_site_fract_x
 _atom_site_fract_y
 _atom_site_fract_z
 _atom_site_fract_occupancy
 Al  Al1  1  0.25349  0.50698  0.25000  1
 Al  Al2  1  0.74651  0.49302  0.75000  1
 N  N1  1  0.00000  0.00000  0.50000  1
 N  N2  1  0.00000  0.00000  0.00000  1
 Zr  Zr1  1  0.04473  0.08946  0.75000  1
 Zr  Zr2  1  0.95527  0.91054  0.25000  1
 Zr  Zr3  1  0.37325  0.74650  0.54282  1
 Zr  Zr4  1  0.62675  0.25350  0.45718  1
 Zr  Zr5  1  0.62675  0.25350  0.04282  1
 Zr  Zr6  1  0.37325  0.74650  0.95718  1
