CIF file written using JARVIS-Tools package.
data_CeAu
_symmetry_space_group_name_H-M  'Cmcm'
_cell_length_a       3.86946
_cell_length_b       4.70335
_cell_length_c       5.9763
_cell_angle_alpha    90
_cell_angle_beta     71.1111
_cell_angle_gamma    90

_symmetry_Int_Tables_number  63
_chemical_formula_structural  CeAu
_chemical_formula_sum  Ce2Au2
_cell_volume  102.90814747251208
_cell_formula_units_Z  2
loop_
  _symmetry_equiv_pos_site_id
 _symmetry_equiv_pos_as_xyz
 1  'x, y, z'
loop_
 _atom_site_type_symbol
 _atom_site_label
 _atom_site_symmetry_multiplicity
 _atom_site_fract_x
 _atom_site_fract_y
 _atom_site_fract_z
 _atom_site_fract_occupancy
 Au  Au1  1  0.41143  0.75000  0.17715  1
 Au  Au2  1  0.58857  0.25000  0.82285  1
 Ce  Ce1  1  0.13835  0.75000  0.72330  1
 Ce  Ce2  1  0.86165  0.25000  0.27670  1
