CIF file written using JARVIS-Tools package.
data_NaTa3O8
_symmetry_space_group_name_H-M  'Ibam'
_cell_length_a       7.06349
_cell_length_b       7.29519
_cell_length_c       7.3051
_cell_angle_alpha    119.955
_cell_angle_beta     118.912
_cell_angle_gamma    90

_symmetry_Int_Tables_number  72
_chemical_formula_structural  NaTa3O8
_chemical_formula_sum  Na2Ta6O6
_cell_volume  270.6467928273908
_cell_formula_units_Z  2
loop_
  _symmetry_equiv_pos_site_id
 _symmetry_equiv_pos_as_xyz
 1  'x, y, z'
loop_
 _atom_site_type_symbol
 _atom_site_label
 _atom_site_symmetry_multiplicity
 _atom_site_fract_x
 _atom_site_fract_y
 _atom_site_fract_z
 _atom_site_fract_occupancy
 Na  Na1  1  0.25000  -0.00000  -0.00000  1
 Na  Na2  1  0.75000  0.00000  0.00000  1
 O  O1  1  0.15312  0.16353  0.71454  1
 O  O2  1  0.06142  0.55101  0.71454  1
 O  O3  1  0.34688  0.44899  0.28546  1
 O  O4  1  0.56142  0.16353  0.71454  1
 O  O5  1  0.84688  0.83647  0.28546  1
 O  O6  1  0.93858  0.44899  0.28546  1
 O  O7  1  0.65312  0.55101  0.71454  1
 O  O8  1  0.17289  0.16261  0.34577  1
 O  O9  1  0.82711  0.83739  0.65423  1
 O  O10  1  0.43858  0.83647  0.28546  1
 O  O11  1  0.43145  0.54821  0.86289  1
 O  O12  1  0.56855  0.45179  0.13711  1
 O  O13  1  0.06855  0.68532  0.13711  1
 O  O14  1  0.93145  0.31468  0.86289  1
 O  O15  1  0.32711  0.81684  0.65423  1
 O  O16  1  0.67289  0.18316  0.34577  1
 Ta  Ta1  1  0.75000  0.50000  0.00000  1
 Ta  Ta2  1  0.76353  0.02517  0.52705  1
 Ta  Ta3  1  0.23647  0.97483  0.47295  1
 Ta  Ta4  1  0.73647  0.49811  0.47295  1
 Ta  Ta5  1  0.26353  0.50189  0.52705  1
 Ta  Ta6  1  0.25000  0.50000  -0.00000  1
