CIF file written using JARVIS-Tools package.
data_MgFeO2
_symmetry_space_group_name_H-M  'P-1'
_cell_length_a       2.99519
_cell_length_b       7.29703
_cell_length_c       7.48006
_cell_angle_alpha    71.3093
_cell_angle_beta     88.3155
_cell_angle_gamma    90.4543

_symmetry_Int_Tables_number  2
_chemical_formula_structural  MgFeO2
_chemical_formula_sum  Mg4Fe4O8
_cell_volume  154.7693134162297
_cell_formula_units_Z  4
loop_
  _symmetry_equiv_pos_site_id
 _symmetry_equiv_pos_as_xyz
 1  'x, y, z'
loop_
 _atom_site_type_symbol
 _atom_site_label
 _atom_site_symmetry_multiplicity
 _atom_site_fract_x
 _atom_site_fract_y
 _atom_site_fract_z
 _atom_site_fract_occupancy
 Fe  Fe1  1  0.76492  0.18951  0.41868  1
 Fe  Fe2  1  0.78972  0.45037  0.65938  1
 Fe  Fe3  1  0.18604  0.52954  0.31242  1
 Fe  Fe4  1  0.21080  0.79041  0.55312  1
 Mg  Mg1  1  0.25123  0.05353  0.80071  1
 Mg  Mg2  1  0.72455  0.92638  0.17109  1
 Mg  Mg3  1  0.73667  0.68075  0.93007  1
 Mg  Mg4  1  0.23914  0.29916  0.04173  1
 O  O1  1  0.69499  0.68544  0.40766  1
 O  O2  1  0.71976  0.42710  0.16218  1
 O  O3  1  0.25601  0.55282  0.80962  1
 O  O4  1  0.28075  0.29447  0.56414  1
 O  O5  1  0.22317  0.05480  0.29172  1
 O  O6  1  -0.25360  0.17406  0.92649  1
 O  O7  1  0.75258  0.92512  0.68008  1
 O  O8  1  0.22939  0.80587  0.04530  1
