CIF file written using JARVIS-Tools package.
data_HoSeO3F
_symmetry_space_group_name_H-M  'P2_1/c'
_cell_length_a       6.60257
_cell_length_b       6.86647
_cell_length_c       7.15587
_cell_angle_alpha    90
_cell_angle_beta     99.1407
_cell_angle_gamma    90

_symmetry_Int_Tables_number  14
_chemical_formula_structural  HoSeO3F
_chemical_formula_sum  Ho4Se4O2F4
_cell_volume  320.3012839867041
_cell_formula_units_Z  4
loop_
  _symmetry_equiv_pos_site_id
 _symmetry_equiv_pos_as_xyz
 1  'x, y, z'
loop_
 _atom_site_type_symbol
 _atom_site_label
 _atom_site_symmetry_multiplicity
 _atom_site_fract_x
 _atom_site_fract_y
 _atom_site_fract_z
 _atom_site_fract_occupancy
 F  F1  1  0.83080  0.88942  0.47667  1
 F  F2  1  0.83080  0.61058  0.97667  1
 F  F3  1  0.16920  0.11058  0.52333  1
 F  F4  1  0.16920  0.38942  0.02333  1
 Ho  Ho1  1  0.13775  0.14066  0.82385  1
 Ho  Ho2  1  0.86225  0.85934  0.17615  1
 Ho  Ho3  1  0.86225  0.64066  0.67615  1
 Ho  Ho4  1  0.13775  0.35934  0.32385  1
 O  O1  1  0.48547  0.31192  0.36311  1
 O  O2  1  0.17695  0.80435  0.78331  1
 O  O3  1  0.17695  0.69565  0.28331  1
 O  O4  1  0.48547  0.18808  0.86311  1
 O  O5  1  0.17513  0.46480  0.64762  1
 O  O6  1  0.82305  0.19565  0.21669  1
 O  O7  1  0.82305  0.30435  0.71669  1
 O  O8  1  0.51453  0.68808  0.63689  1
 O  O9  1  0.51453  0.81192  0.13689  1
 O  O10  1  0.17513  0.03520  0.14762  1
 O  O11  1  0.82487  0.96480  0.85238  1
 O  O12  1  0.82487  0.53520  0.35238  1
 Se  Se1  1  0.64375  0.11670  0.70863  1
 Se  Se2  1  0.35625  0.88330  0.29137  1
 Se  Se3  1  0.64375  0.38330  0.20863  1
 Se  Se4  1  0.35625  0.61670  0.79137  1
