CIF file written using JARVIS-Tools package.
data_Ba2AlNi3O8
_symmetry_space_group_name_H-M  'P4/mmm'
_cell_length_a       3.70029
_cell_length_b       3.70029
_cell_length_c       12.4118
_cell_angle_alpha    90
_cell_angle_beta     90
_cell_angle_gamma    90

_symmetry_Int_Tables_number  123
_chemical_formula_structural  Ba2AlNi3O8
_chemical_formula_sum  Ba2AlNi3O8
_cell_volume  169.94465381429765
_cell_formula_units_Z  1
loop_
  _symmetry_equiv_pos_site_id
 _symmetry_equiv_pos_as_xyz
 1  'x, y, z'
loop_
 _atom_site_type_symbol
 _atom_site_label
 _atom_site_symmetry_multiplicity
 _atom_site_fract_x
 _atom_site_fract_y
 _atom_site_fract_z
 _atom_site_fract_occupancy
 Al  Al1  1  0.50000  0.50000  0.49999  1
 Ba  Ba1  1  0.50000  0.50000  0.82716  1
 Ba  Ba2  1  0.50000  0.50000  0.17291  1
 Ni  Ni1  1  0.00000  0.00000  0.63307  1
 Ni  Ni2  1  0.00000  0.00000  0.00008  1
 Ni  Ni3  1  0.00000  0.00000  0.36689  1
 O  O1  1  0.50000  0.00000  0.59532  1
 O  O2  1  0.00000  0.50000  0.59532  1
 O  O3  1  0.00000  0.50000  0.00003  1
 O  O4  1  0.00000  0.00000  0.78443  1
 O  O5  1  0.50000  0.00000  0.40462  1
 O  O6  1  0.00000  0.50000  0.40462  1
 O  O7  1  0.00000  0.00000  0.21551  1
 O  O8  1  0.50000  0.00000  0.00003  1
