CIF file written using JARVIS-Tools package.
data_Y2O3
_symmetry_space_group_name_H-M  'C2/m'
_cell_length_a       3.49922
_cell_length_b       7.21395
_cell_length_c       8.64305
_cell_angle_alpha    99.8912
_cell_angle_beta     90
_cell_angle_gamma    104.036

_symmetry_Int_Tables_number  12
_chemical_formula_structural  Y2O3
_chemical_formula_sum  Y6O9
_cell_volume  208.31960929240142
_cell_formula_units_Z  3
loop_
  _symmetry_equiv_pos_site_id
 _symmetry_equiv_pos_as_xyz
 1  'x, y, z'
loop_
 _atom_site_type_symbol
 _atom_site_label
 _atom_site_symmetry_multiplicity
 _atom_site_fract_x
 _atom_site_fract_y
 _atom_site_fract_z
 _atom_site_fract_occupancy
 O  O1  1  0.12778  0.25556  0.28243  1
 O  O2  1  0.82542  0.65084  0.03048  1
 O  O3  1  0.79342  0.58684  0.37636  1
 O  O4  1  0.47103  0.94207  0.34328  1
 O  O5  1  0.52897  0.05793  0.65672  1
 O  O6  1  0.50000  0.00000  0.00000  1
 O  O7  1  0.17458  0.34916  0.96952  1
 O  O8  1  0.20658  0.41316  0.62364  1
 O  O9  1  0.87222  0.74444  0.71757  1
 Y  Y1  1  0.63526  0.27052  0.48739  1
 Y  Y2  1  0.36474  0.72948  0.51261  1
 Y  Y3  1  0.03292  0.06584  0.81349  1
 Y  Y4  1  0.69047  0.38094  0.13712  1
 Y  Y5  1  0.30953  0.61906  0.86288  1
 Y  Y6  1  0.96708  0.93416  0.18651  1
