CIF file written using JARVIS-Tools package.
data_Rb2CuBr2Cl2
_symmetry_space_group_name_H-M  'Cmce'
_cell_length_a       7.10881
_cell_length_b       7.10927
_cell_length_c       8.96935
_cell_angle_alpha    90
_cell_angle_beta     113.346
_cell_angle_gamma    90

_symmetry_Int_Tables_number  64
_chemical_formula_structural  Rb2CuBr2Cl2
_chemical_formula_sum  Rb4Cu2Br4Cl4
_cell_volume  416.1848069812639
_cell_formula_units_Z  2
loop_
  _symmetry_equiv_pos_site_id
 _symmetry_equiv_pos_as_xyz
 1  'x, y, z'
loop_
 _atom_site_type_symbol
 _atom_site_label
 _atom_site_symmetry_multiplicity
 _atom_site_fract_x
 _atom_site_fract_y
 _atom_site_fract_z
 _atom_site_fract_occupancy
 Br  Br1  1  0.15700  0.00000  0.31399  1
 Br  Br2  1  0.84300  0.00000  0.68601  1
 Br  Br3  1  0.65700  0.50000  0.31399  1
 Br  Br4  1  0.34300  0.50000  0.68601  1
 Cl  Cl1  1  0.77279  0.22720  -0.00000  1
 Cl  Cl2  1  0.22721  0.77280  0.00000  1
 Cl  Cl3  1  0.27279  0.27280  -0.00000  1
 Cl  Cl4  1  0.72721  0.72720  0.00000  1
 Cu  Cu1  1  0.00000  0.00000  0.00000  1
 Cu  Cu2  1  0.50000  0.50000  0.00000  1
 Rb  Rb1  1  0.13459  0.50000  0.26918  1
 Rb  Rb2  1  0.63459  0.00000  0.26918  1
 Rb  Rb3  1  0.86541  0.50000  0.73082  1
 Rb  Rb4  1  0.36541  0.00000  0.73082  1
