CIF file written using JARVIS-Tools package.
data_Sr3GaO4F
_symmetry_space_group_name_H-M  'I4/mcm'
_cell_length_a       6.79497
_cell_length_b       6.79497
_cell_length_c       7.47823
_cell_angle_alpha    117.021
_cell_angle_beta     117.021
_cell_angle_gamma    90

_symmetry_Int_Tables_number  140
_chemical_formula_structural  Sr3GaO4F
_chemical_formula_sum  Sr6Ga2O8F2
_cell_volume  264.5850010881048
_cell_formula_units_Z  2
loop_
  _symmetry_equiv_pos_site_id
 _symmetry_equiv_pos_as_xyz
 1  'x, y, z'
loop_
 _atom_site_type_symbol
 _atom_site_label
 _atom_site_symmetry_multiplicity
 _atom_site_fract_x
 _atom_site_fract_y
 _atom_site_fract_z
 _atom_site_fract_occupancy
 F  F1  1  0.00000  0.00000  0.00000  1
 F  F2  1  0.50000  0.50000  0.00000  1
 Ga  Ga1  1  0.25000  0.75000  0.50000  1
 Ga  Ga2  1  0.75000  0.25000  0.50000  1
 O  O1  1  0.79275  0.29275  0.28810  1
 O  O2  1  0.20725  0.70725  0.71190  1
 O  O3  1  0.50465  0.00465  0.71190  1
 O  O4  1  0.70725  0.50465  0.71190  1
 O  O5  1  0.00465  0.20725  0.71190  1
 O  O6  1  0.29275  0.49535  0.28810  1
 O  O7  1  0.49535  0.99535  0.28810  1
 O  O8  1  0.99535  0.79275  0.28810  1
 Sr  Sr1  1  0.75000  0.75000  0.50000  1
 Sr  Sr2  1  0.83391  0.33391  -0.00000  1
 Sr  Sr3  1  0.66609  0.83391  -0.00000  1
 Sr  Sr4  1  0.33391  0.16609  0.00000  1
 Sr  Sr5  1  0.16609  0.66609  0.00000  1
 Sr  Sr6  1  0.25000  0.25000  0.50000  1
