CIF file written using JARVIS-Tools package.
data_ZnCo2O4
_symmetry_space_group_name_H-M  'Cmcm'
_cell_length_a       2.83678
_cell_length_b       4.85002
_cell_length_c       9.47323
_cell_angle_alpha    90
_cell_angle_beta     90
_cell_angle_gamma    107.005

_symmetry_Int_Tables_number  63
_chemical_formula_structural  ZnCo2O4
_chemical_formula_sum  Zn2Co4O8
_cell_volume  124.63870653257406
_cell_formula_units_Z  2
loop_
  _symmetry_equiv_pos_site_id
 _symmetry_equiv_pos_as_xyz
 1  'x, y, z'
loop_
 _atom_site_type_symbol
 _atom_site_label
 _atom_site_symmetry_multiplicity
 _atom_site_fract_x
 _atom_site_fract_y
 _atom_site_fract_z
 _atom_site_fract_occupancy
 Co  Co1  1  0.86438  0.72876  0.06983  1
 Co  Co2  1  0.13562  0.27124  0.93017  1
 Co  Co3  1  0.86438  0.72876  0.43017  1
 Co  Co4  1  0.13562  0.27124  0.56983  1
 O  O1  1  0.23208  0.46417  0.39149  1
 O  O2  1  0.76792  0.53583  0.60851  1
 O  O3  1  0.76792  0.53583  0.89149  1
 O  O4  1  0.23208  0.46417  0.10851  1
 O  O5  1  0.95522  0.91045  0.25000  1
 O  O6  1  0.04478  0.08955  0.75000  1
 O  O7  1  0.50000  0.00000  0.00000  1
 O  O8  1  0.50000  0.00000  0.50000  1
 Zn  Zn1  1  0.39348  0.78696  0.75000  1
 Zn  Zn2  1  0.60652  0.21304  0.25000  1
