CIF file written using JARVIS-Tools package.
data_Al2FeTc
_symmetry_space_group_name_H-M  'Immm'
_cell_length_a       11.5432
_cell_length_b       7.63446
_cell_length_c       7.63457
_cell_angle_alpha    24.9053
_cell_angle_beta     16.6474
_cell_angle_gamma    16.6475

_symmetry_Int_Tables_number  71
_chemical_formula_structural  Al2FeTc
_chemical_formula_sum  Al2FeTc
_cell_volume  54.72721272805929
_cell_formula_units_Z  1
loop_
  _symmetry_equiv_pos_site_id
 _symmetry_equiv_pos_as_xyz
 1  'x, y, z'
loop_
 _atom_site_type_symbol
 _atom_site_label
 _atom_site_symmetry_multiplicity
 _atom_site_fract_x
 _atom_site_fract_y
 _atom_site_fract_z
 _atom_site_fract_occupancy
 Al  Al1  1  0.72697  0.01535  0.01535  1
 Al  Al2  1  0.27305  0.98463  0.98463  1
 Fe  Fe1  1  0.99999  0.00001  0.00001  1
 Tc  Tc1  1  0.49999  0.00001  0.00001  1
