CIF file written using JARVIS-Tools package.
data_SbS2NF6
_symmetry_space_group_name_H-M  'C2/m'
_cell_length_a       5.30058
_cell_length_b       5.8121
_cell_length_c       5.8121
_cell_angle_alpha    67.7053
_cell_angle_beta     89.501
_cell_angle_gamma    89.501

_symmetry_Int_Tables_number  12
_chemical_formula_structural  SbS2NF6
_chemical_formula_sum  SbS2NF6
_cell_volume  165.66206001273085
_cell_formula_units_Z  1
loop_
  _symmetry_equiv_pos_site_id
 _symmetry_equiv_pos_as_xyz
 1  'x, y, z'
loop_
 _atom_site_type_symbol
 _atom_site_label
 _atom_site_symmetry_multiplicity
 _atom_site_fract_x
 _atom_site_fract_y
 _atom_site_fract_z
 _atom_site_fract_occupancy
 F  F1  1  0.30040  0.10963  0.10963  1
 F  F2  1  0.69960  0.89037  0.89037  1
 F  F3  1  0.85773  0.32828  0.90857  1
 F  F4  1  0.14227  0.09143  0.67172  1
 F  F5  1  0.14227  0.67172  0.09143  1
 F  F6  1  0.85773  0.90857  0.32828  1
 N  N1  1  0.50000  0.50000  0.50000  1
 S  S1  1  0.37347  0.63855  0.63855  1
 S  S2  1  0.62653  0.36145  0.36145  1
 Sb  Sb1  1  0.00000  0.00000  0.00000  1
