CIF file written using JARVIS-Tools package.
data_Tm2TeO6
_symmetry_space_group_name_H-M  'P4_2/mnm'
_cell_length_a       4.92118
_cell_length_b       9.94937
_cell_length_c       4.92118
_cell_angle_alpha    90
_cell_angle_beta     90.0003
_cell_angle_gamma    90

_symmetry_Int_Tables_number  136
_chemical_formula_structural  Tm2TeO6
_chemical_formula_sum  Tm4Te2O2
_cell_volume  240.95409814287183
_cell_formula_units_Z  2
loop_
  _symmetry_equiv_pos_site_id
 _symmetry_equiv_pos_as_xyz
 1  'x, y, z'
loop_
 _atom_site_type_symbol
 _atom_site_label
 _atom_site_symmetry_multiplicity
 _atom_site_fract_x
 _atom_site_fract_y
 _atom_site_fract_z
 _atom_site_fract_occupancy
 O  O1  1  0.68475  0.64830  0.68485  1
 O  O2  1  0.81517  0.14831  0.18485  1
 O  O3  1  0.81517  0.85169  0.18485  1
 O  O4  1  0.18476  0.14829  0.81524  1
 O  O5  1  0.28138  -0.00000  0.28150  1
 O  O6  1  0.78150  0.50000  0.21862  1
 O  O7  1  0.31525  0.64830  0.31515  1
 O  O8  1  0.68475  0.35170  0.68485  1
 O  O9  1  0.18476  0.85171  0.81524  1
 O  O10  1  0.71850  0.00000  0.71863  1
 O  O11  1  0.21850  0.50000  0.78137  1
 O  O12  1  0.31525  0.35170  0.31515  1
 Te  Te1  1  0.50000  0.50000  0.49999  1
 Te  Te2  1  0.99995  0.00000  0.00005  1
 Tm  Tm1  1  0.49996  0.83451  0.50004  1
 Tm  Tm2  1  0.49996  0.16549  0.50004  1
 Tm  Tm3  1  -0.00000  0.66549  0.00000  1
 Tm  Tm4  1  -0.00000  0.33451  0.00000  1
