CIF file written using JARVIS-Tools package.
data_SrCaGe
_symmetry_space_group_name_H-M  'Pnma'
_cell_length_a       4.93689
_cell_length_b       8.07597
_cell_length_c       9.08604
_cell_angle_alpha    90
_cell_angle_beta     90
_cell_angle_gamma    90

_symmetry_Int_Tables_number  62
_chemical_formula_structural  SrCaGe
_chemical_formula_sum  Sr4Ca4Ge4
_cell_volume  362.26191245278363
_cell_formula_units_Z  4
loop_
  _symmetry_equiv_pos_site_id
 _symmetry_equiv_pos_as_xyz
 1  'x, y, z'
loop_
 _atom_site_type_symbol
 _atom_site_label
 _atom_site_symmetry_multiplicity
 _atom_site_fract_x
 _atom_site_fract_y
 _atom_site_fract_z
 _atom_site_fract_occupancy
 Ca  Ca1  1  0.75000  0.85205  0.07482  1
 Ca  Ca2  1  0.25000  0.14795  0.92518  1
 Ca  Ca3  1  0.75000  0.35205  0.42518  1
 Ca  Ca4  1  0.25000  0.64795  0.57482  1
 Ge  Ge1  1  0.75000  0.23257  0.10483  1
 Ge  Ge2  1  0.25000  0.26743  0.60483  1
 Ge  Ge3  1  0.25000  0.76743  0.89517  1
 Ge  Ge4  1  0.75000  0.73257  0.39517  1
 Sr  Sr1  1  0.25000  0.52152  0.17939  1
 Sr  Sr2  1  0.25000  0.02152  0.32061  1
 Sr  Sr3  1  0.75000  0.97848  0.67939  1
 Sr  Sr4  1  0.75000  0.47848  0.82061  1
