CIF file written using JARVIS-Tools package.
data_Ca5Sc2Co2O12
_symmetry_space_group_name_H-M  'C2'
_cell_length_a       6.34346
_cell_length_b       6.38704
_cell_length_c       6.38704
_cell_angle_alpha    91.0423
_cell_angle_beta     93.4017
_cell_angle_gamma    93.4018

_symmetry_Int_Tables_number  5
_chemical_formula_structural  Ca5Sc2Co2O12
_chemical_formula_sum  Ca5Sc2Co2O2
_cell_volume  257.80465203615574
_cell_formula_units_Z  1
loop_
  _symmetry_equiv_pos_site_id
 _symmetry_equiv_pos_as_xyz
 1  'x, y, z'
loop_
 _atom_site_type_symbol
 _atom_site_label
 _atom_site_symmetry_multiplicity
 _atom_site_fract_x
 _atom_site_fract_y
 _atom_site_fract_z
 _atom_site_fract_occupancy
 Ca  Ca1  1  0.11205  0.74300  0.37881  1
 Ca  Ca2  1  0.38795  0.12119  0.75700  1
 Ca  Ca3  1  0.62439  0.88872  0.24677  1
 Ca  Ca4  1  0.87561  0.25323  0.61128  1
 Ca  Ca5  1  0.25000  0.61652  0.88348  1
 Co  Co1  1  0.49618  0.50260  0.49786  1
 Co  Co2  1  0.00382  0.00214  0.99740  1
 O  O1  1  0.96856  0.07277  0.28893  1
 O  O2  1  0.10505  0.28065  0.94185  1
 O  O3  1  0.92530  0.71959  0.04587  1
 O  O4  1  0.29432  0.96094  0.08655  1
 O  O5  1  0.04615  0.91126  0.71396  1
 O  O6  1  0.71732  0.03059  0.90177  1
 O  O7  1  0.39495  0.55815  0.21935  1
 O  O8  1  0.20568  0.41345  0.53906  1
 O  O9  1  0.53144  0.21107  0.42723  1
 O  O10  1  0.45385  0.78604  0.58874  1
 O  O11  1  0.57470  0.45413  0.78041  1
 O  O12  1  0.78268  0.59823  0.46941  1
 Sc  Sc1  1  0.75000  0.74046  0.75954  1
 Sc  Sc2  1  0.25000  0.25363  0.24637  1
