CIF file written using JARVIS-Tools package.
data_Ho3CuSnS7
_symmetry_space_group_name_H-M  'P6_3'
_cell_length_a       9.68188
_cell_length_b       9.68188
_cell_length_c       6.22896
_cell_angle_alpha    90
_cell_angle_beta     90
_cell_angle_gamma    120

_symmetry_Int_Tables_number  173
_chemical_formula_structural  Ho3CuSnS7
_chemical_formula_sum  Ho6Cu2Sn2S4
_cell_volume  505.66730020472625
_cell_formula_units_Z  2
loop_
  _symmetry_equiv_pos_site_id
 _symmetry_equiv_pos_as_xyz
 1  'x, y, z'
loop_
 _atom_site_type_symbol
 _atom_site_label
 _atom_site_symmetry_multiplicity
 _atom_site_fract_x
 _atom_site_fract_y
 _atom_site_fract_z
 _atom_site_fract_occupancy
 Cu  Cu1  1  0.00000  0.00000  0.15548  1
 Cu  Cu2  1  0.00000  0.00000  0.65548  1
 Ho  Ho1  1  0.15436  0.79418  0.27453  1
 Ho  Ho2  1  0.36018  0.15436  0.77453  1
 Ho  Ho3  1  0.63982  0.84564  0.27453  1
 Ho  Ho4  1  0.84564  0.20582  0.77453  1
 Ho  Ho5  1  0.79418  0.63982  0.77453  1
 Ho  Ho6  1  0.20582  0.36018  0.27453  1
 S  S1  1  0.07973  0.52120  0.02234  1
 S  S2  1  0.33333  0.66667  0.45218  1
 S  S3  1  0.47880  0.55853  0.02234  1
 S  S4  1  0.44147  0.92027  0.02234  1
 S  S5  1  0.55853  0.07973  0.52234  1
 S  S6  1  0.26468  0.11884  0.19360  1
 S  S7  1  0.11884  0.85415  0.69360  1
 S  S8  1  0.14585  0.26468  0.69360  1
 S  S9  1  0.92027  0.47880  0.52234  1
 S  S10  1  0.52120  0.44147  0.52234  1
 S  S11  1  0.85415  0.73532  0.19360  1
 S  S12  1  0.73532  0.88116  0.69360  1
 S  S13  1  0.88116  0.14585  0.19360  1
 S  S14  1  0.66667  0.33333  0.95218  1
 Sn  Sn1  1  0.66667  0.33333  0.33794  1
 Sn  Sn2  1  0.33333  0.66667  0.83794  1
