CIF file written using JARVIS-Tools package.
data_ZnP4
_symmetry_space_group_name_H-M  'P4_12_12'
_cell_length_a       5.06153
_cell_length_b       5.06153
_cell_length_c       14.6616
_cell_angle_alpha    90
_cell_angle_beta     90
_cell_angle_gamma    90

_symmetry_Int_Tables_number  92
_chemical_formula_structural  ZnP4
_chemical_formula_sum  Zn4P6
_cell_volume  375.61593968743824
_cell_formula_units_Z  4
loop_
  _symmetry_equiv_pos_site_id
 _symmetry_equiv_pos_as_xyz
 1  'x, y, z'
loop_
 _atom_site_type_symbol
 _atom_site_label
 _atom_site_symmetry_multiplicity
 _atom_site_fract_x
 _atom_site_fract_y
 _atom_site_fract_z
 _atom_site_fract_occupancy
 P  P1  1  0.39756  0.48670  0.87520  1
 P  P2  1  0.92762  0.31935  0.29848  1
 P  P3  1  0.07238  0.68065  0.79848  1
 P  P4  1  0.31935  0.92762  0.70152  1
 P  P5  1  0.81935  0.57238  0.04848  1
 P  P6  1  0.10244  0.98670  0.37480  1
 P  P7  1  0.57238  0.81935  0.95152  1
 P  P8  1  0.51330  0.60244  0.62480  1
 P  P9  1  0.60244  0.51330  0.37520  1
 P  P10  1  0.18065  0.42762  0.54848  1
 P  P11  1  0.89756  0.01330  0.87480  1
 P  P12  1  0.98670  0.10244  0.62520  1
 P  P13  1  0.01330  0.89756  0.12520  1
 P  P14  1  0.68065  0.07238  0.20152  1
 P  P15  1  0.42762  0.18065  0.45152  1
 P  P16  1  0.48670  0.39756  0.12480  1
 Zn  Zn1  1  0.19517  0.19517  0.00000  1
 Zn  Zn2  1  0.30483  0.69517  0.25000  1
 Zn  Zn3  1  0.69517  0.30483  0.75000  1
 Zn  Zn4  1  0.80483  0.80483  0.50000  1
