CIF file written using JARVIS-Tools package.
data_GaCuS2
_symmetry_space_group_name_H-M  'R3m'
_cell_length_a       3.73596
_cell_length_b       3.73597
_cell_length_c       6.26296
_cell_angle_alpha    72.647
_cell_angle_beta     72.647
_cell_angle_gamma    60

_symmetry_Int_Tables_number  160
_chemical_formula_structural  GaCuS2
_chemical_formula_sum  GaCuS2
_cell_volume  71.07226334722456
_cell_formula_units_Z  1
loop_
  _symmetry_equiv_pos_site_id
 _symmetry_equiv_pos_as_xyz
 1  'x, y, z'
loop_
 _atom_site_type_symbol
 _atom_site_label
 _atom_site_symmetry_multiplicity
 _atom_site_fract_x
 _atom_site_fract_y
 _atom_site_fract_z
 _atom_site_fract_occupancy
 Cu  Cu1  1  0.86405  0.86405  0.40785  1
 Ga  Ga1  1  0.00430  0.00430  0.98711  1
 S  S1  1  0.73407  0.73407  0.79779  1
 S  S2  1  0.24458  0.24458  0.26625  1
