CIF file written using JARVIS-Tools package.
data_K2Sr2O3
_symmetry_space_group_name_H-M  'P2_1/c'
_cell_length_a       7.0675
_cell_length_b       7.11379
_cell_length_c       7.11979
_cell_angle_alpha    90
_cell_angle_beta     118.902
_cell_angle_gamma    90

_symmetry_Int_Tables_number  14
_chemical_formula_structural  K2Sr2O3
_chemical_formula_sum  K4Sr4O6
_cell_volume  313.3753703085936
_cell_formula_units_Z  2
loop_
  _symmetry_equiv_pos_site_id
 _symmetry_equiv_pos_as_xyz
 1  'x, y, z'
loop_
 _atom_site_type_symbol
 _atom_site_label
 _atom_site_symmetry_multiplicity
 _atom_site_fract_x
 _atom_site_fract_y
 _atom_site_fract_z
 _atom_site_fract_occupancy
 K  K1  1  0.90278  0.34533  0.11589  1
 K  K2  1  0.40278  0.15467  0.11589  1
 K  K3  1  0.59722  0.84533  0.88411  1
 K  K4  1  0.09722  0.65467  0.88411  1
 O  O1  1  0.50000  0.50000  -0.00000  1
 O  O2  1  0.00000  0.00000  0.00000  1
 O  O3  1  0.73648  0.92310  0.34247  1
 O  O4  1  0.76352  0.42310  0.65753  1
 O  O5  1  0.23648  0.57690  0.34247  1
 O  O6  1  0.26352  0.07690  0.65753  1
 Sr  Sr1  1  0.58133  0.62186  0.34135  1
 Sr  Sr2  1  0.91867  0.12186  0.65865  1
 Sr  Sr3  1  0.08133  0.87814  0.34135  1
 Sr  Sr4  1  0.41867  0.37814  0.65865  1
