CIF file written using JARVIS-Tools package.
data_KAsSe2
_symmetry_space_group_name_H-M  'Cc'
_cell_length_a       6.51201
_cell_length_b       6.51208
_cell_length_c       12.8014
_cell_angle_alpha    101.246
_cell_angle_beta     101.246
_cell_angle_gamma    106.522

_symmetry_Int_Tables_number  9
_chemical_formula_structural  KAsSe2
_chemical_formula_sum  K4As4Se8
_cell_volume  492.0137439732444
_cell_formula_units_Z  4
loop_
  _symmetry_equiv_pos_site_id
 _symmetry_equiv_pos_as_xyz
 1  'x, y, z'
loop_
 _atom_site_type_symbol
 _atom_site_label
 _atom_site_symmetry_multiplicity
 _atom_site_fract_x
 _atom_site_fract_y
 _atom_site_fract_z
 _atom_site_fract_occupancy
 As  As1  1  0.84136  0.60343  0.17514  1
 As  As2  1  0.88010  0.45802  0.44417  1
 As  As3  1  0.16468  0.28011  0.67514  1
 As  As4  1  0.01927  0.31884  0.94416  1
 K  K1  1  0.21965  0.21825  0.26448  1
 K  K2  1  0.41157  0.89965  0.49683  1
 K  K3  1  0.77951  0.65840  0.76448  1
 K  K4  1  0.46090  0.85032  0.99683  1
 Se  Se1  1  0.22967  0.69201  0.20693  1
 Se  Se2  1  0.67400  0.38289  0.97623  1
 Se  Se3  1  0.56341  0.45102  0.50476  1
 Se  Se4  1  0.72497  0.26356  0.24141  1
 Se  Se5  1  0.25326  0.66841  0.70693  1
 Se  Se6  1  0.94415  0.11273  0.47624  1
 Se  Se7  1  0.01227  0.00215  0.00476  1
 Se  Se8  1  0.82482  0.16372  0.74141  1
