CIF file written using JARVIS-Tools package.
data_TiMn2O4
_symmetry_space_group_name_H-M  'P4_322'
_cell_length_a       5.94003
_cell_length_b       5.94003
_cell_length_c       8.45934
_cell_angle_alpha    90
_cell_angle_beta     90
_cell_angle_gamma    90

_symmetry_Int_Tables_number  95
_chemical_formula_structural  TiMn2O4
_chemical_formula_sum  Ti4Mn8O6
_cell_volume  298.4794834126099
_cell_formula_units_Z  4
loop_
  _symmetry_equiv_pos_site_id
 _symmetry_equiv_pos_as_xyz
 1  'x, y, z'
loop_
 _atom_site_type_symbol
 _atom_site_label
 _atom_site_symmetry_multiplicity
 _atom_site_fract_x
 _atom_site_fract_y
 _atom_site_fract_z
 _atom_site_fract_occupancy
 Mn  Mn1  1  0.24980  0.00000  0.25000  1
 Mn  Mn2  1  0.75195  0.75195  0.12500  1
 Mn  Mn3  1  0.24805  0.75195  0.87500  1
 Mn  Mn4  1  0.24805  0.24805  0.62500  1
 Mn  Mn5  1  0.75195  0.24805  0.37500  1
 Mn  Mn6  1  0.00000  0.75020  0.50000  1
 Mn  Mn7  1  0.75020  0.00000  0.75000  1
 Mn  Mn8  1  0.00000  0.24980  0.00000  1
 O  O1  1  0.75696  0.98134  0.51462  1
 O  O2  1  0.75696  0.01866  -0.01462  1
 O  O3  1  0.24304  0.98134  0.48538  1
 O  O4  1  0.75019  0.52246  0.51022  1
 O  O5  1  0.01866  0.75696  0.26462  1
 O  O6  1  0.47754  0.24981  0.23978  1
 O  O7  1  0.24304  0.01866  1.01462  1
 O  O8  1  0.98134  0.24304  0.76462  1
 O  O9  1  0.98134  0.75696  0.73538  1
 O  O10  1  0.52246  0.75019  0.73978  1
 O  O11  1  0.47754  0.75019  0.26022  1
 O  O12  1  0.24981  0.52246  0.48978  1
 O  O13  1  0.75019  0.47754  0.98978  1
 O  O14  1  0.01866  0.24304  0.23538  1
 O  O15  1  0.24981  0.47754  0.01022  1
 O  O16  1  0.52246  0.24981  0.76022  1
 Ti  Ti1  1  0.50000  0.76165  0.50000  1
 Ti  Ti2  1  0.23835  0.50000  0.25000  1
 Ti  Ti3  1  0.76165  0.50000  0.75000  1
 Ti  Ti4  1  0.50000  0.23835  0.00000  1
