CIF file written using JARVIS-Tools package.
data_FePO4
_symmetry_space_group_name_H-M  'P6_422'
_cell_length_a       5.34888
_cell_length_b       5.34888
_cell_length_c       11.7966
_cell_angle_alpha    90
_cell_angle_beta     90
_cell_angle_gamma    120

_symmetry_Int_Tables_number  181
_chemical_formula_structural  FePO4
_chemical_formula_sum  Fe3P3O2
_cell_volume  292.2908190370536
_cell_formula_units_Z  3
loop_
  _symmetry_equiv_pos_site_id
 _symmetry_equiv_pos_as_xyz
 1  'x, y, z'
loop_
 _atom_site_type_symbol
 _atom_site_label
 _atom_site_symmetry_multiplicity
 _atom_site_fract_x
 _atom_site_fract_y
 _atom_site_fract_z
 _atom_site_fract_occupancy
 Fe  Fe1  1  0.00000  0.50000  0.83333  1
 Fe  Fe2  1  0.50000  0.50000  0.16667  1
 Fe  Fe3  1  0.50000  0.00000  0.50000  1
 O  O1  1  0.57829  0.81353  0.07489  1
 O  O2  1  0.18647  0.76475  0.40823  1
 O  O3  1  0.18647  0.42171  0.25844  1
 O  O4  1  0.76475  0.57829  0.74156  1
 O  O5  1  0.23525  0.42171  0.74156  1
 O  O6  1  0.42171  0.18647  0.07489  1
 O  O7  1  0.81353  0.57829  0.25844  1
 O  O8  1  0.42171  0.23525  0.59177  1
 O  O9  1  0.76475  0.18647  0.92511  1
 O  O10  1  0.23525  0.81353  0.92511  1
 O  O11  1  0.57829  0.76475  0.59177  1
 O  O12  1  0.81353  0.23525  0.40823  1
 P  P1  1  0.50000  0.00000  0.00000  1
 P  P2  1  0.50000  0.50000  0.66667  1
 P  P3  1  0.00000  0.50000  0.33333  1
