CIF file written using JARVIS-Tools package.
data_TbTaO4
_symmetry_space_group_name_H-M  'C2/c'
_cell_length_a       5.10171
_cell_length_b       5.37341
_cell_length_c       6.55033
_cell_angle_alpha    111.895
_cell_angle_beta     110.5
_cell_angle_gamma    95.4881

_symmetry_Int_Tables_number  15
_chemical_formula_structural  TbTaO4
_chemical_formula_sum  Tb2Ta2O8
_cell_volume  150.68435676240853
_cell_formula_units_Z  2
loop_
  _symmetry_equiv_pos_site_id
 _symmetry_equiv_pos_as_xyz
 1  'x, y, z'
loop_
 _atom_site_type_symbol
 _atom_site_label
 _atom_site_symmetry_multiplicity
 _atom_site_fract_x
 _atom_site_fract_y
 _atom_site_fract_z
 _atom_site_fract_occupancy
 O  O1  1  0.56195  0.27398  0.56238  1
 O  O2  1  0.79304  0.63305  0.07960  1
 O  O3  1  0.43805  0.72602  0.43762  1
 O  O4  1  0.71344  0.05346  0.92040  1
 O  O5  1  0.00044  0.78841  0.56239  1
 O  O6  1  0.28656  0.94654  0.07960  1
 O  O7  1  0.20696  0.36695  0.92040  1
 O  O8  1  0.99956  0.21159  0.43761  1
 Ta  Ta1  1  0.14839  0.89839  0.29679  1
 Ta  Ta2  1  0.85161  0.10161  0.70321  1
 Tb  Tb1  1  0.38127  0.63127  0.76253  1
 Tb  Tb2  1  0.61873  0.36873  0.23747  1
