CIF file written using JARVIS-Tools package.
data_Dy2CdS4
_symmetry_space_group_name_H-M  'Fd-3m'
_cell_length_a       7.95658
_cell_length_b       7.95658
_cell_length_c       7.95658
_cell_angle_alpha    60
_cell_angle_beta     60
_cell_angle_gamma    60

_symmetry_Int_Tables_number  227
_chemical_formula_structural  Dy2CdS4
_chemical_formula_sum  Dy4Cd2S8
_cell_volume  356.17638980553215
_cell_formula_units_Z  2
loop_
  _symmetry_equiv_pos_site_id
 _symmetry_equiv_pos_as_xyz
 1  'x, y, z'
loop_
 _atom_site_type_symbol
 _atom_site_label
 _atom_site_symmetry_multiplicity
 _atom_site_fract_x
 _atom_site_fract_y
 _atom_site_fract_z
 _atom_site_fract_occupancy
 Cd  Cd1  1  0.87500  0.87500  0.87500  1
 Cd  Cd2  1  0.12500  0.12500  0.12500  1
 Dy  Dy1  1  0.50000  0.50000  0.00000  1
 Dy  Dy2  1  0.50000  0.50000  0.50000  1
 Dy  Dy3  1  0.00000  0.50000  0.50000  1
 Dy  Dy4  1  0.50000  0.00000  0.50000  1
 S  S1  1  0.74284  0.74284  0.74284  1
 S  S2  1  0.25716  0.25716  0.72851  1
 S  S3  1  0.25716  0.72851  0.25716  1
 S  S4  1  0.72851  0.25716  0.25716  1
 S  S5  1  0.74284  0.27149  0.74284  1
 S  S6  1  0.27149  0.74284  0.74284  1
 S  S7  1  0.25716  0.25716  0.25716  1
 S  S8  1  0.74284  0.74284  0.27149  1
