CIF file written using JARVIS-Tools package.
data_HoMo6S8
_symmetry_space_group_name_H-M  'R-3'
_cell_length_a       6.48052
_cell_length_b       6.48053
_cell_length_c       6.48052
_cell_angle_alpha    89.2652
_cell_angle_beta     89.2652
_cell_angle_gamma    89.2652

_symmetry_Int_Tables_number  148
_chemical_formula_structural  HoMo6S8
_chemical_formula_sum  HoMo6S8
_cell_volume  272.0972711511185
_cell_formula_units_Z  1
loop_
  _symmetry_equiv_pos_site_id
 _symmetry_equiv_pos_as_xyz
 1  'x, y, z'
loop_
 _atom_site_type_symbol
 _atom_site_label
 _atom_site_symmetry_multiplicity
 _atom_site_fract_x
 _atom_site_fract_y
 _atom_site_fract_z
 _atom_site_fract_occupancy
 Ho  Ho1  1  0.00000  0.00000  0.00000  1
 Mo  Mo1  1  0.57936  0.77625  0.43971  1
 Mo  Mo2  1  0.77625  0.43971  0.57936  1
 Mo  Mo3  1  0.42064  0.22375  0.56028  1
 Mo  Mo4  1  0.43971  0.57936  0.77625  1
 Mo  Mo5  1  0.22375  0.56028  0.42064  1
 Mo  Mo6  1  0.56028  0.42064  0.22375  1
 S  S1  1  0.75528  0.12690  0.36712  1
 S  S2  1  0.63288  0.24472  0.87310  1
 S  S3  1  0.24472  0.87310  0.63288  1
 S  S4  1  0.23757  0.23757  0.23757  1
 S  S5  1  0.12690  0.36712  0.75528  1
 S  S6  1  0.36712  0.75528  0.12690  1
 S  S7  1  0.76243  0.76243  0.76243  1
 S  S8  1  0.87310  0.63288  0.24472  1
