CIF file written using JARVIS-Tools package.
data_CePd
_symmetry_space_group_name_H-M  'Cmcm'
_cell_length_a       3.82159
_cell_length_b       4.48925
_cell_length_c       5.83462
_cell_angle_alpha    90
_cell_angle_beta     70.8833
_cell_angle_gamma    90

_symmetry_Int_Tables_number  63
_chemical_formula_structural  CePd
_chemical_formula_sum  Ce2Pd2
_cell_volume  94.5790621516406
_cell_formula_units_Z  2
loop_
  _symmetry_equiv_pos_site_id
 _symmetry_equiv_pos_as_xyz
 1  'x, y, z'
loop_
 _atom_site_type_symbol
 _atom_site_label
 _atom_site_symmetry_multiplicity
 _atom_site_fract_x
 _atom_site_fract_y
 _atom_site_fract_z
 _atom_site_fract_occupancy
 Ce  Ce1  1  0.13652  0.75000  0.72696  1
 Ce  Ce2  1  0.86348  0.25000  0.27304  1
 Pd  Pd1  1  0.40815  0.75000  0.18371  1
 Pd  Pd2  1  0.59185  0.25000  0.81629  1
