CIF file written using JARVIS-Tools package.
data_LaAlO3
_symmetry_space_group_name_H-M  'R-3c'
_cell_length_a       5.38337
_cell_length_b       5.38336
_cell_length_c       5.38336
_cell_angle_alpha    60.2109
_cell_angle_beta     60.2109
_cell_angle_gamma    60.2109

_symmetry_Int_Tables_number  167
_chemical_formula_structural  LaAlO3
_chemical_formula_sum  La2Al2O6
_cell_volume  110.84476560437751
_cell_formula_units_Z  2
loop_
  _symmetry_equiv_pos_site_id
 _symmetry_equiv_pos_as_xyz
 1  'x, y, z'
loop_
 _atom_site_type_symbol
 _atom_site_label
 _atom_site_symmetry_multiplicity
 _atom_site_fract_x
 _atom_site_fract_y
 _atom_site_fract_z
 _atom_site_fract_occupancy
 Al  Al1  1  0.50000  0.50000  0.50000  1
 Al  Al2  1  0.00000  0.00000  0.00000  1
 La  La1  1  0.75000  0.75000  0.75000  1
 La  La2  1  0.25000  0.25000  0.25000  1
 O  O1  1  0.28505  0.75000  0.21495  1
 O  O2  1  0.75000  0.21495  0.28505  1
 O  O3  1  0.21495  0.28505  0.75000  1
 O  O4  1  0.71495  0.25000  0.78505  1
 O  O5  1  0.78505  0.71495  0.25000  1
 O  O6  1  0.25000  0.78505  0.71495  1
