CIF file written using JARVIS-Tools package.
data_CaB2C2
_symmetry_space_group_name_H-M  'I4/mcm'
_cell_length_a       5.2852
_cell_length_b       5.28519
_cell_length_c       5.28519
_cell_angle_alpha    91.5475
_cell_angle_beta     119.111
_cell_angle_gamma    119.111

_symmetry_Int_Tables_number  140
_chemical_formula_structural  CaB2C2
_chemical_formula_sum  Ca2B4C4
_cell_volume  105.75372332463364
_cell_formula_units_Z  2
loop_
  _symmetry_equiv_pos_site_id
 _symmetry_equiv_pos_as_xyz
 1  'x, y, z'
loop_
 _atom_site_type_symbol
 _atom_site_label
 _atom_site_symmetry_multiplicity
 _atom_site_fract_x
 _atom_site_fract_y
 _atom_site_fract_z
 _atom_site_fract_occupancy
 B  B1  1  0.22187  0.36094  0.86094  1
 B  B2  1  0.50000  0.86094  0.63906  1
 B  B3  1  0.50000  0.13906  0.36094  1
 B  B4  1  0.77813  0.63906  0.13906  1
 C  C1  1  0.50000  0.65941  0.84059  1
 C  C2  1  0.81882  0.15941  0.65941  1
 C  C3  1  0.50000  0.34059  0.15941  1
 C  C4  1  0.18118  0.84059  0.34059  1
 Ca  Ca1  1  0.00000  0.75000  0.75000  1
 Ca  Ca2  1  0.00000  0.25000  0.25000  1
