CIF file written using JARVIS-Tools package.
data_NaAgC2O4
_symmetry_space_group_name_H-M  'P-1'
_cell_length_a       3.23474
_cell_length_b       5.51043
_cell_length_c       10.6178
_cell_angle_alpha    89.8058
_cell_angle_beta     93.1135
_cell_angle_gamma    88.7911

_symmetry_Int_Tables_number  2
_chemical_formula_structural  NaAgC2O4
_chemical_formula_sum  Na2Ag2C4O8
_cell_volume  188.93663980902053
_cell_formula_units_Z  2
loop_
  _symmetry_equiv_pos_site_id
 _symmetry_equiv_pos_as_xyz
 1  'x, y, z'
loop_
 _atom_site_type_symbol
 _atom_site_label
 _atom_site_symmetry_multiplicity
 _atom_site_fract_x
 _atom_site_fract_y
 _atom_site_fract_z
 _atom_site_fract_occupancy
 Ag  Ag1  1  0.69724  0.93911  0.33586  1
 Ag  Ag2  1  0.30276  0.06089  0.66414  1
 C  C1  1  0.07162  0.42816  0.44133  1
 C  C2  1  0.92838  0.57184  0.55867  1
 C  C3  1  0.90837  0.94804  0.06098  1
 C  C4  1  0.09163  0.05196  0.93902  1
 Na  Na1  1  0.37529  0.43720  0.15623  1
 Na  Na2  1  0.62471  0.56280  0.84377  1
 O  O1  1  0.11819  0.90166  0.84858  1
 O  O2  1  0.88181  0.09834  0.15142  1
 O  O3  1  0.20080  0.26969  0.93890  1
 O  O4  1  0.79920  0.73031  0.06110  1
 O  O5  1  0.01571  0.48491  0.66724  1
 O  O6  1  -0.01571  0.51509  0.33276  1
 O  O7  1  0.72733  0.76987  0.53670  1
 O  O8  1  0.27267  0.23013  0.46330  1
