CIF file written using JARVIS-Tools package.
data_ScMo3O8
_symmetry_space_group_name_H-M  'P6_3mc'
_cell_length_a       5.78298
_cell_length_b       5.78298
_cell_length_c       10.1081
_cell_angle_alpha    90
_cell_angle_beta     90
_cell_angle_gamma    120

_symmetry_Int_Tables_number  186
_chemical_formula_structural  ScMo3O8
_chemical_formula_sum  Sc2Mo6O6
_cell_volume  292.75465864071003
_cell_formula_units_Z  2
loop_
  _symmetry_equiv_pos_site_id
 _symmetry_equiv_pos_as_xyz
 1  'x, y, z'
loop_
 _atom_site_type_symbol
 _atom_site_label
 _atom_site_symmetry_multiplicity
 _atom_site_fract_x
 _atom_site_fract_y
 _atom_site_fract_z
 _atom_site_fract_occupancy
 Mo  Mo1  1  0.30263  0.15132  0.75140  1
 Mo  Mo2  1  0.15132  0.84868  0.25140  1
 Mo  Mo3  1  0.84868  0.69737  0.75140  1
 Mo  Mo4  1  0.15132  0.30263  0.25140  1
 Mo  Mo5  1  0.69737  0.84868  0.25140  1
 Mo  Mo6  1  0.84868  0.15132  0.75140  1
 O  O1  1  0.00000  0.00000  0.38909  1
 O  O2  1  0.83285  0.16715  0.13541  1
 O  O3  1  0.66570  0.83285  0.63541  1
 O  O4  1  0.16715  0.33430  0.63541  1
 O  O5  1  0.48535  0.51465  0.36055  1
 O  O6  1  0.33430  0.16715  0.13541  1
 O  O7  1  0.16715  0.83285  0.63541  1
 O  O8  1  0.83285  0.66570  0.13541  1
 O  O9  1  0.97070  0.48535  0.86055  1
 O  O10  1  0.48535  0.97070  0.36055  1
 O  O11  1  0.51465  0.02930  0.86055  1
 O  O12  1  0.51465  0.48535  0.86055  1
 O  O13  1  0.00000  0.00000  0.88909  1
 O  O14  1  0.33333  0.66667  0.15320  1
 O  O15  1  0.66667  0.33333  0.65320  1
 O  O16  1  0.02930  0.51465  0.36055  1
 Sc  Sc1  1  0.33333  0.66667  0.50764  1
 Sc  Sc2  1  0.66667  0.33333  0.00764  1
