CIF file written using JARVIS-Tools package.
data_HgI2
_symmetry_space_group_name_H-M  'P4_2/nmc'
_cell_length_a       8.91201
_cell_length_b       8.91201
_cell_length_c       12.3919
_cell_angle_alpha    90
_cell_angle_beta     90
_cell_angle_gamma    90

_symmetry_Int_Tables_number  137
_chemical_formula_structural  HgI2
_chemical_formula_sum  Hg8I6
_cell_volume  984.2118901785257
_cell_formula_units_Z  8
loop_
  _symmetry_equiv_pos_site_id
 _symmetry_equiv_pos_as_xyz
 1  'x, y, z'
loop_
 _atom_site_type_symbol
 _atom_site_label
 _atom_site_symmetry_multiplicity
 _atom_site_fract_x
 _atom_site_fract_y
 _atom_site_fract_z
 _atom_site_fract_occupancy
 Hg  Hg1  1  -0.00180  0.75000  0.12277  1
 Hg  Hg2  1  0.25000  0.00180  0.37723  1
 Hg  Hg3  1  0.49820  0.25000  0.87723  1
 Hg  Hg4  1  0.25000  0.49820  0.37723  1
 Hg  Hg5  1  0.50180  0.75000  0.12277  1
 Hg  Hg6  1  0.75000  -0.00180  0.62277  1
 Hg  Hg7  1  0.75000  0.50180  0.62277  1
 Hg  Hg8  1  0.00180  0.25000  0.87723  1
 I  I1  1  0.75000  0.25000  0.01937  1
 I  I2  1  0.25000  0.25000  0.52357  1
 I  I3  1  0.98336  0.01664  0.25000  1
 I  I4  1  0.51664  0.48336  0.25000  1
 I  I5  1  0.75000  0.25000  0.48063  1
 I  I6  1  0.01664  0.51664  0.75000  1
 I  I7  1  0.48336  0.51664  0.75000  1
 I  I8  1  0.25000  0.75000  0.98063  1
 I  I9  1  0.25000  0.75000  0.51937  1
 I  I10  1  0.48336  0.98336  0.75000  1
 I  I11  1  0.01664  0.98336  0.75000  1
 I  I12  1  0.75000  0.75000  0.47643  1
 I  I13  1  0.98336  0.48336  0.25000  1
 I  I14  1  0.51664  0.01664  0.25000  1
 I  I15  1  0.25000  0.25000  0.02357  1
 I  I16  1  0.75000  0.75000  0.97643  1
