CIF file written using JARVIS-Tools package.
data_Ba3Al5
_symmetry_space_group_name_H-M  'P6_3/mmc'
_cell_length_a       6.08528
_cell_length_b       6.08528
_cell_length_c       14.7365
_cell_angle_alpha    90
_cell_angle_beta     90
_cell_angle_gamma    120

_symmetry_Int_Tables_number  194
_chemical_formula_structural  Ba3Al5
_chemical_formula_sum  Ba6Al0
_cell_volume  472.5922165188871
_cell_formula_units_Z  2
loop_
  _symmetry_equiv_pos_site_id
 _symmetry_equiv_pos_as_xyz
 1  'x, y, z'
loop_
 _atom_site_type_symbol
 _atom_site_label
 _atom_site_symmetry_multiplicity
 _atom_site_fract_x
 _atom_site_fract_y
 _atom_site_fract_z
 _atom_site_fract_occupancy
 Al  Al1  1  0.84600  0.15400  0.25000  1
 Al  Al2  1  0.15400  0.30800  0.75000  1
 Al  Al3  1  0.69200  0.84600  0.75000  1
 Al  Al4  1  0.30800  0.15400  0.25000  1
 Al  Al5  1  0.84600  0.69200  0.25000  1
 Al  Al6  1  0.15400  0.84600  0.75000  1
 Al  Al7  1  0.33333  0.66667  0.88573  1
 Al  Al8  1  0.66667  0.33333  0.38573  1
 Al  Al9  1  0.66667  0.33333  0.11427  1
 Al  Al10  1  0.33333  0.66667  0.61427  1
 Ba  Ba1  1  0.00000  0.00000  0.50000  1
 Ba  Ba2  1  0.00000  0.00000  0.00000  1
 Ba  Ba3  1  0.33333  0.66667  0.12519  1
 Ba  Ba4  1  0.66667  0.33333  0.62519  1
 Ba  Ba5  1  0.66667  0.33333  0.87481  1
 Ba  Ba6  1  0.33333  0.66667  0.37481  1
