CIF file written using JARVIS-Tools package.
data_TeW2SeS2
_symmetry_space_group_name_H-M  'P3m1'
_cell_length_a       3.30914
_cell_length_b       3.30914
_cell_length_c       37.6891
_cell_angle_alpha    89.9997
_cell_angle_beta     90
_cell_angle_gamma    120

_symmetry_Int_Tables_number  156
_chemical_formula_structural  TeW2SeS2
_chemical_formula_sum  Te2W4Se2S4
_cell_volume  357.4193461687936
_cell_formula_units_Z  2
loop_
  _symmetry_equiv_pos_site_id
 _symmetry_equiv_pos_as_xyz
 1  'x, y, z'
loop_
 _atom_site_type_symbol
 _atom_site_label
 _atom_site_symmetry_multiplicity
 _atom_site_fract_x
 _atom_site_fract_y
 _atom_site_fract_z
 _atom_site_fract_occupancy
 S  S1  1  0.33335  0.66671  0.69823  1
 S  S2  1  0.66665  0.33329  0.05324  1
 S  S3  1  0.66665  0.33329  0.13469  1
 S  S4  1  0.33336  0.66671  0.61681  1
 Se  Se1  1  0.33335  0.66670  0.32651  1
 Se  Se2  1  0.33335  0.66670  0.23693  1
 Te  Te1  1  0.66665  0.33330  0.41861  1
 Te  Te2  1  0.66665  0.33329  0.52081  1
 W  W1  1  0.33331  0.66662  0.09395  1
 W  W2  1  0.33331  0.66662  0.46967  1
 W  W3  1  0.66669  0.33338  0.28175  1
 W  W4  1  0.66669  0.33338  0.65754  1
