CIF file written using JARVIS-Tools package.
data_Sr2TaGaO6
_symmetry_space_group_name_H-M  'I4/m'
_cell_length_a       5.59608
_cell_length_b       5.59607
_cell_length_c       5.6287
_cell_angle_alpha    119.808
_cell_angle_beta     119.808
_cell_angle_gamma    90

_symmetry_Int_Tables_number  87
_chemical_formula_structural  Sr2TaGaO6
_chemical_formula_sum  Sr2TaGaO6
_cell_volume  125.35934284964898
_cell_formula_units_Z  1
loop_
  _symmetry_equiv_pos_site_id
 _symmetry_equiv_pos_as_xyz
 1  'x, y, z'
loop_
 _atom_site_type_symbol
 _atom_site_label
 _atom_site_symmetry_multiplicity
 _atom_site_fract_x
 _atom_site_fract_y
 _atom_site_fract_z
 _atom_site_fract_occupancy
 Ga  Ga1  1  0.00000  0.00000  0.00000  1
 O  O1  1  0.71616  0.78338  1.00000  1
 O  O2  1  0.21662  0.71616  0.00000  1
 O  O3  1  0.78338  0.28384  1.00000  1
 O  O4  1  0.28384  0.21662  0.00000  1
 O  O5  1  0.25065  0.25065  0.50130  1
 O  O6  1  0.74935  0.74935  0.49870  1
 Sr  Sr1  1  0.25000  0.75000  0.50000  1
 Sr  Sr2  1  0.75000  0.25000  0.50000  1
 Ta  Ta1  1  0.50000  0.50000  -0.00000  1
