CIF file written using JARVIS-Tools package.
data_MgMn2O5
_symmetry_space_group_name_H-M  'Pmmn'
_cell_length_a       4.47834
_cell_length_b       3.49036
_cell_length_c       11.4466
_cell_angle_alpha    90
_cell_angle_beta     90.0003
_cell_angle_gamma    90

_symmetry_Int_Tables_number  59
_chemical_formula_structural  MgMn2O5
_chemical_formula_sum  Mg2Mn4O0
_cell_volume  178.92159204055991
_cell_formula_units_Z  2
loop_
  _symmetry_equiv_pos_site_id
 _symmetry_equiv_pos_as_xyz
 1  'x, y, z'
loop_
 _atom_site_type_symbol
 _atom_site_label
 _atom_site_symmetry_multiplicity
 _atom_site_fract_x
 _atom_site_fract_y
 _atom_site_fract_z
 _atom_site_fract_occupancy
 Mg  Mg1  1  0.09223  0.50000  0.75001  1
 Mg  Mg2  1  0.90777  0.00000  0.24999  1
 Mn  Mn1  1  0.55040  0.00000  0.90083  1
 Mn  Mn2  1  0.44960  0.50000  0.09917  1
 Mn  Mn3  1  0.44960  0.50000  0.40083  1
 Mn  Mn4  1  0.55040  0.00000  0.59917  1
 O  O1  1  0.59425  0.50000  0.25000  1
 O  O2  1  0.40575  0.00000  0.75000  1
 O  O3  1  0.43274  0.50000  0.92386  1
 O  O4  1  0.56726  0.00000  0.07614  1
 O  O5  1  0.43272  0.50000  0.57614  1
 O  O6  1  0.56728  0.00000  0.42386  1
 O  O7  1  0.92342  0.00000  0.63399  1
 O  O8  1  0.07658  0.50000  0.36601  1
 O  O9  1  0.07658  0.50000  0.13398  1
 O  O10  1  0.92342  0.00000  0.86602  1
