CIF file written using JARVIS-Tools package.
data_Tb4Mg3Co2
_symmetry_space_group_name_H-M  'P2/m'
_cell_length_a       7.46977
_cell_length_b       3.68914
_cell_length_c       8.14555
_cell_angle_alpha    90
_cell_angle_beta     109.57
_cell_angle_gamma    90

_symmetry_Int_Tables_number  10
_chemical_formula_structural  Tb4Mg3Co2
_chemical_formula_sum  Tb4Mg3Co2
_cell_volume  211.5002858706354
_cell_formula_units_Z  1
loop_
  _symmetry_equiv_pos_site_id
 _symmetry_equiv_pos_as_xyz
 1  'x, y, z'
loop_
 _atom_site_type_symbol
 _atom_site_label
 _atom_site_symmetry_multiplicity
 _atom_site_fract_x
 _atom_site_fract_y
 _atom_site_fract_z
 _atom_site_fract_occupancy
 Co  Co1  1  0.65188  0.00000  0.10961  1
 Co  Co2  1  0.34812  0.00000  0.89039  1
 Mg  Mg1  1  0.70592  0.00000  0.49849  1
 Mg  Mg2  1  0.00000  0.00000  0.00000  1
 Mg  Mg3  1  0.29408  0.00000  0.50151  1
 Tb  Tb1  1  0.60217  0.50000  0.82434  1
 Tb  Tb2  1  0.39783  0.50000  0.17566  1
 Tb  Tb3  1  0.09634  0.50000  0.72521  1
 Tb  Tb4  1  0.90366  0.50000  0.27479  1
