CIF file written using JARVIS-Tools package.
data_Sr2Sn
_symmetry_space_group_name_H-M  'Pnma'
_cell_length_a       5.37305
_cell_length_b       8.309
_cell_length_c       10.0633
_cell_angle_alpha    90
_cell_angle_beta     90
_cell_angle_gamma    90

_symmetry_Int_Tables_number  62
_chemical_formula_structural  Sr2Sn
_chemical_formula_sum  Sr8Sn4
_cell_volume  449.27272391629504
_cell_formula_units_Z  4
loop_
  _symmetry_equiv_pos_site_id
 _symmetry_equiv_pos_as_xyz
 1  'x, y, z'
loop_
 _atom_site_type_symbol
 _atom_site_label
 _atom_site_symmetry_multiplicity
 _atom_site_fract_x
 _atom_site_fract_y
 _atom_site_fract_z
 _atom_site_fract_occupancy
 Sn  Sn1  1  0.25000  0.75046  0.60527  1
 Sn  Sn2  1  0.75000  0.24954  0.39473  1
 Sn  Sn3  1  0.25000  0.25046  0.89473  1
 Sn  Sn4  1  0.75000  0.74954  0.10527  1
 Sr  Sr1  1  0.25000  0.47930  0.18299  1
 Sr  Sr2  1  0.75000  0.52070  0.81701  1
 Sr  Sr3  1  0.25000  0.97930  0.31701  1
 Sr  Sr4  1  0.75000  0.02070  0.68299  1
 Sr  Sr5  1  0.75000  0.15791  0.07441  1
 Sr  Sr6  1  0.25000  0.84209  0.92559  1
 Sr  Sr7  1  0.75000  0.65791  0.42559  1
 Sr  Sr8  1  0.25000  0.34209  0.57441  1
