CIF file written using JARVIS-Tools package.
data_Sc2HgOs
_symmetry_space_group_name_H-M  'C2/m'
_cell_length_a       11.1848
_cell_length_b       9.019
_cell_length_c       9.019
_cell_angle_alpha    20.7721
_cell_angle_beta     18.4472
_cell_angle_gamma    18.4472

_symmetry_Int_Tables_number  12
_chemical_formula_structural  Sc2HgOs
_chemical_formula_sum  Sc2HgOs
_cell_volume  85.30696990297719
_cell_formula_units_Z  1
loop_
  _symmetry_equiv_pos_site_id
 _symmetry_equiv_pos_as_xyz
 1  'x, y, z'
loop_
 _atom_site_type_symbol
 _atom_site_label
 _atom_site_symmetry_multiplicity
 _atom_site_fract_x
 _atom_site_fract_y
 _atom_site_fract_z
 _atom_site_fract_occupancy
 Hg  Hg1  1  0.50000  0.00000  0.00000  1
 Os  Os1  1  0.00000  0.00000  0.00000  1
 Sc  Sc1  1  0.69676  0.04923  0.04923  1
 Sc  Sc2  1  0.30324  0.95077  0.95077  1
