CIF file written using JARVIS-Tools package.
data_Ag2S
_symmetry_space_group_name_H-M  'Cmcm'
_cell_length_a       4.23101
_cell_length_b       7.37289
_cell_length_c       4.23403
_cell_angle_alpha    90
_cell_angle_beta     111.227
_cell_angle_gamma    90

_symmetry_Int_Tables_number  63
_chemical_formula_structural  Ag2S
_chemical_formula_sum  Ag4S2
_cell_volume  123.11858746877886
_cell_formula_units_Z  2
loop_
  _symmetry_equiv_pos_site_id
 _symmetry_equiv_pos_as_xyz
 1  'x, y, z'
loop_
 _atom_site_type_symbol
 _atom_site_label
 _atom_site_symmetry_multiplicity
 _atom_site_fract_x
 _atom_site_fract_y
 _atom_site_fract_z
 _atom_site_fract_occupancy
 Ag  Ag1  1  0.50002  0.54164  0.49998  1
 Ag  Ag2  1  0.88404  0.29170  0.11570  1
 Ag  Ag3  1  0.11596  0.79170  0.88430  1
 Ag  Ag4  1  0.49998  0.04164  0.50002  1
 S  S1  1  0.27464  0.29166  0.72483  1
 S  S2  1  0.72536  0.79166  0.27517  1
