CIF file written using JARVIS-Tools package.
data_MgMn2O4
_symmetry_space_group_name_H-M  'Cmcm'
_cell_length_a       2.90537
_cell_length_b       5.02979
_cell_length_c       9.5664
_cell_angle_alpha    90
_cell_angle_beta     90
_cell_angle_gamma    106.787

_symmetry_Int_Tables_number  63
_chemical_formula_structural  MgMn2O4
_chemical_formula_sum  Mg2Mn4O8
_cell_volume  133.84016394135656
_cell_formula_units_Z  2
loop_
  _symmetry_equiv_pos_site_id
 _symmetry_equiv_pos_as_xyz
 1  'x, y, z'
loop_
 _atom_site_type_symbol
 _atom_site_label
 _atom_site_symmetry_multiplicity
 _atom_site_fract_x
 _atom_site_fract_y
 _atom_site_fract_z
 _atom_site_fract_occupancy
 Mg  Mg1  1  0.38790  0.77581  0.75000  1
 Mg  Mg2  1  0.61210  0.22419  0.25000  1
 Mn  Mn1  1  0.86865  0.73730  0.07026  1
 Mn  Mn2  1  0.13135  0.26270  0.92974  1
 Mn  Mn3  1  0.86865  0.73730  0.42974  1
 Mn  Mn4  1  0.13135  0.26270  0.57026  1
 O  O1  1  0.22145  0.44289  0.38617  1
 O  O2  1  0.77855  0.55711  0.61383  1
 O  O3  1  0.77855  0.55711  0.88617  1
 O  O4  1  0.22145  0.44289  0.11383  1
 O  O5  1  0.95791  0.91582  0.25000  1
 O  O6  1  0.04209  0.08418  0.75000  1
 O  O7  1  0.50000  0.00000  0.00000  1
 O  O8  1  0.50000  0.00000  0.50000  1
