CIF file written using JARVIS-Tools package.
data_GaFeRu2
_symmetry_space_group_name_H-M  'Fm-3m'
_cell_length_a       10.2845
_cell_length_b       7.26891
_cell_length_c       7.26892
_cell_angle_alpha    33.521
_cell_angle_beta     19.4652
_cell_angle_gamma    19.4651

_symmetry_Int_Tables_number  225
_chemical_formula_structural  GaFeRu2
_chemical_formula_sum  GaFeRu2
_cell_volume  52.33565862574863
_cell_formula_units_Z  1
loop_
  _symmetry_equiv_pos_site_id
 _symmetry_equiv_pos_as_xyz
 1  'x, y, z'
loop_
 _atom_site_type_symbol
 _atom_site_label
 _atom_site_symmetry_multiplicity
 _atom_site_fract_x
 _atom_site_fract_y
 _atom_site_fract_z
 _atom_site_fract_occupancy
 Fe  Fe1  1  0.00000  0.00000  0.00000  1
 Ga  Ga1  1  0.50000  -0.00000  0.00000  1
 Ru  Ru1  1  0.74977  0.00014  0.00014  1
 Ru  Ru2  1  0.25023  -0.00014  -0.00014  1
