CIF file written using JARVIS-Tools package.
data_Hf3ZnN
_symmetry_space_group_name_H-M  'Cmcm'
_cell_length_a       5.87597
_cell_length_b       5.87597
_cell_length_c       8.77949
_cell_angle_alpha    90
_cell_angle_beta     90
_cell_angle_gamma    147.272

_symmetry_Int_Tables_number  63
_chemical_formula_structural  Hf3ZnN
_chemical_formula_sum  Hf6Zn2N2
_cell_volume  163.88800127783273
_cell_formula_units_Z  2
loop_
  _symmetry_equiv_pos_site_id
 _symmetry_equiv_pos_as_xyz
 1  'x, y, z'
loop_
 _atom_site_type_symbol
 _atom_site_label
 _atom_site_symmetry_multiplicity
 _atom_site_fract_x
 _atom_site_fract_y
 _atom_site_fract_z
 _atom_site_fract_occupancy
 Hf  Hf1  1  0.62829  0.37171  0.04749  1
 Hf  Hf2  1  0.37171  0.62829  0.54749  1
 Hf  Hf3  1  0.37171  0.62829  0.95251  1
 Hf  Hf4  1  0.62829  0.37171  0.45251  1
 Hf  Hf5  1  0.95305  0.04695  0.25000  1
 Hf  Hf6  1  0.04695  0.95305  0.75000  1
 N  N1  1  0.00000  0.00000  0.00000  1
 N  N2  1  0.00000  0.00000  0.50000  1
 Zn  Zn1  1  0.25540  0.74460  0.25000  1
 Zn  Zn2  1  0.74460  0.25540  0.75000  1
