CIF file written using JARVIS-Tools package.
data_K3Sb2N2O6F7
_symmetry_space_group_name_H-M  'C2/m'
_cell_length_a       5.57266
_cell_length_b       7.14685
_cell_length_c       8.01777
_cell_angle_alpha    92.0139
_cell_angle_beta     110.336
_cell_angle_gamma    90

_symmetry_Int_Tables_number  12
_chemical_formula_structural  K3Sb2N2O6F7
_chemical_formula_sum  K3Sb2N2O6F7
_cell_volume  299.2102510006961
_cell_formula_units_Z  1
loop_
  _symmetry_equiv_pos_site_id
 _symmetry_equiv_pos_as_xyz
 1  'x, y, z'
loop_
 _atom_site_type_symbol
 _atom_site_label
 _atom_site_symmetry_multiplicity
 _atom_site_fract_x
 _atom_site_fract_y
 _atom_site_fract_z
 _atom_site_fract_occupancy
 F  F1  1  -0.00000  0.50000  -0.00000  1
 F  F2  1  0.91123  0.42453  0.30341  1
 F  F3  1  0.78153  0.86808  0.56306  1
 F  F4  1  0.60782  0.57547  0.69659  1
 F  F5  1  0.39218  0.42453  0.30341  1
 F  F6  1  0.08877  0.57547  0.69659  1
 F  F7  1  0.21847  0.13192  0.43694  1
 K  K1  1  0.78285  0.25835  0.56571  1
 K  K2  1  0.50000  0.50000  0.00000  1
 K  K3  1  0.21715  0.74165  0.43429  1
 N  N1  1  0.58908  0.92469  0.17815  1
 N  N2  1  0.41092  0.07531  0.82185  1
 O  O1  1  0.38169  0.83920  0.15788  1
 O  O2  1  0.22381  0.16080  0.84212  1
 O  O3  1  0.77619  0.83920  0.15788  1
 O  O4  1  0.39191  0.89956  0.78383  1
 O  O5  1  0.60809  0.10044  0.21617  1
 O  O6  1  0.61831  0.16080  0.84212  1
 Sb  Sb1  1  0.90196  0.75063  0.80391  1
 Sb  Sb2  1  0.09804  0.24937  0.19609  1
