CIF file written using JARVIS-Tools package.
data_LiZr2Pt
_symmetry_space_group_name_H-M  'I4/mmm'
_cell_length_a       14.6229
_cell_length_b       7.6863
_cell_length_c       7.6863
_cell_angle_alpha    25.1991
_cell_angle_beta     17.9677
_cell_angle_gamma    17.9677

_symmetry_Int_Tables_number  139
_chemical_formula_structural  LiZr2Pt
_chemical_formula_sum  LiZr2Pt
_cell_volume  82.20979162229902
_cell_formula_units_Z  1
loop_
  _symmetry_equiv_pos_site_id
 _symmetry_equiv_pos_as_xyz
 1  'x, y, z'
loop_
 _atom_site_type_symbol
 _atom_site_label
 _atom_site_symmetry_multiplicity
 _atom_site_fract_x
 _atom_site_fract_y
 _atom_site_fract_z
 _atom_site_fract_occupancy
 Li  Li1  1  0.00000  0.00000  0.00000  1
 Pt  Pt1  1  0.50000  -0.00000  -0.00000  1
 Zr  Zr1  1  0.68027  0.00000  0.00000  1
 Zr  Zr2  1  0.31973  -0.00000  -0.00000  1
