CIF file written using JARVIS-Tools package.
data_CaC2
_symmetry_space_group_name_H-M  'R-3m'
_cell_length_a       3.50774
_cell_length_b       3.50774
_cell_length_c       3.50774
_cell_angle_alpha    86.2956
_cell_angle_beta     86.2956
_cell_angle_gamma    86.2954

_symmetry_Int_Tables_number  166
_chemical_formula_structural  CaC2
_chemical_formula_sum  CaC2
_cell_volume  42.900767810756676
_cell_formula_units_Z  1
loop_
  _symmetry_equiv_pos_site_id
 _symmetry_equiv_pos_as_xyz
 1  'x, y, z'
loop_
 _atom_site_type_symbol
 _atom_site_label
 _atom_site_symmetry_multiplicity
 _atom_site_fract_x
 _atom_site_fract_y
 _atom_site_fract_z
 _atom_site_fract_occupancy
 C  C1  1  0.59762  0.59762  0.59762  1
 C  C2  1  0.40238  0.40238  0.40238  1
 Ca  Ca1  1  0.00000  0.00000  0.00000  1
