CIF file written using JARVIS-Tools package.
data_KN3
_symmetry_space_group_name_H-M  'I4/mcm'
_cell_length_a       7.23237
_cell_length_b       7.23237
_cell_length_c       7.23237
_cell_angle_alpha    83.99
_cell_angle_beta     123.528
_cell_angle_gamma    123.528

_symmetry_Int_Tables_number  140
_chemical_formula_structural  KN3
_chemical_formula_sum  K2N6
_cell_volume  251.71972449153998
_cell_formula_units_Z  2
loop_
  _symmetry_equiv_pos_site_id
 _symmetry_equiv_pos_as_xyz
 1  'x, y, z'
loop_
 _atom_site_type_symbol
 _atom_site_label
 _atom_site_symmetry_multiplicity
 _atom_site_fract_x
 _atom_site_fract_y
 _atom_site_fract_z
 _atom_site_fract_occupancy
 K  K1  1  -0.00000  0.50000  0.50000  1
 K  K2  1  0.00000  0.00000  0.00000  1
 N  N1  1  0.50000  0.94206  0.55794  1
 N  N2  1  0.50000  0.05794  0.44206  1
 N  N3  1  0.38411  0.44206  0.94206  1
 N  N4  1  -0.00000  0.75000  0.75000  1
 N  N5  1  -0.00000  0.25000  0.25000  1
 N  N6  1  0.61589  0.55794  0.05794  1
