CIF file written using JARVIS-Tools package.
data_Sm2Ta2Cl2O7
_symmetry_space_group_name_H-M  'C2/m'
_cell_length_a       3.9252
_cell_length_b       6.91432
_cell_length_c       7.92218
_cell_angle_alpha    113.216
_cell_angle_beta     104.343
_cell_angle_gamma    90.0007

_symmetry_Int_Tables_number  12
_chemical_formula_structural  Sm2Ta2Cl2O7
_chemical_formula_sum  Sm2Ta2Cl2O7
_cell_volume  190.28508176667648
_cell_formula_units_Z  1
loop_
  _symmetry_equiv_pos_site_id
 _symmetry_equiv_pos_as_xyz
 1  'x, y, z'
loop_
 _atom_site_type_symbol
 _atom_site_label
 _atom_site_symmetry_multiplicity
 _atom_site_fract_x
 _atom_site_fract_y
 _atom_site_fract_z
 _atom_site_fract_occupancy
 Cl  Cl1  1  0.67858  0.56511  0.35716  1
 Cl  Cl2  1  0.32142  0.43489  0.64284  1
 O  O1  1  0.45342  0.15853  0.90683  1
 O  O2  1  0.54658  0.84147  0.09317  1
 O  O3  1  0.91701  0.84475  0.83402  1
 O  O4  1  -0.00000  0.50000  -0.00000  1
 O  O5  1  0.82307  0.06640  0.64614  1
 O  O6  1  0.08299  0.15525  0.16598  1
 O  O7  1  0.17693  0.93360  0.35386  1
 Sm  Sm1  1  0.30659  0.83511  0.61319  1
 Sm  Sm2  1  0.69341  0.16489  0.38681  1
 Ta  Ta1  1  0.96515  0.20024  0.93030  1
 Ta  Ta2  1  0.03485  0.79976  0.06970  1
