CIF file written using JARVIS-Tools package.
data_HfScAu2
_symmetry_space_group_name_H-M  'Immm'
_cell_length_a       10.5167
_cell_length_b       11.8019
_cell_length_c       11.8019
_cell_angle_alpha    61.0644
_cell_angle_beta     63.5413
_cell_angle_gamma    63.5413

_symmetry_Int_Tables_number  71
_chemical_formula_structural  HfScAu2
_chemical_formula_sum  HfScAu2
_cell_volume  1097.1201008332177
_cell_formula_units_Z  1
loop_
  _symmetry_equiv_pos_site_id
 _symmetry_equiv_pos_as_xyz
 1  'x, y, z'
loop_
 _atom_site_type_symbol
 _atom_site_label
 _atom_site_symmetry_multiplicity
 _atom_site_fract_x
 _atom_site_fract_y
 _atom_site_fract_z
 _atom_site_fract_occupancy
 Au  Au1  1  0.75128  -0.00000  -0.00000  1
 Au  Au2  1  0.24872  -0.00000  -0.00000  1
 Hf  Hf1  1  0.50000  -0.00000  -0.00000  1
 Sc  Sc1  1  0.00000  0.00000  0.00000  1
