CIF file written using JARVIS-Tools package.
data_SiO2
_symmetry_space_group_name_H-M  'Pbcn'
_cell_length_a       4.1075
_cell_length_b       4.5316
_cell_length_c       5.07969
_cell_angle_alpha    90
_cell_angle_beta     90
_cell_angle_gamma    90

_symmetry_Int_Tables_number  60
_chemical_formula_structural  SiO2
_chemical_formula_sum  Si4O8
_cell_volume  94.5510659409511
_cell_formula_units_Z  4
loop_
  _symmetry_equiv_pos_site_id
 _symmetry_equiv_pos_as_xyz
 1  'x, y, z'
loop_
 _atom_site_type_symbol
 _atom_site_label
 _atom_site_symmetry_multiplicity
 _atom_site_fract_x
 _atom_site_fract_y
 _atom_site_fract_z
 _atom_site_fract_occupancy
 O  O1  1  0.26881  0.58042  0.38242  1
 O  O2  1  0.76881  0.41958  0.11758  1
 O  O3  1  0.23119  0.08042  0.11758  1
 O  O4  1  0.73119  0.91958  0.38242  1
 O  O5  1  0.26881  0.08042  0.61758  1
 O  O6  1  0.76881  0.91958  0.88242  1
 O  O7  1  0.23119  0.58042  0.88242  1
 O  O8  1  0.73119  0.41958  0.61758  1
 Si  Si1  1  0.50000  0.75000  0.65299  1
 Si  Si2  1  0.00000  0.25000  0.84701  1
 Si  Si3  1  0.50000  0.25000  0.34701  1
 Si  Si4  1  0.00000  0.75000  0.15299  1
