CIF file written using JARVIS-Tools package.
data_Li4Cr3Co3Sn2O16
_symmetry_space_group_name_H-M  'Cm'
_cell_length_a       5.77815
_cell_length_b       5.80486
_cell_length_c       9.5898
_cell_angle_alpha    90.0011
_cell_angle_beta     90.4421
_cell_angle_gamma    120.152

_symmetry_Int_Tables_number  8
_chemical_formula_structural  Li4Cr3Co3Sn2O16
_chemical_formula_sum  Li4Cr3Co3Sn2O6
_cell_volume  278.1217968278307
_cell_formula_units_Z  1
loop_
  _symmetry_equiv_pos_site_id
 _symmetry_equiv_pos_as_xyz
 1  'x, y, z'
loop_
 _atom_site_type_symbol
 _atom_site_label
 _atom_site_symmetry_multiplicity
 _atom_site_fract_x
 _atom_site_fract_y
 _atom_site_fract_z
 _atom_site_fract_occupancy
 Co  Co1  1  0.17134  0.83165  0.71460  1
 Co  Co2  1  0.34179  0.17086  0.21472  1
 Co  Co3  1  0.17134  0.33971  0.71460  1
 Cr  Cr1  1  0.65741  0.82872  0.71514  1
 Cr  Cr2  1  0.83015  0.17212  0.21540  1
 Cr  Cr3  1  0.83015  0.65796  0.21540  1
 Li  Li1  1  0.66407  0.33203  0.89208  1
 Li  Li2  1  0.00512  0.00261  0.49539  1
 Li  Li3  1  0.00795  0.00391  0.99393  1
 Li  Li4  1  0.33156  0.66578  0.39804  1
 O  O1  1  0.96994  0.48494  0.33685  1
 O  O2  1  0.84260  0.15566  0.60313  1
 O  O3  1  0.03161  0.51582  0.82813  1
 O  O4  1  0.66532  0.33263  0.10534  1
 O  O5  1  0.00400  0.00197  0.30747  1
 O  O6  1  0.00481  0.00242  0.80689  1
 O  O7  1  0.84262  0.68700  0.60311  1
 O  O8  1  0.51276  0.48189  0.33463  1
 O  O9  1  0.15821  0.31588  0.10334  1
 O  O10  1  0.48351  0.51381  0.83421  1
 O  O11  1  0.48349  0.96969  0.83423  1
 O  O12  1  0.32759  0.66379  0.60888  1
 O  O13  1  0.51277  0.03084  0.33464  1
 O  O14  1  0.68445  0.84219  0.10228  1
 O  O15  1  0.31279  0.15640  0.60541  1
 O  O16  1  0.15821  0.84224  0.10335  1
 Sn  Sn1  1  0.33033  0.66513  0.99089  1
 Sn  Sn2  1  0.66411  0.33207  0.49573  1
