CIF file written using JARVIS-Tools package.
data_TiZnO3
_symmetry_space_group_name_H-M  'P-1'
_cell_length_a       5.52255
_cell_length_b       5.53744
_cell_length_c       5.77062
_cell_angle_alpha    66.2861
_cell_angle_beta     65.515
_cell_angle_gamma    69.0888

_symmetry_Int_Tables_number  2
_chemical_formula_structural  TiZnO3
_chemical_formula_sum  Ti2Zn2O6
_cell_volume  143.15615788671332
_cell_formula_units_Z  2
loop_
  _symmetry_equiv_pos_site_id
 _symmetry_equiv_pos_as_xyz
 1  'x, y, z'
loop_
 _atom_site_type_symbol
 _atom_site_label
 _atom_site_symmetry_multiplicity
 _atom_site_fract_x
 _atom_site_fract_y
 _atom_site_fract_z
 _atom_site_fract_occupancy
 O  O1  1  0.28914  0.35894  0.60870  1
 O  O2  1  0.10544  0.85369  0.84390  1
 O  O3  1  0.54856  0.77323  0.95692  1
 O  O4  1  0.71086  0.64106  0.39130  1
 O  O5  1  0.89456  0.14631  0.15610  1
 O  O6  1  0.45144  0.22677  0.04308  1
 Ti  Ti1  1  0.24547  0.09587  0.91841  1
 Ti  Ti2  1  0.75453  0.90413  0.08159  1
 Zn  Zn1  1  0.55394  0.41386  0.25916  1
 Zn  Zn2  1  0.44606  0.58614  0.74084  1
