CIF file written using JARVIS-Tools package.
data_Nb3Sb2Te5
_symmetry_space_group_name_H-M  'I-43m'
_cell_length_a       8.61887
_cell_length_b       8.61888
_cell_length_c       8.61887
_cell_angle_alpha    109.471
_cell_angle_beta     109.471
_cell_angle_gamma    109.471

_symmetry_Int_Tables_number  217
_chemical_formula_structural  Nb3Sb2Te5
_chemical_formula_sum  Nb6Sb4Te0
_cell_volume  492.8670481154478
_cell_formula_units_Z  2
loop_
  _symmetry_equiv_pos_site_id
 _symmetry_equiv_pos_as_xyz
 1  'x, y, z'
loop_
 _atom_site_type_symbol
 _atom_site_label
 _atom_site_symmetry_multiplicity
 _atom_site_fract_x
 _atom_site_fract_y
 _atom_site_fract_z
 _atom_site_fract_occupancy
 Nb  Nb1  1  0.00000  0.34282  0.34282  1
 Nb  Nb2  1  0.34282  0.00000  0.34282  1
 Nb  Nb3  1  0.65718  -0.00000  0.65718  1
 Nb  Nb4  1  0.65718  0.65718  -0.00000  1
 Nb  Nb5  1  0.34282  0.34282  0.00000  1
 Nb  Nb6  1  -0.00000  0.65718  0.65718  1
 Sb  Sb1  1  0.33226  -0.00000  -0.00000  1
 Sb  Sb2  1  -0.00000  0.33226  0.00000  1
 Sb  Sb3  1  0.66774  0.66774  0.66774  1
 Sb  Sb4  1  0.00000  0.00000  0.33226  1
 Te  Te1  1  -0.00000  -0.00000  0.67390  1
 Te  Te2  1  0.25000  0.50000  0.75000  1
 Te  Te3  1  0.32610  0.32610  0.32610  1
 Te  Te4  1  0.25000  0.75000  0.50000  1
 Te  Te5  1  0.00000  0.67390  -0.00000  1
 Te  Te6  1  0.50000  0.75000  0.25000  1
 Te  Te7  1  0.75000  0.25000  0.50000  1
 Te  Te8  1  0.50000  0.25000  0.75000  1
 Te  Te9  1  0.67390  0.00000  0.00000  1
 Te  Te10  1  0.75000  0.50000  0.25000  1
