CIF file written using JARVIS-Tools package.
data_SrCe2S4
_symmetry_space_group_name_H-M  'I-42d'
_cell_length_a       7.49474
_cell_length_b       7.49329
_cell_length_c       7.49475
_cell_angle_alpha    109.453
_cell_angle_beta     109.504
_cell_angle_gamma    109.453

_symmetry_Int_Tables_number  122
_chemical_formula_structural  SrCe2S4
_chemical_formula_sum  Sr2Ce4S8
_cell_volume  324.030440189398
_cell_formula_units_Z  2
loop_
  _symmetry_equiv_pos_site_id
 _symmetry_equiv_pos_as_xyz
 1  'x, y, z'
loop_
 _atom_site_type_symbol
 _atom_site_label
 _atom_site_symmetry_multiplicity
 _atom_site_fract_x
 _atom_site_fract_y
 _atom_site_fract_z
 _atom_site_fract_occupancy
 Ce  Ce1  1  0.24999  0.62638  0.37638  1
 Ce  Ce2  1  0.62362  0.37362  0.25001  1
 Ce  Ce3  1  0.75001  0.87362  0.12362  1
 Ce  Ce4  1  0.87638  0.12638  0.74999  1
 S  S1  1  0.99030  0.84683  0.49137  1
 S  S2  1  0.99137  0.34683  0.49030  1
 S  S3  1  0.50864  0.99895  0.35548  1
 S  S4  1  0.14345  0.15316  0.14453  1
 S  S5  1  0.35654  0.50106  0.00969  1
 S  S6  1  0.50969  0.00106  0.85654  1
 S  S7  1  0.64453  0.65316  0.64345  1
 S  S8  1  0.85548  0.49895  0.00864  1
 Sr  Sr1  1  0.12501  0.75000  0.87500  1
 Sr  Sr2  1  0.37500  0.25000  0.62501  1
