CIF file written using JARVIS-Tools package.
data_SrLiSb
_symmetry_space_group_name_H-M  'Pnma'
_cell_length_a       4.81408
_cell_length_b       8.03819
_cell_length_c       8.43519
_cell_angle_alpha    90
_cell_angle_beta     90
_cell_angle_gamma    90

_symmetry_Int_Tables_number  62
_chemical_formula_structural  SrLiSb
_chemical_formula_sum  Sr4Li4Sb4
_cell_volume  326.41215188935513
_cell_formula_units_Z  4
loop_
  _symmetry_equiv_pos_site_id
 _symmetry_equiv_pos_as_xyz
 1  'x, y, z'
loop_
 _atom_site_type_symbol
 _atom_site_label
 _atom_site_symmetry_multiplicity
 _atom_site_fract_x
 _atom_site_fract_y
 _atom_site_fract_z
 _atom_site_fract_occupancy
 Li  Li1  1  0.75000  0.83942  0.92409  1
 Li  Li2  1  0.25000  0.16058  0.07591  1
 Li  Li3  1  0.75000  0.33942  0.57591  1
 Li  Li4  1  0.25000  0.66058  0.42409  1
 Sb  Sb1  1  0.25000  0.77661  0.09306  1
 Sb  Sb2  1  0.75000  0.22339  0.90694  1
 Sb  Sb3  1  0.25000  0.27661  0.40694  1
 Sb  Sb4  1  0.75000  0.72339  0.59306  1
 Sr  Sr1  1  0.75000  0.99683  0.29178  1
 Sr  Sr2  1  0.25000  0.00317  0.70822  1
 Sr  Sr3  1  0.75000  0.49683  0.20822  1
 Sr  Sr4  1  0.25000  0.50317  0.79178  1
