CIF file written using JARVIS-Tools package.
data_Na6MgO4
_symmetry_space_group_name_H-M  'P4_2/nmc'
_cell_length_a       7.4343
_cell_length_b       7.4343
_cell_length_c       5.46688
_cell_angle_alpha    90
_cell_angle_beta     90
_cell_angle_gamma    90

_symmetry_Int_Tables_number  137
_chemical_formula_structural  Na6MgO4
_chemical_formula_sum  Na2Mg2O8
_cell_volume  302.1483323546687
_cell_formula_units_Z  2
loop_
  _symmetry_equiv_pos_site_id
 _symmetry_equiv_pos_as_xyz
 1  'x, y, z'
loop_
 _atom_site_type_symbol
 _atom_site_label
 _atom_site_symmetry_multiplicity
 _atom_site_fract_x
 _atom_site_fract_y
 _atom_site_fract_z
 _atom_site_fract_occupancy
 Mg  Mg1  1  0.50000  0.50000  0.50000  1
 Mg  Mg2  1  0.00000  0.00000  0.00000  1
 Na  Na1  1  0.78761  0.78761  0.50000  1
 Na  Na2  1  0.21239  0.21239  0.50000  1
 Na  Na3  1  0.50000  0.00000  0.41320  1
 Na  Na4  1  0.50000  0.00000  0.91320  1
 Na  Na5  1  0.78761  0.21239  0.50000  1
 Na  Na6  1  0.21239  0.78761  0.50000  1
 Na  Na7  1  0.28761  0.28761  0.00000  1
 Na  Na8  1  0.71239  0.28761  0.00000  1
 Na  Na9  1  0.00000  0.50000  0.08680  1
 Na  Na10  1  0.00000  0.50000  0.58680  1
 Na  Na11  1  0.71239  0.71239  0.00000  1
 Na  Na12  1  0.28761  0.71239  0.00000  1
 O  O1  1  0.25800  0.50000  0.31688  1
 O  O2  1  0.74200  0.50000  0.31688  1
 O  O3  1  0.50000  0.74200  0.68312  1
 O  O4  1  0.24200  0.00000  0.18312  1
 O  O5  1  0.75800  0.00000  0.18312  1
 O  O6  1  0.50000  0.25800  0.68312  1
 O  O7  1  0.00000  0.24200  0.81688  1
 O  O8  1  0.00000  0.75800  0.81688  1
