CIF file written using JARVIS-Tools package.
data_Ba3Ti3O8
_symmetry_space_group_name_H-M  'C2/m'
_cell_length_a       5.76967
_cell_length_b       5.76967
_cell_length_c       7.01175
_cell_angle_alpha    88.6208
_cell_angle_beta     91.3792
_cell_angle_gamma    121.093

_symmetry_Int_Tables_number  12
_chemical_formula_structural  Ba3Ti3O8
_chemical_formula_sum  Ba3Ti3O8
_cell_volume  199.8040713373643
_cell_formula_units_Z  1
loop_
  _symmetry_equiv_pos_site_id
 _symmetry_equiv_pos_as_xyz
 1  'x, y, z'
loop_
 _atom_site_type_symbol
 _atom_site_label
 _atom_site_symmetry_multiplicity
 _atom_site_fract_x
 _atom_site_fract_y
 _atom_site_fract_z
 _atom_site_fract_occupancy
 Ba  Ba1  1  0.00157  0.99843  0.00133  1
 Ba  Ba2  1  0.33176  0.66824  0.66534  1
 Ba  Ba3  1  0.66667  0.33333  0.33334  1
 O  O1  1  0.00184  0.50581  0.00633  1
 O  O2  1  0.16667  0.33333  0.33334  1
 O  O3  1  0.49419  0.99816  0.00633  1
 O  O4  1  0.66667  0.83333  0.33334  1
 O  O5  1  0.33150  0.16086  0.66034  1
 O  O6  1  0.50021  0.49979  0.99327  1
 O  O7  1  0.83914  0.66850  0.66034  1
 O  O8  1  0.83312  0.16688  0.67340  1
 Ti  Ti1  1  0.98457  0.01543  0.51775  1
 Ti  Ti2  1  0.34877  0.65123  0.14892  1
 Ti  Ti3  1  0.66667  0.33333  0.83334  1
