CIF file written using JARVIS-Tools package.
data_Li3Mn3O8
_symmetry_space_group_name_H-M  'R-3m'
_cell_length_a       5.78562
_cell_length_b       5.78563
_cell_length_c       5.78563
_cell_angle_alpha    59.129
_cell_angle_beta     59.129
_cell_angle_gamma    59.129

_symmetry_Int_Tables_number  166
_chemical_formula_structural  Li3Mn3O8
_chemical_formula_sum  Li3Mn3O8
_cell_volume  134.22290340687212
_cell_formula_units_Z  1
loop_
  _symmetry_equiv_pos_site_id
 _symmetry_equiv_pos_as_xyz
 1  'x, y, z'
loop_
 _atom_site_type_symbol
 _atom_site_label
 _atom_site_symmetry_multiplicity
 _atom_site_fract_x
 _atom_site_fract_y
 _atom_site_fract_z
 _atom_site_fract_occupancy
 Li  Li1  1  0.00455  0.00455  0.00455  1
 Li  Li2  1  0.24545  0.24545  0.24545  1
 Li  Li3  1  0.62500  0.62500  0.62500  1
 Mn  Mn1  1  0.12500  0.62500  0.62500  1
 Mn  Mn2  1  0.62500  0.12500  0.62500  1
 Mn  Mn3  1  0.62500  0.62500  0.12500  1
 O  O1  1  0.38558  0.38558  0.38558  1
 O  O2  1  0.37548  0.37548  0.83474  1
 O  O3  1  0.37548  0.83474  0.37548  1
 O  O4  1  0.83474  0.37548  0.37548  1
 O  O5  1  0.41526  0.87452  0.87452  1
 O  O6  1  0.87452  0.87452  0.41526  1
 O  O7  1  0.87452  0.41526  0.87452  1
 O  O8  1  0.86442  0.86442  0.86442  1
