CIF file written using JARVIS-Tools package.
data_MgTi2O5
_symmetry_space_group_name_H-M  'Cmcm'
_cell_length_a       3.72551
_cell_length_b       5.36613
_cell_length_c       11.39
_cell_angle_alpha    90
_cell_angle_beta     90
_cell_angle_gamma    110.312

_symmetry_Int_Tables_number  63
_chemical_formula_structural  MgTi2O5
_chemical_formula_sum  Mg2Ti4O0
_cell_volume  213.54423688982308
_cell_formula_units_Z  2
loop_
  _symmetry_equiv_pos_site_id
 _symmetry_equiv_pos_as_xyz
 1  'x, y, z'
loop_
 _atom_site_type_symbol
 _atom_site_label
 _atom_site_symmetry_multiplicity
 _atom_site_fract_x
 _atom_site_fract_y
 _atom_site_fract_z
 _atom_site_fract_occupancy
 Mg  Mg1  1  0.89490  0.78980  0.75000  1
 Mg  Mg2  1  0.10510  0.21020  0.25000  1
 O  O1  1  0.70129  0.40257  0.25000  1
 O  O2  1  0.29872  0.59743  0.75000  1
 O  O3  1  0.23930  0.47860  0.07760  1
 O  O4  1  0.76070  0.52140  0.92240  1
 O  O5  1  0.76070  0.52140  0.57760  1
 O  O6  1  0.23930  0.47860  0.42240  1
 O  O7  1  0.03659  0.07319  0.62830  1
 O  O8  1  0.96341  0.92681  0.37170  1
 O  O9  1  0.03659  0.07319  0.87170  1
 O  O10  1  0.96341  0.92681  0.12830  1
 Ti  Ti1  1  0.20151  0.40302  0.59798  1
 Ti  Ti2  1  0.79849  0.59698  0.40202  1
 Ti  Ti3  1  0.79849  0.59698  0.09798  1
 Ti  Ti4  1  0.20151  0.40302  0.90202  1
