data_image0
_chemical_formula_structural       Al2B2O6
_chemical_formula_sum              "Al2 B2 O6"
_cell_length_a       4.46696
_cell_length_b       4.46696
_cell_length_c       5.24152
_cell_angle_alpha    115.221
_cell_angle_beta     115.221
_cell_angle_gamma    60

_space_group_name_H-M_alt    "P 1"
_space_group_IT_number       1

loop_
  _space_group_symop_operation_xyz
  'x, y, z'

loop_
  _atom_site_type_symbol
  _atom_site_label
  _atom_site_symmetry_multiplicity
  _atom_site_fract_x
  _atom_site_fract_y
  _atom_site_fract_z
  _atom_site_occupancy
  Al  Al1       1.0  0.00000  0.00000  0.00000  1.0000
  Al  Al2       1.0  0.50000  0.50000  0.50000  1.0000
  B   B1        1.0  0.75000  0.75000  0.25000  1.0000
  B   B2        1.0  0.25000  0.25000  0.75000  1.0000
  O   O1        1.0  0.75000  0.05920  0.25000  1.0000
  O   O2        1.0  0.05920  0.44100  0.25000  1.0000
  O   O3        1.0  0.44100  0.75000  0.25000  1.0000
  O   O4        1.0  0.55900  0.25000  0.75000  1.0000
  O   O5        1.0  0.94100  0.55900  0.75000  1.0000
  O   O6        1.0  0.25000  0.94100  0.75000  1.0000
