CIF file written using JARVIS-Tools package.
data_AlMoO3
_symmetry_space_group_name_H-M  'Pnma'
_cell_length_a       5.15728
_cell_length_b       5.16535
_cell_length_c       8.02392
_cell_angle_alpha    90
_cell_angle_beta     90
_cell_angle_gamma    90

_symmetry_Int_Tables_number  62
_chemical_formula_structural  AlMoO3
_chemical_formula_sum  Al4Mo4O2
_cell_volume  213.75029160742594
_cell_formula_units_Z  4
loop_
  _symmetry_equiv_pos_site_id
 _symmetry_equiv_pos_as_xyz
 1  'x, y, z'
loop_
 _atom_site_type_symbol
 _atom_site_label
 _atom_site_symmetry_multiplicity
 _atom_site_fract_x
 _atom_site_fract_y
 _atom_site_fract_z
 _atom_site_fract_occupancy
 Al  Al1  1  -0.00031  0.97032  0.25000  1
 Al  Al2  1  0.50031  0.47032  0.75000  1
 Al  Al3  1  0.49969  0.52968  0.25000  1
 Al  Al4  1  0.00031  0.02968  0.75000  1
 Mo  Mo1  1  0.50000  0.00000  0.50000  1
 Mo  Mo2  1  0.00000  0.50000  0.50000  1
 Mo  Mo3  1  0.00000  0.50000  0.00000  1
 Mo  Mo4  1  0.50000  0.00000  0.00000  1
 O  O1  1  0.65167  0.64997  0.58648  1
 O  O2  1  0.15325  0.36001  0.75000  1
 O  O3  1  0.15167  0.85003  0.91352  1
 O  O4  1  0.34833  0.35003  0.08648  1
 O  O5  1  0.84833  0.14997  0.41352  1
 O  O6  1  0.65325  0.13999  0.75000  1
 O  O7  1  0.84833  0.14997  0.08648  1
 O  O8  1  0.65167  0.64997  0.91352  1
 O  O9  1  0.34833  0.35003  0.41352  1
 O  O10  1  0.84675  0.63999  0.25000  1
 O  O11  1  0.15167  0.85003  0.58648  1
 O  O12  1  0.34675  0.86001  0.25000  1
