CIF file written using JARVIS-Tools package.
data_KCoCl3
_symmetry_space_group_name_H-M  'R-3c'
_cell_length_a       6.73149
_cell_length_b       6.73149
_cell_length_c       6.73148
_cell_angle_alpha    61.0179
_cell_angle_beta     61.0179
_cell_angle_gamma    61.0179

_symmetry_Int_Tables_number  167
_chemical_formula_structural  KCoCl3
_chemical_formula_sum  K2Co2Cl6
_cell_volume  220.62870082787944
_cell_formula_units_Z  2
loop_
  _symmetry_equiv_pos_site_id
 _symmetry_equiv_pos_as_xyz
 1  'x, y, z'
loop_
 _atom_site_type_symbol
 _atom_site_label
 _atom_site_symmetry_multiplicity
 _atom_site_fract_x
 _atom_site_fract_y
 _atom_site_fract_z
 _atom_site_fract_occupancy
 Cl  Cl1  1  0.25573  0.80468  0.70671  1
 Cl  Cl2  1  0.80468  0.70671  0.25573  1
 Cl  Cl3  1  0.70671  0.25573  0.80468  1
 Cl  Cl4  1  0.20671  0.30468  0.75573  1
 Cl  Cl5  1  0.75573  0.20671  0.30468  1
 Cl  Cl6  1  0.30468  0.75573  0.20671  1
 Co  Co1  1  0.00568  0.00568  0.00568  1
 Co  Co2  1  0.50568  0.50568  0.50568  1
 K  K1  1  0.25570  0.25570  0.25570  1
 K  K2  1  0.75570  0.75570  0.75570  1
