CIF file written using JARVIS-Tools package.
data_MgCo2S4
_symmetry_space_group_name_H-M  'Fd-3m'
_cell_length_a       6.91889
_cell_length_b       6.91885
_cell_length_c       6.91881
_cell_angle_alpha    60.0007
_cell_angle_beta     60.0007
_cell_angle_gamma    60.0011

_symmetry_Int_Tables_number  227
_chemical_formula_structural  MgCo2S4
_chemical_formula_sum  Mg2Co4S8
_cell_volume  234.20495948572912
_cell_formula_units_Z  2
loop_
  _symmetry_equiv_pos_site_id
 _symmetry_equiv_pos_as_xyz
 1  'x, y, z'
loop_
 _atom_site_type_symbol
 _atom_site_label
 _atom_site_symmetry_multiplicity
 _atom_site_fract_x
 _atom_site_fract_y
 _atom_site_fract_z
 _atom_site_fract_occupancy
 Co  Co1  1  0.50000  0.50000  0.50000  1
 Co  Co2  1  0.50000  0.50000  0.00000  1
 Co  Co3  1  0.00000  0.50000  0.50000  1
 Co  Co4  1  0.50000  1.00000  0.50000  1
 Mg  Mg1  1  0.87501  0.87501  0.87500  1
 Mg  Mg2  1  0.12499  0.12499  0.12500  1
 S  S1  1  0.73240  0.73240  0.73240  1
 S  S2  1  0.26760  0.26760  0.69720  1
 S  S3  1  0.26761  0.69719  0.26760  1
 S  S4  1  0.69720  0.26760  0.26760  1
 S  S5  1  0.73239  0.30281  0.73240  1
 S  S6  1  0.30280  0.73240  0.73240  1
 S  S7  1  0.26760  0.26760  0.26760  1
 S  S8  1  0.73240  0.73240  0.30280  1
