CIF file written using JARVIS-Tools package.
data_CaCe2S4
_symmetry_space_group_name_H-M  'I-42d'
_cell_length_a       7.38316
_cell_length_b       7.38316
_cell_length_c       7.38316
_cell_angle_alpha    109.757
_cell_angle_beta     109.757
_cell_angle_gamma    108.901

_symmetry_Int_Tables_number  122
_chemical_formula_structural  CaCe2S4
_chemical_formula_sum  Ca2Ce4S8
_cell_volume  309.79334479323944
_cell_formula_units_Z  2
loop_
  _symmetry_equiv_pos_site_id
 _symmetry_equiv_pos_as_xyz
 1  'x, y, z'
loop_
 _atom_site_type_symbol
 _atom_site_label
 _atom_site_symmetry_multiplicity
 _atom_site_fract_x
 _atom_site_fract_y
 _atom_site_fract_z
 _atom_site_fract_occupancy
 Ca  Ca1  1  0.62500  0.37500  0.25000  1
 Ca  Ca2  1  0.87500  0.12500  0.75000  1
 Ce  Ce1  1  0.12321  0.75000  0.87321  1
 Ce  Ce2  1  0.25000  0.62321  0.37321  1
 Ce  Ce3  1  0.37679  0.25000  0.62679  1
 Ce  Ce4  1  0.75000  0.87679  0.12679  1
 S  S1  1  0.00244  0.85683  0.50262  1
 S  S2  1  -0.00018  0.35421  0.49738  1
 S  S3  1  0.14317  0.14579  0.14561  1
 S  S4  1  0.35683  0.50244  0.00262  1
 S  S5  1  0.64579  0.64317  0.64561  1
 S  S6  1  0.49756  0.00018  0.85439  1
 S  S7  1  0.50018  0.99756  0.35439  1
 S  S8  1  0.85421  0.49982  0.99738  1
