CIF file written using JARVIS-Tools package.
data_LiCu2Pd
_symmetry_space_group_name_H-M  'Immm'
_cell_length_a       9.72885
_cell_length_b       8.45798
_cell_length_c       8.45798
_cell_angle_alpha    57.7745
_cell_angle_beta     54.8913
_cell_angle_gamma    54.8914

_symmetry_Int_Tables_number  71
_chemical_formula_structural  LiCu2Pd
_chemical_formula_sum  LiCu2Pd
_cell_volume  443.9367778367935
_cell_formula_units_Z  1
loop_
  _symmetry_equiv_pos_site_id
 _symmetry_equiv_pos_as_xyz
 1  'x, y, z'
loop_
 _atom_site_type_symbol
 _atom_site_label
 _atom_site_symmetry_multiplicity
 _atom_site_fract_x
 _atom_site_fract_y
 _atom_site_fract_z
 _atom_site_fract_occupancy
 Cu  Cu1  1  0.74440  0.00000  0.00000  1
 Cu  Cu2  1  0.25560  -0.00000  -0.00000  1
 Li  Li1  1  0.00000  0.00000  0.00000  1
 Pd  Pd1  1  0.50000  -0.00000  -0.00000  1
