CIF file written using JARVIS-Tools package.
data_Ca2Ru2O7
_symmetry_space_group_name_H-M  'Fd-3m'
_cell_length_a       7.23318
_cell_length_b       7.23318
_cell_length_c       7.23319
_cell_angle_alpha    60
_cell_angle_beta     60
_cell_angle_gamma    60

_symmetry_Int_Tables_number  227
_chemical_formula_structural  Ca2Ru2O7
_chemical_formula_sum  Ca4Ru4O4
_cell_volume  267.59251940596977
_cell_formula_units_Z  2
loop_
  _symmetry_equiv_pos_site_id
 _symmetry_equiv_pos_as_xyz
 1  'x, y, z'
loop_
 _atom_site_type_symbol
 _atom_site_label
 _atom_site_symmetry_multiplicity
 _atom_site_fract_x
 _atom_site_fract_y
 _atom_site_fract_z
 _atom_site_fract_occupancy
 Ca  Ca1  1  0.50000  0.50000  0.50000  1
 Ca  Ca2  1  0.50000  0.50000  -0.00000  1
 Ca  Ca3  1  -0.00000  0.50000  0.50000  1
 Ca  Ca4  1  0.50000  0.00000  0.50000  1
 O  O1  1  0.93160  0.31840  0.31840  1
 O  O2  1  0.93160  0.31840  0.93160  1
 O  O3  1  0.31840  0.93160  0.31840  1
 O  O4  1  0.93160  0.93160  0.31840  1
 O  O5  1  0.06840  0.06840  0.68160  1
 O  O6  1  0.68160  0.68160  0.06840  1
 O  O7  1  0.68160  0.06840  0.06840  1
 O  O8  1  0.62500  0.62500  0.62500  1
 O  O9  1  0.68160  0.06840  0.68160  1
 O  O10  1  0.31840  0.93160  0.93160  1
 O  O11  1  0.06840  0.68160  0.06840  1
 O  O12  1  0.37500  0.37500  0.37500  1
 O  O13  1  0.06840  0.68160  0.68160  1
 O  O14  1  0.31840  0.31840  0.93160  1
 Ru  Ru1  1  -0.00000  0.50000  -0.00000  1
 Ru  Ru2  1  0.00000  0.00000  0.50000  1
 Ru  Ru3  1  0.00000  0.00000  0.00000  1
 Ru  Ru4  1  0.50000  0.00000  -0.00000  1
