CIF file written using JARVIS-Tools package.
data_FeSbS
_symmetry_space_group_name_H-M  'P2_1/c'
_cell_length_a       6.06054
_cell_length_b       5.9441
_cell_length_c       6.07797
_cell_angle_alpha    90
_cell_angle_beta     112.648
_cell_angle_gamma    90

_symmetry_Int_Tables_number  14
_chemical_formula_structural  FeSbS
_chemical_formula_sum  Fe4Sb4S4
_cell_volume  202.0717862172761
_cell_formula_units_Z  4
loop_
  _symmetry_equiv_pos_site_id
 _symmetry_equiv_pos_as_xyz
 1  'x, y, z'
loop_
 _atom_site_type_symbol
 _atom_site_label
 _atom_site_symmetry_multiplicity
 _atom_site_fract_x
 _atom_site_fract_y
 _atom_site_fract_z
 _atom_site_fract_occupancy
 Fe  Fe1  1  0.69784  0.98302  0.69838  1
 Fe  Fe2  1  0.19784  0.51698  0.69838  1
 Fe  Fe3  1  0.30216  0.01698  0.30162  1
 Fe  Fe4  1  0.80216  0.48302  0.30162  1
 S  S1  1  0.16937  0.36094  0.35820  1
 S  S2  1  0.83063  0.63906  0.64180  1
 S  S3  1  0.33063  0.86094  0.64180  1
 S  S4  1  0.66937  0.13906  0.35820  1
 Sb  Sb1  1  0.63131  0.36644  0.85288  1
 Sb  Sb2  1  0.36869  0.63356  0.14712  1
 Sb  Sb3  1  0.13131  0.13356  0.85288  1
 Sb  Sb4  1  0.86869  0.86644  0.14712  1
