CIF file written using JARVIS-Tools package.
data_LiCoS2
_symmetry_space_group_name_H-M  'P-3m1'
_cell_length_a       3.41018
_cell_length_b       3.41024
_cell_length_c       5.62901
_cell_angle_alpha    90.0057
_cell_angle_beta     90.0052
_cell_angle_gamma    60.0008

_symmetry_Int_Tables_number  164
_chemical_formula_structural  LiCoS2
_chemical_formula_sum  LiCoS2
_cell_volume  56.6929572861061
_cell_formula_units_Z  1
loop_
  _symmetry_equiv_pos_site_id
 _symmetry_equiv_pos_as_xyz
 1  'x, y, z'
loop_
 _atom_site_type_symbol
 _atom_site_label
 _atom_site_symmetry_multiplicity
 _atom_site_fract_x
 _atom_site_fract_y
 _atom_site_fract_z
 _atom_site_fract_occupancy
 Co  Co1  1  0.50125  0.49071  0.50027  1
 Li  Li1  1  0.50125  0.49058  0.00030  1
 S  S1  1  0.83456  0.82401  0.29332  1
 S  S2  1  0.16792  0.15739  0.70722  1
