CIF file written using JARVIS-Tools package.
data_Na4TiO4
_symmetry_space_group_name_H-M  'P-1'
_cell_length_a       5.76227
_cell_length_b       5.77406
_cell_length_c       8.71568
_cell_angle_alpha    81.6625
_cell_angle_beta     71.4009
_cell_angle_gamma    68.362

_symmetry_Int_Tables_number  2
_chemical_formula_structural  Na4TiO4
_chemical_formula_sum  Na8Ti2O8
_cell_volume  255.34999923064132
_cell_formula_units_Z  2
loop_
  _symmetry_equiv_pos_site_id
 _symmetry_equiv_pos_as_xyz
 1  'x, y, z'
loop_
 _atom_site_type_symbol
 _atom_site_label
 _atom_site_symmetry_multiplicity
 _atom_site_fract_x
 _atom_site_fract_y
 _atom_site_fract_z
 _atom_site_fract_occupancy
 Na  Na1  1  0.74185  0.25734  0.48858  1
 Na  Na2  1  0.25815  0.74266  0.51142  1
 Na  Na3  1  0.44499  0.74217  0.10176  1
 Na  Na4  1  0.55501  0.25783  0.89824  1
 Na  Na5  1  0.97873  0.23395  0.06540  1
 Na  Na6  1  0.02127  0.76605  0.93460  1
 Na  Na7  1  0.88928  0.77271  0.31537  1
 Na  Na8  1  0.11072  0.22729  0.68463  1
 O  O1  1  0.79518  0.52350  0.87717  1
 O  O2  1  0.20482  0.47650  0.12283  1
 O  O3  1  0.33301  0.97290  0.86474  1
 O  O4  1  0.66699  0.02710  0.13526  1
 O  O5  1  0.64964  0.65788  0.56262  1
 O  O6  1  0.86529  0.97478  0.69515  1
 O  O7  1  0.35036  0.34212  0.43738  1
 O  O8  1  0.13471  0.02522  0.30485  1
 Ti  Ti1  1  0.65811  0.78022  0.74214  1
 Ti  Ti2  1  0.34189  0.21978  0.25786  1
