CIF file written using JARVIS-Tools package.
data_CaCo2O5
_symmetry_space_group_name_H-M  'Pmmn'
_cell_length_a       5.04365
_cell_length_b       3.45149
_cell_length_c       11.2186
_cell_angle_alpha    90
_cell_angle_beta     89.9993
_cell_angle_gamma    90

_symmetry_Int_Tables_number  59
_chemical_formula_structural  CaCo2O5
_chemical_formula_sum  Ca2Co4O0
_cell_volume  195.29507036434856
_cell_formula_units_Z  2
loop_
  _symmetry_equiv_pos_site_id
 _symmetry_equiv_pos_as_xyz
 1  'x, y, z'
loop_
 _atom_site_type_symbol
 _atom_site_label
 _atom_site_symmetry_multiplicity
 _atom_site_fract_x
 _atom_site_fract_y
 _atom_site_fract_z
 _atom_site_fract_occupancy
 Ca  Ca1  1  0.11267  0.50000  0.25000  1
 Ca  Ca2  1  0.88733  0.00000  0.75000  1
 Co  Co1  1  0.58411  0.00000  0.09853  1
 Co  Co2  1  0.41590  0.50000  0.90147  1
 Co  Co3  1  0.41590  0.50000  0.59853  1
 Co  Co4  1  0.58410  0.00000  0.40147  1
 O  O1  1  0.54875  0.50000  0.75000  1
 O  O2  1  0.45125  0.00000  0.25000  1
 O  O3  1  0.40821  0.50000  0.06917  1
 O  O4  1  0.59180  0.00000  0.93083  1
 O  O5  1  0.40819  0.50000  0.43083  1
 O  O6  1  0.59180  0.00000  0.56917  1
 O  O7  1  0.91590  0.00000  0.36955  1
 O  O8  1  0.08409  0.50000  0.63045  1
 O  O9  1  0.08409  0.50000  0.86956  1
 O  O10  1  0.91591  0.00000  0.13044  1
