CIF file written using JARVIS-Tools package.
data_MgV2O5
_symmetry_space_group_name_H-M  'Pmmn'
_cell_length_a       4.8379
_cell_length_b       3.37715
_cell_length_c       11.4967
_cell_angle_alpha    90
_cell_angle_beta     90.0006
_cell_angle_gamma    90

_symmetry_Int_Tables_number  59
_chemical_formula_structural  MgV2O5
_chemical_formula_sum  Mg2V4O0
_cell_volume  187.83684250155278
_cell_formula_units_Z  2
loop_
  _symmetry_equiv_pos_site_id
 _symmetry_equiv_pos_as_xyz
 1  'x, y, z'
loop_
 _atom_site_type_symbol
 _atom_site_label
 _atom_site_symmetry_multiplicity
 _atom_site_fract_x
 _atom_site_fract_y
 _atom_site_fract_z
 _atom_site_fract_occupancy
 Mg  Mg1  1  0.17917  0.50000  0.25002  1
 Mg  Mg2  1  0.82083  0.00000  0.75002  1
 O  O1  1  0.56323  0.50000  0.75000  1
 O  O2  1  0.43678  0.00000  0.25000  1
 O  O3  1  0.43380  0.50000  0.07501  1
 O  O4  1  0.56621  0.00000  0.92498  1
 O  O5  1  0.43380  0.50000  0.42498  1
 O  O6  1  0.56620  0.00000  0.57501  1
 O  O7  1  0.94916  0.00000  0.36550  1
 O  O8  1  0.05085  0.50000  0.63449  1
 O  O9  1  0.05084  0.50000  0.86549  1
 O  O10  1  0.94915  0.00000  0.13450  1
 V  V1  1  0.61364  0.00000  0.09874  1
 V  V2  1  0.38635  0.50000  0.90126  1
 V  V3  1  0.38636  0.50000  0.59874  1
 V  V4  1  0.61365  0.00000  0.40126  1
