CIF file written using JARVIS-Tools package.
data_YHfPd2
_symmetry_space_group_name_H-M  'Immm'
_cell_length_a       10.4391
_cell_length_b       6.04355
_cell_length_c       6.04354
_cell_angle_alpha    29.3642
_cell_angle_beta     30.2707
_cell_angle_gamma    30.2708

_symmetry_Int_Tables_number  71
_chemical_formula_structural  YHfPd2
_chemical_formula_sum  YHfPd2
_cell_volume  84.21644713901686
_cell_formula_units_Z  1
loop_
  _symmetry_equiv_pos_site_id
 _symmetry_equiv_pos_as_xyz
 1  'x, y, z'
loop_
 _atom_site_type_symbol
 _atom_site_label
 _atom_site_symmetry_multiplicity
 _atom_site_fract_x
 _atom_site_fract_y
 _atom_site_fract_z
 _atom_site_fract_occupancy
 Hf  Hf1  1  0.50000  0.00000  -0.00000  1
 Pd  Pd1  1  0.73840  0.00000  0.00000  1
 Pd  Pd2  1  0.26160  -0.00000  -0.00000  1
 Y  Y1  1  0.00000  0.00000  0.00000  1
