CIF file written using JARVIS-Tools package.
data_Te4Mo3WS4
_symmetry_space_group_name_H-M  'P3m1'
_cell_length_a       3.37108
_cell_length_b       3.37108
_cell_length_c       35.7658
_cell_angle_alpha    90.0007
_cell_angle_beta     90
_cell_angle_gamma    120

_symmetry_Int_Tables_number  156
_chemical_formula_structural  Te4Mo3WS4
_chemical_formula_sum  Te4Mo3WS4
_cell_volume  351.9956492859693
_cell_formula_units_Z  1
loop_
  _symmetry_equiv_pos_site_id
 _symmetry_equiv_pos_as_xyz
 1  'x, y, z'
loop_
 _atom_site_type_symbol
 _atom_site_label
 _atom_site_symmetry_multiplicity
 _atom_site_fract_x
 _atom_site_fract_y
 _atom_site_fract_z
 _atom_site_fract_occupancy
 Mo  Mo1  1  0.33328  0.66656  0.10321  1
 Mo  Mo2  1  0.66663  0.33327  0.27331  1
 Mo  Mo3  1  0.66675  0.33350  0.66611  1
 S  S1  1  0.33320  0.66640  0.31556  1
 S  S2  1  0.66662  0.33324  0.06094  1
 S  S3  1  0.66660  0.33320  0.14551  1
 S  S4  1  0.33340  0.66679  0.23106  1
 Te  Te1  1  0.33352  0.66704  0.71887  1
 Te  Te2  1  0.66662  0.33324  0.40713  1
 Te  Te3  1  0.66672  0.33343  0.51349  1
 Te  Te4  1  0.33332  0.66665  0.61324  1
 W  W1  1  0.33334  0.66668  0.46032  1
