CIF file written using JARVIS-Tools package.
data_SnGe2O6
_symmetry_space_group_name_H-M  'C2/c'
_cell_length_a       5.6137
_cell_length_b       6.79127
_cell_length_c       6.79128
_cell_angle_alpha    84.6272
_cell_angle_beta     75.8745
_cell_angle_gamma    75.8744

_symmetry_Int_Tables_number  15
_chemical_formula_structural  SnGe2O6
_chemical_formula_sum  Sn2Ge4O2
_cell_volume  243.33155805417917
_cell_formula_units_Z  2
loop_
  _symmetry_equiv_pos_site_id
 _symmetry_equiv_pos_as_xyz
 1  'x, y, z'
loop_
 _atom_site_type_symbol
 _atom_site_label
 _atom_site_symmetry_multiplicity
 _atom_site_fract_x
 _atom_site_fract_y
 _atom_site_fract_z
 _atom_site_fract_occupancy
 Ge  Ge1  1  0.73566  0.39224  0.21653  1
 Ge  Ge2  1  0.76434  0.78347  0.60776  1
 Ge  Ge3  1  0.26434  0.60776  0.78347  1
 Ge  Ge4  1  0.23566  0.21653  0.39224  1
 O  O1  1  0.67919  0.62372  0.08014  1
 O  O2  1  0.47191  0.34467  0.39864  1
 O  O3  1  0.02809  0.60136  0.65533  1
 O  O4  1  0.13877  0.81593  0.95745  1
 O  O5  1  -0.02809  0.39864  0.34467  1
 O  O6  1  0.52809  0.65533  0.60136  1
 O  O7  1  0.36123  0.04255  0.18407  1
 O  O8  1  0.82081  0.91986  0.37628  1
 O  O9  1  0.17919  0.08014  0.62372  1
 O  O10  1  0.86123  0.18407  0.04255  1
 O  O11  1  0.63877  0.95745  0.81593  1
 O  O12  1  0.32081  0.37628  0.91986  1
 Sn  Sn1  1  0.25000  0.10344  0.89656  1
 Sn  Sn2  1  0.75000  0.89656  0.10344  1
