CIF file written using JARVIS-Tools package.
data_BaBr2O6
_symmetry_space_group_name_H-M  'C2/c'
_cell_length_a       7.3696
_cell_length_b       7.3696
_cell_length_c       7.64074
_cell_angle_alpha    100.355
_cell_angle_beta     109.889
_cell_angle_gamma    117.447

_symmetry_Int_Tables_number  15
_chemical_formula_structural  BaBr2O6
_chemical_formula_sum  Ba2Br4O2
_cell_volume  316.88930957338937
_cell_formula_units_Z  2
loop_
  _symmetry_equiv_pos_site_id
 _symmetry_equiv_pos_as_xyz
 1  'x, y, z'
loop_
 _atom_site_type_symbol
 _atom_site_label
 _atom_site_symmetry_multiplicity
 _atom_site_fract_x
 _atom_site_fract_y
 _atom_site_fract_z
 _atom_site_fract_occupancy
 Ba  Ba1  1  0.87936  0.12936  0.75000  1
 Ba  Ba2  1  0.12064  0.87064  0.25000  1
 Br  Br1  1  0.51993  0.31769  0.82877  1
 Br  Br2  1  0.48007  0.68231  0.17123  1
 Br  Br3  1  0.01109  0.30885  0.32877  1
 Br  Br4  1  -0.01109  0.69115  0.67123  1
 O  O1  1  0.55627  0.92600  0.33393  1
 O  O2  1  0.09207  0.22235  0.16607  1
 O  O3  1  0.80386  0.41125  0.56798  1
 O  O4  1  0.89045  0.77144  0.48672  1
 O  O5  1  0.44373  0.07400  0.66607  1
 O  O6  1  0.78472  0.40373  0.01328  1
 O  O7  1  0.10955  0.22856  0.51328  1
 O  O8  1  0.19614  0.58875  0.43202  1
 O  O9  1  0.21528  0.59627  -0.01328  1
 O  O10  1  0.34328  0.23588  0.93202  1
 O  O11  1  0.90793  0.77765  0.83393  1
 O  O12  1  0.65672  0.76412  0.06798  1
