CIF file written using JARVIS-Tools package.
data_Fe2CuO4
_symmetry_space_group_name_H-M  'Imma'
_cell_length_a       6.00496
_cell_length_b       6.00495
_cell_length_c       5.79263
_cell_angle_alpha    61.1628
_cell_angle_beta     61.1628
_cell_angle_gamma    57.1355

_symmetry_Int_Tables_number  74
_chemical_formula_structural  Fe2CuO4
_chemical_formula_sum  Fe4Cu2O8
_cell_volume  146.623713781589
_cell_formula_units_Z  2
loop_
  _symmetry_equiv_pos_site_id
 _symmetry_equiv_pos_as_xyz
 1  'x, y, z'
loop_
 _atom_site_type_symbol
 _atom_site_label
 _atom_site_symmetry_multiplicity
 _atom_site_fract_x
 _atom_site_fract_y
 _atom_site_fract_z
 _atom_site_fract_occupancy
 Cu  Cu1  1  0.62500  0.62500  0.12500  1
 Cu  Cu2  1  0.62500  0.62500  0.62500  1
 Fe  Fe1  1  0.01012  0.01012  0.98988  1
 Fe  Fe2  1  0.23988  0.23988  0.26012  1
 Fe  Fe3  1  0.12500  0.62500  0.62500  1
 Fe  Fe4  1  0.62500  0.12500  0.62500  1
 O  O1  1  0.35872  0.35872  0.40517  1
 O  O2  1  0.37687  0.84808  0.38752  1
 O  O3  1  0.35872  0.35872  0.87738  1
 O  O4  1  0.84808  0.37687  0.38752  1
 O  O5  1  0.40192  0.87313  0.86248  1
 O  O6  1  0.87313  0.40192  0.86248  1
 O  O7  1  0.89128  0.89128  0.37262  1
 O  O8  1  0.89128  0.89128  0.84483  1
