CIF file written using JARVIS-Tools package.
data_SrCl2O4
_symmetry_space_group_name_H-M  'Ccce'
_cell_length_a       5.95336
_cell_length_b       5.98404
_cell_length_c       6.91944
_cell_angle_alpha    115.62
_cell_angle_beta     90
_cell_angle_gamma    90

_symmetry_Int_Tables_number  68
_chemical_formula_structural  SrCl2O4
_chemical_formula_sum  Sr2Cl4O8
_cell_volume  222.26910315571266
_cell_formula_units_Z  2
loop_
  _symmetry_equiv_pos_site_id
 _symmetry_equiv_pos_as_xyz
 1  'x, y, z'
loop_
 _atom_site_type_symbol
 _atom_site_label
 _atom_site_symmetry_multiplicity
 _atom_site_fract_x
 _atom_site_fract_y
 _atom_site_fract_z
 _atom_site_fract_occupancy
 Cl  Cl1  1  0.25000  0.07250  0.14500  1
 Cl  Cl2  1  0.25000  0.42750  0.85500  1
 Cl  Cl3  1  0.75000  0.57250  0.14500  1
 Cl  Cl4  1  0.75000  0.92750  0.85500  1
 O  O1  1  0.59652  0.48784  0.28874  1
 O  O2  1  0.09652  0.30091  0.28874  1
 O  O3  1  0.90348  0.69909  0.71126  1
 O  O4  1  0.40348  0.51216  0.71126  1
 O  O5  1  0.90348  0.80091  0.28874  1
 O  O6  1  0.59652  0.01216  0.71126  1
 O  O7  1  0.40348  0.98784  0.28874  1
 O  O8  1  0.09652  0.19909  0.71126  1
 Sr  Sr1  1  0.75000  0.25000  0.50000  1
 Sr  Sr2  1  0.25000  0.75000  0.50000  1
