CIF file written using JARVIS-Tools package.
data_TeW2Se2S
_symmetry_space_group_name_H-M  'P3m1'
_cell_length_a       3.34732
_cell_length_b       3.34733
_cell_length_c       36.1338
_cell_angle_alpha    89.9967
_cell_angle_beta     90
_cell_angle_gamma    120

_symmetry_Int_Tables_number  156
_chemical_formula_structural  TeW2Se2S
_chemical_formula_sum  Te2W4Se4S2
_cell_volume  350.6244769973572
_cell_formula_units_Z  2
loop_
  _symmetry_equiv_pos_site_id
 _symmetry_equiv_pos_as_xyz
 1  'x, y, z'
loop_
 _atom_site_type_symbol
 _atom_site_label
 _atom_site_symmetry_multiplicity
 _atom_site_fract_x
 _atom_site_fract_y
 _atom_site_fract_z
 _atom_site_fract_occupancy
 S  S1  1  0.66667  0.33333  0.05633  1
 S  S2  1  0.66662  0.33324  0.14073  1
 Se  Se1  1  0.33334  0.66667  0.32112  1
 Se  Se2  1  0.33335  0.66670  0.70786  1
 Se  Se3  1  0.33335  0.66670  0.22839  1
 Se  Se4  1  0.33336  0.66673  0.61516  1
 Te  Te1  1  0.66668  0.33336  0.41521  1
 Te  Te2  1  0.66664  0.33327  0.52101  1
 W  W1  1  0.33331  0.66663  0.09851  1
 W  W2  1  0.33333  0.66666  0.46813  1
 W  W3  1  0.66667  0.33334  0.27476  1
 W  W4  1  0.66668  0.33337  0.66155  1
