CIF file written using JARVIS-Tools package.
data_Ba3BAsO3
_symmetry_space_group_name_H-M  'P6_3/mmc'
_cell_length_a       5.57545
_cell_length_b       5.57545
_cell_length_c       13.8458
_cell_angle_alpha    90
_cell_angle_beta     90
_cell_angle_gamma    120

_symmetry_Int_Tables_number  194
_chemical_formula_structural  Ba3BAsO3
_chemical_formula_sum  Ba6B2As2O6
_cell_volume  372.7411112390329
_cell_formula_units_Z  2
loop_
  _symmetry_equiv_pos_site_id
 _symmetry_equiv_pos_as_xyz
 1  'x, y, z'
loop_
 _atom_site_type_symbol
 _atom_site_label
 _atom_site_symmetry_multiplicity
 _atom_site_fract_x
 _atom_site_fract_y
 _atom_site_fract_z
 _atom_site_fract_occupancy
 As  As1  1  0.00000  0.00000  0.00000  1
 As  As2  1  0.00000  0.00000  0.50000  1
 B  B1  1  0.66667  0.33333  0.75000  1
 B  B2  1  0.33333  0.66667  0.25000  1
 Ba  Ba1  1  0.33333  0.66667  0.60063  1
 Ba  Ba2  1  0.00000  0.00000  0.75000  1
 Ba  Ba3  1  0.00000  0.00000  0.25000  1
 Ba  Ba4  1  0.66667  0.33333  0.10063  1
 Ba  Ba5  1  0.66667  0.33333  0.39937  1
 Ba  Ba6  1  0.33333  0.66667  0.89937  1
 O  O1  1  0.04420  0.52210  0.25000  1
 O  O2  1  0.52210  0.47790  0.75000  1
 O  O3  1  0.95580  0.47790  0.75000  1
 O  O4  1  0.47790  0.95580  0.25000  1
 O  O5  1  0.47790  0.52210  0.25000  1
 O  O6  1  0.52210  0.04420  0.75000  1
