CIF file written using JARVIS-Tools package.
data_MgCo2O4
_symmetry_space_group_name_H-M  'Cmcm'
_cell_length_a       2.8332
_cell_length_b       4.82993
_cell_length_c       9.36219
_cell_angle_alpha    90
_cell_angle_beta     90
_cell_angle_gamma    107.055

_symmetry_Int_Tables_number  63
_chemical_formula_structural  MgCo2O4
_chemical_formula_sum  Mg2Co4O8
_cell_volume  122.47952223394557
_cell_formula_units_Z  2
loop_
  _symmetry_equiv_pos_site_id
 _symmetry_equiv_pos_as_xyz
 1  'x, y, z'
loop_
 _atom_site_type_symbol
 _atom_site_label
 _atom_site_symmetry_multiplicity
 _atom_site_fract_x
 _atom_site_fract_y
 _atom_site_fract_z
 _atom_site_fract_occupancy
 Co  Co1  1  0.86396  0.72792  0.07107  1
 Co  Co2  1  0.13604  0.27208  0.92893  1
 Co  Co3  1  0.86396  0.72792  0.42893  1
 Co  Co4  1  0.13604  0.27208  0.57107  1
 Mg  Mg1  1  0.39072  0.78143  0.75000  1
 Mg  Mg2  1  0.60928  0.21857  0.25000  1
 O  O1  1  0.23087  0.46173  0.38909  1
 O  O2  1  0.76913  0.53827  0.61091  1
 O  O3  1  0.76913  0.53827  0.88909  1
 O  O4  1  0.23087  0.46173  0.11091  1
 O  O5  1  0.95736  0.91473  0.25000  1
 O  O6  1  0.04264  0.08527  0.75000  1
 O  O7  1  0.50000  0.00000  0.00000  1
 O  O8  1  0.50000  0.00000  0.50000  1
