CIF file written using JARVIS-Tools package.
data_Li4ZrO4
_symmetry_space_group_name_H-M  'Cmcm'
_cell_length_a       5.48341
_cell_length_b       5.48341
_cell_length_c       6.4299
_cell_angle_alpha    90
_cell_angle_beta     90
_cell_angle_gamma    96.6232

_symmetry_Int_Tables_number  63
_chemical_formula_structural  Li4ZrO4
_chemical_formula_sum  Li8Zr2O8
_cell_volume  192.04252791305706
_cell_formula_units_Z  2
loop_
  _symmetry_equiv_pos_site_id
 _symmetry_equiv_pos_as_xyz
 1  'x, y, z'
loop_
 _atom_site_type_symbol
 _atom_site_label
 _atom_site_symmetry_multiplicity
 _atom_site_fract_x
 _atom_site_fract_y
 _atom_site_fract_z
 _atom_site_fract_occupancy
 Li  Li1  1  0.15614  0.84386  0.00000  1
 Li  Li2  1  0.15614  0.84386  0.50000  1
 Li  Li3  1  0.60260  0.88763  0.25000  1
 Li  Li4  1  0.11237  0.39740  0.75000  1
 Li  Li5  1  0.88763  0.60260  0.25000  1
 Li  Li6  1  0.39740  0.11237  0.75000  1
 Li  Li7  1  0.84386  0.15614  0.00000  1
 Li  Li8  1  0.84386  0.15614  0.50000  1
 O  O1  1  0.79530  0.79530  0.48805  1
 O  O2  1  0.79530  0.79530  0.01195  1
 O  O3  1  0.20470  0.20470  0.98805  1
 O  O4  1  0.20470  0.20470  0.51195  1
 O  O5  1  0.72718  0.30325  0.75000  1
 O  O6  1  0.27282  0.69675  0.25000  1
 O  O7  1  0.69675  0.27282  0.25000  1
 O  O8  1  0.30325  0.72718  0.75000  1
 Zr  Zr1  1  0.65120  0.65120  0.75000  1
 Zr  Zr2  1  0.34880  0.34880  0.25000  1
