CIF file written using JARVIS-Tools package.
data_CoHgC4Se4N4
_symmetry_space_group_name_H-M  'I-4'
_cell_length_a       4.59561
_cell_length_b       8.30164
_cell_length_c       8.30164
_cell_angle_alpha    85.6062
_cell_angle_beta     73.9313
_cell_angle_gamma    73.9314

_symmetry_Int_Tables_number  82
_chemical_formula_structural  CoHgC4Se4N4
_chemical_formula_sum  CoHgC4Se4N4
_cell_volume  292.45177074358713
_cell_formula_units_Z  1
loop_
  _symmetry_equiv_pos_site_id
 _symmetry_equiv_pos_as_xyz
 1  'x, y, z'
loop_
 _atom_site_type_symbol
 _atom_site_label
 _atom_site_symmetry_multiplicity
 _atom_site_fract_x
 _atom_site_fract_y
 _atom_site_fract_z
 _atom_site_fract_occupancy
 C  C1  1  0.95767  0.20837  0.63775  1
 C  C2  1  0.40458  0.63775  0.79163  1
 C  C3  1  0.83396  0.36225  0.20837  1
 C  C4  1  0.80379  0.79163  0.36225  1
 Co  Co1  1  0.25000  0.50000  0.50000  1
 Hg  Hg1  1  0.00000  0.00000  0.00000  1
 N  N1  1  0.06245  0.32197  0.58616  1
 N  N2  1  0.35139  0.58616  0.67803  1
 N  N3  1  -0.02942  0.67803  0.41384  1
 N  N4  1  0.61558  0.41384  0.32197  1
 Se  Se1  1  0.79983  0.03253  0.71438  1
 Se  Se2  1  0.48579  0.71438  0.96747  1
 Se  Se3  1  0.16764  0.28562  0.03253  1
 Se  Se4  1  0.54674  0.96747  0.28562  1
