CIF file written using JARVIS-Tools package.
data_Sc2TlOs
_symmetry_space_group_name_H-M  'Fm-3m'
_cell_length_a       11.698
_cell_length_b       8.27351
_cell_length_c       4.77611
_cell_angle_alpha    29.9895
_cell_angle_beta     35.2593
_cell_angle_gamma    19.4751

_symmetry_Int_Tables_number  225
_chemical_formula_structural  Sc2TlOs
_chemical_formula_sum  Sc2TlOs
_cell_volume  77.03200523648363
_cell_formula_units_Z  1
loop_
  _symmetry_equiv_pos_site_id
 _symmetry_equiv_pos_as_xyz
 1  'x, y, z'
loop_
 _atom_site_type_symbol
 _atom_site_label
 _atom_site_symmetry_multiplicity
 _atom_site_fract_x
 _atom_site_fract_y
 _atom_site_fract_z
 _atom_site_fract_occupancy
 Os  Os1  1  0.00000  0.00000  0.00000  1
 Sc  Sc1  1  0.75007  0.99991  0.00001  1
 Sc  Sc2  1  0.24993  0.00009  0.99999  1
 Tl  Tl1  1  0.50000  -0.00000  -0.00000  1
