CIF file written using JARVIS-Tools package.
data_MgSO4
_symmetry_space_group_name_H-M  'Pnma'
_cell_length_a       4.76254
_cell_length_b       6.6678
_cell_length_c       8.65115
_cell_angle_alpha    90
_cell_angle_beta     90
_cell_angle_gamma    90

_symmetry_Int_Tables_number  62
_chemical_formula_structural  MgSO4
_chemical_formula_sum  Mg4S4O6
_cell_volume  274.7226508409055
_cell_formula_units_Z  4
loop_
  _symmetry_equiv_pos_site_id
 _symmetry_equiv_pos_as_xyz
 1  'x, y, z'
loop_
 _atom_site_type_symbol
 _atom_site_label
 _atom_site_symmetry_multiplicity
 _atom_site_fract_x
 _atom_site_fract_y
 _atom_site_fract_z
 _atom_site_fract_occupancy
 Mg  Mg1  1  0.00000  0.00000  0.00000  1
 Mg  Mg2  1  0.50000  0.00000  0.50000  1
 Mg  Mg3  1  0.00000  0.50000  0.00000  1
 Mg  Mg4  1  0.50000  0.50000  0.50000  1
 O  O1  1  0.22510  0.75000  0.87455  1
 O  O2  1  0.72510  0.25000  0.62545  1
 O  O3  1  0.77490  0.25000  0.12545  1
 O  O4  1  0.83852  0.56711  0.37521  1
 O  O5  1  0.53982  0.75000  0.64730  1
 O  O6  1  0.03982  0.25000  0.85270  1
 O  O7  1  0.27490  0.75000  0.37455  1
 O  O8  1  0.96018  0.75000  0.14730  1
 O  O9  1  0.83852  0.93289  0.37521  1
 O  O10  1  0.16148  0.43289  0.62479  1
 O  O11  1  0.46018  0.25000  0.35270  1
 O  O12  1  0.66148  0.56711  0.87521  1
 O  O13  1  0.16148  0.06711  0.62479  1
 O  O14  1  0.66148  0.93289  0.87521  1
 O  O15  1  0.33852  0.06711  0.12479  1
 O  O16  1  0.33852  0.43289  0.12479  1
 S  S1  1  0.52303  0.75000  0.82107  1
 S  S2  1  0.02303  0.25000  0.67893  1
 S  S3  1  0.47697  0.25000  0.17893  1
 S  S4  1  0.97697  0.75000  0.32107  1
