CIF file written using JARVIS-Tools package.
data_MnZnF5
_symmetry_space_group_name_H-M  'P-1'
_cell_length_a       5.13257
_cell_length_b       5.42059
_cell_length_c       7.59404
_cell_angle_alpha    101.597
_cell_angle_beta     106.834
_cell_angle_gamma    110.218

_symmetry_Int_Tables_number  2
_chemical_formula_structural  MnZnF5
_chemical_formula_sum  Mn2Zn2F0
_cell_volume  178.7836964090847
_cell_formula_units_Z  2
loop_
  _symmetry_equiv_pos_site_id
 _symmetry_equiv_pos_as_xyz
 1  'x, y, z'
loop_
 _atom_site_type_symbol
 _atom_site_label
 _atom_site_symmetry_multiplicity
 _atom_site_fract_x
 _atom_site_fract_y
 _atom_site_fract_z
 _atom_site_fract_occupancy
 F  F1  1  0.88532  0.16509  0.76866  1
 F  F2  1  0.10864  0.83366  0.22968  1
 F  F3  1  0.33822  0.21568  0.61569  1
 F  F4  1  0.00110  0.71326  0.82472  1
 F  F5  1  0.59542  0.75921  0.95341  1
 F  F6  1  0.26031  0.69365  0.54923  1
 F  F7  1  0.39857  0.23958  0.04492  1
 F  F8  1  0.73362  0.30511  0.44910  1
 F  F9  1  0.99290  0.28552  0.17365  1
 F  F10  1  0.65576  0.78308  0.38265  1
 Mn  Mn1  1  0.99701  -0.00061  -0.00081  1
 Mn  Mn2  1  0.49700  -0.00062  0.49917  1
 Zn  Zn1  1  0.79130  0.51825  0.25927  1
 Zn  Zn2  1  0.20270  0.48051  0.73908  1
