CIF file written using JARVIS-Tools package.
data_TiGe2O6
_symmetry_space_group_name_H-M  'C2/c'
_cell_length_a       5.58871
_cell_length_b       6.74226
_cell_length_c       6.74227
_cell_angle_alpha    83.1511
_cell_angle_beta     75.3183
_cell_angle_gamma    75.3183

_symmetry_Int_Tables_number  15
_chemical_formula_structural  TiGe2O6
_chemical_formula_sum  Ti2Ge4O2
_cell_volume  237.32159837247292
_cell_formula_units_Z  2
loop_
  _symmetry_equiv_pos_site_id
 _symmetry_equiv_pos_as_xyz
 1  'x, y, z'
loop_
 _atom_site_type_symbol
 _atom_site_label
 _atom_site_symmetry_multiplicity
 _atom_site_fract_x
 _atom_site_fract_y
 _atom_site_fract_z
 _atom_site_fract_occupancy
 Ge  Ge1  1  0.75341  0.38065  0.20760  1
 Ge  Ge2  1  0.74659  0.79240  0.61935  1
 Ge  Ge3  1  0.24659  0.61935  0.79240  1
 Ge  Ge4  1  0.25341  0.20760  0.38065  1
 O  O1  1  0.74654  0.62895  0.08655  1
 O  O2  1  0.43440  0.39488  0.33623  1
 O  O3  1  0.06560  0.66377  0.60512  1
 O  O4  1  0.12667  0.82508  0.96290  1
 O  O5  1  -0.06560  0.33623  0.39488  1
 O  O6  1  0.56560  0.60512  0.66377  1
 O  O7  1  0.37333  0.03710  0.17492  1
 O  O8  1  0.75346  0.91345  0.37105  1
 O  O9  1  0.24654  0.08655  0.62895  1
 O  O10  1  0.87333  0.17492  0.03710  1
 O  O11  1  0.62667  0.96290  0.82508  1
 O  O12  1  0.25346  0.37105  0.91345  1
 Ti  Ti1  1  0.25000  0.10135  0.89865  1
 Ti  Ti2  1  0.75000  0.89865  0.10135  1
