CIF file written using JARVIS-Tools package.
data_TeMoWSe3
_symmetry_space_group_name_H-M  'P3m1'
_cell_length_a       3.38368
_cell_length_b       3.38369
_cell_length_c       36.0792
_cell_angle_alpha    90.0011
_cell_angle_beta     89.9996
_cell_angle_gamma    120

_symmetry_Int_Tables_number  156
_chemical_formula_structural  TeMoWSe3
_chemical_formula_sum  Te2Mo2W2Se6
_cell_volume  357.7413599166752
_cell_formula_units_Z  2
loop_
  _symmetry_equiv_pos_site_id
 _symmetry_equiv_pos_as_xyz
 1  'x, y, z'
loop_
 _atom_site_type_symbol
 _atom_site_label
 _atom_site_symmetry_multiplicity
 _atom_site_fract_x
 _atom_site_fract_y
 _atom_site_fract_z
 _atom_site_fract_occupancy
 Mo  Mo1  1  0.33333  0.66662  0.09035  1
 Mo  Mo2  1  0.66666  0.33332  0.28197  1
 Se  Se1  1  0.33334  0.66674  0.70223  1
 Se  Se2  1  0.66665  0.33326  0.04454  1
 Se  Se3  1  0.66667  0.33333  0.42829  1
 Se  Se4  1  0.66665  0.33328  0.13625  1
 Se  Se5  1  0.66668  0.33335  0.52046  1
 Se  Se6  1  0.33334  0.66672  0.61013  1
 Te  Te1  1  0.33333  0.66667  0.33419  1
 Te  Te2  1  0.33333  0.66664  0.22975  1
 W  W1  1  0.33334  0.66667  0.47439  1
 W  W2  1  0.66667  0.33339  0.65620  1
