CIF file written using JARVIS-Tools package.
data_TlHCO2
_symmetry_space_group_name_H-M  'Pnna'
_cell_length_a       5.76244
_cell_length_b       6.70878
_cell_length_c       8.01621
_cell_angle_alpha    90
_cell_angle_beta     90
_cell_angle_gamma    90

_symmetry_Int_Tables_number  52
_chemical_formula_structural  TlHCO2
_chemical_formula_sum  Tl4H4C4O8
_cell_volume  309.89838934101954
_cell_formula_units_Z  4
loop_
  _symmetry_equiv_pos_site_id
 _symmetry_equiv_pos_as_xyz
 1  'x, y, z'
loop_
 _atom_site_type_symbol
 _atom_site_label
 _atom_site_symmetry_multiplicity
 _atom_site_fract_x
 _atom_site_fract_y
 _atom_site_fract_z
 _atom_site_fract_occupancy
 C  C1  1  0.50004  0.07825  0.75911  1
 C  C2  1  0.49996  0.92175  0.25911  1
 C  C3  1  -0.00004  0.57825  0.75911  1
 C  C4  1  0.00004  0.42175  0.25911  1
 H  H1  1  0.50016  0.91224  0.75926  1
 H  H2  1  0.49984  0.08776  0.25926  1
 H  H3  1  0.00016  0.58776  0.25926  1
 H  H4  1  -0.00016  0.41224  0.75926  1
 O  O1  1  0.33734  0.83357  0.18187  1
 O  O2  1  0.16266  0.33357  0.18187  1
 O  O3  1  0.16267  0.66648  0.83619  1
 O  O4  1  0.66267  0.83352  0.33619  1
 O  O5  1  0.33733  0.16648  0.83619  1
 O  O6  1  0.66266  0.16643  0.68187  1
 O  O7  1  0.83734  0.66643  0.68187  1
 O  O8  1  0.83733  0.33352  0.33619  1
 Tl  Tl1  1  0.50383  0.49993  0.50909  1
 Tl  Tl2  1  0.00383  0.00007  0.00909  1
 Tl  Tl3  1  0.99617  -0.00007  0.50909  1
 Tl  Tl4  1  0.49617  0.50007  0.00909  1
