CIF file written using JARVIS-Tools package.
data_KCSN
_symmetry_space_group_name_H-M  'Pbcm'
_cell_length_a       6.64126
_cell_length_b       6.68488
_cell_length_c       7.38564
_cell_angle_alpha    90
_cell_angle_beta     90
_cell_angle_gamma    90

_symmetry_Int_Tables_number  57
_chemical_formula_structural  KCSN
_chemical_formula_sum  K4C4S4N4
_cell_volume  327.8929966322938
_cell_formula_units_Z  4
loop_
  _symmetry_equiv_pos_site_id
 _symmetry_equiv_pos_as_xyz
 1  'x, y, z'
loop_
 _atom_site_type_symbol
 _atom_site_label
 _atom_site_symmetry_multiplicity
 _atom_site_fract_x
 _atom_site_fract_y
 _atom_site_fract_z
 _atom_site_fract_occupancy
 C  C1  1  0.71227  0.23241  0.25000  1
 C  C2  1  0.78773  0.23241  0.75000  1
 C  C3  1  0.28773  0.76759  0.75000  1
 C  C4  1  0.21227  0.76759  0.25000  1
 K  K1  1  0.75000  0.80476  0.50000  1
 K  K2  1  0.25000  0.19524  0.00000  1
 K  K3  1  0.25000  0.19524  0.50000  1
 K  K4  1  0.75000  0.80476  0.00000  1
 N  N1  1  0.08239  0.89022  0.25000  1
 N  N2  1  0.41761  0.89022  0.75000  1
 N  N3  1  0.58239  0.10978  0.25000  1
 N  N4  1  0.91761  0.10978  0.75000  1
 S  S1  1  0.89037  0.39943  0.25000  1
 S  S2  1  0.60963  0.39943  0.75000  1
 S  S3  1  0.39037  0.60057  0.25000  1
 S  S4  1  0.10963  0.60057  0.75000  1
