CIF file written using JARVIS-Tools package.
data_LaRh
_symmetry_space_group_name_H-M  'Cmcm'
_cell_length_a       3.99439
_cell_length_b       4.2363
_cell_length_c       5.98355
_cell_angle_alpha    90
_cell_angle_beta     109.498
_cell_angle_gamma    90

_symmetry_Int_Tables_number  63
_chemical_formula_structural  LaRh
_chemical_formula_sum  La2Rh2
_cell_volume  95.44367310514889
_cell_formula_units_Z  2
loop_
  _symmetry_equiv_pos_site_id
 _symmetry_equiv_pos_as_xyz
 1  'x, y, z'
loop_
 _atom_site_type_symbol
 _atom_site_label
 _atom_site_symmetry_multiplicity
 _atom_site_fract_x
 _atom_site_fract_y
 _atom_site_fract_z
 _atom_site_fract_occupancy
 La  La1  1  0.86097  0.75000  0.72193  1
 La  La2  1  0.13903  0.25000  0.27807  1
 Rh  Rh1  1  0.58954  0.75000  0.17908  1
 Rh  Rh2  1  0.41046  0.25000  0.82092  1
