CIF file written using JARVIS-Tools package.
data_Li2V3F8
_symmetry_space_group_name_H-M  'R-3m'
_cell_length_a       6.22475
_cell_length_b       6.09887
_cell_length_c       6.22475
_cell_angle_alpha    120.685
_cell_angle_beta     60
_cell_angle_gamma    120.685

_symmetry_Int_Tables_number  166
_chemical_formula_structural  Li2V3F8
_chemical_formula_sum  Li2V3F8
_cell_volume  165.349175263903
_cell_formula_units_Z  1
loop_
  _symmetry_equiv_pos_site_id
 _symmetry_equiv_pos_as_xyz
 1  'x, y, z'
loop_
 _atom_site_type_symbol
 _atom_site_label
 _atom_site_symmetry_multiplicity
 _atom_site_fract_x
 _atom_site_fract_y
 _atom_site_fract_z
 _atom_site_fract_occupancy
 F  F1  1  0.09534  0.77642  0.09534  1
 F  F2  1  0.09534  0.77642  0.58575  1
 F  F3  1  0.58575  0.77642  0.09534  1
 F  F4  1  0.59667  0.79000  0.59667  1
 F  F5  1  0.40333  0.21000  0.40333  1
 F  F6  1  0.41425  0.22358  0.90466  1
 F  F7  1  0.90466  0.22358  0.41425  1
 F  F8  1  0.90466  0.22358  0.90466  1
 Li  Li1  1  0.12023  0.36069  0.12023  1
 Li  Li2  1  0.87977  0.63931  0.87977  1
 V  V1  1  -0.00000  0.00000  0.50000  1
 V  V2  1  0.50000  0.00000  0.00000  1
 V  V3  1  0.50000  0.00000  0.50000  1
