CIF file written using JARVIS-Tools package.
data_Rb2PdN2Cl2O4
_symmetry_space_group_name_H-M  'Cmce'
_cell_length_a       7.55244
_cell_length_b       7.64129
_cell_length_c       8.4963
_cell_angle_alpha    90
_cell_angle_beta     116.388
_cell_angle_gamma    90

_symmetry_Int_Tables_number  64
_chemical_formula_structural  Rb2PdN2Cl2O4
_chemical_formula_sum  Rb4Pd2N4Cl4O8
_cell_volume  439.23425943327663
_cell_formula_units_Z  2
loop_
  _symmetry_equiv_pos_site_id
 _symmetry_equiv_pos_as_xyz
 1  'x, y, z'
loop_
 _atom_site_type_symbol
 _atom_site_label
 _atom_site_symmetry_multiplicity
 _atom_site_fract_x
 _atom_site_fract_y
 _atom_site_fract_z
 _atom_site_fract_occupancy
 Cl  Cl1  1  0.21870  0.71887  0.00000  1
 Cl  Cl2  1  0.78130  0.28113  -0.00000  1
 Cl  Cl3  1  0.28130  0.21887  -0.00000  1
 Cl  Cl4  1  0.71870  0.78113  0.00000  1
 N  N1  1  0.13397  0.50000  0.26795  1
 N  N2  1  0.36603  0.00000  0.73205  1
 N  N3  1  0.63397  0.00000  0.26795  1
 N  N4  1  0.86603  0.50000  0.73205  1
 O  O1  1  0.92850  0.40239  0.64886  1
 O  O2  1  0.07150  0.59761  0.35114  1
 O  O3  1  0.72036  0.59761  0.64886  1
 O  O4  1  0.27964  0.40239  0.35114  1
 O  O5  1  0.22036  0.90239  0.64886  1
 O  O6  1  0.77964  0.09761  0.35114  1
 O  O7  1  0.42850  0.09761  0.64886  1
 O  O8  1  0.57150  0.90239  0.35114  1
 Pd  Pd1  1  0.00000  0.50000  0.00000  1
 Pd  Pd2  1  0.50000  0.00000  -0.00000  1
 Rb  Rb1  1  0.13709  0.00000  0.27417  1
 Rb  Rb2  1  0.36291  0.50000  0.72583  1
 Rb  Rb3  1  0.63709  0.50000  0.27417  1
 Rb  Rb4  1  0.86291  0.00000  0.72583  1
