data_image0
_chemical_formula_structural       Cu6S12Sn3Sr3
_chemical_formula_sum              "Cu6 S12 Sn3 Sr3"
_cell_length_a       6.28377
_cell_length_b       6.28377
_cell_length_c       15.4863
_cell_angle_alpha    90
_cell_angle_beta     90
_cell_angle_gamma    120

_space_group_name_H-M_alt    "P 1"
_space_group_IT_number       1

loop_
  _space_group_symop_operation_xyz
  'x, y, z'

loop_
  _atom_site_type_symbol
  _atom_site_label
  _atom_site_symmetry_multiplicity
  _atom_site_fract_x
  _atom_site_fract_y
  _atom_site_fract_z
  _atom_site_occupancy
  Cu  Cu1       1.0  0.07870  0.64800  0.58800  1.0000
  Cu  Cu2       1.0  0.35200  0.43100  0.25400  1.0000
  Cu  Cu3       1.0  0.56900  0.92100  0.92100  1.0000
  Cu  Cu4       1.0  0.43100  0.35200  0.74600  1.0000
  Cu  Cu5       1.0  0.92100  0.56900  0.07890  1.0000
  Cu  Cu6       1.0  0.64800  0.07870  0.41200  1.0000
  S   S1        1.0  0.76800  0.64500  0.66400  1.0000
  S   S2        1.0  0.35500  0.12200  0.33100  1.0000
  S   S3        1.0  0.87800  0.23200  0.99700  1.0000
  S   S4        1.0  0.12300  0.35500  0.66900  1.0000
  S   S5        1.0  0.23300  0.87700  0.00276  1.0000
  S   S6        1.0  0.64500  0.76700  0.33600  1.0000
  S   S7        1.0  0.44800  0.96600  0.54600  1.0000
  S   S8        1.0  0.03410  0.48200  0.21300  1.0000
  S   S9        1.0  0.51800  0.55200  0.87900  1.0000
  S   S10       1.0  0.48200  0.03430  0.78700  1.0000
  S   S11       1.0  0.55200  0.51800  0.12100  1.0000
  S   S12       1.0  0.96600  0.44800  0.45400  1.0000
  Sn  Sn1       1.0  0.71000  0.00004  0.66700  1.0000
  Sn  Sn2       1.0  0.00000  0.71000  0.33300  1.0000
  Sn  Sn3       1.0  0.29000  0.29000  0.00000  1.0000
  Sr  Sr1       1.0  0.44600  0.44600  0.50000  1.0000
  Sr  Sr2       1.0  0.55400  0.00000  0.16700  1.0000
  Sr  Sr3       1.0  0.00005  0.55400  0.83300  1.0000
