CIF file written using JARVIS-Tools package.
data_BeCl2
_symmetry_space_group_name_H-M  'Ibam'
_cell_length_a       5.23462
_cell_length_b       5.13178
_cell_length_c       6.07443
_cell_angle_alpha    114.987
_cell_angle_beta     115.523
_cell_angle_gamma    89.9999

_symmetry_Int_Tables_number  72
_chemical_formula_structural  BeCl2
_chemical_formula_sum  Be2Cl4
_cell_volume  130.12484304668428
_cell_formula_units_Z  2
loop_
  _symmetry_equiv_pos_site_id
 _symmetry_equiv_pos_as_xyz
 1  'x, y, z'
loop_
 _atom_site_type_symbol
 _atom_site_label
 _atom_site_symmetry_multiplicity
 _atom_site_fract_x
 _atom_site_fract_y
 _atom_site_fract_z
 _atom_site_fract_occupancy
 Be  Be1  1  0.25000  -0.00000  0.00000  1
 Be  Be2  1  0.75000  0.00000  -0.00000  1
 Cl  Cl1  1  0.61382  0.89954  0.22765  1
 Cl  Cl2  1  0.38618  0.10046  0.77235  1
 Cl  Cl3  1  0.11382  0.32811  0.22765  1
 Cl  Cl4  1  0.88618  0.67189  0.77235  1
