CIF file written using JARVIS-Tools package.
data_TiFe2O5
_symmetry_space_group_name_H-M  'Cmcm'
_cell_length_a       3.73707
_cell_length_b       5.27061
_cell_length_c       10.0606
_cell_angle_alpha    90
_cell_angle_beta     90
_cell_angle_gamma    110.764

_symmetry_Int_Tables_number  63
_chemical_formula_structural  TiFe2O5
_chemical_formula_sum  Ti2Fe4O0
_cell_volume  185.28890542571642
_cell_formula_units_Z  2
loop_
  _symmetry_equiv_pos_site_id
 _symmetry_equiv_pos_as_xyz
 1  'x, y, z'
loop_
 _atom_site_type_symbol
 _atom_site_label
 _atom_site_symmetry_multiplicity
 _atom_site_fract_x
 _atom_site_fract_y
 _atom_site_fract_z
 _atom_site_fract_occupancy
 Fe  Fe1  1  0.13884  0.27769  0.43807  1
 Fe  Fe2  1  0.86116  0.72231  0.56193  1
 Fe  Fe3  1  0.86116  0.72231  0.93807  1
 Fe  Fe4  1  0.13884  0.27769  0.06193  1
 O  O1  1  0.31017  0.62033  0.57838  1
 O  O2  1  0.68983  0.37967  0.42162  1
 O  O3  1  0.68983  0.37967  0.07838  1
 O  O4  1  0.31017  0.62033  0.92162  1
 O  O5  1  0.04739  0.09478  0.61933  1
 O  O6  1  0.95261  0.90522  0.38067  1
 O  O7  1  0.74663  0.49327  0.75000  1
 O  O8  1  0.25337  0.50673  0.25000  1
 O  O9  1  0.95261  0.90522  0.11933  1
 O  O10  1  0.04739  0.09478  0.88067  1
 Ti  Ti1  1  0.18163  0.36325  0.75000  1
 Ti  Ti2  1  0.81837  0.63675  0.25000  1
