CIF file written using JARVIS-Tools package.
data_MgSb2O6
_symmetry_space_group_name_H-M  'Pmn2_1'
_cell_length_a       5.17355
_cell_length_b       5.46497
_cell_length_c       7.5507
_cell_angle_alpha    90.0003
_cell_angle_beta     90.0002
_cell_angle_gamma    89.9996

_symmetry_Int_Tables_number  31
_chemical_formula_structural  MgSb2O6
_chemical_formula_sum  Mg2Sb4O2
_cell_volume  213.4828664751778
_cell_formula_units_Z  2
loop_
  _symmetry_equiv_pos_site_id
 _symmetry_equiv_pos_as_xyz
 1  'x, y, z'
loop_
 _atom_site_type_symbol
 _atom_site_label
 _atom_site_symmetry_multiplicity
 _atom_site_fract_x
 _atom_site_fract_y
 _atom_site_fract_z
 _atom_site_fract_occupancy
 Mg  Mg1  1  0.46903  0.57574  0.75000  1
 Mg  Mg2  1  0.96903  0.92426  0.25001  1
 O  O1  1  0.32554  0.32041  0.56801  1
 O  O2  1  0.82554  0.17960  0.43200  1
 O  O3  1  0.61318  0.94243  0.75000  1
 O  O4  1  0.70772  0.71704  0.06907  1
 O  O5  1  0.20772  0.78296  0.93094  1
 O  O6  1  0.20768  0.78299  0.56906  1
 O  O7  1  0.82556  0.17960  0.06801  1
 O  O8  1  0.32556  0.32040  0.93200  1
 O  O9  1  0.84948  0.46434  0.75001  1
 O  O10  1  0.34949  0.03567  0.25000  1
 O  O11  1  0.70768  0.71702  0.43095  1
 O  O12  1  0.11318  0.55757  0.25001  1
 Sb  Sb1  1  0.49535  0.00874  0.50139  1
 Sb  Sb2  1  0.99535  0.49127  0.49862  1
 Sb  Sb3  1  0.99536  0.49127  0.00139  1
 Sb  Sb4  1  0.49537  0.00873  0.99862  1
