CIF file written using JARVIS-Tools package.
data_CaSiPt
_symmetry_space_group_name_H-M  'Pnma'
_cell_length_a       4.37262
_cell_length_b       7.15508
_cell_length_c       7.26462
_cell_angle_alpha    90
_cell_angle_beta     90
_cell_angle_gamma    90

_symmetry_Int_Tables_number  62
_chemical_formula_structural  CaSiPt
_chemical_formula_sum  Ca4Si4Pt4
_cell_volume  227.2839178086543
_cell_formula_units_Z  4
loop_
  _symmetry_equiv_pos_site_id
 _symmetry_equiv_pos_as_xyz
 1  'x, y, z'
loop_
 _atom_site_type_symbol
 _atom_site_label
 _atom_site_symmetry_multiplicity
 _atom_site_fract_x
 _atom_site_fract_y
 _atom_site_fract_z
 _atom_site_fract_occupancy
 Ca  Ca1  1  0.75000  0.50620  0.81034  1
 Ca  Ca2  1  0.25000  0.99380  0.31034  1
 Ca  Ca3  1  0.75000  0.00620  0.68966  1
 Ca  Ca4  1  0.25000  0.49380  0.18966  1
 Pt  Pt1  1  0.25000  0.69297  0.59643  1
 Pt  Pt2  1  0.25000  0.19297  0.90357  1
 Pt  Pt3  1  0.75000  0.80703  0.09643  1
 Pt  Pt4  1  0.75000  0.30703  0.40357  1
 Si  Si1  1  0.25000  0.82476  0.91803  1
 Si  Si2  1  0.25000  0.32476  0.58197  1
 Si  Si3  1  0.75000  0.17524  0.08197  1
 Si  Si4  1  0.75000  0.67524  0.41803  1
