CIF file written using JARVIS-Tools package.
data_LiCaTl2
_symmetry_space_group_name_H-M  'Immm'
_cell_length_a       11.8716
_cell_length_b       6.79629
_cell_length_c       6.7963
_cell_angle_alpha    47.9084
_cell_angle_beta     29.1452
_cell_angle_gamma    29.1452

_symmetry_Int_Tables_number  71
_chemical_formula_structural  LiCaTl2
_chemical_formula_sum  LiCaTl2
_cell_volume  119.76825499590993
_cell_formula_units_Z  1
loop_
  _symmetry_equiv_pos_site_id
 _symmetry_equiv_pos_as_xyz
 1  'x, y, z'
loop_
 _atom_site_type_symbol
 _atom_site_label
 _atom_site_symmetry_multiplicity
 _atom_site_fract_x
 _atom_site_fract_y
 _atom_site_fract_z
 _atom_site_fract_occupancy
 Ca  Ca1  1  0.50000  -0.00000  0.00000  1
 Li  Li1  1  0.00000  0.00000  0.00000  1
 Tl  Tl1  1  0.77736  -0.00000  0.00000  1
 Tl  Tl2  1  0.22264  0.00000  -0.00000  1
