CIF file written using JARVIS-Tools package.
data_WCl3
_symmetry_space_group_name_H-M  'R-3'
_cell_length_a       9.06757
_cell_length_b       9.06756
_cell_length_c       9.06756
_cell_angle_alpha    110.791
_cell_angle_beta     110.791
_cell_angle_gamma    110.791

_symmetry_Int_Tables_number  148
_chemical_formula_structural  WCl3
_chemical_formula_sum  W6Cl8
_cell_volume  544.080649650562
_cell_formula_units_Z  6
loop_
  _symmetry_equiv_pos_site_id
 _symmetry_equiv_pos_as_xyz
 1  'x, y, z'
loop_
 _atom_site_type_symbol
 _atom_site_label
 _atom_site_symmetry_multiplicity
 _atom_site_fract_x
 _atom_site_fract_y
 _atom_site_fract_z
 _atom_site_fract_occupancy
 Cl  Cl1  1  0.10393  0.16256  0.74670  1
 Cl  Cl2  1  0.95229  0.46694  0.66459  1
 Cl  Cl3  1  0.46694  0.66459  0.95229  1
 Cl  Cl4  1  0.33541  0.04771  0.53306  1
 Cl  Cl5  1  0.04771  0.53306  0.33541  1
 Cl  Cl6  1  0.53306  0.33541  0.04771  1
 Cl  Cl7  1  0.46336  0.20312  0.30774  1
 Cl  Cl8  1  0.30774  0.46336  0.20312  1
 Cl  Cl9  1  0.20312  0.30774  0.46336  1
 Cl  Cl10  1  0.53664  0.79688  0.69226  1
 Cl  Cl11  1  0.66459  0.95229  0.46694  1
 Cl  Cl12  1  0.79688  0.69226  0.53664  1
 Cl  Cl13  1  0.74670  0.10393  0.16256  1
 Cl  Cl14  1  0.16256  0.74670  0.10393  1
 Cl  Cl15  1  0.89607  0.83744  0.25330  1
 Cl  Cl16  1  0.25330  0.89607  0.83744  1
 Cl  Cl17  1  0.83744  0.25330  0.89607  1
 Cl  Cl18  1  0.69226  0.53664  0.79688  1
 W  W1  1  0.02130  0.24368  0.15445  1
 W  W2  1  0.84555  0.97870  0.75632  1
 W  W3  1  0.97870  0.75632  0.84555  1
 W  W4  1  0.75632  0.84555  0.97870  1
 W  W5  1  0.15445  0.02130  0.24368  1
 W  W6  1  0.24368  0.15445  0.02130  1
