CIF file written using JARVIS-Tools package.
data_CaMn2O4
_symmetry_space_group_name_H-M  'Cmcm'
_cell_length_a       3.07734
_cell_length_b       5.16799
_cell_length_c       9.79795
_cell_angle_alpha    90
_cell_angle_beta     90
_cell_angle_gamma    107.321

_symmetry_Int_Tables_number  63
_chemical_formula_structural  CaMn2O4
_chemical_formula_sum  Ca2Mn4O8
_cell_volume  148.7566155809948
_cell_formula_units_Z  2
loop_
  _symmetry_equiv_pos_site_id
 _symmetry_equiv_pos_as_xyz
 1  'x, y, z'
loop_
 _atom_site_type_symbol
 _atom_site_label
 _atom_site_symmetry_multiplicity
 _atom_site_fract_x
 _atom_site_fract_y
 _atom_site_fract_z
 _atom_site_fract_occupancy
 Ca  Ca1  1  0.39141  0.78281  0.75000  1
 Ca  Ca2  1  0.60859  0.21719  0.25000  1
 Mn  Mn1  1  0.86534  0.73068  0.06828  1
 Mn  Mn2  1  0.13466  0.26932  0.93172  1
 Mn  Mn3  1  0.86534  0.73068  0.43172  1
 Mn  Mn4  1  0.13466  0.26932  0.56828  1
 O  O1  1  0.22805  0.45611  0.39366  1
 O  O2  1  0.77195  0.54389  0.60634  1
 O  O3  1  0.77195  0.54389  0.89366  1
 O  O4  1  0.22805  0.45611  0.10634  1
 O  O5  1  0.93622  0.87245  0.25000  1
 O  O6  1  0.06378  0.12755  0.75000  1
 O  O7  1  0.50000  0.00000  0.00000  1
 O  O8  1  0.50000  0.00000  0.50000  1
