CIF file written using JARVIS-Tools package.
data_Al2NiO4
_symmetry_space_group_name_H-M  'Fd-3m'
_cell_length_a       5.75415
_cell_length_b       5.75401
_cell_length_c       5.75415
_cell_angle_alpha    89.994
_cell_angle_beta     120
_cell_angle_gamma    120.001

_symmetry_Int_Tables_number  227
_chemical_formula_structural  Al2NiO4
_chemical_formula_sum  Al4Ni2O8
_cell_volume  134.72169672869978
_cell_formula_units_Z  2
loop_
  _symmetry_equiv_pos_site_id
 _symmetry_equiv_pos_as_xyz
 1  'x, y, z'
loop_
 _atom_site_type_symbol
 _atom_site_label
 _atom_site_symmetry_multiplicity
 _atom_site_fract_x
 _atom_site_fract_y
 _atom_site_fract_z
 _atom_site_fract_occupancy
 Al  Al1  1  0.50000  -0.00000  -0.00000  1
 Al  Al2  1  0.50000  0.50000  -0.00000  1
 Al  Al3  1  -0.00001  0.50000  0.50000  1
 Al  Al4  1  0.00000  0.50000  0.00000  1
 Ni  Ni1  1  0.74998  0.87500  0.62496  1
 Ni  Ni2  1  0.25003  0.12501  0.37505  1
 O  O1  1  0.02850  0.73578  0.76423  1
 O  O2  1  0.97150  0.26422  0.23578  1
 O  O3  1  0.02850  0.29273  0.76427  1
 O  O4  1  0.97150  0.70727  0.23573  1
 O  O5  1  0.47148  0.73572  0.20724  1
 O  O6  1  0.47150  0.73577  0.76422  1
 O  O7  1  0.52850  0.26423  0.23578  1
 O  O8  1  0.52852  0.26428  0.79275  1
