CIF file written using JARVIS-Tools package.
data_LiTiSi2O6
_symmetry_space_group_name_H-M  'C2/c'
_cell_length_a       5.31436
_cell_length_b       6.58032
_cell_length_c       6.58031
_cell_angle_alpha    82.0987
_cell_angle_beta     75.2747
_cell_angle_gamma    75.2746

_symmetry_Int_Tables_number  15
_chemical_formula_structural  LiTiSi2O6
_chemical_formula_sum  Li2Ti2Si4O2
_cell_volume  214.59290762700306
_cell_formula_units_Z  2
loop_
  _symmetry_equiv_pos_site_id
 _symmetry_equiv_pos_as_xyz
 1  'x, y, z'
loop_
 _atom_site_type_symbol
 _atom_site_label
 _atom_site_symmetry_multiplicity
 _atom_site_fract_x
 _atom_site_fract_y
 _atom_site_fract_z
 _atom_site_fract_occupancy
 Li  Li1  1  0.75000  0.26703  0.73297  1
 Li  Li2  1  0.25000  0.73297  0.26703  1
 O  O1  1  0.83030  0.88925  0.36544  1
 O  O2  1  0.66970  0.63456  0.11075  1
 O  O3  1  0.33688  0.02633  0.21575  1
 O  O4  1  0.16312  0.78425  0.97367  1
 O  O5  1  0.57440  0.63564  0.65530  1
 O  O6  1  0.83688  0.21575  0.02633  1
 O  O7  1  0.07440  0.65530  0.63564  1
 O  O8  1  0.42560  0.36436  0.34470  1
 O  O9  1  0.33030  0.36544  0.88925  1
 O  O10  1  0.16970  0.11075  0.63456  1
 O  O11  1  0.92560  0.34470  0.36436  1
 O  O12  1  0.66312  0.97367  0.78425  1
 Si  Si1  1  0.72139  0.39143  0.20405  1
 Si  Si2  1  0.77861  0.79595  0.60857  1
 Si  Si3  1  0.27861  0.60857  0.79595  1
 Si  Si4  1  0.22139  0.20405  0.39143  1
 Ti  Ti1  1  0.75000  0.91318  0.08682  1
 Ti  Ti2  1  0.25000  0.08682  0.91318  1
