CIF file written using JARVIS-Tools package.
data_KSb2Se4
_symmetry_space_group_name_H-M  'P-1'
_cell_length_a       6.41603
_cell_length_b       7.0996
_cell_length_c       9.58928
_cell_angle_alpha    81.1311
_cell_angle_beta     84.2057
_cell_angle_gamma    73.5616

_symmetry_Int_Tables_number  2
_chemical_formula_structural  KSb2Se4
_chemical_formula_sum  K2Sb4Se8
_cell_volume  413.18206381132217
_cell_formula_units_Z  2
loop_
  _symmetry_equiv_pos_site_id
 _symmetry_equiv_pos_as_xyz
 1  'x, y, z'
loop_
 _atom_site_type_symbol
 _atom_site_label
 _atom_site_symmetry_multiplicity
 _atom_site_fract_x
 _atom_site_fract_y
 _atom_site_fract_z
 _atom_site_fract_occupancy
 K  K1  1  0.81868  0.81148  0.43852  1
 K  K2  1  0.18132  0.18852  0.56148  1
 Sb  Sb1  1  0.55138  0.40179  0.83112  1
 Sb  Sb2  1  0.44862  0.59821  0.16888  1
 Sb  Sb3  1  0.84495  0.81355  0.94954  1
 Sb  Sb4  1  0.15505  0.18645  0.05046  1
 Se  Se1  1  0.23318  0.85586  0.87414  1
 Se  Se2  1  0.76682  0.14414  0.12586  1
 Se  Se3  1  0.08073  0.49604  0.21758  1
 Se  Se4  1  0.91927  0.50396  0.78242  1
 Se  Se5  1  0.60875  0.39364  0.41529  1
 Se  Se6  1  0.39125  0.60636  0.58471  1
 Se  Se7  1  0.68546  0.06625  0.71769  1
 Se  Se8  1  0.31454  0.93375  0.28231  1
