CIF file written using JARVIS-Tools package.
data_NaGeSbO5
_symmetry_space_group_name_H-M  'C2/c'
_cell_length_a       5.6394
_cell_length_b       5.6394
_cell_length_c       7.30493
_cell_angle_alpha    104.441
_cell_angle_beta     104.441
_cell_angle_gamma    106.208

_symmetry_Int_Tables_number  15
_chemical_formula_structural  NaGeSbO5
_chemical_formula_sum  Na2Ge2Sb2O0
_cell_volume  202.9282723867873
_cell_formula_units_Z  2
loop_
  _symmetry_equiv_pos_site_id
 _symmetry_equiv_pos_as_xyz
 1  'x, y, z'
loop_
 _atom_site_type_symbol
 _atom_site_label
 _atom_site_symmetry_multiplicity
 _atom_site_fract_x
 _atom_site_fract_y
 _atom_site_fract_z
 _atom_site_fract_occupancy
 Ge  Ge1  1  0.31346  0.68654  0.25000  1
 Ge  Ge2  1  0.68654  0.31346  0.75000  1
 Na  Na1  1  0.33465  0.66535  0.75000  1
 Na  Na2  1  0.66535  0.33465  0.25000  1
 O  O1  1  0.08153  0.91847  0.75000  1
 O  O2  1  0.91847  0.08153  0.25000  1
 O  O3  1  0.08732  0.68430  0.38243  1
 O  O4  1  0.31570  0.91268  0.11757  1
 O  O5  1  0.91268  0.31570  0.61757  1
 O  O6  1  0.68430  0.08732  0.88243  1
 O  O7  1  0.37340  0.24621  0.57378  1
 O  O8  1  0.75379  0.62660  0.92622  1
 O  O9  1  0.62660  0.75379  0.42622  1
 O  O10  1  0.24621  0.37340  0.07378  1
 Sb  Sb1  1  -0.00000  -0.00000  0.50000  1
 Sb  Sb2  1  0.00000  0.00000  0.00000  1
