CIF file written using JARVIS-Tools package.
data_Li2VF4
_symmetry_space_group_name_H-M  'Pna2_1'
_cell_length_a       5.45085
_cell_length_b       5.87839
_cell_length_c       9.54806
_cell_angle_alpha    90
_cell_angle_beta     90
_cell_angle_gamma    90

_symmetry_Int_Tables_number  33
_chemical_formula_structural  Li2VF4
_chemical_formula_sum  Li8V4F6
_cell_volume  305.9409325280915
_cell_formula_units_Z  4
loop_
  _symmetry_equiv_pos_site_id
 _symmetry_equiv_pos_as_xyz
 1  'x, y, z'
loop_
 _atom_site_type_symbol
 _atom_site_label
 _atom_site_symmetry_multiplicity
 _atom_site_fract_x
 _atom_site_fract_y
 _atom_site_fract_z
 _atom_site_fract_occupancy
 F  F1  1  0.98431  0.31194  0.76623  1
 F  F2  1  0.82586  0.10065  0.48452  1
 F  F3  1  0.52718  0.11734  0.74689  1
 F  F4  1  0.19847  0.91766  0.97578  1
 F  F5  1  0.48431  0.68806  0.23377  1
 F  F6  1  0.98431  0.81194  0.73377  1
 F  F7  1  0.69847  0.58234  0.47578  1
 F  F8  1  0.02718  0.88266  0.25311  1
 F  F9  1  0.32586  0.39935  0.98452  1
 F  F10  1  0.82586  0.60065  0.01548  1
 F  F11  1  0.02718  0.38266  0.24689  1
 F  F12  1  0.19847  0.41766  0.52422  1
 F  F13  1  0.48431  0.18806  0.26623  1
 F  F14  1  0.32586  0.89935  0.51548  1
 F  F15  1  0.69847  0.08234  0.02422  1
 F  F16  1  0.52718  0.61734  0.75311  1
 Li  Li1  1  0.70133  0.94682  0.21384  1
 Li  Li2  1  0.35415  0.13450  0.08185  1
 Li  Li3  1  0.85415  0.36550  0.58185  1
 Li  Li4  1  0.20133  0.55318  0.71384  1
 Li  Li5  1  0.70133  0.44682  0.28616  1
 Li  Li6  1  0.35415  0.63450  0.41815  1
 Li  Li7  1  0.85415  0.86550  0.91815  1
 Li  Li8  1  0.20133  0.05318  0.78616  1
 V  V1  1  0.66470  0.86067  0.61422  1
 V  V2  1  0.16470  0.63933  0.11422  1
 V  V3  1  0.66470  0.36067  0.88578  1
 V  V4  1  0.16470  0.13933  0.38578  1
