CIF file written using JARVIS-Tools package.
data_CaFeO2
_symmetry_space_group_name_H-M  'P-1'
_cell_length_a       3.26387
_cell_length_b       7.74013
_cell_length_c       7.86034
_cell_angle_alpha    108.532
_cell_angle_beta     89.3775
_cell_angle_gamma    89.8578

_symmetry_Int_Tables_number  2
_chemical_formula_structural  CaFeO2
_chemical_formula_sum  Ca4Fe4O8
_cell_volume  188.26182660704853
_cell_formula_units_Z  4
loop_
  _symmetry_equiv_pos_site_id
 _symmetry_equiv_pos_as_xyz
 1  'x, y, z'
loop_
 _atom_site_type_symbol
 _atom_site_label
 _atom_site_symmetry_multiplicity
 _atom_site_fract_x
 _atom_site_fract_y
 _atom_site_fract_z
 _atom_site_fract_occupancy
 Ca  Ca1  1  0.75427  0.21584  0.05771  1
 Ca  Ca2  1  0.26976  0.81237  0.92221  1
 Ca  Ca3  1  0.27470  0.07918  0.67425  1
 Ca  Ca4  1  0.74934  0.94902  0.30566  1
 Fe  Fe1  1  0.24708  0.57697  0.18498  1
 Fe  Fe2  1  0.20781  0.35575  0.43639  1
 Fe  Fe3  1  0.81624  0.67245  0.54355  1
 Fe  Fe4  1  0.77701  0.45125  0.79493  1
 O  O1  1  0.31000  0.56828  0.66905  1
 O  O2  1  0.24619  0.80507  0.42837  1
 O  O3  1  0.77786  0.22312  0.55154  1
 O  O4  1  0.71410  0.45993  0.31087  1
 O  O5  1  0.76835  0.67999  0.05745  1
 O  O6  1  0.25059  0.08109  0.18157  1
 O  O7  1  0.25566  0.34821  0.92246  1
 O  O8  1  0.77343  0.94711  0.79834  1
