CIF file written using JARVIS-Tools package.
data_CaN2
_symmetry_space_group_name_H-M  'I4/mmm'
_cell_length_a       3.5856
_cell_length_b       3.5856
_cell_length_c       3.91827
_cell_angle_alpha    117.229
_cell_angle_beta     117.229
_cell_angle_gamma    90

_symmetry_Int_Tables_number  139
_chemical_formula_structural  CaN2
_chemical_formula_sum  CaN2
_cell_volume  38.40755566698593
_cell_formula_units_Z  1
loop_
  _symmetry_equiv_pos_site_id
 _symmetry_equiv_pos_as_xyz
 1  'x, y, z'
loop_
 _atom_site_type_symbol
 _atom_site_label
 _atom_site_symmetry_multiplicity
 _atom_site_fract_x
 _atom_site_fract_y
 _atom_site_fract_z
 _atom_site_fract_occupancy
 Ca  Ca1  1  0.00000  0.00000  0.00000  1
 N  N1  1  0.60512  0.60512  0.21024  1
 N  N2  1  0.39488  0.39488  0.78976  1
