CIF file written using JARVIS-Tools package.
data_Sr2PrO4
_symmetry_space_group_name_H-M  'Pbam'
_cell_length_a       3.72101
_cell_length_b       6.26096
_cell_length_c       10.3104
_cell_angle_alpha    90
_cell_angle_beta     90
_cell_angle_gamma    90

_symmetry_Int_Tables_number  55
_chemical_formula_structural  Sr2PrO4
_chemical_formula_sum  Sr4Pr2O8
_cell_volume  240.20171876017199
_cell_formula_units_Z  2
loop_
  _symmetry_equiv_pos_site_id
 _symmetry_equiv_pos_as_xyz
 1  'x, y, z'
loop_
 _atom_site_type_symbol
 _atom_site_label
 _atom_site_symmetry_multiplicity
 _atom_site_fract_x
 _atom_site_fract_y
 _atom_site_fract_z
 _atom_site_fract_occupancy
 O  O1  1  0.00000  0.15275  0.79259  1
 O  O2  1  0.00000  0.84725  0.20741  1
 O  O3  1  0.00000  0.65275  0.70741  1
 O  O4  1  0.00000  0.34725  0.29259  1
 O  O5  1  0.50000  0.26298  0.54408  1
 O  O6  1  0.50000  0.73702  0.45592  1
 O  O7  1  0.50000  0.23702  0.04408  1
 O  O8  1  0.50000  0.76298  0.95592  1
 Pr  Pr1  1  0.00000  0.00000  0.00000  1
 Pr  Pr2  1  0.00000  0.50000  0.50000  1
 Sr  Sr1  1  0.50000  0.06491  0.32206  1
 Sr  Sr2  1  0.50000  0.93509  0.67794  1
 Sr  Sr3  1  0.50000  0.43509  0.82206  1
 Sr  Sr4  1  0.50000  0.56491  0.17794  1
