CIF file written using JARVIS-Tools package.
data_Y3CuGeSe7
_symmetry_space_group_name_H-M  'P6_3'
_cell_length_a       10.3014
_cell_length_b       10.3014
_cell_length_c       6.10867
_cell_angle_alpha    90
_cell_angle_beta     90
_cell_angle_gamma    120

_symmetry_Int_Tables_number  173
_chemical_formula_structural  Y3CuGeSe7
_chemical_formula_sum  Y6Cu2Ge2Se4
_cell_volume  561.3960507722139
_cell_formula_units_Z  2
loop_
  _symmetry_equiv_pos_site_id
 _symmetry_equiv_pos_as_xyz
 1  'x, y, z'
loop_
 _atom_site_type_symbol
 _atom_site_label
 _atom_site_symmetry_multiplicity
 _atom_site_fract_x
 _atom_site_fract_y
 _atom_site_fract_z
 _atom_site_fract_occupancy
 Cu  Cu1  1  0.00000  0.00000  0.30581  1
 Cu  Cu2  1  0.00000  0.00000  0.80581  1
 Ge  Ge1  1  0.66667  0.33333  0.16733  1
 Ge  Ge2  1  0.33333  0.66667  0.66733  1
 Se  Se1  1  0.73623  0.89533  0.78741  1
 Se  Se2  1  0.51831  0.42703  0.00039  1
 Se  Se3  1  0.84090  0.73623  0.28741  1
 Se  Se4  1  0.57297  0.09129  0.00039  1
 Se  Se5  1  0.42703  0.90871  0.50039  1
 Se  Se6  1  0.90871  0.48169  0.00039  1
 Se  Se7  1  0.09129  0.51831  0.50039  1
 Se  Se8  1  0.33333  0.66667  0.05419  1
 Se  Se9  1  0.66667  0.33333  0.55419  1
 Se  Se10  1  0.10467  0.84090  0.78741  1
 Se  Se11  1  0.15910  0.26377  0.78741  1
 Se  Se12  1  0.48169  0.57297  0.50039  1
 Se  Se13  1  0.26377  0.10467  0.28741  1
 Se  Se14  1  0.89533  0.15910  0.28741  1
 Y  Y1  1  0.64330  0.86256  0.24943  1
 Y  Y2  1  0.86256  0.21926  0.74943  1
 Y  Y3  1  0.78074  0.64330  0.74943  1
 Y  Y4  1  0.21926  0.35670  0.24943  1
 Y  Y5  1  0.13744  0.78074  0.24943  1
 Y  Y6  1  0.35670  0.13744  0.74943  1
