CIF file written using JARVIS-Tools package.
data_Tl2Pt
_symmetry_space_group_name_H-M  'I4/mcm'
_cell_length_a       5.66546
_cell_length_b       5.72303
_cell_length_c       5.72303
_cell_angle_alpha    75.8185
_cell_angle_beta     60.3322
_cell_angle_gamma    60.3323

_symmetry_Int_Tables_number  140
_chemical_formula_structural  Tl2Pt
_chemical_formula_sum  Tl4Pt2
_cell_volume  140.09972987346544
_cell_formula_units_Z  2
loop_
  _symmetry_equiv_pos_site_id
 _symmetry_equiv_pos_as_xyz
 1  'x, y, z'
loop_
 _atom_site_type_symbol
 _atom_site_label
 _atom_site_symmetry_multiplicity
 _atom_site_fract_x
 _atom_site_fract_y
 _atom_site_fract_z
 _atom_site_fract_occupancy
 Pt  Pt1  1  0.25000  0.00000  0.00000  1
 Pt  Pt2  1  0.75000  0.00000  0.00000  1
 Tl  Tl1  1  0.65924  0.18152  0.50000  1
 Tl  Tl2  1  0.84076  0.50000  0.81848  1
 Tl  Tl3  1  0.34076  0.81848  0.50000  1
 Tl  Tl4  1  0.15924  0.50000  0.18152  1
