CIF file written using JARVIS-Tools package.
data_Al2PdPt
_symmetry_space_group_name_H-M  'C2/m'
_cell_length_a       10.5477
_cell_length_b       7.34362
_cell_length_c       7.34361
_cell_angle_alpha    23.0224
_cell_angle_beta     19.4782
_cell_angle_gamma    19.4783

_symmetry_Int_Tables_number  12
_chemical_formula_structural  Al2PdPt
_chemical_formula_sum  Al2PdPt
_cell_volume  60.64873564096519
_cell_formula_units_Z  1
loop_
  _symmetry_equiv_pos_site_id
 _symmetry_equiv_pos_as_xyz
 1  'x, y, z'
loop_
 _atom_site_type_symbol
 _atom_site_label
 _atom_site_symmetry_multiplicity
 _atom_site_fract_x
 _atom_site_fract_y
 _atom_site_fract_z
 _atom_site_fract_occupancy
 Al  Al1  1  0.75717  0.99421  0.99421  1
 Al  Al2  1  0.24283  0.00579  0.00579  1
 Pd  Pd1  1  0.00000  0.00000  0.00000  1
 Pt  Pt1  1  0.50000  0.00000  0.00000  1
