CIF file written using JARVIS-Tools package.
data_BaC2
_symmetry_space_group_name_H-M  'R-3m'
_cell_length_a       3.89662
_cell_length_b       3.89662
_cell_length_c       3.89662
_cell_angle_alpha    84.0153
_cell_angle_beta     84.0153
_cell_angle_gamma    84.0151

_symmetry_Int_Tables_number  166
_chemical_formula_structural  BaC2
_chemical_formula_sum  BaC2
_cell_volume  58.2602637503339
_cell_formula_units_Z  1
loop_
  _symmetry_equiv_pos_site_id
 _symmetry_equiv_pos_as_xyz
 1  'x, y, z'
loop_
 _atom_site_type_symbol
 _atom_site_label
 _atom_site_symmetry_multiplicity
 _atom_site_fract_x
 _atom_site_fract_y
 _atom_site_fract_z
 _atom_site_fract_occupancy
 Ba  Ba1  1  0.00000  0.00000  0.00000  1
 C  C1  1  0.58501  0.58501  0.58501  1
 C  C2  1  0.41499  0.41499  0.41499  1
