CIF file written using JARVIS-Tools package.
data_ZnCrSF5
_symmetry_space_group_name_H-M  'P1'
_cell_length_a       6.07263
_cell_length_b       6.92553
_cell_length_c       7.17493
_cell_angle_alpha    62.2093
_cell_angle_beta     77.4307
_cell_angle_gamma    95.1208

_symmetry_Int_Tables_number  1
_chemical_formula_structural  ZnCrSF5
_chemical_formula_sum  Zn2Cr2S2F0
_cell_volume  254.1125340680167
_cell_formula_units_Z  2
loop_
  _symmetry_equiv_pos_site_id
 _symmetry_equiv_pos_as_xyz
 1  'x, y, z'
loop_
 _atom_site_type_symbol
 _atom_site_label
 _atom_site_symmetry_multiplicity
 _atom_site_fract_x
 _atom_site_fract_y
 _atom_site_fract_z
 _atom_site_fract_occupancy
 Cr  Cr1  1  0.04387  0.47979  0.45436  1
 Cr  Cr2  1  0.02956  0.46212  -0.03077  1
 F  F1  1  0.11516  0.19262  0.16072  1
 F  F2  1  -0.07337  0.17219  0.55578  1
 F  F3  1  0.95513  0.72902  0.77244  1
 F  F4  1  0.18700  0.78122  0.35901  1
 F  F5  1  0.33968  0.44404  0.34444  1
 F  F6  1  0.70646  0.31254  0.06552  1
 F  F7  1  0.74902  0.52937  0.56071  1
 F  F8  1  0.35887  0.58225  0.85579  1
 F  F9  1  0.98211  0.56391  0.17889  1
 F  F10  1  0.08080  0.37626  0.74518  1
 S  S1  1  0.34115  0.04532  0.84312  1
 S  S2  1  0.46159  0.14429  0.53263  1
 Zn  Zn1  1  0.52756  0.34728  0.85962  1
 Zn  Zn2  1  0.12741  -0.01299  0.47542  1
