CIF file written using JARVIS-Tools package.
data_LiScF4
_symmetry_space_group_name_H-M  'I4_1/a'
_cell_length_a       4.99466
_cell_length_b       4.99469
_cell_length_c       6.17433
_cell_angle_alpha    113.859
_cell_angle_beta     113.859
_cell_angle_gamma    89.9985

_symmetry_Int_Tables_number  88
_chemical_formula_structural  LiScF4
_chemical_formula_sum  Li2Sc2F8
_cell_volume  126.34067690399573
_cell_formula_units_Z  2
loop_
  _symmetry_equiv_pos_site_id
 _symmetry_equiv_pos_as_xyz
 1  'x, y, z'
loop_
 _atom_site_type_symbol
 _atom_site_label
 _atom_site_symmetry_multiplicity
 _atom_site_fract_x
 _atom_site_fract_y
 _atom_site_fract_z
 _atom_site_fract_occupancy
 F  F1  1  0.61897  0.25784  0.58980  1
 F  F2  1  0.97084  0.83197  0.58981  1
 F  F3  1  0.75784  0.47083  0.08981  1
 F  F4  1  0.24216  0.52917  0.91019  1
 F  F5  1  0.66803  0.88102  0.91019  1
 F  F6  1  0.02916  0.16803  0.41019  1
 F  F7  1  0.33197  0.11898  0.08981  1
 F  F8  1  0.38103  0.74216  0.41020  1
 Li  Li1  1  0.87500  0.62499  0.74999  1
 Li  Li2  1  0.12500  0.37501  0.25001  1
 Sc  Sc1  1  0.62500  0.87500  0.25000  1
 Sc  Sc2  1  0.37500  0.12500  0.75000  1
