CIF file written using JARVIS-Tools package.
data_LiCoSnO4
_symmetry_space_group_name_H-M  'P4_322'
_cell_length_a       6.04771
_cell_length_b       6.04771
_cell_length_c       8.54088
_cell_angle_alpha    90
_cell_angle_beta     90
_cell_angle_gamma    90

_symmetry_Int_Tables_number  95
_chemical_formula_structural  LiCoSnO4
_chemical_formula_sum  Li4Co4Sn4O6
_cell_volume  312.3804155866759
_cell_formula_units_Z  4
loop_
  _symmetry_equiv_pos_site_id
 _symmetry_equiv_pos_as_xyz
 1  'x, y, z'
loop_
 _atom_site_type_symbol
 _atom_site_label
 _atom_site_symmetry_multiplicity
 _atom_site_fract_x
 _atom_site_fract_y
 _atom_site_fract_z
 _atom_site_fract_occupancy
 Co  Co1  1  0.25364  0.25364  0.62500  1
 Co  Co2  1  0.25364  0.74636  0.87500  1
 Co  Co3  1  0.74636  0.25364  0.37500  1
 Co  Co4  1  0.74636  0.74636  0.12500  1
 Li  Li1  1  0.00000  0.20302  0.00000  1
 Li  Li2  1  0.00000  0.79698  0.50000  1
 Li  Li3  1  0.20302  0.00000  0.25000  1
 Li  Li4  1  0.79698  0.00000  0.75000  1
 O  O1  1  0.99323  0.74781  0.25238  1
 O  O2  1  0.25700  0.51792  0.49472  1
 O  O3  1  0.25700  0.48208  0.00528  1
 O  O4  1  0.99323  0.25219  0.24762  1
 O  O5  1  0.25219  0.99323  0.00238  1
 O  O6  1  0.00677  0.25219  0.75238  1
 O  O7  1  0.48208  0.74300  0.25528  1
 O  O8  1  0.25219  0.00677  0.49762  1
 O  O9  1  0.51792  0.25700  0.75528  1
 O  O10  1  0.74781  0.99323  -0.00238  1
 O  O11  1  0.74300  0.51792  0.50528  1
 O  O12  1  0.74300  0.48208  0.99472  1
 O  O13  1  0.48208  0.25700  0.24472  1
 O  O14  1  0.74781  0.00677  0.50238  1
 O  O15  1  0.51792  0.74300  0.74472  1
 O  O16  1  0.00677  0.74781  0.74762  1
 Sn  Sn1  1  0.22347  0.50000  0.25000  1
 Sn  Sn2  1  0.50000  0.22347  0.00000  1
 Sn  Sn3  1  0.50000  0.77653  0.50000  1
 Sn  Sn4  1  0.77653  0.50000  0.75000  1
