CIF file written using JARVIS-Tools package.
data_NbAlO4
_symmetry_space_group_name_H-M  'C2/m'
_cell_length_a       3.80457
_cell_length_b       6.4324
_cell_length_c       6.56604
_cell_angle_alpha    107.014
_cell_angle_beta     90
_cell_angle_gamma    107.202

_symmetry_Int_Tables_number  12
_chemical_formula_structural  NbAlO4
_chemical_formula_sum  Nb2Al2O8
_cell_volume  146.12186688226612
_cell_formula_units_Z  2
loop_
  _symmetry_equiv_pos_site_id
 _symmetry_equiv_pos_as_xyz
 1  'x, y, z'
loop_
 _atom_site_type_symbol
 _atom_site_label
 _atom_site_symmetry_multiplicity
 _atom_site_fract_x
 _atom_site_fract_y
 _atom_site_fract_z
 _atom_site_fract_occupancy
 Al  Al1  1  0.79820  0.59641  0.17585  1
 Al  Al2  1  0.20180  0.40359  0.82415  1
 Nb  Nb1  1  0.10466  0.20932  0.23730  1
 Nb  Nb2  1  0.89534  0.79068  0.76270  1
 O  O1  1  0.35595  0.71191  0.79610  1
 O  O2  1  0.64405  0.28809  0.20390  1
 O  O3  1  0.73654  0.47309  0.85874  1
 O  O4  1  0.26346  0.52691  0.14126  1
 O  O5  1  0.85977  0.71954  0.47150  1
 O  O6  1  0.14023  0.28046  0.52850  1
 O  O7  1  0.94210  0.88420  0.13645  1
 O  O8  1  0.05790  0.11580  0.86355  1
