CIF file written using JARVIS-Tools package.
data_Ag2H3IO6
_symmetry_space_group_name_H-M  'R-3'
_cell_length_a       5.40747
_cell_length_b       5.40747
_cell_length_c       5.40748
_cell_angle_alpha    66.5182
_cell_angle_beta     66.5181
_cell_angle_gamma    66.5182

_symmetry_Int_Tables_number  148
_chemical_formula_structural  Ag2H3IO6
_chemical_formula_sum  Ag2H3IO6
_cell_volume  127.50084436023027
_cell_formula_units_Z  1
loop_
  _symmetry_equiv_pos_site_id
 _symmetry_equiv_pos_as_xyz
 1  'x, y, z'
loop_
 _atom_site_type_symbol
 _atom_site_label
 _atom_site_symmetry_multiplicity
 _atom_site_fract_x
 _atom_site_fract_y
 _atom_site_fract_z
 _atom_site_fract_occupancy
 Ag  Ag1  1  0.38669  0.38669  0.38669  1
 Ag  Ag2  1  0.61331  0.61331  0.61331  1
 H  H1  1  0.00000  -0.00000  0.50000  1
 H  H2  1  0.00000  0.50000  -0.00000  1
 H  H3  1  0.50000  -0.00000  0.00000  1
 I  I1  1  0.00000  0.00000  0.00000  1
 O  O1  1  0.16247  0.62850  0.95258  1
 O  O2  1  0.95258  0.16247  0.62850  1
 O  O3  1  0.83753  0.37150  0.04742  1
 O  O4  1  0.04742  0.83753  0.37150  1
 O  O5  1  0.37150  0.04742  0.83753  1
 O  O6  1  0.62850  0.95258  0.16247  1
