CIF file written using JARVIS-Tools package.
data_TiS2
_symmetry_space_group_name_H-M  'Fd-3m'
_cell_length_a       6.90672
_cell_length_b       6.90672
_cell_length_c       6.90671
_cell_angle_alpha    60
_cell_angle_beta     60
_cell_angle_gamma    60

_symmetry_Int_Tables_number  227
_chemical_formula_structural  TiS2
_chemical_formula_sum  Ti4S8
_cell_volume  232.96961205612118
_cell_formula_units_Z  4
loop_
  _symmetry_equiv_pos_site_id
 _symmetry_equiv_pos_as_xyz
 1  'x, y, z'
loop_
 _atom_site_type_symbol
 _atom_site_label
 _atom_site_symmetry_multiplicity
 _atom_site_fract_x
 _atom_site_fract_y
 _atom_site_fract_z
 _atom_site_fract_occupancy
 S  S1  1  0.74889  0.74889  0.74889  1
 S  S2  1  0.25111  0.25111  0.74667  1
 S  S3  1  0.25111  0.74667  0.25111  1
 S  S4  1  0.74667  0.25111  0.25111  1
 S  S5  1  0.25111  0.25111  0.25111  1
 S  S6  1  0.74889  0.74889  0.25333  1
 S  S7  1  0.25333  0.74889  0.74889  1
 S  S8  1  0.74889  0.25333  0.74889  1
 Ti  Ti1  1  0.50000  0.00000  0.50000  1
 Ti  Ti2  1  0.00000  0.50000  0.50000  1
 Ti  Ti3  1  0.50000  0.50000  0.00000  1
 Ti  Ti4  1  0.50000  0.50000  0.50000  1
