CIF file written using JARVIS-Tools package.
data_NaReO4
_symmetry_space_group_name_H-M  'I4_1/a'
_cell_length_a       5.36541
_cell_length_b       5.3655
_cell_length_c       6.96006
_cell_angle_alpha    112.674
_cell_angle_beta     112.67
_cell_angle_gamma    90.0037

_symmetry_Int_Tables_number  88
_chemical_formula_structural  NaReO4
_chemical_formula_sum  Na2Re2O8
_cell_volume  167.97801584299918
_cell_formula_units_Z  2
loop_
  _symmetry_equiv_pos_site_id
 _symmetry_equiv_pos_as_xyz
 1  'x, y, z'
loop_
 _atom_site_type_symbol
 _atom_site_label
 _atom_site_symmetry_multiplicity
 _atom_site_fract_x
 _atom_site_fract_y
 _atom_site_fract_z
 _atom_site_fract_occupancy
 Na  Na1  1  0.12498  0.37501  0.74999  1
 Na  Na2  1  0.87502  0.62499  0.25001  1
 O  O1  1  0.69412  0.07322  0.41976  1
 O  O2  1  0.57319  0.72563  0.91976  1
 O  O3  1  0.84658  0.19414  0.91976  1
 O  O4  1  0.22562  0.34657  0.41976  1
 O  O5  1  0.77438  0.65343  0.58024  1
 O  O6  1  0.15342  0.80586  0.08024  1
 O  O7  1  0.42681  0.27437  0.08024  1
 O  O8  1  0.30588  0.92678  0.58024  1
 Re  Re1  1  0.62501  0.87499  0.75000  1
 Re  Re2  1  0.37499  0.12501  0.25000  1
