CIF file written using JARVIS-Tools package.
data_Na3NiF6
_symmetry_space_group_name_H-M  'P2_1/c'
_cell_length_a       5.42586
_cell_length_b       5.71716
_cell_length_c       9.49845
_cell_angle_alpha    90
_cell_angle_beta     124.517
_cell_angle_gamma    90

_symmetry_Int_Tables_number  14
_chemical_formula_structural  Na3NiF6
_chemical_formula_sum  Na6Ni2F2
_cell_volume  242.77691292456123
_cell_formula_units_Z  2
loop_
  _symmetry_equiv_pos_site_id
 _symmetry_equiv_pos_as_xyz
 1  'x, y, z'
loop_
 _atom_site_type_symbol
 _atom_site_label
 _atom_site_symmetry_multiplicity
 _atom_site_fract_x
 _atom_site_fract_y
 _atom_site_fract_z
 _atom_site_fract_occupancy
 F  F1  1  0.10695  0.05207  0.22497  1
 F  F2  1  0.75989  0.22128  0.42880  1
 F  F3  1  0.89305  0.94793  0.77503  1
 F  F4  1  0.24011  0.77872  0.57120  1
 F  F5  1  0.75989  0.27872  0.92880  1
 F  F6  1  0.24011  0.72128  0.07120  1
 F  F7  1  0.66644  0.82417  0.94814  1
 F  F8  1  0.66644  0.67583  0.44814  1
 F  F9  1  0.33356  0.17583  0.05186  1
 F  F10  1  0.10695  0.44793  0.72497  1
 F  F11  1  0.89305  0.55207  0.27503  1
 F  F12  1  0.33356  0.32417  0.55186  1
 Na  Na1  1  0.50000  0.00000  0.50000  1
 Na  Na2  1  0.50000  0.50000  -0.00000  1
 Na  Na3  1  0.72628  0.93536  0.24655  1
 Na  Na4  1  0.27372  0.43536  0.25345  1
 Na  Na5  1  0.27372  0.06464  0.75345  1
 Na  Na6  1  0.72628  0.56464  0.74655  1
 Ni  Ni1  1  0.00000  0.00000  0.00000  1
 Ni  Ni2  1  -0.00000  0.50000  0.50000  1
