CIF file written using JARVIS-Tools package.
data_HoCuS2
_symmetry_space_group_name_H-M  'Pnma'
_cell_length_a       3.94521
_cell_length_b       6.25854
_cell_length_c       13.3416
_cell_angle_alpha    90
_cell_angle_beta     90
_cell_angle_gamma    90

_symmetry_Int_Tables_number  62
_chemical_formula_structural  HoCuS2
_chemical_formula_sum  Ho4Cu4S8
_cell_volume  329.4208607118884
_cell_formula_units_Z  4
loop_
  _symmetry_equiv_pos_site_id
 _symmetry_equiv_pos_as_xyz
 1  'x, y, z'
loop_
 _atom_site_type_symbol
 _atom_site_label
 _atom_site_symmetry_multiplicity
 _atom_site_fract_x
 _atom_site_fract_y
 _atom_site_fract_z
 _atom_site_fract_occupancy
 Cu  Cu1  1  0.25000  0.12203  0.95310  1
 Cu  Cu2  1  0.75000  0.62203  0.54690  1
 Cu  Cu3  1  0.75000  0.87797  0.04690  1
 Cu  Cu4  1  0.25000  0.37797  0.45310  1
 Ho  Ho1  1  0.25000  0.50082  0.13364  1
 Ho  Ho2  1  0.75000  0.49918  0.86636  1
 Ho  Ho3  1  0.75000  0.00082  0.36636  1
 Ho  Ho4  1  0.25000  -0.00082  0.63364  1
 S  S1  1  0.25000  0.26270  0.79339  1
 S  S2  1  0.75000  0.73730  0.20661  1
 S  S3  1  0.75000  0.76270  0.70661  1
 S  S4  1  0.25000  0.23730  0.29339  1
 S  S5  1  0.25000  0.74369  0.95952  1
 S  S6  1  0.25000  0.75631  0.45952  1
 S  S7  1  0.75000  0.24369  0.54048  1
 S  S8  1  0.75000  0.25631  0.04048  1
