CIF file written using JARVIS-Tools package.
data_LiV6O7F5
_symmetry_space_group_name_H-M  'P1'
_cell_length_a       4.82564
_cell_length_b       5.56755
_cell_length_c       7.57845
_cell_angle_alpha    84.4687
_cell_angle_beta     88.8448
_cell_angle_gamma    87.7074

_symmetry_Int_Tables_number  1
_chemical_formula_structural  LiV6O7F5
_chemical_formula_sum  LiV6O7F5
_cell_volume  202.47301429541977
_cell_formula_units_Z  1
loop_
  _symmetry_equiv_pos_site_id
 _symmetry_equiv_pos_as_xyz
 1  'x, y, z'
loop_
 _atom_site_type_symbol
 _atom_site_label
 _atom_site_symmetry_multiplicity
 _atom_site_fract_x
 _atom_site_fract_y
 _atom_site_fract_z
 _atom_site_fract_occupancy
 F  F1  1  0.82029  0.68570  0.08943  1
 F  F2  1  0.18514  0.64834  0.57931  1
 F  F3  1  0.17555  0.99218  0.22847  1
 F  F4  1  0.67350  0.51169  0.76389  1
 F  F5  1  0.32673  0.15748  0.56489  1
 Li  Li1  1  0.49664  0.84717  0.15277  1
 O  O1  1  0.82979  0.37769  0.43339  1
 O  O2  1  0.81370  0.01769  0.75152  1
 O  O3  1  0.32635  0.79680  0.91051  1
 O  O4  1  0.32306  0.50118  0.23786  1
 O  O5  1  0.17542  0.30025  0.89698  1
 O  O6  1  0.67923  0.17876  0.08902  1
 O  O7  1  0.67852  0.88272  0.41559  1
 V  V1  1  0.98765  0.31356  0.66832  1
 V  V2  1  0.51987  0.84443  0.66813  1
 V  V3  1  0.55847  0.21389  0.32727  1
 V  V4  1  0.44190  0.46239  -0.00026  1
 V  V5  1  -0.00046  0.00526  0.97166  1
 V  V6  1  0.98995  0.67170  0.33920  1
