CIF file written using JARVIS-Tools package.
data_Ca3Ga2N4
_symmetry_space_group_name_H-M  'C2/c'
_cell_length_a       5.58126
_cell_length_b       6.77764
_cell_length_c       6.77764
_cell_angle_alpha    76.2193
_cell_angle_beta     89.2608
_cell_angle_gamma    89.2608

_symmetry_Int_Tables_number  15
_chemical_formula_structural  Ca3Ga2N4
_chemical_formula_sum  Ca6Ga4N8
_cell_volume  248.9696158059504
_cell_formula_units_Z  2
loop_
  _symmetry_equiv_pos_site_id
 _symmetry_equiv_pos_as_xyz
 1  'x, y, z'
loop_
 _atom_site_type_symbol
 _atom_site_label
 _atom_site_symmetry_multiplicity
 _atom_site_fract_x
 _atom_site_fract_y
 _atom_site_fract_z
 _atom_site_fract_occupancy
 Ca  Ca1  1  0.54483  0.74942  0.01849  1
 Ca  Ca2  1  0.04483  0.01849  0.74942  1
 Ca  Ca3  1  0.25000  0.60199  0.39801  1
 Ca  Ca4  1  0.45517  0.25058  0.98151  1
 Ca  Ca5  1  0.75000  0.39801  0.60199  1
 Ca  Ca6  1  0.95517  0.98151  0.25058  1
 Ga  Ga1  1  0.40354  0.17790  0.41669  1
 Ga  Ga2  1  0.90354  0.41669  0.17790  1
 Ga  Ga3  1  0.09646  0.58331  0.82210  1
 Ga  Ga4  1  0.59646  0.82210  0.58331  1
 N  N1  1  0.06508  0.26022  0.42558  1
 N  N2  1  0.01827  0.70936  0.05684  1
 N  N3  1  0.43492  0.57442  0.73978  1
 N  N4  1  0.51827  0.05684  0.70936  1
 N  N5  1  0.93492  0.73978  0.57442  1
 N  N6  1  0.56508  0.42558  0.26022  1
 N  N7  1  0.98173  0.29064  0.94316  1
 N  N8  1  0.48173  0.94316  0.29064  1
