CIF file written using JARVIS-Tools package.
data_Ga2O3
_symmetry_space_group_name_H-M  'R-3c'
_cell_length_a       5.38155
_cell_length_b       5.38154
_cell_length_c       5.38154
_cell_angle_alpha    55.9812
_cell_angle_beta     55.9812
_cell_angle_gamma    55.9813

_symmetry_Int_Tables_number  167
_chemical_formula_structural  Ga2O3
_chemical_formula_sum  Ga4O6
_cell_volume  99.9450078288249
_cell_formula_units_Z  2
loop_
  _symmetry_equiv_pos_site_id
 _symmetry_equiv_pos_as_xyz
 1  'x, y, z'
loop_
 _atom_site_type_symbol
 _atom_site_label
 _atom_site_symmetry_multiplicity
 _atom_site_fract_x
 _atom_site_fract_y
 _atom_site_fract_z
 _atom_site_fract_occupancy
 Ga  Ga1  1  0.85606  0.85606  0.85606  1
 Ga  Ga2  1  0.64394  0.64394  0.64394  1
 Ga  Ga3  1  0.14394  0.14394  0.14394  1
 Ga  Ga4  1  0.35606  0.35606  0.35606  1
 O  O1  1  0.75000  0.44713  0.05287  1
 O  O2  1  0.44713  0.05287  0.75000  1
 O  O3  1  0.05287  0.75000  0.44713  1
 O  O4  1  0.25000  0.55287  0.94713  1
 O  O5  1  0.94713  0.25000  0.55287  1
 O  O6  1  0.55287  0.94713  0.25000  1
