CIF file written using JARVIS-Tools package.
data_Y3BrO4
_symmetry_space_group_name_H-M  'Cmcm'
_cell_length_a       4.07287
_cell_length_b       6.21844
_cell_length_c       11.6506
_cell_angle_alpha    90
_cell_angle_beta     90
_cell_angle_gamma    109.116

_symmetry_Int_Tables_number  63
_chemical_formula_structural  Y3BrO4
_chemical_formula_sum  Y6Br2O8
_cell_volume  278.8018819492572
_cell_formula_units_Z  2
loop_
  _symmetry_equiv_pos_site_id
 _symmetry_equiv_pos_as_xyz
 1  'x, y, z'
loop_
 _atom_site_type_symbol
 _atom_site_label
 _atom_site_symmetry_multiplicity
 _atom_site_fract_x
 _atom_site_fract_y
 _atom_site_fract_z
 _atom_site_fract_occupancy
 Br  Br1  1  0.00000  0.00000  0.00000  1
 Br  Br2  1  0.00000  0.00000  0.50000  1
 O  O1  1  0.80845  0.61689  0.25000  1
 O  O2  1  0.73032  0.46065  0.58942  1
 O  O3  1  0.73032  0.46065  0.91058  1
 O  O4  1  0.19155  0.38311  0.75000  1
 O  O5  1  0.26968  0.53935  0.41058  1
 O  O6  1  0.56593  0.13186  0.25000  1
 O  O7  1  0.43407  0.86814  0.75000  1
 O  O8  1  0.26968  0.53935  0.08942  1
 Y  Y1  1  0.68496  0.36992  0.10263  1
 Y  Y2  1  0.31504  0.63008  0.89737  1
 Y  Y3  1  0.31504  0.63008  0.60263  1
 Y  Y4  1  0.68496  0.36992  0.39737  1
 Y  Y5  1  0.38131  0.76262  0.25000  1
 Y  Y6  1  0.61869  0.23738  0.75000  1
