CIF file written using JARVIS-Tools package.
data_KSO2F
_symmetry_space_group_name_H-M  'P2_1/m'
_cell_length_a       4.65585
_cell_length_b       5.61328
_cell_length_c       6.76921
_cell_angle_alpha    90
_cell_angle_beta     107.032
_cell_angle_gamma    90

_symmetry_Int_Tables_number  11
_chemical_formula_structural  KSO2F
_chemical_formula_sum  K2S2O4F2
_cell_volume  169.1514828162142
_cell_formula_units_Z  2
loop_
  _symmetry_equiv_pos_site_id
 _symmetry_equiv_pos_as_xyz
 1  'x, y, z'
loop_
 _atom_site_type_symbol
 _atom_site_label
 _atom_site_symmetry_multiplicity
 _atom_site_fract_x
 _atom_site_fract_y
 _atom_site_fract_z
 _atom_site_fract_occupancy
 F  F1  1  0.81610  0.25000  0.87567  1
 F  F2  1  0.18390  0.75000  0.12433  1
 K  K1  1  0.84142  0.75000  0.71690  1
 K  K2  1  0.15858  0.25000  0.28310  1
 O  O1  1  0.67145  0.53334  0.30791  1
 O  O2  1  0.32855  0.03334  0.69209  1
 O  O3  1  0.32855  0.46666  0.69209  1
 O  O4  1  0.67145  0.96666  0.30791  1
 S  S1  1  0.60459  0.75000  0.18035  1
 S  S2  1  0.39541  0.25000  0.81965  1
