CIF file written using JARVIS-Tools package.
data_CaB4O7
_symmetry_space_group_name_H-M  'Pmn2_1'
_cell_length_a       4.21232
_cell_length_b       4.38739
_cell_length_c       10.6363
_cell_angle_alpha    90
_cell_angle_beta     90
_cell_angle_gamma    90

_symmetry_Int_Tables_number  31
_chemical_formula_structural  CaB4O7
_chemical_formula_sum  Ca2B8O4
_cell_volume  196.56996754254197
_cell_formula_units_Z  2
loop_
  _symmetry_equiv_pos_site_id
 _symmetry_equiv_pos_as_xyz
 1  'x, y, z'
loop_
 _atom_site_type_symbol
 _atom_site_label
 _atom_site_symmetry_multiplicity
 _atom_site_fract_x
 _atom_site_fract_y
 _atom_site_fract_z
 _atom_site_fract_occupancy
 B  B1  1  0.61367  0.17821  0.74933  1
 B  B2  1  0.11367  0.82179  0.75067  1
 B  B3  1  0.59151  0.67306  0.87962  1
 B  B4  1  0.09151  0.32694  0.62038  1
 B  B5  1  0.09151  0.32694  0.37962  1
 B  B6  1  0.59151  0.67306  0.12038  1
 B  B7  1  0.11367  0.82179  0.24933  1
 B  B8  1  0.61367  0.17821  0.25067  1
 Ca  Ca1  1  0.59897  0.80405  0.50000  1
 Ca  Ca2  1  0.09897  0.19595  0.00000  1
 O  O1  1  0.16854  0.64797  0.36235  1
 O  O2  1  0.25065  0.72242  0.13368  1
 O  O3  1  0.16854  0.64797  0.63765  1
 O  O4  1  0.75065  0.27758  0.36632  1
 O  O5  1  0.75065  0.27758  0.63368  1
 O  O6  1  0.66854  0.35203  0.86235  1
 O  O7  1  0.25457  0.13737  0.27479  1
 O  O8  1  0.20096  0.21591  0.50000  1
 O  O9  1  0.75457  0.86263  0.77479  1
 O  O10  1  0.25457  0.13737  0.72521  1
 O  O11  1  0.25065  0.72242  0.86632  1
 O  O12  1  0.75457  0.86263  0.22521  1
 O  O13  1  0.70096  0.78409  0.00000  1
 O  O14  1  0.66854  0.35203  0.13765  1
