CIF file written using JARVIS-Tools package.
data_TeO2
_symmetry_space_group_name_H-M  'P4_12_12'
_cell_length_a       4.86745
_cell_length_b       4.86745
_cell_length_c       7.56262
_cell_angle_alpha    90
_cell_angle_beta     90
_cell_angle_gamma    90

_symmetry_Int_Tables_number  92
_chemical_formula_structural  TeO2
_chemical_formula_sum  Te4O8
_cell_volume  179.17380720439948
_cell_formula_units_Z  4
loop_
  _symmetry_equiv_pos_site_id
 _symmetry_equiv_pos_as_xyz
 1  'x, y, z'
loop_
 _atom_site_type_symbol
 _atom_site_label
 _atom_site_symmetry_multiplicity
 _atom_site_fract_x
 _atom_site_fract_y
 _atom_site_fract_z
 _atom_site_fract_occupancy
 O  O1  1  0.74889  0.85948  0.30873  1
 O  O2  1  0.25111  0.14052  0.80873  1
 O  O3  1  0.85948  0.74889  0.69127  1
 O  O4  1  0.35948  0.75111  0.05873  1
 O  O5  1  0.14052  0.25111  0.19127  1
 O  O6  1  0.24889  0.64052  0.44127  1
 O  O7  1  0.75111  0.35948  0.94127  1
 O  O8  1  0.64052  0.24889  0.55873  1
 Te  Te1  1  0.97958  0.97958  0.50000  1
 Te  Te2  1  0.52042  0.47958  0.75000  1
 Te  Te3  1  0.47958  0.52042  0.25000  1
 Te  Te4  1  0.02042  0.02042  0.00000  1
