CIF file written using JARVIS-Tools package.
data_AlPO4
_symmetry_space_group_name_H-M  'Cmcm'
_cell_length_a       4.59334
_cell_length_b       4.59333
_cell_length_c       6.02914
_cell_angle_alpha    90
_cell_angle_beta     90
_cell_angle_gamma    111.868

_symmetry_Int_Tables_number  63
_chemical_formula_structural  AlPO4
_chemical_formula_sum  Al2P2O8
_cell_volume  118.05402645217796
_cell_formula_units_Z  2
loop_
  _symmetry_equiv_pos_site_id
 _symmetry_equiv_pos_as_xyz
 1  'x, y, z'
loop_
 _atom_site_type_symbol
 _atom_site_label
 _atom_site_symmetry_multiplicity
 _atom_site_fract_x
 _atom_site_fract_y
 _atom_site_fract_z
 _atom_site_fract_occupancy
 Al  Al1  1  0.00000  0.00000  0.00000  1
 Al  Al2  1  0.00000  0.00000  0.50000  1
 O  O1  1  0.76257  0.23743  0.45887  1
 O  O2  1  0.23743  0.76257  0.95887  1
 O  O3  1  0.23743  0.76257  0.54113  1
 O  O4  1  0.76257  0.23743  0.04113  1
 O  O5  1  0.22008  0.28090  0.75000  1
 O  O6  1  0.77992  0.71910  0.25000  1
 O  O7  1  0.28090  0.22008  0.25000  1
 O  O8  1  0.71910  0.77992  0.75000  1
 P  P1  1  0.34797  0.65203  0.75000  1
 P  P2  1  0.65203  0.34797  0.25000  1
