CIF file written using JARVIS-Tools package.
data_MgNi4O8
_symmetry_space_group_name_H-M  'R-3m'
_cell_length_a       5.86442
_cell_length_b       5.86442
_cell_length_c       5.86443
_cell_angle_alpha    58.3002
_cell_angle_beta     58.3002
_cell_angle_gamma    58.3001

_symmetry_Int_Tables_number  166
_chemical_formula_structural  MgNi4O8
_chemical_formula_sum  MgNi4O8
_cell_volume  137.06190901956995
_cell_formula_units_Z  1
loop_
  _symmetry_equiv_pos_site_id
 _symmetry_equiv_pos_as_xyz
 1  'x, y, z'
loop_
 _atom_site_type_symbol
 _atom_site_label
 _atom_site_symmetry_multiplicity
 _atom_site_fract_x
 _atom_site_fract_y
 _atom_site_fract_z
 _atom_site_fract_occupancy
 Mg  Mg1  1  0.50000  0.50000  0.50000  1
 Ni  Ni1  1  0.50000  1.00000  0.50000  1
 Ni  Ni2  1  1.00000  0.50000  0.50000  1
 Ni  Ni3  1  0.50000  0.50000  0.00000  1
 Ni  Ni4  1  0.00000  0.00000  0.00000  1
 O  O1  1  0.75431  0.28444  0.75431  1
 O  O2  1  0.24569  0.24569  0.71556  1
 O  O3  1  0.24569  0.71556  0.24569  1
 O  O4  1  0.71556  0.24569  0.24569  1
 O  O5  1  0.26733  0.26733  0.26733  1
 O  O6  1  0.73267  0.73267  0.73267  1
 O  O7  1  0.28444  0.75431  0.75431  1
 O  O8  1  0.75431  0.75431  0.28444  1
