CIF file written using JARVIS-Tools package.
data_Al2BiS4
_symmetry_space_group_name_H-M  'P4/nnc'
_cell_length_a       7.54943
_cell_length_b       7.54943
_cell_length_c       12.0036
_cell_angle_alpha    90
_cell_angle_beta     90
_cell_angle_gamma    90

_symmetry_Int_Tables_number  126
_chemical_formula_structural  Al2BiS4
_chemical_formula_sum  Al8Bi4S6
_cell_volume  684.1334736333038
_cell_formula_units_Z  4
loop_
  _symmetry_equiv_pos_site_id
 _symmetry_equiv_pos_as_xyz
 1  'x, y, z'
loop_
 _atom_site_type_symbol
 _atom_site_label
 _atom_site_symmetry_multiplicity
 _atom_site_fract_x
 _atom_site_fract_y
 _atom_site_fract_z
 _atom_site_fract_occupancy
 Al  Al1  1  0.00000  0.50000  0.75000  1
 Al  Al2  1  0.00000  0.50000  0.00000  1
 Al  Al3  1  0.00000  0.50000  0.25000  1
 Al  Al4  1  0.50000  0.00000  0.50000  1
 Al  Al5  1  0.50000  0.00000  0.25000  1
 Al  Al6  1  0.50000  0.00000  0.75000  1
 Al  Al7  1  0.00000  0.50000  0.50000  1
 Al  Al8  1  0.50000  0.00000  0.00000  1
 Bi  Bi1  1  0.50000  0.50000  0.63208  1
 Bi  Bi2  1  0.00000  0.00000  0.86792  1
 Bi  Bi3  1  0.50000  0.50000  0.36792  1
 Bi  Bi4  1  0.00000  0.00000  0.13208  1
 S  S1  1  0.83638  0.34218  0.87511  1
 S  S2  1  0.83638  0.65782  0.12489  1
 S  S3  1  0.34218  0.83638  0.12489  1
 S  S4  1  0.84218  0.66362  0.62489  1
 S  S5  1  0.33638  0.15782  0.37511  1
 S  S6  1  0.16362  0.65782  0.87511  1
 S  S7  1  0.66362  0.84218  0.37511  1
 S  S8  1  0.15782  0.66362  0.37511  1
 S  S9  1  0.66362  0.15782  0.62489  1
 S  S10  1  0.15782  0.33638  0.62489  1
 S  S11  1  0.65782  0.83638  0.87511  1
 S  S12  1  0.34218  0.16362  0.87511  1
 S  S13  1  0.84218  0.33638  0.37511  1
 S  S14  1  0.16362  0.34218  0.12489  1
 S  S15  1  0.65782  0.16362  0.12489  1
 S  S16  1  0.33638  0.84218  0.62489  1
