CIF file written using JARVIS-Tools package.
data_ZrScPt2
_symmetry_space_group_name_H-M  'Immm'
_cell_length_a       10.3926
_cell_length_b       5.97101
_cell_length_c       5.971
_cell_angle_alpha    50.6504
_cell_angle_beta     29.5116
_cell_angle_gamma    29.5116

_symmetry_Int_Tables_number  71
_chemical_formula_structural  ZrScPt2
_chemical_formula_sum  ZrScPt2
_cell_volume  77.43863399893374
_cell_formula_units_Z  1
loop_
  _symmetry_equiv_pos_site_id
 _symmetry_equiv_pos_as_xyz
 1  'x, y, z'
loop_
 _atom_site_type_symbol
 _atom_site_label
 _atom_site_symmetry_multiplicity
 _atom_site_fract_x
 _atom_site_fract_y
 _atom_site_fract_z
 _atom_site_fract_occupancy
 Pt  Pt1  1  0.75080  0.00000  0.00000  1
 Pt  Pt2  1  0.24920  -0.00000  -0.00000  1
 Sc  Sc1  1  0.00000  0.00000  0.00000  1
 Zr  Zr1  1  0.50000  -0.00000  0.00000  1
