CIF file written using JARVIS-Tools package.
data_Sr2PAu
_symmetry_space_group_name_H-M  'Fm-3m'
_cell_length_a       13.0001
_cell_length_b       9.19331
_cell_length_c       9.19331
_cell_angle_alpha    33.583
_cell_angle_beta     19.488
_cell_angle_gamma    19.488

_symmetry_Int_Tables_number  225
_chemical_formula_structural  Sr2PAu
_chemical_formula_sum  Sr2PAu
_cell_volume  105.91738916108785
_cell_formula_units_Z  1
loop_
  _symmetry_equiv_pos_site_id
 _symmetry_equiv_pos_as_xyz
 1  'x, y, z'
loop_
 _atom_site_type_symbol
 _atom_site_label
 _atom_site_symmetry_multiplicity
 _atom_site_fract_x
 _atom_site_fract_y
 _atom_site_fract_z
 _atom_site_fract_occupancy
 Au  Au1  1  0.50000  0.00000  0.00000  1
 P  P1  1  0.00000  0.00000  0.00000  1
 Sr  Sr1  1  0.75008  -0.00003  -0.00003  1
 Sr  Sr2  1  0.24992  0.00003  0.00003  1
