CIF file written using JARVIS-Tools package.
data_Ti8C5
_symmetry_space_group_name_H-M  'R-3m'
_cell_length_a       6.09141
_cell_length_b       6.0914
_cell_length_c       6.0914
_cell_angle_alpha    60.4918
_cell_angle_beta     60.4918
_cell_angle_gamma    60.4919

_symmetry_Int_Tables_number  166
_chemical_formula_structural  Ti8C5
_chemical_formula_sum  Ti8C5
_cell_volume  161.59891204135636
_cell_formula_units_Z  1
loop_
  _symmetry_equiv_pos_site_id
 _symmetry_equiv_pos_as_xyz
 1  'x, y, z'
loop_
 _atom_site_type_symbol
 _atom_site_label
 _atom_site_symmetry_multiplicity
 _atom_site_fract_x
 _atom_site_fract_y
 _atom_site_fract_z
 _atom_site_fract_occupancy
 C  C1  1  0.00000  0.00000  0.50000  1
 C  C2  1  0.50000  0.00000  0.00000  1
 C  C3  1  -0.00000  0.50000  0.00000  1
 C  C4  1  0.50000  0.50000  0.50000  1
 C  C5  1  0.00000  0.00000  0.00000  1
 Ti  Ti1  1  0.24973  0.76282  0.24973  1
 Ti  Ti2  1  0.24973  0.24973  0.76282  1
 Ti  Ti3  1  0.76282  0.24973  0.24973  1
 Ti  Ti4  1  0.23718  0.75027  0.75027  1
 Ti  Ti5  1  0.75027  0.23718  0.75027  1
 Ti  Ti6  1  0.75027  0.75027  0.23718  1
 Ti  Ti7  1  0.24498  0.24498  0.24498  1
 Ti  Ti8  1  0.75502  0.75502  0.75502  1
