CIF file written using JARVIS-Tools package.
data_KInO2
_symmetry_space_group_name_H-M  'R-3m'
_cell_length_a       3.34467
_cell_length_b       3.34467
_cell_length_c       6.40639
_cell_angle_alpha    74.8668
_cell_angle_beta     74.8668
_cell_angle_gamma    60.0005

_symmetry_Int_Tables_number  166
_chemical_formula_structural  KInO2
_chemical_formula_sum  KInO2
_cell_volume  59.17851413684761
_cell_formula_units_Z  1
loop_
  _symmetry_equiv_pos_site_id
 _symmetry_equiv_pos_as_xyz
 1  'x, y, z'
loop_
 _atom_site_type_symbol
 _atom_site_label
 _atom_site_symmetry_multiplicity
 _atom_site_fract_x
 _atom_site_fract_y
 _atom_site_fract_z
 _atom_site_fract_occupancy
 In  In1  1  0.00000  0.00000  0.99999  1
 K  K1  1  0.50000  0.50000  0.49999  1
 O  O1  1  0.27053  0.27053  0.18840  1
 O  O2  1  0.72948  0.72948  0.81159  1
