CIF file written using JARVIS-Tools package.
data_Li2FeF6
_symmetry_space_group_name_H-M  'P4_2/mnm'
_cell_length_a       4.56174
_cell_length_b       4.56174
_cell_length_c       8.78689
_cell_angle_alpha    90
_cell_angle_beta     90
_cell_angle_gamma    90

_symmetry_Int_Tables_number  136
_chemical_formula_structural  Li2FeF6
_chemical_formula_sum  Li4Fe2F2
_cell_volume  182.85082112349488
_cell_formula_units_Z  2
loop_
  _symmetry_equiv_pos_site_id
 _symmetry_equiv_pos_as_xyz
 1  'x, y, z'
loop_
 _atom_site_type_symbol
 _atom_site_label
 _atom_site_symmetry_multiplicity
 _atom_site_fract_x
 _atom_site_fract_y
 _atom_site_fract_z
 _atom_site_fract_occupancy
 F  F1  1  0.69148  0.69148  0.34746  1
 F  F2  1  0.19148  0.80852  0.84746  1
 F  F3  1  0.19148  0.80852  0.15254  1
 F  F4  1  0.80852  0.19148  0.15254  1
 F  F5  1  0.28060  0.28060  0.00000  1
 F  F6  1  0.21940  0.78060  0.50000  1
 F  F7  1  0.30852  0.30852  0.65254  1
 F  F8  1  0.69148  0.69148  0.65254  1
 F  F9  1  0.80852  0.19148  0.84746  1
 F  F10  1  0.71940  0.71940  0.00000  1
 F  F11  1  0.78060  0.21940  0.50000  1
 F  F12  1  0.30852  0.30852  0.34746  1
 Fe  Fe1  1  0.50000  0.50000  0.50000  1
 Fe  Fe2  1  0.00000  0.00000  0.00000  1
 Li  Li1  1  0.50000  0.50000  0.83552  1
 Li  Li2  1  0.50000  0.50000  0.16448  1
 Li  Li3  1  0.00000  0.00000  0.66448  1
 Li  Li4  1  0.00000  0.00000  0.33552  1
