CIF file written using JARVIS-Tools package.
data_Ba2ClF3
_symmetry_space_group_name_H-M  'P-3m1'
_cell_length_a       4.47352
_cell_length_b       4.47352
_cell_length_c       7.25387
_cell_angle_alpha    90
_cell_angle_beta     90
_cell_angle_gamma    120

_symmetry_Int_Tables_number  164
_chemical_formula_structural  Ba2ClF3
_chemical_formula_sum  Ba2ClF3
_cell_volume  125.71866268138997
_cell_formula_units_Z  1
loop_
  _symmetry_equiv_pos_site_id
 _symmetry_equiv_pos_as_xyz
 1  'x, y, z'
loop_
 _atom_site_type_symbol
 _atom_site_label
 _atom_site_symmetry_multiplicity
 _atom_site_fract_x
 _atom_site_fract_y
 _atom_site_fract_z
 _atom_site_fract_occupancy
 Ba  Ba1  1  0.66667  0.33333  0.20544  1
 Ba  Ba2  1  0.33333  0.66667  0.79456  1
 Cl  Cl1  1  0.00000  0.00000  0.50000  1
 F  F1  1  0.00000  0.00000  0.00000  1
 F  F2  1  0.66667  0.33333  0.82940  1
 F  F3  1  0.33333  0.66667  0.17060  1
