CIF file written using JARVIS-Tools package.
data_CeFe4P12
_symmetry_space_group_name_H-M  'Im-3'
_cell_length_a       6.78262
_cell_length_b       6.78262
_cell_length_c       6.78262
_cell_angle_alpha    109.471
_cell_angle_beta     109.471
_cell_angle_gamma    109.471

_symmetry_Int_Tables_number  204
_chemical_formula_structural  CeFe4P12
_chemical_formula_sum  CeFe4P2
_cell_volume  240.19899105693233
_cell_formula_units_Z  1
loop_
  _symmetry_equiv_pos_site_id
 _symmetry_equiv_pos_as_xyz
 1  'x, y, z'
loop_
 _atom_site_type_symbol
 _atom_site_label
 _atom_site_symmetry_multiplicity
 _atom_site_fract_x
 _atom_site_fract_y
 _atom_site_fract_z
 _atom_site_fract_occupancy
 Ce  Ce1  1  0.00000  0.00000  0.00000  1
 Fe  Fe1  1  0.00000  0.50000  0.00000  1
 Fe  Fe2  1  0.00000  0.00000  0.50000  1
 Fe  Fe3  1  0.50000  0.00000  0.00000  1
 Fe  Fe4  1  0.50000  0.50000  0.50000  1
 P  P1  1  0.19885  0.84872  0.35013  1
 P  P2  1  0.80115  0.15128  0.64987  1
 P  P3  1  0.15128  0.35013  0.50141  1
 P  P4  1  0.35013  0.50141  0.15128  1
 P  P5  1  0.50141  0.15128  0.35013  1
 P  P6  1  0.49859  0.84872  0.64987  1
 P  P7  1  0.35013  0.19885  0.84872  1
 P  P8  1  0.64987  0.80115  0.15128  1
 P  P9  1  0.84872  0.35013  0.19885  1
 P  P10  1  0.64987  0.49859  0.84872  1
 P  P11  1  0.15128  0.64987  0.80115  1
 P  P12  1  0.84872  0.64987  0.49859  1
