CIF file written using JARVIS-Tools package.
data_Li3V4O7F5
_symmetry_space_group_name_H-M  'P1'
_cell_length_a       5.00512
_cell_length_b       5.30312
_cell_length_c       8.78878
_cell_angle_alpha    71.8666
_cell_angle_beta     105.41
_cell_angle_gamma    117.548

_symmetry_Int_Tables_number  1
_chemical_formula_structural  Li3V4O7F5
_chemical_formula_sum  Li3V4O7F5
_cell_volume  194.49461189687585
_cell_formula_units_Z  1
loop_
  _symmetry_equiv_pos_site_id
 _symmetry_equiv_pos_as_xyz
 1  'x, y, z'
loop_
 _atom_site_type_symbol
 _atom_site_label
 _atom_site_symmetry_multiplicity
 _atom_site_fract_x
 _atom_site_fract_y
 _atom_site_fract_z
 _atom_site_fract_occupancy
 F  F1  1  0.24892  0.14024  0.62840  1
 F  F2  1  0.67667  0.95789  0.80519  1
 F  F3  1  0.73774  0.61186  0.12180  1
 F  F4  1  0.33598  0.70650  0.57208  1
 F  F5  1  0.31497  0.04837  0.19087  1
 Li  Li1  1  0.79980  0.01402  0.60244  1
 Li  Li2  1  0.43705  0.73127  0.13879  1
 Li  Li3  1  0.55989  0.27959  0.85346  1
 O  O1  1  0.19797  0.43269  0.31404  1
 O  O2  1  0.17562  0.82802  0.92804  1
 O  O3  1  0.74057  0.87569  0.37612  1
 O  O4  1  0.79247  0.15876  0.06729  1
 O  O5  1  0.80937  0.57375  0.68300  1
 O  O6  1  0.69806  0.32086  0.43044  1
 O  O7  1  0.23451  0.37922  0.87770  1
 V  V1  1  0.01410  0.01850  0.00276  1
 V  V2  1  0.53157  0.50613  0.48122  1
 V  V3  1  0.80155  0.24151  0.26403  1
 V  V4  1  0.20256  0.70501  0.76506  1
