CIF file written using JARVIS-Tools package.
data_MnZnO2
_symmetry_space_group_name_H-M  'P-1'
_cell_length_a       3.21543
_cell_length_b       8.52317
_cell_length_c       8.37957
_cell_angle_alpha    85.551
_cell_angle_beta     78.8355
_cell_angle_gamma    74.5634

_symmetry_Int_Tables_number  2
_chemical_formula_structural  MnZnO2
_chemical_formula_sum  Mn4Zn4O8
_cell_volume  217.09207561950575
_cell_formula_units_Z  4
loop_
  _symmetry_equiv_pos_site_id
 _symmetry_equiv_pos_as_xyz
 1  'x, y, z'
loop_
 _atom_site_type_symbol
 _atom_site_label
 _atom_site_symmetry_multiplicity
 _atom_site_fract_x
 _atom_site_fract_y
 _atom_site_fract_z
 _atom_site_fract_occupancy
 Mn  Mn1  1  0.82476  0.78667  0.59196  1
 Mn  Mn2  1  0.75870  0.61807  0.25483  1
 Mn  Mn3  1  0.21701  0.40201  0.77337  1
 Mn  Mn4  1  0.15102  0.23343  0.43624  1
 O  O1  1  0.56667  0.25108  0.58335  1
 O  O2  1  0.98406  0.64010  0.79455  1
 O  O3  1  -0.00828  0.37998  0.23366  1
 O  O4  1  0.40910  0.76900  0.44486  1
 O  O5  1  0.38423  0.94441  0.76632  1
 O  O6  1  0.23543  0.73438  0.13875  1
 O  O7  1  0.59152  0.07567  0.26188  1
 O  O8  1  0.74028  0.28570  0.88945  1
 Zn  Zn1  1  0.18957  0.93525  0.25908  1
 Zn  Zn2  1  0.78620  0.08483  0.76912  1
 Zn  Zn3  1  0.62159  0.28239  0.12307  1
 Zn  Zn4  1  0.35424  0.73768  0.90512  1
