CIF file written using JARVIS-Tools package.
data_SrSc2O4
_symmetry_space_group_name_H-M  'Cmcm'
_cell_length_a       5.48186
_cell_length_b       5.48186
_cell_length_c       10.6462
_cell_angle_alpha    90
_cell_angle_beta     90
_cell_angle_gamma    33.8798

_symmetry_Int_Tables_number  63
_chemical_formula_structural  SrSc2O4
_chemical_formula_sum  Sr2Sc4O8
_cell_volume  178.34448093573593
_cell_formula_units_Z  2
loop_
  _symmetry_equiv_pos_site_id
 _symmetry_equiv_pos_as_xyz
 1  'x, y, z'
loop_
 _atom_site_type_symbol
 _atom_site_label
 _atom_site_symmetry_multiplicity
 _atom_site_fract_x
 _atom_site_fract_y
 _atom_site_fract_z
 _atom_site_fract_occupancy
 O  O1  1  0.00000  0.00000  0.00000  1
 O  O2  1  0.00000  0.00000  0.50000  1
 O  O3  1  0.26298  0.26298  0.60487  1
 O  O4  1  0.43544  0.43544  0.25000  1
 O  O5  1  0.56456  0.56456  0.75000  1
 O  O6  1  0.73702  0.73702  0.39513  1
 O  O7  1  0.26298  0.26298  0.89513  1
 O  O8  1  0.73702  0.73702  0.10487  1
 Sc  Sc1  1  0.36512  0.36512  0.42951  1
 Sc  Sc2  1  0.63488  0.63488  0.57049  1
 Sc  Sc3  1  0.36512  0.36512  0.07049  1
 Sc  Sc4  1  0.63488  0.63488  0.92951  1
 Sr  Sr1  1  0.11185  0.11185  0.25000  1
 Sr  Sr2  1  0.88815  0.88815  0.75000  1
