CIF file written using JARVIS-Tools package.
data_UH2O4
_symmetry_space_group_name_H-M  'C2'
_cell_length_a       4.16164
_cell_length_b       7.23662
_cell_length_c       7.23657
_cell_angle_alpha    33.5522
_cell_angle_beta     57.2716
_cell_angle_gamma    57.2687

_symmetry_Int_Tables_number  5
_chemical_formula_structural  UH2O4
_chemical_formula_sum  UH2O4
_cell_volume  99.40919596613685
_cell_formula_units_Z  1
loop_
  _symmetry_equiv_pos_site_id
 _symmetry_equiv_pos_as_xyz
 1  'x, y, z'
loop_
 _atom_site_type_symbol
 _atom_site_label
 _atom_site_symmetry_multiplicity
 _atom_site_fract_x
 _atom_site_fract_y
 _atom_site_fract_z
 _atom_site_fract_occupancy
 H  H1  1  0.49300  0.92480  0.59745  1
 H  H2  1  0.55593  0.39770  0.07034  1
 O  O1  1  0.37253  0.78137  0.84708  1
 O  O2  1  0.67639  0.14805  0.21378  1
 O  O3  1  0.52445  0.96732  0.02782  1
 O  O4  1  0.02445  0.46250  0.53264  1
 U  U1  1  0.02445  0.96674  0.02840  1
