CIF file written using JARVIS-Tools package.
data_Tm2NiAs2
_symmetry_space_group_name_H-M  'P6_3mc'
_cell_length_a       4.07011
_cell_length_b       4.07011
_cell_length_c       13.9071
_cell_angle_alpha    90
_cell_angle_beta     90
_cell_angle_gamma    120

_symmetry_Int_Tables_number  186
_chemical_formula_structural  Tm2NiAs2
_chemical_formula_sum  Tm4Ni2As4
_cell_volume  199.51624627681545
_cell_formula_units_Z  2
loop_
  _symmetry_equiv_pos_site_id
 _symmetry_equiv_pos_as_xyz
 1  'x, y, z'
loop_
 _atom_site_type_symbol
 _atom_site_label
 _atom_site_symmetry_multiplicity
 _atom_site_fract_x
 _atom_site_fract_y
 _atom_site_fract_z
 _atom_site_fract_occupancy
 As  As1  1  0.00000  0.00000  0.49793  1
 As  As2  1  0.00000  0.00000  -0.00207  1
 As  As3  1  0.66667  0.33333  0.74995  1
 As  As4  1  0.33333  0.66667  0.24995  1
 Ni  Ni1  1  0.00000  0.00000  0.74083  1
 Ni  Ni2  1  0.00000  0.00000  0.24083  1
 Tm  Tm1  1  0.33333  0.66667  0.88030  1
 Tm  Tm2  1  0.66667  0.33333  0.38030  1
 Tm  Tm3  1  0.66667  0.33333  0.11466  1
 Tm  Tm4  1  0.33333  0.66667  0.61466  1
