CIF file written using JARVIS-Tools package.
data_KHO
_symmetry_space_group_name_H-M  'P2_1'
_cell_length_a       3.94039
_cell_length_b       3.95428
_cell_length_c       5.58202
_cell_angle_alpha    90
_cell_angle_beta     110.028
_cell_angle_gamma    90

_symmetry_Int_Tables_number  4
_chemical_formula_structural  KHO
_chemical_formula_sum  K2H2O2
_cell_volume  81.71627063822069
_cell_formula_units_Z  2
loop_
  _symmetry_equiv_pos_site_id
 _symmetry_equiv_pos_as_xyz
 1  'x, y, z'
loop_
 _atom_site_type_symbol
 _atom_site_label
 _atom_site_symmetry_multiplicity
 _atom_site_fract_x
 _atom_site_fract_y
 _atom_site_fract_z
 _atom_site_fract_occupancy
 H  H1  1  0.46686  0.90087  0.93505  1
 H  H2  1  0.53314  0.40087  0.06495  1
 K  K1  1  0.14311  0.76004  0.28192  1
 K  K2  1  0.85689  0.26004  0.71808  1
 O  O1  1  0.38938  0.73851  0.79176  1
 O  O2  1  0.61062  0.23851  0.20824  1
