CIF file written using JARVIS-Tools package.
data_CaSn4O8
_symmetry_space_group_name_H-M  'R-3m'
_cell_length_a       6.84354
_cell_length_b       6.84354
_cell_length_c       6.84354
_cell_angle_alpha    57.9553
_cell_angle_beta     57.9553
_cell_angle_gamma    57.9553

_symmetry_Int_Tables_number  166
_chemical_formula_structural  CaSn4O8
_chemical_formula_sum  CaSn4O8
_cell_volume  216.00266449233243
_cell_formula_units_Z  1
loop_
  _symmetry_equiv_pos_site_id
 _symmetry_equiv_pos_as_xyz
 1  'x, y, z'
loop_
 _atom_site_type_symbol
 _atom_site_label
 _atom_site_symmetry_multiplicity
 _atom_site_fract_x
 _atom_site_fract_y
 _atom_site_fract_z
 _atom_site_fract_occupancy
 Ca  Ca1  1  0.50000  0.50000  0.50000  1
 O  O1  1  0.74762  0.30783  0.74762  1
 O  O2  1  0.25238  0.25238  0.69217  1
 O  O3  1  0.25238  0.69217  0.25238  1
 O  O4  1  0.69216  0.25238  0.25238  1
 O  O5  1  0.27104  0.27104  0.27104  1
 O  O6  1  0.72896  0.72896  0.72896  1
 O  O7  1  0.30784  0.74762  0.74762  1
 O  O8  1  0.74762  0.74762  0.30783  1
 Sn  Sn1  1  0.50000  1.00000  0.50000  1
 Sn  Sn2  1  1.00000  0.50000  0.50000  1
 Sn  Sn3  1  0.50000  0.50000  0.00000  1
 Sn  Sn4  1  0.00000  0.00000  0.00000  1
