CIF file written using JARVIS-Tools package.
data_Cr2CdSe4
_symmetry_space_group_name_H-M  'Fd-3m'
_cell_length_a       7.65639
_cell_length_b       7.6564
_cell_length_c       7.6564
_cell_angle_alpha    60
_cell_angle_beta     60
_cell_angle_gamma    60

_symmetry_Int_Tables_number  227
_chemical_formula_structural  Cr2CdSe4
_chemical_formula_sum  Cr4Cd2Se8
_cell_volume  317.36424388829755
_cell_formula_units_Z  2
loop_
  _symmetry_equiv_pos_site_id
 _symmetry_equiv_pos_as_xyz
 1  'x, y, z'
loop_
 _atom_site_type_symbol
 _atom_site_label
 _atom_site_symmetry_multiplicity
 _atom_site_fract_x
 _atom_site_fract_y
 _atom_site_fract_z
 _atom_site_fract_occupancy
 Cd  Cd1  1  0.12500  0.12500  0.12500  1
 Cd  Cd2  1  0.87500  0.87500  0.87500  1
 Cr  Cr1  1  0.50000  0.00000  0.50000  1
 Cr  Cr2  1  -0.00000  0.50000  0.50000  1
 Cr  Cr3  1  0.50000  0.50000  0.50000  1
 Cr  Cr4  1  0.50000  0.50000  0.00000  1
 Se  Se1  1  0.26517  0.26517  0.70450  1
 Se  Se2  1  0.73483  0.73483  0.73483  1
 Se  Se3  1  0.26517  0.26517  0.26517  1
 Se  Se4  1  0.73483  0.73483  0.29550  1
 Se  Se5  1  0.29550  0.73483  0.73483  1
 Se  Se6  1  0.73483  0.29550  0.73483  1
 Se  Se7  1  0.70450  0.26517  0.26517  1
 Se  Se8  1  0.26517  0.70450  0.26517  1
