CIF file written using JARVIS-Tools package.
data_Ba3SiO5
_symmetry_space_group_name_H-M  'I4/mcm'
_cell_length_a       7.348
_cell_length_b       7.34799
_cell_length_c       7.70215
_cell_angle_alpha    118.49
_cell_angle_beta     118.49
_cell_angle_gamma    89.9999

_symmetry_Int_Tables_number  140
_chemical_formula_structural  Ba3SiO5
_chemical_formula_sum  Ba6Si2O0
_cell_volume  306.98513026768353
_cell_formula_units_Z  2
loop_
  _symmetry_equiv_pos_site_id
 _symmetry_equiv_pos_as_xyz
 1  'x, y, z'
loop_
 _atom_site_type_symbol
 _atom_site_label
 _atom_site_symmetry_multiplicity
 _atom_site_fract_x
 _atom_site_fract_y
 _atom_site_fract_z
 _atom_site_fract_occupancy
 Ba  Ba1  1  0.25000  0.25000  0.50000  1
 Ba  Ba2  1  0.18147  0.68147  -0.00000  1
 Ba  Ba3  1  0.31853  0.18147  -0.00000  1
 Ba  Ba4  1  0.68147  0.81853  0.00000  1
 Ba  Ba5  1  0.81853  0.31853  0.00000  1
 Ba  Ba6  1  0.75000  0.75000  0.50000  1
 O  O1  1  0.53485  0.03485  0.32490  1
 O  O2  1  0.79005  0.29005  0.32490  1
 O  O3  1  0.03485  0.79005  0.32490  1
 O  O4  1  0.29005  0.53485  0.32490  1
 O  O5  1  0.96515  0.20995  0.67510  1
 O  O6  1  0.50000  0.50000  -0.00000  1
 O  O7  1  0.20995  0.70995  0.67510  1
 O  O8  1  0.46515  0.96515  0.67510  1
 O  O9  1  0.70995  0.46515  0.67510  1
 O  O10  1  0.00000  0.00000  0.00000  1
 Si  Si1  1  0.75000  0.25000  0.50000  1
 Si  Si2  1  0.25000  0.75000  0.50000  1
