CIF file written using JARVIS-Tools package.
data_NdCuSe2
_symmetry_space_group_name_H-M  'P2_1/c'
_cell_length_a       6.71778
_cell_length_b       7.51078
_cell_length_c       7.22451
_cell_angle_alpha    90
_cell_angle_beta     96.6304
_cell_angle_gamma    90

_symmetry_Int_Tables_number  14
_chemical_formula_structural  NdCuSe2
_chemical_formula_sum  Nd4Cu4Se8
_cell_volume  362.08051221257983
_cell_formula_units_Z  4
loop_
  _symmetry_equiv_pos_site_id
 _symmetry_equiv_pos_as_xyz
 1  'x, y, z'
loop_
 _atom_site_type_symbol
 _atom_site_label
 _atom_site_symmetry_multiplicity
 _atom_site_fract_x
 _atom_site_fract_y
 _atom_site_fract_z
 _atom_site_fract_occupancy
 Cu  Cu1  1  0.93341  0.83840  0.45540  1
 Cu  Cu2  1  0.06659  0.16160  0.54460  1
 Cu  Cu3  1  0.93341  0.66160  0.95540  1
 Cu  Cu4  1  0.06659  0.33840  0.04460  1
 Nd  Nd1  1  0.30746  0.54556  0.70060  1
 Nd  Nd2  1  0.69254  0.04556  0.79940  1
 Nd  Nd3  1  0.69254  0.45444  0.29940  1
 Nd  Nd4  1  0.30746  0.95444  0.20060  1
 Se  Se1  1  0.58146  0.72391  0.99903  1
 Se  Se2  1  0.58146  0.77609  0.49903  1
 Se  Se3  1  0.41854  0.22391  0.50097  1
 Se  Se4  1  0.41854  0.27609  0.00097  1
 Se  Se5  1  0.10068  0.61026  0.28093  1
 Se  Se6  1  0.89932  0.11026  0.21907  1
 Se  Se7  1  0.89932  0.38974  0.71907  1
 Se  Se8  1  0.10068  0.88974  0.78093  1
