CIF file written using JARVIS-Tools package.
data_Tm2S3
_symmetry_space_group_name_H-M  'R-3c'
_cell_length_a       7.2336
_cell_length_b       7.2336
_cell_length_c       7.2336
_cell_angle_alpha    55.8311
_cell_angle_beta     55.8311
_cell_angle_gamma    55.8311

_symmetry_Int_Tables_number  167
_chemical_formula_structural  Tm2S3
_chemical_formula_sum  Tm4S6
_cell_volume  241.76954274219983
_cell_formula_units_Z  2
loop_
  _symmetry_equiv_pos_site_id
 _symmetry_equiv_pos_as_xyz
 1  'x, y, z'
loop_
 _atom_site_type_symbol
 _atom_site_label
 _atom_site_symmetry_multiplicity
 _atom_site_fract_x
 _atom_site_fract_y
 _atom_site_fract_z
 _atom_site_fract_occupancy
 S  S1  1  0.05340  0.75000  0.44660  1
 S  S2  1  0.75000  0.44660  0.05340  1
 S  S3  1  0.44660  0.05340  0.75000  1
 S  S4  1  0.94660  0.25000  0.55340  1
 S  S5  1  0.55340  0.94660  0.25000  1
 S  S6  1  0.25000  0.55340  0.94660  1
 Tm  Tm1  1  0.84971  0.84971  0.84971  1
 Tm  Tm2  1  0.65029  0.65029  0.65029  1
 Tm  Tm3  1  0.15029  0.15029  0.15029  1
 Tm  Tm4  1  0.34971  0.34971  0.34971  1
