CIF file written using JARVIS-Tools package.
data_LiNiPO4
_symmetry_space_group_name_H-M  'Cmcm'
_cell_length_a       4.96467
_cell_length_b       4.96467
_cell_length_c       6.16404
_cell_angle_alpha    90
_cell_angle_beta     90
_cell_angle_gamma    68.615

_symmetry_Int_Tables_number  63
_chemical_formula_structural  LiNiPO4
_chemical_formula_sum  Li2Ni2P2O8
_cell_volume  141.47040931518987
_cell_formula_units_Z  2
loop_
  _symmetry_equiv_pos_site_id
 _symmetry_equiv_pos_as_xyz
 1  'x, y, z'
loop_
 _atom_site_type_symbol
 _atom_site_label
 _atom_site_symmetry_multiplicity
 _atom_site_fract_x
 _atom_site_fract_y
 _atom_site_fract_z
 _atom_site_fract_occupancy
 Li  Li1  1  0.50000  0.50000  0.00000  1
 Li  Li2  1  0.50000  0.50000  0.50000  1
 Ni  Ni1  1  0.18335  0.18335  0.25000  1
 Ni  Ni2  1  0.81665  0.81665  0.75000  1
 O  O1  1  0.24360  0.80216  0.75000  1
 O  O2  1  0.19784  0.75640  0.25000  1
 O  O3  1  0.25119  0.25119  0.54820  1
 O  O4  1  0.74881  0.74881  0.04820  1
 O  O5  1  0.25119  0.25119  0.95180  1
 O  O6  1  0.74881  0.74881  0.45180  1
 O  O7  1  0.75640  0.19784  0.25000  1
 O  O8  1  0.80216  0.24360  0.75000  1
 P  P1  1  0.13991  0.13991  0.75000  1
 P  P2  1  0.86009  0.86009  0.25000  1
