CIF file written using JARVIS-Tools package.
data_MnAlF5
_symmetry_space_group_name_H-M  'Cmcm'
_cell_length_a       3.61751
_cell_length_b       5.29337
_cell_length_c       9.58511
_cell_angle_alpha    90
_cell_angle_beta     90
_cell_angle_gamma    109.981

_symmetry_Int_Tables_number  63
_chemical_formula_structural  MnAlF5
_chemical_formula_sum  Mn2Al2F0
_cell_volume  172.49587872747946
_cell_formula_units_Z  2
loop_
  _symmetry_equiv_pos_site_id
 _symmetry_equiv_pos_as_xyz
 1  'x, y, z'
loop_
 _atom_site_type_symbol
 _atom_site_label
 _atom_site_symmetry_multiplicity
 _atom_site_fract_x
 _atom_site_fract_y
 _atom_site_fract_z
 _atom_site_fract_occupancy
 Al  Al1  1  0.79427  0.58854  0.25000  1
 Al  Al2  1  0.20573  0.41146  0.75000  1
 F  F1  1  0.30552  0.61105  0.25000  1
 F  F2  1  0.69448  0.38895  0.75000  1
 F  F3  1  0.07241  0.14483  0.61512  1
 F  F4  1  0.92759  0.85517  0.38488  1
 F  F5  1  0.33087  0.66174  0.88433  1
 F  F6  1  0.66913  0.33826  0.11567  1
 F  F7  1  0.66913  0.33826  0.38433  1
 F  F8  1  0.33087  0.66174  0.61567  1
 F  F9  1  0.07241  0.14483  0.88488  1
 F  F10  1  0.92759  0.85517  0.11512  1
 Mn  Mn1  1  0.50000  0.00000  0.50000  1
 Mn  Mn2  1  0.50000  0.00000  0.00000  1
