CIF file written using JARVIS-Tools package.
data_Y3CuSiSe7
_symmetry_space_group_name_H-M  'P6_3'
_cell_length_a       10.3256
_cell_length_b       10.3256
_cell_length_c       6.00336
_cell_angle_alpha    90
_cell_angle_beta     90
_cell_angle_gamma    120

_symmetry_Int_Tables_number  173
_chemical_formula_structural  Y3CuSiSe7
_chemical_formula_sum  Y6Cu2Si2Se4
_cell_volume  554.3087324160908
_cell_formula_units_Z  2
loop_
  _symmetry_equiv_pos_site_id
 _symmetry_equiv_pos_as_xyz
 1  'x, y, z'
loop_
 _atom_site_type_symbol
 _atom_site_label
 _atom_site_symmetry_multiplicity
 _atom_site_fract_x
 _atom_site_fract_y
 _atom_site_fract_z
 _atom_site_fract_occupancy
 Cu  Cu1  1  0.00000  0.00000  0.96832  1
 Cu  Cu2  1  0.00000  0.00000  0.46832  1
 Se  Se1  1  0.83715  0.73756  0.95210  1
 Se  Se2  1  0.26244  0.09959  0.95210  1
 Se  Se3  1  0.47895  0.57841  0.17954  1
 Se  Se4  1  0.90041  0.16285  0.95210  1
 Se  Se5  1  0.73756  0.90041  0.45210  1
 Se  Se6  1  0.42159  0.90054  0.17954  1
 Se  Se7  1  0.09946  0.52105  0.17954  1
 Se  Se8  1  0.90054  0.47895  0.67954  1
 Se  Se9  1  0.33333  0.66667  0.71327  1
 Se  Se10  1  0.52105  0.42159  0.67954  1
 Se  Se11  1  0.57841  0.09946  0.67954  1
 Se  Se12  1  0.09959  0.83715  0.45210  1
 Se  Se13  1  0.16285  0.26244  0.45210  1
 Se  Se14  1  0.66667  0.33333  0.21327  1
 Si  Si1  1  0.33333  0.66667  0.33517  1
 Si  Si2  1  0.66667  0.33333  0.83517  1
 Y  Y1  1  0.86731  0.22360  0.42341  1
 Y  Y2  1  0.22360  0.35628  0.92341  1
 Y  Y3  1  0.35628  0.13269  0.42341  1
 Y  Y4  1  0.77640  0.64372  0.42341  1
 Y  Y5  1  0.13269  0.77640  0.92341  1
 Y  Y6  1  0.64372  0.86731  0.92341  1
