CIF file written using JARVIS-Tools package.
data_SbAsO4
_symmetry_space_group_name_H-M  'P2_1/m'
_cell_length_a       4.76381
_cell_length_b       7.07842
_cell_length_c       5.36653
_cell_angle_alpha    90
_cell_angle_beta     95.1239
_cell_angle_gamma    90

_symmetry_Int_Tables_number  11
_chemical_formula_structural  SbAsO4
_chemical_formula_sum  Sb2As2O8
_cell_volume  180.23749390725348
_cell_formula_units_Z  2
loop_
  _symmetry_equiv_pos_site_id
 _symmetry_equiv_pos_as_xyz
 1  'x, y, z'
loop_
 _atom_site_type_symbol
 _atom_site_label
 _atom_site_symmetry_multiplicity
 _atom_site_fract_x
 _atom_site_fract_y
 _atom_site_fract_z
 _atom_site_fract_occupancy
 As  As1  1  0.70612  0.75000  0.11173  1
 As  As2  1  0.29388  0.25000  0.88827  1
 O  O1  1  0.81625  0.56152  0.29197  1
 O  O2  1  0.18375  0.06152  0.70803  1
 O  O3  1  0.18375  0.43848  0.70803  1
 O  O4  1  0.81625  0.93848  0.29197  1
 O  O5  1  0.79992  0.75000  0.80437  1
 O  O6  1  0.20008  0.25000  0.19563  1
 O  O7  1  0.34219  0.75000  0.04614  1
 O  O8  1  0.65781  0.25000  0.95386  1
 Sb  Sb1  1  0.18685  0.75000  0.66843  1
 Sb  Sb2  1  0.81315  0.25000  0.33157  1
