CIF file written using JARVIS-Tools package.
data_AlFeO3
_symmetry_space_group_name_H-M  'Pnma'
_cell_length_a       4.8525
_cell_length_b       4.92667
_cell_length_c       7.25839
_cell_angle_alpha    89.9999
_cell_angle_beta     90.0006
_cell_angle_gamma    90.0007

_symmetry_Int_Tables_number  62
_chemical_formula_structural  AlFeO3
_chemical_formula_sum  Al4Fe4O2
_cell_volume  173.52371614799773
_cell_formula_units_Z  4
loop_
  _symmetry_equiv_pos_site_id
 _symmetry_equiv_pos_as_xyz
 1  'x, y, z'
loop_
 _atom_site_type_symbol
 _atom_site_label
 _atom_site_symmetry_multiplicity
 _atom_site_fract_x
 _atom_site_fract_y
 _atom_site_fract_z
 _atom_site_fract_occupancy
 Al  Al1  1  0.00517  0.04001  0.74989  1
 Al  Al2  1  0.50517  0.46000  0.24990  1
 Al  Al3  1  0.49483  0.54000  0.75010  1
 Al  Al4  1  0.99483  0.95999  0.25011  1
 Fe  Fe1  1  -0.00000  0.50000  0.50000  1
 Fe  Fe2  1  0.50000  -0.00000  0.50000  1
 Fe  Fe3  1  0.50000  -0.00000  -0.00000  1
 Fe  Fe4  1  -0.00000  0.50000  -0.00000  1
 O  O1  1  0.33301  0.67036  0.42479  1
 O  O2  1  0.63985  0.10294  0.25003  1
 O  O3  1  0.16699  0.17035  0.07521  1
 O  O4  1  0.66694  0.32967  0.92499  1
 O  O5  1  0.83307  0.82968  0.57500  1
 O  O6  1  0.86014  0.60294  0.24997  1
 O  O7  1  0.83301  0.82965  0.92479  1
 O  O8  1  0.33306  0.67033  0.07501  1
 O  O9  1  0.66699  0.32964  0.57521  1
 O  O10  1  0.36015  0.89706  0.74997  1
 O  O11  1  0.16693  0.17032  0.42500  1
 O  O12  1  0.13986  0.39706  0.75003  1
