CIF file written using JARVIS-Tools package.
data_KPt2Se3
_symmetry_space_group_name_H-M  'R-3m'
_cell_length_a       7.65557
_cell_length_b       7.65557
_cell_length_c       7.65557
_cell_angle_alpha    58.4872
_cell_angle_beta     58.4872
_cell_angle_gamma    58.4872

_symmetry_Int_Tables_number  166
_chemical_formula_structural  KPt2Se3
_chemical_formula_sum  K2Pt4Se6
_cell_volume  306.2818699629055
_cell_formula_units_Z  2
loop_
  _symmetry_equiv_pos_site_id
 _symmetry_equiv_pos_as_xyz
 1  'x, y, z'
loop_
 _atom_site_type_symbol
 _atom_site_label
 _atom_site_symmetry_multiplicity
 _atom_site_fract_x
 _atom_site_fract_y
 _atom_site_fract_z
 _atom_site_fract_occupancy
 K  K1  1  0.20096  0.20096  0.20096  1
 K  K2  1  0.79904  0.79904  0.79904  1
 Pt  Pt1  1  0.00000  0.00000  0.00000  1
 Pt  Pt2  1  0.50000  -0.00000  0.50000  1
 Pt  Pt3  1  -0.00000  0.50000  0.50000  1
 Pt  Pt4  1  0.50000  0.50000  -0.00000  1
 Se  Se1  1  0.76225  0.76225  0.27525  1
 Se  Se2  1  0.23775  0.72475  0.23775  1
 Se  Se3  1  0.76225  0.27525  0.76225  1
 Se  Se4  1  0.27525  0.76225  0.76225  1
 Se  Se5  1  0.23775  0.23775  0.72475  1
 Se  Se6  1  0.72475  0.23775  0.23775  1
