CIF file written using JARVIS-Tools package.
data_Mg3Ti2O7
_symmetry_space_group_name_H-M  'Cmc2_1'
_cell_length_a       5.346
_cell_length_b       5.16683
_cell_length_c       9.29378
_cell_angle_alpha    106.139
_cell_angle_beta     90
_cell_angle_gamma    90

_symmetry_Int_Tables_number  36
_chemical_formula_structural  Mg3Ti2O7
_chemical_formula_sum  Mg6Ti4O4
_cell_volume  246.59450329298699
_cell_formula_units_Z  2
loop_
  _symmetry_equiv_pos_site_id
 _symmetry_equiv_pos_as_xyz
 1  'x, y, z'
loop_
 _atom_site_type_symbol
 _atom_site_label
 _atom_site_symmetry_multiplicity
 _atom_site_fract_x
 _atom_site_fract_y
 _atom_site_fract_z
 _atom_site_fract_occupancy
 Mg  Mg1  1  0.70438  0.73974  -0.00000  1
 Mg  Mg2  1  0.20438  0.26026  0.00000  1
 Mg  Mg3  1  0.82113  0.56165  0.61092  1
 Mg  Mg4  1  0.32113  0.43835  0.38908  1
 Mg  Mg5  1  0.82113  0.95073  0.38908  1
 Mg  Mg6  1  0.32113  0.04927  0.61092  1
 O  O1  1  0.69473  0.92062  0.58712  1
 O  O2  1  0.92080  0.00008  0.15937  1
 O  O3  1  0.19473  0.66650  0.58712  1
 O  O4  1  0.69473  0.33350  0.41288  1
 O  O5  1  0.05211  0.30457  0.73498  1
 O  O6  1  0.19473  0.07938  0.41288  1
 O  O7  1  0.55211  0.43041  0.73498  1
 O  O8  1  0.05211  0.56959  0.26502  1
 O  O9  1  0.81265  0.36409  0.00000  1
 O  O10  1  0.42080  0.15928  0.15937  1
 O  O11  1  0.55211  0.69543  0.26502  1
 O  O12  1  0.31265  0.63591  -0.00000  1
 O  O13  1  0.92080  0.84072  0.84063  1
 O  O14  1  0.42080  0.99992  0.84063  1
 Ti  Ti1  1  0.76272  0.13558  0.78785  1
 Ti  Ti2  1  0.26272  0.86442  0.21215  1
 Ti  Ti3  1  0.26272  0.65228  0.78785  1
 Ti  Ti4  1  0.76272  0.34772  0.21215  1
