CIF file written using JARVIS-Tools package.
data_LuHO2
_symmetry_space_group_name_H-M  'Pmn2_1'
_cell_length_a       3.37747
_cell_length_b       4.75596
_cell_length_c       5.34584
_cell_angle_alpha    90
_cell_angle_beta     90
_cell_angle_gamma    90

_symmetry_Int_Tables_number  31
_chemical_formula_structural  LuHO2
_chemical_formula_sum  Lu2H2O4
_cell_volume  85.8708851428937
_cell_formula_units_Z  2
loop_
  _symmetry_equiv_pos_site_id
 _symmetry_equiv_pos_as_xyz
 1  'x, y, z'
loop_
 _atom_site_type_symbol
 _atom_site_label
 _atom_site_symmetry_multiplicity
 _atom_site_fract_x
 _atom_site_fract_y
 _atom_site_fract_z
 _atom_site_fract_occupancy
 H  H1  1  0.50000  0.18868  0.96239  1
 H  H2  1  0.00000  0.81132  0.46239  1
 Lu  Lu1  1  0.00000  0.72221  0.98422  1
 Lu  Lu2  1  0.50000  0.27779  0.48422  1
 O  O1  1  0.50000  0.01522  0.85035  1
 O  O2  1  0.00000  0.51678  0.62581  1
 O  O3  1  0.00000  0.98478  0.35035  1
 O  O4  1  0.50000  0.48322  0.12581  1
