CIF file written using JARVIS-Tools package.
data_CrCo2O6
_symmetry_space_group_name_H-M  'Cmce'
_cell_length_a       4.90179
_cell_length_b       4.90179
_cell_length_c       8.86847
_cell_angle_alpha    90
_cell_angle_beta     90
_cell_angle_gamma    120.179

_symmetry_Int_Tables_number  64
_chemical_formula_structural  CrCo2O6
_chemical_formula_sum  Cr2Co4O2
_cell_volume  184.20542840897699
_cell_formula_units_Z  2
loop_
  _symmetry_equiv_pos_site_id
 _symmetry_equiv_pos_as_xyz
 1  'x, y, z'
loop_
 _atom_site_type_symbol
 _atom_site_label
 _atom_site_symmetry_multiplicity
 _atom_site_fract_x
 _atom_site_fract_y
 _atom_site_fract_z
 _atom_site_fract_occupancy
 Co  Co1  1  0.16671  0.83329  0.50000  1
 Co  Co2  1  0.33329  0.66671  0.00000  1
 Co  Co3  1  0.66671  0.33329  0.00000  1
 Co  Co4  1  0.83329  0.16671  0.50000  1
 Cr  Cr1  1  0.00000  0.00000  0.00000  1
 Cr  Cr2  1  0.50000  0.50000  0.50000  1
 O  O1  1  0.00025  0.67121  0.10624  1
 O  O2  1  -0.00025  0.32879  0.89376  1
 O  O3  1  0.82879  0.49975  0.60624  1
 O  O4  1  0.49975  0.82879  0.60624  1
 O  O5  1  0.17121  0.50025  0.39376  1
 O  O6  1  0.32879  -0.00025  0.89376  1
 O  O7  1  0.67073  0.67073  0.89364  1
 O  O8  1  0.17073  0.17073  0.60636  1
 O  O9  1  0.82927  0.82927  0.39364  1
 O  O10  1  0.50025  0.17121  0.39376  1
 O  O11  1  0.32927  0.32927  0.10636  1
 O  O12  1  0.67121  0.00025  0.10624  1
