CIF file written using JARVIS-Tools package.
data_Na2ZnSi2O6
_symmetry_space_group_name_H-M  'C2/c'
_cell_length_a       5.71506
_cell_length_b       5.71507
_cell_length_c       9.98109
_cell_angle_alpha    91.2953
_cell_angle_beta     91.2952
_cell_angle_gamma    114.533

_symmetry_Int_Tables_number  15
_chemical_formula_structural  Na2ZnSi2O6
_chemical_formula_sum  Na4Zn2Si4O2
_cell_volume  296.3119454619796
_cell_formula_units_Z  2
loop_
  _symmetry_equiv_pos_site_id
 _symmetry_equiv_pos_as_xyz
 1  'x, y, z'
loop_
 _atom_site_type_symbol
 _atom_site_label
 _atom_site_symmetry_multiplicity
 _atom_site_fract_x
 _atom_site_fract_y
 _atom_site_fract_z
 _atom_site_fract_occupancy
 Na  Na1  1  0.38733  0.74159  0.10540  1
 Na  Na2  1  0.25841  0.61267  0.39460  1
 Na  Na3  1  0.61267  0.25841  0.89460  1
 Na  Na4  1  0.74159  0.38733  0.60540  1
 O  O1  1  0.90803  0.09197  0.75000  1
 O  O2  1  0.77077  0.52916  0.39235  1
 O  O3  1  0.63246  0.90865  0.30768  1
 O  O4  1  0.22923  0.47084  0.60765  1
 O  O5  1  0.09197  0.90803  0.25000  1
 O  O6  1  0.47084  0.22923  0.10765  1
 O  O7  1  0.36754  0.09135  0.69232  1
 O  O8  1  0.00000  -0.00000  0.50000  1
 O  O9  1  0.09135  0.36754  0.19232  1
 O  O10  1  0.52916  0.77077  0.89235  1
 O  O11  1  0.90865  0.63246  0.80768  1
 O  O12  1  0.00000  0.00000  0.00000  1
 Si  Si1  1  0.86106  0.83272  0.36202  1
 Si  Si2  1  0.13894  0.16728  0.63798  1
 Si  Si3  1  0.83272  0.86106  0.86202  1
 Si  Si4  1  0.16728  0.13894  0.13798  1
 Zn  Zn1  1  0.27109  0.72891  0.75000  1
 Zn  Zn2  1  0.72891  0.27109  0.25000  1
