CIF file written using JARVIS-Tools package.
data_CaV2O4
_symmetry_space_group_name_H-M  'Cmcm'
_cell_length_a       3.03382
_cell_length_b       5.07956
_cell_length_c       10.0361
_cell_angle_alpha    90
_cell_angle_beta     90
_cell_angle_gamma    107.375

_symmetry_Int_Tables_number  63
_chemical_formula_structural  CaV2O4
_chemical_formula_sum  Ca2V4O8
_cell_volume  147.60371602083328
_cell_formula_units_Z  2
loop_
  _symmetry_equiv_pos_site_id
 _symmetry_equiv_pos_as_xyz
 1  'x, y, z'
loop_
 _atom_site_type_symbol
 _atom_site_label
 _atom_site_symmetry_multiplicity
 _atom_site_fract_x
 _atom_site_fract_y
 _atom_site_fract_z
 _atom_site_fract_occupancy
 Ca  Ca1  1  0.38318  0.76636  0.75000  1
 Ca  Ca2  1  0.61682  0.23364  0.25000  1
 O  O1  1  0.23299  0.46598  0.39361  1
 O  O2  1  0.76701  0.53402  0.60639  1
 O  O3  1  0.76701  0.53402  0.89361  1
 O  O4  1  0.23299  0.46598  0.10639  1
 O  O5  1  0.93450  0.86900  0.25000  1
 O  O6  1  0.06550  0.13100  0.75000  1
 O  O7  1  0.50000  0.00000  0.00000  1
 O  O8  1  0.50000  0.00000  0.50000  1
 V  V1  1  0.87097  0.74195  0.06832  1
 V  V2  1  0.12903  0.25805  0.93168  1
 V  V3  1  0.87097  0.74195  0.43168  1
 V  V4  1  0.12903  0.25805  0.56832  1
