CIF file written using JARVIS-Tools package.
data_CdGe2O5
_symmetry_space_group_name_H-M  'P-1'
_cell_length_a       5.39528
_cell_length_b       5.626
_cell_length_c       6.99746
_cell_angle_alpha    105.428
_cell_angle_beta     101.554
_cell_angle_gamma    107.441

_symmetry_Int_Tables_number  2
_chemical_formula_structural  CdGe2O5
_chemical_formula_sum  Cd2Ge4O0
_cell_volume  186.05672630050128
_cell_formula_units_Z  2
loop_
  _symmetry_equiv_pos_site_id
 _symmetry_equiv_pos_as_xyz
 1  'x, y, z'
loop_
 _atom_site_type_symbol
 _atom_site_label
 _atom_site_symmetry_multiplicity
 _atom_site_fract_x
 _atom_site_fract_y
 _atom_site_fract_z
 _atom_site_fract_occupancy
 Cd  Cd1  1  0.65891  0.30852  0.76835  1
 Cd  Cd2  1  0.34109  0.69148  0.23165  1
 Ge  Ge1  1  0.68682  0.31949  0.25090  1
 Ge  Ge2  1  0.31318  0.68051  0.74910  1
 Ge  Ge3  1  -0.00000  -0.00000  0.50000  1
 Ge  Ge4  1  0.00000  0.00000  0.00000  1
 O  O1  1  0.29019  0.87213  0.58604  1
 O  O2  1  0.70981  0.12787  0.41396  1
 O  O3  1  0.61933  0.78352  0.95615  1
 O  O4  1  0.38067  0.21648  0.04385  1
 O  O5  1  0.05700  0.67348  0.87703  1
 O  O6  1  0.94300  0.32652  0.12297  1
 O  O7  1  0.08922  0.94517  0.25144  1
 O  O8  1  0.91078  0.05483  0.74856  1
 O  O9  1  0.71866  0.64403  0.39892  1
 O  O10  1  0.28134  0.35597  0.60108  1
