CIF file written using JARVIS-Tools package.
data_SbO2
_symmetry_space_group_name_H-M  'Fm-3m'
_cell_length_a       3.74997
_cell_length_b       3.74998
_cell_length_c       3.74998
_cell_angle_alpha    59.8259
_cell_angle_beta     59.8259
_cell_angle_gamma    59.8259

_symmetry_Int_Tables_number  225
_chemical_formula_structural  SbO2
_chemical_formula_sum  SbO2
_cell_volume  37.14089648302614
_cell_formula_units_Z  1
loop_
  _symmetry_equiv_pos_site_id
 _symmetry_equiv_pos_as_xyz
 1  'x, y, z'
loop_
 _atom_site_type_symbol
 _atom_site_label
 _atom_site_symmetry_multiplicity
 _atom_site_fract_x
 _atom_site_fract_y
 _atom_site_fract_z
 _atom_site_fract_occupancy
 O  O1  1  0.74987  0.74987  0.74987  1
 O  O2  1  0.25013  0.25013  0.25013  1
 Sb  Sb1  1  0.50000  0.50000  0.50000  1
