CIF file written using JARVIS-Tools package.
data_CaCr2F12
_symmetry_space_group_name_H-M  'P-1'
_cell_length_a       4.97012
_cell_length_b       5.52494
_cell_length_c       8.98363
_cell_angle_alpha    84.9554
_cell_angle_beta     73.9765
_cell_angle_gamma    117.645

_symmetry_Int_Tables_number  2
_chemical_formula_structural  CaCr2F12
_chemical_formula_sum  CaCr2F2
_cell_volume  203.16318204911624
_cell_formula_units_Z  1
loop_
  _symmetry_equiv_pos_site_id
 _symmetry_equiv_pos_as_xyz
 1  'x, y, z'
loop_
 _atom_site_type_symbol
 _atom_site_label
 _atom_site_symmetry_multiplicity
 _atom_site_fract_x
 _atom_site_fract_y
 _atom_site_fract_z
 _atom_site_fract_occupancy
 Ca  Ca1  1  0.50000  -0.00000  0.50000  1
 Cr  Cr1  1  0.01173  0.75155  0.22591  1
 Cr  Cr2  1  -0.01173  0.24845  0.77409  1
 F  F1  1  0.22783  0.70742  0.05364  1
 F  F2  1  0.19874  0.20565  0.57911  1
 F  F3  1  0.63406  0.55494  0.20699  1
 F  F4  1  0.61894  0.06576  0.72575  1
 F  F5  1  0.07672  0.07376  0.13201  1
 F  F6  1  0.06133  0.57576  0.65282  1
 F  F7  1  0.36594  0.44506  0.79301  1
 F  F8  1  0.38106  0.93424  0.27425  1
 F  F9  1  0.77217  0.29258  0.94636  1
 F  F10  1  0.80126  0.79435  0.42089  1
 F  F11  1  0.92328  0.92624  0.86799  1
 F  F12  1  0.93867  0.42424  0.34718  1
