CIF file written using JARVIS-Tools package.
data_V3Fe3Te2O16
_symmetry_space_group_name_H-M  'P1'
_cell_length_a       5.58569
_cell_length_b       5.62818
_cell_length_c       10.6064
_cell_angle_alpha    89.9794
_cell_angle_beta     91.3067
_cell_angle_gamma    120.261

_symmetry_Int_Tables_number  1
_chemical_formula_structural  V3Fe3Te2O16
_chemical_formula_sum  V3Fe3Te2O6
_cell_volume  287.9041780376715
_cell_formula_units_Z  1
loop_
  _symmetry_equiv_pos_site_id
 _symmetry_equiv_pos_as_xyz
 1  'x, y, z'
loop_
 _atom_site_type_symbol
 _atom_site_label
 _atom_site_symmetry_multiplicity
 _atom_site_fract_x
 _atom_site_fract_y
 _atom_site_fract_z
 _atom_site_fract_occupancy
 Fe  Fe1  1  0.17622  0.82076  0.21333  1
 Fe  Fe2  1  0.17626  0.35594  0.21334  1
 Fe  Fe3  1  0.36269  0.18106  0.70577  1
 O  O1  1  0.50936  0.49980  0.81580  1
 O  O2  1  0.16413  0.84090  0.61059  1
 O  O3  1  0.01790  0.50909  0.30681  1
 O  O4  1  0.34752  0.67408  0.11106  1
 O  O5  1  0.97004  0.48486  0.81764  1
 O  O6  1  0.00933  0.00447  0.79202  1
 O  O7  1  0.16415  0.32254  0.61035  1
 O  O8  1  0.00727  0.00378  0.29644  1
 O  O9  1  0.49731  0.51450  0.32600  1
 O  O10  1  0.33062  0.16562  0.11807  1
 O  O11  1  0.84311  0.16384  0.10990  1
 O  O12  1  0.49732  0.98315  0.32596  1
 O  O13  1  0.50974  0.00937  0.81606  1
 O  O14  1  0.68332  0.34104  0.60481  1
 O  O15  1  0.84306  0.67979  0.10989  1
 O  O16  1  0.66694  0.83319  0.60396  1
 Te  Te1  1  0.66570  0.33314  0.01833  1
 Te  Te2  1  0.31237  0.65608  0.50975  1
 V  V1  1  0.80478  0.16371  0.72275  1
 V  V2  1  0.80320  0.64042  0.72178  1
 V  V3  1  0.63765  0.81907  0.23529  1
