CIF file written using JARVIS-Tools package.
data_AlCo2O4
_symmetry_space_group_name_H-M  'Imma'
_cell_length_a       5.74096
_cell_length_b       5.74096
_cell_length_c       5.74096
_cell_angle_alpha    60.0843
_cell_angle_beta     90.0903
_cell_angle_gamma    120.189

_symmetry_Int_Tables_number  74
_chemical_formula_structural  AlCo2O4
_chemical_formula_sum  Al2Co4O8
_cell_volume  133.68722580862888
_cell_formula_units_Z  2
loop_
  _symmetry_equiv_pos_site_id
 _symmetry_equiv_pos_as_xyz
 1  'x, y, z'
loop_
 _atom_site_type_symbol
 _atom_site_label
 _atom_site_symmetry_multiplicity
 _atom_site_fract_x
 _atom_site_fract_y
 _atom_site_fract_z
 _atom_site_fract_occupancy
 Al  Al1  1  0.50000  -0.00000  0.50000  1
 Al  Al2  1  -0.00000  0.50000  0.50000  1
 Co  Co1  1  0.12389  0.25000  0.12611  1
 Co  Co2  1  0.87611  0.75000  0.87389  1
 Co  Co3  1  0.50000  -0.00000  -0.00000  1
 Co  Co4  1  0.50000  0.50000  0.50000  1
 O  O1  1  0.74003  0.02876  0.73121  1
 O  O2  1  0.74003  0.47124  0.28873  1
 O  O3  1  0.74160  0.47679  0.73519  1
 O  O4  1  0.28802  0.02321  0.73519  1
 O  O5  1  0.71198  0.97679  0.26481  1
 O  O6  1  0.25840  0.52321  0.26481  1
 O  O7  1  0.25997  0.97124  0.26879  1
 O  O8  1  0.25997  0.52876  0.71127  1
