CIF file written using JARVIS-Tools package.
data_SiO2
_symmetry_space_group_name_H-M  'R-3m'
_cell_length_a       8.54427
_cell_length_b       8.54428
_cell_length_c       8.54427
_cell_angle_alpha    116.196
_cell_angle_beta     116.196
_cell_angle_gamma    116.196

_symmetry_Int_Tables_number  166
_chemical_formula_structural  SiO2
_chemical_formula_sum  Si6O2
_cell_volume  307.69842805223254
_cell_formula_units_Z  6
loop_
  _symmetry_equiv_pos_site_id
 _symmetry_equiv_pos_as_xyz
 1  'x, y, z'
loop_
 _atom_site_type_symbol
 _atom_site_label
 _atom_site_symmetry_multiplicity
 _atom_site_fract_x
 _atom_site_fract_y
 _atom_site_fract_z
 _atom_site_fract_occupancy
 O  O1  1  -0.00000  -0.00000  0.50000  1
 O  O2  1  0.00000  0.17737  0.82264  1
 O  O3  1  0.00000  0.50000  0.50000  1
 O  O4  1  0.17737  0.00000  0.82264  1
 O  O5  1  0.82264  0.17737  -0.00000  1
 O  O6  1  0.17737  0.82264  0.00000  1
 O  O7  1  0.00000  0.50000  0.00000  1
 O  O8  1  0.82264  -0.00000  0.17737  1
 O  O9  1  0.50000  -0.00000  -0.00000  1
 O  O10  1  -0.00000  0.82264  0.17737  1
 O  O11  1  0.50000  -0.00000  0.50000  1
 O  O12  1  0.50000  0.50000  0.00000  1
 Si  Si1  1  0.19412  0.19412  0.81541  1
 Si  Si2  1  0.80588  0.18459  0.80588  1
 Si  Si3  1  0.81541  0.19412  0.19412  1
 Si  Si4  1  0.18459  0.80588  0.80588  1
 Si  Si5  1  0.19412  0.81541  0.19412  1
 Si  Si6  1  0.80588  0.80588  0.18459  1
