CIF file written using JARVIS-Tools package.
data_XeO3
_symmetry_space_group_name_H-M  'P2_12_12_1'
_cell_length_a       5.27757
_cell_length_b       5.99796
_cell_length_c       7.75459
_cell_angle_alpha    90
_cell_angle_beta     90
_cell_angle_gamma    90

_symmetry_Int_Tables_number  19
_chemical_formula_structural  XeO3
_chemical_formula_sum  Xe4O2
_cell_volume  245.4687973307615
_cell_formula_units_Z  4
loop_
  _symmetry_equiv_pos_site_id
 _symmetry_equiv_pos_as_xyz
 1  'x, y, z'
loop_
 _atom_site_type_symbol
 _atom_site_label
 _atom_site_symmetry_multiplicity
 _atom_site_fract_x
 _atom_site_fract_y
 _atom_site_fract_z
 _atom_site_fract_occupancy
 O  O1  1  0.41843  0.19125  0.08550  1
 O  O2  1  0.61237  0.64688  0.06762  1
 O  O3  1  0.91843  0.30875  0.91450  1
 O  O4  1  0.59125  0.95116  0.74671  1
 O  O5  1  0.09125  0.54884  0.25329  1
 O  O6  1  0.38763  0.14688  0.43238  1
 O  O7  1  0.58157  0.69125  0.41450  1
 O  O8  1  0.40875  0.45116  0.75329  1
 O  O9  1  0.88763  0.35312  0.56762  1
 O  O10  1  0.90875  0.04884  0.24671  1
 O  O11  1  0.08157  0.80875  0.58550  1
 O  O12  1  0.11237  0.85312  0.93238  1
 Xe  Xe1  1  0.76987  0.44309  0.33603  1
 Xe  Xe2  1  0.23013  0.94309  0.16397  1
 Xe  Xe3  1  0.73013  0.55691  0.83603  1
 Xe  Xe4  1  0.26987  0.05691  0.66397  1
