CIF file written using JARVIS-Tools package.
data_Rb2GeSe3
_symmetry_space_group_name_H-M  'C2/m'
_cell_length_a       7.12965
_cell_length_b       7.78561
_cell_length_c       9.12476
_cell_angle_alpha    72.0225
_cell_angle_beta     67.0034
_cell_angle_gamma    62.75

_symmetry_Int_Tables_number  12
_chemical_formula_structural  Rb2GeSe3
_chemical_formula_sum  Rb4Ge2Se6
_cell_volume  409.260339388137
_cell_formula_units_Z  2
loop_
  _symmetry_equiv_pos_site_id
 _symmetry_equiv_pos_as_xyz
 1  'x, y, z'
loop_
 _atom_site_type_symbol
 _atom_site_label
 _atom_site_symmetry_multiplicity
 _atom_site_fract_x
 _atom_site_fract_y
 _atom_site_fract_z
 _atom_site_fract_occupancy
 Ge  Ge1  1  0.87950  0.05267  0.18832  1
 Ge  Ge2  1  0.12050  0.94733  0.81168  1
 Rb  Rb1  1  0.80642  0.56521  0.82196  1
 Rb  Rb2  1  0.19358  0.43479  0.17804  1
 Rb  Rb3  1  0.58779  0.19447  0.62995  1
 Rb  Rb4  1  0.41221  0.80553  0.37005  1
 Se  Se1  1  0.30294  0.62149  0.77263  1
 Se  Se2  1  0.69706  0.37851  0.22737  1
 Se  Se3  1  0.25474  -0.00000  -0.00000  1
 Se  Se4  1  0.74526  0.00000  0.00000  1
 Se  Se5  1  0.89019  0.80692  0.41269  1
 Se  Se6  1  0.10981  0.19308  0.58731  1
