CIF file written using JARVIS-Tools package.
data_SbF4
_symmetry_space_group_name_H-M  'C2'
_cell_length_a       5.1625
_cell_length_b       5.16265
_cell_length_c       6.12338
_cell_angle_alpha    103.609
_cell_angle_beta     127.108
_cell_angle_gamma    90.1454

_symmetry_Int_Tables_number  5
_chemical_formula_structural  SbF4
_chemical_formula_sum  Sb2F8
_cell_volume  124.28194722943601
_cell_formula_units_Z  2
loop_
  _symmetry_equiv_pos_site_id
 _symmetry_equiv_pos_as_xyz
 1  'x, y, z'
loop_
 _atom_site_type_symbol
 _atom_site_label
 _atom_site_symmetry_multiplicity
 _atom_site_fract_x
 _atom_site_fract_y
 _atom_site_fract_z
 _atom_site_fract_occupancy
 F  F1  1  0.00731  0.26685  0.23004  1
 F  F2  1  0.53545  0.27758  0.76744  1
 F  F3  1  0.12366  0.59263  0.76386  1
 F  F4  1  -0.01753  0.13870  0.75456  1
 F  F5  1  0.32601  0.85862  0.23370  1
 F  F6  1  0.46049  0.40250  0.22953  1
 F  F7  1  0.88109  0.72671  0.24270  1
 F  F8  1  0.67170  0.73136  0.76809  1
 Sb  Sb1  1  -0.00175  0.49897  -0.00131  1
 Sb  Sb2  1  0.49823  -0.00129  -0.00114  1
