CIF file written using JARVIS-Tools package.
data_HNO
_symmetry_space_group_name_H-M  'C2/c'
_cell_length_a       6.2123
_cell_length_b       4.71853
_cell_length_c       4.71853
_cell_angle_alpha    79.005
_cell_angle_beta     113.531
_cell_angle_gamma    113.531

_symmetry_Int_Tables_number  15
_chemical_formula_structural  HNO
_chemical_formula_sum  H4N4O4
_cell_volume  116.18619665466235
_cell_formula_units_Z  4
loop_
  _symmetry_equiv_pos_site_id
 _symmetry_equiv_pos_as_xyz
 1  'x, y, z'
loop_
 _atom_site_type_symbol
 _atom_site_label
 _atom_site_symmetry_multiplicity
 _atom_site_fract_x
 _atom_site_fract_y
 _atom_site_fract_z
 _atom_site_fract_occupancy
 H  H1  1  -0.02877  0.27026  0.14130  1
 H  H2  1  0.47123  0.14130  0.27026  1
 H  H3  1  0.04902  0.72362  0.85255  1
 H  H4  1  0.54902  0.85255  0.72362  1
 N  N1  1  0.26012  0.60231  0.39157  1
 N  N2  1  0.76012  0.39157  0.60231  1
 N  N3  1  0.26012  0.80228  0.19160  1
 N  N4  1  0.76012  0.19160  0.80228  1
 O  O1  1  0.10128  0.29850  0.36943  1
 O  O2  1  0.60128  0.36943  0.29850  1
 O  O3  1  0.91896  0.69540  0.62444  1
 O  O4  1  0.41896  0.62444  0.69540  1
