CIF file written using JARVIS-Tools package.
data_CdCu2GeS4
_symmetry_space_group_name_H-M  'Pmn2_1'
_cell_length_a       6.35797
_cell_length_b       6.60188
_cell_length_c       7.75865
_cell_angle_alpha    90
_cell_angle_beta     90
_cell_angle_gamma    90

_symmetry_Int_Tables_number  31
_chemical_formula_structural  CdCu2GeS4
_chemical_formula_sum  Cd2Cu4Ge2S8
_cell_volume  325.6657098082788
_cell_formula_units_Z  2
loop_
  _symmetry_equiv_pos_site_id
 _symmetry_equiv_pos_as_xyz
 1  'x, y, z'
loop_
 _atom_site_type_symbol
 _atom_site_label
 _atom_site_symmetry_multiplicity
 _atom_site_fract_x
 _atom_site_fract_y
 _atom_site_fract_z
 _atom_site_fract_occupancy
 Cd  Cd1  1  0.50659  0.84301  0.50000  1
 Cd  Cd2  1  0.00659  0.15699  0.00000  1
 Cu  Cu1  1  0.00471  0.67190  0.74920  1
 Cu  Cu2  1  0.50471  0.32810  0.24920  1
 Cu  Cu3  1  0.50471  0.32810  0.75080  1
 Cu  Cu4  1  0.00471  0.67190  0.25080  1
 Ge  Ge1  1  0.00943  0.17648  0.50000  1
 Ge  Ge2  1  0.50943  0.82352  0.00000  1
 S  S1  1  0.10386  0.84304  0.50000  1
 S  S2  1  0.60386  0.15696  0.00000  1
 S  S3  1  0.65141  0.20406  0.50000  1
 S  S4  1  0.15141  0.79594  0.00000  1
 S  S5  1  0.64215  0.65483  0.76834  1
 S  S6  1  0.64215  0.65483  0.23166  1
 S  S7  1  0.14215  0.34517  0.26834  1
 S  S8  1  0.14215  0.34517  0.73166  1
