CIF file written using JARVIS-Tools package.
data_MgGeN2
_symmetry_space_group_name_H-M  'Pna2_1'
_cell_length_a       5.22443
_cell_length_b       5.55031
_cell_length_c       6.64966
_cell_angle_alpha    90
_cell_angle_beta     90
_cell_angle_gamma    90

_symmetry_Int_Tables_number  33
_chemical_formula_structural  MgGeN2
_chemical_formula_sum  Mg4Ge4N8
_cell_volume  192.821358650554
_cell_formula_units_Z  4
loop_
  _symmetry_equiv_pos_site_id
 _symmetry_equiv_pos_as_xyz
 1  'x, y, z'
loop_
 _atom_site_type_symbol
 _atom_site_label
 _atom_site_symmetry_multiplicity
 _atom_site_fract_x
 _atom_site_fract_y
 _atom_site_fract_z
 _atom_site_fract_occupancy
 Ge  Ge1  1  0.00742  0.07411  0.12578  1
 Ge  Ge2  1  0.50742  0.92589  0.87422  1
 Ge  Ge3  1  0.50742  0.42589  0.62578  1
 Ge  Ge4  1  0.00742  0.57411  0.37422  1
 Mg  Mg1  1  0.00065  0.58481  0.87656  1
 Mg  Mg2  1  0.50065  0.91519  0.37656  1
 Mg  Mg3  1  0.50065  0.41519  0.12344  1
 Mg  Mg4  1  0.00065  0.08481  0.62344  1
 N  N1  1  0.40373  0.59940  0.85772  1
 N  N2  1  0.90373  0.40060  0.14228  1
 N  N3  1  0.90373  0.90060  0.35772  1
 N  N4  1  0.40373  0.09940  0.64228  1
 N  N5  1  0.36821  0.56158  0.39192  1
 N  N6  1  0.36821  0.06158  0.10808  1
 N  N7  1  0.86821  0.93842  0.89192  1
 N  N8  1  0.86821  0.43842  0.60808  1
