CIF file written using JARVIS-Tools package.
data_LuCuS2
_symmetry_space_group_name_H-M  'Pnma'
_cell_length_a       3.89068
_cell_length_b       6.21829
_cell_length_c       13.1077
_cell_angle_alpha    90
_cell_angle_beta     90
_cell_angle_gamma    90

_symmetry_Int_Tables_number  62
_chemical_formula_structural  LuCuS2
_chemical_formula_sum  Lu4Cu4S8
_cell_volume  317.12017074228595
_cell_formula_units_Z  4
loop_
  _symmetry_equiv_pos_site_id
 _symmetry_equiv_pos_as_xyz
 1  'x, y, z'
loop_
 _atom_site_type_symbol
 _atom_site_label
 _atom_site_symmetry_multiplicity
 _atom_site_fract_x
 _atom_site_fract_y
 _atom_site_fract_z
 _atom_site_fract_occupancy
 Cu  Cu1  1  0.25000  0.11511  0.95025  1
 Cu  Cu2  1  0.75000  0.61511  0.54975  1
 Cu  Cu3  1  0.75000  0.88489  0.04975  1
 Cu  Cu4  1  0.25000  0.38489  0.45025  1
 Lu  Lu1  1  0.25000  0.50194  0.13397  1
 Lu  Lu2  1  0.75000  0.49806  0.86603  1
 Lu  Lu3  1  0.75000  0.00194  0.36603  1
 Lu  Lu4  1  0.25000  0.99806  0.63397  1
 S  S1  1  0.25000  0.26799  0.79058  1
 S  S2  1  0.75000  0.73201  0.20942  1
 S  S3  1  0.75000  0.76799  0.70942  1
 S  S4  1  0.25000  0.23201  0.29058  1
 S  S5  1  0.25000  0.73784  0.95929  1
 S  S6  1  0.25000  0.76216  0.45929  1
 S  S7  1  0.75000  0.23784  0.54071  1
 S  S8  1  0.75000  0.26216  0.04071  1
