CIF file written using JARVIS-Tools package.
data_Te3MoWSe
_symmetry_space_group_name_H-M  'P3m1'
_cell_length_a       3.5074
_cell_length_b       3.50739
_cell_length_c       37.6067
_cell_angle_alpha    90.0001
_cell_angle_beta     90
_cell_angle_gamma    120

_symmetry_Int_Tables_number  156
_chemical_formula_structural  Te3MoWSe
_chemical_formula_sum  Te6Mo2W2Se2
_cell_volume  400.65058540555253
_cell_formula_units_Z  2
loop_
  _symmetry_equiv_pos_site_id
 _symmetry_equiv_pos_as_xyz
 1  'x, y, z'
loop_
 _atom_site_type_symbol
 _atom_site_label
 _atom_site_symmetry_multiplicity
 _atom_site_fract_x
 _atom_site_fract_y
 _atom_site_fract_z
 _atom_site_fract_occupancy
 Mo  Mo1  1  0.33330  0.66660  0.09674  1
 Mo  Mo2  1  0.66669  0.33339  0.27730  1
 Se  Se1  1  0.66664  0.33328  0.05381  1
 Se  Se2  1  0.66663  0.33325  0.13974  1
 Te  Te1  1  0.33335  0.66671  0.32607  1
 Te  Te2  1  0.33332  0.66665  0.70915  1
 Te  Te3  1  0.66667  0.33335  0.41965  1
 Te  Te4  1  0.66669  0.33337  0.51764  1
 Te  Te5  1  0.33337  0.66673  0.22852  1
 Te  Te6  1  0.33333  0.66667  0.61124  1
 W  W1  1  0.33335  0.66669  0.46866  1
 W  W2  1  0.66666  0.33332  0.66024  1
