CIF file written using JARVIS-Tools package.
data_CaCl2
_symmetry_space_group_name_H-M  'Pnnm'
_cell_length_a       4.13633
_cell_length_b       6.17083
_cell_length_c       6.48704
_cell_angle_alpha    90
_cell_angle_beta     90
_cell_angle_gamma    90

_symmetry_Int_Tables_number  58
_chemical_formula_structural  CaCl2
_chemical_formula_sum  Ca2Cl4
_cell_volume  165.57901030385003
_cell_formula_units_Z  2
loop_
  _symmetry_equiv_pos_site_id
 _symmetry_equiv_pos_as_xyz
 1  'x, y, z'
loop_
 _atom_site_type_symbol
 _atom_site_label
 _atom_site_symmetry_multiplicity
 _atom_site_fract_x
 _atom_site_fract_y
 _atom_site_fract_z
 _atom_site_fract_occupancy
 Ca  Ca1  1  0.50000  0.50000  0.50000  1
 Ca  Ca2  1  0.00000  0.00000  0.00000  1
 Cl  Cl1  1  0.50000  0.76099  0.15824  1
 Cl  Cl2  1  0.50000  0.23901  0.84176  1
 Cl  Cl3  1  0.00000  0.73901  0.65824  1
 Cl  Cl4  1  0.00000  0.26099  0.34176  1
