CIF file written using JARVIS-Tools package.
data_V2ZnO4
_symmetry_space_group_name_H-M  'Cmcm'
_cell_length_a       2.83943
_cell_length_b       5.02291
_cell_length_c       9.98496
_cell_angle_alpha    90
_cell_angle_beta     90
_cell_angle_gamma    106.418

_symmetry_Int_Tables_number  63
_chemical_formula_structural  V2ZnO4
_chemical_formula_sum  V4Zn2O8
_cell_volume  136.60065736261978
_cell_formula_units_Z  2
loop_
  _symmetry_equiv_pos_site_id
 _symmetry_equiv_pos_as_xyz
 1  'x, y, z'
loop_
 _atom_site_type_symbol
 _atom_site_label
 _atom_site_symmetry_multiplicity
 _atom_site_fract_x
 _atom_site_fract_y
 _atom_site_fract_z
 _atom_site_fract_occupancy
 O  O1  1  0.22778  0.45557  0.38723  1
 O  O2  1  0.77222  0.54443  0.61277  1
 O  O3  1  0.77222  0.54443  0.88723  1
 O  O4  1  0.22778  0.45557  0.11277  1
 O  O5  1  0.96182  0.92364  0.25000  1
 O  O6  1  0.03818  0.07636  0.75000  1
 O  O7  1  0.50000  0.00000  0.00000  1
 O  O8  1  0.50000  0.00000  0.50000  1
 V  V1  1  0.87117  0.74235  0.07171  1
 V  V2  1  0.12883  0.25765  0.92829  1
 V  V3  1  0.87117  0.74235  0.42829  1
 V  V4  1  0.12883  0.25765  0.57171  1
 Zn  Zn1  1  0.38193  0.76387  0.75000  1
 Zn  Zn2  1  0.61807  0.23613  0.25000  1
