CIF file written using JARVIS-Tools package.
data_MoW3Se8
_symmetry_space_group_name_H-M  'P3m1'
_cell_length_a       3.32772
_cell_length_b       3.32773
_cell_length_c       35.2538
_cell_angle_alpha    90.0002
_cell_angle_beta     89.9999
_cell_angle_gamma    120.001

_symmetry_Int_Tables_number  156
_chemical_formula_structural  MoW3Se8
_chemical_formula_sum  MoW3Se8
_cell_volume  338.0842605022333
_cell_formula_units_Z  1
loop_
  _symmetry_equiv_pos_site_id
 _symmetry_equiv_pos_as_xyz
 1  'x, y, z'
loop_
 _atom_site_type_symbol
 _atom_site_label
 _atom_site_symmetry_multiplicity
 _atom_site_fract_x
 _atom_site_fract_y
 _atom_site_fract_z
 _atom_site_fract_occupancy
 Mo  Mo1  1  0.66667  0.33334  0.28204  1
 Se  Se1  1  0.33334  0.66667  0.32950  1
 Se  Se2  1  0.33335  0.66670  0.70453  1
 Se  Se3  1  0.66665  0.33330  0.04718  1
 Se  Se4  1  0.66666  0.33333  0.42144  1
 Se  Se5  1  0.66665  0.33331  0.14258  1
 Se  Se6  1  0.66666  0.33333  0.51689  1
 Se  Se7  1  0.33334  0.66668  0.23457  1
 Se  Se8  1  0.33335  0.66669  0.60914  1
 W  W1  1  0.33332  0.66662  0.09485  1
 W  W2  1  0.33333  0.66666  0.46917  1
 W  W3  1  0.66668  0.33337  0.65686  1
