CIF file written using JARVIS-Tools package.
data_Ge2SbO6
_symmetry_space_group_name_H-M  'C2/c'
_cell_length_a       5.68487
_cell_length_b       6.92015
_cell_length_c       6.92015
_cell_angle_alpha    85.5056
_cell_angle_beta     75.5846
_cell_angle_gamma    75.5846

_symmetry_Int_Tables_number  15
_chemical_formula_structural  Ge2SbO6
_chemical_formula_sum  Ge4Sb2O2
_cell_volume  255.32861833539758
_cell_formula_units_Z  2
loop_
  _symmetry_equiv_pos_site_id
 _symmetry_equiv_pos_as_xyz
 1  'x, y, z'
loop_
 _atom_site_type_symbol
 _atom_site_label
 _atom_site_symmetry_multiplicity
 _atom_site_fract_x
 _atom_site_fract_y
 _atom_site_fract_z
 _atom_site_fract_occupancy
 Ge  Ge1  1  0.73135  0.38922  0.22261  1
 Ge  Ge2  1  0.76865  0.77739  0.61078  1
 Ge  Ge3  1  0.26865  0.61078  0.77739  1
 Ge  Ge4  1  0.23135  0.22261  0.38922  1
 O  O1  1  0.47123  0.34023  0.40326  1
 O  O2  1  0.02877  0.59674  0.65977  1
 O  O3  1  0.13807  0.81951  0.94888  1
 O  O4  1  0.97123  0.40326  0.34023  1
 O  O5  1  0.52877  0.65977  0.59674  1
 O  O6  1  0.33105  0.38248  0.90817  1
 O  O7  1  0.66895  0.61752  0.09183  1
 O  O8  1  0.16895  0.09183  0.61752  1
 O  O9  1  0.86193  0.18049  0.05112  1
 O  O10  1  0.63807  0.94888  0.81951  1
 O  O11  1  0.83105  0.90817  0.38248  1
 O  O12  1  0.36193  0.05112  0.18049  1
 Sb  Sb1  1  0.25000  0.11340  0.88660  1
 Sb  Sb2  1  0.75000  0.88660  0.11340  1
