CIF file written using JARVIS-Tools package.
data_CoAsS
_symmetry_space_group_name_H-M  'P2_13'
_cell_length_a       5.60294
_cell_length_b       5.60294
_cell_length_c       5.60294
_cell_angle_alpha    90
_cell_angle_beta     90
_cell_angle_gamma    90

_symmetry_Int_Tables_number  198
_chemical_formula_structural  CoAsS
_chemical_formula_sum  Co4As4S4
_cell_volume  175.89301962615573
_cell_formula_units_Z  4
loop_
  _symmetry_equiv_pos_site_id
 _symmetry_equiv_pos_as_xyz
 1  'x, y, z'
loop_
 _atom_site_type_symbol
 _atom_site_label
 _atom_site_symmetry_multiplicity
 _atom_site_fract_x
 _atom_site_fract_y
 _atom_site_fract_z
 _atom_site_fract_occupancy
 As  As1  1  0.62155  0.87845  0.12155  1
 As  As2  1  0.12155  0.62155  0.87845  1
 As  As3  1  0.37845  0.37845  0.37845  1
 As  As4  1  0.87845  0.12155  0.62155  1
 Co  Co1  1  0.50728  0.49272  0.99272  1
 Co  Co2  1  0.49272  0.99272  0.50728  1
 Co  Co3  1  0.00728  0.00728  0.00728  1
 Co  Co4  1  0.99272  0.50728  0.49272  1
 S  S1  1  0.38120  0.11880  0.88120  1
 S  S2  1  0.88120  0.38120  0.11880  1
 S  S3  1  0.11880  0.88120  0.38120  1
 S  S4  1  0.61880  0.61880  0.61880  1
