CIF file written using JARVIS-Tools package.
data_V2H3O5
_symmetry_space_group_name_H-M  'Cm'
_cell_length_a       6.25235
_cell_length_b       6.25235
_cell_length_c       4.82184
_cell_angle_alpha    82.0109
_cell_angle_beta     97.9891
_cell_angle_gamma    152.574

_symmetry_Int_Tables_number  8
_chemical_formula_structural  V2H3O5
_chemical_formula_sum  V2H3O5
_cell_volume  85.92840448878788
_cell_formula_units_Z  1
loop_
  _symmetry_equiv_pos_site_id
 _symmetry_equiv_pos_as_xyz
 1  'x, y, z'
loop_
 _atom_site_type_symbol
 _atom_site_label
 _atom_site_symmetry_multiplicity
 _atom_site_fract_x
 _atom_site_fract_y
 _atom_site_fract_z
 _atom_site_fract_occupancy
 H  H1  1  0.47906  0.52094  0.97967  1
 H  H2  1  0.66401  0.33599  0.84350  1
 H  H3  1  0.33349  0.66651  0.15358  1
 O  O1  1  -0.00182  0.00182  0.49412  1
 O  O2  1  0.39712  0.60288  0.89166  1
 O  O3  1  0.60752  0.39248  0.11867  1
 O  O4  1  0.69581  0.30419  0.65685  1
 O  O5  1  0.30177  0.69823  0.33907  1
 V  V1  1  0.86432  0.13568  0.60845  1
 V  V2  1  0.12876  0.87124  0.37354  1
