CIF file written using JARVIS-Tools package.
data_RbNd2CuS4
_symmetry_space_group_name_H-M  'Cmcm'
_cell_length_a       4.08879
_cell_length_b       7.31835
_cell_length_c       14.0524
_cell_angle_alpha    90
_cell_angle_beta     90
_cell_angle_gamma    106.222

_symmetry_Int_Tables_number  63
_chemical_formula_structural  RbNd2CuS4
_chemical_formula_sum  Rb2Nd4Cu2S8
_cell_volume  403.7513660242625
_cell_formula_units_Z  2
loop_
  _symmetry_equiv_pos_site_id
 _symmetry_equiv_pos_as_xyz
 1  'x, y, z'
loop_
 _atom_site_type_symbol
 _atom_site_label
 _atom_site_symmetry_multiplicity
 _atom_site_fract_x
 _atom_site_fract_y
 _atom_site_fract_z
 _atom_site_fract_occupancy
 Cu  Cu1  1  0.83612  0.67223  0.75000  1
 Cu  Cu2  1  0.16388  0.32777  0.25000  1
 Nd  Nd1  1  0.36557  0.73114  0.93843  1
 Nd  Nd2  1  0.63443  0.26886  0.43843  1
 Nd  Nd3  1  0.36557  0.73114  0.56157  1
 Nd  Nd4  1  0.63443  0.26886  0.06157  1
 Rb  Rb1  1  0.89343  0.78685  0.25000  1
 Rb  Rb2  1  0.10657  0.21315  0.75000  1
 S  S1  1  0.00000  0.00000  0.50000  1
 S  S2  1  0.00000  0.00000  0.00000  1
 S  S3  1  0.57318  0.14637  0.25000  1
 S  S4  1  0.42682  0.85363  0.75000  1
 S  S5  1  0.26190  0.52380  0.38673  1
 S  S6  1  0.73810  0.47620  0.88673  1
 S  S7  1  0.73810  0.47620  0.61327  1
 S  S8  1  0.26190  0.52380  0.11327  1
