CIF file written using JARVIS-Tools package.
data_BaCrF5
_symmetry_space_group_name_H-M  'P2_12_12_1'
_cell_length_a       4.90783
_cell_length_b       5.74142
_cell_length_c       14.0353
_cell_angle_alpha    90
_cell_angle_beta     90
_cell_angle_gamma    90

_symmetry_Int_Tables_number  19
_chemical_formula_structural  BaCrF5
_chemical_formula_sum  Ba4Cr4F20
_cell_volume  395.4865972432873
_cell_formula_units_Z  4
loop_
  _symmetry_equiv_pos_site_id
 _symmetry_equiv_pos_as_xyz
 1  'x, y, z'
loop_
 _atom_site_type_symbol
 _atom_site_label
 _atom_site_symmetry_multiplicity
 _atom_site_fract_x
 _atom_site_fract_y
 _atom_site_fract_z
 _atom_site_fract_occupancy
 Ba  Ba1  1  0.22784  0.65847  0.65839  1
 Ba  Ba2  1  0.72784  0.84153  0.34161  1
 Ba  Ba3  1  0.77216  0.15847  0.84161  1
 Ba  Ba4  1  0.27216  0.34153  0.15839  1
 Cr  Cr1  1  0.83099  0.14593  0.58390  1
 Cr  Cr2  1  0.33099  0.35407  0.41610  1
 Cr  Cr3  1  0.16901  0.64593  0.91610  1
 Cr  Cr4  1  0.66901  0.85407  0.08390  1
 F  F1  1  0.81895  0.07707  0.17008  1
 F  F2  1  0.98675  0.87310  0.99857  1
 F  F3  1  0.18105  0.57707  0.32992  1
 F  F4  1  0.48125  0.60364  0.48735  1
 F  F5  1  0.51875  0.10364  0.01265  1
 F  F6  1  0.98125  0.89636  0.51265  1
 F  F7  1  0.31895  0.42293  0.82992  1
 F  F8  1  0.01875  0.39636  0.98735  1
 F  F9  1  0.68105  0.92293  0.67008  1
 F  F10  1  0.01325  0.37310  0.50143  1
 F  F11  1  0.86392  0.65176  0.83269  1
 F  F12  1  0.30285  0.89726  0.83838  1
 F  F13  1  0.69715  0.39726  0.66162  1
 F  F14  1  0.36392  0.84824  0.16731  1
 F  F15  1  0.51325  0.12690  0.49857  1
 F  F16  1  0.63608  0.34824  0.33269  1
 F  F17  1  0.13608  0.15176  0.66731  1
 F  F18  1  0.80285  0.60274  0.16162  1
 F  F19  1  0.19715  0.10274  0.33838  1
 F  F20  1  0.48675  0.62690  0.00143  1
