CIF file written using JARVIS-Tools package.
data_Ti4ZnO9
_symmetry_space_group_name_H-M  'P4/n'
_cell_length_a       4.7232
_cell_length_b       8.35109
_cell_length_c       8.35109
_cell_angle_alpha    90
_cell_angle_beta     90
_cell_angle_gamma    90

_symmetry_Int_Tables_number  85
_chemical_formula_structural  Ti4ZnO9
_chemical_formula_sum  Ti8Zn2O8
_cell_volume  329.39905867346687
_cell_formula_units_Z  2
loop_
  _symmetry_equiv_pos_site_id
 _symmetry_equiv_pos_as_xyz
 1  'x, y, z'
loop_
 _atom_site_type_symbol
 _atom_site_label
 _atom_site_symmetry_multiplicity
 _atom_site_fract_x
 _atom_site_fract_y
 _atom_site_fract_z
 _atom_site_fract_occupancy
 O  O1  1  0.50750  0.35517  0.45792  1
 O  O2  1  0.50000  0.75000  0.25000  1
 O  O3  1  0.50000  0.25000  0.75000  1
 O  O4  1  0.99255  0.68356  0.98697  1
 O  O5  1  0.49250  0.64483  0.54208  1
 O  O6  1  0.99255  0.98697  0.81644  1
 O  O7  1  0.99255  0.81644  0.51303  1
 O  O8  1  0.00746  0.31644  0.01303  1
 O  O9  1  0.99255  0.51303  0.68356  1
 O  O10  1  0.00746  0.01303  0.18356  1
 O  O11  1  0.00746  0.18356  0.48697  1
 O  O12  1  0.50750  0.04208  0.35517  1
 O  O13  1  0.50750  0.14483  0.04208  1
 O  O14  1  0.49250  0.95792  0.64483  1
 O  O15  1  0.50750  0.45792  0.14483  1
 O  O16  1  0.49250  0.54208  0.85517  1
 O  O17  1  0.49250  0.85517  0.95792  1
 O  O18  1  0.00746  0.48697  0.31644  1
 Ti  Ti1  1  0.34375  0.65674  0.03673  1
 Ti  Ti2  1  0.34375  0.46327  0.65674  1
 Ti  Ti3  1  0.65626  0.15674  0.53674  1
 Ti  Ti4  1  0.65626  0.96327  0.15674  1
 Ti  Ti5  1  0.34375  0.03673  0.84326  1
 Ti  Ti6  1  0.65626  0.34326  0.96327  1
 Ti  Ti7  1  0.34375  0.84326  0.46327  1
 Ti  Ti8  1  0.65626  0.53674  0.34326  1
 Zn  Zn1  1  0.10565  0.25000  0.25000  1
 Zn  Zn2  1  0.89436  0.75000  0.75000  1
