CIF file written using JARVIS-Tools package.
data_SiO2
_symmetry_space_group_name_H-M  'Fddd'
_cell_length_a       4.75886
_cell_length_b       5.31193
_cell_length_c       7.80979
_cell_angle_alpha    82.156
_cell_angle_beta     72.2615
_cell_angle_gamma    63.3883

_symmetry_Int_Tables_number  70
_chemical_formula_structural  SiO2
_chemical_formula_sum  Si4O8
_cell_volume  168.11585914208555
_cell_formula_units_Z  4
loop_
  _symmetry_equiv_pos_site_id
 _symmetry_equiv_pos_as_xyz
 1  'x, y, z'
loop_
 _atom_site_type_symbol
 _atom_site_label
 _atom_site_symmetry_multiplicity
 _atom_site_fract_x
 _atom_site_fract_y
 _atom_site_fract_z
 _atom_site_fract_occupancy
 O  O1  1  -0.00000  0.00000  0.50000  1
 O  O2  1  0.00000  0.50000  -0.00000  1
 O  O3  1  0.00000  0.00000  0.00000  1
 O  O4  1  0.50000  0.50000  0.50000  1
 O  O5  1  0.43931  0.12137  0.75000  1
 O  O6  1  0.81069  0.37863  0.75000  1
 O  O7  1  0.18931  0.62137  0.25000  1
 O  O8  1  0.56069  0.87863  0.25000  1
 Si  Si1  1  0.06191  0.25000  0.87618  1
 Si  Si2  1  0.31191  0.75000  0.37618  1
 Si  Si3  1  0.93809  0.75000  0.12382  1
 Si  Si4  1  0.68809  0.25000  0.62382  1
