CIF file written using JARVIS-Tools package.
data_Mg2SiO4
_symmetry_space_group_name_H-M  'P-3m1'
_cell_length_a       4.82153
_cell_length_b       5.97251
_cell_length_c       5.973
_cell_angle_alpha    119.997
_cell_angle_beta     90.0013
_cell_angle_gamma    89.9999

_symmetry_Int_Tables_number  164
_chemical_formula_structural  Mg2SiO4
_chemical_formula_sum  Mg4Si2O8
_cell_volume  148.9620016810702
_cell_formula_units_Z  2
loop_
  _symmetry_equiv_pos_site_id
 _symmetry_equiv_pos_as_xyz
 1  'x, y, z'
loop_
 _atom_site_type_symbol
 _atom_site_label
 _atom_site_symmetry_multiplicity
 _atom_site_fract_x
 _atom_site_fract_y
 _atom_site_fract_z
 _atom_site_fract_occupancy
 Mg  Mg1  1  0.50000  0.50000  0.50000  1
 Mg  Mg2  1  0.50000  0.50000  0.00000  1
 Mg  Mg3  1  0.00000  0.00000  0.00000  1
 Mg  Mg4  1  0.50000  -0.00000  0.50000  1
 O  O1  1  0.26680  0.33334  0.66669  1
 O  O2  1  0.22337  0.37581  0.18789  1
 O  O3  1  0.73320  0.66666  0.33331  1
 O  O4  1  0.22337  0.81209  0.18789  1
 O  O5  1  0.22337  0.81206  0.62412  1
 O  O6  1  0.77663  0.62419  0.81211  1
 O  O7  1  0.77663  0.18791  0.81211  1
 O  O8  1  0.77663  0.18794  0.37588  1
 Si  Si1  1  0.92845  0.33335  0.66670  1
 Si  Si2  1  0.07155  0.66665  0.33330  1
