CIF file written using JARVIS-Tools package.
data_CaMo4O8
_symmetry_space_group_name_H-M  'R-3m'
_cell_length_a       6.86358
_cell_length_b       6.86359
_cell_length_c       6.86359
_cell_angle_alpha    48.7983
_cell_angle_beta     48.7982
_cell_angle_gamma    48.7983

_symmetry_Int_Tables_number  166
_chemical_formula_structural  CaMo4O8
_chemical_formula_sum  CaMo4O8
_cell_volume  167.98726447383913
_cell_formula_units_Z  1
loop_
  _symmetry_equiv_pos_site_id
 _symmetry_equiv_pos_as_xyz
 1  'x, y, z'
loop_
 _atom_site_type_symbol
 _atom_site_label
 _atom_site_symmetry_multiplicity
 _atom_site_fract_x
 _atom_site_fract_y
 _atom_site_fract_z
 _atom_site_fract_occupancy
 Ca  Ca1  1  0.50000  0.50000  0.50000  1
 Mo  Mo1  1  0.50000  1.00000  0.50000  1
 Mo  Mo2  1  1.00000  0.50000  0.50000  1
 Mo  Mo3  1  0.50000  0.50000  -0.00000  1
 Mo  Mo4  1  0.00000  0.00000  0.00000  1
 O  O1  1  0.76057  0.26239  0.76057  1
 O  O2  1  0.23943  0.23943  0.73761  1
 O  O3  1  0.23943  0.73761  0.23943  1
 O  O4  1  0.73761  0.23943  0.23943  1
 O  O5  1  0.26394  0.26394  0.26394  1
 O  O6  1  0.73606  0.73606  0.73606  1
 O  O7  1  0.26239  0.76057  0.76057  1
 O  O8  1  0.76057  0.76057  0.26239  1
