CIF file written using JARVIS-Tools package.
data_Pr5Co2B6
_symmetry_space_group_name_H-M  'R-3m'
_cell_length_a       8.88986
_cell_length_b       8.88986
_cell_length_c       8.88986
_cell_angle_alpha    35.8868
_cell_angle_beta     35.8868
_cell_angle_gamma    35.8868

_symmetry_Int_Tables_number  166
_chemical_formula_structural  Pr5Co2B6
_chemical_formula_sum  Pr5Co2B6
_cell_volume  215.88123382363477
_cell_formula_units_Z  1
loop_
  _symmetry_equiv_pos_site_id
 _symmetry_equiv_pos_as_xyz
 1  'x, y, z'
loop_
 _atom_site_type_symbol
 _atom_site_label
 _atom_site_symmetry_multiplicity
 _atom_site_fract_x
 _atom_site_fract_y
 _atom_site_fract_z
 _atom_site_fract_occupancy
 B  B1  1  0.83273  0.50000  0.16727  1
 B  B2  1  0.50000  0.16727  0.83273  1
 B  B3  1  0.16727  0.83273  0.50000  1
 B  B4  1  0.16727  0.50000  0.83273  1
 B  B5  1  0.50000  0.83273  0.16727  1
 B  B6  1  0.83273  0.16727  0.50000  1
 Co  Co1  1  0.87719  0.87719  0.87719  1
 Co  Co2  1  0.12281  0.12281  0.12281  1
 Pr  Pr1  1  0.58386  0.58386  0.58386  1
 Pr  Pr2  1  0.41614  0.41614  0.41614  1
 Pr  Pr3  1  0.74855  0.74855  0.74855  1
 Pr  Pr4  1  0.25145  0.25145  0.25145  1
 Pr  Pr5  1  0.00000  0.00000  0.00000  1
