CIF file written using JARVIS-Tools package.
data_SiO2
_symmetry_space_group_name_H-M  'P4_2/mcm'
_cell_length_a       8.226
_cell_length_b       8.226
_cell_length_c       5.56382
_cell_angle_alpha    90
_cell_angle_beta     90
_cell_angle_gamma    90

_symmetry_Int_Tables_number  132
_chemical_formula_structural  SiO2
_chemical_formula_sum  Si8O6
_cell_volume  376.4874132979249
_cell_formula_units_Z  8
loop_
  _symmetry_equiv_pos_site_id
 _symmetry_equiv_pos_as_xyz
 1  'x, y, z'
loop_
 _atom_site_type_symbol
 _atom_site_label
 _atom_site_symmetry_multiplicity
 _atom_site_fract_x
 _atom_site_fract_y
 _atom_site_fract_z
 _atom_site_fract_occupancy
 O  O1  1  0.76416  0.00000  0.75000  1
 O  O2  1  0.26628  0.73372  0.50000  1
 O  O3  1  0.73372  0.73372  0.00000  1
 O  O4  1  0.23584  0.00000  0.25000  1
 O  O5  1  0.50000  0.00000  0.50000  1
 O  O6  1  0.26628  0.26628  0.00000  1
 O  O7  1  0.23584  0.00000  0.75000  1
 O  O8  1  0.73372  0.26628  0.50000  1
 O  O9  1  0.00000  0.76416  0.75000  1
 O  O10  1  0.00000  0.76416  0.25000  1
 O  O11  1  0.00000  0.50000  0.50000  1
 O  O12  1  0.00000  0.50000  0.00000  1
 O  O13  1  0.00000  0.23584  0.25000  1
 O  O14  1  0.50000  0.00000  0.00000  1
 O  O15  1  0.76416  0.00000  0.25000  1
 O  O16  1  0.00000  0.23584  0.75000  1
 Si  Si1  1  0.06878  0.68657  0.50000  1
 Si  Si2  1  0.06878  0.31343  0.00000  1
 Si  Si3  1  0.31343  0.06878  0.00000  1
 Si  Si4  1  0.93122  0.31343  0.50000  1
 Si  Si5  1  0.93122  0.68657  0.00000  1
 Si  Si6  1  0.68657  0.06878  0.50000  1
 Si  Si7  1  0.68657  0.93122  0.00000  1
 Si  Si8  1  0.31343  0.93122  0.50000  1
