CIF file written using JARVIS-Tools package.
data_UCd2O5
_symmetry_space_group_name_H-M  'C2/c'
_cell_length_a       5.3926
_cell_length_b       6.46363
_cell_length_c       8.08538
_cell_angle_alpha    109.016
_cell_angle_beta     90
_cell_angle_gamma    114.655

_symmetry_Int_Tables_number  15
_chemical_formula_structural  UCd2O5
_chemical_formula_sum  U2Cd4O0
_cell_volume  239.1041129948142
_cell_formula_units_Z  2
loop_
  _symmetry_equiv_pos_site_id
 _symmetry_equiv_pos_as_xyz
 1  'x, y, z'
loop_
 _atom_site_type_symbol
 _atom_site_label
 _atom_site_symmetry_multiplicity
 _atom_site_fract_x
 _atom_site_fract_y
 _atom_site_fract_z
 _atom_site_fract_occupancy
 Cd  Cd1  1  0.32514  0.69445  0.21694  1
 Cd  Cd2  1  0.63069  0.30555  0.28306  1
 Cd  Cd3  1  0.36931  0.69445  0.71694  1
 Cd  Cd4  1  0.67486  0.30555  0.78306  1
 O  O1  1  0.38748  0.18576  0.96956  1
 O  O2  1  0.61252  0.81424  0.03044  1
 O  O3  1  0.98715  0.32872  0.13586  1
 O  O4  1  0.18917  0.00000  0.25000  1
 O  O5  1  0.65843  0.67128  0.36414  1
 O  O6  1  0.79828  0.18576  0.46956  1
 O  O7  1  0.20172  0.81424  0.53044  1
 O  O8  1  0.34157  0.32872  0.63586  1
 O  O9  1  0.81083  1.00000  0.75000  1
 O  O10  1  0.01285  0.67128  0.86414  1
 U  U1  1  0.00000  0.00000  0.00000  1
 U  U2  1  0.00000  0.00000  0.50000  1
