CIF file written using JARVIS-Tools package.
data_P4S5
_symmetry_space_group_name_H-M  'P2_1/m'
_cell_length_a       6.41229
_cell_length_b       10.9126
_cell_length_c       6.64912
_cell_angle_alpha    90
_cell_angle_beta     115.835
_cell_angle_gamma    90

_symmetry_Int_Tables_number  11
_chemical_formula_structural  P4S5
_chemical_formula_sum  P8S0
_cell_volume  418.7668426974883
_cell_formula_units_Z  2
loop_
  _symmetry_equiv_pos_site_id
 _symmetry_equiv_pos_as_xyz
 1  'x, y, z'
loop_
 _atom_site_type_symbol
 _atom_site_label
 _atom_site_symmetry_multiplicity
 _atom_site_fract_x
 _atom_site_fract_y
 _atom_site_fract_z
 _atom_site_fract_occupancy
 P  P1  1  0.27868  0.75000  0.32867  1
 P  P2  1  0.72132  0.25000  0.67133  1
 P  P3  1  0.87185  0.75000  0.76691  1
 P  P4  1  0.12815  0.25000  0.23309  1
 P  P5  1  0.41638  0.85748  0.85237  1
 P  P6  1  0.58362  0.35748  0.14763  1
 P  P7  1  0.58362  0.14252  0.14763  1
 P  P8  1  0.41638  0.64252  0.85237  1
 S  S1  1  0.78358  0.10269  0.49231  1
 S  S2  1  0.35746  0.25000  0.58639  1
 S  S3  1  0.76614  0.89714  0.91503  1
 S  S4  1  0.64254  0.75000  0.41361  1
 S  S5  1  0.78358  0.39731  0.49231  1
 S  S6  1  0.76614  0.60286  0.91503  1
 S  S7  1  0.21642  0.89731  0.50769  1
 S  S8  1  0.23386  0.39714  0.08497  1
 S  S9  1  0.23386  0.10286  0.08497  1
 S  S10  1  0.21642  0.60269  0.50769  1
