CIF file written using JARVIS-Tools package.
data_MgV2O4
_symmetry_space_group_name_H-M  'C2/m'
_cell_length_a       2.90923
_cell_length_b       7.50251
_cell_length_c       7.55221
_cell_angle_alpha    77.5262
_cell_angle_beta     78.8962
_cell_angle_gamma    78.8232

_symmetry_Int_Tables_number  12
_chemical_formula_structural  MgV2O4
_chemical_formula_sum  Mg2V4O8
_cell_volume  155.92790459767298
_cell_formula_units_Z  2
loop_
  _symmetry_equiv_pos_site_id
 _symmetry_equiv_pos_as_xyz
 1  'x, y, z'
loop_
 _atom_site_type_symbol
 _atom_site_label
 _atom_site_symmetry_multiplicity
 _atom_site_fract_x
 _atom_site_fract_y
 _atom_site_fract_z
 _atom_site_fract_occupancy
 Mg  Mg1  1  0.32395  0.20693  0.15366  1
 Mg  Mg2  1  0.68236  0.82508  0.81877  1
 O  O1  1  0.86239  0.61519  0.66860  1
 O  O2  1  0.46881  0.75136  0.31949  1
 O  O3  1  0.53749  0.28064  0.65295  1
 O  O4  1  0.14391  0.41681  0.30383  1
 O  O5  1  0.16898  0.68814  0.98244  1
 O  O6  1  0.78745  0.09736  0.33622  1
 O  O7  1  0.83732  0.34386  0.98999  1
 O  O8  1  0.21887  0.93464  0.63622  1
 V  V1  1  0.63629  0.56534  0.17052  1
 V  V2  1  0.14490  0.20257  0.51613  1
 V  V3  1  0.86140  0.82943  0.45631  1
 V  V4  1  0.37000  0.46666  0.80192  1
