CIF file written using JARVIS-Tools package.
data_TiMn2O6
_symmetry_space_group_name_H-M  'C2/m'
_cell_length_a       14.3292
_cell_length_b       9.09982
_cell_length_c       9.09982
_cell_angle_alpha    18.5033
_cell_angle_beta     17.7984
_cell_angle_gamma    17.7984

_symmetry_Int_Tables_number  12
_chemical_formula_structural  TiMn2O6
_chemical_formula_sum  TiMn2O6
_cell_volume  99.18709071145213
_cell_formula_units_Z  1
loop_
  _symmetry_equiv_pos_site_id
 _symmetry_equiv_pos_as_xyz
 1  'x, y, z'
loop_
 _atom_site_type_symbol
 _atom_site_label
 _atom_site_symmetry_multiplicity
 _atom_site_fract_x
 _atom_site_fract_y
 _atom_site_fract_z
 _atom_site_fract_occupancy
 Mn  Mn1  1  0.99525  0.00355  0.00355  1
 Mn  Mn2  1  0.33808  0.99645  0.99645  1
 O  O1  1  0.23003  0.27397  0.27397  1
 O  O2  1  0.58064  0.26161  0.26161  1
 O  O3  1  0.10330  0.72603  0.72603  1
 O  O4  1  0.92398  0.25305  0.25305  1
 O  O5  1  0.40935  0.74695  0.74695  1
 O  O6  1  0.75269  0.73839  0.73839  1
 Ti  Ti1  1  0.66667  -0.00000  -0.00000  1
