CIF file written using JARVIS-Tools package.
data_ZnMo4O8
_symmetry_space_group_name_H-M  'R-3m'
_cell_length_a       6.42644
_cell_length_b       6.42644
_cell_length_c       6.42644
_cell_angle_alpha    52.207
_cell_angle_beta     52.207
_cell_angle_gamma    52.207

_symmetry_Int_Tables_number  166
_chemical_formula_structural  ZnMo4O8
_chemical_formula_sum  ZnMo4O8
_cell_volume  153.3067221641162
_cell_formula_units_Z  1
loop_
  _symmetry_equiv_pos_site_id
 _symmetry_equiv_pos_as_xyz
 1  'x, y, z'
loop_
 _atom_site_type_symbol
 _atom_site_label
 _atom_site_symmetry_multiplicity
 _atom_site_fract_x
 _atom_site_fract_y
 _atom_site_fract_z
 _atom_site_fract_occupancy
 Mo  Mo1  1  0.50000  1.00000  0.50000  1
 Mo  Mo2  1  1.00000  0.50000  0.50000  1
 Mo  Mo3  1  0.50000  0.50000  0.00000  1
 Mo  Mo4  1  0.00000  0.00000  0.00000  1
 O  O1  1  0.74897  0.26366  0.74897  1
 O  O2  1  0.25103  0.25103  0.73634  1
 O  O3  1  0.25103  0.73634  0.25103  1
 O  O4  1  0.73634  0.25103  0.25103  1
 O  O5  1  0.25878  0.25878  0.25878  1
 O  O6  1  0.74122  0.74122  0.74122  1
 O  O7  1  0.26366  0.74897  0.74897  1
 O  O8  1  0.74897  0.74897  0.26366  1
 Zn  Zn1  1  0.50000  0.50000  0.50000  1
