CIF file written using JARVIS-Tools package.
data_V2O5
_symmetry_space_group_name_H-M  'Pnma'
_cell_length_a       9.20233
_cell_length_b       7.7753
_cell_length_c       5.91865
_cell_angle_alpha    90
_cell_angle_beta     90
_cell_angle_gamma    90

_symmetry_Int_Tables_number  62
_chemical_formula_structural  V2O5
_chemical_formula_sum  V8O20
_cell_volume  423.4845867604545
_cell_formula_units_Z  4
loop_
  _symmetry_equiv_pos_site_id
 _symmetry_equiv_pos_as_xyz
 1  'x, y, z'
loop_
 _atom_site_type_symbol
 _atom_site_label
 _atom_site_symmetry_multiplicity
 _atom_site_fract_x
 _atom_site_fract_y
 _atom_site_fract_z
 _atom_site_fract_occupancy
 O  O1  1  0.92089  0.68379  0.00321  1
 O  O2  1  0.06493  0.93491  0.25000  1
 O  O3  1  0.18985  0.70541  0.75000  1
 O  O4  1  0.07911  0.31621  0.50321  1
 O  O5  1  0.07911  0.31621  0.99679  1
 O  O6  1  0.23895  0.05628  0.75000  1
 O  O7  1  0.81015  0.29459  0.25000  1
 O  O8  1  0.42089  0.81621  0.00321  1
 O  O9  1  0.42089  0.81621  0.49679  1
 O  O10  1  0.26105  0.55628  0.25000  1
 O  O11  1  0.43507  0.43491  0.75000  1
 O  O12  1  0.73895  0.44372  0.75000  1
 O  O13  1  0.56493  0.56509  0.25000  1
 O  O14  1  0.93507  0.06509  0.75000  1
 O  O15  1  0.76105  0.94372  0.25000  1
 O  O16  1  0.92089  0.68379  0.49679  1
 O  O17  1  0.57911  0.18379  0.50321  1
 O  O18  1  0.57911  0.18379  0.99679  1
 O  O19  1  0.68985  0.79459  0.75000  1
 O  O20  1  0.31015  0.20541  0.25000  1
 V  V1  1  0.92067  0.81534  0.25000  1
 V  V2  1  0.81790  0.65473  0.75000  1
 V  V3  1  0.68210  0.15473  0.25000  1
 V  V4  1  0.57933  0.31534  0.75000  1
 V  V5  1  0.42067  0.68466  0.25000  1
 V  V6  1  0.31790  0.84527  0.75000  1
 V  V7  1  0.18210  0.34527  0.25000  1
 V  V8  1  0.07933  0.18466  0.75000  1
