CIF file written using JARVIS-Tools package.
data_Zn2Cr2O5
_symmetry_space_group_name_H-M  'Pmc2_1'
_cell_length_a       5.52408
_cell_length_b       3.27134
_cell_length_c       11.0096
_cell_angle_alpha    90
_cell_angle_beta     90.0025
_cell_angle_gamma    90

_symmetry_Int_Tables_number  26
_chemical_formula_structural  Zn2Cr2O5
_chemical_formula_sum  Zn4Cr4O0
_cell_volume  198.95587688637548
_cell_formula_units_Z  2
loop_
  _symmetry_equiv_pos_site_id
 _symmetry_equiv_pos_as_xyz
 1  'x, y, z'
loop_
 _atom_site_type_symbol
 _atom_site_label
 _atom_site_symmetry_multiplicity
 _atom_site_fract_x
 _atom_site_fract_y
 _atom_site_fract_z
 _atom_site_fract_occupancy
 Cr  Cr1  1  0.62990  0.00000  0.63549  1
 Cr  Cr2  1  0.25279  0.00000  0.36092  1
 Cr  Cr3  1  0.75277  0.00000  0.13908  1
 Cr  Cr4  1  0.12989  0.00000  0.86450  1
 O  O1  1  0.79725  0.50000  0.60816  1
 O  O2  1  0.05468  0.00000  0.04310  1
 O  O3  1  0.91733  0.00000  0.28831  1
 O  O4  1  0.41733  0.00000  0.21169  1
 O  O5  1  0.55471  0.00000  0.45690  1
 O  O6  1  0.65364  0.50000  0.06358  1
 O  O7  1  0.15366  0.50000  0.43642  1
 O  O8  1  0.27736  0.00000  0.69172  1
 O  O9  1  0.77735  0.00000  0.80829  1
 O  O10  1  0.29722  0.50000  0.89184  1
 Zn  Zn1  1  0.76431  0.50000  0.40026  1
 Zn  Zn2  1  0.15277  0.50000  0.61632  1
 Zn  Zn3  1  0.26428  0.50000  0.09974  1
 Zn  Zn4  1  0.65274  0.50000  0.88368  1
