CIF file written using JARVIS-Tools package.
data_TmCuS2
_symmetry_space_group_name_H-M  'Pnma'
_cell_length_a       3.91589
_cell_length_b       6.23599
_cell_length_c       13.212
_cell_angle_alpha    90
_cell_angle_beta     90
_cell_angle_gamma    90

_symmetry_Int_Tables_number  62
_chemical_formula_structural  TmCuS2
_chemical_formula_sum  Tm4Cu4S8
_cell_volume  322.63099604255564
_cell_formula_units_Z  4
loop_
  _symmetry_equiv_pos_site_id
 _symmetry_equiv_pos_as_xyz
 1  'x, y, z'
loop_
 _atom_site_type_symbol
 _atom_site_label
 _atom_site_symmetry_multiplicity
 _atom_site_fract_x
 _atom_site_fract_y
 _atom_site_fract_z
 _atom_site_fract_occupancy
 Cu  Cu1  1  0.25000  0.11848  0.95159  1
 Cu  Cu2  1  0.75000  0.61848  0.54841  1
 Cu  Cu3  1  0.75000  0.88152  0.04841  1
 Cu  Cu4  1  0.25000  0.38152  0.45159  1
 S  S1  1  0.25000  0.26569  0.79181  1
 S  S2  1  0.75000  0.73431  0.20819  1
 S  S3  1  0.75000  0.76569  0.70819  1
 S  S4  1  0.25000  0.23431  0.29181  1
 S  S5  1  0.25000  0.74061  0.95936  1
 S  S6  1  0.25000  0.75939  0.45936  1
 S  S7  1  0.75000  0.24061  0.54064  1
 S  S8  1  0.75000  0.25939  0.04064  1
 Tm  Tm1  1  0.25000  0.50151  0.13380  1
 Tm  Tm2  1  0.75000  0.49849  0.86620  1
 Tm  Tm3  1  0.75000  0.00151  0.36620  1
 Tm  Tm4  1  0.25000  0.99849  0.63380  1
