CIF file written using JARVIS-Tools package.
data_MoWS4
_symmetry_space_group_name_H-M  'P-3m1'
_cell_length_a       3.19275
_cell_length_b       3.19206
_cell_length_c       31.3322
_cell_angle_alpha    90.0229
_cell_angle_beta     90
_cell_angle_gamma    120.007

_symmetry_Int_Tables_number  164
_chemical_formula_structural  MoWS4
_chemical_formula_sum  Mo2W2S8
_cell_volume  276.519987918376
_cell_formula_units_Z  2
loop_
  _symmetry_equiv_pos_site_id
 _symmetry_equiv_pos_as_xyz
 1  'x, y, z'
loop_
 _atom_site_type_symbol
 _atom_site_label
 _atom_site_symmetry_multiplicity
 _atom_site_fract_x
 _atom_site_fract_y
 _atom_site_fract_z
 _atom_site_fract_occupancy
 Mo  Mo1  1  0.33297  0.66595  0.47500  1
 Mo  Mo2  1  0.66703  0.33405  0.27645  1
 S  S1  1  0.33364  0.66729  0.32643  1
 S  S2  1  0.33358  0.66715  0.72492  1
 S  S3  1  0.66642  0.33285  0.02654  1
 S  S4  1  0.66636  0.33271  0.42502  1
 S  S5  1  0.66685  0.33369  0.12707  1
 S  S6  1  0.66636  0.33271  0.52499  1
 S  S7  1  0.33364  0.66729  0.22647  1
 S  S8  1  0.33315  0.66631  0.62439  1
 W  W1  1  0.33323  0.66645  0.07678  1
 W  W2  1  0.66677  0.33355  0.67468  1
