CIF file written using JARVIS-Tools package.
data_SrI2
_symmetry_space_group_name_H-M  'Pnma'
_cell_length_a       4.89666
_cell_length_b       8.4252
_cell_length_c       12.3422
_cell_angle_alpha    90
_cell_angle_beta     90
_cell_angle_gamma    90

_symmetry_Int_Tables_number  62
_chemical_formula_structural  SrI2
_chemical_formula_sum  Sr4I8
_cell_volume  509.18189945870125
_cell_formula_units_Z  4
loop_
  _symmetry_equiv_pos_site_id
 _symmetry_equiv_pos_as_xyz
 1  'x, y, z'
loop_
 _atom_site_type_symbol
 _atom_site_label
 _atom_site_symmetry_multiplicity
 _atom_site_fract_x
 _atom_site_fract_y
 _atom_site_fract_z
 _atom_site_fract_occupancy
 I  I1  1  0.25000  0.37307  0.39278  1
 I  I2  1  0.25000  0.88241  0.38102  1
 I  I3  1  0.75000  0.38241  0.11898  1
 I  I4  1  0.25000  0.61759  0.88102  1
 I  I5  1  0.25000  0.12693  0.89278  1
 I  I6  1  0.75000  0.87307  0.10722  1
 I  I7  1  0.75000  0.11759  0.61898  1
 I  I8  1  0.75000  0.62693  0.60722  1
 Sr  Sr1  1  0.25000  0.13086  0.17097  1
 Sr  Sr2  1  0.75000  0.63086  0.32903  1
 Sr  Sr3  1  0.25000  0.36914  0.67097  1
 Sr  Sr4  1  0.75000  0.86914  0.82903  1
