CIF file written using JARVIS-Tools package.
data_NaErO2
_symmetry_space_group_name_H-M  'C2/c'
_cell_length_a       5.86867
_cell_length_b       5.98012
_cell_length_c       7.34082
_cell_angle_alpha    104.834
_cell_angle_beta     104.214
_cell_angle_gamma    112.242

_symmetry_Int_Tables_number  15
_chemical_formula_structural  NaErO2
_chemical_formula_sum  Na4Er4O8
_cell_volume  212.95981187292153
_cell_formula_units_Z  4
loop_
  _symmetry_equiv_pos_site_id
 _symmetry_equiv_pos_as_xyz
 1  'x, y, z'
loop_
 _atom_site_type_symbol
 _atom_site_label
 _atom_site_symmetry_multiplicity
 _atom_site_fract_x
 _atom_site_fract_y
 _atom_site_fract_z
 _atom_site_fract_occupancy
 Er  Er1  1  0.31727  0.56727  0.63453  1
 Er  Er2  1  0.68273  0.43273  0.36547  1
 Er  Er3  1  0.05669  0.30669  0.11338  1
 Er  Er4  1  0.94331  0.69331  0.88662  1
 Na  Na1  1  0.43015  0.18015  0.86030  1
 Na  Na2  1  0.19440  0.94440  0.38879  1
 Na  Na3  1  0.56985  0.81985  0.13970  1
 Na  Na4  1  0.80560  0.05560  0.61121  1
 O  O1  1  0.05991  0.76978  0.62681  1
 O  O2  1  0.56691  0.35703  0.62681  1
 O  O3  1  0.94009  0.23022  0.37319  1
 O  O4  1  0.43309  0.64297  0.37319  1
 O  O5  1  0.83086  0.54231  0.12387  1
 O  O6  1  0.70699  0.91844  0.87613  1
 O  O7  1  0.16914  0.45769  0.87613  1
 O  O8  1  0.29301  0.08156  0.12387  1
