CIF file written using JARVIS-Tools package.
data_MgCoO2
_symmetry_space_group_name_H-M  'P2_1/m'
_cell_length_a       2.91548
_cell_length_b       7.32526
_cell_length_c       7.48435
_cell_angle_alpha    80.2
_cell_angle_beta     89.9835
_cell_angle_gamma    89.9906

_symmetry_Int_Tables_number  11
_chemical_formula_structural  MgCoO2
_chemical_formula_sum  Mg4Co4O8
_cell_volume  157.50827478518468
_cell_formula_units_Z  4
loop_
  _symmetry_equiv_pos_site_id
 _symmetry_equiv_pos_as_xyz
 1  'x, y, z'
loop_
 _atom_site_type_symbol
 _atom_site_label
 _atom_site_symmetry_multiplicity
 _atom_site_fract_x
 _atom_site_fract_y
 _atom_site_fract_z
 _atom_site_fract_occupancy
 Co  Co1  1  0.26209  0.25421  0.39046  1
 Co  Co2  1  0.26218  0.40213  0.67900  1
 Co  Co3  1  0.76185  0.57779  0.29279  1
 Co  Co4  1  0.76197  0.72571  0.58134  1
 Mg  Mg1  1  0.76213  0.02792  0.79388  1
 Mg  Mg2  1  0.26195  0.95200  0.17793  1
 Mg  Mg3  1  0.26206  0.67615  0.93822  1
 Mg  Mg4  1  0.76200  0.30377  0.03357  1
 O  O1  1  0.26176  0.72977  0.38898  1
 O  O2  1  0.26195  0.45218  0.15752  1
 O  O3  1  0.76208  0.52773  0.81428  1
 O  O4  1  0.76227  0.25014  0.58282  1
 O  O5  1  0.76192  0.11564  0.26656  1
 O  O6  1  0.26208  0.16763  0.91832  1
 O  O7  1  0.26214  0.86429  0.70523  1
 O  O8  1  -0.23803  0.81229  0.05348  1
