CIF file written using JARVIS-Tools package.
data_Ca2Fe2O5
_symmetry_space_group_name_H-M  'Pbam'
_cell_length_a       5.30883
_cell_length_b       3.77069
_cell_length_c       10.1415
_cell_angle_alpha    90
_cell_angle_beta     89.9972
_cell_angle_gamma    90

_symmetry_Int_Tables_number  55
_chemical_formula_structural  Ca2Fe2O5
_chemical_formula_sum  Ca4Fe4O0
_cell_volume  203.0115389653078
_cell_formula_units_Z  2
loop_
  _symmetry_equiv_pos_site_id
 _symmetry_equiv_pos_as_xyz
 1  'x, y, z'
loop_
 _atom_site_type_symbol
 _atom_site_label
 _atom_site_symmetry_multiplicity
 _atom_site_fract_x
 _atom_site_fract_y
 _atom_site_fract_z
 _atom_site_fract_occupancy
 Ca  Ca1  1  0.80617  0.50000  0.86611  1
 Ca  Ca2  1  0.19383  0.50000  0.13389  1
 Ca  Ca3  1  0.30617  0.50000  0.63389  1
 Ca  Ca4  1  0.69383  0.50000  0.36611  1
 Fe  Fe1  1  0.78206  0.00000  0.61804  1
 Fe  Fe2  1  0.21794  0.00000  0.38196  1
 Fe  Fe3  1  0.71794  0.00000  0.11805  1
 Fe  Fe4  1  0.28206  0.00000  0.88195  1
 O  O1  1  0.00000  0.00000  0.00000  1
 O  O2  1  0.92310  0.00000  0.28460  1
 O  O3  1  0.42310  0.00000  0.21539  1
 O  O4  1  0.50000  0.00000  0.50000  1
 O  O5  1  0.79212  0.50000  0.60481  1
 O  O6  1  0.29212  0.50000  0.89518  1
 O  O7  1  0.07690  0.00000  0.71540  1
 O  O8  1  0.57690  0.00000  0.78461  1
 O  O9  1  0.70788  0.50000  0.10482  1
 O  O10  1  0.20788  0.50000  0.39519  1
