CIF file written using JARVIS-Tools package.
data_Ti2ZnO5
_symmetry_space_group_name_H-M  'Cmcm'
_cell_length_a       3.66457
_cell_length_b       5.37424
_cell_length_c       11.728
_cell_angle_alpha    90
_cell_angle_beta     90
_cell_angle_gamma    109.944

_symmetry_Int_Tables_number  63
_chemical_formula_structural  Ti2ZnO5
_chemical_formula_sum  Ti4Zn2O0
_cell_volume  217.12316827720988
_cell_formula_units_Z  2
loop_
  _symmetry_equiv_pos_site_id
 _symmetry_equiv_pos_as_xyz
 1  'x, y, z'
loop_
 _atom_site_type_symbol
 _atom_site_label
 _atom_site_symmetry_multiplicity
 _atom_site_fract_x
 _atom_site_fract_y
 _atom_site_fract_z
 _atom_site_fract_occupancy
 O  O1  1  0.69789  0.39578  0.25000  1
 O  O2  1  0.30211  0.60422  0.75000  1
 O  O3  1  0.23493  0.46988  0.07320  1
 O  O4  1  0.76507  0.53012  0.92680  1
 O  O5  1  0.76507  0.53012  0.57320  1
 O  O6  1  0.23493  0.46988  0.42679  1
 O  O7  1  0.04265  0.08547  0.62946  1
 O  O8  1  0.95735  0.91453  0.37054  1
 O  O9  1  0.04265  0.08547  0.87054  1
 O  O10  1  0.95735  0.91453  0.12946  1
 Ti  Ti1  1  0.20762  0.41527  0.59900  1
 Ti  Ti2  1  0.79238  0.58473  0.40100  1
 Ti  Ti3  1  0.79238  0.58473  0.09900  1
 Ti  Ti4  1  0.20762  0.41527  0.90100  1
 Zn  Zn1  1  0.90898  0.81773  0.75000  1
 Zn  Zn2  1  0.09102  0.18227  0.25000  1
