CIF file written using JARVIS-Tools package.
data_InCuP2Se6
_symmetry_space_group_name_H-M  'P-31c'
_cell_length_a       6.44938
_cell_length_b       6.44938
_cell_length_c       13.3294
_cell_angle_alpha    90
_cell_angle_beta     90
_cell_angle_gamma    120

_symmetry_Int_Tables_number  163
_chemical_formula_structural  InCuP2Se6
_chemical_formula_sum  In2Cu2P4Se2
_cell_volume  480.1497480871491
_cell_formula_units_Z  2
loop_
  _symmetry_equiv_pos_site_id
 _symmetry_equiv_pos_as_xyz
 1  'x, y, z'
loop_
 _atom_site_type_symbol
 _atom_site_label
 _atom_site_symmetry_multiplicity
 _atom_site_fract_x
 _atom_site_fract_y
 _atom_site_fract_z
 _atom_site_fract_occupancy
 Cu  Cu1  1  0.66667  0.33333  0.25000  1
 Cu  Cu2  1  0.33333  0.66667  0.75000  1
 In  In1  1  0.00000  0.00000  0.25000  1
 In  In2  1  0.00000  0.00000  0.75000  1
 P  P1  1  0.66667  0.33333  0.66446  1
 P  P2  1  0.66667  0.33333  0.83554  1
 P  P3  1  0.33333  0.66667  0.33554  1
 P  P4  1  0.33333  0.66667  0.16446  1
 Se  Se1  1  0.00690  0.65883  0.87944  1
 Se  Se2  1  0.65883  0.65193  0.12056  1
 Se  Se3  1  0.34117  0.34807  0.87944  1
 Se  Se4  1  0.65193  0.99310  0.87944  1
 Se  Se5  1  0.65883  0.00690  0.37944  1
 Se  Se6  1  0.99310  0.34117  0.12056  1
 Se  Se7  1  0.65193  0.65883  0.62056  1
 Se  Se8  1  0.99310  0.65193  0.37944  1
 Se  Se9  1  0.34117  0.99310  0.62056  1
 Se  Se10  1  0.34807  0.00690  0.12056  1
 Se  Se11  1  0.00690  0.34807  0.62056  1
 Se  Se12  1  0.34807  0.34117  0.37944  1
