CIF file written using JARVIS-Tools package.
data_Ag3PS4
_symmetry_space_group_name_H-M  'Pmn2_1'
_cell_length_a       6.45265
_cell_length_b       6.97487
_cell_length_c       7.62475
_cell_angle_alpha    90
_cell_angle_beta     90
_cell_angle_gamma    90

_symmetry_Int_Tables_number  31
_chemical_formula_structural  Ag3PS4
_chemical_formula_sum  Ag6P2S8
_cell_volume  343.16233036540285
_cell_formula_units_Z  2
loop_
  _symmetry_equiv_pos_site_id
 _symmetry_equiv_pos_as_xyz
 1  'x, y, z'
loop_
 _atom_site_type_symbol
 _atom_site_label
 _atom_site_symmetry_multiplicity
 _atom_site_fract_x
 _atom_site_fract_y
 _atom_site_fract_z
 _atom_site_fract_occupancy
 Ag  Ag1  1  0.93618  0.78912  0.28805  1
 Ag  Ag2  1  0.43618  0.21088  0.21195  1
 Ag  Ag3  1  0.43618  0.21088  0.78805  1
 Ag  Ag4  1  0.93618  0.78912  0.71195  1
 Ag  Ag5  1  0.34947  0.65824  0.50000  1
 Ag  Ag6  1  0.84947  0.34176  0.00000  1
 P  P1  1  0.41034  0.69939  0.00000  1
 P  P2  1  0.91034  0.30061  0.50000  1
 S  S1  1  0.31395  0.85335  0.77971  1
 S  S2  1  0.81395  0.14665  0.72029  1
 S  S3  1  0.76253  0.56545  0.50000  1
 S  S4  1  0.26253  0.43455  0.00000  1
 S  S5  1  0.81395  0.14665  0.27971  1
 S  S6  1  0.31395  0.85335  0.22029  1
 S  S7  1  0.73030  0.69058  0.00000  1
 S  S8  1  0.23030  0.30942  0.50000  1
