CIF file written using JARVIS-Tools package.
data_MgTa2O6
_symmetry_space_group_name_H-M  'Pmn2_1'
_cell_length_a       5.53053
_cell_length_b       5.17912
_cell_length_c       7.55064
_cell_angle_alpha    90
_cell_angle_beta     90.0004
_cell_angle_gamma    90

_symmetry_Int_Tables_number  31
_chemical_formula_structural  MgTa2O6
_chemical_formula_sum  Mg2Ta4O2
_cell_volume  216.27506932165005
_cell_formula_units_Z  2
loop_
  _symmetry_equiv_pos_site_id
 _symmetry_equiv_pos_as_xyz
 1  'x, y, z'
loop_
 _atom_site_type_symbol
 _atom_site_label
 _atom_site_symmetry_multiplicity
 _atom_site_fract_x
 _atom_site_fract_y
 _atom_site_fract_z
 _atom_site_fract_occupancy
 Mg  Mg1  1  0.17696  0.46611  0.25000  1
 Mg  Mg2  1  0.82304  0.96611  0.75000  1
 O  O1  1  0.43458  0.32161  0.43194  1
 O  O2  1  0.56542  0.82161  0.56806  1
 O  O3  1  0.78864  0.59830  0.25000  1
 O  O4  1  0.02336  0.72536  0.94068  1
 O  O5  1  0.97664  0.22536  0.05932  1
 O  O6  1  0.97663  0.22536  0.44069  1
 O  O7  1  0.56542  0.82161  0.93194  1
 O  O8  1  0.43458  0.32161  0.06806  1
 O  O9  1  0.27183  0.85118  0.25000  1
 O  O10  1  0.72817  0.35118  0.75000  1
 O  O11  1  0.02337  0.72536  0.55931  1
 O  O12  1  0.21136  0.09830  0.75000  1
 Ta  Ta1  1  0.73864  0.48972  0.49760  1
 Ta  Ta2  1  0.26136  0.98972  0.50240  1
 Ta  Ta3  1  0.26136  0.98972  0.99760  1
 Ta  Ta4  1  0.73864  0.48972  0.00240  1
