CIF file written using JARVIS-Tools package.
data_Zn2W3O8
_symmetry_space_group_name_H-M  'P6_3mc'
_cell_length_a       5.82002
_cell_length_b       5.82002
_cell_length_c       10.5722
_cell_angle_alpha    90
_cell_angle_beta     90
_cell_angle_gamma    120

_symmetry_Int_Tables_number  186
_chemical_formula_structural  Zn2W3O8
_chemical_formula_sum  Zn4W6O6
_cell_volume  310.13282950246577
_cell_formula_units_Z  2
loop_
  _symmetry_equiv_pos_site_id
 _symmetry_equiv_pos_as_xyz
 1  'x, y, z'
loop_
 _atom_site_type_symbol
 _atom_site_label
 _atom_site_symmetry_multiplicity
 _atom_site_fract_x
 _atom_site_fract_y
 _atom_site_fract_z
 _atom_site_fract_occupancy
 O  O1  1  0.33333  0.66667  0.89374  1
 O  O2  1  0.83321  0.66642  0.85159  1
 O  O3  1  0.66642  0.83321  0.35159  1
 O  O4  1  0.48532  0.97065  0.62866  1
 O  O5  1  0.83321  0.16679  0.85159  1
 O  O6  1  0.33358  0.16679  0.85159  1
 O  O7  1  0.16679  0.33358  0.35159  1
 O  O8  1  0.16679  0.83321  0.35159  1
 O  O9  1  0.02935  0.51468  0.62866  1
 O  O10  1  0.51468  0.48532  0.12866  1
 O  O11  1  0.00000  0.00000  0.66204  1
 O  O12  1  0.00000  0.00000  0.16204  1
 O  O13  1  0.66667  0.33333  0.39374  1
 O  O14  1  0.97065  0.48532  0.12866  1
 O  O15  1  0.48532  0.51468  0.62866  1
 O  O16  1  0.51468  0.02935  0.12866  1
 W  W1  1  0.18255  0.81745  0.75744  1
 W  W2  1  0.63490  0.81745  0.75744  1
 W  W3  1  0.81745  0.63490  0.25744  1
 W  W4  1  0.36510  0.18255  0.25744  1
 W  W5  1  0.81745  0.18255  0.25744  1
 W  W6  1  0.18255  0.36510  0.75744  1
 Zn  Zn1  1  0.33333  0.66667  0.07416  1
 Zn  Zn2  1  0.66667  0.33333  0.57416  1
 Zn  Zn3  1  0.33333  0.66667  0.46349  1
 Zn  Zn4  1  0.66667  0.33333  0.96349  1
