CIF file written using JARVIS-Tools package.
data_Ce2In8Co
_symmetry_space_group_name_H-M  'P4/mmm'
_cell_length_a       4.64859
_cell_length_b       4.64859
_cell_length_c       12.2629
_cell_angle_alpha    90
_cell_angle_beta     90
_cell_angle_gamma    90

_symmetry_Int_Tables_number  123
_chemical_formula_structural  Ce2In8Co
_chemical_formula_sum  Ce2In8Co
_cell_volume  264.99395282001706
_cell_formula_units_Z  1
loop_
  _symmetry_equiv_pos_site_id
 _symmetry_equiv_pos_as_xyz
 1  'x, y, z'
loop_
 _atom_site_type_symbol
 _atom_site_label
 _atom_site_symmetry_multiplicity
 _atom_site_fract_x
 _atom_site_fract_y
 _atom_site_fract_z
 _atom_site_fract_occupancy
 Ce  Ce1  1  0.00000  0.00000  0.69469  1
 Ce  Ce2  1  0.00000  0.00000  0.30531  1
 Co  Co1  1  0.00000  0.00000  0.00000  1
 In  In1  1  0.50000  0.00000  0.50000  1
 In  In2  1  0.50000  0.00000  0.88197  1
 In  In3  1  0.00000  0.50000  0.50000  1
 In  In4  1  0.00000  0.50000  0.88197  1
 In  In5  1  0.50000  0.50000  0.30773  1
 In  In6  1  0.50000  0.50000  0.69227  1
 In  In7  1  0.00000  0.50000  0.11803  1
 In  In8  1  0.50000  0.00000  0.11803  1
