CIF file written using JARVIS-Tools package.
data_Rb3NbO8
_symmetry_space_group_name_H-M  'I-42m'
_cell_length_a       6.42634
_cell_length_b       6.42635
_cell_length_c       6.42635
_cell_angle_alpha    103.317
_cell_angle_beta     112.633
_cell_angle_gamma    112.633

_symmetry_Int_Tables_number  121
_chemical_formula_structural  Rb3NbO8
_chemical_formula_sum  Rb3NbO8
_cell_volume  202.55913493133767
_cell_formula_units_Z  1
loop_
  _symmetry_equiv_pos_site_id
 _symmetry_equiv_pos_as_xyz
 1  'x, y, z'
loop_
 _atom_site_type_symbol
 _atom_site_label
 _atom_site_symmetry_multiplicity
 _atom_site_fract_x
 _atom_site_fract_y
 _atom_site_fract_z
 _atom_site_fract_occupancy
 Nb  Nb1  1  0.00000  0.00000  0.00000  1
 O  O1  1  0.27536  0.95000  0.95000  1
 O  O2  1  0.00000  0.05000  0.32536  1
 O  O3  1  0.00000  0.32536  0.05000  1
 O  O4  1  0.72464  0.67464  0.67464  1
 O  O5  1  0.58523  0.77257  0.77257  1
 O  O6  1  -0.00000  0.22743  0.81266  1
 O  O7  1  0.00000  0.81266  0.22743  1
 O  O8  1  0.41477  0.18734  0.18734  1
 Rb  Rb1  1  0.00000  0.50000  0.50000  1
 Rb  Rb2  1  0.50000  0.75000  0.25000  1
 Rb  Rb3  1  0.50000  0.25000  0.75000  1
