CIF file written using JARVIS-Tools package.
data_LiBe
_symmetry_space_group_name_H-M  'Pmmn'
_cell_length_a       2.28267
_cell_length_b       3.61645
_cell_length_c       5.90405
_cell_angle_alpha    90
_cell_angle_beta     112.437
_cell_angle_gamma    90

_symmetry_Int_Tables_number  59
_chemical_formula_structural  LiBe
_chemical_formula_sum  Li2Be2
_cell_volume  45.04936520833998
_cell_formula_units_Z  2
loop_
  _symmetry_equiv_pos_site_id
 _symmetry_equiv_pos_as_xyz
 1  'x, y, z'
loop_
 _atom_site_type_symbol
 _atom_site_label
 _atom_site_symmetry_multiplicity
 _atom_site_fract_x
 _atom_site_fract_y
 _atom_site_fract_z
 _atom_site_fract_occupancy
 Be  Be1  1  0.17413  0.75000  0.42377  1
 Be  Be2  1  0.82587  0.25000  0.57623  1
 Li  Li1  1  0.59458  0.75000  0.84542  1
 Li  Li2  1  0.40542  0.25000  0.15458  1
