CIF file written using JARVIS-Tools package.
data_TlAgBr3
_symmetry_space_group_name_H-M  'P1'
_cell_length_a       5.33421
_cell_length_b       5.33173
_cell_length_c       5.33137
_cell_angle_alpha    89.9901
_cell_angle_beta     90.0169
_cell_angle_gamma    90.0749

_symmetry_Int_Tables_number  1
_chemical_formula_structural  TlAgBr3
_chemical_formula_sum  TlAgBr3
_cell_volume  151.6270188037342
_cell_formula_units_Z  1
loop_
  _symmetry_equiv_pos_site_id
 _symmetry_equiv_pos_as_xyz
 1  'x, y, z'
loop_
 _atom_site_type_symbol
 _atom_site_label
 _atom_site_symmetry_multiplicity
 _atom_site_fract_x
 _atom_site_fract_y
 _atom_site_fract_z
 _atom_site_fract_occupancy
 Ag  Ag1  1  0.48186  0.50105  0.49847  1
 Br  Br1  1  0.47788  0.00113  0.49857  1
 Br  Br2  1  0.98134  0.50171  0.49885  1
 Br  Br3  1  0.47822  0.50162  0.99850  1
 Tl  Tl1  1  0.02070  0.99450  0.99562  1
