CIF file written using JARVIS-Tools package.
data_NaLiY2F8
_symmetry_space_group_name_H-M  'Cmcm'
_cell_length_a       6.70845
_cell_length_b       7.05125
_cell_length_c       6.70828
_cell_angle_alpha    90
_cell_angle_beta     103.437
_cell_angle_gamma    90

_symmetry_Int_Tables_number  63
_chemical_formula_structural  NaLiY2F8
_chemical_formula_sum  Na2Li2Y4F6
_cell_volume  308.63575414192206
_cell_formula_units_Z  2
loop_
  _symmetry_equiv_pos_site_id
 _symmetry_equiv_pos_as_xyz
 1  'x, y, z'
loop_
 _atom_site_type_symbol
 _atom_site_label
 _atom_site_symmetry_multiplicity
 _atom_site_fract_x
 _atom_site_fract_y
 _atom_site_fract_z
 _atom_site_fract_occupancy
 F  F1  1  0.93767  0.94876  0.66347  1
 F  F2  1  0.31077  0.75000  0.74584  1
 F  F3  1  0.25416  0.25000  0.68922  1
 F  F4  1  0.66345  0.55124  0.93764  1
 F  F5  1  0.66345  0.94876  0.93764  1
 F  F6  1  0.68923  0.25000  0.25416  1
 F  F7  1  0.93767  0.55124  0.66347  1
 F  F8  1  0.33655  0.44876  0.06236  1
 F  F9  1  0.74584  0.75000  0.31078  1
 F  F10  1  0.91458  0.25000  0.91458  1
 F  F11  1  0.39296  0.75000  0.39297  1
 F  F12  1  0.06233  0.05124  0.33653  1
 F  F13  1  0.08542  0.75000  0.08542  1
 F  F14  1  0.06233  0.44876  0.33653  1
 F  F15  1  0.60704  0.25000  0.60703  1
 F  F16  1  0.33655  0.05124  0.06236  1
 Li  Li1  1  0.00000  0.50000  0.00000  1
 Li  Li2  1  0.00000  0.00000  0.00000  1
 Na  Na1  1  0.66143  0.75000  0.66141  1
 Na  Na2  1  0.33857  0.25000  0.33859  1
 Y  Y1  1  0.92260  0.25000  0.54984  1
 Y  Y2  1  0.54984  0.25000  0.92260  1
 Y  Y3  1  0.07740  0.75000  0.45016  1
 Y  Y4  1  0.45016  0.75000  0.07740  1
