CIF file written using JARVIS-Tools package.
data_AlTlF4
_symmetry_space_group_name_H-M  'C2/c'
_cell_length_a       5.11127
_cell_length_b       5.13028
_cell_length_c       7.30613
_cell_angle_alpha    109.907
_cell_angle_beta     110.475
_cell_angle_gamma    89.9999

_symmetry_Int_Tables_number  15
_chemical_formula_structural  AlTlF4
_chemical_formula_sum  Al2Tl2F8
_cell_volume  167.20562576249282
_cell_formula_units_Z  2
loop_
  _symmetry_equiv_pos_site_id
 _symmetry_equiv_pos_as_xyz
 1  'x, y, z'
loop_
 _atom_site_type_symbol
 _atom_site_label
 _atom_site_symmetry_multiplicity
 _atom_site_fract_x
 _atom_site_fract_y
 _atom_site_fract_z
 _atom_site_fract_occupancy
 Al  Al1  1  0.50000  0.50000  0.00000  1
 Al  Al2  1  0.00000  0.00000  0.00000  1
 F  F1  1  0.69601  0.64442  0.27659  1
 F  F2  1  0.91942  0.85558  0.72341  1
 F  F3  1  0.30399  0.35558  0.72341  1
 F  F4  1  0.08058  0.14442  0.27659  1
 F  F5  1  0.22537  0.72562  0.03856  1
 F  F6  1  0.68681  0.77438  0.96144  1
 F  F7  1  0.77463  0.27438  0.96144  1
 F  F8  1  0.31319  0.22562  0.03856  1
 Tl  Tl1  1  0.73792  0.25000  0.50000  1
 Tl  Tl2  1  0.26208  0.75000  0.50000  1
