CIF file written using JARVIS-Tools package.
data_Ca2Co3O8
_symmetry_space_group_name_H-M  'P6_3mc'
_cell_length_a       5.83718
_cell_length_b       5.83718
_cell_length_c       10.4001
_cell_angle_alpha    90
_cell_angle_beta     90
_cell_angle_gamma    120

_symmetry_Int_Tables_number  186
_chemical_formula_structural  Ca2Co3O8
_chemical_formula_sum  Ca4Co6O6
_cell_volume  306.8843394237868
_cell_formula_units_Z  2
loop_
  _symmetry_equiv_pos_site_id
 _symmetry_equiv_pos_as_xyz
 1  'x, y, z'
loop_
 _atom_site_type_symbol
 _atom_site_label
 _atom_site_symmetry_multiplicity
 _atom_site_fract_x
 _atom_site_fract_y
 _atom_site_fract_z
 _atom_site_fract_occupancy
 Ca  Ca1  1  0.66667  0.33333  0.97739  1
 Ca  Ca2  1  0.33333  0.66667  0.47739  1
 Ca  Ca3  1  0.66667  0.33333  0.56208  1
 Ca  Ca4  1  0.33333  0.66667  0.06208  1
 Co  Co1  1  0.16448  0.83552  0.75385  1
 Co  Co2  1  0.83552  0.67105  0.25385  1
 Co  Co3  1  0.67105  0.83552  0.75385  1
 Co  Co4  1  0.83552  0.16448  0.25385  1
 Co  Co5  1  0.16448  0.32895  0.75385  1
 Co  Co6  1  0.32895  0.16448  0.25385  1
 O  O1  1  0.15192  0.30384  0.34344  1
 O  O2  1  0.84808  0.69616  0.84344  1
 O  O3  1  0.69616  0.84808  0.34344  1
 O  O4  1  0.47851  0.95702  0.65628  1
 O  O5  1  0.84808  0.15192  0.84344  1
 O  O6  1  0.30384  0.15192  0.84344  1
 O  O7  1  0.15192  0.84808  0.34344  1
 O  O8  1  0.33333  0.66667  0.84715  1
 O  O9  1  0.52149  0.47851  0.15628  1
 O  O10  1  0.00000  0.00000  0.65917  1
 O  O11  1  0.00000  0.00000  0.15917  1
 O  O12  1  0.52149  0.04298  0.15628  1
 O  O13  1  0.95702  0.47851  0.15628  1
 O  O14  1  0.47851  0.52149  0.65628  1
 O  O15  1  0.04298  0.52149  0.65628  1
 O  O16  1  0.66667  0.33333  0.34715  1
