CIF file written using JARVIS-Tools package.
data_HfSO
_symmetry_space_group_name_H-M  'P2_13'
_cell_length_a       5.68366
_cell_length_b       5.68366
_cell_length_c       5.68366
_cell_angle_alpha    90
_cell_angle_beta     90
_cell_angle_gamma    90

_symmetry_Int_Tables_number  198
_chemical_formula_structural  HfSO
_chemical_formula_sum  Hf4S4O4
_cell_volume  183.60527897853606
_cell_formula_units_Z  4
loop_
  _symmetry_equiv_pos_site_id
 _symmetry_equiv_pos_as_xyz
 1  'x, y, z'
loop_
 _atom_site_type_symbol
 _atom_site_label
 _atom_site_symmetry_multiplicity
 _atom_site_fract_x
 _atom_site_fract_y
 _atom_site_fract_z
 _atom_site_fract_occupancy
 Hf  Hf1  1  0.68010  0.81990  0.18010  1
 Hf  Hf2  1  0.81990  0.18010  0.68010  1
 Hf  Hf3  1  0.18010  0.68010  0.81990  1
 Hf  Hf4  1  0.31990  0.31990  0.31990  1
 O  O1  1  0.40494  0.59506  0.09506  1
 O  O2  1  0.59506  0.09506  0.40494  1
 O  O3  1  0.90494  0.90494  0.90494  1
 O  O4  1  0.09506  0.40494  0.59506  1
 S  S1  1  0.91813  0.41813  0.08187  1
 S  S2  1  0.08187  0.91813  0.41813  1
 S  S3  1  0.41813  0.08187  0.91813  1
 S  S4  1  0.58187  0.58187  0.58187  1
