CIF file written using JARVIS-Tools package.
data_ErCuS2
_symmetry_space_group_name_H-M  'Pnma'
_cell_length_a       3.92527
_cell_length_b       6.24061
_cell_length_c       13.2515
_cell_angle_alpha    90
_cell_angle_beta     90
_cell_angle_gamma    90

_symmetry_Int_Tables_number  62
_chemical_formula_structural  ErCuS2
_chemical_formula_sum  Er4Cu4S8
_cell_volume  324.60955195369417
_cell_formula_units_Z  4
loop_
  _symmetry_equiv_pos_site_id
 _symmetry_equiv_pos_as_xyz
 1  'x, y, z'
loop_
 _atom_site_type_symbol
 _atom_site_label
 _atom_site_symmetry_multiplicity
 _atom_site_fract_x
 _atom_site_fract_y
 _atom_site_fract_z
 _atom_site_fract_occupancy
 Cu  Cu1  1  0.25000  0.12058  0.95261  1
 Cu  Cu2  1  0.75000  0.62058  0.54739  1
 Cu  Cu3  1  0.75000  0.87942  0.04739  1
 Cu  Cu4  1  0.25000  0.37942  0.45261  1
 Er  Er1  1  0.25000  0.50159  0.13368  1
 Er  Er2  1  0.75000  0.49841  0.86632  1
 Er  Er3  1  0.75000  0.00159  0.36632  1
 Er  Er4  1  0.25000  0.99841  0.63368  1
 S  S1  1  0.25000  0.26393  0.79247  1
 S  S2  1  0.75000  0.73607  0.20753  1
 S  S3  1  0.75000  0.76393  0.70753  1
 S  S4  1  0.25000  0.23607  0.29247  1
 S  S5  1  0.25000  0.74235  0.95917  1
 S  S6  1  0.25000  0.75765  0.45917  1
 S  S7  1  0.75000  0.24235  0.54083  1
 S  S8  1  0.75000  0.25765  0.04083  1
