CIF file written using JARVIS-Tools package.
data_Li2CrNiP2O8
_symmetry_space_group_name_H-M  'P2_1/m'
_cell_length_a       4.70881
_cell_length_b       6.03774
_cell_length_c       10.0415
_cell_angle_alpha    90
_cell_angle_beta     90.0321
_cell_angle_gamma    90

_symmetry_Int_Tables_number  11
_chemical_formula_structural  Li2CrNiP2O8
_chemical_formula_sum  Li4Cr2Ni2P4O6
_cell_volume  285.4851793150609
_cell_formula_units_Z  2
loop_
  _symmetry_equiv_pos_site_id
 _symmetry_equiv_pos_as_xyz
 1  'x, y, z'
loop_
 _atom_site_type_symbol
 _atom_site_label
 _atom_site_symmetry_multiplicity
 _atom_site_fract_x
 _atom_site_fract_y
 _atom_site_fract_z
 _atom_site_fract_occupancy
 Cr  Cr1  1  0.52506  0.25000  0.22091  1
 Cr  Cr2  1  0.47494  0.75000  0.77909  1
 Li  Li1  1  0.00000  0.00000  0.00000  1
 Li  Li2  1  0.00000  0.50000  0.00000  1
 Li  Li3  1  0.50000  0.00000  0.50000  1
 Li  Li4  1  0.50000  0.50000  0.50000  1
 Ni  Ni1  1  0.04316  0.75000  0.27878  1
 Ni  Ni2  1  0.95684  0.25000  0.72122  1
 O  O1  1  0.25316  0.75000  0.09287  1
 O  O2  1  0.22979  0.04819  0.33341  1
 O  O3  1  0.22979  0.45181  0.33341  1
 O  O4  1  0.29546  0.25000  0.05282  1
 O  O5  1  0.71262  0.95830  0.16038  1
 O  O6  1  0.74684  0.25000  0.90713  1
 O  O7  1  0.80377  0.75000  0.44997  1
 O  O8  1  0.71262  0.54170  0.16038  1
 O  O9  1  0.19623  0.25000  0.55003  1
 O  O10  1  0.28738  0.45830  0.83962  1
 O  O11  1  0.77021  0.95181  0.66659  1
 O  O12  1  0.77021  0.54819  0.66659  1
 O  O13  1  0.75849  0.25000  0.39603  1
 O  O14  1  0.28738  0.04170  0.83962  1
 O  O15  1  0.24151  0.75000  0.60397  1
 O  O16  1  0.70454  0.75000  0.94718  1
 P  P1  1  0.57881  0.75000  0.09224  1
 P  P2  1  0.08571  0.25000  0.40522  1
 P  P3  1  0.91429  0.75000  0.59478  1
 P  P4  1  0.42119  0.25000  0.90776  1
