CIF file written using JARVIS-Tools package.
data_MgCr4O9
_symmetry_space_group_name_H-M  'P4/n'
_cell_length_a       4.72323
_cell_length_b       8.20324
_cell_length_c       8.20324
_cell_angle_alpha    90
_cell_angle_beta     90
_cell_angle_gamma    90

_symmetry_Int_Tables_number  85
_chemical_formula_structural  MgCr4O9
_chemical_formula_sum  Mg2Cr8O8
_cell_volume  317.841134189123
_cell_formula_units_Z  2
loop_
  _symmetry_equiv_pos_site_id
 _symmetry_equiv_pos_as_xyz
 1  'x, y, z'
loop_
 _atom_site_type_symbol
 _atom_site_label
 _atom_site_symmetry_multiplicity
 _atom_site_fract_x
 _atom_site_fract_y
 _atom_site_fract_z
 _atom_site_fract_occupancy
 Cr  Cr1  1  0.62735  0.53688  0.34326  1
 Cr  Cr2  1  0.37265  0.03688  0.84326  1
 Cr  Cr3  1  0.37265  0.65674  0.03688  1
 Cr  Cr4  1  0.62735  0.15674  0.53688  1
 Cr  Cr5  1  0.62735  0.96312  0.15674  1
 Cr  Cr6  1  0.37265  0.46312  0.65674  1
 Cr  Cr7  1  0.62735  0.34326  0.96312  1
 Cr  Cr8  1  0.37265  0.84326  0.46312  1
 Mg  Mg1  1  0.15030  0.25000  0.25000  1
 Mg  Mg2  1  0.84970  0.75000  0.75000  1
 O  O1  1  0.50000  0.75000  0.25000  1
 O  O2  1  0.50000  0.25000  0.75000  1
 O  O3  1  0.04067  0.68462  0.97985  1
 O  O4  1  0.54051  0.64467  0.54600  1
 O  O5  1  0.04067  0.97985  0.81538  1
 O  O6  1  0.04067  0.81538  0.52015  1
 O  O7  1  0.95933  0.31538  0.02015  1
 O  O8  1  0.04067  0.52015  0.68462  1
 O  O9  1  0.45949  0.45400  0.14467  1
 O  O10  1  0.45949  0.04600  0.35533  1
 O  O11  1  0.45949  0.14467  0.04600  1
 O  O12  1  0.45949  0.35533  0.45400  1
 O  O13  1  0.95933  0.47985  0.31538  1
 O  O14  1  0.54051  0.54600  0.85533  1
 O  O15  1  0.54051  0.85533  0.95400  1
 O  O16  1  0.95933  0.18462  0.47985  1
 O  O17  1  0.95933  0.02015  0.18462  1
 O  O18  1  0.54051  0.95400  0.64467  1
