CIF file written using JARVIS-Tools package.
data_Bi2O3
_symmetry_space_group_name_H-M  'P-4m2'
_cell_length_a       3.90498
_cell_length_b       3.90498
_cell_length_c       5.83803
_cell_angle_alpha    90
_cell_angle_beta     90
_cell_angle_gamma    90

_symmetry_Int_Tables_number  115
_chemical_formula_structural  Bi2O3
_chemical_formula_sum  Bi2O3
_cell_volume  89.0232921797773
_cell_formula_units_Z  1
loop_
  _symmetry_equiv_pos_site_id
 _symmetry_equiv_pos_as_xyz
 1  'x, y, z'
loop_
 _atom_site_type_symbol
 _atom_site_label
 _atom_site_symmetry_multiplicity
 _atom_site_fract_x
 _atom_site_fract_y
 _atom_site_fract_z
 _atom_site_fract_occupancy
 Bi  Bi1  1  0.00000  0.50000  0.22401  1
 Bi  Bi2  1  0.50000  0.00000  0.77599  1
 O  O1  1  0.00000  0.00000  0.00000  1
 O  O2  1  0.00000  0.00000  0.50000  1
 O  O3  1  0.50000  0.50000  0.00000  1
