CIF file written using JARVIS-Tools package.
data_Mg2TaNb2O8
_symmetry_space_group_name_H-M  'P1'
_cell_length_a       5.21604
_cell_length_b       5.96863
_cell_length_c       9.98253
_cell_angle_alpha    103.991
_cell_angle_beta     93.4842
_cell_angle_gamma    91.6822

_symmetry_Int_Tables_number  1
_chemical_formula_structural  Mg2TaNb2O8
_chemical_formula_sum  Mg4Ta2Nb4O6
_cell_volume  300.6936125176713
_cell_formula_units_Z  2
loop_
  _symmetry_equiv_pos_site_id
 _symmetry_equiv_pos_as_xyz
 1  'x, y, z'
loop_
 _atom_site_type_symbol
 _atom_site_label
 _atom_site_symmetry_multiplicity
 _atom_site_fract_x
 _atom_site_fract_y
 _atom_site_fract_z
 _atom_site_fract_occupancy
 Mg  Mg1  1  0.76553  0.41882  0.55234  1
 Mg  Mg2  1  0.74693  0.86118  0.46206  1
 Mg  Mg3  1  0.23340  0.58365  0.44921  1
 Mg  Mg4  1  0.25222  0.14192  0.53979  1
 Nb  Nb1  1  0.27976  0.99145  0.23340  1
 Nb  Nb2  1  0.28112  0.75535  0.75360  1
 Nb  Nb3  1  0.71788  0.24836  0.24764  1
 Nb  Nb4  1  0.71835  0.01014  0.76799  1
 O  O1  1  0.06227  0.20351  0.13535  1
 O  O2  1  0.39069  0.09114  0.88699  1
 O  O3  1  0.93309  0.08020  0.36880  1
 O  O4  1  0.60609  0.91268  0.11409  1
 O  O5  1  0.58728  0.45128  0.11454  1
 O  O6  1  0.90257  0.33006  0.89785  1
 O  O7  1  0.93819  0.79942  0.86616  1
 O  O8  1  0.09376  0.67339  0.10320  1
 O  O9  1  0.61984  0.15799  0.61839  1
 O  O10  1  0.37884  0.84425  0.38260  1
 O  O11  1  0.13222  0.45616  0.61660  1
 O  O12  1  0.40920  0.55074  0.88643  1
 O  O13  1  0.86655  0.54660  0.38441  1
 O  O14  1  0.42709  0.29890  0.38235  1
 O  O15  1  0.06512  0.92215  0.63165  1
 O  O16  1  0.57195  0.70330  0.61868  1
 Ta  Ta1  1  0.24306  0.34805  0.00884  1
 Ta  Ta2  1  0.75311  0.65577  0.99115  1
