CIF file written using JARVIS-Tools package.
data_MnSnO3
_symmetry_space_group_name_H-M  'R-3'
_cell_length_a       5.75193
_cell_length_b       5.75192
_cell_length_c       5.75193
_cell_angle_alpha    56.2547
_cell_angle_beta     56.2547
_cell_angle_gamma    56.2547

_symmetry_Int_Tables_number  148
_chemical_formula_structural  MnSnO3
_chemical_formula_sum  Mn2Sn2O6
_cell_volume  122.90073724905449
_cell_formula_units_Z  2
loop_
  _symmetry_equiv_pos_site_id
 _symmetry_equiv_pos_as_xyz
 1  'x, y, z'
loop_
 _atom_site_type_symbol
 _atom_site_label
 _atom_site_symmetry_multiplicity
 _atom_site_fract_x
 _atom_site_fract_y
 _atom_site_fract_z
 _atom_site_fract_occupancy
 Mn  Mn1  1  0.36371  0.36371  0.36371  1
 Mn  Mn2  1  0.63629  0.63629  0.63629  1
 O  O1  1  0.76498  0.44590  0.04721  1
 O  O2  1  0.44590  0.04721  0.76498  1
 O  O3  1  0.04721  0.76498  0.44590  1
 O  O4  1  0.23502  0.55410  0.95279  1
 O  O5  1  0.95279  0.23502  0.55410  1
 O  O6  1  0.55410  0.95279  0.23502  1
 Sn  Sn1  1  0.14984  0.14984  0.14984  1
 Sn  Sn2  1  0.85016  0.85016  0.85016  1
