CIF file written using JARVIS-Tools package.
data_Li2PdF6
_symmetry_space_group_name_H-M  'P4_2/mnm'
_cell_length_a       4.63881
_cell_length_b       4.64192
_cell_length_c       10.1992
_cell_angle_alpha    90
_cell_angle_beta     117.052
_cell_angle_gamma    90

_symmetry_Int_Tables_number  136
_chemical_formula_structural  Li2PdF6
_chemical_formula_sum  Li4Pd2F2
_cell_volume  195.5919704360512
_cell_formula_units_Z  2
loop_
  _symmetry_equiv_pos_site_id
 _symmetry_equiv_pos_as_xyz
 1  'x, y, z'
loop_
 _atom_site_type_symbol
 _atom_site_label
 _atom_site_symmetry_multiplicity
 _atom_site_fract_x
 _atom_site_fract_y
 _atom_site_fract_z
 _atom_site_fract_occupancy
 F  F1  1  0.03331  0.69367  0.33862  1
 F  F2  1  0.35603  0.69385  0.66132  1
 F  F3  1  0.64397  0.19385  0.83868  1
 F  F4  1  0.35603  0.80615  0.16132  1
 F  F5  1  0.70509  0.79594  0.50000  1
 F  F6  1  0.29491  0.29594  0.00000  1
 F  F7  1  0.29491  0.20406  0.50000  1
 F  F8  1  0.96669  0.19367  0.16138  1
 F  F9  1  0.64397  0.30615  0.33868  1
 F  F10  1  0.03331  0.80633  0.83862  1
 F  F11  1  0.96669  0.30633  0.66138  1
 F  F12  1  0.70509  0.70406  1.00000  1
 Li  Li1  1  0.66382  0.49983  0.16381  1
 Li  Li2  1  0.66382  0.00017  0.66381  1
 Li  Li3  1  0.33618  0.50017  0.83619  1
 Li  Li4  1  0.33618  0.99983  0.33619  1
 Pd  Pd1  1  0.00000  0.00000  0.00000  1
 Pd  Pd2  1  -0.00000  0.50000  0.50000  1
