CIF file written using JARVIS-Tools package.
data_Li2AgF5
_symmetry_space_group_name_H-M  'P2_1/m'
_cell_length_a       5.28656
_cell_length_b       6.09134
_cell_length_c       8.75976
_cell_angle_alpha    90.0039
_cell_angle_beta     90.0006
_cell_angle_gamma    133.874

_symmetry_Int_Tables_number  11
_chemical_formula_structural  Li2AgF5
_chemical_formula_sum  Li4Ag2F0
_cell_volume  203.34615401596562
_cell_formula_units_Z  2
loop_
  _symmetry_equiv_pos_site_id
 _symmetry_equiv_pos_as_xyz
 1  'x, y, z'
loop_
 _atom_site_type_symbol
 _atom_site_label
 _atom_site_symmetry_multiplicity
 _atom_site_fract_x
 _atom_site_fract_y
 _atom_site_fract_z
 _atom_site_fract_occupancy
 Ag  Ag1  1  0.68024  0.46554  0.25000  1
 Ag  Ag2  1  0.31975  0.53447  0.75000  1
 F  F1  1  0.55787  0.18027  0.40870  1
 F  F2  1  0.55793  0.18035  0.09125  1
 F  F3  1  0.82578  0.75840  0.40965  1
 F  F4  1  0.82581  0.75842  0.09039  1
 F  F5  1  0.89778  0.68789  0.75001  1
 F  F6  1  0.10221  0.31208  0.24999  1
 F  F7  1  0.17420  0.24160  0.90961  1
 F  F8  1  0.17427  0.24164  0.59034  1
 F  F9  1  0.44214  0.81974  0.59130  1
 F  F10  1  0.44206  0.81965  0.90876  1
 Li  Li1  1  0.14742  0.90154  0.92202  1
 Li  Li2  1  0.14745  0.90158  0.57800  1
 Li  Li3  1  -0.14746  0.09840  0.42199  1
 Li  Li4  1  -0.14745  0.09843  0.07800  1
