CIF file written using JARVIS-Tools package.
data_Sc2Si2O7
_symmetry_space_group_name_H-M  'C2/m'
_cell_length_a       4.73102
_cell_length_b       5.3816
_cell_length_c       5.38159
_cell_angle_alpha    105.061
_cell_angle_beta     97.7313
_cell_angle_gamma    97.7313

_symmetry_Int_Tables_number  12
_chemical_formula_structural  Sc2Si2O7
_chemical_formula_sum  Sc2Si2O7
_cell_volume  129.0357189240201
_cell_formula_units_Z  1
loop_
  _symmetry_equiv_pos_site_id
 _symmetry_equiv_pos_as_xyz
 1  'x, y, z'
loop_
 _atom_site_type_symbol
 _atom_site_label
 _atom_site_symmetry_multiplicity
 _atom_site_fract_x
 _atom_site_fract_y
 _atom_site_fract_z
 _atom_site_fract_occupancy
 O  O1  1  0.78690  0.92209  0.60519  1
 O  O2  1  0.21310  0.39481  0.07791  1
 O  O3  1  0.21310  0.07791  0.39481  1
 O  O4  1  0.78690  0.60519  0.92209  1
 O  O5  1  0.50000  -0.00000  -0.00000  1
 O  O6  1  0.27874  0.60476  0.60476  1
 O  O7  1  0.72126  0.39524  0.39524  1
 Sc  Sc1  1  -0.00000  0.30947  0.69053  1
 Sc  Sc2  1  0.00000  0.69053  0.30947  1
 Si  Si1  1  0.40822  0.22484  0.22484  1
 Si  Si2  1  0.59178  0.77516  0.77516  1
