CIF file written using JARVIS-Tools package.
data_Ca3N2
_symmetry_space_group_name_H-M  'Pbcn'
_cell_length_a       6.18449
_cell_length_b       6.32704
_cell_length_c       8.90408
_cell_angle_alpha    90
_cell_angle_beta     90
_cell_angle_gamma    90

_symmetry_Int_Tables_number  60
_chemical_formula_structural  Ca3N2
_chemical_formula_sum  Ca2N8
_cell_volume  348.41281794567584
_cell_formula_units_Z  4
loop_
  _symmetry_equiv_pos_site_id
 _symmetry_equiv_pos_as_xyz
 1  'x, y, z'
loop_
 _atom_site_type_symbol
 _atom_site_label
 _atom_site_symmetry_multiplicity
 _atom_site_fract_x
 _atom_site_fract_y
 _atom_site_fract_z
 _atom_site_fract_occupancy
 Ca  Ca1  1  0.60651  0.10528  0.84722  1
 Ca  Ca2  1  0.54479  0.25000  0.50000  1
 Ca  Ca3  1  0.95521  0.75000  0.00000  1
 Ca  Ca4  1  0.10651  0.10528  0.65278  1
 Ca  Ca5  1  0.89349  0.89472  0.34722  1
 Ca  Ca6  1  0.60651  0.39472  0.15278  1
 Ca  Ca7  1  0.45521  0.75000  0.50000  1
 Ca  Ca8  1  0.04479  0.25000  0.00000  1
 Ca  Ca9  1  0.39349  0.89472  0.15278  1
 Ca  Ca10  1  0.10651  0.39472  0.34722  1
 Ca  Ca11  1  0.89349  0.60528  0.65278  1
 Ca  Ca12  1  0.39349  0.60528  0.84722  1
 N  N1  1  0.25272  0.46839  0.61241  1
 N  N2  1  0.24728  0.96839  0.88759  1
 N  N3  1  0.75272  0.03161  0.11241  1
 N  N4  1  0.74728  0.53161  0.38759  1
 N  N5  1  0.25272  0.03161  0.38759  1
 N  N6  1  0.74728  0.96839  0.61241  1
 N  N7  1  0.75272  0.46839  0.88759  1
 N  N8  1  0.24728  0.53161  0.11241  1
