CIF file written using JARVIS-Tools package.
data_GaSiMo4S8
_symmetry_space_group_name_H-M  'F-43m'
_cell_length_a       7.45668
_cell_length_b       7.45668
_cell_length_c       7.45668
_cell_angle_alpha    60
_cell_angle_beta     60
_cell_angle_gamma    60

_symmetry_Int_Tables_number  216
_chemical_formula_structural  GaSiMo4S8
_chemical_formula_sum  GaSiMo4S8
_cell_volume  293.17131274060705
_cell_formula_units_Z  1
loop_
  _symmetry_equiv_pos_site_id
 _symmetry_equiv_pos_as_xyz
 1  'x, y, z'
loop_
 _atom_site_type_symbol
 _atom_site_label
 _atom_site_symmetry_multiplicity
 _atom_site_fract_x
 _atom_site_fract_y
 _atom_site_fract_z
 _atom_site_fract_occupancy
 Ga  Ga1  1  0.00000  0.00000  0.00000  1
 Mo  Mo1  1  0.78235  0.40588  0.40588  1
 Mo  Mo2  1  0.40588  0.40588  0.78235  1
 Mo  Mo3  1  0.40588  0.40588  0.40588  1
 Mo  Mo4  1  0.40588  0.78235  0.40588  1
 S  S1  1  0.13603  0.13603  0.13603  1
 S  S2  1  0.59190  0.13603  0.13603  1
 S  S3  1  0.13603  0.13603  0.59190  1
 S  S4  1  0.13603  0.59190  0.13603  1
 S  S5  1  0.62584  0.12248  0.62584  1
 S  S6  1  0.62584  0.62584  0.62584  1
 S  S7  1  0.62584  0.62584  0.12248  1
 S  S8  1  0.12248  0.62584  0.62584  1
 Si  Si1  1  0.25000  0.25000  0.25000  1
