CIF file written using JARVIS-Tools package.
data_RbSb2Se4
_symmetry_space_group_name_H-M  'P-1'
_cell_length_a       6.47512
_cell_length_b       7.13181
_cell_length_c       9.72089
_cell_angle_alpha    80.8012
_cell_angle_beta     85.0318
_cell_angle_gamma    73.7844

_symmetry_Int_Tables_number  2
_chemical_formula_structural  RbSb2Se4
_chemical_formula_sum  Rb2Sb4Se8
_cell_volume  425.0852867519066
_cell_formula_units_Z  2
loop_
  _symmetry_equiv_pos_site_id
 _symmetry_equiv_pos_as_xyz
 1  'x, y, z'
loop_
 _atom_site_type_symbol
 _atom_site_label
 _atom_site_symmetry_multiplicity
 _atom_site_fract_x
 _atom_site_fract_y
 _atom_site_fract_z
 _atom_site_fract_occupancy
 Rb  Rb1  1  0.17540  0.18522  0.56015  1
 Rb  Rb2  1  0.82460  0.81478  0.43985  1
 Sb  Sb1  1  0.84407  0.81286  0.95528  1
 Sb  Sb2  1  0.15593  0.18714  0.04472  1
 Sb  Sb3  1  0.44619  0.59851  0.16728  1
 Sb  Sb4  1  0.55381  0.40149  0.83272  1
 Se  Se1  1  0.22830  0.85245  0.88027  1
 Se  Se2  1  0.77170  0.14755  0.11973  1
 Se  Se3  1  0.32061  0.93309  0.27363  1
 Se  Se4  1  0.67939  0.06691  0.72637  1
 Se  Se5  1  0.39097  0.60029  0.58426  1
 Se  Se6  1  0.60903  0.39971  0.41574  1
 Se  Se7  1  0.08493  0.49133  0.21288  1
 Se  Se8  1  0.91507  0.50867  0.78712  1
