CIF file written using JARVIS-Tools package.
data_BrF5
_symmetry_space_group_name_H-M  'Cmc2_1'
_cell_length_a       4.87599
_cell_length_b       4.87598
_cell_length_c       7.61071
_cell_angle_alpha    90
_cell_angle_beta     90
_cell_angle_gamma    97.3636

_symmetry_Int_Tables_number  36
_chemical_formula_structural  BrF5
_chemical_formula_sum  Br2F0
_cell_volume  179.45431412824993
_cell_formula_units_Z  2
loop_
  _symmetry_equiv_pos_site_id
 _symmetry_equiv_pos_as_xyz
 1  'x, y, z'
loop_
 _atom_site_type_symbol
 _atom_site_label
 _atom_site_symmetry_multiplicity
 _atom_site_fract_x
 _atom_site_fract_y
 _atom_site_fract_z
 _atom_site_fract_occupancy
 Br  Br1  1  0.82997  0.17003  0.25478  1
 Br  Br2  1  0.17003  0.82997  0.75478  1
 F  F1  1  0.09798  0.46744  0.24462  1
 F  F2  1  0.90202  0.53256  0.74462  1
 F  F3  1  0.33847  0.66153  0.59082  1
 F  F4  1  0.66153  0.33847  0.09082  1
 F  F5  1  0.35567  0.64433  0.91071  1
 F  F6  1  0.64433  0.35567  0.41071  1
 F  F7  1  0.00621  0.99379  0.56445  1
 F  F8  1  0.99379  0.00621  0.06445  1
 F  F9  1  0.46744  0.09798  0.74462  1
 F  F10  1  0.53256  0.90202  0.24462  1
