CIF file written using JARVIS-Tools package.
data_RbSr2Nb3O10
_symmetry_space_group_name_H-M  'P4/mmm'
_cell_length_a       3.98224
_cell_length_b       3.98224
_cell_length_c       15.3312
_cell_angle_alpha    90
_cell_angle_beta     90
_cell_angle_gamma    90

_symmetry_Int_Tables_number  123
_chemical_formula_structural  RbSr2Nb3O10
_chemical_formula_sum  RbSr2Nb3O0
_cell_volume  243.12664779849482
_cell_formula_units_Z  1
loop_
  _symmetry_equiv_pos_site_id
 _symmetry_equiv_pos_as_xyz
 1  'x, y, z'
loop_
 _atom_site_type_symbol
 _atom_site_label
 _atom_site_symmetry_multiplicity
 _atom_site_fract_x
 _atom_site_fract_y
 _atom_site_fract_z
 _atom_site_fract_occupancy
 Nb  Nb1  1  0.00000  0.00000  0.00000  1
 Nb  Nb2  1  0.00000  0.00000  0.28691  1
 Nb  Nb3  1  0.00000  0.00000  0.71309  1
 O  O1  1  0.00000  0.00000  0.59576  1
 O  O2  1  0.00000  0.00000  0.40424  1
 O  O3  1  0.50000  0.00000  0.74072  1
 O  O4  1  0.00000  0.50000  0.74072  1
 O  O5  1  0.50000  0.00000  0.25928  1
 O  O6  1  0.00000  0.50000  0.25928  1
 O  O7  1  0.00000  0.50000  0.00000  1
 O  O8  1  0.50000  0.00000  0.00000  1
 O  O9  1  0.00000  0.00000  0.12937  1
 O  O10  1  0.00000  0.00000  0.87063  1
 Rb  Rb1  1  0.50000  0.50000  0.50000  1
 Sr  Sr1  1  0.50000  0.50000  0.14631  1
 Sr  Sr2  1  0.50000  0.50000  0.85369  1
