CIF file written using JARVIS-Tools package.
data_NaCSN
_symmetry_space_group_name_H-M  'Pnma'
_cell_length_a       3.98197
_cell_length_b       5.59353
_cell_length_c       13.2868
_cell_angle_alpha    90
_cell_angle_beta     90
_cell_angle_gamma    90

_symmetry_Int_Tables_number  62
_chemical_formula_structural  NaCSN
_chemical_formula_sum  Na4C4S4N4
_cell_volume  295.9404359390585
_cell_formula_units_Z  4
loop_
  _symmetry_equiv_pos_site_id
 _symmetry_equiv_pos_as_xyz
 1  'x, y, z'
loop_
 _atom_site_type_symbol
 _atom_site_label
 _atom_site_symmetry_multiplicity
 _atom_site_fract_x
 _atom_site_fract_y
 _atom_site_fract_z
 _atom_site_fract_occupancy
 C  C1  1  0.25000  0.88977  0.11451  1
 C  C2  1  0.75000  0.38977  0.38549  1
 C  C3  1  0.25000  0.61023  0.61451  1
 C  C4  1  0.75000  0.11023  0.88549  1
 N  N1  1  0.75000  0.28498  0.93621  1
 N  N2  1  0.25000  0.78498  0.56379  1
 N  N3  1  0.25000  0.71502  0.06379  1
 N  N4  1  0.75000  0.21502  0.43621  1
 Na  Na1  1  0.25000  0.54886  0.89589  1
 Na  Na2  1  0.75000  0.04886  0.60411  1
 Na  Na3  1  0.75000  0.45114  0.10411  1
 Na  Na4  1  0.25000  0.95114  0.39589  1
 S  S1  1  0.25000  0.12575  0.18615  1
 S  S2  1  0.75000  0.87425  0.81385  1
 S  S3  1  0.75000  0.62575  0.31385  1
 S  S4  1  0.25000  0.37425  0.68615  1
