CIF file written using JARVIS-Tools package.
data_Rb2MgO2
_symmetry_space_group_name_H-M  'Ibam'
_cell_length_a       5.53307
_cell_length_b       6.28914
_cell_length_c       10.9852
_cell_angle_alpha    90
_cell_angle_beta     90
_cell_angle_gamma    90

_symmetry_Int_Tables_number  72
_chemical_formula_structural  Rb2MgO2
_chemical_formula_sum  Rb8Mg4O8
_cell_volume  382.26682774037914
_cell_formula_units_Z  4
loop_
  _symmetry_equiv_pos_site_id
 _symmetry_equiv_pos_as_xyz
 1  'x, y, z'
loop_
 _atom_site_type_symbol
 _atom_site_label
 _atom_site_symmetry_multiplicity
 _atom_site_fract_x
 _atom_site_fract_y
 _atom_site_fract_z
 _atom_site_fract_occupancy
 Mg  Mg1  1  0.25000  0.50004  0.50000  1
 Mg  Mg2  1  0.75000  0.99996  0.00000  1
 Mg  Mg3  1  0.75000  0.49996  0.50000  1
 Mg  Mg4  1  0.25000  0.00004  0.00000  1
 O  O1  1  0.49997  0.32930  0.59118  1
 O  O2  1  -0.00003  0.67070  0.59118  1
 O  O3  1  0.00003  0.32930  0.40882  1
 O  O4  1  0.50003  0.67070  0.40882  1
 O  O5  1  0.50003  0.17070  0.09118  1
 O  O6  1  0.00003  0.82930  0.09118  1
 O  O7  1  -0.00003  0.17070  0.90882  1
 O  O8  1  0.49997  0.82930  0.90882  1
 Rb  Rb1  1  0.50015  0.36282  0.84497  1
 Rb  Rb2  1  0.00015  0.63718  0.84497  1
 Rb  Rb3  1  0.00015  0.13718  0.65503  1
 Rb  Rb4  1  0.50015  0.86282  0.65503  1
 Rb  Rb5  1  0.49985  0.13718  0.34497  1
 Rb  Rb6  1  0.99985  0.86282  0.34497  1
 Rb  Rb7  1  0.99985  0.36282  0.15503  1
 Rb  Rb8  1  0.49985  0.63718  0.15503  1
