CIF file written using JARVIS-Tools package.
data_MgMnO2
_symmetry_space_group_name_H-M  'P2_1/m'
_cell_length_a       3.06275
_cell_length_b       7.52474
_cell_length_c       7.55917
_cell_angle_alpha    70.8681
_cell_angle_beta     90.0007
_cell_angle_gamma    90.001

_symmetry_Int_Tables_number  11
_chemical_formula_structural  MgMnO2
_chemical_formula_sum  Mg4Mn4O8
_cell_volume  164.5894875941775
_cell_formula_units_Z  4
loop_
  _symmetry_equiv_pos_site_id
 _symmetry_equiv_pos_as_xyz
 1  'x, y, z'
loop_
 _atom_site_type_symbol
 _atom_site_label
 _atom_site_symmetry_multiplicity
 _atom_site_fract_x
 _atom_site_fract_y
 _atom_site_fract_z
 _atom_site_fract_occupancy
 Mg  Mg1  1  0.76203  0.94776  0.19785  1
 Mg  Mg2  1  0.26202  0.07232  0.83035  1
 Mg  Mg3  1  0.26202  0.32078  0.07452  1
 Mg  Mg4  1  0.76202  0.69931  0.95369  1
 Mn  Mn1  1  0.26203  0.82476  0.57951  1
 Mn  Mn2  1  0.26203  0.57312  0.32140  1
 Mn  Mn3  1  0.76202  0.44696  0.70680  1
 Mn  Mn4  1  0.76203  0.19532  0.44869  1
 O  O1  1  0.26202  0.31475  0.58416  1
 O  O2  1  0.26202  0.57293  0.83898  1
 O  O3  1  0.76202  0.44716  0.18922  1
 O  O4  1  0.76203  0.70533  0.44404  1
 O  O5  1  0.76202  0.94657  0.71539  1
 O  O6  1  0.26202  0.82782  0.07150  1
 O  O7  1  0.26202  0.07351  0.31281  1
 O  O8  1  0.76202  0.19227  0.95670  1
