CIF file written using JARVIS-Tools package.
data_Ce2Al2Co15
_symmetry_space_group_name_H-M  'R-3m'
_cell_length_a       6.30656
_cell_length_b       6.30657
_cell_length_c       6.30656
_cell_angle_alpha    82.439
_cell_angle_beta     82.439
_cell_angle_gamma    82.4391

_symmetry_Int_Tables_number  166
_chemical_formula_structural  Ce2Al2Co15
_chemical_formula_sum  Ce2Al2Co5
_cell_volume  244.81457236716938
_cell_formula_units_Z  1
loop_
  _symmetry_equiv_pos_site_id
 _symmetry_equiv_pos_as_xyz
 1  'x, y, z'
loop_
 _atom_site_type_symbol
 _atom_site_label
 _atom_site_symmetry_multiplicity
 _atom_site_fract_x
 _atom_site_fract_y
 _atom_site_fract_z
 _atom_site_fract_occupancy
 Al  Al1  1  0.10572  0.10572  0.10572  1
 Al  Al2  1  0.89428  0.89428  0.89428  1
 Ce  Ce1  1  0.64563  0.64563  0.64563  1
 Ce  Ce2  1  0.35437  0.35437  0.35437  1
 Co  Co1  1  0.35137  0.85323  0.35137  1
 Co  Co2  1  0.14677  0.64863  0.64863  1
 Co  Co3  1  0.64863  0.64863  0.14677  1
 Co  Co4  1  0.64863  0.14677  0.64863  1
 Co  Co5  1  0.28710  -0.00000  0.71290  1
 Co  Co6  1  0.85323  0.35137  0.35137  1
 Co  Co7  1  0.71290  0.00000  0.28710  1
 Co  Co8  1  -0.00000  0.28710  0.71290  1
 Co  Co9  1  0.28710  0.71290  0.00000  1
 Co  Co10  1  -0.00000  0.50000  -0.00000  1
 Co  Co11  1  0.50000  0.00000  0.00000  1
 Co  Co12  1  0.00000  -0.00000  0.50000  1
 Co  Co13  1  0.35137  0.35137  0.85323  1
 Co  Co14  1  0.71290  0.28710  -0.00000  1
 Co  Co15  1  0.00000  0.71290  0.28710  1
