CIF file written using JARVIS-Tools package.
data_Sr2FeWO6
_symmetry_space_group_name_H-M  'I4/m'
_cell_length_a       5.51357
_cell_length_b       5.51218
_cell_length_c       5.51366
_cell_angle_alpha    60.0117
_cell_angle_beta     59.9821
_cell_angle_gamma    60.0093

_symmetry_Int_Tables_number  87
_chemical_formula_structural  Sr2FeWO6
_chemical_formula_sum  Sr2FeWO6
_cell_volume  118.49247527961066
_cell_formula_units_Z  1
loop_
  _symmetry_equiv_pos_site_id
 _symmetry_equiv_pos_as_xyz
 1  'x, y, z'
loop_
 _atom_site_type_symbol
 _atom_site_label
 _atom_site_symmetry_multiplicity
 _atom_site_fract_x
 _atom_site_fract_y
 _atom_site_fract_z
 _atom_site_fract_occupancy
 Fe  Fe1  1  0.50000  0.50000  0.50000  1
 O  O1  1  0.75009  0.24992  0.75035  1
 O  O2  1  0.24991  0.75008  0.24965  1
 O  O3  1  0.75758  0.74287  0.24241  1
 O  O4  1  0.24242  0.25713  0.75759  1
 O  O5  1  0.25700  0.75771  0.74273  1
 O  O6  1  0.74300  0.24229  0.25727  1
 Sr  Sr1  1  0.75000  0.75000  0.75000  1
 Sr  Sr2  1  0.25000  0.25000  0.25000  1
 W  W1  1  0.00000  0.00000  0.00000  1
