CIF file written using JARVIS-Tools package.
data_Pr7O12
_symmetry_space_group_name_H-M  'R-3'
_cell_length_a       6.95877
_cell_length_b       6.95877
_cell_length_c       6.95876
_cell_angle_alpha    99.5908
_cell_angle_beta     99.5908
_cell_angle_gamma    99.5909

_symmetry_Int_Tables_number  148
_chemical_formula_structural  Pr7O12
_chemical_formula_sum  Pr7O2
_cell_volume  321.00614664209616
_cell_formula_units_Z  1
loop_
  _symmetry_equiv_pos_site_id
 _symmetry_equiv_pos_as_xyz
 1  'x, y, z'
loop_
 _atom_site_type_symbol
 _atom_site_label
 _atom_site_symmetry_multiplicity
 _atom_site_fract_x
 _atom_site_fract_y
 _atom_site_fract_z
 _atom_site_fract_occupancy
 O  O1  1  0.93991  0.06690  0.67454  1
 O  O2  1  0.67454  0.93991  0.06690  1
 O  O3  1  0.06690  0.67454  0.93991  1
 O  O4  1  0.06009  0.93310  0.32546  1
 O  O5  1  0.32546  0.06009  0.93310  1
 O  O6  1  0.93310  0.32546  0.06009  1
 O  O7  1  0.56195  0.41934  0.82170  1
 O  O8  1  0.82170  0.56195  0.41934  1
 O  O9  1  0.41934  0.82170  0.56195  1
 O  O10  1  0.43805  0.58066  0.17830  1
 O  O11  1  0.58066  0.17830  0.43805  1
 O  O12  1  0.17830  0.43805  0.58066  1
 Pr  Pr1  1  0.39228  0.70002  0.86114  1
 Pr  Pr2  1  0.00000  0.00000  0.00000  1
 Pr  Pr3  1  0.29998  0.13886  0.60772  1
 Pr  Pr4  1  0.60772  0.29998  0.13886  1
 Pr  Pr5  1  0.13886  0.60772  0.29998  1
 Pr  Pr6  1  0.70002  0.86114  0.39228  1
 Pr  Pr7  1  0.86114  0.39228  0.70002  1
