CIF file written using JARVIS-Tools package.
data_YSn2O4
_symmetry_space_group_name_H-M  'R-3m'
_cell_length_a       7.10049
_cell_length_b       7.10049
_cell_length_c       7.10049
_cell_angle_alpha    56.429
_cell_angle_beta     56.429
_cell_angle_gamma    56.4289

_symmetry_Int_Tables_number  166
_chemical_formula_structural  YSn2O4
_chemical_formula_sum  Y2Sn4O8
_cell_volume  232.23321700391642
_cell_formula_units_Z  2
loop_
  _symmetry_equiv_pos_site_id
 _symmetry_equiv_pos_as_xyz
 1  'x, y, z'
loop_
 _atom_site_type_symbol
 _atom_site_label
 _atom_site_symmetry_multiplicity
 _atom_site_fract_x
 _atom_site_fract_y
 _atom_site_fract_z
 _atom_site_fract_occupancy
 O  O1  1  0.23305  0.78037  0.78037  1
 O  O2  1  0.21963  0.21963  0.76695  1
 O  O3  1  0.21963  0.76695  0.21963  1
 O  O4  1  0.24930  0.24930  0.24930  1
 O  O5  1  0.78037  0.78037  0.23305  1
 O  O6  1  0.76695  0.21963  0.21963  1
 O  O7  1  0.78037  0.23305  0.78037  1
 O  O8  1  0.75070  0.75070  0.75070  1
 Sn  Sn1  1  -0.00000  0.50000  -0.00000  1
 Sn  Sn2  1  0.00000  0.00000  0.00000  1
 Sn  Sn3  1  0.50000  -0.00000  0.00000  1
 Sn  Sn4  1  -0.00000  -0.00000  0.50000  1
 Y  Y1  1  0.63410  0.63410  0.63410  1
 Y  Y2  1  0.36590  0.36590  0.36590  1
