CIF file written using JARVIS-Tools package.
data_SrPrO3
_symmetry_space_group_name_H-M  'Pnma'
_cell_length_a       6.18017
_cell_length_b       6.4013
_cell_length_c       8.80954
_cell_angle_alpha    90
_cell_angle_beta     90
_cell_angle_gamma    90

_symmetry_Int_Tables_number  62
_chemical_formula_structural  SrPrO3
_chemical_formula_sum  Sr4Pr4O2
_cell_volume  348.51580579846944
_cell_formula_units_Z  4
loop_
  _symmetry_equiv_pos_site_id
 _symmetry_equiv_pos_as_xyz
 1  'x, y, z'
loop_
 _atom_site_type_symbol
 _atom_site_label
 _atom_site_symmetry_multiplicity
 _atom_site_fract_x
 _atom_site_fract_y
 _atom_site_fract_z
 _atom_site_fract_occupancy
 O  O1  1  0.63652  0.06968  0.75000  1
 O  O2  1  0.79830  0.79620  0.07392  1
 O  O3  1  0.70170  0.29620  0.42608  1
 O  O4  1  0.29830  0.70380  0.92608  1
 O  O5  1  0.79830  0.79620  0.42608  1
 O  O6  1  0.29830  0.70380  0.57392  1
 O  O7  1  0.13652  0.43032  0.25000  1
 O  O8  1  0.20170  0.20380  0.57392  1
 O  O9  1  0.36348  0.93032  0.25000  1
 O  O10  1  0.20170  0.20380  0.92608  1
 O  O11  1  0.70170  0.29620  0.07392  1
 O  O12  1  0.86348  0.56968  0.75000  1
 Pr  Pr1  1  0.50000  0.00000  0.00000  1
 Pr  Pr2  1  0.50000  0.00000  0.50000  1
 Pr  Pr3  1  0.00000  0.50000  0.00000  1
 Pr  Pr4  1  0.00000  0.50000  0.50000  1
 Sr  Sr1  1  0.97805  0.05449  0.25000  1
 Sr  Sr2  1  0.52195  0.55449  0.25000  1
 Sr  Sr3  1  0.47805  0.44551  0.75000  1
 Sr  Sr4  1  0.02195  0.94551  0.75000  1
