CIF file written using JARVIS-Tools package.
data_LiNiPO4
_symmetry_space_group_name_H-M  'P-1'
_cell_length_a       4.40141
_cell_length_b       5.15128
_cell_length_c       7.30857
_cell_angle_alpha    89.6772
_cell_angle_beta     104.034
_cell_angle_gamma    101.591

_symmetry_Int_Tables_number  2
_chemical_formula_structural  LiNiPO4
_chemical_formula_sum  Li2Ni2P2O8
_cell_volume  157.32058018579588
_cell_formula_units_Z  2
loop_
  _symmetry_equiv_pos_site_id
 _symmetry_equiv_pos_as_xyz
 1  'x, y, z'
loop_
 _atom_site_type_symbol
 _atom_site_label
 _atom_site_symmetry_multiplicity
 _atom_site_fract_x
 _atom_site_fract_y
 _atom_site_fract_z
 _atom_site_fract_occupancy
 Li  Li1  1  0.73755  0.70417  0.98401  1
 Li  Li2  1  0.26245  0.29583  0.01599  1
 Ni  Ni1  1  0.97488  0.75550  0.59790  1
 Ni  Ni2  1  0.02512  0.24450  0.40210  1
 O  O1  1  0.16511  0.62330  0.38244  1
 O  O2  1  0.29915  0.08685  0.61190  1
 O  O3  1  0.64386  0.32967  0.91822  1
 O  O4  1  0.19842  0.06049  0.21145  1
 O  O5  1  0.80158  0.93951  0.78855  1
 O  O6  1  0.35614  0.67033  0.08178  1
 O  O7  1  0.70085  0.91315  0.38810  1
 O  O8  1  0.83489  0.37670  0.61756  1
 P  P1  1  0.35526  0.81639  0.26309  1
 P  P2  1  0.64474  0.18361  0.73691  1
