CIF file written using JARVIS-Tools package.
data_HfSnO3
_symmetry_space_group_name_H-M  'R-3'
_cell_length_a       5.42753
_cell_length_b       7.49165
_cell_length_c       5.42744
_cell_angle_alpha    111.23
_cell_angle_beta     59.9964
_cell_angle_gamma    111.231

_symmetry_Int_Tables_number  148
_chemical_formula_structural  HfSnO3
_chemical_formula_sum  Hf2Sn2O6
_cell_volume  173.60460576795649
_cell_formula_units_Z  2
loop_
  _symmetry_equiv_pos_site_id
 _symmetry_equiv_pos_as_xyz
 1  'x, y, z'
loop_
 _atom_site_type_symbol
 _atom_site_label
 _atom_site_symmetry_multiplicity
 _atom_site_fract_x
 _atom_site_fract_y
 _atom_site_fract_z
 _atom_site_fract_occupancy
 Hf  Hf1  1  0.33319  0.99955  0.33318  1
 Hf  Hf2  1  0.66682  0.00045  0.66682  1
 O  O1  1  0.05453  0.16225  0.40149  1
 O  O2  1  0.40150  0.16226  0.70618  1
 O  O3  1  0.29381  0.83774  0.94549  1
 O  O4  1  0.70619  0.16226  0.05451  1
 O  O5  1  0.59850  0.83774  0.29382  1
 O  O6  1  0.94547  0.83775  0.59851  1
 Sn  Sn1  1  0.10842  0.32533  0.10841  1
 Sn  Sn2  1  0.89158  0.67467  0.89160  1
