CIF file written using JARVIS-Tools package.
data_Hg2GeO4
_symmetry_space_group_name_H-M  'Fddd'
_cell_length_a       6.38062
_cell_length_b       6.38063
_cell_length_c       6.73365
_cell_angle_alpha    105.379
_cell_angle_beta     105.379
_cell_angle_gamma    116.119

_symmetry_Int_Tables_number  70
_chemical_formula_structural  Hg2GeO4
_chemical_formula_sum  Hg4Ge2O8
_cell_volume  212.98492614049258
_cell_formula_units_Z  2
loop_
  _symmetry_equiv_pos_site_id
 _symmetry_equiv_pos_as_xyz
 1  'x, y, z'
loop_
 _atom_site_type_symbol
 _atom_site_label
 _atom_site_symmetry_multiplicity
 _atom_site_fract_x
 _atom_site_fract_y
 _atom_site_fract_z
 _atom_site_fract_occupancy
 Ge  Ge1  1  0.87500  0.12500  0.25000  1
 Ge  Ge2  1  0.12500  0.87500  0.75000  1
 Hg  Hg1  1  0.19914  0.80086  0.25000  1
 Hg  Hg2  1  0.55086  0.44914  0.25000  1
 Hg  Hg3  1  0.80086  0.19914  0.75000  1
 Hg  Hg4  1  0.44914  0.55086  0.75000  1
 O  O1  1  0.75325  0.79186  0.08311  1
 O  O2  1  0.70875  0.17014  0.41689  1
 O  O3  1  0.20814  0.24675  0.41689  1
 O  O4  1  0.82986  0.29125  0.08311  1
 O  O5  1  0.24675  0.20814  0.91689  1
 O  O6  1  0.29125  0.82986  0.58311  1
 O  O7  1  0.17014  0.70875  0.91689  1
 O  O8  1  0.79186  0.75325  0.58311  1
