CIF file written using JARVIS-Tools package.
data_NaTl2RhF6
_symmetry_space_group_name_H-M  'Fm-3m'
_cell_length_a       6.04102
_cell_length_b       6.04103
_cell_length_c       6.04102
_cell_angle_alpha    60
_cell_angle_beta     60
_cell_angle_gamma    60.0001

_symmetry_Int_Tables_number  225
_chemical_formula_structural  NaTl2RhF6
_chemical_formula_sum  NaTl2RhF6
_cell_volume  155.88944925076845
_cell_formula_units_Z  1
loop_
  _symmetry_equiv_pos_site_id
 _symmetry_equiv_pos_as_xyz
 1  'x, y, z'
loop_
 _atom_site_type_symbol
 _atom_site_label
 _atom_site_symmetry_multiplicity
 _atom_site_fract_x
 _atom_site_fract_y
 _atom_site_fract_z
 _atom_site_fract_occupancy
 F  F1  1  0.23467  0.76533  0.76533  1
 F  F2  1  0.23467  0.76533  0.23467  1
 F  F3  1  0.76533  0.23467  0.76533  1
 F  F4  1  0.23467  0.23467  0.76533  1
 F  F5  1  0.76533  0.23467  0.23467  1
 F  F6  1  0.76533  0.76533  0.23467  1
 Na  Na1  1  0.50000  0.50000  0.50000  1
 Rh  Rh1  1  0.00000  0.00000  0.00000  1
 Tl  Tl1  1  0.75000  0.75000  0.75000  1
 Tl  Tl2  1  0.25000  0.25000  0.25000  1
