CIF file written using JARVIS-Tools package.
data_TeMoWSeS2
_symmetry_space_group_name_H-M  'Cm'
_cell_length_a       3.31274
_cell_length_b       3.31329
_cell_length_c       33.1932
_cell_angle_alpha    90.0258
_cell_angle_beta     90
_cell_angle_gamma    119.995

_symmetry_Int_Tables_number  8
_chemical_formula_structural  TeMoWSeS2
_chemical_formula_sum  Te2Mo2W2Se2S4
_cell_volume  315.53633219710775
_cell_formula_units_Z  2
loop_
  _symmetry_equiv_pos_site_id
 _symmetry_equiv_pos_as_xyz
 1  'x, y, z'
loop_
 _atom_site_type_symbol
 _atom_site_label
 _atom_site_symmetry_multiplicity
 _atom_site_fract_x
 _atom_site_fract_y
 _atom_site_fract_z
 _atom_site_fract_occupancy
 Mo  Mo1  1  0.33271  0.66542  0.08470  1
 Mo  Mo2  1  0.66648  0.33295  0.27651  1
 S  S1  1  0.66589  0.33177  0.03870  1
 S  S2  1  0.66680  0.33360  0.42245  1
 S  S3  1  0.66628  0.33257  0.13075  1
 S  S4  1  0.66706  0.33411  0.51500  1
 Se  Se1  1  0.33322  0.66645  0.32705  1
 Se  Se2  1  0.33300  0.66599  0.22595  1
 Te  Te1  1  0.33405  0.66810  0.73098  1
 Te  Te2  1  0.33373  0.66746  0.61489  1
 W  W1  1  0.33359  0.66718  0.46873  1
 W  W2  1  0.66720  0.33440  0.67301  1
