CIF file written using JARVIS-Tools package.
data_Sb2Ir
_symmetry_space_group_name_H-M  'P2_1/c'
_cell_length_a       6.70915
_cell_length_b       6.65196
_cell_length_c       6.80521
_cell_angle_alpha    90
_cell_angle_beta     114.82
_cell_angle_gamma    90

_symmetry_Int_Tables_number  14
_chemical_formula_structural  Sb2Ir
_chemical_formula_sum  Sb8Ir4
_cell_volume  275.65624946088286
_cell_formula_units_Z  4
loop_
  _symmetry_equiv_pos_site_id
 _symmetry_equiv_pos_as_xyz
 1  'x, y, z'
loop_
 _atom_site_type_symbol
 _atom_site_label
 _atom_site_symmetry_multiplicity
 _atom_site_fract_x
 _atom_site_fract_y
 _atom_site_fract_z
 _atom_site_fract_occupancy
 Ir  Ir1  1  0.27095  0.49907  0.78931  1
 Ir  Ir2  1  0.72905  0.99907  0.71069  1
 Ir  Ir3  1  0.72905  0.50093  0.21069  1
 Ir  Ir4  1  0.27095  0.00093  0.28931  1
 Sb  Sb1  1  0.14917  0.13486  0.87733  1
 Sb  Sb2  1  0.85083  0.63486  0.62267  1
 Sb  Sb3  1  0.85083  0.86514  0.12267  1
 Sb  Sb4  1  0.14917  0.36514  0.37733  1
 Sb  Sb5  1  0.34438  0.63737  0.17700  1
 Sb  Sb6  1  0.65562  0.13737  0.32300  1
 Sb  Sb7  1  0.65562  0.36263  0.82300  1
 Sb  Sb8  1  0.34438  0.86263  0.67700  1
