CIF file written using JARVIS-Tools package.
data_CeSm2S4
_symmetry_space_group_name_H-M  'I-42d'
_cell_length_a       7.35127
_cell_length_b       7.35127
_cell_length_c       7.35127
_cell_angle_alpha    109.555
_cell_angle_beta     109.555
_cell_angle_gamma    109.304

_symmetry_Int_Tables_number  122
_chemical_formula_structural  CeSm2S4
_chemical_formula_sum  Ce2Sm4S8
_cell_volume  305.8178113289377
_cell_formula_units_Z  2
loop_
  _symmetry_equiv_pos_site_id
 _symmetry_equiv_pos_as_xyz
 1  'x, y, z'
loop_
 _atom_site_type_symbol
 _atom_site_label
 _atom_site_symmetry_multiplicity
 _atom_site_fract_x
 _atom_site_fract_y
 _atom_site_fract_z
 _atom_site_fract_occupancy
 Ce  Ce1  1  0.62500  0.37500  0.25000  1
 Ce  Ce2  1  0.87500  0.12500  0.75000  1
 S  S1  1  0.00151  0.85287  0.50068  1
 S  S2  1  0.00084  0.35219  0.49932  1
 S  S3  1  0.49916  0.99849  0.35135  1
 S  S4  1  0.14713  0.14781  0.14865  1
 S  S5  1  0.35287  0.50151  0.00068  1
 S  S6  1  0.64781  0.64713  0.64865  1
 S  S7  1  0.49849  0.99916  0.85135  1
 S  S8  1  0.85219  0.50084  0.99932  1
 Sm  Sm1  1  0.13367  0.75000  0.88367  1
 Sm  Sm2  1  0.25000  0.63367  0.38367  1
 Sm  Sm3  1  0.36633  0.25000  0.61633  1
 Sm  Sm4  1  0.75000  0.86633  0.11633  1
