CIF file written using JARVIS-Tools package.
data_MgNiO2
_symmetry_space_group_name_H-M  'P-1'
_cell_length_a       2.87586
_cell_length_b       8.02799
_cell_length_c       8.42494
_cell_angle_alpha    77.3904
_cell_angle_beta     80.2317
_cell_angle_gamma    79.7764

_symmetry_Int_Tables_number  2
_chemical_formula_structural  MgNiO2
_chemical_formula_sum  Mg4Ni4O8
_cell_volume  185.06067430203973
_cell_formula_units_Z  4
loop_
  _symmetry_equiv_pos_site_id
 _symmetry_equiv_pos_as_xyz
 1  'x, y, z'
loop_
 _atom_site_type_symbol
 _atom_site_label
 _atom_site_symmetry_multiplicity
 _atom_site_fract_x
 _atom_site_fract_y
 _atom_site_fract_z
 _atom_site_fract_occupancy
 Mg  Mg1  1  0.36352  0.21748  0.05273  1
 Mg  Mg2  1  0.63648  0.78252  0.94727  1
 Mg  Mg3  1  0.07088  0.16684  0.69335  1
 Mg  Mg4  1  0.92912  0.83316  0.30665  1
 Ni  Ni1  1  0.64222  0.51849  0.19865  1
 Ni  Ni2  1  0.25118  0.12972  0.36782  1
 Ni  Ni3  1  0.74882  0.87028  0.63218  1
 Ni  Ni4  1  0.35778  0.48151  0.80135  1
 O  O1  1  0.79808  0.63389  0.76958  1
 O  O2  1  0.34224  0.85445  0.46000  1
 O  O3  1  0.65776  0.14555  0.54000  1
 O  O4  1  0.20192  0.36611  0.23042  1
 O  O5  1  0.08821  0.69319  0.13330  1
 O  O6  1  0.86886  0.07376  0.18526  1
 O  O7  1  0.91179  0.30681  0.86670  1
 O  O8  1  0.13114  0.92624  0.81474  1
