CIF file written using JARVIS-Tools package.
data_Ca2Mn2O5
_symmetry_space_group_name_H-M  'Pbam'
_cell_length_a       3.808
_cell_length_b       5.40969
_cell_length_c       10.192
_cell_angle_alpha    90
_cell_angle_beta     90
_cell_angle_gamma    90

_symmetry_Int_Tables_number  55
_chemical_formula_structural  Ca2Mn2O5
_chemical_formula_sum  Ca4Mn4O0
_cell_volume  209.95560048394964
_cell_formula_units_Z  2
loop_
  _symmetry_equiv_pos_site_id
 _symmetry_equiv_pos_as_xyz
 1  'x, y, z'
loop_
 _atom_site_type_symbol
 _atom_site_label
 _atom_site_symmetry_multiplicity
 _atom_site_fract_x
 _atom_site_fract_y
 _atom_site_fract_z
 _atom_site_fract_occupancy
 Ca  Ca1  1  0.50000  0.18896  0.86721  1
 Ca  Ca2  1  0.50000  0.81104  0.13279  1
 Ca  Ca3  1  0.50000  0.68896  0.63279  1
 Ca  Ca4  1  0.50000  0.31104  0.36721  1
 Mn  Mn1  1  0.00000  0.21699  0.61922  1
 Mn  Mn2  1  0.00000  0.78301  0.38078  1
 Mn  Mn3  1  0.00000  0.28301  0.11922  1
 Mn  Mn4  1  0.00000  0.71699  0.88078  1
 O  O1  1  0.00000  0.00000  0.00000  1
 O  O2  1  0.00000  0.08237  0.28568  1
 O  O3  1  0.00000  0.58237  0.21432  1
 O  O4  1  0.00000  0.50000  0.50000  1
 O  O5  1  0.50000  0.20715  0.60170  1
 O  O6  1  0.50000  0.70715  0.89830  1
 O  O7  1  0.00000  0.91763  0.71432  1
 O  O8  1  0.00000  0.41763  0.78568  1
 O  O9  1  0.50000  0.29285  0.10170  1
 O  O10  1  0.50000  0.79285  0.39830  1
