CIF file written using JARVIS-Tools package.
data_ZrI2
_symmetry_space_group_name_H-M  'P2_1/m'
_cell_length_a       3.77325
_cell_length_b       6.88142
_cell_length_c       15.0593
_cell_angle_alpha    95.5824
_cell_angle_beta     90
_cell_angle_gamma    90

_symmetry_Int_Tables_number  11
_chemical_formula_structural  ZrI2
_chemical_formula_sum  Zr4I8
_cell_volume  389.1636905961705
_cell_formula_units_Z  4
loop_
  _symmetry_equiv_pos_site_id
 _symmetry_equiv_pos_as_xyz
 1  'x, y, z'
loop_
 _atom_site_type_symbol
 _atom_site_label
 _atom_site_symmetry_multiplicity
 _atom_site_fract_x
 _atom_site_fract_y
 _atom_site_fract_z
 _atom_site_fract_occupancy
 I  I1  1  0.25000  0.60292  0.60969  1
 I  I2  1  0.75000  0.39708  0.39031  1
 I  I3  1  0.75000  0.55122  0.85299  1
 I  I4  1  0.75000  0.94482  0.10978  1
 I  I5  1  0.25000  0.44878  0.14701  1
 I  I6  1  0.75000  0.11157  0.64710  1
 I  I7  1  0.25000  0.05518  0.89022  1
 I  I8  1  0.25000  0.88843  0.35290  1
 Zr  Zr1  1  0.25000  0.68736  0.99675  1
 Zr  Zr2  1  0.25000  0.18869  0.50366  1
 Zr  Zr3  1  0.75000  0.31264  0.00325  1
 Zr  Zr4  1  0.75000  0.81131  0.49634  1
