CIF file written using JARVIS-Tools package.
data_CaMn2S5
_symmetry_space_group_name_H-M  'Pmmn'
_cell_length_a       6.70372
_cell_length_b       4.06643
_cell_length_c       13.4671
_cell_angle_alpha    90
_cell_angle_beta     89.9989
_cell_angle_gamma    90

_symmetry_Int_Tables_number  59
_chemical_formula_structural  CaMn2S5
_chemical_formula_sum  Ca2Mn4S0
_cell_volume  367.1151731495143
_cell_formula_units_Z  2
loop_
  _symmetry_equiv_pos_site_id
 _symmetry_equiv_pos_as_xyz
 1  'x, y, z'
loop_
 _atom_site_type_symbol
 _atom_site_label
 _atom_site_symmetry_multiplicity
 _atom_site_fract_x
 _atom_site_fract_y
 _atom_site_fract_z
 _atom_site_fract_occupancy
 Ca  Ca1  1  0.07134  0.50000  0.24999  1
 Ca  Ca2  1  0.92866  0.00000  0.75000  1
 Mn  Mn1  1  0.50445  0.00000  0.09796  1
 Mn  Mn2  1  0.49555  0.50000  0.90204  1
 Mn  Mn3  1  0.49555  0.50000  0.59796  1
 Mn  Mn4  1  0.50445  0.00000  0.40204  1
 S  S1  1  0.64893  0.50000  0.75000  1
 S  S2  1  0.35107  0.00000  0.25000  1
 S  S3  1  0.33160  0.50000  0.05341  1
 S  S4  1  0.66840  0.00000  0.94659  1
 S  S5  1  0.33160  0.50000  0.44659  1
 S  S6  1  0.66840  0.00000  0.55341  1
 S  S7  1  0.82596  0.00000  0.33001  1
 S  S8  1  0.17404  0.50000  0.66999  1
 S  S9  1  0.17404  0.50000  0.83001  1
 S  S10  1  0.82596  0.00000  0.16999  1
