CIF file written using JARVIS-Tools package.
data_BaGaCu2
_symmetry_space_group_name_H-M  'R-3m'
_cell_length_a       4.31444
_cell_length_b       4.31443
_cell_length_c       6.16874
_cell_angle_alpha    69.5309
_cell_angle_beta     69.5309
_cell_angle_gamma    60

_symmetry_Int_Tables_number  166
_chemical_formula_structural  BaGaCu2
_chemical_formula_sum  BaGaCu2
_cell_volume  90.97510196135315
_cell_formula_units_Z  1
loop_
  _symmetry_equiv_pos_site_id
 _symmetry_equiv_pos_as_xyz
 1  'x, y, z'
loop_
 _atom_site_type_symbol
 _atom_site_label
 _atom_site_symmetry_multiplicity
 _atom_site_fract_x
 _atom_site_fract_y
 _atom_site_fract_z
 _atom_site_fract_occupancy
 Ba  Ba1  1  0.00000  0.00000  0.00000  1
 Cu  Cu1  1  0.81097  0.81097  0.56709  1
 Cu  Cu2  1  0.18903  0.18903  0.43291  1
 Ga  Ga1  1  0.50000  0.50000  0.50000  1
