CIF file written using JARVIS-Tools package.
data_BaSi2
_symmetry_space_group_name_H-M  'I4/mmm'
_cell_length_a       4.81338
_cell_length_b       4.81338
_cell_length_c       5.5873
_cell_angle_alpha    115.515
_cell_angle_beta     115.515
_cell_angle_gamma    90

_symmetry_Int_Tables_number  139
_chemical_formula_structural  BaSi2
_chemical_formula_sum  BaSi2
_cell_volume  102.65943860231583
_cell_formula_units_Z  1
loop_
  _symmetry_equiv_pos_site_id
 _symmetry_equiv_pos_as_xyz
 1  'x, y, z'
loop_
 _atom_site_type_symbol
 _atom_site_label
 _atom_site_symmetry_multiplicity
 _atom_site_fract_x
 _atom_site_fract_y
 _atom_site_fract_z
 _atom_site_fract_occupancy
 Ba  Ba1  1  0.00000  0.00000  0.00000  1
 Si  Si1  1  0.62361  0.62361  0.24721  1
 Si  Si2  1  0.37639  0.37639  0.75279  1
