CIF file written using JARVIS-Tools package.
data_Li4VF6
_symmetry_space_group_name_H-M  'Cc'
_cell_length_a       5.02253
_cell_length_b       5.028
_cell_length_c       10.9675
_cell_angle_alpha    103.285
_cell_angle_beta     76.7604
_cell_angle_gamma    60.0345

_symmetry_Int_Tables_number  9
_chemical_formula_structural  Li4VF6
_chemical_formula_sum  Li8V2F2
_cell_volume  213.22650106775308
_cell_formula_units_Z  2
loop_
  _symmetry_equiv_pos_site_id
 _symmetry_equiv_pos_as_xyz
 1  'x, y, z'
loop_
 _atom_site_type_symbol
 _atom_site_label
 _atom_site_symmetry_multiplicity
 _atom_site_fract_x
 _atom_site_fract_y
 _atom_site_fract_z
 _atom_site_fract_occupancy
 F  F1  1  0.66650  0.71106  0.96550  1
 F  F2  1  0.28656  0.08571  0.69842  1
 F  F3  1  0.42930  0.58570  0.19843  1
 F  F4  1  0.76759  0.94689  0.20573  1
 F  F5  1  0.02851  0.99653  0.96567  1
 F  F6  1  0.31312  0.35320  -0.03071  1
 F  F7  1  -0.08073  0.74602  0.70749  1
 F  F8  1  0.86437  0.85323  0.46929  1
 F  F9  1  0.50928  0.49654  0.46567  1
 F  F10  1  0.12721  0.24603  0.20750  1
 F  F11  1  0.57979  0.44691  0.70573  1
 F  F12  1  0.15695  0.21108  0.46549  1
 Li  Li1  1  0.00771  0.00366  0.62191  1
 Li  Li2  1  0.56504  0.14132  0.07943  1
 Li  Li3  1  0.40379  0.26037  0.56169  1
 Li  Li4  1  0.71419  0.64134  0.57943  1
 Li  Li5  1  0.45580  0.90075  0.84250  1
 Li  Li6  1  0.30094  0.40076  0.34249  1
 Li  Li7  1  0.86672  0.50367  0.12191  1
 Li  Li8  1  0.27416  0.76033  0.06169  1
 V  V1  1  0.13332  0.55260  0.83479  1
 V  V2  1  -0.02072  0.05262  0.33480  1
