CIF file written using JARVIS-Tools package.
data_BaNd2S4
_symmetry_space_group_name_H-M  'Pnma'
_cell_length_a       4.22945
_cell_length_b       11.9832
_cell_length_c       14.9212
_cell_angle_alpha    90
_cell_angle_beta     90
_cell_angle_gamma    90

_symmetry_Int_Tables_number  62
_chemical_formula_structural  BaNd2S4
_chemical_formula_sum  Ba4Nd8S6
_cell_volume  756.2388400041165
_cell_formula_units_Z  4
loop_
  _symmetry_equiv_pos_site_id
 _symmetry_equiv_pos_as_xyz
 1  'x, y, z'
loop_
 _atom_site_type_symbol
 _atom_site_label
 _atom_site_symmetry_multiplicity
 _atom_site_fract_x
 _atom_site_fract_y
 _atom_site_fract_z
 _atom_site_fract_occupancy
 Ba  Ba1  1  0.75000  0.25941  0.65732  1
 Ba  Ba2  1  0.25000  0.24059  0.15732  1
 Ba  Ba3  1  0.75000  0.75941  0.84268  1
 Ba  Ba4  1  0.25000  0.74059  0.34268  1
 Nd  Nd1  1  0.25000  0.40008  0.39976  1
 Nd  Nd2  1  0.75000  0.59992  0.60024  1
 Nd  Nd3  1  0.75000  0.09992  0.89976  1
 Nd  Nd4  1  0.25000  0.90008  0.10024  1
 Nd  Nd5  1  0.75000  0.56451  0.10889  1
 Nd  Nd6  1  0.75000  0.06451  0.39111  1
 Nd  Nd7  1  0.25000  0.43549  0.89111  1
 Nd  Nd8  1  0.25000  0.93549  0.60889  1
 S  S1  1  0.25000  0.64550  0.98888  1
 S  S2  1  0.75000  -0.00087  0.71902  1
 S  S3  1  0.75000  0.06296  0.08475  1
 S  S4  1  0.75000  0.49913  0.78098  1
 S  S5  1  0.25000  0.00087  0.28098  1
 S  S6  1  0.75000  0.85450  0.48888  1
 S  S7  1  0.25000  0.50087  0.21902  1
 S  S8  1  0.25000  0.93704  0.91525  1
 S  S9  1  0.25000  0.72243  0.68264  1
 S  S10  1  0.75000  0.27757  0.31736  1
 S  S11  1  0.25000  0.22243  0.81736  1
 S  S12  1  0.75000  0.56296  0.41525  1
 S  S13  1  0.75000  0.35450  0.01112  1
 S  S14  1  0.75000  0.77757  0.18264  1
 S  S15  1  0.25000  0.14550  0.51112  1
 S  S16  1  0.25000  0.43704  0.58475  1
