CIF file written using JARVIS-Tools package.
data_V2ZnO5
_symmetry_space_group_name_H-M  'Pmmn'
_cell_length_a       4.84163
_cell_length_b       3.39764
_cell_length_c       11.6185
_cell_angle_alpha    90
_cell_angle_beta     89.9947
_cell_angle_gamma    90

_symmetry_Int_Tables_number  59
_chemical_formula_structural  V2ZnO5
_chemical_formula_sum  V4Zn2O0
_cell_volume  191.12581861673902
_cell_formula_units_Z  2
loop_
  _symmetry_equiv_pos_site_id
 _symmetry_equiv_pos_as_xyz
 1  'x, y, z'
loop_
 _atom_site_type_symbol
 _atom_site_label
 _atom_site_symmetry_multiplicity
 _atom_site_fract_x
 _atom_site_fract_y
 _atom_site_fract_z
 _atom_site_fract_occupancy
 O  O1  1  0.57638  0.00000  0.75000  1
 O  O2  1  0.42362  0.50000  0.25000  1
 O  O3  1  0.43547  0.00000  0.07269  1
 O  O4  1  0.56453  0.50000  0.92731  1
 O  O5  1  0.43547  0.00000  0.42732  1
 O  O6  1  0.56454  0.50000  0.57268  1
 O  O7  1  0.93926  0.50000  0.36605  1
 O  O8  1  0.06075  0.00000  0.63395  1
 O  O9  1  0.06074  0.00000  0.86606  1
 O  O10  1  0.93925  0.50000  0.13393  1
 V  V1  1  0.60442  0.50000  0.09908  1
 V  V2  1  0.39557  0.00000  0.90091  1
 V  V3  1  0.39560  0.00000  0.59909  1
 V  V4  1  0.60441  0.50000  0.40091  1
 Zn  Zn1  1  0.16799  0.00000  0.25001  1
 Zn  Zn2  1  0.83201  0.50000  0.75001  1
