CIF file written using JARVIS-Tools package.
data_KNaSO4
_symmetry_space_group_name_H-M  'P3m1'
_cell_length_a       5.59607
_cell_length_b       5.59607
_cell_length_c       7.15909
_cell_angle_alpha    90
_cell_angle_beta     90
_cell_angle_gamma    120

_symmetry_Int_Tables_number  156
_chemical_formula_structural  KNaSO4
_chemical_formula_sum  K2Na2S2O8
_cell_volume  194.15795973851377
_cell_formula_units_Z  2
loop_
  _symmetry_equiv_pos_site_id
 _symmetry_equiv_pos_as_xyz
 1  'x, y, z'
loop_
 _atom_site_type_symbol
 _atom_site_label
 _atom_site_symmetry_multiplicity
 _atom_site_fract_x
 _atom_site_fract_y
 _atom_site_fract_z
 _atom_site_fract_occupancy
 K  K1  1  0.33333  0.66667  0.66378  1
 K  K2  1  0.00000  0.00000  0.99710  1
 Na  Na1  1  0.00000  0.00000  0.49840  1
 Na  Na2  1  0.66667  0.33333  0.29964  1
 O  O1  1  0.18911  0.37821  0.29849  1
 O  O2  1  0.81069  0.62137  0.69921  1
 O  O3  1  0.33333  0.66667  0.02016  1
 O  O4  1  0.81069  0.18931  0.69921  1
 O  O5  1  0.18911  0.81089  0.29849  1
 O  O6  1  0.66667  0.33333  0.97813  1
 O  O7  1  0.37863  0.18931  0.69921  1
 O  O8  1  0.62179  0.81089  0.29849  1
 S  S1  1  0.33333  0.66667  0.22435  1
 S  S2  1  0.66667  0.33333  0.77235  1
