CIF file written using JARVIS-Tools package.
data_BaNd2ZnS5
_symmetry_space_group_name_H-M  'I4/mcm'
_cell_length_a       7.88436
_cell_length_b       7.88436
_cell_length_c       8.82524
_cell_angle_alpha    116.532
_cell_angle_beta     116.532
_cell_angle_gamma    90

_symmetry_Int_Tables_number  140
_chemical_formula_structural  BaNd2ZnS5
_chemical_formula_sum  Ba2Nd4Zn2S0
_cell_volume  425.2756537211925
_cell_formula_units_Z  2
loop_
  _symmetry_equiv_pos_site_id
 _symmetry_equiv_pos_as_xyz
 1  'x, y, z'
loop_
 _atom_site_type_symbol
 _atom_site_label
 _atom_site_symmetry_multiplicity
 _atom_site_fract_x
 _atom_site_fract_y
 _atom_site_fract_z
 _atom_site_fract_occupancy
 Ba  Ba1  1  0.25000  0.25000  0.50000  1
 Ba  Ba2  1  0.75000  0.75000  0.50000  1
 Nd  Nd1  1  0.33875  0.16125  0.00000  1
 Nd  Nd2  1  0.16125  0.66125  0.00000  1
 Nd  Nd3  1  0.66125  0.83875  -0.00000  1
 Nd  Nd4  1  0.83875  0.33875  -0.00000  1
 S  S1  1  0.21588  0.71588  0.73168  1
 S  S2  1  0.51580  0.01580  0.73168  1
 S  S3  1  0.71588  0.51580  0.73168  1
 S  S4  1  0.01580  0.21588  0.73168  1
 S  S5  1  0.28412  0.48420  0.26832  1
 S  S6  1  0.50000  0.50000  -0.00000  1
 S  S7  1  0.48420  0.98420  0.26832  1
 S  S8  1  0.78412  0.28412  0.26832  1
 S  S9  1  0.98420  0.78412  0.26832  1
 S  S10  1  0.00000  0.00000  0.00000  1
 Zn  Zn1  1  0.75000  0.25000  0.50000  1
 Zn  Zn2  1  0.25000  0.75000  0.50000  1
