CIF file written using JARVIS-Tools package.
data_Zr2N
_symmetry_space_group_name_H-M  'P4_2/mnm'
_cell_length_a       5.42595
_cell_length_b       5.42595
_cell_length_c       3.30977
_cell_angle_alpha    90
_cell_angle_beta     90
_cell_angle_gamma    90

_symmetry_Int_Tables_number  136
_chemical_formula_structural  Zr2N
_chemical_formula_sum  Zr4N2
_cell_volume  97.44260004301987
_cell_formula_units_Z  2
loop_
  _symmetry_equiv_pos_site_id
 _symmetry_equiv_pos_as_xyz
 1  'x, y, z'
loop_
 _atom_site_type_symbol
 _atom_site_label
 _atom_site_symmetry_multiplicity
 _atom_site_fract_x
 _atom_site_fract_y
 _atom_site_fract_z
 _atom_site_fract_occupancy
 N  N1  1  0.00000  0.00000  0.00000  1
 N  N2  1  0.50000  0.50000  0.50000  1
 Zr  Zr1  1  0.29583  0.29583  0.00000  1
 Zr  Zr2  1  0.70417  0.70417  0.00000  1
 Zr  Zr3  1  0.20417  0.79583  0.50000  1
 Zr  Zr4  1  0.79583  0.20417  0.50000  1
