CIF file written using JARVIS-Tools package.
data_VZnSF5
_symmetry_space_group_name_H-M  'P-1'
_cell_length_a       6.03932
_cell_length_b       6.41409
_cell_length_c       8.1502
_cell_angle_alpha    97.946
_cell_angle_beta     110.008
_cell_angle_gamma    109.339

_symmetry_Int_Tables_number  2
_chemical_formula_structural  VZnSF5
_chemical_formula_sum  V2Zn2S2F0
_cell_volume  268.4179203638725
_cell_formula_units_Z  2
loop_
  _symmetry_equiv_pos_site_id
 _symmetry_equiv_pos_as_xyz
 1  'x, y, z'
loop_
 _atom_site_type_symbol
 _atom_site_label
 _atom_site_symmetry_multiplicity
 _atom_site_fract_x
 _atom_site_fract_y
 _atom_site_fract_z
 _atom_site_fract_occupancy
 F  F1  1  0.29666  0.11645  0.83032  1
 F  F2  1  0.68194  0.52821  0.91337  1
 F  F3  1  0.69886  0.88514  0.16835  1
 F  F4  1  0.31355  0.47337  0.08529  1
 F  F5  1  -0.01820  0.39363  0.76015  1
 F  F6  1  0.58449  0.24209  0.19586  1
 F  F7  1  0.01373  0.60801  0.23852  1
 F  F8  1  0.41106  0.75953  0.80280  1
 F  F9  1  0.81214  0.18268  -0.02040  1
 F  F10  1  0.18339  0.81894  0.01906  1
 S  S1  1  0.65196  0.64891  0.53563  1
 S  S2  1  0.34348  0.35259  0.46302  1
 V  V1  1  -0.00225  0.50081  -0.00066  1
 V  V2  1  0.49777  0.00080  -0.00066  1
 Zn  Zn1  1  0.69562  0.60520  0.26495  1
 Zn  Zn2  1  0.29987  0.39638  0.73372  1
