CIF file written using JARVIS-Tools package.
data_Te4MoW3Se2S2
_symmetry_space_group_name_H-M  'P3m1'
_cell_length_a       3.41091
_cell_length_b       3.4109
_cell_length_c       39.5404
_cell_angle_alpha    89.9989
_cell_angle_beta     90
_cell_angle_gamma    120

_symmetry_Int_Tables_number  156
_chemical_formula_structural  Te4MoW3Se2S2
_chemical_formula_sum  Te4MoW3Se2S2
_cell_volume  398.3916051502582
_cell_formula_units_Z  1
loop_
  _symmetry_equiv_pos_site_id
 _symmetry_equiv_pos_as_xyz
 1  'x, y, z'
loop_
 _atom_site_type_symbol
 _atom_site_label
 _atom_site_symmetry_multiplicity
 _atom_site_fract_x
 _atom_site_fract_y
 _atom_site_fract_z
 _atom_site_fract_occupancy
 Mo  Mo1  1  0.33333  0.66665  0.09287  1
 S  S1  1  0.33335  0.66669  0.69539  1
 S  S2  1  0.33335  0.66671  0.61942  1
 Se  Se1  1  0.66666  0.33333  0.42819  1
 Se  Se2  1  0.66666  0.33331  0.51174  1
 Te  Te1  1  0.33332  0.66664  0.33021  1
 Te  Te2  1  0.66667  0.33334  0.04575  1
 Te  Te3  1  0.66666  0.33331  0.14022  1
 Te  Te4  1  0.33334  0.66667  0.23499  1
 W  W1  1  0.33333  0.66665  0.46998  1
 W  W2  1  0.66666  0.33332  0.28255  1
 W  W3  1  0.66668  0.33337  0.65746  1
