CIF file written using JARVIS-Tools package.
data_Ba2TlSb2O7
_symmetry_space_group_name_H-M  'P4/mmm'
_cell_length_a       3.97167
_cell_length_b       3.97167
_cell_length_c       13.2699
_cell_angle_alpha    90
_cell_angle_beta     90
_cell_angle_gamma    90

_symmetry_Int_Tables_number  123
_chemical_formula_structural  Ba2TlSb2O7
_chemical_formula_sum  Ba2TlSb2O7
_cell_volume  209.3216779066398
_cell_formula_units_Z  1
loop_
  _symmetry_equiv_pos_site_id
 _symmetry_equiv_pos_as_xyz
 1  'x, y, z'
loop_
 _atom_site_type_symbol
 _atom_site_label
 _atom_site_symmetry_multiplicity
 _atom_site_fract_x
 _atom_site_fract_y
 _atom_site_fract_z
 _atom_site_fract_occupancy
 Ba  Ba1  1  0.00000  0.00000  0.30504  1
 Ba  Ba2  1  0.00000  0.00000  0.69496  1
 O  O1  1  0.00000  0.00000  0.50000  1
 O  O2  1  0.00000  0.50000  0.14964  1
 O  O3  1  0.50000  0.00000  0.14964  1
 O  O4  1  0.00000  0.50000  0.85036  1
 O  O5  1  0.50000  0.00000  0.85036  1
 O  O6  1  0.50000  0.50000  0.33991  1
 O  O7  1  0.50000  0.50000  0.66009  1
 Sb  Sb1  1  0.50000  0.50000  0.11307  1
 Sb  Sb2  1  0.50000  0.50000  0.88693  1
 Tl  Tl1  1  0.50000  0.50000  0.50000  1
