CIF file written using JARVIS-Tools package.
data_RbAgCl3
_symmetry_space_group_name_H-M  'Pm-3m'
_cell_length_a       5.08853
_cell_length_b       5.08864
_cell_length_c       5.08871
_cell_angle_alpha    90.0105
_cell_angle_beta     90.0023
_cell_angle_gamma    90.004

_symmetry_Int_Tables_number  221
_chemical_formula_structural  RbAgCl3
_chemical_formula_sum  RbAgCl3
_cell_volume  131.7656796055541
_cell_formula_units_Z  1
loop_
  _symmetry_equiv_pos_site_id
 _symmetry_equiv_pos_as_xyz
 1  'x, y, z'
loop_
 _atom_site_type_symbol
 _atom_site_label
 _atom_site_symmetry_multiplicity
 _atom_site_fract_x
 _atom_site_fract_y
 _atom_site_fract_z
 _atom_site_fract_occupancy
 Ag  Ag1  1  0.50000  0.49799  0.51205  1
 Cl  Cl1  1  -0.00000  0.49807  0.51200  1
 Cl  Cl2  1  0.50004  0.49791  0.01205  1
 Cl  Cl3  1  0.49996  0.99799  0.51205  1
 Rb  Rb1  1  1.00000  0.99804  0.01185  1
