CIF file written using JARVIS-Tools package.
data_FeS2
_symmetry_space_group_name_H-M  'Pa-3'
_cell_length_a       5.42164
_cell_length_b       5.42164
_cell_length_c       5.42164
_cell_angle_alpha    90
_cell_angle_beta     90
_cell_angle_gamma    90

_symmetry_Int_Tables_number  205
_chemical_formula_structural  FeS2
_chemical_formula_sum  Fe4S8
_cell_volume  159.3645742837504
_cell_formula_units_Z  4
loop_
  _symmetry_equiv_pos_site_id
 _symmetry_equiv_pos_as_xyz
 1  'x, y, z'
loop_
 _atom_site_type_symbol
 _atom_site_label
 _atom_site_symmetry_multiplicity
 _atom_site_fract_x
 _atom_site_fract_y
 _atom_site_fract_z
 _atom_site_fract_occupancy
 Fe  Fe1  1  0.00000  0.50000  0.50000  1
 Fe  Fe2  1  0.50000  0.50000  0.00000  1
 Fe  Fe3  1  0.50000  0.00000  0.50000  1
 Fe  Fe4  1  0.00000  0.00000  0.00000  1
 S  S1  1  0.38264  0.11736  0.88264  1
 S  S2  1  0.11736  0.88264  0.38264  1
 S  S3  1  0.88264  0.38264  0.11736  1
 S  S4  1  0.61736  0.61736  0.61736  1
 S  S5  1  0.38264  0.38264  0.38264  1
 S  S6  1  0.11736  0.61736  0.88264  1
 S  S7  1  0.88264  0.11736  0.61736  1
 S  S8  1  0.61736  0.88264  0.11736  1
