CIF file written using JARVIS-Tools package.
data_LiCrCoO4
_symmetry_space_group_name_H-M  'Imma'
_cell_length_a       5.71765
_cell_length_b       5.71765
_cell_length_c       5.71765
_cell_angle_alpha    89.4825
_cell_angle_beta     119.829
_cell_angle_gamma    60.4255

_symmetry_Int_Tables_number  74
_chemical_formula_structural  LiCrCoO4
_chemical_formula_sum  Li2Cr2Co2O8
_cell_volume  132.7604619200082
_cell_formula_units_Z  2
loop_
  _symmetry_equiv_pos_site_id
 _symmetry_equiv_pos_as_xyz
 1  'x, y, z'
loop_
 _atom_site_type_symbol
 _atom_site_label
 _atom_site_symmetry_multiplicity
 _atom_site_fract_x
 _atom_site_fract_y
 _atom_site_fract_z
 _atom_site_fract_occupancy
 Co  Co1  1  0.50000  0.50000  -0.00000  1
 Co  Co2  1  0.00000  0.50000  0.50000  1
 Cr  Cr1  1  0.50000  -0.00000  -0.00000  1
 Cr  Cr2  1  -0.00000  0.50000  -0.00000  1
 Li  Li1  1  0.75000  0.12691  0.62309  1
 Li  Li2  1  0.25000  0.87309  0.37691  1
 O  O1  1  0.52436  0.73828  0.78608  1
 O  O2  1  0.97564  0.73828  0.23735  1
 O  O3  1  0.97164  0.28855  0.23981  1
 O  O4  1  0.52836  0.73183  0.23981  1
 O  O5  1  0.47164  0.26817  0.76019  1
 O  O6  1  0.02836  0.71145  0.76019  1
 O  O7  1  0.02436  0.26172  0.76265  1
 O  O8  1  0.47564  0.26172  0.21392  1
