CIF file written using JARVIS-Tools package.
data_MnSO4
_symmetry_space_group_name_H-M  'Cmcm'
_cell_length_a       4.82103
_cell_length_b       4.82102
_cell_length_c       6.76973
_cell_angle_alpha    90
_cell_angle_beta     90
_cell_angle_gamma    113.01

_symmetry_Int_Tables_number  63
_chemical_formula_structural  MnSO4
_chemical_formula_sum  Mn2S2O8
_cell_volume  144.8258090690385
_cell_formula_units_Z  2
loop_
  _symmetry_equiv_pos_site_id
 _symmetry_equiv_pos_as_xyz
 1  'x, y, z'
loop_
 _atom_site_type_symbol
 _atom_site_label
 _atom_site_symmetry_multiplicity
 _atom_site_fract_x
 _atom_site_fract_y
 _atom_site_fract_z
 _atom_site_fract_occupancy
 Mn  Mn1  1  0.00000  0.00000  0.50000  1
 Mn  Mn2  1  0.00000  0.00000  0.00000  1
 O  O1  1  0.23419  0.30648  0.75000  1
 O  O2  1  0.76581  0.69352  0.25000  1
 O  O3  1  0.30648  0.23419  0.25000  1
 O  O4  1  0.69352  0.76581  0.75000  1
 O  O5  1  0.25437  0.74563  0.93102  1
 O  O6  1  0.74563  0.25437  0.43102  1
 O  O7  1  0.74563  0.25437  0.06898  1
 O  O8  1  0.25437  0.74563  0.56898  1
 S  S1  1  0.64557  0.35443  0.25000  1
 S  S2  1  0.35443  0.64557  0.75000  1
