CIF file written using JARVIS-Tools package.
data_ZnNi2O4
_symmetry_space_group_name_H-M  'Fd-3m'
_cell_length_a       5.83891
_cell_length_b       5.83891
_cell_length_c       5.83714
_cell_angle_alpha    120.01
_cell_angle_beta     120.01
_cell_angle_gamma    90.0001

_symmetry_Int_Tables_number  227
_chemical_formula_structural  ZnNi2O4
_chemical_formula_sum  Zn2Ni4O8
_cell_volume  140.6752313123376
_cell_formula_units_Z  2
loop_
  _symmetry_equiv_pos_site_id
 _symmetry_equiv_pos_as_xyz
 1  'x, y, z'
loop_
 _atom_site_type_symbol
 _atom_site_label
 _atom_site_symmetry_multiplicity
 _atom_site_fract_x
 _atom_site_fract_y
 _atom_site_fract_z
 _atom_site_fract_occupancy
 Ni  Ni1  1  -0.00000  -0.00000  0.50000  1
 Ni  Ni2  1  0.00000  0.50000  -0.00000  1
 Ni  Ni3  1  0.50000  0.00000  0.50000  1
 Ni  Ni4  1  0.00000  0.00000  0.00000  1
 O  O1  1  0.76331  0.79001  0.52662  1
 O  O2  1  0.76340  0.23669  0.97338  1
 O  O3  1  0.20999  0.23669  0.97338  1
 O  O4  1  0.23669  0.20999  0.47338  1
 O  O5  1  0.23669  0.76340  0.47338  1
 O  O6  1  0.23660  0.76331  0.02662  1
 O  O7  1  0.76331  0.23660  0.52662  1
 O  O8  1  0.79001  0.76331  0.02662  1
 Zn  Zn1  1  0.37500  0.62500  0.75000  1
 Zn  Zn2  1  0.62500  0.37500  0.25000  1
