CIF file written using JARVIS-Tools package.
data_PrCd3P3
_symmetry_space_group_name_H-M  'P6_3/mmc'
_cell_length_a       4.31988
_cell_length_b       4.31988
_cell_length_c       21.1856
_cell_angle_alpha    90
_cell_angle_beta     90
_cell_angle_gamma    120

_symmetry_Int_Tables_number  194
_chemical_formula_structural  PrCd3P3
_chemical_formula_sum  Pr2Cd6P6
_cell_volume  342.3863498724196
_cell_formula_units_Z  2
loop_
  _symmetry_equiv_pos_site_id
 _symmetry_equiv_pos_as_xyz
 1  'x, y, z'
loop_
 _atom_site_type_symbol
 _atom_site_label
 _atom_site_symmetry_multiplicity
 _atom_site_fract_x
 _atom_site_fract_y
 _atom_site_fract_z
 _atom_site_fract_occupancy
 Cd  Cd1  1  0.33333  0.66667  0.25000  1
 Cd  Cd2  1  0.66667  0.33333  0.75000  1
 Cd  Cd3  1  0.66667  0.33333  0.37369  1
 Cd  Cd4  1  0.33333  0.66667  0.87369  1
 Cd  Cd5  1  0.33333  0.66667  0.62631  1
 Cd  Cd6  1  0.66667  0.33333  0.12631  1
 P  P1  1  0.66667  0.33333  0.25000  1
 P  P2  1  0.33333  0.66667  0.75000  1
 P  P3  1  0.66667  0.33333  0.92210  1
 P  P4  1  0.33333  0.66667  0.42210  1
 P  P5  1  0.33333  0.66667  0.07790  1
 P  P6  1  0.66667  0.33333  0.57790  1
 Pr  Pr1  1  0.00000  0.00000  0.50000  1
 Pr  Pr2  1  0.00000  0.00000  0.00000  1
