CIF file written using JARVIS-Tools package.
data_ZrO2
_symmetry_space_group_name_H-M  'Pnma'
_cell_length_a       3.4608
_cell_length_b       5.44407
_cell_length_c       7.70824
_cell_angle_alpha    90
_cell_angle_beta     90
_cell_angle_gamma    90

_symmetry_Int_Tables_number  62
_chemical_formula_structural  ZrO2
_chemical_formula_sum  Zr4O8
_cell_volume  145.22949301615841
_cell_formula_units_Z  4
loop_
  _symmetry_equiv_pos_site_id
 _symmetry_equiv_pos_as_xyz
 1  'x, y, z'
loop_
 _atom_site_type_symbol
 _atom_site_label
 _atom_site_symmetry_multiplicity
 _atom_site_fract_x
 _atom_site_fract_y
 _atom_site_fract_z
 _atom_site_fract_occupancy
 O  O1  1  0.25000  0.10712  0.11033  1
 O  O2  1  0.75000  0.12798  0.35775  1
 O  O3  1  0.75000  0.37202  0.85775  1
 O  O4  1  0.25000  0.39288  0.61033  1
 O  O5  1  0.75000  0.60712  0.38967  1
 O  O6  1  0.25000  0.62798  0.14225  1
 O  O7  1  0.25000  0.87202  0.64225  1
 O  O8  1  0.75000  0.89288  0.88967  1
 Zr  Zr1  1  0.25000  0.14593  0.83097  1
 Zr  Zr2  1  0.25000  0.35407  0.33097  1
 Zr  Zr3  1  0.75000  0.64593  0.66903  1
 Zr  Zr4  1  0.75000  0.85407  0.16903  1
