CIF file written using JARVIS-Tools package.
data_CaMnO2
_symmetry_space_group_name_H-M  'P2_1/m'
_cell_length_a       3.31052
_cell_length_b       7.96183
_cell_length_c       8.02235
_cell_angle_alpha    69.8554
_cell_angle_beta     89.9991
_cell_angle_gamma    89.9981

_symmetry_Int_Tables_number  11
_chemical_formula_structural  CaMnO2
_chemical_formula_sum  Ca4Mn4O8
_cell_volume  198.5161670744762
_cell_formula_units_Z  4
loop_
  _symmetry_equiv_pos_site_id
 _symmetry_equiv_pos_as_xyz
 1  'x, y, z'
loop_
 _atom_site_type_symbol
 _atom_site_label
 _atom_site_symmetry_multiplicity
 _atom_site_fract_x
 _atom_site_fract_y
 _atom_site_fract_z
 _atom_site_fract_occupancy
 Ca  Ca1  1  0.75001  0.19997  0.92882  1
 Ca  Ca2  1  0.24999  0.80003  0.07118  1
 Ca  Ca3  1  0.25000  0.06536  0.31309  1
 Ca  Ca4  1  0.75000  0.93464  0.68691  1
 Mn  Mn1  1  0.25003  0.56395  0.81097  1
 Mn  Mn2  1  0.24989  0.31788  0.55724  1
 Mn  Mn3  1  0.75011  0.68212  0.44276  1
 Mn  Mn4  1  0.74997  0.43605  0.18903  1
 O  O1  1  0.24985  0.55079  0.32256  1
 O  O2  1  0.25004  0.79990  0.56469  1
 O  O3  1  0.74996  0.20010  0.43531  1
 O  O4  1  0.75015  0.44921  0.67744  1
 O  O5  1  0.75000  0.67301  0.93986  1
 O  O6  1  0.25001  0.06851  0.80623  1
 O  O7  1  0.25000  0.32699  0.06014  1
 O  O8  1  0.74999  0.93149  0.19377  1
