CIF file written using JARVIS-Tools package.
data_LiMnPO4
_symmetry_space_group_name_H-M  'Pna2_1'
_cell_length_a       5.49915
_cell_length_b       7.40184
_cell_length_c       7.99562
_cell_angle_alpha    90
_cell_angle_beta     90
_cell_angle_gamma    90

_symmetry_Int_Tables_number  33
_chemical_formula_structural  LiMnPO4
_chemical_formula_sum  Li4Mn4P4O6
_cell_volume  325.45220618662603
_cell_formula_units_Z  4
loop_
  _symmetry_equiv_pos_site_id
 _symmetry_equiv_pos_as_xyz
 1  'x, y, z'
loop_
 _atom_site_type_symbol
 _atom_site_label
 _atom_site_symmetry_multiplicity
 _atom_site_fract_x
 _atom_site_fract_y
 _atom_site_fract_z
 _atom_site_fract_occupancy
 Li  Li1  1  0.36353  0.48774  0.23500  1
 Li  Li2  1  0.36353  0.98774  0.26500  1
 Li  Li3  1  0.86353  0.01226  0.73500  1
 Li  Li4  1  0.86353  0.51226  0.76500  1
 Mn  Mn1  1  0.98111  0.79116  0.07372  1
 Mn  Mn2  1  0.98111  0.29116  0.42628  1
 Mn  Mn3  1  0.48111  0.70884  0.57372  1
 Mn  Mn4  1  0.48111  0.20884  0.92628  1
 O  O1  1  0.35317  0.73849  0.12471  1
 O  O2  1  0.11834  0.55447  0.44439  1
 O  O3  1  0.83035  0.78510  0.30958  1
 O  O4  1  0.22277  0.37643  0.03738  1
 O  O5  1  0.11834  0.05447  0.05561  1
 O  O6  1  0.85317  0.26151  0.87529  1
 O  O7  1  0.22277  0.87643  0.46262  1
 O  O8  1  0.83035  0.28510  0.19042  1
 O  O9  1  0.72277  0.12357  0.53738  1
 O  O10  1  0.33035  0.71490  0.80958  1
 O  O11  1  0.61834  0.44553  0.55561  1
 O  O12  1  0.33035  0.21490  0.69042  1
 O  O13  1  0.35317  0.23849  0.37529  1
 O  O14  1  0.61834  0.94553  0.94439  1
 O  O15  1  0.85317  0.76151  0.62471  1
 O  O16  1  0.72277  0.62357  0.96262  1
 P  P1  1  0.00010  0.24678  0.04189  1
 P  P2  1  0.00010  0.74678  0.45811  1
 P  P3  1  0.50010  0.25322  0.54189  1
 P  P4  1  0.50010  0.75322  0.95811  1
