CIF file written using JARVIS-Tools package.
data_Sr3Al2P4
_symmetry_space_group_name_H-M  'C2/c'
_cell_length_a       6.66779
_cell_length_b       8.35307
_cell_length_c       8.35307
_cell_angle_alpha    75.4278
_cell_angle_beta     89.4196
_cell_angle_gamma    89.4195

_symmetry_Int_Tables_number  15
_chemical_formula_structural  Sr3Al2P4
_chemical_formula_sum  Sr6Al4P8
_cell_volume  450.23365698594625
_cell_formula_units_Z  2
loop_
  _symmetry_equiv_pos_site_id
 _symmetry_equiv_pos_as_xyz
 1  'x, y, z'
loop_
 _atom_site_type_symbol
 _atom_site_label
 _atom_site_symmetry_multiplicity
 _atom_site_fract_x
 _atom_site_fract_y
 _atom_site_fract_z
 _atom_site_fract_occupancy
 Al  Al1  1  0.58154  0.58192  0.82774  1
 Al  Al2  1  0.41846  0.41808  0.17226  1
 Al  Al3  1  0.91846  0.17226  0.41808  1
 Al  Al4  1  0.08154  0.82774  0.58192  1
 P  P1  1  0.47584  0.29419  0.94135  1
 P  P2  1  0.52416  0.70581  0.05865  1
 P  P3  1  0.97584  0.94135  0.29419  1
 P  P4  1  0.42441  0.74070  0.57924  1
 P  P5  1  0.02416  0.05865  0.70581  1
 P  P6  1  0.57559  0.25930  0.42076  1
 P  P7  1  0.07559  0.42076  0.25930  1
 P  P8  1  0.92441  0.57924  0.74070  1
 Sr  Sr1  1  0.25000  0.40148  0.59852  1
 Sr  Sr2  1  0.53996  0.00866  0.74830  1
 Sr  Sr3  1  0.96004  0.25170  0.99134  1
 Sr  Sr4  1  0.46004  0.99134  0.25170  1
 Sr  Sr5  1  0.03996  0.74830  0.00866  1
 Sr  Sr6  1  0.75000  0.59852  0.40148  1
