CIF file written using JARVIS-Tools package.
data_LiSmO2
_symmetry_space_group_name_H-M  'P2_1/c'
_cell_length_a       5.68772
_cell_length_b       6.01649
_cell_length_c       5.70037
_cell_angle_alpha    90
_cell_angle_beta     102.593
_cell_angle_gamma    90

_symmetry_Int_Tables_number  14
_chemical_formula_structural  LiSmO2
_chemical_formula_sum  Li4Sm4O8
_cell_volume  190.3747884034969
_cell_formula_units_Z  4
loop_
  _symmetry_equiv_pos_site_id
 _symmetry_equiv_pos_as_xyz
 1  'x, y, z'
loop_
 _atom_site_type_symbol
 _atom_site_label
 _atom_site_symmetry_multiplicity
 _atom_site_fract_x
 _atom_site_fract_y
 _atom_site_fract_z
 _atom_site_fract_occupancy
 Li  Li1  1  0.67519  0.36069  0.66156  1
 Li  Li2  1  0.32481  0.63931  0.33844  1
 Li  Li3  1  0.17519  0.13931  0.66156  1
 Li  Li4  1  0.82481  0.86069  0.33844  1
 O  O1  1  0.29388  0.86750  0.57189  1
 O  O2  1  0.79388  0.63250  0.57189  1
 O  O3  1  0.20612  0.36750  0.42811  1
 O  O4  1  0.70612  0.13250  0.42811  1
 O  O5  1  0.51605  0.73841  0.08650  1
 O  O6  1  0.98395  0.23841  0.91350  1
 O  O7  1  0.48395  0.26159  0.91350  1
 O  O8  1  0.01605  0.76159  0.08650  1
 Sm  Sm1  1  0.19575  0.56972  0.79891  1
 Sm  Sm2  1  0.30425  0.06972  0.20109  1
 Sm  Sm3  1  0.80425  0.43028  0.20109  1
 Sm  Sm4  1  0.69575  0.93028  0.79891  1
