CIF file written using JARVIS-Tools package.
data_TeMoWSe2S
_symmetry_space_group_name_H-M  'P3m1'
_cell_length_a       3.36189
_cell_length_b       3.3617
_cell_length_c       39.1819
_cell_angle_alpha    90.0004
_cell_angle_beta     90
_cell_angle_gamma    120.002

_symmetry_Int_Tables_number  156
_chemical_formula_structural  TeMoWSe2S
_chemical_formula_sum  Te2Mo2W2Se4S2
_cell_volume  383.48753708160956
_cell_formula_units_Z  2
loop_
  _symmetry_equiv_pos_site_id
 _symmetry_equiv_pos_as_xyz
 1  'x, y, z'
loop_
 _atom_site_type_symbol
 _atom_site_label
 _atom_site_symmetry_multiplicity
 _atom_site_fract_x
 _atom_site_fract_y
 _atom_site_fract_z
 _atom_site_fract_occupancy
 Mo  Mo1  1  0.33327  0.66653  0.09320  1
 Mo  Mo2  1  0.66670  0.33341  0.28161  1
 S  S1  1  0.33338  0.66676  0.69606  1
 S  S2  1  0.33332  0.66664  0.61861  1
 Se  Se1  1  0.66658  0.33316  0.05124  1
 Se  Se2  1  0.66663  0.33326  0.42787  1
 Se  Se3  1  0.66663  0.33326  0.13561  1
 Se  Se4  1  0.66671  0.33342  0.51322  1
 Te  Te1  1  0.33340  0.66680  0.33012  1
 Te  Te2  1  0.33335  0.66670  0.23315  1
 W  W1  1  0.33337  0.66673  0.47058  1
 W  W2  1  0.66666  0.33332  0.65747  1
