CIF file written using JARVIS-Tools package.
data_Mn3SbO8
_symmetry_space_group_name_H-M  'R-3m'
_cell_length_a       9.47792
_cell_length_b       9.4781
_cell_length_c       13.2471
_cell_angle_alpha    21.2972
_cell_angle_beta     21.2978
_cell_angle_gamma    36.667

_symmetry_Int_Tables_number  166
_chemical_formula_structural  Mn3SbO8
_chemical_formula_sum  Mn3SbO8
_cell_volume  135.9589926598133
_cell_formula_units_Z  1
loop_
  _symmetry_equiv_pos_site_id
 _symmetry_equiv_pos_as_xyz
 1  'x, y, z'
loop_
 _atom_site_type_symbol
 _atom_site_label
 _atom_site_symmetry_multiplicity
 _atom_site_fract_x
 _atom_site_fract_y
 _atom_site_fract_z
 _atom_site_fract_occupancy
 Mn  Mn1  1  -0.00000  0.50000  0.00000  1
 Mn  Mn2  1  0.50000  -0.00000  0.00000  1
 Mn  Mn3  1  0.50000  0.50000  0.00000  1
 O  O1  1  0.99988  0.99989  0.26232  1
 O  O2  1  0.99989  0.47565  0.27734  1
 O  O3  1  0.47564  0.99990  0.27734  1
 O  O4  1  0.00012  0.00010  0.73768  1
 O  O5  1  0.52412  0.52413  0.22887  1
 O  O6  1  0.00011  0.52435  0.72266  1
 O  O7  1  0.52436  0.00010  0.72266  1
 O  O8  1  0.47588  0.47587  0.77113  1
 Sb  Sb1  1  -0.00000  0.00000  -0.00000  1
