CIF file written using JARVIS-Tools package.
data_CuS
_symmetry_space_group_name_H-M  'P6_3/mmc'
_cell_length_a       3.8121
_cell_length_b       3.8121
_cell_length_c       16.4999
_cell_angle_alpha    90
_cell_angle_beta     90
_cell_angle_gamma    120

_symmetry_Int_Tables_number  194
_chemical_formula_structural  CuS
_chemical_formula_sum  Cu6S6
_cell_volume  207.65436048904462
_cell_formula_units_Z  6
loop_
  _symmetry_equiv_pos_site_id
 _symmetry_equiv_pos_as_xyz
 1  'x, y, z'
loop_
 _atom_site_type_symbol
 _atom_site_label
 _atom_site_symmetry_multiplicity
 _atom_site_fract_x
 _atom_site_fract_y
 _atom_site_fract_z
 _atom_site_fract_occupancy
 Cu  Cu1  1  0.33333  0.66667  0.39347  1
 Cu  Cu2  1  0.66667  0.33333  0.89347  1
 Cu  Cu3  1  0.66667  0.33333  0.60653  1
 Cu  Cu4  1  0.33333  0.66667  0.10653  1
 Cu  Cu5  1  0.66667  0.33333  0.25000  1
 Cu  Cu6  1  0.33333  0.66667  0.75000  1
 S  S1  1  0.00000  0.00000  0.43591  1
 S  S2  1  0.00000  0.00000  0.93591  1
 S  S3  1  0.00000  0.00000  0.56409  1
 S  S4  1  0.00000  0.00000  0.06409  1
 S  S5  1  0.66667  0.33333  0.75000  1
 S  S6  1  0.33333  0.66667  0.25000  1
