CIF file written using JARVIS-Tools package.
data_BaPr2ZnS5
_symmetry_space_group_name_H-M  'I4/mcm'
_cell_length_a       7.93108
_cell_length_b       7.93108
_cell_length_c       8.8551
_cell_angle_alpha    116.604
_cell_angle_beta     116.604
_cell_angle_gamma    90

_symmetry_Int_Tables_number  140
_chemical_formula_structural  BaPr2ZnS5
_chemical_formula_sum  Ba2Pr4Zn2S0
_cell_volume  431.05915904311996
_cell_formula_units_Z  2
loop_
  _symmetry_equiv_pos_site_id
 _symmetry_equiv_pos_as_xyz
 1  'x, y, z'
loop_
 _atom_site_type_symbol
 _atom_site_label
 _atom_site_symmetry_multiplicity
 _atom_site_fract_x
 _atom_site_fract_y
 _atom_site_fract_z
 _atom_site_fract_occupancy
 Ba  Ba1  1  0.25000  0.25000  0.50000  1
 Ba  Ba2  1  0.75000  0.75000  0.50000  1
 Pr  Pr1  1  0.33868  0.16132  0.00000  1
 Pr  Pr2  1  0.16132  0.66132  0.00000  1
 Pr  Pr3  1  0.66132  0.83868  -0.00000  1
 Pr  Pr4  1  0.83868  0.33868  -0.00000  1
 S  S1  1  0.21493  0.71493  0.72990  1
 S  S2  1  0.51497  0.01497  0.72990  1
 S  S3  1  0.71493  0.51497  0.72990  1
 S  S4  1  0.01497  0.21493  0.72990  1
 S  S5  1  0.28507  0.48503  0.27010  1
 S  S6  1  0.50000  0.50000  -0.00000  1
 S  S7  1  0.48503  0.98503  0.27010  1
 S  S8  1  0.78507  0.28507  0.27010  1
 S  S9  1  0.98503  0.78507  0.27010  1
 S  S10  1  0.00000  0.00000  0.00000  1
 Zn  Zn1  1  0.75000  0.25000  0.50000  1
 Zn  Zn2  1  0.25000  0.75000  0.50000  1
