CIF file written using JARVIS-Tools package.
data_TaTlCu2S4
_symmetry_space_group_name_H-M  'Ama2'
_cell_length_a       5.54535
_cell_length_b       7.38048
_cell_length_c       9.54155
_cell_angle_alpha    90
_cell_angle_beta     106.893
_cell_angle_gamma    90

_symmetry_Int_Tables_number  40
_chemical_formula_structural  TaTlCu2S4
_chemical_formula_sum  Ta2Tl2Cu4S8
_cell_volume  373.6586225031505
_cell_formula_units_Z  2
loop_
  _symmetry_equiv_pos_site_id
 _symmetry_equiv_pos_as_xyz
 1  'x, y, z'
loop_
 _atom_site_type_symbol
 _atom_site_label
 _atom_site_symmetry_multiplicity
 _atom_site_fract_x
 _atom_site_fract_y
 _atom_site_fract_z
 _atom_site_fract_occupancy
 Cu  Cu1  1  0.11184  0.75000  0.21684  1
 Cu  Cu2  1  0.52668  0.00000  -0.00000  1
 Cu  Cu3  1  0.89499  0.25000  0.78316  1
 Cu  Cu4  1  0.52668  0.50000  -0.00000  1
 S  S1  1  0.63847  0.50379  0.78226  1
 S  S2  1  0.85621  0.49621  0.21774  1
 S  S3  1  0.63847  -0.00379  0.78226  1
 S  S4  1  0.85621  0.00379  0.21774  1
 S  S5  1  0.03887  0.25000  0.57362  1
 S  S6  1  0.27261  0.75000  0.01521  1
 S  S7  1  0.25741  0.25000  0.98479  1
 S  S8  1  0.46526  0.75000  0.42638  1
 Ta  Ta1  1  0.38983  0.25000  0.77296  1
 Ta  Ta2  1  0.61687  0.75000  0.22704  1
 Tl  Tl1  1  0.44986  0.25000  0.36412  1
 Tl  Tl2  1  0.08574  0.75000  0.63588  1
