CIF file written using JARVIS-Tools package.
data_BaAl2B2O7
_symmetry_space_group_name_H-M  'R32'
_cell_length_a       8.73433
_cell_length_b       8.73433
_cell_length_c       8.73433
_cell_angle_alpha    33.6456
_cell_angle_beta     33.6456
_cell_angle_gamma    33.6456

_symmetry_Int_Tables_number  155
_chemical_formula_structural  BaAl2B2O7
_chemical_formula_sum  BaAl2B2O7
_cell_volume  182.22126560693522
_cell_formula_units_Z  1
loop_
  _symmetry_equiv_pos_site_id
 _symmetry_equiv_pos_as_xyz
 1  'x, y, z'
loop_
 _atom_site_type_symbol
 _atom_site_label
 _atom_site_symmetry_multiplicity
 _atom_site_fract_x
 _atom_site_fract_y
 _atom_site_fract_z
 _atom_site_fract_occupancy
 Al  Al1  1  0.56862  0.56862  0.56862  1
 Al  Al2  1  0.43138  0.43138  0.43138  1
 B  B1  1  0.73665  0.73665  0.73665  1
 B  B2  1  0.26335  0.26335  0.26335  1
 Ba  Ba1  1  0.00000  0.00000  0.00000  1
 O  O1  1  0.48187  0.96051  0.35631  1
 O  O2  1  0.35631  0.48187  0.96051  1
 O  O3  1  0.96051  0.35631  0.48187  1
 O  O4  1  0.50000  0.50000  0.50000  1
 O  O5  1  0.03949  0.51813  0.64369  1
 O  O6  1  0.64369  0.03949  0.51813  1
 O  O7  1  0.51813  0.64369  0.03949  1
