CIF file written using JARVIS-Tools package.
data_Mn3Cu3O8
_symmetry_space_group_name_H-M  'R-3m'
_cell_length_a       5.93411
_cell_length_b       5.93411
_cell_length_c       5.93411
_cell_angle_alpha    58.5177
_cell_angle_beta     58.5176
_cell_angle_gamma    58.5176

_symmetry_Int_Tables_number  166
_chemical_formula_structural  Mn3Cu3O8
_chemical_formula_sum  Mn3Cu3O8
_cell_volume  142.7481945474991
_cell_formula_units_Z  1
loop_
  _symmetry_equiv_pos_site_id
 _symmetry_equiv_pos_as_xyz
 1  'x, y, z'
loop_
 _atom_site_type_symbol
 _atom_site_label
 _atom_site_symmetry_multiplicity
 _atom_site_fract_x
 _atom_site_fract_y
 _atom_site_fract_z
 _atom_site_fract_occupancy
 Cu  Cu1  1  0.00008  0.00008  0.00008  1
 Cu  Cu2  1  0.24992  0.24992  0.24992  1
 Cu  Cu3  1  0.62500  0.62500  0.62500  1
 Mn  Mn1  1  0.12500  0.62500  0.62500  1
 Mn  Mn2  1  0.62500  0.12500  0.62500  1
 Mn  Mn3  1  0.62500  0.62500  0.12500  1
 O  O1  1  0.38730  0.38730  0.38730  1
 O  O2  1  0.37763  0.37763  0.83461  1
 O  O3  1  0.37763  0.83461  0.37763  1
 O  O4  1  0.83461  0.37763  0.37763  1
 O  O5  1  0.41539  0.87237  0.87237  1
 O  O6  1  0.87237  0.41539  0.87237  1
 O  O7  1  0.87237  0.87237  0.41539  1
 O  O8  1  0.86270  0.86270  0.86270  1
