CIF file written using JARVIS-Tools package.
data_K2S2O7
_symmetry_space_group_name_H-M  'C2/c'
_cell_length_a       7.13108
_cell_length_b       7.13108
_cell_length_c       7.28123
_cell_angle_alpha    86.3223
_cell_angle_beta     86.3223
_cell_angle_gamma    61.2961

_symmetry_Int_Tables_number  15
_chemical_formula_structural  K2S2O7
_chemical_formula_sum  K4S4O4
_cell_volume  323.862981363706
_cell_formula_units_Z  2
loop_
  _symmetry_equiv_pos_site_id
 _symmetry_equiv_pos_as_xyz
 1  'x, y, z'
loop_
 _atom_site_type_symbol
 _atom_site_label
 _atom_site_symmetry_multiplicity
 _atom_site_fract_x
 _atom_site_fract_y
 _atom_site_fract_z
 _atom_site_fract_occupancy
 K  K1  1  0.20678  0.50217  0.85931  1
 K  K2  1  0.50217  0.20678  0.35931  1
 K  K3  1  0.49783  0.79322  0.64069  1
 K  K4  1  0.79322  0.49783  0.14069  1
 O  O1  1  0.19362  0.14493  0.06905  1
 O  O2  1  0.85507  0.80638  0.43095  1
 O  O3  1  0.23216  0.65344  0.50613  1
 O  O4  1  0.55328  0.13782  0.72917  1
 O  O5  1  0.80638  0.85507  0.93095  1
 O  O6  1  0.86218  0.44672  0.77083  1
 O  O7  1  0.92822  0.07178  0.75000  1
 O  O8  1  0.76784  0.34656  0.49387  1
 O  O9  1  0.44672  0.86218  0.27083  1
 O  O10  1  0.65344  0.23216  0.00613  1
 O  O11  1  0.13782  0.55328  0.22917  1
 O  O12  1  0.07178  0.92822  0.25000  1
 O  O13  1  0.34656  0.76784  0.99387  1
 O  O14  1  0.14493  0.19362  0.56905  1
 S  S1  1  0.71674  0.07539  0.86455  1
 S  S2  1  0.92461  0.28326  0.63545  1
 S  S3  1  0.28326  0.92461  0.13545  1
 S  S4  1  0.07539  0.71674  0.36455  1
