CIF file written using JARVIS-Tools package.
data_GeO2
_symmetry_space_group_name_H-M  'P4_12_12'
_cell_length_a       4.94229
_cell_length_b       4.94229
_cell_length_c       7.13856
_cell_angle_alpha    90
_cell_angle_beta     90
_cell_angle_gamma    90

_symmetry_Int_Tables_number  92
_chemical_formula_structural  GeO2
_chemical_formula_sum  Ge4O8
_cell_volume  174.36780971307218
_cell_formula_units_Z  4
loop_
  _symmetry_equiv_pos_site_id
 _symmetry_equiv_pos_as_xyz
 1  'x, y, z'
loop_
 _atom_site_type_symbol
 _atom_site_label
 _atom_site_symmetry_multiplicity
 _atom_site_fract_x
 _atom_site_fract_y
 _atom_site_fract_z
 _atom_site_fract_occupancy
 Ge  Ge1  1  0.66670  0.66670  0.50000  1
 Ge  Ge2  1  0.83330  0.16670  0.75000  1
 Ge  Ge3  1  0.16670  0.83330  0.25000  1
 Ge  Ge4  1  0.33330  0.33330  0.00000  1
 O  O1  1  0.81622  0.77656  0.28709  1
 O  O2  1  0.18378  0.22344  0.78709  1
 O  O3  1  0.77656  0.81622  0.71291  1
 O  O4  1  0.27656  0.68378  0.03709  1
 O  O5  1  0.22344  0.18378  0.21291  1
 O  O6  1  0.31622  0.72344  0.46291  1
 O  O7  1  0.68378  0.27656  0.96291  1
 O  O8  1  0.72344  0.31622  0.53709  1
