CIF file written using JARVIS-Tools package.
data_Li2PtF6
_symmetry_space_group_name_H-M  'P4_2/mnm'
_cell_length_a       4.65143
_cell_length_b       4.65519
_cell_length_c       10.2986
_cell_angle_alpha    90
_cell_angle_beta     116.85
_cell_angle_gamma    90

_symmetry_Int_Tables_number  136
_chemical_formula_structural  Li2PtF6
_chemical_formula_sum  Li4Pt2F2
_cell_volume  198.95785161195224
_cell_formula_units_Z  2
loop_
  _symmetry_equiv_pos_site_id
 _symmetry_equiv_pos_as_xyz
 1  'x, y, z'
loop_
 _atom_site_type_symbol
 _atom_site_label
 _atom_site_symmetry_multiplicity
 _atom_site_fract_x
 _atom_site_fract_y
 _atom_site_fract_z
 _atom_site_fract_occupancy
 F  F1  1  0.03212  0.69398  0.33683  1
 F  F2  1  0.35845  0.69411  0.66315  1
 F  F3  1  0.64155  0.19411  0.83685  1
 F  F4  1  0.35845  0.80589  0.16315  1
 F  F5  1  0.70176  0.79965  0.50000  1
 F  F6  1  0.29824  0.29965  1.00000  1
 F  F7  1  0.29824  0.20035  0.50000  1
 F  F8  1  0.96788  0.19398  0.16317  1
 F  F9  1  0.64155  0.30589  0.33685  1
 F  F10  1  0.03212  0.80602  0.83683  1
 F  F11  1  0.96788  0.30602  0.66317  1
 F  F12  1  0.70176  0.70035  0.00000  1
 Li  Li1  1  0.66343  0.49987  0.16343  1
 Li  Li2  1  0.66343  0.00013  0.66343  1
 Li  Li3  1  0.33657  0.50013  0.83657  1
 Li  Li4  1  0.33657  0.99987  0.33657  1
 Pt  Pt1  1  0.00000  0.00000  0.00000  1
 Pt  Pt2  1  0.00000  0.50000  0.50000  1
