CIF file written using JARVIS-Tools package.
data_Ca5B3O9F
_symmetry_space_group_name_H-M  'Cm'
_cell_length_a       3.53779
_cell_length_b       8.16395
_cell_length_c       9.04099
_cell_angle_alpha    63.1603
_cell_angle_beta     85.2375
_cell_angle_gamma    79.4034

_symmetry_Int_Tables_number  8
_chemical_formula_structural  Ca5B3O9F
_chemical_formula_sum  Ca5B3O9F
_cell_volume  229.02107428362734
_cell_formula_units_Z  1
loop_
  _symmetry_equiv_pos_site_id
 _symmetry_equiv_pos_as_xyz
 1  'x, y, z'
loop_
 _atom_site_type_symbol
 _atom_site_label
 _atom_site_symmetry_multiplicity
 _atom_site_fract_x
 _atom_site_fract_y
 _atom_site_fract_z
 _atom_site_fract_occupancy
 B  B1  1  0.59163  0.31993  0.60805  1
 B  B2  1  0.59163  0.92797  0.39195  1
 B  B3  1  0.96535  0.55853  0.00000  1
 Ca  Ca1  1  0.64231  0.20461  -0.00000  1
 Ca  Ca2  1  0.34743  0.69861  0.23548  1
 Ca  Ca3  1  0.34743  0.93409  0.76452  1
 Ca  Ca4  1  0.00610  0.26162  0.35664  1
 Ca  Ca5  1  0.00610  0.61826  0.64336  1
 F  F1  1  0.24780  -0.00088  0.00000  1
 O  O1  1  0.91870  0.57126  0.14846  1
 O  O2  1  0.58159  0.40647  0.70974  1
 O  O3  1  0.40343  0.40860  0.45644  1
 O  O4  1  0.40343  0.86504  0.54356  1
 O  O5  1  0.58159  0.11621  0.29026  1
 O  O6  1  0.05668  0.38671  0.00000  1
 O  O7  1  0.91870  0.71972  0.85154  1
 O  O8  1  0.79385  0.79528  0.34631  1
 O  O9  1  0.79385  0.14159  0.65369  1
