CIF file written using JARVIS-Tools package.
data_Cr2O5
_symmetry_space_group_name_H-M  'Pmmn'
_cell_length_a       3.56314
_cell_length_b       4.55104
_cell_length_c       11.0869
_cell_angle_alpha    90
_cell_angle_beta     90
_cell_angle_gamma    90

_symmetry_Int_Tables_number  59
_chemical_formula_structural  Cr2O5
_chemical_formula_sum  Cr4O0
_cell_volume  179.7852074635293
_cell_formula_units_Z  2
loop_
  _symmetry_equiv_pos_site_id
 _symmetry_equiv_pos_as_xyz
 1  'x, y, z'
loop_
 _atom_site_type_symbol
 _atom_site_label
 _atom_site_symmetry_multiplicity
 _atom_site_fract_x
 _atom_site_fract_y
 _atom_site_fract_z
 _atom_site_fract_occupancy
 Cr  Cr1  1  0.00000  0.88089  0.84911  1
 Cr  Cr2  1  0.50000  0.11913  0.65090  1
 Cr  Cr3  1  0.50000  0.11911  0.34911  1
 Cr  Cr4  1  0.00000  0.88087  0.15090  1
 O  O1  1  0.50000  0.99360  0.81766  1
 O  O2  1  0.00000  0.00641  0.68235  1
 O  O3  1  0.00000  0.00640  0.31766  1
 O  O4  1  0.50000  0.99359  0.18235  1
 O  O5  1  0.00000  0.53492  0.14687  1
 O  O6  1  0.50000  0.46507  0.35313  1
 O  O7  1  0.50000  0.46508  0.64687  1
 O  O8  1  0.50000  0.01089  0.50001  1
 O  O9  1  0.00000  -0.01089  0.00001  1
 O  O10  1  0.00000  0.53493  0.85313  1
