CIF file written using JARVIS-Tools package.
data_Ag2SO4
_symmetry_space_group_name_H-M  'Fddd'
_cell_length_a       5.55164
_cell_length_b       6.29042
_cell_length_c       6.80452
_cell_angle_alpha    79.6295
_cell_angle_beta     65.9247
_cell_angle_gamma    63.8147

_symmetry_Int_Tables_number  70
_chemical_formula_structural  Ag2SO4
_chemical_formula_sum  Ag4S2O8
_cell_volume  194.69098760384583
_cell_formula_units_Z  2
loop_
  _symmetry_equiv_pos_site_id
 _symmetry_equiv_pos_as_xyz
 1  'x, y, z'
loop_
 _atom_site_type_symbol
 _atom_site_label
 _atom_site_symmetry_multiplicity
 _atom_site_fract_x
 _atom_site_fract_y
 _atom_site_fract_z
 _atom_site_fract_occupancy
 Ag  Ag1  1  0.17656  0.64687  0.25000  1
 Ag  Ag2  1  0.57344  0.85313  0.25000  1
 Ag  Ag3  1  0.82344  0.35313  0.75000  1
 Ag  Ag4  1  0.42656  0.14687  0.75000  1
 O  O1  1  0.17449  0.09524  0.11090  1
 O  O2  1  0.88063  0.40476  0.38910  1
 O  O3  1  0.73027  0.09524  0.38910  1
 O  O4  1  0.71461  0.40476  0.11090  1
 O  O5  1  0.82551  0.90476  0.88910  1
 O  O6  1  0.11937  0.59524  0.61090  1
 O  O7  1  0.28539  0.59524  0.88910  1
 O  O8  1  0.26973  0.90476  0.61090  1
 S  S1  1  0.87500  0.25000  0.25000  1
 S  S2  1  0.12500  0.75000  0.75000  1
