CIF file written using JARVIS-Tools package.
data_Mg2Sn3O8
_symmetry_space_group_name_H-M  'C2/m'
_cell_length_a       5.41597
_cell_length_b       6.18792
_cell_length_c       5.90877
_cell_angle_alpha    121.575
_cell_angle_beta     98.7182
_cell_angle_gamma    90

_symmetry_Int_Tables_number  12
_chemical_formula_structural  Mg2Sn3O8
_chemical_formula_sum  Mg2Sn3O8
_cell_volume  166.0151381503306
_cell_formula_units_Z  1
loop_
  _symmetry_equiv_pos_site_id
 _symmetry_equiv_pos_as_xyz
 1  'x, y, z'
loop_
 _atom_site_type_symbol
 _atom_site_label
 _atom_site_symmetry_multiplicity
 _atom_site_fract_x
 _atom_site_fract_y
 _atom_site_fract_z
 _atom_site_fract_occupancy
 Mg  Mg1  1  0.57652  0.70461  0.40921  1
 Mg  Mg2  1  0.42348  0.29539  0.59079  1
 O  O1  1  0.13502  0.39403  0.78805  1
 O  O2  1  0.86498  0.60597  0.21195  1
 O  O3  1  0.13605  0.89379  0.78759  1
 O  O4  1  0.86395  0.10621  0.21241  1
 O  O5  1  0.36253  0.35272  0.25045  1
 O  O6  1  0.36253  0.89773  0.25045  1
 O  O7  1  0.63747  0.10227  0.74955  1
 O  O8  1  0.63747  0.64728  0.74955  1
 Sn  Sn1  1  0.50000  1.00000  -0.00000  1
 Sn  Sn2  1  -0.00000  0.74221  1.00000  1
 Sn  Sn3  1  0.00000  0.25779  1.00000  1
