CIF file written using JARVIS-Tools package.
data_MgV2S4
_symmetry_space_group_name_H-M  'Fd-3m'
_cell_length_a       7.23737
_cell_length_b       7.23959
_cell_length_c       7.23944
_cell_angle_alpha    59.9845
_cell_angle_beta     60.0091
_cell_angle_gamma    60.0105

_symmetry_Int_Tables_number  227
_chemical_formula_structural  MgV2S4
_chemical_formula_sum  Mg2V4S8
_cell_volume  268.2243994203174
_cell_formula_units_Z  2
loop_
  _symmetry_equiv_pos_site_id
 _symmetry_equiv_pos_as_xyz
 1  'x, y, z'
loop_
 _atom_site_type_symbol
 _atom_site_label
 _atom_site_symmetry_multiplicity
 _atom_site_fract_x
 _atom_site_fract_y
 _atom_site_fract_z
 _atom_site_fract_occupancy
 Mg  Mg1  1  0.87499  0.87502  0.87500  1
 Mg  Mg2  1  0.12501  0.12498  0.12500  1
 S  S1  1  0.73921  0.73899  0.73899  1
 S  S2  1  0.26100  0.26079  0.71720  1
 S  S3  1  0.26101  0.71720  0.26079  1
 S  S4  1  0.71720  0.26101  0.26100  1
 S  S5  1  0.73899  0.28280  0.73922  1
 S  S6  1  0.28280  0.73899  0.73900  1
 S  S7  1  0.26079  0.26101  0.26100  1
 S  S8  1  0.73900  0.73921  0.28280  1
 V  V1  1  0.50000  0.50000  0.50000  1
 V  V2  1  0.50000  0.50000  0.00000  1
 V  V3  1  1.00000  0.50000  0.50000  1
 V  V4  1  0.50000  0.00000  0.50000  1
