CIF file written using JARVIS-Tools package.
data_Nb2Tl2O7
_symmetry_space_group_name_H-M  'Fd-3m'
_cell_length_a       7.61376
_cell_length_b       7.61376
_cell_length_c       7.61376
_cell_angle_alpha    60
_cell_angle_beta     60
_cell_angle_gamma    60

_symmetry_Int_Tables_number  227
_chemical_formula_structural  Nb2Tl2O7
_chemical_formula_sum  Nb4Tl4O4
_cell_volume  312.09248652462946
_cell_formula_units_Z  2
loop_
  _symmetry_equiv_pos_site_id
 _symmetry_equiv_pos_as_xyz
 1  'x, y, z'
loop_
 _atom_site_type_symbol
 _atom_site_label
 _atom_site_symmetry_multiplicity
 _atom_site_fract_x
 _atom_site_fract_y
 _atom_site_fract_z
 _atom_site_fract_occupancy
 Nb  Nb1  1  0.00000  0.00000  0.00000  1
 Nb  Nb2  1  -0.00000  0.50000  0.00000  1
 Nb  Nb3  1  -0.00000  -0.00000  0.50000  1
 Nb  Nb4  1  0.50000  0.00000  0.00000  1
 O  O1  1  0.68750  0.06250  0.68750  1
 O  O2  1  0.93750  0.31250  0.93750  1
 O  O3  1  0.06250  0.68750  0.06250  1
 O  O4  1  0.06250  0.06250  0.68750  1
 O  O5  1  0.37500  0.37500  0.37500  1
 O  O6  1  0.06250  0.68750  0.68750  1
 O  O7  1  0.31250  0.31250  0.93750  1
 O  O8  1  0.31250  0.93750  0.31250  1
 O  O9  1  0.93750  0.93750  0.31250  1
 O  O10  1  0.68750  0.68750  0.06250  1
 O  O11  1  0.93750  0.31250  0.31250  1
 O  O12  1  0.31250  0.93750  0.93750  1
 O  O13  1  0.62500  0.62500  0.62500  1
 O  O14  1  0.68750  0.06250  0.06250  1
 Tl  Tl1  1  0.50000  0.50000  0.50000  1
 Tl  Tl2  1  0.50000  0.50000  0.00000  1
 Tl  Tl3  1  -0.00000  0.50000  0.50000  1
 Tl  Tl4  1  0.50000  -0.00000  0.50000  1
