CIF file written using JARVIS-Tools package.
data_Mg2As2O7
_symmetry_space_group_name_H-M  'C2/m'
_cell_length_a       4.8308
_cell_length_b       5.42279
_cell_length_c       5.42279
_cell_angle_alpha    105.137
_cell_angle_beta     97.9701
_cell_angle_gamma    97.9703

_symmetry_Int_Tables_number  12
_chemical_formula_structural  Mg2As2O7
_chemical_formula_sum  Mg2As2O7
_cell_volume  133.51269167986771
_cell_formula_units_Z  1
loop_
  _symmetry_equiv_pos_site_id
 _symmetry_equiv_pos_as_xyz
 1  'x, y, z'
loop_
 _atom_site_type_symbol
 _atom_site_label
 _atom_site_symmetry_multiplicity
 _atom_site_fract_x
 _atom_site_fract_y
 _atom_site_fract_z
 _atom_site_fract_occupancy
 As  As1  1  0.09969  0.76290  0.76290  1
 As  As2  1  0.90031  0.23710  0.23710  1
 Mg  Mg1  1  0.50000  0.68974  0.31026  1
 Mg  Mg2  1  0.50000  0.31026  0.68974  1
 O  O1  1  0.29174  0.93108  0.59918  1
 O  O2  1  0.70826  0.40082  0.06892  1
 O  O3  1  0.70826  0.06892  0.40082  1
 O  O4  1  0.29174  0.59918  0.93108  1
 O  O5  1  0.00000  0.00000  0.00000  1
 O  O6  1  0.77250  0.59408  0.59408  1
 O  O7  1  0.22750  0.40592  0.40592  1
