CIF file written using JARVIS-Tools package.
data_GaMo4Se8
_symmetry_space_group_name_H-M  'F-43m'
_cell_length_a       7.26611
_cell_length_b       7.26611
_cell_length_c       7.26612
_cell_angle_alpha    59.9978
_cell_angle_beta     59.9979
_cell_angle_gamma    59.9978

_symmetry_Int_Tables_number  216
_chemical_formula_structural  GaMo4Se8
_chemical_formula_sum  GaMo4Se8
_cell_volume  271.25015689273334
_cell_formula_units_Z  1
loop_
  _symmetry_equiv_pos_site_id
 _symmetry_equiv_pos_as_xyz
 1  'x, y, z'
loop_
 _atom_site_type_symbol
 _atom_site_label
 _atom_site_symmetry_multiplicity
 _atom_site_fract_x
 _atom_site_fract_y
 _atom_site_fract_z
 _atom_site_fract_occupancy
 Ga  Ga1  1  0.00220  0.00220  0.00220  1
 Mo  Mo1  1  0.80210  0.40224  0.40224  1
 Mo  Mo2  1  0.40224  0.40224  0.80210  1
 Mo  Mo3  1  0.40223  0.40223  0.40223  1
 Mo  Mo4  1  0.40224  0.80210  0.40224  1
 Se  Se1  1  0.13899  0.59184  0.13899  1
 Se  Se2  1  0.63818  0.63818  0.09426  1
 Se  Se3  1  0.13899  0.13899  0.59184  1
 Se  Se4  1  0.59184  0.13899  0.13899  1
 Se  Se5  1  0.63818  0.63818  0.63818  1
 Se  Se6  1  0.13898  0.13898  0.13898  1
 Se  Se7  1  0.09426  0.63818  0.63818  1
 Se  Se8  1  0.63818  0.09426  0.63818  1
