CIF file written using JARVIS-Tools package.
data_VSi2O6
_symmetry_space_group_name_H-M  'C2/c'
_cell_length_a       5.34504
_cell_length_b       6.46624
_cell_length_c       6.4664
_cell_angle_alpha    84.4862
_cell_angle_beta     75.2487
_cell_angle_gamma    75.2485

_symmetry_Int_Tables_number  15
_chemical_formula_structural  VSi2O6
_chemical_formula_sum  V2Si4O2
_cell_volume  208.88736875246613
_cell_formula_units_Z  2
loop_
  _symmetry_equiv_pos_site_id
 _symmetry_equiv_pos_as_xyz
 1  'x, y, z'
loop_
 _atom_site_type_symbol
 _atom_site_label
 _atom_site_symmetry_multiplicity
 _atom_site_fract_x
 _atom_site_fract_y
 _atom_site_fract_z
 _atom_site_fract_occupancy
 O  O1  1  0.36256  0.04314  0.68378  1
 O  O2  1  0.54343  0.63152  0.14971  1
 O  O3  1  0.21962  0.09841  0.12202  1
 O  O4  1  0.63005  0.95658  0.31452  1
 O  O5  1  0.44918  0.36820  0.84860  1
 O  O6  1  0.13005  0.81524  0.45587  1
 O  O7  1  0.86255  0.18449  0.54243  1
 O  O8  1  0.27299  0.37700  0.40061  1
 O  O9  1  0.71962  0.62272  0.59771  1
 O  O10  1  0.04342  0.65041  0.13082  1
 O  O11  1  0.94918  0.34930  0.86750  1
 O  O12  1  0.77300  0.90131  0.87629  1
 Si  Si1  1  0.74378  0.38506  0.71275  1
 Si  Si2  1  0.24883  0.61466  0.28556  1
 Si  Si3  1  0.74883  0.78627  0.11395  1
 Si  Si4  1  0.24378  0.21345  0.88436  1
 V  V1  1  0.74630  0.89931  0.59970  1
 V  V2  1  0.24631  0.10041  0.39860  1
