CIF file written using JARVIS-Tools package.
data_Tb2CoGe2
_symmetry_space_group_name_H-M  'C2/m'
_cell_length_a       4.168
_cell_length_b       7.11646
_cell_length_c       9.52185
_cell_angle_alpha    120.454
_cell_angle_beta     77.3576
_cell_angle_gamma    72.9718

_symmetry_Int_Tables_number  12
_chemical_formula_structural  Tb2CoGe2
_chemical_formula_sum  Tb4Co2Ge4
_cell_volume  208.4005951320661
_cell_formula_units_Z  2
loop_
  _symmetry_equiv_pos_site_id
 _symmetry_equiv_pos_as_xyz
 1  'x, y, z'
loop_
 _atom_site_type_symbol
 _atom_site_label
 _atom_site_symmetry_multiplicity
 _atom_site_fract_x
 _atom_site_fract_y
 _atom_site_fract_z
 _atom_site_fract_occupancy
 Co  Co1  1  0.64285  0.88879  0.82551  1
 Co  Co2  1  0.35715  0.11121  0.17449  1
 Ge  Ge1  1  0.68639  0.30048  0.32674  1
 Ge  Ge2  1  0.52920  0.19385  0.74775  1
 Ge  Ge3  1  0.47080  0.80615  0.25225  1
 Ge  Ge4  1  0.31361  0.69952  0.67326  1
 Tb  Tb1  1  0.05340  0.30929  0.58391  1
 Tb  Tb2  1  0.12244  0.74517  0.00995  1
 Tb  Tb3  1  0.87756  0.25483  0.99005  1
 Tb  Tb4  1  0.94660  0.69071  0.41609  1
