CIF file written using JARVIS-Tools package.
data_CaF2
_symmetry_space_group_name_H-M  'Pmc2_1'
_cell_length_a       3.48765
_cell_length_b       4.14837
_cell_length_c       5.93914
_cell_angle_alpha    90
_cell_angle_beta     90
_cell_angle_gamma    90

_symmetry_Int_Tables_number  26
_chemical_formula_structural  CaF2
_chemical_formula_sum  Ca2F4
_cell_volume  85.92775370875414
_cell_formula_units_Z  2
loop_
  _symmetry_equiv_pos_site_id
 _symmetry_equiv_pos_as_xyz
 1  'x, y, z'
loop_
 _atom_site_type_symbol
 _atom_site_label
 _atom_site_symmetry_multiplicity
 _atom_site_fract_x
 _atom_site_fract_y
 _atom_site_fract_z
 _atom_site_fract_occupancy
 Ca  Ca1  1  0.00000  0.14446  0.70191  1
 Ca  Ca2  1  0.00000  0.85554  0.20191  1
 F  F1  1  0.50000  0.09166  0.98030  1
 F  F2  1  0.00000  0.63259  0.85079  1
 F  F3  1  0.00000  0.36741  0.35079  1
 F  F4  1  0.50000  0.90834  0.48030  1
