CIF file written using JARVIS-Tools package.
data_BaGa2Se4
_symmetry_space_group_name_H-M  'Cccm'
_cell_length_a       6.50244
_cell_length_b       6.50244
_cell_length_c       11.4211
_cell_angle_alpha    90
_cell_angle_beta     90
_cell_angle_gamma    121.638

_symmetry_Int_Tables_number  66
_chemical_formula_structural  BaGa2Se4
_chemical_formula_sum  Ba2Ga4Se8
_cell_volume  411.13274077157706
_cell_formula_units_Z  2
loop_
  _symmetry_equiv_pos_site_id
 _symmetry_equiv_pos_as_xyz
 1  'x, y, z'
loop_
 _atom_site_type_symbol
 _atom_site_label
 _atom_site_symmetry_multiplicity
 _atom_site_fract_x
 _atom_site_fract_y
 _atom_site_fract_z
 _atom_site_fract_occupancy
 Ba  Ba1  1  0.50000  0.50000  0.25000  1
 Ba  Ba2  1  0.50000  0.50000  0.75000  1
 Ga  Ga1  1  0.24256  0.75914  0.50000  1
 Ga  Ga2  1  0.75744  0.24086  0.50000  1
 Ga  Ga3  1  0.24086  0.75744  0.00000  1
 Ga  Ga4  1  0.75914  0.24256  0.00000  1
 Se  Se1  1  0.50000  -0.00000  0.33614  1
 Se  Se2  1  -0.00000  0.50000  0.16386  1
 Se  Se3  1  0.65313  0.82501  0.00000  1
 Se  Se4  1  0.34687  0.17499  0.00000  1
 Se  Se5  1  0.82501  0.65313  0.50000  1
 Se  Se6  1  0.17499  0.34687  0.50000  1
 Se  Se7  1  0.50000  -0.00000  0.66386  1
 Se  Se8  1  -0.00000  0.50000  0.83614  1
