CIF file written using JARVIS-Tools package.
data_CaTi2O5
_symmetry_space_group_name_H-M  'Cmcm'
_cell_length_a       3.78777
_cell_length_b       5.84427
_cell_length_c       11.5033
_cell_angle_alpha    90
_cell_angle_beta     90
_cell_angle_gamma    108.909

_symmetry_Int_Tables_number  63
_chemical_formula_structural  CaTi2O5
_chemical_formula_sum  Ca2Ti4O0
_cell_volume  240.9047570925136
_cell_formula_units_Z  2
loop_
  _symmetry_equiv_pos_site_id
 _symmetry_equiv_pos_as_xyz
 1  'x, y, z'
loop_
 _atom_site_type_symbol
 _atom_site_label
 _atom_site_symmetry_multiplicity
 _atom_site_fract_x
 _atom_site_fract_y
 _atom_site_fract_z
 _atom_site_fract_occupancy
 Ca  Ca1  1  0.90333  0.80666  0.75000  1
 Ca  Ca2  1  0.09667  0.19334  0.25000  1
 O  O1  1  0.71397  0.42794  0.25000  1
 O  O2  1  0.28603  0.57206  0.75000  1
 O  O3  1  0.23841  0.47682  0.07603  1
 O  O4  1  0.76159  0.52319  0.92397  1
 O  O5  1  0.76159  0.52319  0.57603  1
 O  O6  1  0.23841  0.47682  0.42397  1
 O  O7  1  0.05417  0.10834  0.61948  1
 O  O8  1  0.94583  0.89165  0.38052  1
 O  O9  1  0.05417  0.10834  0.88052  1
 O  O10  1  0.94583  0.89165  0.11949  1
 Ti  Ti1  1  0.20553  0.41106  0.59694  1
 Ti  Ti2  1  0.79447  0.58894  0.40306  1
 Ti  Ti3  1  0.79447  0.58894  0.09694  1
 Ti  Ti4  1  0.20553  0.41106  0.90306  1
