CIF file written using JARVIS-Tools package.
data_ZnSn2O5
_symmetry_space_group_name_H-M  'Cmcm'
_cell_length_a       3.96752
_cell_length_b       5.60341
_cell_length_c       10.4104
_cell_angle_alpha    90
_cell_angle_beta     90
_cell_angle_gamma    110.734

_symmetry_Int_Tables_number  63
_chemical_formula_structural  ZnSn2O5
_chemical_formula_sum  Zn2Sn4O0
_cell_volume  216.45063406264958
_cell_formula_units_Z  2
loop_
  _symmetry_equiv_pos_site_id
 _symmetry_equiv_pos_as_xyz
 1  'x, y, z'
loop_
 _atom_site_type_symbol
 _atom_site_label
 _atom_site_symmetry_multiplicity
 _atom_site_fract_x
 _atom_site_fract_y
 _atom_site_fract_z
 _atom_site_fract_occupancy
 O  O1  1  0.77439  0.54879  0.25000  1
 O  O2  1  0.22561  0.45121  0.75000  1
 O  O3  1  0.30667  0.61334  0.06040  1
 O  O4  1  0.69333  0.38666  0.93960  1
 O  O5  1  0.69333  0.38666  0.56040  1
 O  O6  1  0.30667  0.61334  0.43960  1
 O  O7  1  0.94857  0.89713  0.61332  1
 O  O8  1  0.05143  0.10286  0.38668  1
 O  O9  1  0.94857  0.89713  0.88668  1
 O  O10  1  0.05143  0.10286  0.11332  1
 Sn  Sn1  1  0.13615  0.27231  0.56744  1
 Sn  Sn2  1  0.86385  0.72769  0.43256  1
 Sn  Sn3  1  0.86385  0.72769  0.06744  1
 Sn  Sn4  1  0.13615  0.27231  0.93256  1
 Zn  Zn1  1  0.81871  0.63743  0.75000  1
 Zn  Zn2  1  0.18129  0.36257  0.25000  1
