CIF file written using JARVIS-Tools package.
data_Cu3Sn4PbO12
_symmetry_space_group_name_H-M  'Im-3'
_cell_length_a       6.75334
_cell_length_b       6.75336
_cell_length_c       6.75324
_cell_angle_alpha    109.471
_cell_angle_beta     109.471
_cell_angle_gamma    109.472

_symmetry_Int_Tables_number  204
_chemical_formula_structural  Cu3Sn4PbO12
_chemical_formula_sum  Cu3Sn4PbO2
_cell_volume  237.09767810968103
_cell_formula_units_Z  1
loop_
  _symmetry_equiv_pos_site_id
 _symmetry_equiv_pos_as_xyz
 1  'x, y, z'
loop_
 _atom_site_type_symbol
 _atom_site_label
 _atom_site_symmetry_multiplicity
 _atom_site_fract_x
 _atom_site_fract_y
 _atom_site_fract_z
 _atom_site_fract_occupancy
 Cu  Cu1  1  0.00001  0.50002  0.49999  1
 Cu  Cu2  1  0.49997  0.49996  0.00001  1
 Cu  Cu3  1  0.49998  0.00001  0.49998  1
 O  O1  1  0.68779  0.82682  0.51460  1
 O  O2  1  0.86096  0.68776  0.17321  1
 O  O3  1  0.48533  0.31214  0.17319  1
 O  O4  1  0.13898  0.31213  0.82685  1
 O  O5  1  0.31217  0.82684  0.13899  1
 O  O6  1  0.51457  0.68775  0.82681  1
 O  O7  1  0.68778  0.17319  0.86097  1
 O  O8  1  0.17319  0.48537  0.31217  1
 O  O9  1  0.82683  0.13903  0.31219  1
 O  O10  1  0.31217  0.17319  0.48535  1
 O  O11  1  0.82684  0.51464  0.68780  1
 O  O12  1  0.17321  0.86101  0.68781  1
 Pb  Pb1  1  0.00016  0.00012  0.00005  1
 Sn  Sn1  1  0.50004  0.50004  0.50005  1
 Sn  Sn2  1  0.50003  0.99999  0.99999  1
 Sn  Sn3  1  -0.00001  0.99999  0.49998  1
 Sn  Sn4  1  0.99999  0.50002  -0.00001  1
