CIF file written using JARVIS-Tools package.
data_Mn4ZnO9
_symmetry_space_group_name_H-M  'P4/n'
_cell_length_a       4.44176
_cell_length_b       8.37779
_cell_length_c       8.37799
_cell_angle_alpha    89.9992
_cell_angle_beta     89.9952
_cell_angle_gamma    89.9973

_symmetry_Int_Tables_number  85
_chemical_formula_structural  Mn4ZnO9
_chemical_formula_sum  Mn8Zn2O8
_cell_volume  311.7629927194302
_cell_formula_units_Z  2
loop_
  _symmetry_equiv_pos_site_id
 _symmetry_equiv_pos_as_xyz
 1  'x, y, z'
loop_
 _atom_site_type_symbol
 _atom_site_label
 _atom_site_symmetry_multiplicity
 _atom_site_fract_x
 _atom_site_fract_y
 _atom_site_fract_z
 _atom_site_fract_occupancy
 Mn  Mn1  1  0.58002  0.53356  0.34033  1
 Mn  Mn2  1  0.41998  0.84033  0.46644  1
 Mn  Mn3  1  0.58003  0.34033  0.96644  1
 Mn  Mn4  1  0.41996  0.03356  0.84033  1
 Mn  Mn5  1  0.58004  0.96644  0.15967  1
 Mn  Mn6  1  0.58002  0.15967  0.53356  1
 Mn  Mn7  1  0.41998  0.46644  0.65967  1
 Mn  Mn8  1  0.41997  0.65967  0.03356  1
 O  O1  1  0.94690  0.31857  0.01586  1
 O  O2  1  0.05311  0.81857  0.51588  1
 O  O3  1  0.05310  0.98412  0.81857  1
 O  O4  1  0.50000  0.75000  0.25000  1
 O  O5  1  0.05310  0.68143  0.98414  1
 O  O6  1  0.50000  0.25000  0.75000  1
 O  O7  1  0.05310  0.51587  0.68144  1
 O  O8  1  0.55165  0.64266  0.54371  1
 O  O9  1  0.94690  0.01588  0.18143  1
 O  O10  1  0.44835  0.35734  0.45628  1
 O  O11  1  0.44837  0.04372  0.35734  1
 O  O12  1  0.44837  0.14266  0.04372  1
 O  O13  1  0.94690  0.48413  0.31856  1
 O  O14  1  0.44837  0.45628  0.14266  1
 O  O15  1  0.55163  0.54372  0.85733  1
 O  O16  1  0.55164  0.85734  0.95628  1
 O  O17  1  0.94689  0.18143  0.48412  1
 O  O18  1  0.55163  0.95628  0.64266  1
 Zn  Zn1  1  0.03016  0.25001  0.24999  1
 Zn  Zn2  1  0.96984  0.74999  0.75001  1
