CIF file written using JARVIS-Tools package.
data_YCu2O4
_symmetry_space_group_name_H-M  'Fd-3m'
_cell_length_a       6.2214
_cell_length_b       6.2214
_cell_length_c       6.2214
_cell_angle_alpha    60.0006
_cell_angle_beta     60.0006
_cell_angle_gamma    60.0006

_symmetry_Int_Tables_number  227
_chemical_formula_structural  YCu2O4
_chemical_formula_sum  Y2Cu4O8
_cell_volume  170.27637853996856
_cell_formula_units_Z  2
loop_
  _symmetry_equiv_pos_site_id
 _symmetry_equiv_pos_as_xyz
 1  'x, y, z'
loop_
 _atom_site_type_symbol
 _atom_site_label
 _atom_site_symmetry_multiplicity
 _atom_site_fract_x
 _atom_site_fract_y
 _atom_site_fract_z
 _atom_site_fract_occupancy
 Cu  Cu1  1  0.00000  0.50000  -0.00000  1
 Cu  Cu2  1  0.00000  0.00000  0.00000  1
 Cu  Cu3  1  0.50000  0.00000  -0.00000  1
 Cu  Cu4  1  0.00000  -0.00000  0.50000  1
 O  O1  1  0.20392  0.76535  0.76535  1
 O  O2  1  0.23465  0.23465  0.79608  1
 O  O3  1  0.23465  0.79608  0.23465  1
 O  O4  1  0.23466  0.23466  0.23466  1
 O  O5  1  0.76535  0.76535  0.20392  1
 O  O6  1  0.79608  0.23465  0.23465  1
 O  O7  1  0.76535  0.20392  0.76535  1
 O  O8  1  0.76534  0.76534  0.76534  1
 Y  Y1  1  0.62499  0.62499  0.62499  1
 Y  Y2  1  0.37501  0.37501  0.37501  1
