CIF file written using JARVIS-Tools package.
data_CaAg2O4
_symmetry_space_group_name_H-M  'Imma'
_cell_length_a       6.25703
_cell_length_b       6.25704
_cell_length_c       6.99882
_cell_angle_alpha    55.9944
_cell_angle_beta     55.9943
_cell_angle_gamma    67.4207

_symmetry_Int_Tables_number  74
_chemical_formula_structural  CaAg2O4
_chemical_formula_sum  Ca2Ag4O8
_cell_volume  187.288210534361
_cell_formula_units_Z  2
loop_
  _symmetry_equiv_pos_site_id
 _symmetry_equiv_pos_as_xyz
 1  'x, y, z'
loop_
 _atom_site_type_symbol
 _atom_site_label
 _atom_site_symmetry_multiplicity
 _atom_site_fract_x
 _atom_site_fract_y
 _atom_site_fract_z
 _atom_site_fract_occupancy
 Ag  Ag1  1  -0.04906  -0.04906  0.04906  1
 Ag  Ag2  1  0.29906  0.29906  0.20094  1
 Ag  Ag3  1  0.62500  0.62500  0.12500  1
 Ag  Ag4  1  0.62500  0.62500  0.62500  1
 Ca  Ca1  1  0.12500  0.62500  0.62500  1
 Ca  Ca2  1  0.62500  0.12500  0.62500  1
 O  O1  1  0.35703  0.35703  0.42836  1
 O  O2  1  0.47106  0.87776  0.32559  1
 O  O3  1  0.35703  0.35703  0.85758  1
 O  O4  1  0.87776  0.47106  0.32559  1
 O  O5  1  0.37224  0.77894  0.92441  1
 O  O6  1  0.77894  0.37224  0.92441  1
 O  O7  1  0.89297  0.89297  0.39242  1
 O  O8  1  0.89297  0.89297  0.82164  1
