CIF file written using JARVIS-Tools package.
data_BiF4
_symmetry_space_group_name_H-M  'C2'
_cell_length_a       5.35923
_cell_length_b       5.35898
_cell_length_c       5.13466
_cell_angle_alpha    106.85
_cell_angle_beta     106.801
_cell_angle_gamma    89.944

_symmetry_Int_Tables_number  5
_chemical_formula_structural  BiF4
_chemical_formula_sum  Bi2F8
_cell_volume  134.5588644325625
_cell_formula_units_Z  2
loop_
  _symmetry_equiv_pos_site_id
 _symmetry_equiv_pos_as_xyz
 1  'x, y, z'
loop_
 _atom_site_type_symbol
 _atom_site_label
 _atom_site_symmetry_multiplicity
 _atom_site_fract_x
 _atom_site_fract_y
 _atom_site_fract_z
 _atom_site_fract_occupancy
 Bi  Bi1  1  -0.00080  0.50126  0.00127  1
 Bi  Bi2  1  0.49827  0.00217  0.00121  1
 F  F1  1  0.77056  0.73765  0.76191  1
 F  F2  1  0.76258  0.73018  0.24057  1
 F  F3  1  0.36808  0.40484  0.24337  1
 F  F4  1  0.23757  0.86905  0.25657  1
 F  F5  1  0.09576  0.13216  0.75915  1
 F  F6  1  0.23458  0.60123  0.75962  1
 F  F7  1  0.63160  0.26269  0.74591  1
 F  F8  1  0.89896  0.26614  0.24295  1
