CIF file written using JARVIS-Tools package.
data_KNaSO4
_symmetry_space_group_name_H-M  'P-3m1'
_cell_length_a       5.59143
_cell_length_b       5.59143
_cell_length_c       7.15209
_cell_angle_alpha    90
_cell_angle_beta     90
_cell_angle_gamma    120

_symmetry_Int_Tables_number  164
_chemical_formula_structural  KNaSO4
_chemical_formula_sum  K2Na2S2O8
_cell_volume  193.64652147897596
_cell_formula_units_Z  2
loop_
  _symmetry_equiv_pos_site_id
 _symmetry_equiv_pos_as_xyz
 1  'x, y, z'
loop_
 _atom_site_type_symbol
 _atom_site_label
 _atom_site_symmetry_multiplicity
 _atom_site_fract_x
 _atom_site_fract_y
 _atom_site_fract_z
 _atom_site_fract_occupancy
 K  K1  1  0.33333  0.66667  0.66049  1
 K  K2  1  0.66667  0.33333  0.33951  1
 Na  Na1  1  0.00000  0.00000  0.50000  1
 Na  Na2  1  0.00000  0.00000  0.00000  1
 O  O1  1  0.81142  0.62284  0.71068  1
 O  O2  1  0.62284  0.81142  0.28932  1
 O  O3  1  0.18858  0.37716  0.28932  1
 O  O4  1  0.37716  0.18858  0.71068  1
 O  O5  1  0.66667  0.33333  0.98864  1
 O  O6  1  0.81142  0.18858  0.71068  1
 O  O7  1  0.18858  0.81142  0.28932  1
 O  O8  1  0.33333  0.66667  0.01136  1
 S  S1  1  0.33333  0.66667  0.21513  1
 S  S2  1  0.66667  0.33333  0.78487  1
