CIF file written using JARVIS-Tools package.
data_Tb3SiBr3
_symmetry_space_group_name_H-M  'I4_132'
_cell_length_a       10.0057
_cell_length_b       10.0057
_cell_length_c       10.0057
_cell_angle_alpha    109.471
_cell_angle_beta     109.471
_cell_angle_gamma    109.471

_symmetry_Int_Tables_number  214
_chemical_formula_structural  Tb3SiBr3
_chemical_formula_sum  Tb2Si4Br2
_cell_volume  771.1086527462946
_cell_formula_units_Z  4
loop_
  _symmetry_equiv_pos_site_id
 _symmetry_equiv_pos_as_xyz
 1  'x, y, z'
loop_
 _atom_site_type_symbol
 _atom_site_label
 _atom_site_symmetry_multiplicity
 _atom_site_fract_x
 _atom_site_fract_y
 _atom_site_fract_z
 _atom_site_fract_occupancy
 Br  Br1  1  0.99276  0.98553  0.74276  1
 Br  Br2  1  0.25000  0.75724  0.74276  1
 Br  Br3  1  0.99276  0.50724  0.25000  1
 Br  Br4  1  0.50724  0.25000  0.99276  1
 Br  Br5  1  0.75724  0.51447  0.50724  1
 Br  Br6  1  0.74276  0.99276  0.98553  1
 Br  Br7  1  0.98553  0.74276  0.99276  1
 Br  Br8  1  0.51447  0.50724  0.75724  1
 Br  Br9  1  0.75724  0.74276  0.25000  1
 Br  Br10  1  0.74276  0.25000  0.75724  1
 Br  Br11  1  0.50724  0.75724  0.51447  1
 Br  Br12  1  0.25000  0.99276  0.50724  1
 Si  Si1  1  -0.00000  0.25000  0.50000  1
 Si  Si2  1  0.25000  0.50000  -0.00000  1
 Si  Si3  1  0.25000  0.25000  0.25000  1
 Si  Si4  1  0.50000  0.00000  0.25000  1
 Tb  Tb1  1  0.48920  0.75000  0.01080  1
 Tb  Tb2  1  0.02160  0.26080  0.01080  1
 Tb  Tb3  1  0.01080  0.02160  0.26080  1
 Tb  Tb4  1  0.01080  0.48920  0.75000  1
 Tb  Tb5  1  0.26080  0.75000  0.23920  1
 Tb  Tb6  1  0.26080  0.01080  0.02160  1
 Tb  Tb7  1  0.75000  0.01080  0.48920  1
 Tb  Tb8  1  0.75000  0.23920  0.26080  1
 Tb  Tb9  1  0.23920  0.26080  0.75000  1
 Tb  Tb10  1  0.48920  0.23920  0.47840  1
 Tb  Tb11  1  0.23920  0.47840  0.48920  1
 Tb  Tb12  1  0.47840  0.48920  0.23920  1
