CIF file written using JARVIS-Tools package.
data_MgUO4
_symmetry_space_group_name_H-M  'Imma'
_cell_length_a       5.8102
_cell_length_b       5.8102
_cell_length_c       5.8102
_cell_angle_alpha    106.858
_cell_angle_beta     110.601
_cell_angle_gamma    110.986

_symmetry_Int_Tables_number  74
_chemical_formula_structural  MgUO4
_chemical_formula_sum  Mg2U2O8
_cell_volume  150.75498996724806
_cell_formula_units_Z  2
loop_
  _symmetry_equiv_pos_site_id
 _symmetry_equiv_pos_as_xyz
 1  'x, y, z'
loop_
 _atom_site_type_symbol
 _atom_site_label
 _atom_site_symmetry_multiplicity
 _atom_site_fract_x
 _atom_site_fract_y
 _atom_site_fract_z
 _atom_site_fract_occupancy
 Mg  Mg1  1  0.50000  -0.00000  0.50000  1
 Mg  Mg2  1  0.50000  0.50000  0.00000  1
 O  O1  1  0.80783  0.47514  0.28297  1
 O  O2  1  0.19217  0.52486  0.71703  1
 O  O3  1  0.80783  0.02486  0.83270  1
 O  O4  1  0.19217  0.97514  0.16730  1
 O  O5  1  0.73162  0.94874  0.28288  1
 O  O6  1  0.66586  0.44874  0.71712  1
 O  O7  1  0.33414  0.55126  0.28288  1
 O  O8  1  0.26838  0.05126  0.71712  1
 U  U1  1  0.03462  0.25000  0.28462  1
 U  U2  1  0.96538  0.75000  0.71538  1
