CIF file written using JARVIS-Tools package.
data_Mg2CrN2
_symmetry_space_group_name_H-M  'C2/m'
_cell_length_a       4.42518
_cell_length_b       5.41948
_cell_length_c       6.25808
_cell_angle_alpha    61.6855
_cell_angle_beta     69.295
_cell_angle_gamma    65.904

_symmetry_Int_Tables_number  12
_chemical_formula_structural  Mg2CrN2
_chemical_formula_sum  Mg4Cr2N4
_cell_volume  118.2010396713104
_cell_formula_units_Z  2
loop_
  _symmetry_equiv_pos_site_id
 _symmetry_equiv_pos_as_xyz
 1  'x, y, z'
loop_
 _atom_site_type_symbol
 _atom_site_label
 _atom_site_symmetry_multiplicity
 _atom_site_fract_x
 _atom_site_fract_y
 _atom_site_fract_z
 _atom_site_fract_occupancy
 Cr  Cr1  1  0.36109  0.15116  0.12666  1
 Cr  Cr2  1  0.63891  0.84884  0.87334  1
 Mg  Mg1  1  0.67476  0.25855  0.39193  1
 Mg  Mg2  1  0.32524  0.74145  0.60807  1
 Mg  Mg3  1  0.02104  0.71448  0.24344  1
 Mg  Mg4  1  0.97896  0.28552  0.75656  1
 N  N1  1  0.17892  0.25097  0.39120  1
 N  N2  1  0.82108  0.74903  0.60880  1
 N  N3  1  0.48704  0.24956  0.77636  1
 N  N4  1  0.51296  0.75044  0.22364  1
