CIF file written using JARVIS-Tools package.
data_Ca3Al7Cu2
_symmetry_space_group_name_H-M  'R-3m'
_cell_length_a       9.18467
_cell_length_b       9.18467
_cell_length_c       9.18467
_cell_angle_alpha    35.4611
_cell_angle_beta     35.4611
_cell_angle_gamma    35.4611

_symmetry_Int_Tables_number  166
_chemical_formula_structural  Ca3Al7Cu2
_chemical_formula_sum  Ca3Al7Cu2
_cell_volume  233.0285813716378
_cell_formula_units_Z  1
loop_
  _symmetry_equiv_pos_site_id
 _symmetry_equiv_pos_as_xyz
 1  'x, y, z'
loop_
 _atom_site_type_symbol
 _atom_site_label
 _atom_site_symmetry_multiplicity
 _atom_site_fract_x
 _atom_site_fract_y
 _atom_site_fract_z
 _atom_site_fract_occupancy
 Al  Al1  1  0.50000  0.50000  0.50000  1
 Al  Al2  1  0.57961  0.07232  0.57961  1
 Al  Al3  1  0.57961  0.57961  0.07232  1
 Al  Al4  1  0.07232  0.57961  0.57961  1
 Al  Al5  1  0.92768  0.42039  0.42039  1
 Al  Al6  1  0.42039  0.92768  0.42039  1
 Al  Al7  1  0.42039  0.42039  0.92768  1
 Ca  Ca1  1  0.00000  0.00000  0.00000  1
 Ca  Ca2  1  0.14276  0.14276  0.14276  1
 Ca  Ca3  1  0.85724  0.85724  0.85724  1
 Cu  Cu1  1  0.33527  0.33527  0.33527  1
 Cu  Cu2  1  0.66473  0.66473  0.66473  1
