CIF file written using JARVIS-Tools package.
data_SbO2
_symmetry_space_group_name_H-M  'Imma'
_cell_length_a       6.23685
_cell_length_b       6.74852
_cell_length_c       6.74849
_cell_angle_alpha    63.3588
_cell_angle_beta     62.4782
_cell_angle_gamma    62.4791

_symmetry_Int_Tables_number  74
_chemical_formula_structural  SbO2
_chemical_formula_sum  Sb4O8
_cell_volume  213.1976638048806
_cell_formula_units_Z  4
loop_
  _symmetry_equiv_pos_site_id
 _symmetry_equiv_pos_as_xyz
 1  'x, y, z'
loop_
 _atom_site_type_symbol
 _atom_site_label
 _atom_site_symmetry_multiplicity
 _atom_site_fract_x
 _atom_site_fract_y
 _atom_site_fract_z
 _atom_site_fract_occupancy
 O  O1  1  0.69005  0.29422  0.79424  1
 O  O2  1  0.25592  0.30182  0.18635  1
 O  O3  1  0.30995  0.70578  0.20576  1
 O  O4  1  0.77852  0.70578  0.20576  1
 O  O5  1  0.74408  0.69818  0.81365  1
 O  O6  1  0.74407  0.31367  0.19820  1
 O  O7  1  0.25593  0.68633  0.80180  1
 O  O8  1  0.22148  0.29422  0.79424  1
 Sb  Sb1  1  0.50000  0.50000  0.50000  1
 Sb  Sb2  1  0.50000  0.50000  0.00000  1
 Sb  Sb3  1  0.50000  -0.00000  -0.00000  1
 Sb  Sb4  1  -0.00000  0.50000  0.00000  1
