data_image0
_chemical_formula_structural       Ga2Na2Te4
_chemical_formula_sum              "Ga2 Na2 Te4"
_cell_length_a       6.76784
_cell_length_b       6.76784
_cell_length_c       6.76784
_cell_angle_alpha    119.201
_cell_angle_beta     104.836
_cell_angle_gamma    104.836

_space_group_name_H-M_alt    "P 1"
_space_group_IT_number       1

loop_
  _space_group_symop_operation_xyz
  'x, y, z'

loop_
  _atom_site_type_symbol
  _atom_site_label
  _atom_site_symmetry_multiplicity
  _atom_site_fract_x
  _atom_site_fract_y
  _atom_site_fract_z
  _atom_site_occupancy
  Ga  Ga1       1.0  0.50000  0.75000  0.25000  1.0000
  Ga  Ga2       1.0  0.50000  0.25000  0.75000  1.0000
  Na  Na1       1.0  0.00000  0.25000  0.25000  1.0000
  Na  Na2       1.0  0.00000  0.75000  0.75000  1.0000
  Te  Te1       1.0  0.50000  0.32400  0.17600  1.0000
  Te  Te2       1.0  0.14800  0.82400  0.32400  1.0000
  Te  Te3       1.0  0.85200  0.17600  0.67600  1.0000
  Te  Te4       1.0  0.50000  0.67600  0.82400  1.0000
