CIF file written using JARVIS-Tools package.
data_CaV4O8
_symmetry_space_group_name_H-M  'Cm'
_cell_length_a       2.97215
_cell_length_b       6.74518
_cell_length_c       7.30953
_cell_angle_alpha    87.9755
_cell_angle_beta     78.2697
_cell_angle_gamma    77.2698

_symmetry_Int_Tables_number  8
_chemical_formula_structural  CaV4O8
_chemical_formula_sum  CaV4O8
_cell_volume  139.94480724494898
_cell_formula_units_Z  1
loop_
  _symmetry_equiv_pos_site_id
 _symmetry_equiv_pos_as_xyz
 1  'x, y, z'
loop_
 _atom_site_type_symbol
 _atom_site_label
 _atom_site_symmetry_multiplicity
 _atom_site_fract_x
 _atom_site_fract_y
 _atom_site_fract_z
 _atom_site_fract_occupancy
 Ca  Ca1  1  0.43945  0.05491  0.06604  1
 O  O1  1  0.81512  0.65396  0.71567  1
 O  O2  1  0.44888  0.72375  0.37835  1
 O  O3  1  0.52735  0.34041  0.60474  1
 O  O4  1  0.16563  0.40152  0.26711  1
 O  O5  1  0.11909  0.72159  0.04007  1
 O  O6  1  0.80168  0.06951  0.32703  1
 O  O7  1  0.85247  0.34085  0.95409  1
 O  O8  1  0.18457  0.99312  0.63757  1
 V  V1  1  0.63831  0.55875  0.16450  1
 V  V2  1  0.15010  0.22640  0.47330  1
 V  V3  1  0.81893  0.83910  0.52291  1
 V  V4  1  0.33420  0.50677  0.82471  1
