CIF file written using JARVIS-Tools package.
data_Ti2ZnO5
_symmetry_space_group_name_H-M  'Pmmn'
_cell_length_a       3.3292
_cell_length_b       4.81729
_cell_length_c       12.3967
_cell_angle_alpha    90
_cell_angle_beta     90
_cell_angle_gamma    90

_symmetry_Int_Tables_number  59
_chemical_formula_structural  Ti2ZnO5
_chemical_formula_sum  Ti4Zn2O0
_cell_volume  198.81488848656542
_cell_formula_units_Z  2
loop_
  _symmetry_equiv_pos_site_id
 _symmetry_equiv_pos_as_xyz
 1  'x, y, z'
loop_
 _atom_site_type_symbol
 _atom_site_label
 _atom_site_symmetry_multiplicity
 _atom_site_fract_x
 _atom_site_fract_y
 _atom_site_fract_z
 _atom_site_fract_occupancy
 O  O1  1  0.50000  0.61052  0.00000  1
 O  O2  1  0.00000  0.38948  0.50000  1
 O  O3  1  0.50000  0.39972  0.31584  1
 O  O4  1  0.00000  0.60028  0.18416  1
 O  O5  1  0.50000  0.39972  0.68416  1
 O  O6  1  0.00000  0.60028  0.81584  1
 O  O7  1  0.00000  0.89985  0.60476  1
 O  O8  1  0.50000  0.10015  0.89524  1
 O  O9  1  0.50000  0.10015  0.10476  1
 O  O10  1  0.00000  0.89985  0.39524  1
 Ti  Ti1  1  0.00000  0.54702  0.35704  1
 Ti  Ti2  1  0.50000  0.45298  0.14296  1
 Ti  Ti3  1  0.50000  0.45298  0.85704  1
 Ti  Ti4  1  0.00000  0.54702  0.64296  1
 Zn  Zn1  1  0.50000  0.04562  0.50000  1
 Zn  Zn2  1  0.00000  0.95438  0.00000  1
