CIF file written using JARVIS-Tools package.
data_Ca3ScCoO6
_symmetry_space_group_name_H-M  'R-3c'
_cell_length_a       6.36071
_cell_length_b       6.36072
_cell_length_c       6.36072
_cell_angle_alpha    92.3525
_cell_angle_beta     92.3526
_cell_angle_gamma    92.3525

_symmetry_Int_Tables_number  167
_chemical_formula_structural  Ca3ScCoO6
_chemical_formula_sum  Ca6Sc2Co2O2
_cell_volume  256.67705080923963
_cell_formula_units_Z  2
loop_
  _symmetry_equiv_pos_site_id
 _symmetry_equiv_pos_as_xyz
 1  'x, y, z'
loop_
 _atom_site_type_symbol
 _atom_site_label
 _atom_site_symmetry_multiplicity
 _atom_site_fract_x
 _atom_site_fract_y
 _atom_site_fract_z
 _atom_site_fract_occupancy
 Ca  Ca1  1  0.75000  0.38041  0.11959  1
 Ca  Ca2  1  0.11959  0.75000  0.38041  1
 Ca  Ca3  1  0.38041  0.11959  0.75000  1
 Ca  Ca4  1  0.61959  0.88041  0.25000  1
 Ca  Ca5  1  0.88041  0.25000  0.61959  1
 Ca  Ca6  1  0.25000  0.61959  0.88041  1
 Co  Co1  1  0.50000  0.50000  0.50000  1
 Co  Co2  1  0.00000  0.00000  0.00000  1
 O  O1  1  0.08806  0.29125  0.95685  1
 O  O2  1  0.04315  0.91194  0.70875  1
 O  O3  1  0.91194  0.70875  0.04315  1
 O  O4  1  0.29125  0.95685  0.08806  1
 O  O5  1  0.95685  0.08806  0.29125  1
 O  O6  1  0.70875  0.04315  0.91194  1
 O  O7  1  0.45685  0.79125  0.58806  1
 O  O8  1  0.20875  0.41194  0.54315  1
 O  O9  1  0.41194  0.54315  0.20875  1
 O  O10  1  0.54315  0.20875  0.41194  1
 O  O11  1  0.58806  0.45685  0.79125  1
 O  O12  1  0.79125  0.58806  0.45685  1
 Sc  Sc1  1  0.75000  0.75000  0.75000  1
 Sc  Sc2  1  0.25000  0.25000  0.25000  1
