CIF file written using JARVIS-Tools package.
data_CaFe2O4
_symmetry_space_group_name_H-M  'Cmcm'
_cell_length_a       3.08206
_cell_length_b       5.08912
_cell_length_c       9.76565
_cell_angle_alpha    90
_cell_angle_beta     90
_cell_angle_gamma    107.626

_symmetry_Int_Tables_number  63
_chemical_formula_structural  CaFe2O4
_chemical_formula_sum  Ca2Fe4O8
_cell_volume  145.98262895039775
_cell_formula_units_Z  2
loop_
  _symmetry_equiv_pos_site_id
 _symmetry_equiv_pos_as_xyz
 1  'x, y, z'
loop_
 _atom_site_type_symbol
 _atom_site_label
 _atom_site_symmetry_multiplicity
 _atom_site_fract_x
 _atom_site_fract_y
 _atom_site_fract_z
 _atom_site_fract_occupancy
 Ca  Ca1  1  0.38724  0.77448  0.75000  1
 Ca  Ca2  1  0.61276  0.22552  0.25000  1
 Fe  Fe1  1  0.87050  0.74101  0.06619  1
 Fe  Fe2  1  0.12950  0.25899  0.93381  1
 Fe  Fe3  1  0.87050  0.74101  0.43381  1
 Fe  Fe4  1  0.12950  0.25899  0.56619  1
 O  O1  1  0.22783  0.45566  0.39459  1
 O  O2  1  0.77217  0.54434  0.60541  1
 O  O3  1  0.77217  0.54434  0.89459  1
 O  O4  1  0.22783  0.45566  0.10541  1
 O  O5  1  0.93135  0.86271  0.25000  1
 O  O6  1  0.06865  0.13729  0.75000  1
 O  O7  1  0.50000  0.00000  0.00000  1
 O  O8  1  0.50000  0.00000  0.50000  1
