CIF file written using JARVIS-Tools package.
data_AsCl3
_symmetry_space_group_name_H-M  'P2_12_12_1'
_cell_length_a       4.0868
_cell_length_b       9.46237
_cell_length_c       11.4004
_cell_angle_alpha    90
_cell_angle_beta     90
_cell_angle_gamma    90

_symmetry_Int_Tables_number  19
_chemical_formula_structural  AsCl3
_chemical_formula_sum  As4Cl2
_cell_volume  440.86460010756446
_cell_formula_units_Z  4
loop_
  _symmetry_equiv_pos_site_id
 _symmetry_equiv_pos_as_xyz
 1  'x, y, z'
loop_
 _atom_site_type_symbol
 _atom_site_label
 _atom_site_symmetry_multiplicity
 _atom_site_fract_x
 _atom_site_fract_y
 _atom_site_fract_z
 _atom_site_fract_occupancy
 As  As1  1  -0.00517  0.69804  0.78770  1
 As  As2  1  0.49483  0.80196  0.21230  1
 As  As3  1  0.00517  0.19804  0.71230  1
 As  As4  1  0.50517  0.30196  0.28770  1
 Cl  Cl1  1  0.25470  0.51513  0.86776  1
 Cl  Cl2  1  0.75470  0.98487  0.13224  1
 Cl  Cl3  1  0.74530  0.01513  0.63224  1
 Cl  Cl4  1  0.24530  0.48487  0.36776  1
 Cl  Cl5  1  0.22678  0.29729  0.12006  1
 Cl  Cl6  1  0.72678  0.20271  0.87994  1
 Cl  Cl7  1  0.77322  0.79729  0.37994  1
 Cl  Cl8  1  0.27322  0.70271  0.62006  1
 Cl  Cl9  1  0.23241  0.13275  0.38331  1
 Cl  Cl10  1  0.73241  0.36725  0.61669  1
 Cl  Cl11  1  0.76759  0.63275  0.11669  1
 Cl  Cl12  1  0.26759  0.86725  0.88331  1
