CIF file written using JARVIS-Tools package.
data_CaGaGeH
_symmetry_space_group_name_H-M  'P3m1'
_cell_length_a       4.13555
_cell_length_b       4.13555
_cell_length_c       4.77181
_cell_angle_alpha    90
_cell_angle_beta     90
_cell_angle_gamma    120

_symmetry_Int_Tables_number  156
_chemical_formula_structural  CaGaGeH
_chemical_formula_sum  CaGaGeH
_cell_volume  70.67717794568756
_cell_formula_units_Z  1
loop_
  _symmetry_equiv_pos_site_id
 _symmetry_equiv_pos_as_xyz
 1  'x, y, z'
loop_
 _atom_site_type_symbol
 _atom_site_label
 _atom_site_symmetry_multiplicity
 _atom_site_fract_x
 _atom_site_fract_y
 _atom_site_fract_z
 _atom_site_fract_occupancy
 Ca  Ca1  1  0.00000  0.00000  -0.00108  1
 Ga  Ga1  1  0.66667  0.33333  0.56537  1
 Ge  Ge1  1  0.33333  0.66667  0.42238  1
 H  H1  1  0.66667  0.33333  0.93213  1
