CIF file written using JARVIS-Tools package.
data_Zn2CuAs2O8
_symmetry_space_group_name_H-M  'P-1'
_cell_length_a       5.14376
_cell_length_b       5.35575
_cell_length_c       6.76374
_cell_angle_alpha    110.797
_cell_angle_beta     86.3998
_cell_angle_gamma    112.064

_symmetry_Int_Tables_number  2
_chemical_formula_structural  Zn2CuAs2O8
_chemical_formula_sum  Zn2CuAs2O8
_cell_volume  160.8983732903956
_cell_formula_units_Z  1
loop_
  _symmetry_equiv_pos_site_id
 _symmetry_equiv_pos_as_xyz
 1  'x, y, z'
loop_
 _atom_site_type_symbol
 _atom_site_label
 _atom_site_symmetry_multiplicity
 _atom_site_fract_x
 _atom_site_fract_y
 _atom_site_fract_z
 _atom_site_fract_occupancy
 As  As1  1  0.13424  0.86061  0.72501  1
 As  As2  1  0.86576  0.13939  0.27499  1
 Cu  Cu1  1  0.50000  0.50000  0.50000  1
 O  O1  1  0.73183  0.29409  0.50962  1
 O  O2  1  0.26817  0.70591  0.49038  1
 O  O3  1  0.63428  0.79765  0.14764  1
 O  O4  1  0.36572  0.20235  0.85236  1
 O  O5  1  0.90959  0.34813  0.12194  1
 O  O6  1  0.81397  0.87337  0.66673  1
 O  O7  1  0.18603  0.12663  0.33327  1
 O  O8  1  0.09041  0.65187  0.87806  1
 Zn  Zn1  1  0.76638  0.26574  0.81588  1
 Zn  Zn2  1  0.23362  0.73426  0.18412  1
