CIF file written using JARVIS-Tools package.
data_TiZnF5
_symmetry_space_group_name_H-M  'C2/c'
_cell_length_a       5.32652
_cell_length_b       5.32651
_cell_length_c       7.52243
_cell_angle_alpha    98.0288
_cell_angle_beta     110.919
_cell_angle_gamma    107.367

_symmetry_Int_Tables_number  15
_chemical_formula_structural  TiZnF5
_chemical_formula_sum  Ti2Zn2F0
_cell_volume  182.8654893330595
_cell_formula_units_Z  2
loop_
  _symmetry_equiv_pos_site_id
 _symmetry_equiv_pos_as_xyz
 1  'x, y, z'
loop_
 _atom_site_type_symbol
 _atom_site_label
 _atom_site_symmetry_multiplicity
 _atom_site_fract_x
 _atom_site_fract_y
 _atom_site_fract_z
 _atom_site_fract_occupancy
 F  F1  1  0.37558  0.12558  0.25000  1
 F  F2  1  0.62442  0.87442  0.75000  1
 F  F3  1  0.55923  0.70768  0.36129  1
 F  F4  1  0.84639  0.19794  0.13871  1
 F  F5  1  0.76642  0.66382  0.04137  1
 F  F6  1  0.12245  0.72505  0.45863  1
 F  F7  1  0.23358  0.33618  0.95863  1
 F  F8  1  0.87755  0.27495  0.54137  1
 F  F9  1  0.15361  0.80206  0.86129  1
 F  F10  1  0.44077  0.29232  0.63871  1
 Ti  Ti1  1  0.00000  0.00000  0.00000  1
 Ti  Ti2  1  0.50000  -0.00000  0.50000  1
 Zn  Zn1  1  0.27568  0.52568  0.75000  1
 Zn  Zn2  1  0.72432  0.47432  0.25000  1
