CIF file written using JARVIS-Tools package.
data_MgCr2S4
_symmetry_space_group_name_H-M  'Fd-3m'
_cell_length_a       7.19652
_cell_length_b       7.19651
_cell_length_c       7.19663
_cell_angle_alpha    60.0006
_cell_angle_beta     59.9995
_cell_angle_gamma    60.0008

_symmetry_Int_Tables_number  227
_chemical_formula_structural  MgCr2S4
_chemical_formula_sum  Mg2Cr4S8
_cell_volume  263.54898601437264
_cell_formula_units_Z  2
loop_
  _symmetry_equiv_pos_site_id
 _symmetry_equiv_pos_as_xyz
 1  'x, y, z'
loop_
 _atom_site_type_symbol
 _atom_site_label
 _atom_site_symmetry_multiplicity
 _atom_site_fract_x
 _atom_site_fract_y
 _atom_site_fract_z
 _atom_site_fract_occupancy
 Cr  Cr1  1  0.50000  0.50001  0.49998  1
 Cr  Cr2  1  0.50000  0.49999  1.00000  1
 Cr  Cr3  1  1.00000  0.49999  0.50001  1
 Cr  Cr4  1  0.50000  1.00000  0.50001  1
 Mg  Mg1  1  0.87499  0.87500  0.87501  1
 Mg  Mg2  1  0.12501  0.12500  0.12499  1
 S  S1  1  0.73721  0.73721  0.73720  1
 S  S2  1  0.26279  0.26280  0.71162  1
 S  S3  1  0.26279  0.71162  0.26280  1
 S  S4  1  0.71162  0.26279  0.26279  1
 S  S5  1  0.73720  0.28838  0.73719  1
 S  S6  1  0.28838  0.73720  0.73721  1
 S  S7  1  0.26279  0.26278  0.26281  1
 S  S8  1  0.73723  0.73721  0.28838  1
