CIF file written using JARVIS-Tools package.
data_NaTl3S2O6
_symmetry_space_group_name_H-M  'P-3m1'
_cell_length_a       5.92136
_cell_length_b       5.92136
_cell_length_c       7.03266
_cell_angle_alpha    90
_cell_angle_beta     90
_cell_angle_gamma    120

_symmetry_Int_Tables_number  164
_chemical_formula_structural  NaTl3S2O6
_chemical_formula_sum  NaTl3S2O6
_cell_volume  213.54717293206346
_cell_formula_units_Z  1
loop_
  _symmetry_equiv_pos_site_id
 _symmetry_equiv_pos_as_xyz
 1  'x, y, z'
loop_
 _atom_site_type_symbol
 _atom_site_label
 _atom_site_symmetry_multiplicity
 _atom_site_fract_x
 _atom_site_fract_y
 _atom_site_fract_z
 _atom_site_fract_occupancy
 Na  Na1  1  0.00000  0.00000  0.50000  1
 O  O1  1  0.39121  0.19560  0.29892  1
 O  O2  1  0.80440  0.60879  0.29892  1
 O  O3  1  0.80440  0.19560  0.29892  1
 O  O4  1  0.19560  0.39121  0.70108  1
 O  O5  1  0.60879  0.80440  0.70108  1
 O  O6  1  0.19560  0.80440  0.70108  1
 S  S1  1  0.33333  0.66667  0.78940  1
 S  S2  1  0.66667  0.33333  0.21060  1
 Tl  Tl1  1  0.66667  0.33333  0.68438  1
 Tl  Tl2  1  0.33333  0.66667  0.31562  1
 Tl  Tl3  1  0.00000  0.00000  0.00000  1
