CIF file written using JARVIS-Tools package.
data_BaUSi2O8
_symmetry_space_group_name_H-M  'Cmcm'
_cell_length_a       5.71511
_cell_length_b       7.69055
_cell_length_c       8.74601
_cell_angle_alpha    90
_cell_angle_beta     109.07
_cell_angle_gamma    90

_symmetry_Int_Tables_number  63
_chemical_formula_structural  BaUSi2O8
_chemical_formula_sum  Ba2U2Si4O6
_cell_volume  363.3107961622038
_cell_formula_units_Z  2
loop_
  _symmetry_equiv_pos_site_id
 _symmetry_equiv_pos_as_xyz
 1  'x, y, z'
loop_
 _atom_site_type_symbol
 _atom_site_label
 _atom_site_symmetry_multiplicity
 _atom_site_fract_x
 _atom_site_fract_y
 _atom_site_fract_z
 _atom_site_fract_occupancy
 Ba  Ba1  1  0.78949  0.25000  0.57897  1
 Ba  Ba2  1  0.21051  0.75000  0.42103  1
 O  O1  1  0.87232  0.46148  0.28156  1
 O  O2  1  0.99027  0.75000  0.98054  1
 O  O3  1  0.12768  0.96148  0.71844  1
 O  O4  1  0.50000  0.00000  0.00000  1
 O  O5  1  0.40925  0.03852  0.28156  1
 O  O6  1  0.87232  0.03852  0.28156  1
 O  O7  1  0.00973  0.25000  0.01946  1
 O  O8  1  0.40925  0.46148  0.28156  1
 O  O9  1  0.59075  0.53852  0.71844  1
 O  O10  1  0.23467  0.25000  0.46934  1
 O  O11  1  0.39326  0.25000  0.78652  1
 O  O12  1  0.50000  0.50000  0.00000  1
 O  O13  1  0.12768  0.53852  0.71844  1
 O  O14  1  0.76533  0.75000  0.53066  1
 O  O15  1  0.59075  0.96148  0.71844  1
 O  O16  1  0.60674  0.75000  0.21348  1
 Si  Si1  1  0.40420  0.45961  0.80839  1
 Si  Si2  1  0.59580  0.54039  0.19161  1
 Si  Si3  1  0.40420  0.04039  0.80839  1
 Si  Si4  1  0.59580  0.95961  0.19161  1
 U  U1  1  0.87840  0.75000  0.75680  1
 U  U2  1  0.12160  0.25000  0.24320  1
