CIF file written using JARVIS-Tools package.
data_KLiCO3
_symmetry_space_group_name_H-M  'P2_1/c'
_cell_length_a       6.46997
_cell_length_b       7.06693
_cell_length_c       7.50664
_cell_angle_alpha    90
_cell_angle_beta     118.067
_cell_angle_gamma    90

_symmetry_Int_Tables_number  14
_chemical_formula_structural  KLiCO3
_chemical_formula_sum  K4Li4C4O2
_cell_volume  302.8614986341938
_cell_formula_units_Z  4
loop_
  _symmetry_equiv_pos_site_id
 _symmetry_equiv_pos_as_xyz
 1  'x, y, z'
loop_
 _atom_site_type_symbol
 _atom_site_label
 _atom_site_symmetry_multiplicity
 _atom_site_fract_x
 _atom_site_fract_y
 _atom_site_fract_z
 _atom_site_fract_occupancy
 C  C1  1  0.70968  0.66595  0.91729  1
 C  C2  1  0.29032  0.33405  0.08271  1
 C  C3  1  0.29032  0.16595  0.58271  1
 C  C4  1  0.70968  0.83405  0.41729  1
 K  K1  1  0.17668  0.64417  0.34016  1
 K  K2  1  0.17668  0.85583  0.84016  1
 K  K3  1  0.82332  0.35583  0.65984  1
 K  K4  1  0.82332  0.14417  0.15984  1
 Li  Li1  1  0.60283  0.56789  0.20517  1
 Li  Li2  1  0.60283  0.93211  0.70517  1
 Li  Li3  1  0.39717  0.06789  0.29483  1
 Li  Li4  1  0.39717  0.43211  0.79483  1
 O  O1  1  0.74684  0.52008  0.03367  1
 O  O2  1  0.25316  0.02008  0.46633  1
 O  O3  1  0.15617  0.18783  0.02888  1
 O  O4  1  0.15617  0.31217  0.52888  1
 O  O5  1  0.52454  0.83610  0.23755  1
 O  O6  1  0.52454  0.66390  0.73755  1
 O  O7  1  0.25316  0.47992  0.96633  1
 O  O8  1  0.47546  0.33610  0.26245  1
 O  O9  1  0.74684  0.97992  0.53367  1
 O  O10  1  0.84383  0.81217  0.97112  1
 O  O11  1  0.47546  0.16390  0.76245  1
 O  O12  1  0.84383  0.68783  0.47112  1
