CIF file written using JARVIS-Tools package.
data_CaCr2O4
_symmetry_space_group_name_H-M  'C2/m'
_cell_length_a       3.07408
_cell_length_b       6.88224
_cell_length_c       7.7878
_cell_angle_alpha    78.8503
_cell_angle_beta     78.6188
_cell_angle_gamma    77.0954

_symmetry_Int_Tables_number  12
_chemical_formula_structural  CaCr2O4
_chemical_formula_sum  Ca2Cr4O8
_cell_volume  155.5102137319324
_cell_formula_units_Z  2
loop_
  _symmetry_equiv_pos_site_id
 _symmetry_equiv_pos_as_xyz
 1  'x, y, z'
loop_
 _atom_site_type_symbol
 _atom_site_label
 _atom_site_symmetry_multiplicity
 _atom_site_fract_x
 _atom_site_fract_y
 _atom_site_fract_z
 _atom_site_fract_occupancy
 Ca  Ca1  1  0.64702  0.85342  0.84463  1
 Ca  Ca2  1  0.35065  0.11352  0.17725  1
 Cr  Cr1  1  0.36199  0.43358  0.83451  1
 Cr  Cr2  1  0.85976  0.78778  0.48477  1
 Cr  Cr3  1  0.13791  0.17916  0.53711  1
 Cr  Cr4  1  0.63568  0.53336  0.18737  1
 O  O1  1  0.13478  0.40187  0.32066  1
 O  O2  1  0.54063  0.21147  0.69936  1
 O  O3  1  0.45704  0.75547  0.32252  1
 O  O4  1  0.86289  0.56507  0.70123  1
 O  O5  1  0.83932  0.30909  0.00433  1
 O  O6  1  0.23785  0.88714  0.62924  1
 O  O7  1  0.15834  0.65784  0.01756  1
 O  O8  1  0.75982  0.07979  0.39265  1
