CIF file written using JARVIS-Tools package.
data_Th2Co17
_symmetry_space_group_name_H-M  'R-3m'
_cell_length_a       6.29977
_cell_length_b       6.29978
_cell_length_c       6.29977
_cell_angle_alpha    83.0815
_cell_angle_beta     83.0814
_cell_angle_gamma    83.0815

_symmetry_Int_Tables_number  166
_chemical_formula_structural  Th2Co17
_chemical_formula_sum  Th2Co7
_cell_volume  244.96443300309758
_cell_formula_units_Z  1
loop_
  _symmetry_equiv_pos_site_id
 _symmetry_equiv_pos_as_xyz
 1  'x, y, z'
loop_
 _atom_site_type_symbol
 _atom_site_label
 _atom_site_symmetry_multiplicity
 _atom_site_fract_x
 _atom_site_fract_y
 _atom_site_fract_z
 _atom_site_fract_occupancy
 Co  Co1  1  0.34477  0.34477  0.85152  1
 Co  Co2  1  0.34477  0.85152  0.34477  1
 Co  Co3  1  0.09695  0.09695  0.09695  1
 Co  Co4  1  0.90305  0.90305  0.90305  1
 Co  Co5  1  -0.00000  -0.00000  0.50000  1
 Co  Co6  1  0.50000  -0.00000  0.00000  1
 Co  Co7  1  0.00000  0.50000  -0.00000  1
 Co  Co8  1  0.28454  0.71546  -0.00000  1
 Co  Co9  1  0.00000  0.28454  0.71546  1
 Co  Co10  1  0.71546  -0.00000  0.28454  1
 Co  Co11  1  -0.00000  0.71546  0.28454  1
 Co  Co12  1  0.28454  0.00000  0.71546  1
 Co  Co13  1  0.65523  0.14848  0.65523  1
 Co  Co14  1  0.65523  0.65523  0.14848  1
 Co  Co15  1  0.14848  0.65523  0.65523  1
 Co  Co16  1  0.85152  0.34477  0.34477  1
 Co  Co17  1  0.71546  0.28454  0.00000  1
 Th  Th1  1  0.65687  0.65687  0.65687  1
 Th  Th2  1  0.34313  0.34313  0.34313  1
