CIF file written using JARVIS-Tools package.
data_BaC2S2N2
_symmetry_space_group_name_H-M  'C2/c'
_cell_length_a       6.1847
_cell_length_b       6.1847
_cell_length_c       8.37771
_cell_angle_alpha    87.3048
_cell_angle_beta     87.3048
_cell_angle_gamma    67.4795

_symmetry_Int_Tables_number  15
_chemical_formula_structural  BaC2S2N2
_chemical_formula_sum  Ba2C4S4N4
_cell_volume  295.5404886986724
_cell_formula_units_Z  2
loop_
  _symmetry_equiv_pos_site_id
 _symmetry_equiv_pos_as_xyz
 1  'x, y, z'
loop_
 _atom_site_type_symbol
 _atom_site_label
 _atom_site_symmetry_multiplicity
 _atom_site_fract_x
 _atom_site_fract_y
 _atom_site_fract_z
 _atom_site_fract_occupancy
 Ba  Ba1  1  0.90087  0.09913  0.75000  1
 Ba  Ba2  1  0.09913  0.90087  0.25000  1
 C  C1  1  0.75383  0.49283  0.10070  1
 C  C2  1  0.49283  0.75383  0.60070  1
 C  C3  1  0.24617  0.50717  0.89930  1
 C  C4  1  0.50717  0.24617  0.39930  1
 N  N1  1  0.82787  0.29725  0.05703  1
 N  N2  1  0.29725  0.82787  0.55703  1
 N  N3  1  0.70275  0.17213  0.44297  1
 N  N4  1  0.17213  0.70275  0.94297  1
 S  S1  1  0.34538  0.23944  0.83900  1
 S  S2  1  0.76056  0.65462  0.66100  1
 S  S3  1  0.65462  0.76056  0.16100  1
 S  S4  1  0.23944  0.34538  0.33900  1
