CIF file written using JARVIS-Tools package.
data_CaZnF4
_symmetry_space_group_name_H-M  'I4_1/a'
_cell_length_a       5.30391
_cell_length_b       5.3041
_cell_length_c       6.69013
_cell_angle_alpha    113.356
_cell_angle_beta     113.355
_cell_angle_gamma    89.995

_symmetry_Int_Tables_number  88
_chemical_formula_structural  CaZnF4
_chemical_formula_sum  Ca2Zn2F8
_cell_volume  155.85078596901815
_cell_formula_units_Z  2
loop_
  _symmetry_equiv_pos_site_id
 _symmetry_equiv_pos_as_xyz
 1  'x, y, z'
loop_
 _atom_site_type_symbol
 _atom_site_label
 _atom_site_symmetry_multiplicity
 _atom_site_fract_x
 _atom_site_fract_y
 _atom_site_fract_z
 _atom_site_fract_occupancy
 Ca  Ca1  1  0.62499  0.37499  0.74998  1
 Ca  Ca2  1  0.37501  0.62501  0.25002  1
 F  F1  1  0.39286  0.22608  0.92800  1
 F  F2  1  0.22608  0.03520  0.42798  1
 F  F3  1  0.70190  0.39279  0.42798  1
 F  F4  1  0.03515  0.70191  0.92799  1
 F  F5  1  0.96485  0.29809  0.07201  1
 F  F6  1  0.29810  0.60721  0.57202  1
 F  F7  1  0.77392  0.96480  0.57202  1
 F  F8  1  0.60714  0.77392  0.07200  1
 Zn  Zn1  1  0.12503  0.87502  0.75005  1
 Zn  Zn2  1  0.87497  0.12498  0.24995  1
