CIF file written using JARVIS-Tools package.
data_MoW2Se4S2
_symmetry_space_group_name_H-M  'P3m1'
_cell_length_a       3.27943
_cell_length_b       3.27944
_cell_length_c       27.9225
_cell_angle_alpha    89.9966
_cell_angle_beta     90.001
_cell_angle_gamma    120

_symmetry_Int_Tables_number  156
_chemical_formula_structural  MoW2Se4S2
_chemical_formula_sum  MoW2Se4S2
_cell_volume  260.0656395612251
_cell_formula_units_Z  1
loop_
  _symmetry_equiv_pos_site_id
 _symmetry_equiv_pos_as_xyz
 1  'x, y, z'
loop_
 _atom_site_type_symbol
 _atom_site_label
 _atom_site_symmetry_multiplicity
 _atom_site_fract_x
 _atom_site_fract_y
 _atom_site_fract_z
 _atom_site_fract_occupancy
 Mo  Mo1  1  0.66678  0.33357  0.34425  1
 S  S1  1  0.66654  0.33322  0.05922  1
 S  S2  1  0.66654  0.33319  0.16995  1
 Se  Se1  1  0.33344  0.66686  0.40478  1
 Se  Se2  1  0.66666  0.33322  0.52123  1
 Se  Se3  1  0.66664  0.33313  0.64297  1
 Se  Se4  1  0.33347  0.66696  0.28373  1
 W  W1  1  0.33320  0.66654  0.11456  1
 W  W2  1  0.33332  0.66651  0.58214  1
