CIF file written using JARVIS-Tools package.
data_MgTiO2
_symmetry_space_group_name_H-M  'C2/m'
_cell_length_a       2.8491
_cell_length_b       8.52263
_cell_length_c       8.50186
_cell_angle_alpha    76.7145
_cell_angle_beta     80.3567
_cell_angle_gamma    80.377

_symmetry_Int_Tables_number  12
_chemical_formula_structural  MgTiO2
_chemical_formula_sum  Mg4Ti4O8
_cell_volume  196.28745676085916
_cell_formula_units_Z  4
loop_
  _symmetry_equiv_pos_site_id
 _symmetry_equiv_pos_as_xyz
 1  'x, y, z'
loop_
 _atom_site_type_symbol
 _atom_site_label
 _atom_site_symmetry_multiplicity
 _atom_site_fract_x
 _atom_site_fract_y
 _atom_site_fract_z
 _atom_site_fract_occupancy
 Mg  Mg1  1  0.61469  0.96709  0.80364  1
 Mg  Mg2  1  0.38947  0.05298  0.16816  1
 Mg  Mg3  1  0.93326  0.25980  0.87377  1
 Mg  Mg4  1  0.07093  0.76028  0.09804  1
 O  O1  1  0.14122  0.33297  0.38462  1
 O  O2  1  0.65311  0.58761  0.10631  1
 O  O3  1  0.35106  0.43247  0.86550  1
 O  O4  1  0.86291  0.68712  0.58717  1
 O  O5  1  0.91680  0.88045  0.28604  1
 O  O6  1  0.18379  0.78720  0.84534  1
 O  O7  1  0.08734  0.13964  0.68575  1
 O  O8  1  0.82038  0.23288  0.12645  1
 Ti  Ti1  1  0.33960  0.84586  0.47506  1
 Ti  Ti2  1  0.78729  0.61624  0.80929  1
 Ti  Ti3  1  0.21688  0.40384  0.16250  1
 Ti  Ti4  1  0.66452  0.17423  0.49674  1
