CIF file written using JARVIS-Tools package.
data_BaYCuTe3
_symmetry_space_group_name_H-M  'Cmcm'
_cell_length_a       4.43729
_cell_length_b       7.75981
_cell_length_c       11.3864
_cell_angle_alpha    90
_cell_angle_beta     90
_cell_angle_gamma    106.614

_symmetry_Int_Tables_number  63
_chemical_formula_structural  BaYCuTe3
_chemical_formula_sum  Ba2Y2Cu2Te6
_cell_volume  375.6964624482063
_cell_formula_units_Z  2
loop_
  _symmetry_equiv_pos_site_id
 _symmetry_equiv_pos_as_xyz
 1  'x, y, z'
loop_
 _atom_site_type_symbol
 _atom_site_label
 _atom_site_symmetry_multiplicity
 _atom_site_fract_x
 _atom_site_fract_y
 _atom_site_fract_z
 _atom_site_fract_occupancy
 Ba  Ba1  1  0.24961  0.49922  0.25000  1
 Ba  Ba2  1  0.75039  0.50078  0.75000  1
 Cu  Cu1  1  0.46637  0.93275  0.75000  1
 Cu  Cu2  1  0.53363  0.06725  0.25000  1
 Te  Te1  1  0.36218  0.72435  0.94092  1
 Te  Te2  1  0.92932  0.85864  0.25000  1
 Te  Te3  1  0.63782  0.27565  0.44092  1
 Te  Te4  1  0.63782  0.27565  0.05908  1
 Te  Te5  1  0.36218  0.72435  0.55908  1
 Te  Te6  1  0.07068  0.14136  0.75000  1
 Y  Y1  1  0.00000  0.00000  0.50000  1
 Y  Y2  1  0.00000  0.00000  0.00000  1
