CIF file written using JARVIS-Tools package.
data_Mo3O8
_symmetry_space_group_name_H-M  'C2/m'
_cell_length_a       4.98187
_cell_length_b       6.07328
_cell_length_c       6.65216
_cell_angle_alpha    117.161
_cell_angle_beta     122.719
_cell_angle_gamma    90.0001

_symmetry_Int_Tables_number  12
_chemical_formula_structural  Mo3O8
_chemical_formula_sum  Mo3O8
_cell_volume  142.2417393379769
_cell_formula_units_Z  1
loop_
  _symmetry_equiv_pos_site_id
 _symmetry_equiv_pos_as_xyz
 1  'x, y, z'
loop_
 _atom_site_type_symbol
 _atom_site_label
 _atom_site_symmetry_multiplicity
 _atom_site_fract_x
 _atom_site_fract_y
 _atom_site_fract_z
 _atom_site_fract_occupancy
 Mo  Mo1  1  0.50000  1.00000  -0.00000  1
 Mo  Mo2  1  1.00000  0.70893  0.00000  1
 Mo  Mo3  1  1.00000  0.29107  -0.00000  1
 O  O1  1  -0.02752  0.37086  0.74171  1
 O  O2  1  0.02752  0.62914  0.25829  1
 O  O3  1  0.02073  0.89087  0.78175  1
 O  O4  1  0.97927  0.10913  0.21825  1
 O  O5  1  0.46534  0.33414  0.21148  1
 O  O6  1  0.46534  0.87735  0.21148  1
 O  O7  1  0.53466  0.12265  0.78852  1
 O  O8  1  0.53466  0.66586  0.78852  1
