CIF file written using JARVIS-Tools package.
data_C3N
_symmetry_space_group_name_H-M  'P2_13'
_cell_length_a       5.46343
_cell_length_b       5.46343
_cell_length_c       5.46343
_cell_angle_alpha    90
_cell_angle_beta     90
_cell_angle_gamma    90

_symmetry_Int_Tables_number  198
_chemical_formula_structural  C3N
_chemical_formula_sum  C2N4
_cell_volume  163.0779627669858
_cell_formula_units_Z  4
loop_
  _symmetry_equiv_pos_site_id
 _symmetry_equiv_pos_as_xyz
 1  'x, y, z'
loop_
 _atom_site_type_symbol
 _atom_site_label
 _atom_site_symmetry_multiplicity
 _atom_site_fract_x
 _atom_site_fract_y
 _atom_site_fract_z
 _atom_site_fract_occupancy
 C  C1  1  0.36185  0.34309  0.81282  1
 C  C2  1  0.18718  0.86185  0.15691  1
 C  C3  1  0.84309  0.68718  0.63815  1
 C  C4  1  0.86185  0.15691  0.18718  1
 C  C5  1  0.68718  0.63815  0.84309  1
 C  C6  1  0.34309  0.81282  0.36185  1
 C  C7  1  0.63815  0.84309  0.68718  1
 C  C8  1  0.81282  0.36185  0.34309  1
 C  C9  1  0.15691  0.18718  0.86185  1
 C  C10  1  0.13815  0.65691  0.31282  1
 C  C11  1  0.31282  0.13815  0.65691  1
 C  C12  1  0.65691  0.31282  0.13815  1
 N  N1  1  0.43763  0.93763  0.56237  1
 N  N2  1  0.93763  0.56237  0.43763  1
 N  N3  1  0.56237  0.43763  0.93763  1
 N  N4  1  0.06237  0.06237  0.06237  1
