CIF file written using JARVIS-Tools package.
data_Te2MoWS2
_symmetry_space_group_name_H-M  'P-3m1'
_cell_length_a       3.36264
_cell_length_b       3.36266
_cell_length_c       36.9203
_cell_angle_alpha    89.9987
_cell_angle_beta     89.9997
_cell_angle_gamma    120

_symmetry_Int_Tables_number  164
_chemical_formula_structural  Te2MoWS2
_chemical_formula_sum  Te4Mo2W2S4
_cell_volume  361.54203396115383
_cell_formula_units_Z  2
loop_
  _symmetry_equiv_pos_site_id
 _symmetry_equiv_pos_as_xyz
 1  'x, y, z'
loop_
 _atom_site_type_symbol
 _atom_site_label
 _atom_site_symmetry_multiplicity
 _atom_site_fract_x
 _atom_site_fract_y
 _atom_site_fract_z
 _atom_site_fract_occupancy
 Mo  Mo1  1  0.33341  0.66681  0.47542  1
 Mo  Mo2  1  0.66659  0.33319  0.27604  1
 S  S1  1  0.33332  0.66665  0.69892  1
 S  S2  1  0.66668  0.33335  0.05254  1
 S  S3  1  0.66668  0.33331  0.13490  1
 S  S4  1  0.33332  0.66669  0.61656  1
 Te  Te1  1  0.33325  0.66652  0.32735  1
 Te  Te2  1  0.66675  0.33348  0.42411  1
 Te  Te3  1  0.66672  0.33347  0.52676  1
 Te  Te4  1  0.33328  0.66653  0.22470  1
 W  W1  1  0.33335  0.66667  0.09369  1
 W  W2  1  0.66665  0.33333  0.65776  1
