CIF file written using JARVIS-Tools package.
data_ZnCr2O4
_symmetry_space_group_name_H-M  'Cmcm'
_cell_length_a       2.90613
_cell_length_b       4.98719
_cell_length_c       9.81655
_cell_angle_alpha    90
_cell_angle_beta     90
_cell_angle_gamma    106.939

_symmetry_Int_Tables_number  63
_chemical_formula_structural  ZnCr2O4
_chemical_formula_sum  Zn2Cr4O8
_cell_volume  136.1025597845099
_cell_formula_units_Z  2
loop_
  _symmetry_equiv_pos_site_id
 _symmetry_equiv_pos_as_xyz
 1  'x, y, z'
loop_
 _atom_site_type_symbol
 _atom_site_label
 _atom_site_symmetry_multiplicity
 _atom_site_fract_x
 _atom_site_fract_y
 _atom_site_fract_z
 _atom_site_fract_occupancy
 Cr  Cr1  1  0.86691  0.73382  0.07144  1
 Cr  Cr2  1  0.13309  0.26618  0.92856  1
 Cr  Cr3  1  0.86691  0.73382  0.42856  1
 Cr  Cr4  1  0.13309  0.26618  0.57144  1
 O  O1  1  0.23233  0.46467  0.38925  1
 O  O2  1  0.76767  0.53533  0.61075  1
 O  O3  1  0.76767  0.53533  0.88925  1
 O  O4  1  0.23233  0.46467  0.11075  1
 O  O5  1  0.96189  0.92378  0.25000  1
 O  O6  1  0.03811  0.07622  0.75000  1
 O  O7  1  0.50000  0.00000  0.00000  1
 O  O8  1  0.50000  0.00000  0.50000  1
 Zn  Zn1  1  0.38984  0.77968  0.75000  1
 Zn  Zn2  1  0.61016  0.22032  0.25000  1
