CIF file written using JARVIS-Tools package.
data_Ca2Co3O8
_symmetry_space_group_name_H-M  'C2/m'
_cell_length_a       4.93726
_cell_length_b       5.80304
_cell_length_c       6.16712
_cell_angle_alpha    118.066
_cell_angle_beta     107.343
_cell_angle_gamma    89.9999

_symmetry_Int_Tables_number  12
_chemical_formula_structural  Ca2Co3O8
_chemical_formula_sum  Ca2Co3O8
_cell_volume  146.7513415198563
_cell_formula_units_Z  1
loop_
  _symmetry_equiv_pos_site_id
 _symmetry_equiv_pos_as_xyz
 1  'x, y, z'
loop_
 _atom_site_type_symbol
 _atom_site_label
 _atom_site_symmetry_multiplicity
 _atom_site_fract_x
 _atom_site_fract_y
 _atom_site_fract_z
 _atom_site_fract_occupancy
 Ca  Ca1  1  0.67093  0.72540  0.45081  1
 Ca  Ca2  1  0.32907  0.27460  0.54919  1
 Co  Co1  1  0.50000  1.00000  0.00000  1
 Co  Co2  1  1.00000  0.74327  0.00000  1
 Co  Co3  1  1.00000  0.25673  -0.00000  1
 O  O1  1  0.03360  0.39709  0.79419  1
 O  O2  1  0.96640  0.60290  0.20581  1
 O  O3  1  0.09786  0.90437  0.80873  1
 O  O4  1  0.90214  0.09563  0.19127  1
 O  O5  1  0.38950  0.32003  0.19637  1
 O  O6  1  0.38950  0.87634  0.19637  1
 O  O7  1  0.61050  0.12366  0.80363  1
 O  O8  1  0.61050  0.67997  0.80363  1
