CIF file written using JARVIS-Tools package.
data_BaMgCr4O8
_symmetry_space_group_name_H-M  'P-31m'
_cell_length_a       5.3421
_cell_length_b       5.3421
_cell_length_c       7.18331
_cell_angle_alpha    90
_cell_angle_beta     90
_cell_angle_gamma    120

_symmetry_Int_Tables_number  162
_chemical_formula_structural  BaMgCr4O8
_chemical_formula_sum  BaMgCr4O8
_cell_volume  177.53308688988488
_cell_formula_units_Z  1
loop_
  _symmetry_equiv_pos_site_id
 _symmetry_equiv_pos_as_xyz
 1  'x, y, z'
loop_
 _atom_site_type_symbol
 _atom_site_label
 _atom_site_symmetry_multiplicity
 _atom_site_fract_x
 _atom_site_fract_y
 _atom_site_fract_z
 _atom_site_fract_occupancy
 Ba  Ba1  1  0.00000  0.00000  0.00000  1
 Cr  Cr1  1  0.33333  0.66667  0.74008  1
 Cr  Cr2  1  0.66667  0.33333  0.74008  1
 Cr  Cr3  1  0.33333  0.66667  0.25992  1
 Cr  Cr4  1  0.66667  0.33333  0.25992  1
 Mg  Mg1  1  0.00000  0.00000  0.50000  1
 O  O1  1  0.68428  0.00000  0.67697  1
 O  O2  1  0.00000  0.68428  0.67697  1
 O  O3  1  0.31572  0.31572  0.67697  1
 O  O4  1  0.31572  -0.00000  0.32303  1
 O  O5  1  0.68428  0.68428  0.32303  1
 O  O6  1  -0.00000  0.31572  0.32303  1
 O  O7  1  0.33333  0.66667  0.00000  1
 O  O8  1  0.66667  0.33333  0.00000  1
