CIF file written using JARVIS-Tools package.
data_MgCrO2
_symmetry_space_group_name_H-M  'C2/m'
_cell_length_a       2.91934
_cell_length_b       8.47363
_cell_length_c       8.44268
_cell_angle_alpha    84.3242
_cell_angle_beta     80.0434
_cell_angle_gamma    80.0777

_symmetry_Int_Tables_number  12
_chemical_formula_structural  MgCrO2
_chemical_formula_sum  Mg4Cr4O8
_cell_volume  202.11296144522328
_cell_formula_units_Z  4
loop_
  _symmetry_equiv_pos_site_id
 _symmetry_equiv_pos_as_xyz
 1  'x, y, z'
loop_
 _atom_site_type_symbol
 _atom_site_label
 _atom_site_symmetry_multiplicity
 _atom_site_fract_x
 _atom_site_fract_y
 _atom_site_fract_z
 _atom_site_fract_occupancy
 Cr  Cr1  1  0.37167  0.82182  0.43487  1
 Cr  Cr2  1  0.78900  0.61686  0.80529  1
 Cr  Cr3  1  0.21519  0.40322  0.16651  1
 Cr  Cr4  1  0.63245  0.19826  0.53693  1
 Mg  Mg1  1  0.65045  0.93617  0.76301  1
 Mg  Mg2  1  0.35365  0.08392  0.20879  1
 Mg  Mg3  1  0.92501  0.29241  0.85777  1
 Mg  Mg4  1  0.07920  0.72767  0.11403  1
 O  O1  1  0.18890  0.23577  0.38648  1
 O  O2  1  0.63151  0.57118  0.16591  1
 O  O3  1  0.37270  0.44890  0.80589  1
 O  O4  1  0.81522  0.78432  0.58531  1
 O  O5  1  0.91838  0.90770  0.25559  1
 O  O6  1  0.16653  0.78787  0.87919  1
 O  O7  1  0.08574  0.11238  0.71620  1
 O  O8  1  0.83762  0.23221  0.09261  1
