CIF file written using JARVIS-Tools package.
data_SiO2
_symmetry_space_group_name_H-M  'Fddd'
_cell_length_a       4.93612
_cell_length_b       7.9924
_cell_length_c       10.7506
_cell_angle_alpha    85.9347
_cell_angle_beta     76.7279
_cell_angle_gamma    72.013

_symmetry_Int_Tables_number  70
_chemical_formula_structural  SiO2
_chemical_formula_sum  Si8O6
_cell_volume  392.6224675309908
_cell_formula_units_Z  8
loop_
  _symmetry_equiv_pos_site_id
 _symmetry_equiv_pos_as_xyz
 1  'x, y, z'
loop_
 _atom_site_type_symbol
 _atom_site_label
 _atom_site_symmetry_multiplicity
 _atom_site_fract_x
 _atom_site_fract_y
 _atom_site_fract_z
 _atom_site_fract_occupancy
 O  O1  1  0.49873  0.00254  0.75000  1
 O  O2  1  0.28816  0.75000  0.42368  1
 O  O3  1  0.57699  0.25000  0.84602  1
 O  O4  1  0.71184  0.25000  0.57632  1
 O  O5  1  0.00000  0.50000  0.50000  1
 O  O6  1  0.50127  0.99746  0.25000  1
 O  O7  1  0.96184  0.75000  0.07632  1
 O  O8  1  0.24873  0.50254  0.25000  1
 O  O9  1  0.17301  0.25000  0.65398  1
 O  O10  1  0.82699  0.75000  0.34602  1
 O  O11  1  0.50000  0.50000  0.00000  1
 O  O12  1  0.50000  0.00000  0.00000  1
 O  O13  1  0.03816  0.25000  0.92368  1
 O  O14  1  0.42301  0.75000  0.15398  1
 O  O15  1  0.50000  0.00000  0.50000  1
 O  O16  1  0.75127  0.49746  0.75000  1
 Si  Si1  1  0.73373  0.37984  0.88403  1
 Si  Si2  1  0.26627  0.62016  0.11597  1
 Si  Si3  1  0.50240  0.87984  0.38403  1
 Si  Si4  1  0.61776  0.87984  0.11597  1
 Si  Si5  1  0.49760  0.12016  0.61597  1
 Si  Si6  1  0.38224  0.12016  0.88403  1
 Si  Si7  1  0.11357  0.62016  0.38403  1
 Si  Si8  1  0.88643  0.37984  0.61597  1
