CIF file written using JARVIS-Tools package.
data_Cr2S3
_symmetry_space_group_name_H-M  'R-3'
_cell_length_a       6.36671
_cell_length_b       6.36671
_cell_length_c       6.36671
_cell_angle_alpha    56.2397
_cell_angle_beta     56.2397
_cell_angle_gamma    56.2397

_symmetry_Int_Tables_number  148
_chemical_formula_structural  Cr2S3
_chemical_formula_sum  Cr4S6
_cell_volume  166.60608232208492
_cell_formula_units_Z  2
loop_
  _symmetry_equiv_pos_site_id
 _symmetry_equiv_pos_as_xyz
 1  'x, y, z'
loop_
 _atom_site_type_symbol
 _atom_site_label
 _atom_site_symmetry_multiplicity
 _atom_site_fract_x
 _atom_site_fract_y
 _atom_site_fract_z
 _atom_site_fract_occupancy
 Cr  Cr1  1  0.32898  0.32898  0.32898  1
 Cr  Cr2  1  0.50000  0.50000  0.50000  1
 Cr  Cr3  1  0.00000  0.00000  0.00000  1
 Cr  Cr4  1  0.67102  0.67102  0.67102  1
 S  S1  1  0.74313  0.40995  0.09210  1
 S  S2  1  0.09210  0.74313  0.40995  1
 S  S3  1  0.59005  0.90790  0.25687  1
 S  S4  1  0.40995  0.09210  0.74313  1
 S  S5  1  0.90790  0.25687  0.59005  1
 S  S6  1  0.25687  0.59005  0.90790  1
