CIF file written using JARVIS-Tools package.
data_ScZnMo3O8
_symmetry_space_group_name_H-M  'P6_3mc'
_cell_length_a       5.82572
_cell_length_b       5.82572
_cell_length_c       10.1245
_cell_angle_alpha    90
_cell_angle_beta     90
_cell_angle_gamma    120

_symmetry_Int_Tables_number  186
_chemical_formula_structural  ScZnMo3O8
_chemical_formula_sum  Sc2Zn2Mo6O6
_cell_volume  297.57918179885127
_cell_formula_units_Z  2
loop_
  _symmetry_equiv_pos_site_id
 _symmetry_equiv_pos_as_xyz
 1  'x, y, z'
loop_
 _atom_site_type_symbol
 _atom_site_label
 _atom_site_symmetry_multiplicity
 _atom_site_fract_x
 _atom_site_fract_y
 _atom_site_fract_z
 _atom_site_fract_occupancy
 Mo  Mo1  1  0.85566  0.14434  0.75103  1
 Mo  Mo2  1  0.14434  0.28867  0.25103  1
 Mo  Mo3  1  0.71133  0.85566  0.25103  1
 Mo  Mo4  1  0.14434  0.85566  0.25103  1
 Mo  Mo5  1  0.28867  0.14434  0.75103  1
 Mo  Mo6  1  0.85566  0.71133  0.75103  1
 O  O1  1  0.33333  0.66667  0.14754  1
 O  O2  1  0.83498  0.16502  0.12860  1
 O  O3  1  0.66997  0.83498  0.62860  1
 O  O4  1  0.48945  0.51055  0.36622  1
 O  O5  1  0.83498  0.66997  0.12860  1
 O  O6  1  0.33003  0.16502  0.12860  1
 O  O7  1  0.16502  0.83498  0.62860  1
 O  O8  1  0.16502  0.33003  0.62860  1
 O  O9  1  0.02110  0.51055  0.36622  1
 O  O10  1  0.97890  0.48945  0.86622  1
 O  O11  1  0.00000  0.00000  0.39151  1
 O  O12  1  0.00000  0.00000  0.89151  1
 O  O13  1  0.51055  0.48945  0.86622  1
 O  O14  1  0.66667  0.33333  0.64754  1
 O  O15  1  0.48945  0.97890  0.36622  1
 O  O16  1  0.51055  0.02110  0.86622  1
 Sc  Sc1  1  0.33333  0.66667  0.51383  1
 Sc  Sc2  1  0.66667  0.33333  0.01383  1
 Zn  Zn1  1  0.33333  0.66667  0.95278  1
 Zn  Zn2  1  0.66667  0.33333  0.45278  1
