CIF file written using JARVIS-Tools package.
data_ScAu2
_symmetry_space_group_name_H-M  'I4/mmm'
_cell_length_a       3.55876
_cell_length_b       3.55876
_cell_length_c       5.06281
_cell_angle_alpha    110.577
_cell_angle_beta     110.577
_cell_angle_gamma    90

_symmetry_Int_Tables_number  139
_chemical_formula_structural  ScAu2
_chemical_formula_sum  ScAu2
_cell_volume  55.638187560040954
_cell_formula_units_Z  1
loop_
  _symmetry_equiv_pos_site_id
 _symmetry_equiv_pos_as_xyz
 1  'x, y, z'
loop_
 _atom_site_type_symbol
 _atom_site_label
 _atom_site_symmetry_multiplicity
 _atom_site_fract_x
 _atom_site_fract_y
 _atom_site_fract_z
 _atom_site_fract_occupancy
 Au  Au1  1  0.66276  0.66276  0.32551  1
 Au  Au2  1  0.33724  0.33724  0.67449  1
 Sc  Sc1  1  0.00000  0.00000  0.00000  1
