CIF file written using JARVIS-Tools package.
data_RbSm2CuS4
_symmetry_space_group_name_H-M  'Cmcm'
_cell_length_a       4.03996
_cell_length_b       7.23333
_cell_length_c       13.9233
_cell_angle_alpha    90
_cell_angle_beta     90
_cell_angle_gamma    106.216

_symmetry_Int_Tables_number  63
_chemical_formula_structural  RbSm2CuS4
_chemical_formula_sum  Rb2Sm4Cu2S8
_cell_volume  390.6843828008691
_cell_formula_units_Z  2
loop_
  _symmetry_equiv_pos_site_id
 _symmetry_equiv_pos_as_xyz
 1  'x, y, z'
loop_
 _atom_site_type_symbol
 _atom_site_label
 _atom_site_symmetry_multiplicity
 _atom_site_fract_x
 _atom_site_fract_y
 _atom_site_fract_z
 _atom_site_fract_occupancy
 Cu  Cu1  1  0.83614  0.67229  0.75000  1
 Cu  Cu2  1  0.16386  0.32771  0.25000  1
 Rb  Rb1  1  0.89262  0.78524  0.25000  1
 Rb  Rb2  1  0.10738  0.21476  0.75000  1
 S  S1  1  0.00000  0.00000  0.50000  1
 S  S2  1  0.00000  0.00000  0.00000  1
 S  S3  1  0.57293  0.14585  0.25000  1
 S  S4  1  0.42707  0.85415  0.75000  1
 S  S5  1  0.26163  0.52327  0.38845  1
 S  S6  1  0.73837  0.47673  0.88845  1
 S  S7  1  0.73837  0.47673  0.61155  1
 S  S8  1  0.26163  0.52327  0.11155  1
 Sm  Sm1  1  0.36574  0.73149  0.93811  1
 Sm  Sm2  1  0.63426  0.26851  0.43811  1
 Sm  Sm3  1  0.36574  0.73149  0.56189  1
 Sm  Sm4  1  0.63426  0.26851  0.06189  1
