CIF file written using JARVIS-Tools package.
data_CaCr2O5
_symmetry_space_group_name_H-M  'Pmmn'
_cell_length_a       4.87425
_cell_length_b       3.59999
_cell_length_c       11.2857
_cell_angle_alpha    90
_cell_angle_beta     90.0015
_cell_angle_gamma    90

_symmetry_Int_Tables_number  59
_chemical_formula_structural  CaCr2O5
_chemical_formula_sum  Ca2Cr4O0
_cell_volume  198.03249989571634
_cell_formula_units_Z  2
loop_
  _symmetry_equiv_pos_site_id
 _symmetry_equiv_pos_as_xyz
 1  'x, y, z'
loop_
 _atom_site_type_symbol
 _atom_site_label
 _atom_site_symmetry_multiplicity
 _atom_site_fract_x
 _atom_site_fract_y
 _atom_site_fract_z
 _atom_site_fract_occupancy
 Ca  Ca1  1  0.12357  0.50000  0.25000  1
 Ca  Ca2  1  0.87643  0.00000  0.75000  1
 Cr  Cr1  1  0.59280  0.00000  0.09614  1
 Cr  Cr2  1  0.40720  0.50000  0.90386  1
 Cr  Cr3  1  0.40719  0.50000  0.59613  1
 Cr  Cr4  1  0.59281  0.00000  0.40387  1
 O  O1  1  0.55774  0.50000  0.75000  1
 O  O2  1  0.44226  0.00000  0.25000  1
 O  O3  1  0.46561  0.50000  0.07483  1
 O  O4  1  0.53439  0.00000  0.92517  1
 O  O5  1  0.46562  0.50000  0.42517  1
 O  O6  1  0.53438  0.00000  0.57483  1
 O  O7  1  0.93158  0.00000  0.37344  1
 O  O8  1  0.06842  0.50000  0.62656  1
 O  O9  1  0.06842  0.50000  0.87343  1
 O  O10  1  0.93158  0.00000  0.12657  1
