CIF file written using JARVIS-Tools package.
data_MgFe4O9
_symmetry_space_group_name_H-M  'P4/n'
_cell_length_a       4.48456
_cell_length_b       8.24815
_cell_length_c       8.24774
_cell_angle_alpha    89.9982
_cell_angle_beta     89.9963
_cell_angle_gamma    90.001

_symmetry_Int_Tables_number  85
_chemical_formula_structural  MgFe4O9
_chemical_formula_sum  Mg2Fe8O8
_cell_volume  305.07855809924615
_cell_formula_units_Z  2
loop_
  _symmetry_equiv_pos_site_id
 _symmetry_equiv_pos_as_xyz
 1  'x, y, z'
loop_
 _atom_site_type_symbol
 _atom_site_label
 _atom_site_symmetry_multiplicity
 _atom_site_fract_x
 _atom_site_fract_y
 _atom_site_fract_z
 _atom_site_fract_occupancy
 Fe  Fe1  1  0.59679  0.53340  0.34256  1
 Fe  Fe2  1  0.40318  0.03336  0.84258  1
 Fe  Fe3  1  0.40320  0.65742  0.03338  1
 Fe  Fe4  1  0.59683  0.15744  0.53337  1
 Fe  Fe5  1  0.59681  0.96664  0.15742  1
 Fe  Fe6  1  0.40322  0.46660  0.65744  1
 Fe  Fe7  1  0.59680  0.34258  0.96662  1
 Fe  Fe8  1  0.40317  0.84256  0.46663  1
 Mg  Mg1  1  0.12402  0.25001  0.24999  1
 Mg  Mg2  1  0.87598  0.74998  0.75001  1
 O  O1  1  0.49998  0.74999  0.25000  1
 O  O2  1  0.50002  0.25001  0.75000  1
 O  O3  1  0.04515  0.67979  0.98571  1
 O  O4  1  0.54888  0.64591  0.54545  1
 O  O5  1  0.04510  0.98569  0.82021  1
 O  O6  1  0.04510  0.82019  0.51431  1
 O  O7  1  0.95486  0.32021  0.01430  1
 O  O8  1  0.04516  0.51429  0.67981  1
 O  O9  1  0.45107  0.45454  0.14593  1
 O  O10  1  0.45113  0.04545  0.35408  1
 O  O11  1  0.45108  0.14595  0.04546  1
 O  O12  1  0.45112  0.35409  0.45455  1
 O  O13  1  0.95484  0.48571  0.32020  1
 O  O14  1  0.54894  0.54546  0.85407  1
 O  O15  1  0.54892  0.85405  0.95454  1
 O  O16  1  0.95490  0.17981  0.48569  1
 O  O17  1  0.95489  0.01431  0.17979  1
 O  O18  1  0.54886  0.95455  0.64592  1
