CIF file written using JARVIS-Tools package.
data_Te4Mo2WS2
_symmetry_space_group_name_H-M  'P-6m2'
_cell_length_a       3.42898
_cell_length_b       3.42898
_cell_length_c       31.5286
_cell_angle_alpha    90
_cell_angle_beta     90
_cell_angle_gamma    120

_symmetry_Int_Tables_number  187
_chemical_formula_structural  Te4Mo2WS2
_chemical_formula_sum  Te4Mo2WS2
_cell_volume  321.0437909870655
_cell_formula_units_Z  1
loop_
  _symmetry_equiv_pos_site_id
 _symmetry_equiv_pos_as_xyz
 1  'x, y, z'
loop_
 _atom_site_type_symbol
 _atom_site_label
 _atom_site_symmetry_multiplicity
 _atom_site_fract_x
 _atom_site_fract_y
 _atom_site_fract_z
 _atom_site_fract_occupancy
 Mo  Mo1  1  0.33331  0.66662  0.11564  1
 Mo  Mo2  1  0.33331  0.66662  0.57832  1
 S  S1  1  0.33336  0.66672  0.39463  1
 S  S2  1  0.33336  0.66672  0.29933  1
 Te  Te1  1  0.66665  0.33329  0.05667  1
 Te  Te2  1  0.66664  0.33328  0.51905  1
 Te  Te3  1  0.66664  0.33328  0.17491  1
 Te  Te4  1  0.66665  0.33329  0.63730  1
 W  W1  1  0.66669  0.33338  0.34698  1
