CIF file written using JARVIS-Tools package.
data_LiCaCoF6
_symmetry_space_group_name_H-M  'P-31c'
_cell_length_a       5.03664
_cell_length_b       5.03664
_cell_length_c       9.75487
_cell_angle_alpha    90
_cell_angle_beta     90
_cell_angle_gamma    120

_symmetry_Int_Tables_number  163
_chemical_formula_structural  LiCaCoF6
_chemical_formula_sum  Li2Ca2Co2F2
_cell_volume  214.3059067424964
_cell_formula_units_Z  2
loop_
  _symmetry_equiv_pos_site_id
 _symmetry_equiv_pos_as_xyz
 1  'x, y, z'
loop_
 _atom_site_type_symbol
 _atom_site_label
 _atom_site_symmetry_multiplicity
 _atom_site_fract_x
 _atom_site_fract_y
 _atom_site_fract_z
 _atom_site_fract_occupancy
 Ca  Ca1  1  0.00000  0.00000  0.00000  1
 Ca  Ca2  1  0.00000  0.00000  0.50000  1
 Co  Co1  1  0.66667  0.33333  0.75000  1
 Co  Co2  1  0.33333  0.66667  0.25000  1
 F  F1  1  0.37108  0.34950  0.85871  1
 F  F2  1  0.65050  0.62892  0.64129  1
 F  F3  1  0.02158  0.65050  0.35871  1
 F  F4  1  0.34950  0.37108  0.35871  1
 F  F5  1  0.02158  0.37108  0.14129  1
 F  F6  1  0.62892  0.65050  0.14129  1
 F  F7  1  0.65050  0.02158  0.85871  1
 F  F8  1  0.62892  0.97842  0.35871  1
 F  F9  1  0.34950  0.97842  0.14129  1
 F  F10  1  0.97842  0.34950  0.64129  1
 F  F11  1  0.37108  0.02158  0.64129  1
 F  F12  1  0.97842  0.62892  0.85871  1
 Li  Li1  1  0.66667  0.33333  0.25000  1
 Li  Li2  1  0.33333  0.66667  0.75000  1
