CIF file written using JARVIS-Tools package.
data_Dy2O3
_symmetry_space_group_name_H-M  'C2/m'
_cell_length_a       3.49959
_cell_length_b       7.20819
_cell_length_c       8.6382
_cell_angle_alpha    99.7889
_cell_angle_beta     90
_cell_angle_gamma    104.049

_symmetry_Int_Tables_number  12
_chemical_formula_structural  Dy2O3
_chemical_formula_sum  Dy6O9
_cell_volume  208.11527356934025
_cell_formula_units_Z  3
loop_
  _symmetry_equiv_pos_site_id
 _symmetry_equiv_pos_as_xyz
 1  'x, y, z'
loop_
 _atom_site_type_symbol
 _atom_site_label
 _atom_site_symmetry_multiplicity
 _atom_site_fract_x
 _atom_site_fract_y
 _atom_site_fract_z
 _atom_site_fract_occupancy
 Dy  Dy1  1  0.63508  0.27016  0.48713  1
 Dy  Dy2  1  0.69062  0.38124  0.13735  1
 Dy  Dy3  1  0.03302  0.06603  0.81323  1
 Dy  Dy4  1  0.36492  0.72984  0.51287  1
 Dy  Dy5  1  0.30938  0.61876  0.86265  1
 Dy  Dy6  1  0.96698  0.93397  0.18677  1
 O  O1  1  0.87196  0.74391  0.71738  1
 O  O2  1  0.79397  0.58793  0.37603  1
 O  O3  1  0.12804  0.25609  0.28262  1
 O  O4  1  0.20603  0.41207  0.62397  1
 O  O5  1  0.50000  0.00000  0.00000  1
 O  O6  1  0.47131  0.94261  0.34377  1
 O  O7  1  0.52869  0.05739  0.65623  1
 O  O8  1  0.17479  0.34958  0.96970  1
 O  O9  1  0.82521  0.65042  0.03030  1
