CIF file written using JARVIS-Tools package.
data_LuScO3
_symmetry_space_group_name_H-M  'Pnma'
_cell_length_a       5.33962
_cell_length_b       5.65766
_cell_length_c       9.53786
_cell_angle_alpha    90
_cell_angle_beta     124.037
_cell_angle_gamma    90

_symmetry_Int_Tables_number  62
_chemical_formula_structural  LuScO3
_chemical_formula_sum  Lu4Sc4O2
_cell_volume  238.77207244875572
_cell_formula_units_Z  4
loop_
  _symmetry_equiv_pos_site_id
 _symmetry_equiv_pos_as_xyz
 1  'x, y, z'
loop_
 _atom_site_type_symbol
 _atom_site_label
 _atom_site_symmetry_multiplicity
 _atom_site_fract_x
 _atom_site_fract_y
 _atom_site_fract_z
 _atom_site_fract_occupancy
 Lu  Lu1  1  0.72715  0.93510  0.74992  1
 Lu  Lu2  1  0.27285  0.43510  0.75008  1
 Lu  Lu3  1  0.72715  0.56490  0.24992  1
 Lu  Lu4  1  0.27285  0.06490  0.25008  1
 O  O1  1  0.10839  0.43413  0.24999  1
 O  O2  1  0.26156  0.80879  0.07414  1
 O  O3  1  0.38660  0.19115  0.57395  1
 O  O4  1  0.61340  0.69115  0.92605  1
 O  O5  1  0.73844  0.19121  0.92586  1
 O  O6  1  0.89161  0.93413  0.25001  1
 O  O7  1  0.10839  0.06587  0.74999  1
 O  O8  1  0.38660  0.30885  0.07395  1
 O  O9  1  0.26156  0.69121  0.57414  1
 O  O10  1  0.61340  0.80885  0.42605  1
 O  O11  1  0.73844  0.30879  0.42586  1
 O  O12  1  0.89161  0.56587  0.75001  1
 Sc  Sc1  1  0.50000  0.00000  0.00000  1
 Sc  Sc2  1  -0.00000  0.00000  0.50000  1
 Sc  Sc3  1  0.00000  0.50000  0.00000  1
 Sc  Sc4  1  0.50000  0.50000  0.50000  1
