CIF file written using JARVIS-Tools package.
data_MoW2Se2S4
_symmetry_space_group_name_H-M  'P-6m2'
_cell_length_a       3.23394
_cell_length_b       3.23394
_cell_length_c       27.873
_cell_angle_alpha    90
_cell_angle_beta     90
_cell_angle_gamma    120

_symmetry_Int_Tables_number  187
_chemical_formula_structural  MoW2Se2S4
_chemical_formula_sum  MoW2Se2S4
_cell_volume  252.45225957357115
_cell_formula_units_Z  1
loop_
  _symmetry_equiv_pos_site_id
 _symmetry_equiv_pos_as_xyz
 1  'x, y, z'
loop_
 _atom_site_type_symbol
 _atom_site_label
 _atom_site_symmetry_multiplicity
 _atom_site_fract_x
 _atom_site_fract_y
 _atom_site_fract_z
 _atom_site_fract_occupancy
 Mo  Mo1  1  0.66666  0.33331  0.34698  1
 S  S1  1  0.66666  0.33333  0.05940  1
 S  S2  1  0.66666  0.33332  0.52257  1
 S  S3  1  0.66666  0.33332  0.17140  1
 S  S4  1  0.66666  0.33333  0.63457  1
 Se  Se1  1  0.33332  0.66663  0.40821  1
 Se  Se2  1  0.33332  0.66663  0.28575  1
 W  W1  1  0.33333  0.66667  0.11537  1
 W  W2  1  0.33333  0.66667  0.57860  1
