CIF file written using JARVIS-Tools package.
data_HfIr
_symmetry_space_group_name_H-M  'Pmma'
_cell_length_a       3.05019
_cell_length_b       4.69199
_cell_length_c       4.90295
_cell_angle_alpha    90
_cell_angle_beta     90
_cell_angle_gamma    90

_symmetry_Int_Tables_number  51
_chemical_formula_structural  HfIr
_chemical_formula_sum  Hf2Ir2
_cell_volume  70.16832593542989
_cell_formula_units_Z  2
loop_
  _symmetry_equiv_pos_site_id
 _symmetry_equiv_pos_as_xyz
 1  'x, y, z'
loop_
 _atom_site_type_symbol
 _atom_site_label
 _atom_site_symmetry_multiplicity
 _atom_site_fract_x
 _atom_site_fract_y
 _atom_site_fract_z
 _atom_site_fract_occupancy
 Hf  Hf1  1  0.50000  0.25000  0.26918  1
 Hf  Hf2  1  0.50000  0.75000  0.73082  1
 Ir  Ir1  1  0.00000  0.75000  0.21198  1
 Ir  Ir2  1  0.00000  0.25000  0.78802  1
