CIF file written using JARVIS-Tools package.
data_Ce2CdSe4
_symmetry_space_group_name_H-M  'I-42d'
_cell_length_a       7.73209
_cell_length_b       7.73209
_cell_length_c       7.73209
_cell_angle_alpha    110.692
_cell_angle_beta     110.692
_cell_angle_gamma    107.056

_symmetry_Int_Tables_number  122
_chemical_formula_structural  Ce2CdSe4
_chemical_formula_sum  Ce4Cd2Se8
_cell_volume  355.3799804575946
_cell_formula_units_Z  2
loop_
  _symmetry_equiv_pos_site_id
 _symmetry_equiv_pos_as_xyz
 1  'x, y, z'
loop_
 _atom_site_type_symbol
 _atom_site_label
 _atom_site_symmetry_multiplicity
 _atom_site_fract_x
 _atom_site_fract_y
 _atom_site_fract_z
 _atom_site_fract_occupancy
 Cd  Cd1  1  0.62500  0.37500  0.25000  1
 Cd  Cd2  1  0.87500  0.12500  0.75000  1
 Ce  Ce1  1  0.11398  0.75000  0.86398  1
 Ce  Ce2  1  0.25000  0.61398  0.36398  1
 Ce  Ce3  1  0.38602  0.25000  0.63602  1
 Ce  Ce4  1  0.75000  0.88602  0.13602  1
 Se  Se1  1  0.00744  0.87625  0.51058  1
 Se  Se2  1  0.99686  0.36567  0.48942  1
 Se  Se3  1  0.49256  0.00314  0.86881  1
 Se  Se4  1  0.12375  0.13433  0.13119  1
 Se  Se5  1  0.37625  0.50744  0.01058  1
 Se  Se6  1  0.63433  0.62375  0.63119  1
 Se  Se7  1  0.50314  0.99256  0.36881  1
 Se  Se8  1  0.86567  0.49686  0.98942  1
