CIF file written using JARVIS-Tools package.
data_MnSnB2O6
_symmetry_space_group_name_H-M  'R-3'
_cell_length_a       5.81604
_cell_length_b       5.81604
_cell_length_c       5.81604
_cell_angle_alpha    48.9232
_cell_angle_beta     48.9232
_cell_angle_gamma    48.9232

_symmetry_Int_Tables_number  148
_chemical_formula_structural  MnSnB2O6
_chemical_formula_sum  MnSnB2O6
_cell_volume  102.6319725535088
_cell_formula_units_Z  1
loop_
  _symmetry_equiv_pos_site_id
 _symmetry_equiv_pos_as_xyz
 1  'x, y, z'
loop_
 _atom_site_type_symbol
 _atom_site_label
 _atom_site_symmetry_multiplicity
 _atom_site_fract_x
 _atom_site_fract_y
 _atom_site_fract_z
 _atom_site_fract_occupancy
 B  B1  1  0.75406  0.75406  0.75406  1
 B  B2  1  0.24594  0.24594  0.24594  1
 Mn  Mn1  1  0.00000  0.00000  0.00000  1
 O  O1  1  0.04501  0.74445  0.47022  1
 O  O2  1  0.74445  0.47022  0.04502  1
 O  O3  1  0.52978  0.95498  0.25555  1
 O  O4  1  0.47022  0.04502  0.74445  1
 O  O5  1  0.95499  0.25555  0.52978  1
 O  O6  1  0.25555  0.52978  0.95499  1
 Sn  Sn1  1  0.50000  0.50000  0.50000  1
