CIF file written using JARVIS-Tools package.
data_MgV2O4
_symmetry_space_group_name_H-M  'Cmcm'
_cell_length_a       2.82408
_cell_length_b       5.01589
_cell_length_c       9.87147
_cell_angle_alpha    90
_cell_angle_beta     90
_cell_angle_gamma    106.351

_symmetry_Int_Tables_number  63
_chemical_formula_structural  MgV2O4
_chemical_formula_sum  Mg2V4O8
_cell_volume  134.17653881533826
_cell_formula_units_Z  2
loop_
  _symmetry_equiv_pos_site_id
 _symmetry_equiv_pos_as_xyz
 1  'x, y, z'
loop_
 _atom_site_type_symbol
 _atom_site_label
 _atom_site_symmetry_multiplicity
 _atom_site_fract_x
 _atom_site_fract_y
 _atom_site_fract_z
 _atom_site_fract_occupancy
 Mg  Mg1  1  0.38243  0.76486  0.75000  1
 Mg  Mg2  1  0.61757  0.23514  0.25000  1
 O  O1  1  0.22517  0.45033  0.38344  1
 O  O2  1  0.77483  0.54967  0.61656  1
 O  O3  1  0.77483  0.54967  0.88344  1
 O  O4  1  0.22517  0.45033  0.11656  1
 O  O5  1  0.96154  0.92307  0.25000  1
 O  O6  1  0.03846  0.07693  0.75000  1
 O  O7  1  0.50000  0.00000  0.00000  1
 O  O8  1  0.50000  0.00000  0.50000  1
 V  V1  1  0.86933  0.73866  0.07253  1
 V  V2  1  0.13067  0.26134  0.92747  1
 V  V3  1  0.86933  0.73866  0.42747  1
 V  V4  1  0.13067  0.26134  0.57253  1
