CIF file written using JARVIS-Tools package.
data_KY3F10
_symmetry_space_group_name_H-M  'R3m'
_cell_length_a       6.05054
_cell_length_b       6.05054
_cell_length_c       6.05054
_cell_angle_alpha    93.6798
_cell_angle_beta     93.6798
_cell_angle_gamma    93.6798

_symmetry_Int_Tables_number  160
_chemical_formula_structural  KY3F10
_chemical_formula_sum  KY3F0
_cell_volume  220.07196548069996
_cell_formula_units_Z  1
loop_
  _symmetry_equiv_pos_site_id
 _symmetry_equiv_pos_as_xyz
 1  'x, y, z'
loop_
 _atom_site_type_symbol
 _atom_site_label
 _atom_site_symmetry_multiplicity
 _atom_site_fract_x
 _atom_site_fract_y
 _atom_site_fract_z
 _atom_site_fract_occupancy
 F  F1  1  0.17629  0.46538  0.85210  1
 F  F2  1  0.17629  0.85210  0.46538  1
 F  F3  1  0.34044  0.34044  0.34044  1
 F  F4  1  0.46538  0.17629  0.85210  1
 F  F5  1  0.46538  0.85210  0.17629  1
 F  F6  1  0.47276  0.76004  0.76004  1
 F  F7  1  0.85210  0.17629  0.46538  1
 F  F8  1  0.85210  0.46538  0.17629  1
 F  F9  1  0.76004  0.47276  0.76004  1
 F  F10  1  0.76004  0.76004  0.47276  1
 K  K1  1  0.05745  0.05745  0.05745  1
 Y  Y1  1  0.52022  0.00928  0.52022  1
 Y  Y2  1  0.52022  0.52022  0.00928  1
 Y  Y3  1  0.00928  0.52022  0.52022  1
