CIF file written using JARVIS-Tools package.
data_KSb4F13
_symmetry_space_group_name_H-M  'I4/m'
_cell_length_a       5.61909
_cell_length_b       7.58391
_cell_length_c       7.58381
_cell_angle_alpha    82.1094
_cell_angle_beta     68.2592
_cell_angle_gamma    68.2568

_symmetry_Int_Tables_number  87
_chemical_formula_structural  KSb4F13
_chemical_formula_sum  KSb4F3
_cell_volume  278.8354120367895
_cell_formula_units_Z  1
loop_
  _symmetry_equiv_pos_site_id
 _symmetry_equiv_pos_as_xyz
 1  'x, y, z'
loop_
 _atom_site_type_symbol
 _atom_site_label
 _atom_site_symmetry_multiplicity
 _atom_site_fract_x
 _atom_site_fract_y
 _atom_site_fract_z
 _atom_site_fract_occupancy
 F  F1  1  0.43311  0.44870  0.68503  1
 F  F2  1  0.45091  0.68257  0.91115  1
 F  F3  1  0.86651  0.08884  0.68257  1
 F  F4  1  0.63794  0.91116  0.31743  1
 F  F5  1  0.00000  0.00000  0.00000  1
 F  F6  1  0.11812  0.31498  0.44870  1
 F  F7  1  0.04463  0.31743  0.08885  1
 F  F8  1  0.54909  0.31743  0.08885  1
 F  F9  1  0.95537  0.68257  0.91115  1
 F  F10  1  0.88188  0.68502  0.55130  1
 F  F11  1  0.13349  0.91116  0.31743  1
 F  F12  1  0.36206  0.08884  0.68257  1
 F  F13  1  0.56689  0.55130  0.31497  1
 K  K1  1  0.50000  0.00000  -0.00000  1
 Sb  Sb1  1  0.00703  0.71913  0.26681  1
 Sb  Sb2  1  0.72617  0.26681  0.28089  1
 Sb  Sb3  1  0.27383  0.73319  0.71911  1
 Sb  Sb4  1  0.99297  0.28087  0.73319  1
