CIF file written using JARVIS-Tools package.
data_MgVSF5
_symmetry_space_group_name_H-M  'P1'
_cell_length_a       5.48376
_cell_length_b       6.13263
_cell_length_c       7.29741
_cell_angle_alpha    103.301
_cell_angle_beta     103.082
_cell_angle_gamma    98.6539

_symmetry_Int_Tables_number  1
_chemical_formula_structural  MgVSF5
_chemical_formula_sum  Mg2V2S2F0
_cell_volume  227.25775294306678
_cell_formula_units_Z  2
loop_
  _symmetry_equiv_pos_site_id
 _symmetry_equiv_pos_as_xyz
 1  'x, y, z'
loop_
 _atom_site_type_symbol
 _atom_site_label
 _atom_site_symmetry_multiplicity
 _atom_site_fract_x
 _atom_site_fract_y
 _atom_site_fract_z
 _atom_site_fract_occupancy
 F  F1  1  0.27191  0.34619  0.09105  1
 F  F2  1  0.57457  0.64070  0.48082  1
 F  F3  1  0.97217  0.63405  0.21663  1
 F  F4  1  0.18159  0.31748  0.46296  1
 F  F5  1  0.62902  0.23534  0.40269  1
 F  F6  1  0.74776  0.22959  0.06428  1
 F  F7  1  0.39256  0.90761  0.66980  1
 F  F8  1  0.14887  0.58907  0.83817  1
 F  F9  1  0.52824  0.78924  0.20430  1
 F  F10  1  0.66174  0.48752  0.83323  1
 Mg  Mg1  1  0.39095  0.58980  0.68126  1
 Mg  Mg2  1  0.63230  0.46497  0.23658  1
 S  S1  1  0.92246  0.06974  0.71609  1
 S  S2  1  0.10227  0.00668  0.33646  1
 V  V1  1  0.51320  0.95417  0.44601  1
 V  V2  1  0.96061  0.37085  0.93344  1
