CIF file written using JARVIS-Tools package.
data_TlPdF3
_symmetry_space_group_name_H-M  'Pm-3m'
_cell_length_a       4.30225
_cell_length_b       4.30237
_cell_length_c       4.30252
_cell_angle_alpha    89.9973
_cell_angle_beta     90.0001
_cell_angle_gamma    89.9984

_symmetry_Int_Tables_number  221
_chemical_formula_structural  TlPdF3
_chemical_formula_sum  TlPdF3
_cell_volume  79.63913483450594
_cell_formula_units_Z  1
loop_
  _symmetry_equiv_pos_site_id
 _symmetry_equiv_pos_as_xyz
 1  'x, y, z'
loop_
 _atom_site_type_symbol
 _atom_site_label
 _atom_site_symmetry_multiplicity
 _atom_site_fract_x
 _atom_site_fract_y
 _atom_site_fract_z
 _atom_site_fract_occupancy
 F  F1  1  -0.00001  0.49789  0.48801  1
 F  F2  1  0.50005  0.49805  0.98802  1
 F  F3  1  0.49995  0.99798  0.48805  1
 Pd  Pd1  1  0.50000  0.49799  0.48802  1
 Tl  Tl1  1  1.00000  0.99809  0.98791  1
