CIF file written using JARVIS-Tools package.
data_SmP5
_symmetry_space_group_name_H-M  'P2_1/m'
_cell_length_a       4.99379
_cell_length_b       9.56868
_cell_length_c       5.44493
_cell_angle_alpha    90
_cell_angle_beta     102.557
_cell_angle_gamma    90

_symmetry_Int_Tables_number  11
_chemical_formula_structural  SmP5
_chemical_formula_sum  Sm2P0
_cell_volume  253.95683945641224
_cell_formula_units_Z  2
loop_
  _symmetry_equiv_pos_site_id
 _symmetry_equiv_pos_as_xyz
 1  'x, y, z'
loop_
 _atom_site_type_symbol
 _atom_site_label
 _atom_site_symmetry_multiplicity
 _atom_site_fract_x
 _atom_site_fract_y
 _atom_site_fract_z
 _atom_site_fract_occupancy
 P  P1  1  0.71841  0.25000  0.10074  1
 P  P2  1  0.28159  0.75000  0.89926  1
 P  P3  1  0.38233  0.40876  0.04369  1
 P  P4  1  0.61767  0.90876  0.95631  1
 P  P5  1  0.61767  0.59124  0.95631  1
 P  P6  1  0.38233  0.09124  0.04369  1
 P  P7  1  0.28788  0.46899  0.40230  1
 P  P8  1  0.71212  0.96899  0.59770  1
 P  P9  1  0.71212  0.53101  0.59770  1
 P  P10  1  0.28788  0.03101  0.40230  1
 Sm  Sm1  1  0.98851  0.25000  0.64985  1
 Sm  Sm2  1  0.01149  0.75000  0.35015  1
