CIF file written using JARVIS-Tools package.
data_AgHgSBr
_symmetry_space_group_name_H-M  'Pmma'
_cell_length_a       4.66217
_cell_length_b       9.79781
_cell_length_c       9.48784
_cell_angle_alpha    90
_cell_angle_beta     90
_cell_angle_gamma    90

_symmetry_Int_Tables_number  51
_chemical_formula_structural  AgHgSBr
_chemical_formula_sum  Ag4Hg4S4Br4
_cell_volume  433.3954609491108
_cell_formula_units_Z  4
loop_
  _symmetry_equiv_pos_site_id
 _symmetry_equiv_pos_as_xyz
 1  'x, y, z'
loop_
 _atom_site_type_symbol
 _atom_site_label
 _atom_site_symmetry_multiplicity
 _atom_site_fract_x
 _atom_site_fract_y
 _atom_site_fract_z
 _atom_site_fract_occupancy
 Ag  Ag1  1  0.00000  0.20701  0.41164  1
 Ag  Ag2  1  0.00000  0.79299  0.58836  1
 Ag  Ag3  1  0.00000  0.20701  0.08836  1
 Ag  Ag4  1  0.00000  0.79299  0.91164  1
 Br  Br1  1  0.00000  0.02181  0.75000  1
 Br  Br2  1  0.00000  0.51778  0.75000  1
 Br  Br3  1  0.00000  0.48222  0.25000  1
 Br  Br4  1  0.00000  0.97819  0.25000  1
 Hg  Hg1  1  0.50000  0.22944  0.75000  1
 Hg  Hg2  1  0.50000  0.77056  0.25000  1
 Hg  Hg3  1  0.50000  0.50000  0.00000  1
 Hg  Hg4  1  0.50000  0.50000  0.50000  1
 S  S1  1  0.50000  0.25345  0.00361  1
 S  S2  1  0.50000  0.74655  -0.00361  1
 S  S3  1  0.50000  0.74655  0.50361  1
 S  S4  1  0.50000  0.25345  0.49639  1
