CIF file written using JARVIS-Tools package.
data_Li3Ni2OF5
_symmetry_space_group_name_H-M  'F222'
_cell_length_a       5.06821
_cell_length_b       5.06804
_cell_length_c       9.18103
_cell_angle_alpha    100.522
_cell_angle_beta     100.521
_cell_angle_gamma    109.749

_symmetry_Int_Tables_number  22
_chemical_formula_structural  Li3Ni2OF5
_chemical_formula_sum  Li6Ni4O2F0
_cell_volume  210.47779848098912
_cell_formula_units_Z  2
loop_
  _symmetry_equiv_pos_site_id
 _symmetry_equiv_pos_as_xyz
 1  'x, y, z'
loop_
 _atom_site_type_symbol
 _atom_site_label
 _atom_site_symmetry_multiplicity
 _atom_site_fract_x
 _atom_site_fract_y
 _atom_site_fract_z
 _atom_site_fract_occupancy
 F  F1  1  0.87281  0.12166  0.24710  1
 F  F2  1  0.53392  0.79934  0.58334  1
 F  F3  1  0.97153  0.68640  0.41768  1
 F  F4  1  0.64689  0.36178  0.74899  1
 F  F5  1  0.04930  0.28397  0.58333  1
 F  F6  1  0.44611  0.23124  0.41767  1
 F  F7  1  0.21171  0.46055  0.91956  1
 F  F8  1  0.70806  0.95919  0.91951  1
 F  F9  1  0.10206  0.88720  0.74900  1
 F  F10  1  0.37417  0.62531  0.24715  1
 Li  Li1  1  0.86231  0.11231  0.72497  1
 Li  Li2  1  0.54166  0.79173  0.08333  1
 Li  Li3  1  0.12495  0.87501  0.25008  1
 Li  Li4  1  0.79176  0.54152  0.58334  1
 Li  Li5  1  0.22095  0.47096  0.44170  1
 Li  Li6  1  0.45835  0.20844  0.91659  1
 Ni  Ni1  1  0.61892  0.36891  0.23785  1
 Ni  Ni2  1  0.29163  0.04168  0.58333  1
 Ni  Ni3  1  0.96446  0.71444  0.92882  1
 Ni  Ni4  1  0.04170  0.29167  0.08333  1
 O  O1  1  0.80242  0.53095  0.08333  1
 O  O2  1  0.28098  0.05240  0.08333  1
