CIF file written using JARVIS-Tools package.
data_ScPPt
_symmetry_space_group_name_H-M  'Pnma'
_cell_length_a       3.82778
_cell_length_b       6.75686
_cell_length_c       7.46421
_cell_angle_alpha    90
_cell_angle_beta     90
_cell_angle_gamma    90

_symmetry_Int_Tables_number  62
_chemical_formula_structural  ScPPt
_chemical_formula_sum  Sc4P4Pt4
_cell_volume  193.05260997863587
_cell_formula_units_Z  4
loop_
  _symmetry_equiv_pos_site_id
 _symmetry_equiv_pos_as_xyz
 1  'x, y, z'
loop_
 _atom_site_type_symbol
 _atom_site_label
 _atom_site_symmetry_multiplicity
 _atom_site_fract_x
 _atom_site_fract_y
 _atom_site_fract_z
 _atom_site_fract_occupancy
 P  P1  1  0.25000  0.76355  0.62727  1
 P  P2  1  0.25000  0.26355  0.87273  1
 P  P3  1  0.75000  0.23645  0.37273  1
 P  P4  1  0.75000  0.73645  0.12727  1
 Pt  Pt1  1  0.25000  0.84243  0.94347  1
 Pt  Pt2  1  0.25000  0.34243  0.55653  1
 Pt  Pt3  1  0.75000  0.65757  0.44347  1
 Pt  Pt4  1  0.75000  0.15757  0.05653  1
 Sc  Sc1  1  0.75000  0.53451  0.81709  1
 Sc  Sc2  1  0.25000  0.96549  0.31709  1
 Sc  Sc3  1  0.75000  0.03451  0.68291  1
 Sc  Sc4  1  0.25000  0.46549  0.18291  1
