CIF file written using JARVIS-Tools package.
data_PrCuS2
_symmetry_space_group_name_H-M  'P2_1/c'
_cell_length_a       6.53229
_cell_length_b       7.26759
_cell_length_c       6.93339
_cell_angle_alpha    90
_cell_angle_beta     97.7204
_cell_angle_gamma    90

_symmetry_Int_Tables_number  14
_chemical_formula_structural  PrCuS2
_chemical_formula_sum  Pr4Cu4S8
_cell_volume  326.17199470203127
_cell_formula_units_Z  4
loop_
  _symmetry_equiv_pos_site_id
 _symmetry_equiv_pos_as_xyz
 1  'x, y, z'
loop_
 _atom_site_type_symbol
 _atom_site_label
 _atom_site_symmetry_multiplicity
 _atom_site_fract_x
 _atom_site_fract_y
 _atom_site_fract_z
 _atom_site_fract_occupancy
 Cu  Cu1  1  0.42769  0.66410  0.95191  1
 Cu  Cu2  1  0.57231  0.33590  0.04809  1
 Cu  Cu3  1  0.57231  0.16410  0.54809  1
 Cu  Cu4  1  0.42769  0.83590  0.45191  1
 Pr  Pr1  1  0.80997  0.94952  0.19964  1
 Pr  Pr2  1  0.19003  0.44952  0.30036  1
 Pr  Pr3  1  0.19003  0.05048  0.80036  1
 Pr  Pr4  1  0.80997  0.55048  0.69964  1
 S  S1  1  0.08651  0.72567  0.99992  1
 S  S2  1  0.91349  0.22567  0.50008  1
 S  S3  1  0.91349  0.27433  0.00008  1
 S  S4  1  0.08651  0.77433  0.49992  1
 S  S5  1  0.40784  0.11365  0.22108  1
 S  S6  1  0.40784  0.38635  0.72108  1
 S  S7  1  0.59216  0.88635  0.77892  1
 S  S8  1  0.59216  0.61365  0.27892  1
