CIF file written using JARVIS-Tools package.
data_MgTiF5
_symmetry_space_group_name_H-M  'C2/c'
_cell_length_a       5.30624
_cell_length_b       5.30624
_cell_length_c       7.4543
_cell_angle_alpha    97.8505
_cell_angle_beta     111.194
_cell_angle_gamma    107.473

_symmetry_Int_Tables_number  15
_chemical_formula_structural  MgTiF5
_chemical_formula_sum  Mg2Ti2F0
_cell_volume  179.4294092857458
_cell_formula_units_Z  2
loop_
  _symmetry_equiv_pos_site_id
 _symmetry_equiv_pos_as_xyz
 1  'x, y, z'
loop_
 _atom_site_type_symbol
 _atom_site_label
 _atom_site_symmetry_multiplicity
 _atom_site_fract_x
 _atom_site_fract_y
 _atom_site_fract_z
 _atom_site_fract_occupancy
 F  F1  1  0.38620  0.13620  0.25000  1
 F  F2  1  0.61380  0.86380  0.75000  1
 F  F3  1  0.57364  0.71640  0.36383  1
 F  F4  1  0.85257  0.20981  0.13617  1
 F  F5  1  0.76077  0.66977  0.04798  1
 F  F6  1  0.12179  0.71280  0.45202  1
 F  F7  1  0.23923  0.33023  0.95202  1
 F  F8  1  0.87821  0.28720  0.54798  1
 F  F9  1  0.14743  0.79019  0.86383  1
 F  F10  1  0.42636  0.28360  0.63617  1
 Mg  Mg1  1  0.27767  0.52767  0.75000  1
 Mg  Mg2  1  0.72233  0.47233  0.25000  1
 Ti  Ti1  1  0.00000  0.00000  0.00000  1
 Ti  Ti2  1  0.50000  -0.00000  0.50000  1
