CIF file written using JARVIS-Tools package.
data_Mn3Zn2O8
_symmetry_space_group_name_H-M  'C2/m'
_cell_length_a       4.94811
_cell_length_b       5.72179
_cell_length_c       5.66903
_cell_angle_alpha    120.308
_cell_angle_beta     100.193
_cell_angle_gamma    89.9999

_symmetry_Int_Tables_number  12
_chemical_formula_structural  Mn3Zn2O8
_chemical_formula_sum  Mn3Zn2O8
_cell_volume  135.62249550223734
_cell_formula_units_Z  1
loop_
  _symmetry_equiv_pos_site_id
 _symmetry_equiv_pos_as_xyz
 1  'x, y, z'
loop_
 _atom_site_type_symbol
 _atom_site_label
 _atom_site_symmetry_multiplicity
 _atom_site_fract_x
 _atom_site_fract_y
 _atom_site_fract_z
 _atom_site_fract_occupancy
 Mn  Mn1  1  0.50000  1.00000  -0.00000  1
 Mn  Mn2  1  -0.00000  0.74484  -0.00000  1
 Mn  Mn3  1  -0.00000  0.25516  -0.00000  1
 O  O1  1  0.09767  0.39383  0.78766  1
 O  O2  1  0.90233  0.60617  0.21234  1
 O  O3  1  0.13040  0.89907  0.79813  1
 O  O4  1  0.86960  0.10093  0.20187  1
 O  O5  1  0.36570  0.34150  0.22881  1
 O  O6  1  0.36570  0.88731  0.22881  1
 O  O7  1  0.63430  0.11269  0.77119  1
 O  O8  1  0.63430  0.65850  0.77119  1
 Zn  Zn1  1  0.59944  0.70750  0.41500  1
 Zn  Zn2  1  0.40056  0.29250  0.58500  1
