CIF file written using JARVIS-Tools package.
data_CaVF4
_symmetry_space_group_name_H-M  'C2/c'
_cell_length_a       5.34751
_cell_length_b       5.39381
_cell_length_c       6.44167
_cell_angle_alpha    111.272
_cell_angle_beta     114.523
_cell_angle_gamma    89.9991

_symmetry_Int_Tables_number  15
_chemical_formula_structural  CaVF4
_chemical_formula_sum  Ca2V2F8
_cell_volume  155.01846435474755
_cell_formula_units_Z  2
loop_
  _symmetry_equiv_pos_site_id
 _symmetry_equiv_pos_as_xyz
 1  'x, y, z'
loop_
 _atom_site_type_symbol
 _atom_site_label
 _atom_site_symmetry_multiplicity
 _atom_site_fract_x
 _atom_site_fract_y
 _atom_site_fract_z
 _atom_site_fract_occupancy
 Ca  Ca1  1  0.25444  0.24891  0.50082  1
 Ca  Ca2  1  0.74529  0.74890  0.50082  1
 F  F1  1  0.83404  0.97588  0.28558  1
 F  F2  1  0.61211  0.64169  0.79314  1
 F  F3  1  0.16572  0.02189  0.71605  1
 F  F4  1  0.67992  0.14168  0.79314  1
 F  F5  1  0.38760  0.35614  0.20850  1
 F  F6  1  0.95046  0.47590  0.28558  1
 F  F7  1  0.31983  0.85614  0.20849  1
 F  F8  1  0.04923  0.52186  0.71604  1
 V  V1  1  0.49988  0.99891  0.00083  1
 V  V2  1  0.99987  0.49891  0.00083  1
