CIF file written using JARVIS-Tools package.
data_MgCr2O5
_symmetry_space_group_name_H-M  'Cmcm'
_cell_length_a       3.64254
_cell_length_b       5.29568
_cell_length_c       11.129
_cell_angle_alpha    90
_cell_angle_beta     90
_cell_angle_gamma    110.116

_symmetry_Int_Tables_number  63
_chemical_formula_structural  MgCr2O5
_chemical_formula_sum  Mg2Cr4O0
_cell_volume  201.579216830759
_cell_formula_units_Z  2
loop_
  _symmetry_equiv_pos_site_id
 _symmetry_equiv_pos_as_xyz
 1  'x, y, z'
loop_
 _atom_site_type_symbol
 _atom_site_label
 _atom_site_symmetry_multiplicity
 _atom_site_fract_x
 _atom_site_fract_y
 _atom_site_fract_z
 _atom_site_fract_occupancy
 Cr  Cr1  1  0.21000  0.42000  0.59658  1
 Cr  Cr2  1  0.79000  0.58000  0.40342  1
 Cr  Cr3  1  0.79000  0.58000  0.09658  1
 Cr  Cr4  1  0.21000  0.42000  0.90342  1
 Mg  Mg1  1  0.89870  0.79741  0.75000  1
 Mg  Mg2  1  0.10130  0.20259  0.25000  1
 O  O1  1  0.69728  0.39457  0.25000  1
 O  O2  1  0.30272  0.60543  0.75000  1
 O  O3  1  0.22999  0.45999  0.07716  1
 O  O4  1  0.77001  0.54001  0.92284  1
 O  O5  1  0.77001  0.54001  0.57716  1
 O  O6  1  0.22999  0.45999  0.42284  1
 O  O7  1  0.04737  0.09475  0.62914  1
 O  O8  1  0.95263  0.90525  0.37086  1
 O  O9  1  0.04737  0.09475  0.87086  1
 O  O10  1  0.95263  0.90525  0.12914  1
