CIF file written using JARVIS-Tools package.
data_BaF2
_symmetry_space_group_name_H-M  'Pnma'
_cell_length_a       4.06477
_cell_length_b       6.7393
_cell_length_c       8.00433
_cell_angle_alpha    90
_cell_angle_beta     90
_cell_angle_gamma    90

_symmetry_Int_Tables_number  62
_chemical_formula_structural  BaF2
_chemical_formula_sum  Ba4F8
_cell_volume  219.26813250625761
_cell_formula_units_Z  4
loop_
  _symmetry_equiv_pos_site_id
 _symmetry_equiv_pos_as_xyz
 1  'x, y, z'
loop_
 _atom_site_type_symbol
 _atom_site_label
 _atom_site_symmetry_multiplicity
 _atom_site_fract_x
 _atom_site_fract_y
 _atom_site_fract_z
 _atom_site_fract_occupancy
 Ba  Ba1  1  0.75000  0.74895  0.38334  1
 Ba  Ba2  1  0.25000  0.75105  0.88334  1
 Ba  Ba3  1  0.25000  0.25105  0.61666  1
 Ba  Ba4  1  0.75000  0.24895  0.11666  1
 F  F1  1  0.25000  0.53095  0.17082  1
 F  F2  1  0.25000  0.14263  0.93062  1
 F  F3  1  0.75000  0.46905  0.82918  1
 F  F4  1  0.75000  0.85737  0.06938  1
 F  F5  1  0.75000  0.96905  0.67082  1
 F  F6  1  0.75000  0.35737  0.43062  1
 F  F7  1  0.25000  0.64263  0.56938  1
 F  F8  1  0.25000  0.03095  0.32918  1
