CIF file written using JARVIS-Tools package.
data_LiFeF4
_symmetry_space_group_name_H-M  'Pbcn'
_cell_length_a       4.60908
_cell_length_b       5.66508
_cell_length_c       10.0583
_cell_angle_alpha    90
_cell_angle_beta     90
_cell_angle_gamma    90

_symmetry_Int_Tables_number  60
_chemical_formula_structural  LiFeF4
_chemical_formula_sum  Li4Fe4F6
_cell_volume  262.63090939152903
_cell_formula_units_Z  4
loop_
  _symmetry_equiv_pos_site_id
 _symmetry_equiv_pos_as_xyz
 1  'x, y, z'
loop_
 _atom_site_type_symbol
 _atom_site_label
 _atom_site_symmetry_multiplicity
 _atom_site_fract_x
 _atom_site_fract_y
 _atom_site_fract_z
 _atom_site_fract_occupancy
 F  F1  1  0.72298  0.98643  0.65741  1
 F  F2  1  0.23281  0.23948  0.58163  1
 F  F3  1  0.23281  0.76052  0.08163  1
 F  F4  1  0.22298  0.48643  0.84259  1
 F  F5  1  0.76719  0.76052  0.41837  1
 F  F6  1  0.27702  0.01357  0.34259  1
 F  F7  1  0.27702  0.98643  0.84259  1
 F  F8  1  0.22298  0.51357  0.34259  1
 F  F9  1  0.26719  0.73948  0.58163  1
 F  F10  1  0.73281  0.26052  0.41837  1
 F  F11  1  0.73281  0.73948  0.91837  1
 F  F12  1  0.76719  0.23948  0.91837  1
 F  F13  1  0.72298  0.01357  0.15741  1
 F  F14  1  0.77702  0.51357  0.15741  1
 F  F15  1  0.77702  0.48643  0.65741  1
 F  F16  1  0.26719  0.26052  0.08163  1
 Fe  Fe1  1  0.50000  0.00000  0.50000  1
 Fe  Fe2  1  0.50000  0.00000  0.00000  1
 Fe  Fe3  1  0.00000  0.50000  0.50000  1
 Fe  Fe4  1  0.00000  0.50000  0.00000  1
 Li  Li1  1  0.50000  0.69084  0.75000  1
 Li  Li2  1  0.50000  0.30916  0.25000  1
 Li  Li3  1  0.00000  0.19084  0.75000  1
 Li  Li4  1  0.00000  0.80916  0.25000  1
