CIF file written using JARVIS-Tools package.
data_Ca3FeRhO6
_symmetry_space_group_name_H-M  'R-3c'
_cell_length_a       6.41229
_cell_length_b       6.41229
_cell_length_c       6.41229
_cell_angle_alpha    91.6086
_cell_angle_beta     91.6086
_cell_angle_gamma    91.6087

_symmetry_Int_Tables_number  167
_chemical_formula_structural  Ca3FeRhO6
_chemical_formula_sum  Ca6Fe2Rh2O2
_cell_volume  263.33891058806284
_cell_formula_units_Z  2
loop_
  _symmetry_equiv_pos_site_id
 _symmetry_equiv_pos_as_xyz
 1  'x, y, z'
loop_
 _atom_site_type_symbol
 _atom_site_label
 _atom_site_symmetry_multiplicity
 _atom_site_fract_x
 _atom_site_fract_y
 _atom_site_fract_z
 _atom_site_fract_occupancy
 Ca  Ca1  1  0.61883  0.88117  0.25000  1
 Ca  Ca2  1  0.25000  0.61883  0.88117  1
 Ca  Ca3  1  0.88117  0.25000  0.61883  1
 Ca  Ca4  1  0.38117  0.11883  0.75000  1
 Ca  Ca5  1  0.11883  0.75000  0.38117  1
 Ca  Ca6  1  0.75000  0.38117  0.11883  1
 Fe  Fe1  1  0.25000  0.25000  0.25000  1
 Fe  Fe2  1  0.75000  0.75000  0.75000  1
 O  O1  1  0.29943  0.96050  0.09744  1
 O  O2  1  0.59744  0.46050  0.79943  1
 O  O3  1  0.46050  0.79943  0.59744  1
 O  O4  1  0.03950  0.90256  0.70057  1
 O  O5  1  0.79943  0.59744  0.46050  1
 O  O6  1  0.70057  0.03950  0.90256  1
 O  O7  1  0.96050  0.09744  0.29943  1
 O  O8  1  0.40256  0.53950  0.20057  1
 O  O9  1  0.53950  0.20057  0.40256  1
 O  O10  1  0.90256  0.70057  0.03950  1
 O  O11  1  0.20057  0.40256  0.53950  1
 O  O12  1  0.09744  0.29943  0.96050  1
 Rh  Rh1  1  0.50000  0.50000  0.50000  1
 Rh  Rh2  1  0.00000  0.00000  0.00000  1
