CIF file written using JARVIS-Tools package.
data_CaSn2O5
_symmetry_space_group_name_H-M  'Cmcm'
_cell_length_a       3.97822
_cell_length_b       5.80925
_cell_length_c       10.8343
_cell_angle_alpha    90
_cell_angle_beta     90
_cell_angle_gamma    110.02

_symmetry_Int_Tables_number  63
_chemical_formula_structural  CaSn2O5
_chemical_formula_sum  Ca2Sn4O0
_cell_volume  235.2542241586872
_cell_formula_units_Z  2
loop_
  _symmetry_equiv_pos_site_id
 _symmetry_equiv_pos_as_xyz
 1  'x, y, z'
loop_
 _atom_site_type_symbol
 _atom_site_label
 _atom_site_symmetry_multiplicity
 _atom_site_fract_x
 _atom_site_fract_y
 _atom_site_fract_z
 _atom_site_fract_occupancy
 Ca  Ca1  1  0.80720  0.61428  0.75000  1
 Ca  Ca2  1  0.19280  0.38572  0.25000  1
 O  O1  1  0.80143  0.60302  0.25000  1
 O  O2  1  0.19857  0.39698  0.75000  1
 O  O3  1  0.30590  0.61186  0.05319  1
 O  O4  1  0.69411  0.38814  0.94681  1
 O  O5  1  0.69411  0.38814  0.55319  1
 O  O6  1  0.30590  0.61186  0.44681  1
 O  O7  1  -0.04798  -0.09538  0.60943  1
 O  O8  1  0.04798  0.09538  0.39057  1
 O  O9  1  -0.04798  -0.09538  0.89057  1
 O  O10  1  0.04798  0.09538  0.10943  1
 Sn  Sn1  1  0.13157  0.26304  0.56332  1
 Sn  Sn2  1  0.86843  0.73696  0.43668  1
 Sn  Sn3  1  0.86843  0.73696  0.06332  1
 Sn  Sn4  1  0.13157  0.26304  0.93668  1
