CIF file written using JARVIS-Tools package.
data_CaCo2O4
_symmetry_space_group_name_H-M  'Fd-3m'
_cell_length_a       5.99823
_cell_length_b       5.99822
_cell_length_c       5.99816
_cell_angle_alpha    60.001
_cell_angle_beta     60.0008
_cell_angle_gamma    60.0016

_symmetry_Int_Tables_number  227
_chemical_formula_structural  CaCo2O4
_chemical_formula_sum  Ca2Co4O8
_cell_volume  152.6018552842012
_cell_formula_units_Z  2
loop_
  _symmetry_equiv_pos_site_id
 _symmetry_equiv_pos_as_xyz
 1  'x, y, z'
loop_
 _atom_site_type_symbol
 _atom_site_label
 _atom_site_symmetry_multiplicity
 _atom_site_fract_x
 _atom_site_fract_y
 _atom_site_fract_z
 _atom_site_fract_occupancy
 Ca  Ca1  1  0.87501  0.87501  0.87500  1
 Ca  Ca2  1  0.12499  0.12499  0.12500  1
 Co  Co1  1  0.50000  0.00000  0.50000  1
 Co  Co2  1  0.00000  0.50000  0.50000  1
 Co  Co3  1  0.50000  0.50000  0.00000  1
 Co  Co4  1  0.50000  0.50000  0.50000  1
 O  O1  1  0.72808  0.72808  0.72808  1
 O  O2  1  0.27192  0.27192  0.68424  1
 O  O3  1  0.27192  0.68424  0.27192  1
 O  O4  1  0.68424  0.27192  0.27192  1
 O  O5  1  0.72808  0.31576  0.72808  1
 O  O6  1  0.31576  0.72808  0.72808  1
 O  O7  1  0.27192  0.27192  0.27192  1
 O  O8  1  0.72808  0.72808  0.31576  1
