CIF file written using JARVIS-Tools package.
data_Li2MnF4
_symmetry_space_group_name_H-M  'C2'
_cell_length_a       5.30091
_cell_length_b       5.30091
_cell_length_c       6.07113
_cell_angle_alpha    91.2612
_cell_angle_beta     88.7388
_cell_angle_gamma    119.203

_symmetry_Int_Tables_number  5
_chemical_formula_structural  Li2MnF4
_chemical_formula_sum  Li4Mn2F8
_cell_volume  148.8653331616933
_cell_formula_units_Z  2
loop_
  _symmetry_equiv_pos_site_id
 _symmetry_equiv_pos_as_xyz
 1  'x, y, z'
loop_
 _atom_site_type_symbol
 _atom_site_label
 _atom_site_symmetry_multiplicity
 _atom_site_fract_x
 _atom_site_fract_y
 _atom_site_fract_z
 _atom_site_fract_occupancy
 F  F1  1  0.35251  0.90279  0.95954  1
 F  F2  1  0.14927  0.70657  0.42760  1
 F  F3  1  0.26321  0.28018  0.73576  1
 F  F4  1  0.78767  0.73001  0.75373  1
 F  F5  1  0.73001  0.78767  0.24627  1
 F  F6  1  0.28018  0.26321  0.26424  1
 F  F7  1  0.70657  0.14927  0.57240  1
 F  F8  1  0.90279  0.35251  0.04046  1
 Li  Li1  1  0.31867  0.63571  0.17314  1
 Li  Li2  1  0.01706  0.01706  0.50000  1
 Li  Li3  1  0.02508  0.02508  0.00000  1
 Li  Li4  1  0.63571  0.31867  0.82686  1
 Mn  Mn1  1  0.39452  0.70792  0.68310  1
 Mn  Mn2  1  0.70792  0.39452  0.31690  1
