CIF file written using JARVIS-Tools package.
data_InI3O9
_symmetry_space_group_name_H-M  'R-3'
_cell_length_a       7.37292
_cell_length_b       7.37292
_cell_length_c       7.37292
_cell_angle_alpha    83.2323
_cell_angle_beta     83.2323
_cell_angle_gamma    83.2323

_symmetry_Int_Tables_number  148
_chemical_formula_structural  InI3O9
_chemical_formula_sum  In2I6O8
_cell_volume  393.0233102420642
_cell_formula_units_Z  2
loop_
  _symmetry_equiv_pos_site_id
 _symmetry_equiv_pos_as_xyz
 1  'x, y, z'
loop_
 _atom_site_type_symbol
 _atom_site_label
 _atom_site_symmetry_multiplicity
 _atom_site_fract_x
 _atom_site_fract_y
 _atom_site_fract_z
 _atom_site_fract_occupancy
 I  I1  1  0.28651  0.87402  0.58761  1
 I  I2  1  0.41239  0.71349  0.12598  1
 I  I3  1  0.12598  0.41239  0.71349  1
 I  I4  1  0.71349  0.12598  0.41239  1
 I  I5  1  0.58761  0.28651  0.87402  1
 I  I6  1  0.87402  0.58761  0.28651  1
 In  In1  1  0.82350  0.82350  0.82350  1
 In  In2  1  0.17650  0.17650  0.17650  1
 O  O1  1  0.73223  0.42530  0.21301  1
 O  O2  1  0.42530  0.21301  0.73223  1
 O  O3  1  0.78699  0.26777  0.57470  1
 O  O4  1  0.26777  0.57470  0.78699  1
 O  O5  1  0.57470  0.78699  0.26777  1
 O  O6  1  0.30746  0.08689  0.42757  1
 O  O7  1  0.08689  0.42757  0.30746  1
 O  O8  1  0.29398  0.93589  0.04370  1
 O  O9  1  0.06411  0.95630  0.70602  1
 O  O10  1  0.93589  0.04370  0.29398  1
 O  O11  1  0.21301  0.73223  0.42530  1
 O  O12  1  0.70602  0.06411  0.95630  1
 O  O13  1  0.57243  0.69254  0.91311  1
 O  O14  1  0.91311  0.57243  0.69254  1
 O  O15  1  0.69254  0.91311  0.57243  1
 O  O16  1  0.42757  0.30746  0.08689  1
 O  O17  1  0.04370  0.29398  0.93589  1
 O  O18  1  0.95630  0.70602  0.06411  1
