CIF file written using JARVIS-Tools package.
data_TaReO6
_symmetry_space_group_name_H-M  'P2_1/m'
_cell_length_a       5.24936
_cell_length_b       7.47538
_cell_length_c       5.41701
_cell_angle_alpha    90
_cell_angle_beta     90.034
_cell_angle_gamma    90

_symmetry_Int_Tables_number  11
_chemical_formula_structural  TaReO6
_chemical_formula_sum  Ta2Re2O2
_cell_volume  212.56895474589285
_cell_formula_units_Z  2
loop_
  _symmetry_equiv_pos_site_id
 _symmetry_equiv_pos_as_xyz
 1  'x, y, z'
loop_
 _atom_site_type_symbol
 _atom_site_label
 _atom_site_symmetry_multiplicity
 _atom_site_fract_x
 _atom_site_fract_y
 _atom_site_fract_z
 _atom_site_fract_occupancy
 O  O1  1  0.21952  0.45539  0.79647  1
 O  O2  1  0.70185  0.54391  0.72298  1
 O  O3  1  0.78048  0.54461  0.20353  1
 O  O4  1  0.29815  0.04391  0.27702  1
 O  O5  1  0.90433  0.25000  0.48612  1
 O  O6  1  0.29815  0.45609  0.27702  1
 O  O7  1  0.70185  0.95609  0.72298  1
 O  O8  1  0.21952  0.04461  0.79647  1
 O  O9  1  0.41304  0.75000  0.01203  1
 O  O10  1  0.78048  0.95539  0.20353  1
 O  O11  1  0.58696  0.25000  0.98797  1
 O  O12  1  0.09567  0.75000  0.51388  1
 Re  Re1  1  0.50000  0.00000  0.00000  1
 Re  Re2  1  0.50000  0.50000  0.00000  1
 Ta  Ta1  1  0.00000  0.00000  0.50000  1
 Ta  Ta2  1  0.00000  0.50000  0.50000  1
