CIF file written using JARVIS-Tools package.
data_Sm3TaO7
_symmetry_space_group_name_H-M  'Cmcm'
_cell_length_a       6.57753
_cell_length_b       6.57753
_cell_length_c       7.62362
_cell_angle_alpha    90
_cell_angle_beta     90
_cell_angle_gamma    111.106

_symmetry_Int_Tables_number  63
_chemical_formula_structural  Sm3TaO7
_chemical_formula_sum  Sm6Ta2O4
_cell_volume  307.7017717463077
_cell_formula_units_Z  2
loop_
  _symmetry_equiv_pos_site_id
 _symmetry_equiv_pos_as_xyz
 1  'x, y, z'
loop_
 _atom_site_type_symbol
 _atom_site_label
 _atom_site_symmetry_multiplicity
 _atom_site_fract_x
 _atom_site_fract_y
 _atom_site_fract_z
 _atom_site_fract_occupancy
 O  O1  1  0.43797  0.18257  0.53642  1
 O  O2  1  0.15446  0.89185  0.25000  1
 O  O3  1  0.10815  0.84554  0.75000  1
 O  O4  1  0.84554  0.10815  0.75000  1
 O  O5  1  0.56203  0.81743  0.46358  1
 O  O6  1  0.18257  0.43797  0.96358  1
 O  O7  1  0.56203  0.81743  0.03642  1
 O  O8  1  0.57539  0.57539  0.75000  1
 O  O9  1  0.42461  0.42461  0.25000  1
 O  O10  1  0.81743  0.56203  0.03642  1
 O  O11  1  0.89185  0.15446  0.25000  1
 O  O12  1  0.43797  0.18257  0.96358  1
 O  O13  1  0.81743  0.56203  0.46358  1
 O  O14  1  0.18257  0.43797  0.53642  1
 Sm  Sm1  1  0.52142  0.06701  0.25000  1
 Sm  Sm2  1  0.93299  0.47858  0.75000  1
 Sm  Sm3  1  0.00000  0.00000  0.50000  1
 Sm  Sm4  1  0.00000  0.00000  0.00000  1
 Sm  Sm5  1  0.47858  0.93299  0.75000  1
 Sm  Sm6  1  0.06701  0.52142  0.25000  1
 Ta  Ta1  1  0.50000  0.50000  0.50000  1
 Ta  Ta2  1  0.50000  0.50000  0.00000  1
