CIF file written using JARVIS-Tools package.
data_Y2Si2Rh
_symmetry_space_group_name_H-M  'C2/m'
_cell_length_a       4.22398
_cell_length_b       5.69907
_cell_length_c       9.13082
_cell_angle_alpha    82.3723
_cell_angle_beta     76.6262
_cell_angle_gamma    68.2482

_symmetry_Int_Tables_number  12
_chemical_formula_structural  Y2Si2Rh
_chemical_formula_sum  Y4Si4Rh2
_cell_volume  198.3486621402459
_cell_formula_units_Z  2
loop_
  _symmetry_equiv_pos_site_id
 _symmetry_equiv_pos_as_xyz
 1  'x, y, z'
loop_
 _atom_site_type_symbol
 _atom_site_label
 _atom_site_symmetry_multiplicity
 _atom_site_fract_x
 _atom_site_fract_y
 _atom_site_fract_z
 _atom_site_fract_occupancy
 Rh  Rh1  1  0.27379  0.07985  0.37257  1
 Rh  Rh2  1  0.72621  0.92015  0.62743  1
 Si  Si1  1  0.64160  0.28269  0.43411  1
 Si  Si2  1  0.51290  0.85389  0.12031  1
 Si  Si3  1  0.35840  0.71731  0.56589  1
 Si  Si4  1  0.48710  0.14611  0.87969  1
 Y  Y1  1  0.99840  0.32780  0.67540  1
 Y  Y2  1  0.81502  0.26160  0.10835  1
 Y  Y3  1  0.00160  0.67220  0.32460  1
 Y  Y4  1  0.18498  0.73840  0.89165  1
