CIF file written using JARVIS-Tools package.
data_TiZnO3
_symmetry_space_group_name_H-M  'R-3'
_cell_length_a       5.52186
_cell_length_b       5.52186
_cell_length_c       5.52187
_cell_angle_alpha    55.2355
_cell_angle_beta     55.2355
_cell_angle_gamma    55.2356

_symmetry_Int_Tables_number  148
_chemical_formula_structural  TiZnO3
_chemical_formula_sum  Ti2Zn2O6
_cell_volume  105.86867802407018
_cell_formula_units_Z  2
loop_
  _symmetry_equiv_pos_site_id
 _symmetry_equiv_pos_as_xyz
 1  'x, y, z'
loop_
 _atom_site_type_symbol
 _atom_site_label
 _atom_site_symmetry_multiplicity
 _atom_site_fract_x
 _atom_site_fract_y
 _atom_site_fract_z
 _atom_site_fract_occupancy
 O  O1  1  0.77530  0.43706  0.05080  1
 O  O2  1  0.43706  0.05080  0.77530  1
 O  O3  1  0.05080  0.77530  0.43706  1
 O  O4  1  0.22470  0.56294  0.94920  1
 O  O5  1  0.94920  0.22470  0.56294  1
 O  O6  1  0.56294  0.94920  0.22470  1
 Ti  Ti1  1  0.14595  0.14595  0.14595  1
 Ti  Ti2  1  0.85405  0.85405  0.85405  1
 Zn  Zn1  1  0.36159  0.36159  0.36159  1
 Zn  Zn2  1  0.63841  0.63841  0.63841  1
