CIF file written using JARVIS-Tools package.
data_MnGeO3
_symmetry_space_group_name_H-M  'R-3'
_cell_length_a       5.61519
_cell_length_b       5.61519
_cell_length_c       5.6152
_cell_angle_alpha    53.8944
_cell_angle_beta     53.8944
_cell_angle_gamma    53.8944

_symmetry_Int_Tables_number  148
_chemical_formula_structural  MnGeO3
_chemical_formula_sum  Mn2Ge2O6
_cell_volume  107.33197863249433
_cell_formula_units_Z  2
loop_
  _symmetry_equiv_pos_site_id
 _symmetry_equiv_pos_as_xyz
 1  'x, y, z'
loop_
 _atom_site_type_symbol
 _atom_site_label
 _atom_site_symmetry_multiplicity
 _atom_site_fract_x
 _atom_site_fract_y
 _atom_site_fract_z
 _atom_site_fract_occupancy
 Ge  Ge1  1  0.15634  0.15634  0.15634  1
 Ge  Ge2  1  0.84366  0.84366  0.84366  1
 Mn  Mn1  1  0.36616  0.36616  0.36615  1
 Mn  Mn2  1  0.63384  0.63384  0.63384  1
 O  O1  1  0.04443  0.79078  0.43911  1
 O  O2  1  0.79078  0.43911  0.04442  1
 O  O3  1  0.43911  0.04443  0.79078  1
 O  O4  1  0.95557  0.20922  0.56089  1
 O  O5  1  0.56089  0.95557  0.20922  1
 O  O6  1  0.20922  0.56089  0.95557  1
