CIF file written using JARVIS-Tools package.
data_SbO2
_symmetry_space_group_name_H-M  'Pnna'
_cell_length_a       4.87655
_cell_length_b       5.57546
_cell_length_c       11.8975
_cell_angle_alpha    90
_cell_angle_beta     90
_cell_angle_gamma    90

_symmetry_Int_Tables_number  52
_chemical_formula_structural  SbO2
_chemical_formula_sum  Sb8O6
_cell_volume  323.48125511714505
_cell_formula_units_Z  8
loop_
  _symmetry_equiv_pos_site_id
 _symmetry_equiv_pos_as_xyz
 1  'x, y, z'
loop_
 _atom_site_type_symbol
 _atom_site_label
 _atom_site_symmetry_multiplicity
 _atom_site_fract_x
 _atom_site_fract_y
 _atom_site_fract_z
 _atom_site_fract_occupancy
 O  O1  1  0.99699  0.86278  0.18700  1
 O  O2  1  0.92080  0.07959  0.40477  1
 O  O3  1  0.00301  0.13722  0.81300  1
 O  O4  1  0.50301  0.63722  0.68700  1
 O  O5  1  0.49699  0.13722  0.68700  1
 O  O6  1  0.50301  0.86278  0.31300  1
 O  O7  1  0.07920  0.57959  0.40477  1
 O  O8  1  0.42080  0.57959  0.09523  1
 O  O9  1  0.00301  0.36278  0.18700  1
 O  O10  1  0.92080  0.42041  0.59523  1
 O  O11  1  0.49699  0.36278  0.31300  1
 O  O12  1  0.07920  0.92041  0.59523  1
 O  O13  1  0.57920  0.42041  0.90477  1
 O  O14  1  0.42080  0.92041  0.90477  1
 O  O15  1  0.99699  0.63722  0.81300  1
 O  O16  1  0.57920  0.07959  0.09523  1
 Sb  Sb1  1  0.75000  0.11854  0.25000  1
 Sb  Sb2  1  0.71760  0.75000  0.00000  1
 Sb  Sb3  1  0.25000  0.88146  0.75000  1
 Sb  Sb4  1  0.78240  0.75000  0.50000  1
 Sb  Sb5  1  0.75000  0.38146  0.75000  1
 Sb  Sb6  1  0.28240  0.25000  0.00000  1
 Sb  Sb7  1  0.25000  0.61854  0.25000  1
 Sb  Sb8  1  0.21760  0.25000  0.50000  1
