CIF file written using JARVIS-Tools package.
data_Ba2YB2ClO6
_symmetry_space_group_name_H-M  'P2_1/m'
_cell_length_a       6.46722
_cell_length_b       5.34521
_cell_length_c       11.318
_cell_angle_alpha    90
_cell_angle_beta     96.5583
_cell_angle_gamma    90

_symmetry_Int_Tables_number  11
_chemical_formula_structural  Ba2YB2ClO6
_chemical_formula_sum  Ba4Y2B4Cl2O2
_cell_volume  388.68532892811027
_cell_formula_units_Z  2
loop_
  _symmetry_equiv_pos_site_id
 _symmetry_equiv_pos_as_xyz
 1  'x, y, z'
loop_
 _atom_site_type_symbol
 _atom_site_label
 _atom_site_symmetry_multiplicity
 _atom_site_fract_x
 _atom_site_fract_y
 _atom_site_fract_z
 _atom_site_fract_occupancy
 B  B1  1  0.21061  0.25000  0.57297  1
 B  B2  1  0.37665  0.25000  0.22598  1
 B  B3  1  0.62335  0.75000  0.77402  1
 B  B4  1  0.78939  0.75000  0.42703  1
 Ba  Ba1  1  0.09225  0.75000  0.70586  1
 Ba  Ba2  1  0.90775  0.25000  0.29414  1
 Ba  Ba3  1  0.34072  0.75000  0.07396  1
 Ba  Ba4  1  0.65928  0.25000  0.92604  1
 Cl  Cl1  1  0.14932  0.25000  0.91321  1
 Cl  Cl2  1  0.85068  0.75000  0.08679  1
 O  O1  1  0.00778  0.25000  0.59388  1
 O  O2  1  0.52445  0.25000  0.14695  1
 O  O3  1  0.29163  0.47175  0.26273  1
 O  O4  1  0.70837  0.97175  0.73727  1
 O  O5  1  0.70837  0.52825  0.73727  1
 O  O6  1  0.29163  0.02825  0.26273  1
 O  O7  1  0.67504  0.53082  0.43463  1
 O  O8  1  0.32496  0.03082  0.56537  1
 O  O9  1  0.32496  0.46918  0.56537  1
 O  O10  1  0.67504  0.96918  0.43463  1
 O  O11  1  0.99222  0.75000  0.40612  1
 O  O12  1  0.47555  0.75000  0.85305  1
 Y  Y1  1  0.34677  0.75000  0.41342  1
 Y  Y2  1  0.65323  0.25000  0.58658  1
