CIF file written using JARVIS-Tools package.
data_CaCu2O4
_symmetry_space_group_name_H-M  'Imma'
_cell_length_a       6.1543
_cell_length_b       6.1543
_cell_length_c       6.13313
_cell_angle_alpha    60.1138
_cell_angle_beta     60.1138
_cell_angle_gamma    60.7397

_symmetry_Int_Tables_number  74
_chemical_formula_structural  CaCu2O4
_chemical_formula_sum  Ca2Cu4O8
_cell_volume  165.4422815167203
_cell_formula_units_Z  2
loop_
  _symmetry_equiv_pos_site_id
 _symmetry_equiv_pos_as_xyz
 1  'x, y, z'
loop_
 _atom_site_type_symbol
 _atom_site_label
 _atom_site_symmetry_multiplicity
 _atom_site_fract_x
 _atom_site_fract_y
 _atom_site_fract_z
 _atom_site_fract_occupancy
 Ca  Ca1  1  0.12500  0.62500  0.62500  1
 Ca  Ca2  1  0.62500  0.12500  0.62500  1
 Cu  Cu1  1  0.98555  0.98555  0.01445  1
 Cu  Cu2  1  0.26445  0.26445  0.23555  1
 Cu  Cu3  1  0.62500  0.62500  0.12500  1
 Cu  Cu4  1  0.62500  0.62500  0.62500  1
 O  O1  1  0.40634  0.40634  0.33338  1
 O  O2  1  0.40123  0.87679  0.36099  1
 O  O3  1  0.40634  0.40634  0.85393  1
 O  O4  1  0.87679  0.40123  0.36099  1
 O  O5  1  0.37321  0.84877  0.88901  1
 O  O6  1  0.84877  0.37321  0.88901  1
 O  O7  1  0.84366  0.84366  0.39607  1
 O  O8  1  0.84366  0.84366  0.91662  1
