CIF file written using JARVIS-Tools package.
data_FeO2
_symmetry_space_group_name_H-M  'P4_2/mnm'
_cell_length_a       5.18737
_cell_length_b       5.18736
_cell_length_c       5.71266
_cell_angle_alpha    56.5896
_cell_angle_beta     56.5896
_cell_angle_gamma    72.3496

_symmetry_Int_Tables_number  136
_chemical_formula_structural  FeO2
_chemical_formula_sum  Fe4O8
_cell_volume  107.11324014090387
_cell_formula_units_Z  4
loop_
  _symmetry_equiv_pos_site_id
 _symmetry_equiv_pos_as_xyz
 1  'x, y, z'
loop_
 _atom_site_type_symbol
 _atom_site_label
 _atom_site_symmetry_multiplicity
 _atom_site_fract_x
 _atom_site_fract_y
 _atom_site_fract_z
 _atom_site_fract_occupancy
 Fe  Fe1  1  0.00000  0.00000  0.25000  1
 Fe  Fe2  1  0.50000  0.50000  0.00000  1
 Fe  Fe3  1  0.50000  0.50000  0.50000  1
 Fe  Fe4  1  -0.00000  -0.00000  0.75000  1
 O  O1  1  0.19624  0.19624  0.30375  1
 O  O2  1  0.19624  0.19624  0.80376  1
 O  O3  1  0.30377  0.69626  0.24999  1
 O  O4  1  0.69626  0.30377  0.24999  1
 O  O5  1  0.30374  0.69623  0.75001  1
 O  O6  1  0.69623  0.30374  0.75001  1
 O  O7  1  0.80376  0.80376  0.19624  1
 O  O8  1  0.80376  0.80376  0.69625  1
