CIF file written using JARVIS-Tools package.
data_LuPO4
_symmetry_space_group_name_H-M  'I4_1/a'
_cell_length_a       4.76667
_cell_length_b       4.76667
_cell_length_c       6.42959
_cell_angle_alpha    111.758
_cell_angle_beta     111.758
_cell_angle_gamma    90

_symmetry_Int_Tables_number  88
_chemical_formula_structural  LuPO4
_chemical_formula_sum  Lu2P2O8
_cell_volume  124.40550719477017
_cell_formula_units_Z  2
loop_
  _symmetry_equiv_pos_site_id
 _symmetry_equiv_pos_as_xyz
 1  'x, y, z'
loop_
 _atom_site_type_symbol
 _atom_site_label
 _atom_site_symmetry_multiplicity
 _atom_site_fract_x
 _atom_site_fract_y
 _atom_site_fract_z
 _atom_site_fract_occupancy
 Lu  Lu1  1  0.37500  0.12500  0.75000  1
 Lu  Lu2  1  0.62500  0.87500  0.25000  1
 O  O1  1  0.06857  0.69497  0.39974  1
 O  O2  1  0.66882  0.79522  0.60026  1
 O  O3  1  0.33118  0.20478  0.39974  1
 O  O4  1  0.70478  0.56857  0.89974  1
 O  O5  1  0.80503  0.16882  0.10026  1
 O  O6  1  0.19497  0.83118  0.89974  1
 O  O7  1  0.29522  0.43143  0.10026  1
 O  O8  1  0.93143  0.30503  0.60026  1
 P  P1  1  0.87500  0.62500  0.75000  1
 P  P2  1  0.12500  0.37500  0.25000  1
