CIF file written using JARVIS-Tools package.
data_AlHO2
_symmetry_space_group_name_H-M  'Pnma'
_cell_length_a       3.70396
_cell_length_b       12.3716
_cell_length_c       2.88776
_cell_angle_alpha    90
_cell_angle_beta     90
_cell_angle_gamma    90

_symmetry_Int_Tables_number  62
_chemical_formula_structural  AlHO2
_chemical_formula_sum  Al4H4O8
_cell_volume  132.3284607373175
_cell_formula_units_Z  4
loop_
  _symmetry_equiv_pos_site_id
 _symmetry_equiv_pos_as_xyz
 1  'x, y, z'
loop_
 _atom_site_type_symbol
 _atom_site_label
 _atom_site_symmetry_multiplicity
 _atom_site_fract_x
 _atom_site_fract_y
 _atom_site_fract_z
 _atom_site_fract_occupancy
 Al  Al1  1  0.75051  0.56817  0.27051  1
 Al  Al2  1  0.74949  0.06817  0.27051  1
 Al  Al3  1  0.24949  0.43183  0.77051  1
 Al  Al4  1  0.25051  0.93183  0.77051  1
 H  H1  1  0.56883  0.22448  0.77051  1
 H  H2  1  0.93117  0.72448  0.77051  1
 H  H3  1  0.43117  0.77552  0.27051  1
 H  H4  1  0.06883  0.27552  0.27051  1
 O  O1  1  0.75097  0.96044  0.77051  1
 O  O2  1  0.74903  0.46044  0.77051  1
 O  O3  1  0.24903  0.03956  0.27051  1
 O  O4  1  0.25097  0.53956  0.27051  1
 O  O5  1  0.75755  0.16887  0.77052  1
 O  O6  1  0.74245  0.66887  0.77052  1
 O  O7  1  0.24245  0.83113  0.27052  1
 O  O8  1  0.25755  0.33113  0.27052  1
