CIF file written using JARVIS-Tools package.
data_Hf2N2O
_symmetry_space_group_name_H-M  'Pnma'
_cell_length_a       3.09259
_cell_length_b       8.41709
_cell_length_c       8.46581
_cell_angle_alpha    90
_cell_angle_beta     90
_cell_angle_gamma    90

_symmetry_Int_Tables_number  62
_chemical_formula_structural  Hf2N2O
_chemical_formula_sum  Hf8N8O4
_cell_volume  220.37014080824108
_cell_formula_units_Z  4
loop_
  _symmetry_equiv_pos_site_id
 _symmetry_equiv_pos_as_xyz
 1  'x, y, z'
loop_
 _atom_site_type_symbol
 _atom_site_label
 _atom_site_symmetry_multiplicity
 _atom_site_fract_x
 _atom_site_fract_y
 _atom_site_fract_z
 _atom_site_fract_occupancy
 Hf  Hf1  1  0.25000  0.17888  0.00481  1
 Hf  Hf2  1  0.25000  0.50098  0.18192  1
 Hf  Hf3  1  0.75000  0.00098  0.31808  1
 Hf  Hf4  1  0.75000  0.67888  0.49519  1
 Hf  Hf5  1  0.25000  0.32112  0.50481  1
 Hf  Hf6  1  0.25000  0.99902  0.68192  1
 Hf  Hf7  1  0.75000  0.49902  0.81808  1
 Hf  Hf8  1  0.75000  0.82112  0.99519  1
 N  N1  1  0.25000  0.86668  0.45242  1
 N  N2  1  0.75000  0.36668  0.04758  1
 N  N3  1  0.75000  0.44441  0.37564  1
 N  N4  1  0.25000  0.94441  0.12436  1
 N  N5  1  0.75000  0.05559  0.87564  1
 N  N6  1  0.25000  0.55559  0.62436  1
 N  N7  1  0.25000  0.63332  0.95242  1
 N  N8  1  0.75000  0.13332  0.54758  1
 O  O1  1  0.25000  0.18946  0.27513  1
 O  O2  1  0.75000  0.81054  0.72487  1
 O  O3  1  0.75000  0.68946  0.22487  1
 O  O4  1  0.25000  0.31054  0.77513  1
