CIF file written using JARVIS-Tools package.
data_Ca2Sn
_symmetry_space_group_name_H-M  'Pnma'
_cell_length_a       5.09574
_cell_length_b       7.70333
_cell_length_c       9.49693
_cell_angle_alpha    90
_cell_angle_beta     90
_cell_angle_gamma    90

_symmetry_Int_Tables_number  62
_chemical_formula_structural  Ca2Sn
_chemical_formula_sum  Ca8Sn4
_cell_volume  372.794220122004
_cell_formula_units_Z  4
loop_
  _symmetry_equiv_pos_site_id
 _symmetry_equiv_pos_as_xyz
 1  'x, y, z'
loop_
 _atom_site_type_symbol
 _atom_site_label
 _atom_site_symmetry_multiplicity
 _atom_site_fract_x
 _atom_site_fract_y
 _atom_site_fract_z
 _atom_site_fract_occupancy
 Ca  Ca1  1  0.75000  0.33452  0.07230  1
 Ca  Ca2  1  0.25000  0.66548  0.92770  1
 Ca  Ca3  1  0.75000  0.83452  0.42770  1
 Ca  Ca4  1  0.25000  0.16548  0.57230  1
 Ca  Ca5  1  0.75000  0.47929  0.69128  1
 Ca  Ca6  1  0.25000  0.52071  0.30872  1
 Ca  Ca7  1  0.75000  0.97929  0.80872  1
 Ca  Ca8  1  0.25000  0.02071  0.19128  1
 Sn  Sn1  1  0.75000  0.75303  0.10498  1
 Sn  Sn2  1  0.25000  0.24697  0.89502  1
 Sn  Sn3  1  0.75000  0.25303  0.39502  1
 Sn  Sn4  1  0.25000  0.74697  0.60498  1
