CIF file written using JARVIS-Tools package.
data_ScCu2
_symmetry_space_group_name_H-M  'I4/mmm'
_cell_length_a       3.31365
_cell_length_b       3.31365
_cell_length_c       4.76483
_cell_angle_alpha    110.348
_cell_angle_beta     110.348
_cell_angle_gamma    90

_symmetry_Int_Tables_number  139
_chemical_formula_structural  ScCu2
_chemical_formula_sum  ScCu2
_cell_volume  45.556249649703076
_cell_formula_units_Z  1
loop_
  _symmetry_equiv_pos_site_id
 _symmetry_equiv_pos_as_xyz
 1  'x, y, z'
loop_
 _atom_site_type_symbol
 _atom_site_label
 _atom_site_symmetry_multiplicity
 _atom_site_fract_x
 _atom_site_fract_y
 _atom_site_fract_z
 _atom_site_fract_occupancy
 Cu  Cu1  1  0.67206  0.67206  0.34412  1
 Cu  Cu2  1  0.32794  0.32794  0.65588  1
 Sc  Sc1  1  0.00000  0.00000  0.00000  1
