CIF file written using JARVIS-Tools package.
data_NbV3O10
_symmetry_space_group_name_H-M  'P-4m2'
_cell_length_a       6.70359
_cell_length_b       6.70359
_cell_length_c       4.14807
_cell_angle_alpha    90
_cell_angle_beta     90
_cell_angle_gamma    90

_symmetry_Int_Tables_number  115
_chemical_formula_structural  NbV3O10
_chemical_formula_sum  NbV3O0
_cell_volume  186.40637650259404
_cell_formula_units_Z  1
loop_
  _symmetry_equiv_pos_site_id
 _symmetry_equiv_pos_as_xyz
 1  'x, y, z'
loop_
 _atom_site_type_symbol
 _atom_site_label
 _atom_site_symmetry_multiplicity
 _atom_site_fract_x
 _atom_site_fract_y
 _atom_site_fract_z
 _atom_site_fract_occupancy
 Nb  Nb1  1  0.75000  0.25000  0.50000  1
 O  O1  1  0.03308  0.75000  0.27065  1
 O  O2  1  0.25000  0.25000  0.26567  1
 O  O3  1  0.25000  0.53308  0.72935  1
 O  O4  1  0.25000  0.96692  0.72935  1
 O  O5  1  0.46692  0.75000  0.27065  1
 O  O6  1  0.52151  0.25000  0.76045  1
 O  O7  1  0.75000  0.02151  0.23955  1
 O  O8  1  0.75000  0.47849  0.23955  1
 O  O9  1  0.75000  0.75000  0.73433  1
 O  O10  1  0.97849  0.25000  0.76045  1
 V  V1  1  0.25000  0.25000  0.65680  1
 V  V2  1  0.75000  0.75000  0.34320  1
 V  V3  1  0.25000  0.75000  0.50000  1
