CIF file written using JARVIS-Tools package.
data_ZnFe2O4
_symmetry_space_group_name_H-M  'Cmcm'
_cell_length_a       2.86813
_cell_length_b       4.95272
_cell_length_c       9.67011
_cell_angle_alpha    90
_cell_angle_beta     90
_cell_angle_gamma    106.831

_symmetry_Int_Tables_number  63
_chemical_formula_structural  ZnFe2O4
_chemical_formula_sum  Zn2Fe4O8
_cell_volume  131.48002167794922
_cell_formula_units_Z  2
loop_
  _symmetry_equiv_pos_site_id
 _symmetry_equiv_pos_as_xyz
 1  'x, y, z'
loop_
 _atom_site_type_symbol
 _atom_site_label
 _atom_site_symmetry_multiplicity
 _atom_site_fract_x
 _atom_site_fract_y
 _atom_site_fract_z
 _atom_site_fract_occupancy
 Fe  Fe1  1  0.87250  0.74499  0.06903  1
 Fe  Fe2  1  0.12750  0.25501  0.93097  1
 Fe  Fe3  1  0.87250  0.74499  0.43097  1
 Fe  Fe4  1  0.12750  0.25501  0.56903  1
 O  O1  1  0.22530  0.45061  0.38905  1
 O  O2  1  0.77470  0.54939  0.61095  1
 O  O3  1  0.77470  0.54939  0.88905  1
 O  O4  1  0.22530  0.45061  0.11095  1
 O  O5  1  0.95593  0.91185  0.25000  1
 O  O6  1  0.04407  0.08815  0.75000  1
 O  O7  1  0.50000  0.00000  0.00000  1
 O  O8  1  0.50000  0.00000  0.50000  1
 Zn  Zn1  1  0.38254  0.76508  0.75000  1
 Zn  Zn2  1  0.61746  0.23492  0.25000  1
