CIF file written using JARVIS-Tools package.
data_SiO2
_symmetry_space_group_name_H-M  'Pnnn'
_cell_length_a       4.51415
_cell_length_b       8.1367
_cell_length_c       9.56418
_cell_angle_alpha    90
_cell_angle_beta     90
_cell_angle_gamma    90

_symmetry_Int_Tables_number  48
_chemical_formula_structural  SiO2
_chemical_formula_sum  Si8O6
_cell_volume  351.2952475949253
_cell_formula_units_Z  8
loop_
  _symmetry_equiv_pos_site_id
 _symmetry_equiv_pos_as_xyz
 1  'x, y, z'
loop_
 _atom_site_type_symbol
 _atom_site_label
 _atom_site_symmetry_multiplicity
 _atom_site_fract_x
 _atom_site_fract_y
 _atom_site_fract_z
 _atom_site_fract_occupancy
 O  O1  1  0.25000  0.25000  0.25000  1
 O  O2  1  0.50000  0.21162  0.50000  1
 O  O3  1  0.50000  0.15088  0.00000  1
 O  O4  1  0.00000  0.28838  0.00000  1
 O  O5  1  0.75000  0.75000  0.25000  1
 O  O6  1  0.50000  0.50000  0.36606  1
 O  O7  1  0.50000  0.84912  0.00000  1
 O  O8  1  0.00000  0.34912  0.50000  1
 O  O9  1  0.00000  0.65088  0.50000  1
 O  O10  1  0.00000  0.71162  0.00000  1
 O  O11  1  0.50000  0.50000  0.63394  1
 O  O12  1  0.75000  0.25000  0.75000  1
 O  O13  1  0.50000  0.78838  0.50000  1
 O  O14  1  0.25000  0.75000  0.75000  1
 O  O15  1  0.00000  0.00000  0.86606  1
 O  O16  1  0.00000  0.00000  0.13394  1
 Si  Si1  1  0.70206  0.66860  0.40138  1
 Si  Si2  1  0.79794  0.83140  0.09862  1
 Si  Si3  1  0.79794  0.16860  0.90138  1
 Si  Si4  1  0.29794  0.33140  0.40138  1
 Si  Si5  1  0.29794  0.66860  0.59862  1
 Si  Si6  1  0.20206  0.83140  0.90138  1
 Si  Si7  1  0.70206  0.33140  0.59862  1
 Si  Si8  1  0.20206  0.16860  0.09862  1
