CIF file written using JARVIS-Tools package.
data_Ca2CoSi2O7
_symmetry_space_group_name_H-M  'P-42_1m'
_cell_length_a       7.85063
_cell_length_b       7.85063
_cell_length_c       5.03226
_cell_angle_alpha    90
_cell_angle_beta     90
_cell_angle_gamma    90

_symmetry_Int_Tables_number  113
_chemical_formula_structural  Ca2CoSi2O7
_chemical_formula_sum  Ca4Co2Si4O4
_cell_volume  310.15067941862355
_cell_formula_units_Z  2
loop_
  _symmetry_equiv_pos_site_id
 _symmetry_equiv_pos_as_xyz
 1  'x, y, z'
loop_
 _atom_site_type_symbol
 _atom_site_label
 _atom_site_symmetry_multiplicity
 _atom_site_fract_x
 _atom_site_fract_y
 _atom_site_fract_z
 _atom_site_fract_occupancy
 Ca  Ca1  1  0.16791  0.33209  0.49775  1
 Ca  Ca2  1  0.83209  0.66791  0.49775  1
 Ca  Ca3  1  0.66791  0.16791  0.50225  1
 Ca  Ca4  1  0.33209  0.83209  0.50225  1
 Co  Co1  1  0.50000  0.50000  0.00000  1
 Co  Co2  1  0.00000  0.00000  0.00000  1
 O  O1  1  0.68458  0.41759  0.77636  1
 O  O2  1  0.35797  0.14203  0.74549  1
 O  O3  1  0.41759  0.31542  0.22364  1
 O  O4  1  0.58241  0.68458  0.22364  1
 O  O5  1  0.91759  0.18458  0.77636  1
 O  O6  1  0.31542  0.58241  0.77636  1
 O  O7  1  0.18458  0.08241  0.22364  1
 O  O8  1  0.08241  0.81542  0.77636  1
 O  O9  1  0.50000  0.00000  0.18386  1
 O  O10  1  0.64203  0.85797  0.74549  1
 O  O11  1  0.81542  0.91759  0.22364  1
 O  O12  1  0.00000  0.50000  0.81614  1
 O  O13  1  0.85797  0.35797  0.25451  1
 O  O14  1  0.14203  0.64203  0.25451  1
 Si  Si1  1  0.14149  0.64149  0.93394  1
 Si  Si2  1  0.35851  0.14149  0.06606  1
 Si  Si3  1  0.64149  0.85851  0.06606  1
 Si  Si4  1  0.85851  0.35851  0.93394  1
