CIF file written using JARVIS-Tools package.
data_SrPdF4
_symmetry_space_group_name_H-M  'I4/mcm'
_cell_length_a       5.86753
_cell_length_b       5.86753
_cell_length_c       6.78048
_cell_angle_alpha    115.638
_cell_angle_beta     115.638
_cell_angle_gamma    90

_symmetry_Int_Tables_number  140
_chemical_formula_structural  SrPdF4
_chemical_formula_sum  Sr2Pd2F8
_cell_volume  184.63427448329526
_cell_formula_units_Z  2
loop_
  _symmetry_equiv_pos_site_id
 _symmetry_equiv_pos_as_xyz
 1  'x, y, z'
loop_
 _atom_site_type_symbol
 _atom_site_label
 _atom_site_symmetry_multiplicity
 _atom_site_fract_x
 _atom_site_fract_y
 _atom_site_fract_z
 _atom_site_fract_occupancy
 F  F1  1  0.96252  0.46252  0.26470  1
 F  F2  1  0.69783  0.19783  0.73530  1
 F  F3  1  0.03748  0.53748  0.73530  1
 F  F4  1  0.19783  0.03748  0.73530  1
 F  F5  1  0.30217  0.80217  0.26470  1
 F  F6  1  0.46252  0.30217  0.26470  1
 F  F7  1  0.80217  0.96252  0.26470  1
 F  F8  1  0.53748  0.69783  0.73530  1
 Pd  Pd1  1  0.00000  0.50000  0.00000  1
 Pd  Pd2  1  0.50000  0.00000  0.00000  1
 Sr  Sr1  1  0.25000  0.25000  0.50000  1
 Sr  Sr2  1  0.75000  0.75000  0.50000  1
