CIF file written using JARVIS-Tools package.
data_SrGeO3
_symmetry_space_group_name_H-M  'P-62m'
_cell_length_a       6.93622
_cell_length_b       6.93622
_cell_length_c       5.80632
_cell_angle_alpha    90
_cell_angle_beta     90
_cell_angle_gamma    120

_symmetry_Int_Tables_number  189
_chemical_formula_structural  SrGeO3
_chemical_formula_sum  Sr3Ge3O9
_cell_volume  241.92272401049843
_cell_formula_units_Z  3
loop_
  _symmetry_equiv_pos_site_id
 _symmetry_equiv_pos_as_xyz
 1  'x, y, z'
loop_
 _atom_site_type_symbol
 _atom_site_label
 _atom_site_symmetry_multiplicity
 _atom_site_fract_x
 _atom_site_fract_y
 _atom_site_fract_z
 _atom_site_fract_occupancy
 Ge  Ge1  1  -0.00000  0.27361  0.00000  1
 Ge  Ge2  1  0.72639  0.72639  0.00000  1
 Ge  Ge3  1  0.27361  -0.00000  0.00000  1
 O  O1  1  0.00000  0.75128  0.00000  1
 O  O2  1  0.00000  0.36262  0.28100  1
 O  O3  1  0.63738  0.63738  0.71900  1
 O  O4  1  0.63738  0.63738  0.28100  1
 O  O5  1  0.36262  0.00000  0.71900  1
 O  O6  1  0.75128  0.00000  0.00000  1
 O  O7  1  0.00000  0.36262  0.71900  1
 O  O8  1  0.36262  0.00000  0.28100  1
 O  O9  1  0.24872  0.24872  0.00000  1
 Sr  Sr1  1  0.66639  -0.00000  0.50000  1
 Sr  Sr2  1  0.33361  0.33361  0.50000  1
 Sr  Sr3  1  -0.00000  0.66639  0.50000  1
