CIF file written using JARVIS-Tools package.
data_MgMn2O5
_symmetry_space_group_name_H-M  'Cmcm'
_cell_length_a       3.65428
_cell_length_b       5.1449
_cell_length_c       11.2581
_cell_angle_alpha    90
_cell_angle_beta     90
_cell_angle_gamma    110.802

_symmetry_Int_Tables_number  63
_chemical_formula_structural  MgMn2O5
_chemical_formula_sum  Mg2Mn4O0
_cell_volume  197.86508509869662
_cell_formula_units_Z  2
loop_
  _symmetry_equiv_pos_site_id
 _symmetry_equiv_pos_as_xyz
 1  'x, y, z'
loop_
 _atom_site_type_symbol
 _atom_site_label
 _atom_site_symmetry_multiplicity
 _atom_site_fract_x
 _atom_site_fract_y
 _atom_site_fract_z
 _atom_site_fract_occupancy
 Mg  Mg1  1  0.91142  0.82284  0.75000  1
 Mg  Mg2  1  0.08858  0.17716  0.25000  1
 Mn  Mn1  1  0.22482  0.44963  0.59719  1
 Mn  Mn2  1  0.77518  0.55037  0.40281  1
 Mn  Mn3  1  0.77518  0.55037  0.09719  1
 Mn  Mn4  1  0.22482  0.44963  0.90281  1
 O  O1  1  0.69187  0.38375  0.25000  1
 O  O2  1  0.30813  0.61625  0.75000  1
 O  O3  1  0.22707  0.45414  0.07944  1
 O  O4  1  0.77293  0.54586  0.92056  1
 O  O5  1  0.77293  0.54586  0.57944  1
 O  O6  1  0.22707  0.45414  0.42056  1
 O  O7  1  0.05351  0.10702  0.62332  1
 O  O8  1  0.94649  0.89298  0.37668  1
 O  O9  1  0.05351  0.10702  0.87668  1
 O  O10  1  0.94649  0.89298  0.12332  1
