CIF file written using JARVIS-Tools package.
data_B2CN
_symmetry_space_group_name_H-M  'R3m'
_cell_length_a       4.63779
_cell_length_b       4.63779
_cell_length_c       4.63779
_cell_angle_alpha    32.397
_cell_angle_beta     32.397
_cell_angle_gamma    32.397

_symmetry_Int_Tables_number  160
_chemical_formula_structural  B2CN
_chemical_formula_sum  B2CN
_cell_volume  25.458837993259063
_cell_formula_units_Z  1
loop_
  _symmetry_equiv_pos_site_id
 _symmetry_equiv_pos_as_xyz
 1  'x, y, z'
loop_
 _atom_site_type_symbol
 _atom_site_label
 _atom_site_symmetry_multiplicity
 _atom_site_fract_x
 _atom_site_fract_y
 _atom_site_fract_z
 _atom_site_fract_occupancy
 B  B1  1  0.22352  0.22352  0.22352  1
 B  B2  1  0.73224  0.73224  0.73224  1
 C  C1  1  0.34501  0.34501  0.34501  1
 N  N1  1  0.84772  0.84772  0.84772  1
