CIF file written using JARVIS-Tools package.
data_Mg2Nb2FeO8
_symmetry_space_group_name_H-M  'C2/c'
_cell_length_a       5.17259
_cell_length_b       5.99042
_cell_length_c       9.98107
_cell_angle_alpha    107.46
_cell_angle_beta     90.9029
_cell_angle_gamma    89.998

_symmetry_Int_Tables_number  15
_chemical_formula_structural  Mg2Nb2FeO8
_chemical_formula_sum  Mg4Nb4Fe2O6
_cell_volume  294.9829607311832
_cell_formula_units_Z  2
loop_
  _symmetry_equiv_pos_site_id
 _symmetry_equiv_pos_as_xyz
 1  'x, y, z'
loop_
 _atom_site_type_symbol
 _atom_site_label
 _atom_site_symmetry_multiplicity
 _atom_site_fract_x
 _atom_site_fract_y
 _atom_site_fract_z
 _atom_site_fract_occupancy
 Fe  Fe1  1  0.25153  0.64224  0.00075  1
 Fe  Fe2  1  0.75152  0.35741  0.00074  1
 Mg  Mg1  1  0.25455  0.86973  0.45906  1
 Mg  Mg2  1  0.75454  0.58823  0.45904  1
 Mg  Mg3  1  0.74853  0.12994  0.54243  1
 Mg  Mg4  1  0.24854  0.41144  0.54245  1
 Nb  Nb1  1  0.74941  0.71673  0.77070  1
 Nb  Nb2  1  0.75367  0.94676  0.23079  1
 Nb  Nb3  1  0.25366  0.28293  0.23080  1
 Nb  Nb4  1  0.24939  0.05290  0.77070  1
 O  O1  1  0.91688  0.68026  0.11754  1
 O  O2  1  0.09186  0.81579  0.86297  1
 O  O3  1  0.41121  0.95357  0.13852  1
 O  O4  1  0.95789  0.91538  0.62584  1
 O  O5  1  0.59185  0.04608  0.86297  1
 O  O6  1  0.58618  0.56347  0.88394  1
 O  O7  1  0.91120  0.18386  0.13852  1
 O  O8  1  0.11408  0.54685  0.38235  1
 O  O9  1  0.45789  0.70939  0.62583  1
 O  O10  1  0.04518  0.08428  0.37564  1
 O  O11  1  0.38900  0.16524  0.61914  1
 O  O12  1  0.41687  0.43616  0.11754  1
 O  O13  1  0.61408  0.83443  0.38235  1
 O  O14  1  0.88900  0.45282  0.61914  1
 O  O15  1  0.08617  0.31939  0.88394  1
 O  O16  1  0.54519  0.29028  0.37566  1
