CIF file written using JARVIS-Tools package.
data_LiCoPO4
_symmetry_space_group_name_H-M  'I-4'
_cell_length_a       4.74726
_cell_length_b       5.00083
_cell_length_c       4.74726
_cell_angle_alpha    61.6636
_cell_angle_beta     90
_cell_angle_gamma    118.336

_symmetry_Int_Tables_number  82
_chemical_formula_structural  LiCoPO4
_chemical_formula_sum  LiCoPO4
_cell_volume  83.53723343615151
_cell_formula_units_Z  1
loop_
  _symmetry_equiv_pos_site_id
 _symmetry_equiv_pos_as_xyz
 1  'x, y, z'
loop_
 _atom_site_type_symbol
 _atom_site_label
 _atom_site_symmetry_multiplicity
 _atom_site_fract_x
 _atom_site_fract_y
 _atom_site_fract_z
 _atom_site_fract_occupancy
 Co  Co1  1  0.00000  0.00000  0.00000  1
 Li  Li1  1  0.50000  0.00000  0.50000  1
 O  O1  1  0.44027  0.26233  0.05919  1
 O  O2  1  0.67848  0.73767  0.44027  1
 O  O3  1  0.82206  0.26233  0.67848  1
 O  O4  1  0.05919  0.73767  0.82206  1
 P  P1  1  0.75000  0.50000  0.75000  1
