CIF file written using JARVIS-Tools package.
data_Ca2V3O8
_symmetry_space_group_name_H-M  'C2/m'
_cell_length_a       4.97876
_cell_length_b       5.97955
_cell_length_c       6.35529
_cell_angle_alpha    118.063
_cell_angle_beta     108.121
_cell_angle_gamma    89.9999

_symmetry_Int_Tables_number  12
_chemical_formula_structural  Ca2V3O8
_chemical_formula_sum  Ca2V3O8
_cell_volume  156.24373240195695
_cell_formula_units_Z  1
loop_
  _symmetry_equiv_pos_site_id
 _symmetry_equiv_pos_as_xyz
 1  'x, y, z'
loop_
 _atom_site_type_symbol
 _atom_site_label
 _atom_site_symmetry_multiplicity
 _atom_site_fract_x
 _atom_site_fract_y
 _atom_site_fract_z
 _atom_site_fract_occupancy
 Ca  Ca1  1  0.66767  0.72964  0.45927  1
 Ca  Ca2  1  0.33233  0.27036  0.54073  1
 O  O1  1  0.04084  0.39097  0.78194  1
 O  O2  1  0.95916  0.60903  0.21806  1
 O  O3  1  0.09586  0.90344  0.80687  1
 O  O4  1  0.90414  0.09656  0.19312  1
 O  O5  1  0.39302  0.32500  0.20495  1
 O  O6  1  0.39302  0.87994  0.20495  1
 O  O7  1  0.60698  0.12006  0.79505  1
 O  O8  1  0.60698  0.67500  0.79505  1
 V  V1  1  0.50000  1.00000  0.00000  1
 V  V2  1  1.00000  0.72685  -0.00000  1
 V  V3  1  1.00000  0.27315  0.00000  1
