CIF file written using JARVIS-Tools package.
data_Zn2Fe3O8
_symmetry_space_group_name_H-M  'P6_3mc'
_cell_length_a       5.69613
_cell_length_b       5.69613
_cell_length_c       9.35842
_cell_angle_alpha    90
_cell_angle_beta     90
_cell_angle_gamma    120

_symmetry_Int_Tables_number  186
_chemical_formula_structural  Zn2Fe3O8
_chemical_formula_sum  Zn4Fe6O6
_cell_volume  262.9613987763726
_cell_formula_units_Z  2
loop_
  _symmetry_equiv_pos_site_id
 _symmetry_equiv_pos_as_xyz
 1  'x, y, z'
loop_
 _atom_site_type_symbol
 _atom_site_label
 _atom_site_symmetry_multiplicity
 _atom_site_fract_x
 _atom_site_fract_y
 _atom_site_fract_z
 _atom_site_fract_occupancy
 Fe  Fe1  1  0.16211  0.32423  0.75473  1
 Fe  Fe2  1  0.83789  0.16211  0.25473  1
 Fe  Fe3  1  0.32423  0.16211  0.25473  1
 Fe  Fe4  1  0.83789  0.67577  0.25473  1
 Fe  Fe5  1  0.67577  0.83789  0.75473  1
 Fe  Fe6  1  0.16211  0.83789  0.75473  1
 O  O1  1  0.33333  0.66667  0.85944  1
 O  O2  1  0.84277  0.68554  0.85828  1
 O  O3  1  0.68554  0.84277  0.35828  1
 O  O4  1  0.48238  0.96476  0.63935  1
 O  O5  1  0.84277  0.15723  0.85828  1
 O  O6  1  0.31446  0.15723  0.85828  1
 O  O7  1  0.15723  0.31446  0.35828  1
 O  O8  1  0.15723  0.84277  0.35828  1
 O  O9  1  0.03524  0.51762  0.63935  1
 O  O10  1  0.66667  0.33333  0.35944  1
 O  O11  1  0.00000  0.00000  0.64722  1
 O  O12  1  0.00000  0.00000  0.14722  1
 O  O13  1  0.51762  0.03524  0.13935  1
 O  O14  1  0.96476  0.48238  0.13935  1
 O  O15  1  0.48238  0.51762  0.63935  1
 O  O16  1  0.51762  0.48238  0.13935  1
 Zn  Zn1  1  0.33333  0.66667  0.07160  1
 Zn  Zn2  1  0.66667  0.33333  0.57160  1
 Zn  Zn3  1  0.33333  0.66667  0.47114  1
 Zn  Zn4  1  0.66667  0.33333  0.97114  1
