CIF file written using JARVIS-Tools package.
data_Re2O7
_symmetry_space_group_name_H-M  'Cmcm'
_cell_length_a       5.20177
_cell_length_b       5.37951
_cell_length_c       8.73755
_cell_angle_alpha    90
_cell_angle_beta     107.318
_cell_angle_gamma    90

_symmetry_Int_Tables_number  63
_chemical_formula_structural  Re2O7
_chemical_formula_sum  Re4O4
_cell_volume  233.4198389492626
_cell_formula_units_Z  2
loop_
  _symmetry_equiv_pos_site_id
 _symmetry_equiv_pos_as_xyz
 1  'x, y, z'
loop_
 _atom_site_type_symbol
 _atom_site_label
 _atom_site_symmetry_multiplicity
 _atom_site_fract_x
 _atom_site_fract_y
 _atom_site_fract_z
 _atom_site_fract_occupancy
 O  O1  1  0.41411  0.00000  0.82822  1
 O  O2  1  0.14119  0.75000  0.57195  1
 O  O3  1  0.56924  0.75000  0.42805  1
 O  O4  1  0.85881  0.25000  0.42805  1
 O  O5  1  0.43076  0.25000  0.57195  1
 O  O6  1  0.87069  0.00000  0.74138  1
 O  O7  1  0.41411  0.50000  0.82822  1
 O  O8  1  0.58589  0.50000  0.17178  1
 O  O9  1  0.12931  0.50000  0.25862  1
 O  O10  1  0.87069  0.50000  0.74138  1
 O  O11  1  0.12931  0.00000  0.25862  1
 O  O12  1  0.83742  0.25000  0.00000  1
 O  O13  1  0.16258  0.75000  -0.00000  1
 O  O14  1  0.58589  0.00000  0.17178  1
 Re  Re1  1  0.14080  0.75000  0.77115  1
 Re  Re2  1  0.36965  0.75000  0.22885  1
 Re  Re3  1  0.85920  0.25000  0.22885  1
 Re  Re4  1  0.63035  0.25000  0.77115  1
