CIF file written using JARVIS-Tools package.
data_Co9Se8
_symmetry_space_group_name_H-M  'Fm-3m'
_cell_length_a       7.30742
_cell_length_b       7.30742
_cell_length_c       7.30741
_cell_angle_alpha    60
_cell_angle_beta     60
_cell_angle_gamma    60

_symmetry_Int_Tables_number  225
_chemical_formula_structural  Co9Se8
_chemical_formula_sum  Co9Se8
_cell_volume  275.9154172364119
_cell_formula_units_Z  1
loop_
  _symmetry_equiv_pos_site_id
 _symmetry_equiv_pos_as_xyz
 1  'x, y, z'
loop_
 _atom_site_type_symbol
 _atom_site_label
 _atom_site_symmetry_multiplicity
 _atom_site_fract_x
 _atom_site_fract_y
 _atom_site_fract_z
 _atom_site_fract_occupancy
 Co  Co1  1  0.50000  0.50000  0.50000  1
 Co  Co2  1  0.12332  0.12332  0.12332  1
 Co  Co3  1  0.87668  0.87668  0.36995  1
 Co  Co4  1  0.36995  0.87668  0.87668  1
 Co  Co5  1  0.87668  0.36995  0.87668  1
 Co  Co6  1  0.63005  0.12332  0.12332  1
 Co  Co7  1  0.12332  0.63005  0.12332  1
 Co  Co8  1  0.12332  0.12332  0.63005  1
 Co  Co9  1  0.87668  0.87668  0.87668  1
 Se  Se1  1  0.73580  0.26420  0.73580  1
 Se  Se2  1  0.26420  0.73580  0.26420  1
 Se  Se3  1  0.25000  0.25000  0.25000  1
 Se  Se4  1  0.75000  0.75000  0.75000  1
 Se  Se5  1  0.73580  0.26420  0.26420  1
 Se  Se6  1  0.73580  0.73580  0.26420  1
 Se  Se7  1  0.26420  0.26420  0.73580  1
 Se  Se8  1  0.26420  0.73580  0.73580  1
