CIF file written using JARVIS-Tools package.
data_CaReH4ClO6
_symmetry_space_group_name_H-M  'Cmcm'
_cell_length_a       7.93896
_cell_length_b       7.93896
_cell_length_c       6.6863
_cell_angle_alpha    90
_cell_angle_beta     90
_cell_angle_gamma    52.5899

_symmetry_Int_Tables_number  63
_chemical_formula_structural  CaReH4ClO6
_chemical_formula_sum  Ca2Re2H8Cl2O2
_cell_volume  334.73567818885397
_cell_formula_units_Z  2
loop_
  _symmetry_equiv_pos_site_id
 _symmetry_equiv_pos_as_xyz
 1  'x, y, z'
loop_
 _atom_site_type_symbol
 _atom_site_label
 _atom_site_symmetry_multiplicity
 _atom_site_fract_x
 _atom_site_fract_y
 _atom_site_fract_z
 _atom_site_fract_occupancy
 Ca  Ca1  1  0.41210  0.41210  0.25000  1
 Ca  Ca2  1  0.58790  0.58790  0.75000  1
 Cl  Cl1  1  0.88311  0.88311  0.75000  1
 Cl  Cl2  1  0.11689  0.11689  0.25000  1
 H  H1  1  0.83943  0.25139  0.06639  1
 H  H2  1  0.16058  0.74860  0.56639  1
 H  H3  1  0.74860  0.16058  0.93361  1
 H  H4  1  0.25139  0.83943  0.43361  1
 H  H5  1  0.16058  0.74860  0.93361  1
 H  H6  1  0.83943  0.25139  0.43361  1
 H  H7  1  0.25139  0.83943  0.06639  1
 H  H8  1  0.74860  0.16058  0.56639  1
 O  O1  1  0.29394  0.70606  0.00000  1
 O  O2  1  0.70606  0.29394  0.50000  1
 O  O3  1  0.96925  0.37219  0.75000  1
 O  O4  1  0.03075  0.62781  0.25000  1
 O  O5  1  0.62781  0.03075  0.25000  1
 O  O6  1  0.37219  0.96925  0.75000  1
 O  O7  1  0.31648  0.31648  0.54037  1
 O  O8  1  0.68352  0.68352  0.45963  1
 O  O9  1  0.68352  0.68352  0.04037  1
 O  O10  1  0.29394  0.70606  0.50000  1
 O  O11  1  0.31648  0.31648  0.95963  1
 O  O12  1  0.70606  0.29394  0.00000  1
 Re  Re1  1  0.75718  0.75718  0.25000  1
 Re  Re2  1  0.24282  0.24282  0.75000  1
