CIF file written using JARVIS-Tools package.
data_TmAu
_symmetry_space_group_name_H-M  'Cmcm'
_cell_length_a       3.67038
_cell_length_b       4.58891
_cell_length_c       5.70481
_cell_angle_alpha    90
_cell_angle_beta     71.2347
_cell_angle_gamma    90

_symmetry_Int_Tables_number  63
_chemical_formula_structural  TmAu
_chemical_formula_sum  Tm2Au2
_cell_volume  90.97879291582613
_cell_formula_units_Z  2
loop_
  _symmetry_equiv_pos_site_id
 _symmetry_equiv_pos_as_xyz
 1  'x, y, z'
loop_
 _atom_site_type_symbol
 _atom_site_label
 _atom_site_symmetry_multiplicity
 _atom_site_fract_x
 _atom_site_fract_y
 _atom_site_fract_z
 _atom_site_fract_occupancy
 Au  Au1  1  0.40863  0.75000  0.18274  1
 Au  Au2  1  0.59137  0.25000  0.81726  1
 Tm  Tm1  1  0.13873  0.75000  0.72254  1
 Tm  Tm2  1  0.86127  0.25000  0.27746  1
