CIF file written using JARVIS-Tools package.
data_Cr4Cu3O12
_symmetry_space_group_name_H-M  'R-3'
_cell_length_a       6.19362
_cell_length_b       6.19363
_cell_length_c       6.19728
_cell_angle_alpha    109.484
_cell_angle_beta     109.483
_cell_angle_gamma    109.46

_symmetry_Int_Tables_number  148
_chemical_formula_structural  Cr4Cu3O12
_chemical_formula_sum  Cr4Cu3O2
_cell_volume  182.97790131296196
_cell_formula_units_Z  1
loop_
  _symmetry_equiv_pos_site_id
 _symmetry_equiv_pos_as_xyz
 1  'x, y, z'
loop_
 _atom_site_type_symbol
 _atom_site_label
 _atom_site_symmetry_multiplicity
 _atom_site_fract_x
 _atom_site_fract_y
 _atom_site_fract_z
 _atom_site_fract_occupancy
 Cr  Cr1  1  0.00000  0.00000  0.50000  1
 Cr  Cr2  1  1.00000  0.50000  1.00000  1
 Cr  Cr3  1  0.50000  0.50000  0.50000  1
 Cr  Cr4  1  0.50000  1.00000  0.00000  1
 Cu  Cu1  1  0.50000  0.50000  0.00000  1
 Cu  Cu2  1  0.00000  0.50000  0.50000  1
 Cu  Cu3  1  0.50000  1.00000  0.50000  1
 O  O1  1  0.81480  0.30743  0.12156  1
 O  O2  1  0.18520  0.69257  0.87844  1
 O  O3  1  0.87902  0.18385  0.69124  1
 O  O4  1  0.30743  0.49263  0.18587  1
 O  O5  1  0.81615  0.69516  0.50739  1
 O  O6  1  0.50737  0.81480  0.69324  1
 O  O7  1  0.69516  0.87902  0.18778  1
 O  O8  1  0.49263  0.18520  0.30676  1
 O  O9  1  0.18385  0.30484  0.49261  1
 O  O10  1  0.69257  0.50737  0.81413  1
 O  O11  1  0.12098  0.81615  0.30876  1
 O  O12  1  0.30484  0.12098  0.81222  1
