CIF file written using JARVIS-Tools package.
data_Yb2Ge
_symmetry_space_group_name_H-M  'Pnma'
_cell_length_a       4.77489
_cell_length_b       7.28482
_cell_length_c       8.81946
_cell_angle_alpha    90
_cell_angle_beta     90
_cell_angle_gamma    90

_symmetry_Int_Tables_number  62
_chemical_formula_structural  Yb2Ge
_chemical_formula_sum  Yb8Ge4
_cell_volume  306.778372758859
_cell_formula_units_Z  4
loop_
  _symmetry_equiv_pos_site_id
 _symmetry_equiv_pos_as_xyz
 1  'x, y, z'
loop_
 _atom_site_type_symbol
 _atom_site_label
 _atom_site_symmetry_multiplicity
 _atom_site_fract_x
 _atom_site_fract_y
 _atom_site_fract_z
 _atom_site_fract_occupancy
 Ge  Ge1  1  0.25000  0.75044  0.89856  1
 Ge  Ge2  1  0.75000  0.24956  0.10144  1
 Ge  Ge3  1  0.25000  0.25044  0.60144  1
 Ge  Ge4  1  0.75000  0.74956  0.39856  1
 Yb  Yb1  1  0.75000  0.84006  0.07701  1
 Yb  Yb2  1  0.25000  0.15994  0.92299  1
 Yb  Yb3  1  0.75000  0.34006  0.42299  1
 Yb  Yb4  1  0.25000  0.65994  0.57701  1
 Yb  Yb5  1  0.25000  0.51869  0.18457  1
 Yb  Yb6  1  0.75000  0.48131  0.81543  1
 Yb  Yb7  1  0.25000  0.01869  0.31543  1
 Yb  Yb8  1  0.75000  0.98131  0.68457  1
