CIF file written using JARVIS-Tools package.
data_TiBe12
_symmetry_space_group_name_H-M  'P6/mmm'
_cell_length_a       4.2343
_cell_length_b       4.2343
_cell_length_c       7.32604
_cell_angle_alpha    90
_cell_angle_beta     90
_cell_angle_gamma    120

_symmetry_Int_Tables_number  191
_chemical_formula_structural  TiBe12
_chemical_formula_sum  TiBe2
_cell_volume  113.75312026745266
_cell_formula_units_Z  1
loop_
  _symmetry_equiv_pos_site_id
 _symmetry_equiv_pos_as_xyz
 1  'x, y, z'
loop_
 _atom_site_type_symbol
 _atom_site_label
 _atom_site_symmetry_multiplicity
 _atom_site_fract_x
 _atom_site_fract_y
 _atom_site_fract_z
 _atom_site_fract_occupancy
 Be  Be1  1  0.33333  0.66667  0.00000  1
 Be  Be2  1  0.66667  0.33333  0.00000  1
 Be  Be3  1  0.33333  0.66667  0.50000  1
 Be  Be4  1  0.66667  0.33333  0.50000  1
 Be  Be5  1  0.00000  0.00000  0.65413  1
 Be  Be6  1  0.00000  0.00000  0.34587  1
 Be  Be7  1  0.50000  0.50000  0.75914  1
 Be  Be8  1  0.50000  0.00000  0.75914  1
 Be  Be9  1  0.00000  0.50000  0.75914  1
 Be  Be10  1  0.50000  0.50000  0.24086  1
 Be  Be11  1  0.50000  0.00000  0.24086  1
 Be  Be12  1  0.00000  0.50000  0.24086  1
 Ti  Ti1  1  0.00000  0.00000  0.00000  1
