CIF file written using JARVIS-Tools package.
data_Cr3N2
_symmetry_space_group_name_H-M  'I4/mmm'
_cell_length_a       2.78853
_cell_length_b       2.78853
_cell_length_c       6.11624
_cell_angle_alpha    103.177
_cell_angle_beta     103.177
_cell_angle_gamma    90

_symmetry_Int_Tables_number  139
_chemical_formula_structural  Cr3N2
_chemical_formula_sum  Cr3N2
_cell_volume  45.02023508845402
_cell_formula_units_Z  1
loop_
  _symmetry_equiv_pos_site_id
 _symmetry_equiv_pos_as_xyz
 1  'x, y, z'
loop_
 _atom_site_type_symbol
 _atom_site_label
 _atom_site_symmetry_multiplicity
 _atom_site_fract_x
 _atom_site_fract_y
 _atom_site_fract_z
 _atom_site_fract_occupancy
 Cr  Cr1  1  0.00000  0.00000  0.00000  1
 Cr  Cr2  1  0.64909  0.64909  0.29818  1
 Cr  Cr3  1  0.35091  0.35091  0.70182  1
 N  N1  1  0.83118  0.83118  0.66236  1
 N  N2  1  0.16882  0.16882  0.33764  1
