CIF file written using JARVIS-Tools package.
data_CrO2
_symmetry_space_group_name_H-M  'R3m'
_cell_length_a       5.67177
_cell_length_b       5.8042
_cell_length_c       5.80419
_cell_angle_alpha    59.9999
_cell_angle_beta     59.2246
_cell_angle_gamma    59.2246

_symmetry_Int_Tables_number  160
_chemical_formula_structural  CrO2
_chemical_formula_sum  Cr4O8
_cell_volume  133.50485027325465
_cell_formula_units_Z  4
loop_
  _symmetry_equiv_pos_site_id
 _symmetry_equiv_pos_as_xyz
 1  'x, y, z'
loop_
 _atom_site_type_symbol
 _atom_site_label
 _atom_site_symmetry_multiplicity
 _atom_site_fract_x
 _atom_site_fract_y
 _atom_site_fract_z
 _atom_site_fract_occupancy
 Cr  Cr1  1  0.27010  0.24330  0.24330  1
 Cr  Cr2  1  0.64163  0.10046  0.62895  1
 Cr  Cr3  1  0.64163  0.62895  0.10046  1
 Cr  Cr4  1  0.64163  0.62895  0.62895  1
 O  O1  1  0.39285  0.36742  0.36742  1
 O  O2  1  0.39285  0.36742  0.87230  1
 O  O3  1  0.39285  0.87230  0.36742  1
 O  O4  1  0.86369  0.37877  0.37877  1
 O  O5  1  0.40585  0.86472  0.86472  1
 O  O6  1  0.82975  0.40988  0.88018  1
 O  O7  1  0.82975  0.88018  0.40988  1
 O  O8  1  0.82975  0.88018  0.88018  1
