CIF file written using JARVIS-Tools package.
data_MgMnF4
_symmetry_space_group_name_H-M  'I-4'
_cell_length_a       5.0521
_cell_length_b       5.05219
_cell_length_c       6.56917
_cell_angle_alpha    112.614
_cell_angle_beta     112.613
_cell_angle_gamma    89.9997

_symmetry_Int_Tables_number  82
_chemical_formula_structural  MgMnF4
_chemical_formula_sum  Mg2Mn2F8
_cell_volume  140.7156120833194
_cell_formula_units_Z  2
loop_
  _symmetry_equiv_pos_site_id
 _symmetry_equiv_pos_as_xyz
 1  'x, y, z'
loop_
 _atom_site_type_symbol
 _atom_site_label
 _atom_site_symmetry_multiplicity
 _atom_site_fract_x
 _atom_site_fract_y
 _atom_site_fract_z
 _atom_site_fract_occupancy
 F  F1  1  0.76729  0.35194  0.17370  1
 F  F2  1  0.58036  0.01750  0.65401  1
 F  F3  1  0.07343  0.62940  0.65405  1
 F  F4  1  0.18137  0.22876  0.82567  1
 F  F5  1  0.40627  0.81463  0.17369  1
 F  F6  1  0.36664  0.41561  0.34532  1
 F  F7  1  0.97851  0.92258  0.34533  1
 F  F8  1  0.64404  0.58976  0.82567  1
 Mg  Mg1  1  0.28296  0.27952  0.56615  1
 Mg  Mg2  1  0.71651  0.71303  0.43321  1
 Mn  Mn1  1  0.03069  0.52726  0.06154  1
 Mn  Mn2  1  0.46882  -0.03463  -0.06219  1
