CIF file written using JARVIS-Tools package.
data_Mg2BiPO6
_symmetry_space_group_name_H-M  'Cmcm'
_cell_length_a       5.3252
_cell_length_b       7.16106
_cell_length_c       7.16106
_cell_angle_alpha    113.607
_cell_angle_beta     90
_cell_angle_gamma    90

_symmetry_Int_Tables_number  63
_chemical_formula_structural  Mg2BiPO6
_chemical_formula_sum  Mg4Bi2P2O2
_cell_volume  250.22784279297392
_cell_formula_units_Z  2
loop_
  _symmetry_equiv_pos_site_id
 _symmetry_equiv_pos_as_xyz
 1  'x, y, z'
loop_
 _atom_site_type_symbol
 _atom_site_label
 _atom_site_symmetry_multiplicity
 _atom_site_fract_x
 _atom_site_fract_y
 _atom_site_fract_z
 _atom_site_fract_occupancy
 Bi  Bi1  1  0.75000  0.59901  0.40099  1
 Bi  Bi2  1  0.25000  0.40099  0.59901  1
 Mg  Mg1  1  0.25000  0.90061  0.70884  1
 Mg  Mg2  1  0.25000  0.29116  0.09939  1
 Mg  Mg3  1  0.75000  0.09939  0.29116  1
 Mg  Mg4  1  0.75000  0.70884  0.90061  1
 O  O1  1  0.00000  0.32689  0.32689  1
 O  O2  1  0.99246  0.12365  0.87635  1
 O  O3  1  0.25000  0.89378  0.43155  1
 O  O4  1  0.75000  0.10622  0.56845  1
 O  O5  1  0.50754  0.12365  0.87635  1
 O  O6  1  0.25000  0.56845  0.10622  1
 O  O7  1  0.00754  0.87635  0.12365  1
 O  O8  1  0.50000  0.67311  0.67311  1
 O  O9  1  0.50000  0.32689  0.32689  1
 O  O10  1  0.75000  0.43155  0.89378  1
 O  O11  1  0.00000  0.67311  0.67311  1
 O  O12  1  0.49246  0.87635  0.12365  1
 P  P1  1  0.75000  0.19773  0.80227  1
 P  P2  1  0.25000  0.80227  0.19773  1
