CIF file written using JARVIS-Tools package.
data_Mg2TcO4
_symmetry_space_group_name_H-M  'Imma'
_cell_length_a       6.06893
_cell_length_b       6.01747
_cell_length_c       6.06892
_cell_angle_alpha    60.2801
_cell_angle_beta     60.2909
_cell_angle_gamma    60.28

_symmetry_Int_Tables_number  74
_chemical_formula_structural  Mg2TcO4
_chemical_formula_sum  Mg4Tc2O8
_cell_volume  157.72549598520465
_cell_formula_units_Z  2
loop_
  _symmetry_equiv_pos_site_id
 _symmetry_equiv_pos_as_xyz
 1  'x, y, z'
loop_
 _atom_site_type_symbol
 _atom_site_label
 _atom_site_symmetry_multiplicity
 _atom_site_fract_x
 _atom_site_fract_y
 _atom_site_fract_z
 _atom_site_fract_occupancy
 Mg  Mg1  1  0.01163  0.98837  0.01163  1
 Mg  Mg2  1  0.23837  0.26163  0.23837  1
 Mg  Mg3  1  0.62500  0.12500  0.62500  1
 Mg  Mg4  1  0.62500  0.62500  0.62500  1
 O  O1  1  0.37821  0.39173  0.37821  1
 O  O2  1  0.37494  0.39179  0.84149  1
 O  O3  1  0.37821  0.85185  0.37821  1
 O  O4  1  0.84149  0.39179  0.37494  1
 O  O5  1  0.40851  0.85821  0.87506  1
 O  O6  1  0.87506  0.85821  0.40851  1
 O  O7  1  0.87179  0.39815  0.87179  1
 O  O8  1  0.87179  0.85827  0.87179  1
 Tc  Tc1  1  0.12500  0.62500  0.62500  1
 Tc  Tc2  1  0.62500  0.62500  0.12500  1
