CIF file written using JARVIS-Tools package.
data_SbN
_symmetry_space_group_name_H-M  'P2_1'
_cell_length_a       3.3126
_cell_length_b       4.00409
_cell_length_c       5.87812
_cell_angle_alpha    89.9966
_cell_angle_beta     106.249
_cell_angle_gamma    90.0011

_symmetry_Int_Tables_number  4
_chemical_formula_structural  SbN
_chemical_formula_sum  Sb2N2
_cell_volume  74.8527353551217
_cell_formula_units_Z  2
loop_
  _symmetry_equiv_pos_site_id
 _symmetry_equiv_pos_as_xyz
 1  'x, y, z'
loop_
 _atom_site_type_symbol
 _atom_site_label
 _atom_site_symmetry_multiplicity
 _atom_site_fract_x
 _atom_site_fract_y
 _atom_site_fract_z
 _atom_site_fract_occupancy
 N  N1  1  0.43841  0.97811  0.38436  1
 N  N2  1  0.80623  0.47813  0.11829  1
 Sb  Sb1  1  0.26408  0.78511  0.03338  1
 Sb  Sb2  1  0.98057  0.28508  0.46927  1
