CIF file written using JARVIS-Tools package.
data_ZnSnO2
_symmetry_space_group_name_H-M  'P-1'
_cell_length_a       3.42459
_cell_length_b       8.23168
_cell_length_c       9.29275
_cell_angle_alpha    87.2197
_cell_angle_beta     79.3173
_cell_angle_gamma    78.3456

_symmetry_Int_Tables_number  2
_chemical_formula_structural  ZnSnO2
_chemical_formula_sum  Zn4Sn4O8
_cell_volume  252.09964788272495
_cell_formula_units_Z  4
loop_
  _symmetry_equiv_pos_site_id
 _symmetry_equiv_pos_as_xyz
 1  'x, y, z'
loop_
 _atom_site_type_symbol
 _atom_site_label
 _atom_site_symmetry_multiplicity
 _atom_site_fract_x
 _atom_site_fract_y
 _atom_site_fract_z
 _atom_site_fract_occupancy
 O  O1  1  0.57406  0.81174  0.53905  1
 O  O2  1  0.11493  0.33726  0.94888  1
 O  O3  1  0.88112  0.64266  0.07932  1
 O  O4  1  0.42196  0.16818  0.48916  1
 O  O5  1  0.83506  0.09152  0.74049  1
 O  O6  1  0.58926  0.18255  0.14905  1
 O  O7  1  0.16096  0.88840  0.28771  1
 O  O8  1  0.40679  0.79736  0.87915  1
 Sn  Sn1  1  0.81775  0.29375  0.57494  1
 Sn  Sn2  1  -0.01742  0.36107  0.18324  1
 Sn  Sn3  1  0.01346  0.61884  0.84496  1
 Sn  Sn4  1  0.17827  0.68617  0.45326  1
 Zn  Zn1  1  0.58267  0.01753  0.31878  1
 Zn  Zn2  1  0.41336  0.96239  0.70942  1
 Zn  Zn3  1  0.30728  0.77481  0.09973  1
 Zn  Zn4  1  0.68877  0.20510  0.92847  1
