CIF file written using JARVIS-Tools package.
data_K2ZnTe2
_symmetry_space_group_name_H-M  'Ibam'
_cell_length_a       6.95688
_cell_length_b       7.24849
_cell_length_c       8.62701
_cell_angle_alpha    114.841
_cell_angle_beta     113.778
_cell_angle_gamma    90

_symmetry_Int_Tables_number  72
_chemical_formula_structural  K2ZnTe2
_chemical_formula_sum  K4Zn2Te4
_cell_volume  353.67417692839797
_cell_formula_units_Z  2
loop_
  _symmetry_equiv_pos_site_id
 _symmetry_equiv_pos_as_xyz
 1  'x, y, z'
loop_
 _atom_site_type_symbol
 _atom_site_label
 _atom_site_symmetry_multiplicity
 _atom_site_fract_x
 _atom_site_fract_y
 _atom_site_fract_z
 _atom_site_fract_occupancy
 K  K1  1  0.85935  0.17572  0.71870  1
 K  K2  1  0.14065  0.82428  0.28130  1
 K  K3  1  0.64065  0.45702  0.28130  1
 K  K4  1  0.35935  0.54298  0.71870  1
 Te  Te1  1  0.60880  0.91105  0.21761  1
 Te  Te2  1  0.39120  0.08895  0.78239  1
 Te  Te3  1  0.89120  0.69344  0.78239  1
 Te  Te4  1  0.10880  0.30656  0.21761  1
 Zn  Zn1  1  0.25000  -0.00000  -0.00000  1
 Zn  Zn2  1  0.75000  -0.00000  0.00000  1
