CIF file written using JARVIS-Tools package.
data_TbCl2F
_symmetry_space_group_name_H-M  'C2/c'
_cell_length_a       5.30973
_cell_length_b       5.30973
_cell_length_c       6.84795
_cell_angle_alpha    73.2426
_cell_angle_beta     73.2427
_cell_angle_gamma    65.9138

_symmetry_Int_Tables_number  15
_chemical_formula_structural  TbCl2F
_chemical_formula_sum  Tb2Cl4F2
_cell_volume  165.52407432918287
_cell_formula_units_Z  2
loop_
  _symmetry_equiv_pos_site_id
 _symmetry_equiv_pos_as_xyz
 1  'x, y, z'
loop_
 _atom_site_type_symbol
 _atom_site_label
 _atom_site_symmetry_multiplicity
 _atom_site_fract_x
 _atom_site_fract_y
 _atom_site_fract_z
 _atom_site_fract_occupancy
 Cl  Cl1  1  0.33132  0.28718  0.60341  1
 Cl  Cl2  1  0.66868  0.71282  0.39659  1
 Cl  Cl3  1  0.28718  0.33132  0.10340  1
 Cl  Cl4  1  0.71282  0.66868  0.89659  1
 F  F1  1  0.00000  0.00000  0.00000  1
 F  F2  1  0.00000  0.00000  0.50000  1
 Tb  Tb1  1  0.23486  0.76514  0.75000  1
 Tb  Tb2  1  0.76514  0.23486  0.25000  1
