CIF file written using JARVIS-Tools package.
data_Zn2Bi3O8
_symmetry_space_group_name_H-M  'C2/m'
_cell_length_a       5.86074
_cell_length_b       7.0181
_cell_length_c       6.96285
_cell_angle_alpha    120.263
_cell_angle_beta     123.401
_cell_angle_gamma    90

_symmetry_Int_Tables_number  12
_chemical_formula_structural  Zn2Bi3O8
_chemical_formula_sum  Zn2Bi3O8
_cell_volume  190.6092452043194
_cell_formula_units_Z  1
loop_
  _symmetry_equiv_pos_site_id
 _symmetry_equiv_pos_as_xyz
 1  'x, y, z'
loop_
 _atom_site_type_symbol
 _atom_site_label
 _atom_site_symmetry_multiplicity
 _atom_site_fract_x
 _atom_site_fract_y
 _atom_site_fract_z
 _atom_site_fract_occupancy
 Bi  Bi1  1  0.50000  1.00000  -0.00000  1
 Bi  Bi2  1  -0.00000  0.73249  0.00000  1
 Bi  Bi3  1  -0.00000  0.26751  0.00000  1
 O  O1  1  0.00063  0.37186  0.74372  1
 O  O2  1  0.99937  0.62814  0.25628  1
 O  O3  1  0.98029  0.88002  0.76003  1
 O  O4  1  0.01971  0.11998  0.23997  1
 O  O5  1  0.47588  0.37695  0.23330  1
 O  O6  1  0.47588  0.85635  0.23330  1
 O  O7  1  0.52411  0.14365  0.76670  1
 O  O8  1  0.52411  0.62304  0.76670  1
 Zn  Zn1  1  0.69702  0.66326  0.32652  1
 Zn  Zn2  1  0.30298  0.33674  0.67348  1
