CIF file written using JARVIS-Tools package.
data_LiV2O3F
_symmetry_space_group_name_H-M  'Pnma'
_cell_length_a       5.78414
_cell_length_b       6.06866
_cell_length_c       8.4823
_cell_angle_alpha    89.9998
_cell_angle_beta     89.9956
_cell_angle_gamma    90.0012

_symmetry_Int_Tables_number  62
_chemical_formula_structural  LiV2O3F
_chemical_formula_sum  Li4V8O2F4
_cell_volume  297.7458917419819
_cell_formula_units_Z  4
loop_
  _symmetry_equiv_pos_site_id
 _symmetry_equiv_pos_as_xyz
 1  'x, y, z'
loop_
 _atom_site_type_symbol
 _atom_site_label
 _atom_site_symmetry_multiplicity
 _atom_site_fract_x
 _atom_site_fract_y
 _atom_site_fract_z
 _atom_site_fract_occupancy
 F  F1  1  0.25021  0.50000  0.87798  1
 F  F2  1  0.75029  0.50000  0.37203  1
 F  F3  1  0.74971  0.00000  0.87203  1
 F  F4  1  0.24980  0.00000  0.37798  1
 Li  Li1  1  0.01584  0.00000  0.01939  1
 Li  Li2  1  0.51587  0.00000  0.23054  1
 Li  Li3  1  0.48415  0.50000  0.51939  1
 Li  Li4  1  0.98413  0.50000  0.73053  1
 O  O1  1  0.51435  0.22310  0.63972  1
 O  O2  1  0.77226  -0.00000  0.37771  1
 O  O3  1  0.48566  0.72293  0.11028  1
 O  O4  1  0.98565  0.72309  0.13972  1
 O  O5  1  0.98564  0.27691  0.13972  1
 O  O6  1  0.22765  0.50000  0.37232  1
 O  O7  1  0.48566  0.27707  0.11028  1
 O  O8  1  0.01434  0.22292  0.61028  1
 O  O9  1  0.72774  0.50000  0.87771  1
 O  O10  1  0.51435  0.77690  0.63972  1
 O  O11  1  0.27235  -0.00000  0.87232  1
 O  O12  1  0.01434  0.77708  0.61028  1
 V  V1  1  0.00002  0.75004  0.37501  1
 V  V2  1  0.74019  0.50000  0.10358  1
 V  V3  1  0.23997  0.50000  0.14644  1
 V  V4  1  0.00002  0.24996  0.37501  1
 V  V5  1  0.75980  -0.00000  0.60358  1
 V  V6  1  0.26004  -0.00000  0.64644  1
 V  V7  1  0.49998  0.74996  0.87501  1
 V  V8  1  0.49998  0.25004  0.87501  1
