CIF file written using JARVIS-Tools package.
data_Ce4B2N5
_symmetry_space_group_name_H-M  'C2/m'
_cell_length_a       3.53013
_cell_length_b       6.31886
_cell_length_c       7.10832
_cell_angle_alpha    82.9793
_cell_angle_beta     75.6226
_cell_angle_gamma    73.7796

_symmetry_Int_Tables_number  12
_chemical_formula_structural  Ce4B2N5
_chemical_formula_sum  Ce4B2N5
_cell_volume  147.24257029555682
_cell_formula_units_Z  1
loop_
  _symmetry_equiv_pos_site_id
 _symmetry_equiv_pos_as_xyz
 1  'x, y, z'
loop_
 _atom_site_type_symbol
 _atom_site_label
 _atom_site_symmetry_multiplicity
 _atom_site_fract_x
 _atom_site_fract_y
 _atom_site_fract_z
 _atom_site_fract_occupancy
 B  B1  1  0.41161  0.56767  0.60910  1
 B  B2  1  0.58839  0.43233  0.39090  1
 Ce  Ce1  1  0.07463  0.19674  0.65401  1
 Ce  Ce2  1  0.92537  0.80326  0.34599  1
 Ce  Ce3  1  0.68762  0.73813  0.88664  1
 Ce  Ce4  1  0.31238  0.26187  0.11336  1
 N  N1  1  0.29168  0.81260  0.60404  1
 N  N2  1  0.70832  0.18740  0.39596  1
 N  N3  1  0.00000  0.00000  0.00000  1
 N  N4  1  0.37959  0.43980  0.80103  1
 N  N5  1  0.62041  0.56020  0.19897  1
