CIF file written using JARVIS-Tools package.
data_MnRu3
_symmetry_space_group_name_H-M  'P6_3/mmc'
_cell_length_a       5.36331
_cell_length_b       5.36331
_cell_length_c       4.20725
_cell_angle_alpha    90
_cell_angle_beta     90
_cell_angle_gamma    120

_symmetry_Int_Tables_number  194
_chemical_formula_structural  MnRu3
_chemical_formula_sum  Mn2Ru6
_cell_volume  104.8078838787907
_cell_formula_units_Z  2
loop_
  _symmetry_equiv_pos_site_id
 _symmetry_equiv_pos_as_xyz
 1  'x, y, z'
loop_
 _atom_site_type_symbol
 _atom_site_label
 _atom_site_symmetry_multiplicity
 _atom_site_fract_x
 _atom_site_fract_y
 _atom_site_fract_z
 _atom_site_fract_occupancy
 Mn  Mn1  1  0.33333  0.66667  0.75000  1
 Mn  Mn2  1  0.66667  0.33333  0.25000  1
 Ru  Ru1  1  0.65853  0.82927  0.25000  1
 Ru  Ru2  1  0.17073  0.82927  0.25000  1
 Ru  Ru3  1  0.17073  0.34147  0.25000  1
 Ru  Ru4  1  0.34147  0.17073  0.75000  1
 Ru  Ru5  1  0.82927  0.17073  0.75000  1
 Ru  Ru6  1  0.82927  0.65853  0.75000  1
