CIF file written using JARVIS-Tools package.
data_KLiO
_symmetry_space_group_name_H-M  'Cmce'
_cell_length_a       5.34
_cell_length_b       5.34
_cell_length_c       6.40637
_cell_angle_alpha    90
_cell_angle_beta     90
_cell_angle_gamma    106.756

_symmetry_Int_Tables_number  64
_chemical_formula_structural  KLiO
_chemical_formula_sum  K4Li4O4
_cell_volume  174.92462501062042
_cell_formula_units_Z  4
loop_
  _symmetry_equiv_pos_site_id
 _symmetry_equiv_pos_as_xyz
 1  'x, y, z'
loop_
 _atom_site_type_symbol
 _atom_site_label
 _atom_site_symmetry_multiplicity
 _atom_site_fract_x
 _atom_site_fract_y
 _atom_site_fract_z
 _atom_site_fract_occupancy
 K  K1  1  0.17894  0.82106  0.00000  1
 K  K2  1  0.82106  0.17894  0.00000  1
 K  K3  1  0.67894  0.32106  0.50000  1
 K  K4  1  0.32106  0.67894  0.50000  1
 Li  Li1  1  0.12534  0.12534  0.37348  1
 Li  Li2  1  0.62534  0.62534  0.12652  1
 Li  Li3  1  0.37466  0.37466  0.87348  1
 Li  Li4  1  0.87466  0.87466  0.62652  1
 O  O1  1  0.33019  0.33019  0.16655  1
 O  O2  1  0.16981  0.16981  0.66655  1
 O  O3  1  0.66981  0.66981  0.83345  1
 O  O4  1  0.83019  0.83019  0.33345  1
