CIF file written using JARVIS-Tools package.
data_ZnCoF4
_symmetry_space_group_name_H-M  'P1'
_cell_length_a       5.18358
_cell_length_b       5.06748
_cell_length_c       5.94639
_cell_angle_alpha    110.874
_cell_angle_beta     112.88
_cell_angle_gamma    90.0814

_symmetry_Int_Tables_number  1
_chemical_formula_structural  ZnCoF4
_chemical_formula_sum  Zn2Co2F8
_cell_volume  132.67423611188343
_cell_formula_units_Z  2
loop_
  _symmetry_equiv_pos_site_id
 _symmetry_equiv_pos_as_xyz
 1  'x, y, z'
loop_
 _atom_site_type_symbol
 _atom_site_label
 _atom_site_symmetry_multiplicity
 _atom_site_fract_x
 _atom_site_fract_y
 _atom_site_fract_z
 _atom_site_fract_occupancy
 Co  Co1  1  0.52630  0.02097  0.02300  1
 Co  Co2  1  0.03291  0.48988  0.02172  1
 F  F1  1  0.01662  0.63077  0.74532  1
 F  F2  1  0.34580  0.88818  0.24912  1
 F  F3  1  0.92878  0.29103  0.23752  1
 F  F4  1  0.43308  0.38943  0.25509  1
 F  F5  1  0.68038  0.17242  0.74595  1
 F  F6  1  0.18619  0.14586  0.76447  1
 F  F7  1  0.49816  0.67450  0.71787  1
 F  F8  1  0.82556  0.78714  0.22096  1
 Zn  Zn1  1  0.72415  0.77126  0.50932  1
 Zn  Zn2  1  0.28461  0.26582  0.51808  1
