CIF file written using JARVIS-Tools package.
data_Li2MnF4
_symmetry_space_group_name_H-M  'P2_1/c'
_cell_length_a       5.74598
_cell_length_b       5.37752
_cell_length_c       6.09376
_cell_angle_alpha    90
_cell_angle_beta     117.469
_cell_angle_gamma    90

_symmetry_Int_Tables_number  14
_chemical_formula_structural  Li2MnF4
_chemical_formula_sum  Li4Mn2F8
_cell_volume  167.06329672354377
_cell_formula_units_Z  2
loop_
  _symmetry_equiv_pos_site_id
 _symmetry_equiv_pos_as_xyz
 1  'x, y, z'
loop_
 _atom_site_type_symbol
 _atom_site_label
 _atom_site_symmetry_multiplicity
 _atom_site_fract_x
 _atom_site_fract_y
 _atom_site_fract_z
 _atom_site_fract_occupancy
 F  F1  1  0.13801  0.89249  0.38506  1
 F  F2  1  0.64478  0.80452  0.87182  1
 F  F3  1  0.36199  0.39249  0.61494  1
 F  F4  1  0.85522  0.30452  0.12818  1
 F  F5  1  0.14478  0.69548  0.87182  1
 F  F6  1  0.63801  0.60751  0.38506  1
 F  F7  1  0.35522  0.19548  0.12818  1
 F  F8  1  0.86199  0.10751  0.61494  1
 Li  Li1  1  0.44512  0.72006  0.54261  1
 Li  Li2  1  0.05488  0.22006  0.45739  1
 Li  Li3  1  0.94512  0.77994  0.54261  1
 Li  Li4  1  0.55488  0.27994  0.45739  1
 Mn  Mn1  1  0.00000  0.00000  0.00000  1
 Mn  Mn2  1  0.50000  0.50000  0.00000  1
