CIF file written using JARVIS-Tools package.
data_Sr2CuP2O8
_symmetry_space_group_name_H-M  'C2/m'
_cell_length_a       5.11519
_cell_length_b       6.32701
_cell_length_c       6.60725
_cell_angle_alpha    105.182
_cell_angle_beta     90
_cell_angle_gamma    113.843

_symmetry_Int_Tables_number  12
_chemical_formula_structural  Sr2CuP2O8
_chemical_formula_sum  Sr2CuP2O8
_cell_volume  187.39865627500166
_cell_formula_units_Z  1
loop_
  _symmetry_equiv_pos_site_id
 _symmetry_equiv_pos_as_xyz
 1  'x, y, z'
loop_
 _atom_site_type_symbol
 _atom_site_label
 _atom_site_symmetry_multiplicity
 _atom_site_fract_x
 _atom_site_fract_y
 _atom_site_fract_z
 _atom_site_fract_occupancy
 Cu  Cu1  1  0.50000  0.00000  0.50000  1
 O  O1  1  0.37657  0.26329  0.56141  1
 O  O2  1  0.11328  0.73671  0.43859  1
 O  O3  1  0.62343  0.73671  0.43859  1
 O  O4  1  0.88672  0.26329  0.56141  1
 O  O5  1  0.72672  0.45343  0.13852  1
 O  O6  1  0.05003  0.10005  0.83114  1
 O  O7  1  0.94997  0.89995  0.16886  1
 O  O8  1  0.27328  0.54657  0.86148  1
 P  P1  1  0.85610  0.71219  0.29003  1
 P  P2  1  0.14390  0.28781  0.70997  1
 Sr  Sr1  1  0.17038  0.34077  0.21747  1
 Sr  Sr2  1  0.82962  0.65923  0.78253  1
