CIF file written using JARVIS-Tools package.
data_BaYAgTe3
_symmetry_space_group_name_H-M  'Cmcm'
_cell_length_a       4.51718
_cell_length_b       7.85372
_cell_length_c       11.4542
_cell_angle_alpha    90
_cell_angle_beta     90
_cell_angle_gamma    106.713

_symmetry_Int_Tables_number  63
_chemical_formula_structural  BaYAgTe3
_chemical_formula_sum  Ba2Y2Ag2Te6
_cell_volume  389.1916319644909
_cell_formula_units_Z  2
loop_
  _symmetry_equiv_pos_site_id
 _symmetry_equiv_pos_as_xyz
 1  'x, y, z'
loop_
 _atom_site_type_symbol
 _atom_site_label
 _atom_site_symmetry_multiplicity
 _atom_site_fract_x
 _atom_site_fract_y
 _atom_site_fract_z
 _atom_site_fract_occupancy
 Ag  Ag1  1  0.53245  0.06491  0.25000  1
 Ag  Ag2  1  0.46755  0.93509  0.75000  1
 Ba  Ba1  1  0.24388  0.48776  0.25000  1
 Ba  Ba2  1  0.75612  0.51224  0.75000  1
 Te  Te1  1  0.36055  0.72109  0.95045  1
 Te  Te2  1  0.91980  0.83960  0.25000  1
 Te  Te3  1  0.63945  0.27891  0.45045  1
 Te  Te4  1  0.63945  0.27891  0.04955  1
 Te  Te5  1  0.36055  0.72109  0.54955  1
 Te  Te6  1  0.08020  0.16040  0.75000  1
 Y  Y1  1  0.00000  0.00000  0.00000  1
 Y  Y2  1  0.00000  0.00000  0.50000  1
