CIF file written using JARVIS-Tools package.
data_NaBC4O8
_symmetry_space_group_name_H-M  'Cmcm'
_cell_length_a       6.54327
_cell_length_b       6.54327
_cell_length_c       7.71456
_cell_angle_alpha    90
_cell_angle_beta     90
_cell_angle_gamma    105.21

_symmetry_Int_Tables_number  63
_chemical_formula_structural  NaBC4O8
_chemical_formula_sum  Na2B2C8O6
_cell_volume  318.7239057847856
_cell_formula_units_Z  2
loop_
  _symmetry_equiv_pos_site_id
 _symmetry_equiv_pos_as_xyz
 1  'x, y, z'
loop_
 _atom_site_type_symbol
 _atom_site_label
 _atom_site_symmetry_multiplicity
 _atom_site_fract_x
 _atom_site_fract_y
 _atom_site_fract_z
 _atom_site_fract_occupancy
 B  B1  1  0.43317  0.56683  0.25000  1
 B  B2  1  0.56683  0.43317  0.75000  1
 C  C1  1  0.22510  0.77490  0.15086  1
 C  C2  1  0.54518  0.26212  0.25000  1
 C  C3  1  0.26212  0.54518  0.75000  1
 C  C4  1  0.45482  0.73788  0.75000  1
 C  C5  1  0.77490  0.22510  0.84914  1
 C  C6  1  0.73788  0.45482  0.25000  1
 C  C7  1  0.77490  0.22510  0.65086  1
 C  C8  1  0.22510  0.77490  0.34914  1
 Na  Na1  1  0.06623  0.93377  0.75000  1
 Na  Na2  1  0.93377  0.06623  0.25000  1
 O  O1  1  0.12935  0.87065  0.05999  1
 O  O2  1  0.44405  0.92093  0.75000  1
 O  O3  1  0.65304  0.34696  0.90234  1
 O  O4  1  0.12935  0.87065  0.44001  1
 O  O5  1  0.87065  0.12935  0.55999  1
 O  O6  1  0.66933  0.62855  0.25000  1
 O  O7  1  0.33067  0.37145  0.75000  1
 O  O8  1  0.62855  0.66933  0.75000  1
 O  O9  1  0.07907  0.55595  0.75000  1
 O  O10  1  0.37145  0.33067  0.25000  1
 O  O11  1  0.65304  0.34696  0.59766  1
 O  O12  1  0.55595  0.07907  0.25000  1
 O  O13  1  0.34696  0.65304  0.09766  1
 O  O14  1  0.87065  0.12935  0.94001  1
 O  O15  1  0.92093  0.44405  0.25000  1
 O  O16  1  0.34696  0.65304  0.40234  1
