CIF file written using JARVIS-Tools package.
data_TiZnBi2O6
_symmetry_space_group_name_H-M  'P1'
_cell_length_a       5.39828
_cell_length_b       5.39301
_cell_length_c       6.11653
_cell_angle_alpha    116.785
_cell_angle_beta     115.54
_cell_angle_gamma    90.5888

_symmetry_Int_Tables_number  1
_chemical_formula_structural  TiZnBi2O6
_chemical_formula_sum  TiZnBi2O6
_cell_volume  138.72911799548734
_cell_formula_units_Z  1
loop_
  _symmetry_equiv_pos_site_id
 _symmetry_equiv_pos_as_xyz
 1  'x, y, z'
loop_
 _atom_site_type_symbol
 _atom_site_label
 _atom_site_symmetry_multiplicity
 _atom_site_fract_x
 _atom_site_fract_y
 _atom_site_fract_z
 _atom_site_fract_occupancy
 Bi  Bi1  1  -0.01314  0.45977  -0.00800  1
 Bi  Bi2  1  0.52950  0.99458  0.99416  1
 O  O1  1  0.86900  0.96939  0.84350  1
 O  O2  1  0.41992  0.37219  0.77507  1
 O  O3  1  0.38069  0.88878  0.26872  1
 O  O4  1  0.38140  0.38863  0.27655  1
 O  O5  1  0.90025  0.40041  0.30028  1
 O  O6  1  0.89079  0.89871  0.28271  1
 Ti  Ti1  1  0.21567  0.18873  0.40032  1
 Zn  Zn1  1  0.71490  0.72789  0.44478  1
