CIF file written using JARVIS-Tools package.
data_BaH4O3
_symmetry_space_group_name_H-M  'Pmc2_1'
_cell_length_a       3.99427
_cell_length_b       5.78439
_cell_length_c       7.1717
_cell_angle_alpha    90
_cell_angle_beta     90.0017
_cell_angle_gamma    90

_symmetry_Int_Tables_number  26
_chemical_formula_structural  BaH4O3
_chemical_formula_sum  Ba2H8O6
_cell_volume  165.69790180057018
_cell_formula_units_Z  2
loop_
  _symmetry_equiv_pos_site_id
 _symmetry_equiv_pos_as_xyz
 1  'x, y, z'
loop_
 _atom_site_type_symbol
 _atom_site_label
 _atom_site_symmetry_multiplicity
 _atom_site_fract_x
 _atom_site_fract_y
 _atom_site_fract_z
 _atom_site_fract_occupancy
 Ba  Ba1  1  -0.00001  0.19367  0.68343  1
 Ba  Ba2  1  0.00001  0.69367  0.31657  1
 H  H1  1  0.79917  0.20535  0.12562  1
 H  H2  1  0.20081  0.20534  0.12560  1
 H  H3  1  0.20083  0.70535  0.87438  1
 H  H4  1  0.79919  0.70534  0.87440  1
 H  H5  1  0.49999  0.40759  -0.02264  1
 H  H6  1  0.50001  0.90759  0.02264  1
 H  H7  1  0.50008  0.59664  0.59233  1
 H  H8  1  0.49992  0.09664  0.40767  1
 O  O1  1  0.00001  0.19451  0.21284  1
 O  O2  1  -0.00001  0.69451  0.78716  1
 O  O3  1  0.49999  0.23775  0.96781  1
 O  O4  1  0.50001  0.73775  0.03219  1
 O  O5  1  0.50002  0.45579  0.51651  1
 O  O6  1  0.49998  0.95579  0.48349  1
