CIF file written using JARVIS-Tools package.
data_Ni2SbTe2
_symmetry_space_group_name_H-M  'P6_3/mmc'
_cell_length_a       3.94398
_cell_length_b       3.94397
_cell_length_c       15.9645
_cell_angle_alpha    90
_cell_angle_beta     90
_cell_angle_gamma    120

_symmetry_Int_Tables_number  194
_chemical_formula_structural  Ni2SbTe2
_chemical_formula_sum  Ni4Sb2Te4
_cell_volume  215.0580137087835
_cell_formula_units_Z  2
loop_
  _symmetry_equiv_pos_site_id
 _symmetry_equiv_pos_as_xyz
 1  'x, y, z'
loop_
 _atom_site_type_symbol
 _atom_site_label
 _atom_site_symmetry_multiplicity
 _atom_site_fract_x
 _atom_site_fract_y
 _atom_site_fract_z
 _atom_site_fract_occupancy
 Ni  Ni1  1  0.00000  0.00000  0.16629  1
 Ni  Ni2  1  0.00000  0.00000  0.66629  1
 Ni  Ni3  1  0.00000  0.00000  0.83371  1
 Ni  Ni4  1  0.00000  0.00000  0.33371  1
 Sb  Sb1  1  0.33333  0.66667  0.25000  1
 Sb  Sb2  1  0.66667  0.33333  0.75000  1
 Te  Te1  1  0.33333  0.66667  0.58884  1
 Te  Te2  1  0.66667  0.33333  0.08884  1
 Te  Te3  1  0.66667  0.33333  0.41116  1
 Te  Te4  1  0.33333  0.66667  0.91116  1
