CIF file written using JARVIS-Tools package.
data_CaMnF5
_symmetry_space_group_name_H-M  'P-1'
_cell_length_a       5.55483
_cell_length_b       5.55744
_cell_length_c       7.81608
_cell_angle_alpha    97.0667
_cell_angle_beta     110.932
_cell_angle_gamma    108.907

_symmetry_Int_Tables_number  2
_chemical_formula_structural  CaMnF5
_chemical_formula_sum  Ca2Mn2F0
_cell_volume  205.27319565114686
_cell_formula_units_Z  2
loop_
  _symmetry_equiv_pos_site_id
 _symmetry_equiv_pos_as_xyz
 1  'x, y, z'
loop_
 _atom_site_type_symbol
 _atom_site_label
 _atom_site_symmetry_multiplicity
 _atom_site_fract_x
 _atom_site_fract_y
 _atom_site_fract_z
 _atom_site_fract_occupancy
 Ca  Ca1  1  0.79774  0.54449  0.24969  1
 Ca  Ca2  1  0.20580  0.45258  0.75005  1
 F  F1  1  0.83891  0.08806  0.75109  1
 F  F2  1  0.16464  0.90898  0.24866  1
 F  F3  1  0.37113  0.20372  0.61589  1
 F  F4  1  0.08406  0.74942  0.88001  1
 F  F5  1  0.65820  0.71506  0.97123  1
 F  F6  1  0.24625  0.68732  0.53013  1
 F  F7  1  0.34534  0.28201  0.02850  1
 F  F8  1  0.75729  0.30973  0.46961  1
 F  F9  1  0.91950  0.24766  0.11973  1
 F  F10  1  0.63243  0.79333  0.38386  1
 Mn  Mn1  1  0.00178  0.99853  -0.00013  1
 Mn  Mn2  1  0.50177  0.99853  0.49987  1
