CIF file written using JARVIS-Tools package.
data_KO3
_symmetry_space_group_name_H-M  'I4/mcm'
_cell_length_a       7.04814
_cell_length_b       7.04814
_cell_length_c       7.04814
_cell_angle_alpha    104.355
_cell_angle_beta     104.355
_cell_angle_gamma    120.273

_symmetry_Int_Tables_number  140
_chemical_formula_structural  KO3
_chemical_formula_sum  K4O2
_cell_volume  262.2276920988583
_cell_formula_units_Z  4
loop_
  _symmetry_equiv_pos_site_id
 _symmetry_equiv_pos_as_xyz
 1  'x, y, z'
loop_
 _atom_site_type_symbol
 _atom_site_label
 _atom_site_symmetry_multiplicity
 _atom_site_fract_x
 _atom_site_fract_y
 _atom_site_fract_z
 _atom_site_fract_occupancy
 K  K1  1  0.25000  0.75000  0.50000  1
 K  K2  1  0.75000  0.25000  0.50000  1
 K  K3  1  0.75000  0.75000  -0.00000  1
 K  K4  1  0.25000  0.25000  -0.00000  1
 O  O1  1  0.74822  0.56494  0.31315  1
 O  O2  1  0.43506  0.74822  0.18328  1
 O  O3  1  0.56494  0.25178  0.81672  1
 O  O4  1  0.25178  0.43506  0.68685  1
 O  O5  1  0.22081  0.27919  0.50000  1
 O  O6  1  0.27919  0.77919  0.05837  1
 O  O7  1  0.72081  0.22081  0.94163  1
 O  O8  1  0.77919  0.72081  0.50000  1
 O  O9  1  0.06494  0.24822  0.31315  1
 O  O10  1  0.24822  0.93506  0.18328  1
 O  O11  1  0.75178  0.06494  0.81672  1
 O  O12  1  0.93506  0.75178  0.68685  1
