CIF file written using JARVIS-Tools package.
data_CaTiF5
_symmetry_space_group_name_H-M  'C2/c'
_cell_length_a       5.64085
_cell_length_b       5.64085
_cell_length_c       7.71868
_cell_angle_alpha    70.117
_cell_angle_beta     70.1171
_cell_angle_gamma    71.924

_symmetry_Int_Tables_number  15
_chemical_formula_structural  CaTiF5
_chemical_formula_sum  Ca2Ti2F0
_cell_volume  211.86922784161828
_cell_formula_units_Z  2
loop_
  _symmetry_equiv_pos_site_id
 _symmetry_equiv_pos_as_xyz
 1  'x, y, z'
loop_
 _atom_site_type_symbol
 _atom_site_label
 _atom_site_symmetry_multiplicity
 _atom_site_fract_x
 _atom_site_fract_y
 _atom_site_fract_z
 _atom_site_fract_occupancy
 Ca  Ca1  1  0.45677  0.54323  0.75000  1
 Ca  Ca2  1  0.54323  0.45677  0.25000  1
 F  F1  1  0.20480  0.25506  0.87957  1
 F  F2  1  0.74494  0.79520  0.62043  1
 F  F3  1  0.79520  0.74494  0.12043  1
 F  F4  1  0.25506  0.20480  0.37957  1
 F  F5  1  0.09318  0.90682  0.75000  1
 F  F6  1  0.90682  0.09318  0.25000  1
 F  F7  1  0.28634  0.68482  0.46967  1
 F  F8  1  0.31518  0.71366  0.03033  1
 F  F9  1  0.71366  0.31518  0.53033  1
 F  F10  1  0.68482  0.28634  0.96967  1
 Ti  Ti1  1  0.00000  0.00000  0.00000  1
 Ti  Ti2  1  -0.00000  -0.00000  0.50000  1
