CIF file written using JARVIS-Tools package.
data_BaN6
_symmetry_space_group_name_H-M  'P2_1/m'
_cell_length_a       5.49067
_cell_length_b       4.36147
_cell_length_c       9.6906
_cell_angle_alpha    90
_cell_angle_beta     99.5314
_cell_angle_gamma    90

_symmetry_Int_Tables_number  11
_chemical_formula_structural  BaN6
_chemical_formula_sum  Ba2N2
_cell_volume  228.86056109291565
_cell_formula_units_Z  2
loop_
  _symmetry_equiv_pos_site_id
 _symmetry_equiv_pos_as_xyz
 1  'x, y, z'
loop_
 _atom_site_type_symbol
 _atom_site_label
 _atom_site_symmetry_multiplicity
 _atom_site_fract_x
 _atom_site_fract_y
 _atom_site_fract_z
 _atom_site_fract_occupancy
 Ba  Ba1  1  0.16998  0.75000  0.21692  1
 Ba  Ba2  1  0.83002  0.25000  0.78308  1
 N  N1  1  0.70705  0.75000  0.33250  1
 N  N2  1  0.29295  0.25000  0.66750  1
 N  N3  1  0.85959  0.25000  0.09564  1
 N  N4  1  0.14041  0.75000  0.90436  1
 N  N5  1  0.64727  0.25000  0.10680  1
 N  N6  1  0.35273  0.75000  0.89320  1
 N  N7  1  0.43628  0.25000  0.11541  1
 N  N8  1  0.56372  0.75000  0.88459  1
 N  N9  1  0.22463  0.25000  0.41945  1
 N  N10  1  0.77537  0.75000  0.58055  1
 N  N11  1  0.25861  0.25000  0.54359  1
 N  N12  1  0.74139  0.75000  0.45641  1
