CIF file written using JARVIS-Tools package.
data_AgBC4N4
_symmetry_space_group_name_H-M  'P-43m'
_cell_length_a       5.72641
_cell_length_b       5.72641
_cell_length_c       5.72641
_cell_angle_alpha    90
_cell_angle_beta     90
_cell_angle_gamma    90

_symmetry_Int_Tables_number  215
_chemical_formula_structural  AgBC4N4
_chemical_formula_sum  AgBC4N4
_cell_volume  187.7787644244232
_cell_formula_units_Z  1
loop_
  _symmetry_equiv_pos_site_id
 _symmetry_equiv_pos_as_xyz
 1  'x, y, z'
loop_
 _atom_site_type_symbol
 _atom_site_label
 _atom_site_symmetry_multiplicity
 _atom_site_fract_x
 _atom_site_fract_y
 _atom_site_fract_z
 _atom_site_fract_occupancy
 Ag  Ag1  1  0.50000  0.50000  0.50000  1
 B  B1  1  0.00000  0.00000  0.00000  1
 C  C1  1  0.84026  0.84026  0.84026  1
 C  C2  1  0.15974  0.84026  0.15974  1
 C  C3  1  0.15974  0.15974  0.84026  1
 C  C4  1  0.84026  0.15974  0.15974  1
 N  N1  1  0.72343  0.72343  0.72343  1
 N  N2  1  0.27657  0.72343  0.27657  1
 N  N3  1  0.27657  0.27657  0.72343  1
 N  N4  1  0.72343  0.27657  0.27657  1
