CIF file written using JARVIS-Tools package.
data_Mo2WSe4S2
_symmetry_space_group_name_H-M  'R3m'
_cell_length_a       3.28285
_cell_length_b       3.28287
_cell_length_c       19.4869
_cell_angle_alpha    94.8504
_cell_angle_beta     90
_cell_angle_gamma    120

_symmetry_Int_Tables_number  160
_chemical_formula_structural  Mo2WSe4S2
_chemical_formula_sum  Mo2WSe4S2
_cell_volume  181.00751211942108
_cell_formula_units_Z  1
loop_
  _symmetry_equiv_pos_site_id
 _symmetry_equiv_pos_as_xyz
 1  'x, y, z'
loop_
 _atom_site_type_symbol
 _atom_site_label
 _atom_site_symmetry_multiplicity
 _atom_site_fract_x
 _atom_site_fract_y
 _atom_site_fract_z
 _atom_site_fract_occupancy
 Mo  Mo1  1  0.22186  0.44372  0.01268  1
 Mo  Mo2  1  0.44594  0.89188  0.68544  1
 S  S1  1  0.52864  0.05728  0.93340  1
 S  S2  1  0.58177  0.16354  0.09204  1
 Se  Se1  1  0.36150  0.72300  0.43043  1
 Se  Se2  1  0.75011  0.50022  0.59834  1
 Se  Se3  1  0.80842  0.61683  0.77249  1
 Se  Se4  1  0.30285  0.60570  0.25521  1
 W  W1  1  0.66551  0.33101  0.34281  1
