CIF file written using JARVIS-Tools package.
data_W3O8
_symmetry_space_group_name_H-M  'C2/m'
_cell_length_a       5.11534
_cell_length_b       6.12349
_cell_length_c       6.57106
_cell_angle_alpha    117.771
_cell_angle_beta     121.916
_cell_angle_gamma    90

_symmetry_Int_Tables_number  12
_chemical_formula_structural  W3O8
_chemical_formula_sum  W3O8
_cell_volume  146.037655657562
_cell_formula_units_Z  1
loop_
  _symmetry_equiv_pos_site_id
 _symmetry_equiv_pos_as_xyz
 1  'x, y, z'
loop_
 _atom_site_type_symbol
 _atom_site_label
 _atom_site_symmetry_multiplicity
 _atom_site_fract_x
 _atom_site_fract_y
 _atom_site_fract_z
 _atom_site_fract_occupancy
 O  O1  1  -0.03233  0.37233  0.74467  1
 O  O2  1  0.03233  0.62767  0.25533  1
 O  O3  1  0.02278  0.89056  0.78112  1
 O  O4  1  0.97722  0.10944  0.21888  1
 O  O5  1  0.45800  0.33248  0.21124  1
 O  O6  1  0.45800  0.87876  0.21124  1
 O  O7  1  0.54200  0.12124  0.78876  1
 O  O8  1  0.54200  0.66752  0.78876  1
 W  W1  1  0.50000  1.00000  -0.00000  1
 W  W2  1  1.00000  0.72062  0.00000  1
 W  W3  1  1.00000  0.27938  -0.00000  1
