CIF file written using JARVIS-Tools package.
data_CaCr2O4
_symmetry_space_group_name_H-M  'Cmcm'
_cell_length_a       3.01277
_cell_length_b       5.123
_cell_length_c       9.9382
_cell_angle_alpha    90
_cell_angle_beta     90
_cell_angle_gamma    107.1

_symmetry_Int_Tables_number  63
_chemical_formula_structural  CaCr2O4
_chemical_formula_sum  Ca2Cr4O8
_cell_volume  146.60916138204755
_cell_formula_units_Z  2
loop_
  _symmetry_equiv_pos_site_id
 _symmetry_equiv_pos_as_xyz
 1  'x, y, z'
loop_
 _atom_site_type_symbol
 _atom_site_label
 _atom_site_symmetry_multiplicity
 _atom_site_fract_x
 _atom_site_fract_y
 _atom_site_fract_z
 _atom_site_fract_occupancy
 Ca  Ca1  1  0.38847  0.77693  0.75000  1
 Ca  Ca2  1  0.61153  0.22307  0.25000  1
 Cr  Cr1  1  0.86425  0.72850  0.06975  1
 Cr  Cr2  1  0.13575  0.27150  0.93025  1
 Cr  Cr3  1  0.86425  0.72850  0.43025  1
 Cr  Cr4  1  0.13575  0.27150  0.56975  1
 O  O1  1  0.23689  0.47378  0.39333  1
 O  O2  1  0.76311  0.52622  0.60667  1
 O  O3  1  0.76311  0.52622  0.89333  1
 O  O4  1  0.23689  0.47378  0.10667  1
 O  O5  1  0.94187  0.88374  0.25000  1
 O  O6  1  0.05813  0.11626  0.75000  1
 O  O7  1  0.50000  0.00000  0.00000  1
 O  O8  1  0.50000  0.00000  0.50000  1
