CIF file written using JARVIS-Tools package.
data_VOF3
_symmetry_space_group_name_H-M  'Cm'
_cell_length_a       5.67239
_cell_length_b       11.3038
_cell_length_c       4.90784
_cell_angle_alpha    88.422
_cell_angle_beta     125.294
_cell_angle_gamma    92.7313

_symmetry_Int_Tables_number  8
_chemical_formula_structural  VOF3
_chemical_formula_sum  V4O4F2
_cell_volume  256.55624947583385
_cell_formula_units_Z  4
loop_
  _symmetry_equiv_pos_site_id
 _symmetry_equiv_pos_as_xyz
 1  'x, y, z'
loop_
 _atom_site_type_symbol
 _atom_site_label
 _atom_site_symmetry_multiplicity
 _atom_site_fract_x
 _atom_site_fract_y
 _atom_site_fract_z
 _atom_site_fract_occupancy
 F  F1  1  0.28785  0.11386  0.99971  1
 F  F2  1  0.23894  0.01279  0.42155  1
 F  F3  1  0.75973  0.51200  0.57724  1
 F  F4  1  0.77386  0.88496  0.00031  1
 F  F5  1  0.73978  0.37595  0.00032  1
 F  F6  1  0.18262  0.51215  0.42267  1
 F  F7  1  0.27757  0.76511  0.57916  1
 F  F8  1  0.70869  0.25905  0.42135  1
 F  F9  1  0.69821  0.76495  0.42093  1
 F  F10  1  0.70897  0.63564  -0.00003  1
 F  F11  1  0.81720  0.01264  0.57839  1
 F  F12  1  0.28762  0.25921  0.57873  1
 O  O1  1  0.76151  0.13543  0.99998  1
 O  O2  1  0.23953  0.62136  0.99971  1
 O  O3  1  0.23890  0.86774  0.00006  1
 O  O4  1  0.21608  0.37976  -0.00003  1
 V  V1  1  0.45687  0.72184  -0.00003  1
 V  V2  1  0.54526  0.22145  0.00000  1
 V  V3  1  0.01571  0.47426  -0.00002  1
 V  V4  1  0.04509  0.96986  0.00002  1
