CIF file written using JARVIS-Tools package.
data_Ca4SnS6
_symmetry_space_group_name_H-M  'Cc'
_cell_length_a       7.33499
_cell_length_b       7.36175
_cell_length_c       13.3367
_cell_angle_alpha    76.7113
_cell_angle_beta     74.0384
_cell_angle_gamma    60.1202

_symmetry_Int_Tables_number  9
_chemical_formula_structural  Ca4SnS6
_chemical_formula_sum  Ca8Sn2S2
_cell_volume  596.6191133070706
_cell_formula_units_Z  2
loop_
  _symmetry_equiv_pos_site_id
 _symmetry_equiv_pos_as_xyz
 1  'x, y, z'
loop_
 _atom_site_type_symbol
 _atom_site_label
 _atom_site_symmetry_multiplicity
 _atom_site_fract_x
 _atom_site_fract_y
 _atom_site_fract_z
 _atom_site_fract_occupancy
 Ca  Ca1  1  0.67551  0.54231  0.84697  1
 Ca  Ca2  1  0.93522  0.04231  0.34697  1
 Ca  Ca3  1  0.19326  0.21635  0.04613  1
 Ca  Ca4  1  0.54426  0.71635  0.54613  1
 Ca  Ca5  1  0.01873  0.83121  0.88557  1
 Ca  Ca6  1  0.26448  0.33121  0.38557  1
 Ca  Ca7  1  0.33354  0.24971  0.70426  1
 Ca  Ca8  1  0.71249  0.74971  0.20426  1
 S  S1  1  0.69766  0.16479  0.78972  1
 S  S2  1  0.06586  0.45257  0.86797  1
 S  S3  1  0.56699  0.83175  0.01453  1
 S  S4  1  0.58674  0.33175  0.51453  1
 S  S5  1  0.61361  0.95257  0.36797  1
 S  S6  1  0.12404  0.85837  0.52342  1
 S  S7  1  0.36475  0.85486  0.74319  1
 S  S8  1  0.98664  0.94140  0.08380  1
 S  S9  1  0.03720  0.35486  0.24319  1
 S  S10  1  0.49417  0.35837  0.02342  1
 S  S11  1  -0.01184  0.44140  0.58380  1
 S  S12  1  0.34783  0.66479  0.28972  1
 Sn  Sn1  1  0.88585  0.16307  0.61025  1
 Sn  Sn2  1  0.34083  0.66307  0.11025  1
