CIF file written using JARVIS-Tools package.
data_SbCl3
_symmetry_space_group_name_H-M  'Pnma'
_cell_length_a       6.30446
_cell_length_b       7.81976
_cell_length_c       9.09383
_cell_angle_alpha    90
_cell_angle_beta     90
_cell_angle_gamma    90

_symmetry_Int_Tables_number  62
_chemical_formula_structural  SbCl3
_chemical_formula_sum  Sb4Cl2
_cell_volume  448.32024271811105
_cell_formula_units_Z  4
loop_
  _symmetry_equiv_pos_site_id
 _symmetry_equiv_pos_as_xyz
 1  'x, y, z'
loop_
 _atom_site_type_symbol
 _atom_site_label
 _atom_site_symmetry_multiplicity
 _atom_site_fract_x
 _atom_site_fract_y
 _atom_site_fract_z
 _atom_site_fract_occupancy
 Cl  Cl1  1  0.13295  0.18094  0.43546  1
 Cl  Cl2  1  0.63295  0.31906  0.56454  1
 Cl  Cl3  1  0.36705  0.68094  0.06454  1
 Cl  Cl4  1  0.86705  0.81906  0.93546  1
 Cl  Cl5  1  0.65220  0.05954  0.25000  1
 Cl  Cl6  1  0.15220  0.44046  0.75000  1
 Cl  Cl7  1  0.84780  0.55954  0.25000  1
 Cl  Cl8  1  0.34780  0.94046  0.75000  1
 Cl  Cl9  1  0.13295  0.18094  0.06454  1
 Cl  Cl10  1  0.63295  0.31906  0.93546  1
 Cl  Cl11  1  0.36705  0.68094  0.43546  1
 Cl  Cl12  1  0.86705  0.81906  0.56454  1
 Sb  Sb1  1  0.98123  0.02668  0.75000  1
 Sb  Sb2  1  0.48123  0.47332  0.25000  1
 Sb  Sb3  1  0.51877  0.52668  0.75000  1
 Sb  Sb4  1  0.01877  0.97332  0.25000  1
