CIF file written using JARVIS-Tools package.
data_Ta2O5
_symmetry_space_group_name_H-M  'C2/c'
_cell_length_a       4.89534
_cell_length_b       5.56935
_cell_length_c       6.90969
_cell_angle_alpha    103.037
_cell_angle_beta     110.747
_cell_angle_gamma    90

_symmetry_Int_Tables_number  15
_chemical_formula_structural  Ta2O5
_chemical_formula_sum  Ta4O0
_cell_volume  170.96650648243772
_cell_formula_units_Z  2
loop_
  _symmetry_equiv_pos_site_id
 _symmetry_equiv_pos_as_xyz
 1  'x, y, z'
loop_
 _atom_site_type_symbol
 _atom_site_label
 _atom_site_symmetry_multiplicity
 _atom_site_fract_x
 _atom_site_fract_y
 _atom_site_fract_z
 _atom_site_fract_occupancy
 O  O1  1  0.27689  0.12796  0.41047  1
 O  O2  1  0.86642  0.37204  0.58953  1
 O  O3  1  0.72311  0.87204  0.58953  1
 O  O4  1  0.13358  0.62796  0.41047  1
 O  O5  1  0.09990  0.75000  -0.00000  1
 O  O6  1  0.90010  0.25000  0.00000  1
 O  O7  1  0.66521  0.97308  0.21949  1
 O  O8  1  0.44572  0.52692  0.78051  1
 O  O9  1  0.33479  0.02692  0.78051  1
 O  O10  1  0.55428  0.47308  0.21949  1
 Ta  Ta1  1  0.61464  0.23459  0.71977  1
 Ta  Ta2  1  0.89486  0.26541  0.28023  1
 Ta  Ta3  1  0.38536  0.76541  0.28023  1
 Ta  Ta4  1  0.10514  0.73459  0.71977  1
