CIF file written using JARVIS-Tools package.
data_Tb2FeSi2
_symmetry_space_group_name_H-M  'C2/m'
_cell_length_a       4.1448
_cell_length_b       5.68254
_cell_length_c       8.98765
_cell_angle_alpha    83.2545
_cell_angle_beta     76.6686
_cell_angle_gamma    68.6112

_symmetry_Int_Tables_number  12
_chemical_formula_structural  Tb2FeSi2
_chemical_formula_sum  Tb4Fe2Si4
_cell_volume  191.6648242015513
_cell_formula_units_Z  2
loop_
  _symmetry_equiv_pos_site_id
 _symmetry_equiv_pos_as_xyz
 1  'x, y, z'
loop_
 _atom_site_type_symbol
 _atom_site_label
 _atom_site_symmetry_multiplicity
 _atom_site_fract_x
 _atom_site_fract_y
 _atom_site_fract_z
 _atom_site_fract_occupancy
 Fe  Fe1  1  0.72674  0.92346  0.62306  1
 Fe  Fe2  1  0.27326  0.07654  0.37694  1
 Si  Si1  1  0.50072  0.12655  0.87200  1
 Si  Si2  1  0.49928  0.87345  0.12800  1
 Si  Si3  1  0.34090  0.75211  0.56609  1
 Si  Si4  1  0.65910  0.24789  0.43391  1
 Tb  Tb1  1  0.18891  0.72877  0.89340  1
 Tb  Tb2  1  0.81109  0.27123  0.10660  1
 Tb  Tb3  1  0.99786  0.33220  0.67207  1
 Tb  Tb4  1  0.00214  0.66780  0.32793  1
