CIF file written using JARVIS-Tools package.
data_B2CN
_symmetry_space_group_name_H-M  'P-4m2'
_cell_length_a       2.52861
_cell_length_b       2.52861
_cell_length_c       3.96393
_cell_angle_alpha    90
_cell_angle_beta     90
_cell_angle_gamma    90

_symmetry_Int_Tables_number  115
_chemical_formula_structural  B2CN
_chemical_formula_sum  B2CN
_cell_volume  25.344892227055333
_cell_formula_units_Z  1
loop_
  _symmetry_equiv_pos_site_id
 _symmetry_equiv_pos_as_xyz
 1  'x, y, z'
loop_
 _atom_site_type_symbol
 _atom_site_label
 _atom_site_symmetry_multiplicity
 _atom_site_fract_x
 _atom_site_fract_y
 _atom_site_fract_z
 _atom_site_fract_occupancy
 B  B1  1  0.50000  0.00000  0.73023  1
 B  B2  1  0.00000  0.50000  0.26977  1
 C  C1  1  0.50000  0.50000  0.00000  1
 N  N1  1  0.00000  0.00000  0.50000  1
