CIF file written using JARVIS-Tools package.
data_AlSn2O4
_symmetry_space_group_name_H-M  'R-3m'
_cell_length_a       6.84751
_cell_length_b       6.84751
_cell_length_c       6.84751
_cell_angle_alpha    53.2379
_cell_angle_beta     53.2379
_cell_angle_gamma    53.2379

_symmetry_Int_Tables_number  166
_chemical_formula_structural  AlSn2O4
_chemical_formula_sum  Al2Sn4O8
_cell_volume  191.07509181549253
_cell_formula_units_Z  2
loop_
  _symmetry_equiv_pos_site_id
 _symmetry_equiv_pos_as_xyz
 1  'x, y, z'
loop_
 _atom_site_type_symbol
 _atom_site_label
 _atom_site_symmetry_multiplicity
 _atom_site_fract_x
 _atom_site_fract_y
 _atom_site_fract_z
 _atom_site_fract_occupancy
 Al  Al1  1  0.63712  0.63712  0.63712  1
 Al  Al2  1  0.36288  0.36288  0.36288  1
 O  O1  1  0.27401  0.76351  0.76351  1
 O  O2  1  0.23649  0.23649  0.72599  1
 O  O3  1  0.23649  0.72599  0.23649  1
 O  O4  1  0.26259  0.26259  0.26259  1
 O  O5  1  0.76351  0.76351  0.27401  1
 O  O6  1  0.72599  0.23649  0.23649  1
 O  O7  1  0.76351  0.27401  0.76351  1
 O  O8  1  0.73741  0.73741  0.73741  1
 Sn  Sn1  1  0.00000  0.50000  -0.00000  1
 Sn  Sn2  1  0.00000  0.00000  0.00000  1
 Sn  Sn3  1  0.50000  -0.00000  -0.00000  1
 Sn  Sn4  1  -0.00000  0.00000  0.50000  1
