CIF file written using JARVIS-Tools package.
data_Sb2O5
_symmetry_space_group_name_H-M  'C2/c'
_cell_length_a       4.86058
_cell_length_b       5.50176
_cell_length_c       6.86411
_cell_angle_alpha    102.784
_cell_angle_beta     110.736
_cell_angle_gamma    90

_symmetry_Int_Tables_number  15
_chemical_formula_structural  Sb2O5
_chemical_formula_sum  Sb4O0
_cell_volume  166.79424391706496
_cell_formula_units_Z  2
loop_
  _symmetry_equiv_pos_site_id
 _symmetry_equiv_pos_as_xyz
 1  'x, y, z'
loop_
 _atom_site_type_symbol
 _atom_site_label
 _atom_site_symmetry_multiplicity
 _atom_site_fract_x
 _atom_site_fract_y
 _atom_site_fract_z
 _atom_site_fract_occupancy
 O  O1  1  0.57557  0.25000  0.00000  1
 O  O2  1  0.42443  0.75000  -0.00000  1
 O  O3  1  0.18957  0.44589  0.20204  1
 O  O4  1  0.98753  0.05411  0.79796  1
 O  O5  1  0.78281  0.62387  0.40527  1
 O  O6  1  0.37755  0.87613  0.59473  1
 O  O7  1  0.21719  0.37613  0.59473  1
 O  O8  1  0.62245  0.12387  0.40527  1
 O  O9  1  0.01247  0.94589  0.20204  1
 O  O10  1  0.81043  0.55411  0.79796  1
 Sb  Sb1  1  0.62178  0.22063  0.72473  1
 Sb  Sb2  1  0.89705  0.27937  0.27527  1
 Sb  Sb3  1  0.37822  0.77937  0.27527  1
 Sb  Sb4  1  0.10295  0.72063  0.72473  1
