CIF file written using JARVIS-Tools package.
data_LiCuPO4
_symmetry_space_group_name_H-M  'Cc'
_cell_length_a       5.3182
_cell_length_b       5.26021
_cell_length_c       7.79198
_cell_angle_alpha    81.0083
_cell_angle_beta     108.01
_cell_angle_gamma    120.365

_symmetry_Int_Tables_number  9
_chemical_formula_structural  LiCuPO4
_chemical_formula_sum  Li2Cu2P2O8
_cell_volume  178.86207196365726
_cell_formula_units_Z  2
loop_
  _symmetry_equiv_pos_site_id
 _symmetry_equiv_pos_as_xyz
 1  'x, y, z'
loop_
 _atom_site_type_symbol
 _atom_site_label
 _atom_site_symmetry_multiplicity
 _atom_site_fract_x
 _atom_site_fract_y
 _atom_site_fract_z
 _atom_site_fract_occupancy
 Cu  Cu1  1  0.30135  0.88914  0.32675  1
 Cu  Cu2  1  0.41221  0.11086  0.82675  1
 Li  Li1  1  -0.01398  0.18191  0.97040  1
 Li  Li2  1  0.80410  0.81809  0.47040  1
 O  O1  1  0.10460  0.77008  0.66190  1
 O  O2  1  0.40534  0.64305  0.52125  1
 O  O3  1  0.19211  0.32823  0.77492  1
 O  O4  1  0.60307  -0.13291  0.83943  1
 O  O5  1  0.33452  0.22992  0.16190  1
 O  O6  1  0.76229  0.35695  0.02125  1
 O  O7  1  0.86387  0.67177  0.27492  1
 O  O8  1  0.73598  0.13291  0.33943  1
 P  P1  1  0.32622  0.64245  0.69675  1
 P  P2  1  0.68377  0.35755  0.19675  1
