CIF file written using JARVIS-Tools package.
data_Pr2I5
_symmetry_space_group_name_H-M  'P2_1/m'
_cell_length_a       8.69658
_cell_length_b       4.34666
_cell_length_c       14.57
_cell_angle_alpha    90
_cell_angle_beta     90.0979
_cell_angle_gamma    90

_symmetry_Int_Tables_number  11
_chemical_formula_structural  Pr2I5
_chemical_formula_sum  Pr4I0
_cell_volume  550.7588587592077
_cell_formula_units_Z  2
loop_
  _symmetry_equiv_pos_site_id
 _symmetry_equiv_pos_as_xyz
 1  'x, y, z'
loop_
 _atom_site_type_symbol
 _atom_site_label
 _atom_site_symmetry_multiplicity
 _atom_site_fract_x
 _atom_site_fract_y
 _atom_site_fract_z
 _atom_site_fract_occupancy
 I  I1  1  0.66034  0.75000  0.27589  1
 I  I2  1  0.33966  0.25000  0.72411  1
 I  I3  1  0.15109  0.75000  0.92810  1
 I  I4  1  0.84891  0.25000  0.07190  1
 I  I5  1  0.69558  0.25000  0.50819  1
 I  I6  1  0.30442  0.75000  0.49181  1
 I  I7  1  0.05020  0.25000  0.31809  1
 I  I8  1  0.94980  0.75000  0.68191  1
 I  I9  1  0.36173  0.25000  0.12061  1
 I  I10  1  0.63827  0.75000  0.87939  1
 Pr  Pr1  1  0.09069  0.75000  0.15454  1
 Pr  Pr2  1  0.90931  0.25000  0.84546  1
 Pr  Pr3  1  0.58010  0.75000  0.65744  1
 Pr  Pr4  1  0.41990  0.25000  0.34256  1
