CIF file written using JARVIS-Tools package.
data_Mg2CrSbO6
_symmetry_space_group_name_H-M  'P2_1/m'
_cell_length_a       5.13247
_cell_length_b       7.60163
_cell_length_c       5.33077
_cell_angle_alpha    90
_cell_angle_beta     90.5584
_cell_angle_gamma    90

_symmetry_Int_Tables_number  11
_chemical_formula_structural  Mg2CrSbO6
_chemical_formula_sum  Mg4Cr2Sb2O2
_cell_volume  207.97119986519613
_cell_formula_units_Z  2
loop_
  _symmetry_equiv_pos_site_id
 _symmetry_equiv_pos_as_xyz
 1  'x, y, z'
loop_
 _atom_site_type_symbol
 _atom_site_label
 _atom_site_symmetry_multiplicity
 _atom_site_fract_x
 _atom_site_fract_y
 _atom_site_fract_z
 _atom_site_fract_occupancy
 Cr  Cr1  1  0.50000  0.50000  -0.00000  1
 Cr  Cr2  1  0.50000  0.00000  -0.00000  1
 Mg  Mg1  1  0.48111  0.75000  0.42727  1
 Mg  Mg2  1  0.51889  0.25000  0.57273  1
 Mg  Mg3  1  0.99874  0.75000  0.95981  1
 Mg  Mg4  1  0.00126  0.25000  0.04019  1
 O  O1  1  0.67946  0.42932  0.31748  1
 O  O2  1  0.86057  0.75000  0.57234  1
 O  O3  1  0.32054  0.92932  0.68252  1
 O  O4  1  0.17899  0.57077  0.18711  1
 O  O5  1  0.82101  0.07077  0.81289  1
 O  O6  1  0.17899  0.92923  0.18711  1
 O  O7  1  0.62608  0.75000  0.06964  1
 O  O8  1  0.67946  0.07068  0.31748  1
 O  O9  1  0.82101  0.42923  0.81289  1
 O  O10  1  0.32054  0.57068  0.68252  1
 O  O11  1  0.13943  0.25000  0.42766  1
 O  O12  1  0.37392  0.25000  0.93036  1
 Sb  Sb1  1  0.00000  0.00000  0.50000  1
 Sb  Sb2  1  0.00000  0.50000  0.50000  1
