CIF file written using JARVIS-Tools package.
data_K2PbO3
_symmetry_space_group_name_H-M  'Cmc2_1'
_cell_length_a       6.07325
_cell_length_b       6.37499
_cell_length_c       6.375
_cell_angle_alpha    114.17
_cell_angle_beta     90
_cell_angle_gamma    90

_symmetry_Int_Tables_number  36
_chemical_formula_structural  K2PbO3
_chemical_formula_sum  K4Pb2O6
_cell_volume  225.18232719790964
_cell_formula_units_Z  2
loop_
  _symmetry_equiv_pos_site_id
 _symmetry_equiv_pos_as_xyz
 1  'x, y, z'
loop_
 _atom_site_type_symbol
 _atom_site_label
 _atom_site_symmetry_multiplicity
 _atom_site_fract_x
 _atom_site_fract_y
 _atom_site_fract_z
 _atom_site_fract_occupancy
 K  K1  1  0.26461  0.47614  0.80334  1
 K  K2  1  0.76461  0.19666  0.52386  1
 K  K3  1  0.76461  0.52386  0.19666  1
 K  K4  1  0.26461  0.80334  0.47614  1
 O  O1  1  0.99835  0.82992  0.09914  1
 O  O2  1  0.49835  0.17008  0.90086  1
 O  O3  1  0.49835  0.90086  0.17008  1
 O  O4  1  0.99835  0.09914  0.82992  1
 O  O5  1  0.11608  0.38089  0.38089  1
 O  O6  1  0.61608  0.61911  0.61911  1
 Pb  Pb1  1  0.73300  0.89745  0.89745  1
 Pb  Pb2  1  0.23300  0.10255  0.10255  1
