CIF file written using JARVIS-Tools package.
data_KPrPdO3
_symmetry_space_group_name_H-M  'C2/m'
_cell_length_a       3.97464
_cell_length_b       6.99237
_cell_length_c       7.42647
_cell_angle_alpha    104.501
_cell_angle_beta     90
_cell_angle_gamma    106.512

_symmetry_Int_Tables_number  12
_chemical_formula_structural  KPrPdO3
_chemical_formula_sum  K2Pr2Pd2O6
_cell_volume  191.01857618186187
_cell_formula_units_Z  2
loop_
  _symmetry_equiv_pos_site_id
 _symmetry_equiv_pos_as_xyz
 1  'x, y, z'
loop_
 _atom_site_type_symbol
 _atom_site_label
 _atom_site_symmetry_multiplicity
 _atom_site_fract_x
 _atom_site_fract_y
 _atom_site_fract_z
 _atom_site_fract_occupancy
 K  K1  1  0.64372  0.28744  0.56531  1
 K  K2  1  0.35628  0.71256  0.43469  1
 O  O1  1  0.16747  0.33493  0.86308  1
 O  O2  1  0.15214  0.30428  0.28585  1
 O  O3  1  0.50645  0.01290  0.80406  1
 O  O4  1  0.84786  0.69572  0.71415  1
 O  O5  1  0.83253  0.66507  0.13692  1
 O  O6  1  0.49355  0.98710  0.19594  1
 Pd  Pd1  1  0.99372  0.98743  0.23158  1
 Pd  Pd2  1  0.00628  0.01257  0.76842  1
 Pr  Pr1  1  0.35040  0.70079  0.91914  1
 Pr  Pr2  1  0.64960  0.29921  0.08086  1
