CIF file written using JARVIS-Tools package.
data_Si3W5
_symmetry_space_group_name_H-M  'I4/mcm'
_cell_length_a       4.98082
_cell_length_b       7.29906
_cell_length_c       7.29906
_cell_angle_alpha    83.3148
_cell_angle_beta     70.0503
_cell_angle_gamma    70.0502

_symmetry_Int_Tables_number  140
_chemical_formula_structural  Si3W5
_chemical_formula_sum  Si6W0
_cell_volume  234.46783398024417
_cell_formula_units_Z  2
loop_
  _symmetry_equiv_pos_site_id
 _symmetry_equiv_pos_as_xyz
 1  'x, y, z'
loop_
 _atom_site_type_symbol
 _atom_site_label
 _atom_site_symmetry_multiplicity
 _atom_site_fract_x
 _atom_site_fract_y
 _atom_site_fract_z
 _atom_site_fract_occupancy
 Si  Si1  1  0.75000  0.00000  0.00000  1
 Si  Si2  1  0.25000  0.00000  0.00000  1
 Si  Si3  1  0.83159  0.50000  0.83682  1
 Si  Si4  1  0.66841  0.16318  0.50000  1
 Si  Si5  1  0.33159  0.83682  0.50000  1
 Si  Si6  1  0.16841  0.50000  0.16318  1
 W  W1  1  0.42500  0.30010  0.84991  1
 W  W2  1  0.57500  0.69990  0.15009  1
 W  W3  1  0.25000  0.50000  0.50000  1
 W  W4  1  0.75000  0.50000  0.50000  1
 W  W5  1  0.72509  0.84991  0.69990  1
 W  W6  1  0.27491  0.15009  0.30010  1
 W  W7  1  0.92500  0.84991  0.30010  1
 W  W8  1  0.22509  0.69990  0.84991  1
 W  W9  1  0.77491  0.30010  0.15009  1
 W  W10  1  0.07500  0.15009  0.69990  1
