CIF file written using JARVIS-Tools package.
data_Na3YCl6
_symmetry_space_group_name_H-M  'P2_1/c'
_cell_length_a       6.75397
_cell_length_b       7.26138
_cell_length_c       12.0394
_cell_angle_alpha    90
_cell_angle_beta     122.995
_cell_angle_gamma    90

_symmetry_Int_Tables_number  14
_chemical_formula_structural  Na3YCl6
_chemical_formula_sum  Na6Y2Cl2
_cell_volume  495.2216095094679
_cell_formula_units_Z  2
loop_
  _symmetry_equiv_pos_site_id
 _symmetry_equiv_pos_as_xyz
 1  'x, y, z'
loop_
 _atom_site_type_symbol
 _atom_site_label
 _atom_site_symmetry_multiplicity
 _atom_site_fract_x
 _atom_site_fract_y
 _atom_site_fract_z
 _atom_site_fract_occupancy
 Cl  Cl1  1  0.90508  0.06304  0.25829  1
 Cl  Cl2  1  0.09492  0.93696  0.74171  1
 Cl  Cl3  1  0.24753  0.19169  0.07928  1
 Cl  Cl4  1  0.75247  0.80831  0.92072  1
 Cl  Cl5  1  0.75247  0.69169  0.42072  1
 Cl  Cl6  1  0.24753  0.30831  0.57928  1
 Cl  Cl7  1  0.38791  0.82028  0.56882  1
 Cl  Cl8  1  0.38791  0.67972  0.06882  1
 Cl  Cl9  1  0.61209  0.17972  0.43118  1
 Cl  Cl10  1  0.90508  0.43696  0.75829  1
 Cl  Cl11  1  0.09492  0.56304  0.24171  1
 Cl  Cl12  1  0.61209  0.32028  0.93118  1
 Na  Na1  1  0.28984  0.58627  0.75747  1
 Na  Na2  1  0.71016  0.08627  0.74253  1
 Na  Na3  1  0.71016  0.41373  0.24253  1
 Na  Na4  1  0.28984  0.91373  0.25747  1
 Na  Na5  1  0.50000  0.00000  -0.00000  1
 Na  Na6  1  0.50000  0.50000  0.50000  1
 Y  Y1  1  0.00000  0.50000  0.00000  1
 Y  Y2  1  -0.00000  0.00000  0.50000  1
