CIF file written using JARVIS-Tools package.
data_CaIn2O4
_symmetry_space_group_name_H-M  'Fd-3m'
_cell_length_a       6.61688
_cell_length_b       6.61688
_cell_length_c       6.61683
_cell_angle_alpha    120
_cell_angle_beta     120
_cell_angle_gamma    90

_symmetry_Int_Tables_number  227
_chemical_formula_structural  CaIn2O4
_chemical_formula_sum  Ca2In4O8
_cell_volume  204.85086360836186
_cell_formula_units_Z  2
loop_
  _symmetry_equiv_pos_site_id
 _symmetry_equiv_pos_as_xyz
 1  'x, y, z'
loop_
 _atom_site_type_symbol
 _atom_site_label
 _atom_site_symmetry_multiplicity
 _atom_site_fract_x
 _atom_site_fract_y
 _atom_site_fract_z
 _atom_site_fract_occupancy
 Ca  Ca1  1  0.37500  0.62500  0.75000  1
 Ca  Ca2  1  0.62500  0.37500  0.25000  1
 In  In1  1  0.50000  0.00000  0.50000  1
 In  In2  1  0.00000  0.00000  0.00000  1
 In  In3  1  0.00000  0.00000  0.50000  1
 In  In4  1  0.00000  0.50000  0.00000  1
 O  O1  1  0.76352  0.79057  0.52704  1
 O  O2  1  0.76353  0.23648  0.97296  1
 O  O3  1  0.20943  0.23648  0.97296  1
 O  O4  1  0.23648  0.20943  0.47296  1
 O  O5  1  0.23648  0.76353  0.47296  1
 O  O6  1  0.23647  0.76352  0.02704  1
 O  O7  1  0.76352  0.23647  0.52704  1
 O  O8  1  0.79057  0.76352  0.02704  1
