CIF file written using JARVIS-Tools package.
data_NaLiO
_symmetry_space_group_name_H-M  'I4/mmm'
_cell_length_a       6.73009
_cell_length_b       6.73009
_cell_length_c       6.73009
_cell_angle_alpha    96.5362
_cell_angle_beta     96.5362
_cell_angle_gamma    140.564

_symmetry_Int_Tables_number  139
_chemical_formula_structural  NaLiO
_chemical_formula_sum  Na4Li4O4
_cell_volume  182.2799573298334
_cell_formula_units_Z  4
loop_
  _symmetry_equiv_pos_site_id
 _symmetry_equiv_pos_as_xyz
 1  'x, y, z'
loop_
 _atom_site_type_symbol
 _atom_site_label
 _atom_site_symmetry_multiplicity
 _atom_site_fract_x
 _atom_site_fract_y
 _atom_site_fract_z
 _atom_site_fract_occupancy
 Li  Li1  1  0.89977  0.10008  0.49986  1
 Li  Li2  1  0.60008  0.10023  0.20031  1
 Li  Li3  1  0.89992  0.39977  0.79969  1
 Li  Li4  1  0.60023  0.39992  0.50014  1
 Na  Na1  1  0.90871  0.75006  0.15877  1
 Na  Na2  1  0.24994  0.40871  0.15864  1
 Na  Na3  1  0.25006  0.09129  0.84136  1
 Na  Na4  1  0.59129  0.74994  0.84123  1
 O  O1  1  0.46964  0.25014  0.21978  1
 O  O2  1  0.74986  0.96964  0.21950  1
 O  O3  1  0.75014  0.53036  0.78050  1
 O  O4  1  0.03036  0.24986  0.78022  1
