CIF file written using JARVIS-Tools package.
data_CaIrO3
_symmetry_space_group_name_H-M  'Pnma'
_cell_length_a       5.3279
_cell_length_b       5.68849
_cell_length_c       7.70427
_cell_angle_alpha    90
_cell_angle_beta     90
_cell_angle_gamma    90

_symmetry_Int_Tables_number  62
_chemical_formula_structural  CaIrO3
_chemical_formula_sum  Ca4Ir4O2
_cell_volume  233.49887729404594
_cell_formula_units_Z  4
loop_
  _symmetry_equiv_pos_site_id
 _symmetry_equiv_pos_as_xyz
 1  'x, y, z'
loop_
 _atom_site_type_symbol
 _atom_site_label
 _atom_site_symmetry_multiplicity
 _atom_site_fract_x
 _atom_site_fract_y
 _atom_site_fract_z
 _atom_site_fract_occupancy
 Ca  Ca1  1  0.52077  0.06646  0.25000  1
 Ca  Ca2  1  0.47923  0.93354  0.75000  1
 Ca  Ca3  1  0.97923  0.56646  0.25000  1
 Ca  Ca4  1  0.02077  0.43354  0.75000  1
 Ir  Ir1  1  0.00000  0.00000  0.50000  1
 Ir  Ir2  1  0.00000  0.00000  0.00000  1
 Ir  Ir3  1  0.50000  0.50000  0.50000  1
 Ir  Ir4  1  0.50000  0.50000  0.00000  1
 O  O1  1  0.31196  0.19569  0.94559  1
 O  O2  1  0.31196  0.19569  0.55441  1
 O  O3  1  0.38873  0.45612  0.25000  1
 O  O4  1  0.81196  0.30431  0.44559  1
 O  O5  1  0.61127  0.54388  0.75000  1
 O  O6  1  0.68804  0.80431  0.44559  1
 O  O7  1  0.18804  0.69569  0.55441  1
 O  O8  1  0.11127  0.95612  0.25000  1
 O  O9  1  0.81196  0.30431  0.05441  1
 O  O10  1  0.18804  0.69569  0.94559  1
 O  O11  1  0.68804  0.80431  0.05441  1
 O  O12  1  0.88873  0.04388  0.75000  1
