CIF file written using JARVIS-Tools package.
data_Tl4GeS4
_symmetry_space_group_name_H-M  'Cc'
_cell_length_a       7.64255
_cell_length_b       8.50985
_cell_length_c       8.50984
_cell_angle_alpha    83.7349
_cell_angle_beta     73.8052
_cell_angle_gamma    73.8051

_symmetry_Int_Tables_number  9
_chemical_formula_structural  Tl4GeS4
_chemical_formula_sum  Tl8Ge2S8
_cell_volume  510.1070105698312
_cell_formula_units_Z  2
loop_
  _symmetry_equiv_pos_site_id
 _symmetry_equiv_pos_as_xyz
 1  'x, y, z'
loop_
 _atom_site_type_symbol
 _atom_site_label
 _atom_site_symmetry_multiplicity
 _atom_site_fract_x
 _atom_site_fract_y
 _atom_site_fract_z
 _atom_site_fract_occupancy
 Ge  Ge1  1  0.03937  0.62148  0.20159  1
 Ge  Ge2  1  0.53937  0.20159  0.62148  1
 S  S1  1  0.71274  0.08316  0.79837  1
 S  S2  1  0.22253  0.37270  0.25162  1
 S  S3  1  0.72253  0.25162  0.37270  1
 S  S4  1  0.34834  0.44088  0.72329  1
 S  S5  1  0.84834  0.72329  0.44088  1
 S  S6  1  0.35528  0.04406  0.60329  1
 S  S7  1  0.21274  0.79837  0.08316  1
 S  S8  1  0.85528  0.60329  0.04406  1
 Tl  Tl1  1  -0.00335  0.37247  0.59866  1
 Tl  Tl2  1  0.08022  0.79256  0.78279  1
 Tl  Tl3  1  0.58022  0.78279  0.79256  1
 Tl  Tl4  1  0.06433  0.98416  0.40369  1
 Tl  Tl5  1  0.56433  0.40369  0.98416  1
 Tl  Tl6  1  0.09384  0.24636  0.99048  1
 Tl  Tl7  1  0.59384  0.99048  0.24636  1
 Tl  Tl8  1  0.49665  0.59866  0.37247  1
