CIF file written using JARVIS-Tools package.
data_MnZnF4
_symmetry_space_group_name_H-M  'P1'
_cell_length_a       5.15827
_cell_length_b       5.33562
_cell_length_c       6.2172
_cell_angle_alpha    115.344
_cell_angle_beta     110.488
_cell_angle_gamma    90.0108

_symmetry_Int_Tables_number  1
_chemical_formula_structural  MnZnF4
_chemical_formula_sum  Mn2Zn2F8
_cell_volume  142.57011124787417
_cell_formula_units_Z  2
loop_
  _symmetry_equiv_pos_site_id
 _symmetry_equiv_pos_as_xyz
 1  'x, y, z'
loop_
 _atom_site_type_symbol
 _atom_site_label
 _atom_site_symmetry_multiplicity
 _atom_site_fract_x
 _atom_site_fract_y
 _atom_site_fract_z
 _atom_site_fract_occupancy
 F  F1  1  0.13366  0.67418  0.73122  1
 F  F2  1  0.30583  0.95803  0.22522  1
 F  F3  1  0.82188  0.29557  0.29148  1
 F  F4  1  0.32185  0.49716  0.29204  1
 F  F5  1  0.73745  0.06898  0.77858  1
 F  F6  1  0.23752  0.20910  0.77892  1
 F  F7  1  0.63363  0.55614  0.73101  1
 F  F8  1  0.80577  0.76807  0.22507  1
 Mn  Mn1  1  0.50806  0.97566  0.97915  1
 Mn  Mn2  1  0.00763  0.50252  -0.02107  1
 Zn  Zn1  1  0.73745  0.70324  0.49004  1
 Zn  Zn2  1  0.23731  0.28674  0.49014  1
