CIF file written using JARVIS-Tools package.
data_MgCr2F12
_symmetry_space_group_name_H-M  'P-1'
_cell_length_a       4.89585
_cell_length_b       5.25283
_cell_length_c       8.73374
_cell_angle_alpha    70.3099
_cell_angle_beta     106.812
_cell_angle_gamma    118.137

_symmetry_Int_Tables_number  2
_chemical_formula_structural  MgCr2F12
_chemical_formula_sum  MgCr2F2
_cell_volume  184.16934455761717
_cell_formula_units_Z  1
loop_
  _symmetry_equiv_pos_site_id
 _symmetry_equiv_pos_as_xyz
 1  'x, y, z'
loop_
 _atom_site_type_symbol
 _atom_site_label
 _atom_site_symmetry_multiplicity
 _atom_site_fract_x
 _atom_site_fract_y
 _atom_site_fract_z
 _atom_site_fract_occupancy
 Cr  Cr1  1  0.23020  0.75146  0.23732  1
 Cr  Cr2  1  0.76980  0.24854  0.76268  1
 F  F1  1  0.82513  0.55969  0.20063  1
 F  F2  1  0.34180  0.07215  0.69461  1
 F  F3  1  0.77660  0.90436  0.86549  1
 F  F4  1  0.25113  0.39614  0.36496  1
 F  F5  1  0.70707  0.29870  -0.06638  1
 F  F6  1  0.19373  0.80699  0.42953  1
 F  F7  1  0.22340  0.09564  0.13451  1
 F  F8  1  0.74887  0.60386  0.63504  1
 F  F9  1  0.17487  0.44031  0.79937  1
 F  F10  1  0.65820  0.92785  0.30539  1
 F  F11  1  0.29293  0.70130  0.06638  1
 F  F12  1  0.80627  0.19301  0.57047  1
 Mg  Mg1  1  -0.00000  -0.00000  0.50000  1
