CIF file written using JARVIS-Tools package.
data_Be2Zn
_symmetry_space_group_name_H-M  'Fmmm'
_cell_length_a       2.48416
_cell_length_b       2.56428
_cell_length_c       5.98508
_cell_angle_alpha    84.2307
_cell_angle_beta     78.0224
_cell_angle_gamma    61.0283

_symmetry_Int_Tables_number  69
_chemical_formula_structural  Be2Zn
_chemical_formula_sum  Be2Zn
_cell_volume  32.628163171918345
_cell_formula_units_Z  1
loop_
  _symmetry_equiv_pos_site_id
 _symmetry_equiv_pos_as_xyz
 1  'x, y, z'
loop_
 _atom_site_type_symbol
 _atom_site_label
 _atom_site_symmetry_multiplicity
 _atom_site_fract_x
 _atom_site_fract_y
 _atom_site_fract_z
 _atom_site_fract_occupancy
 Be  Be1  1  0.17534  0.00000  0.64931  1
 Be  Be2  1  0.82466  0.00000  0.35069  1
 Zn  Zn1  1  0.50000  0.00000  0.00000  1
