CIF file written using JARVIS-Tools package.
data_SiO2
_symmetry_space_group_name_H-M  'Ia-3'
_cell_length_a       7.36288
_cell_length_b       7.36288
_cell_length_c       7.36288
_cell_angle_alpha    109.471
_cell_angle_beta     109.471
_cell_angle_gamma    109.471

_symmetry_Int_Tables_number  206
_chemical_formula_structural  SiO2
_chemical_formula_sum  Si8O6
_cell_volume  307.2712300431877
_cell_formula_units_Z  8
loop_
  _symmetry_equiv_pos_site_id
 _symmetry_equiv_pos_as_xyz
 1  'x, y, z'
loop_
 _atom_site_type_symbol
 _atom_site_label
 _atom_site_symmetry_multiplicity
 _atom_site_fract_x
 _atom_site_fract_y
 _atom_site_fract_z
 _atom_site_fract_occupancy
 O  O1  1  0.68246  0.93246  0.75000  1
 O  O2  1  0.75000  0.68246  0.93246  1
 O  O3  1  0.93246  0.75000  0.68246  1
 O  O4  1  0.25000  0.81754  0.56754  1
 O  O5  1  0.50000  0.00000  0.00000  1
 O  O6  1  0.31754  0.06754  0.25000  1
 O  O7  1  0.00000  0.50000  0.00000  1
 O  O8  1  0.43246  0.75000  0.18246  1
 O  O9  1  0.18246  0.43246  0.75000  1
 O  O10  1  0.25000  0.31754  0.06754  1
 O  O11  1  0.75000  0.18246  0.43246  1
 O  O12  1  0.81754  0.56754  0.25000  1
 O  O13  1  0.50000  0.50000  0.50000  1
 O  O14  1  0.06754  0.25000  0.31754  1
 O  O15  1  0.00000  0.00000  0.50000  1
 O  O16  1  0.56754  0.25000  0.81754  1
 Si  Si1  1  0.50000  0.00000  0.78163  1
 Si  Si2  1  0.00000  0.21837  0.50000  1
 Si  Si3  1  0.50000  -0.00000  0.21837  1
 Si  Si4  1  -0.00000  0.78163  0.50000  1
 Si  Si5  1  0.71837  0.71837  0.71837  1
 Si  Si6  1  0.21837  0.50000  -0.00000  1
 Si  Si7  1  0.28163  0.28163  0.28163  1
 Si  Si8  1  0.78163  0.50000  0.00000  1
