CIF file written using JARVIS-Tools package.
data_Tm6ReO12
_symmetry_space_group_name_H-M  'R-3'
_cell_length_a       6.36233
_cell_length_b       6.36233
_cell_length_c       6.36234
_cell_angle_alpha    98.8103
_cell_angle_beta     98.8103
_cell_angle_gamma    98.8103

_symmetry_Int_Tables_number  148
_chemical_formula_structural  Tm6ReO12
_chemical_formula_sum  Tm6ReO2
_cell_volume  247.35354856397015
_cell_formula_units_Z  1
loop_
  _symmetry_equiv_pos_site_id
 _symmetry_equiv_pos_as_xyz
 1  'x, y, z'
loop_
 _atom_site_type_symbol
 _atom_site_label
 _atom_site_symmetry_multiplicity
 _atom_site_fract_x
 _atom_site_fract_y
 _atom_site_fract_z
 _atom_site_fract_occupancy
 O  O1  1  0.58897  0.43007  0.17728  1
 O  O2  1  0.43007  0.17728  0.58897  1
 O  O3  1  0.17728  0.58897  0.43007  1
 O  O4  1  0.41103  0.56993  0.82272  1
 O  O5  1  0.56993  0.82272  0.41103  1
 O  O6  1  0.82272  0.41103  0.56993  1
 O  O7  1  0.03706  0.92303  0.69992  1
 O  O8  1  0.30008  0.96294  0.07697  1
 O  O9  1  0.07697  0.30008  0.96294  1
 O  O10  1  0.96294  0.07697  0.30008  1
 O  O11  1  0.92303  0.69992  0.03706  1
 O  O12  1  0.69992  0.03706  0.92303  1
 Re  Re1  1  0.00000  0.00000  0.00000  1
 Tm  Tm1  1  0.61060  0.14370  0.31682  1
 Tm  Tm2  1  0.85630  0.68318  0.38940  1
 Tm  Tm3  1  0.68318  0.38940  0.85630  1
 Tm  Tm4  1  0.38940  0.85630  0.68318  1
 Tm  Tm5  1  0.14370  0.31682  0.61060  1
 Tm  Tm6  1  0.31682  0.61060  0.14370  1
