CIF file written using JARVIS-Tools package.
data_VGe2O6
_symmetry_space_group_name_H-M  'C2/c'
_cell_length_a       5.56221
_cell_length_b       6.67167
_cell_length_c       6.67167
_cell_angle_alpha    83.1638
_cell_angle_beta     75.1635
_cell_angle_gamma    75.1634

_symmetry_Int_Tables_number  15
_chemical_formula_structural  VGe2O6
_chemical_formula_sum  V2Ge4O2
_cell_volume  230.96799480954525
_cell_formula_units_Z  2
loop_
  _symmetry_equiv_pos_site_id
 _symmetry_equiv_pos_as_xyz
 1  'x, y, z'
loop_
 _atom_site_type_symbol
 _atom_site_label
 _atom_site_symmetry_multiplicity
 _atom_site_fract_x
 _atom_site_fract_y
 _atom_site_fract_z
 _atom_site_fract_occupancy
 Ge  Ge1  1  0.75697  0.38388  0.20625  1
 Ge  Ge2  1  0.74303  0.79375  0.61612  1
 Ge  Ge3  1  0.24303  0.61612  0.79375  1
 Ge  Ge4  1  0.25697  0.20625  0.38388  1
 O  O1  1  0.74895  0.63273  0.07853  1
 O  O2  1  0.43547  0.39757  0.33474  1
 O  O3  1  0.06453  0.66526  0.60243  1
 O  O4  1  0.12398  0.82670  0.96644  1
 O  O5  1  -0.06453  0.33474  0.39757  1
 O  O6  1  0.56453  0.60243  0.66526  1
 O  O7  1  0.37602  0.03356  0.17330  1
 O  O8  1  0.75105  0.92147  0.36727  1
 O  O9  1  0.24895  0.07853  0.63273  1
 O  O10  1  0.87602  0.17330  0.03356  1
 O  O11  1  0.62398  0.96644  0.82670  1
 O  O12  1  0.25105  0.36727  0.92147  1
 V  V1  1  0.25000  0.09574  0.90426  1
 V  V2  1  0.75000  0.90426  0.09574  1
