CIF file written using JARVIS-Tools package.
data_RbHO
_symmetry_space_group_name_H-M  'Cmc2_1'
_cell_length_a       4.14009
_cell_length_b       4.18789
_cell_length_c       5.80471
_cell_angle_alpha    90
_cell_angle_beta     110.81
_cell_angle_gamma    90

_symmetry_Int_Tables_number  36
_chemical_formula_structural  RbHO
_chemical_formula_sum  Rb2H2O2
_cell_volume  94.07783944442963
_cell_formula_units_Z  2
loop_
  _symmetry_equiv_pos_site_id
 _symmetry_equiv_pos_as_xyz
 1  'x, y, z'
loop_
 _atom_site_type_symbol
 _atom_site_label
 _atom_site_symmetry_multiplicity
 _atom_site_fract_x
 _atom_site_fract_y
 _atom_site_fract_z
 _atom_site_fract_occupancy
 H  H1  1  0.46749  0.89888  0.93508  1
 H  H2  1  0.53251  0.39888  0.06492  1
 O  O1  1  0.40048  0.73790  0.80197  1
 O  O2  1  0.59952  0.23790  0.19803  1
 Rb  Rb1  1  0.13951  0.76125  0.27881  1
 Rb  Rb2  1  0.86049  0.26125  0.72119  1
