CIF file written using JARVIS-Tools package.
data_K2CoS2
_symmetry_space_group_name_H-M  'Ibam'
_cell_length_a       5.89251
_cell_length_b       6.70802
_cell_length_c       7.70412
_cell_angle_alpha    115.804
_cell_angle_beta     112.48
_cell_angle_gamma    90

_symmetry_Int_Tables_number  72
_chemical_formula_structural  K2CoS2
_chemical_formula_sum  K4Co2S4
_cell_volume  248.20076678687963
_cell_formula_units_Z  2
loop_
  _symmetry_equiv_pos_site_id
 _symmetry_equiv_pos_as_xyz
 1  'x, y, z'
loop_
 _atom_site_type_symbol
 _atom_site_label
 _atom_site_symmetry_multiplicity
 _atom_site_fract_x
 _atom_site_fract_y
 _atom_site_fract_z
 _atom_site_fract_occupancy
 Co  Co1  1  0.25001  0.00000  -0.00000  1
 Co  Co2  1  0.74999  -0.00000  0.00000  1
 K  K1  1  0.14676  0.48375  0.29356  1
 K  K2  1  0.35323  0.19020  0.70641  1
 K  K3  1  0.85324  0.51625  0.70644  1
 K  K4  1  0.64677  0.80980  0.29359  1
 S  S1  1  0.60075  0.28624  0.20152  1
 S  S2  1  0.10074  0.91523  0.20151  1
 S  S3  1  0.89926  0.08477  0.79849  1
 S  S4  1  0.39925  0.71376  0.79848  1
