CIF file written using JARVIS-Tools package.
data_Ba2CaCu2HgO6
_symmetry_space_group_name_H-M  'P4/mmm'
_cell_length_a       3.89406
_cell_length_b       3.89406
_cell_length_c       12.9267
_cell_angle_alpha    90
_cell_angle_beta     90
_cell_angle_gamma    90

_symmetry_Int_Tables_number  123
_chemical_formula_structural  Ba2CaCu2HgO6
_chemical_formula_sum  Ba2CaCu2HgO6
_cell_volume  196.01662937400113
_cell_formula_units_Z  1
loop_
  _symmetry_equiv_pos_site_id
 _symmetry_equiv_pos_as_xyz
 1  'x, y, z'
loop_
 _atom_site_type_symbol
 _atom_site_label
 _atom_site_symmetry_multiplicity
 _atom_site_fract_x
 _atom_site_fract_y
 _atom_site_fract_z
 _atom_site_fract_occupancy
 Ba  Ba1  1  0.50000  0.50000  0.22906  1
 Ba  Ba2  1  0.50000  0.50000  0.77094  1
 Ca  Ca1  1  0.50000  0.50000  0.50000  1
 Cu  Cu1  1  0.00000  0.00000  0.38560  1
 Cu  Cu2  1  0.00000  0.00000  0.61440  1
 Hg  Hg1  1  0.00000  0.00000  0.00000  1
 O  O1  1  0.00000  0.00000  0.84462  1
 O  O2  1  0.00000  0.00000  0.15538  1
 O  O3  1  0.50000  0.00000  0.62082  1
 O  O4  1  0.00000  0.50000  0.62082  1
 O  O5  1  0.50000  0.00000  0.37918  1
 O  O6  1  0.00000  0.50000  0.37918  1
