CIF file written using JARVIS-Tools package.
data_Li2Cu3F8
_symmetry_space_group_name_H-M  'P1'
_cell_length_a       5.39499
_cell_length_b       5.84851
_cell_length_c       5.57847
_cell_angle_alpha    78.4321
_cell_angle_beta     77.2041
_cell_angle_gamma    57.9416

_symmetry_Int_Tables_number  1
_chemical_formula_structural  Li2Cu3F8
_chemical_formula_sum  Li2Cu3F8
_cell_volume  144.73461927598663
_cell_formula_units_Z  1
loop_
  _symmetry_equiv_pos_site_id
 _symmetry_equiv_pos_as_xyz
 1  'x, y, z'
loop_
 _atom_site_type_symbol
 _atom_site_label
 _atom_site_symmetry_multiplicity
 _atom_site_fract_x
 _atom_site_fract_y
 _atom_site_fract_z
 _atom_site_fract_occupancy
 Cu  Cu1  1  0.05424  0.29301  0.35791  1
 Cu  Cu2  1  -0.00821  0.99271  0.01551  1
 Cu  Cu3  1  0.73558  0.90519  0.59832  1
 F  F1  1  0.36329  0.12850  0.08823  1
 F  F2  1  0.32614  0.22800  0.56466  1
 F  F3  1  0.13216  0.81356  0.32736  1
 F  F4  1  0.35249  0.71713  0.86549  1
 F  F5  1  0.75571  0.30947  0.19638  1
 F  F6  1  0.79563  0.16205  0.71980  1
 F  F7  1  0.72158  0.66228  0.43105  1
 F  F8  1  0.89958  0.65824  0.88744  1
 Li  Li1  1  0.32304  0.42134  0.82126  1
 Li  Li2  1  0.54860  0.70853  0.12658  1
