CIF file written using JARVIS-Tools package.
data_LiCu2PO4
_symmetry_space_group_name_H-M  'Pc'
_cell_length_a       5.18429
_cell_length_b       5.322
_cell_length_c       8.02834
_cell_angle_alpha    90
_cell_angle_beta     128.567
_cell_angle_gamma    90

_symmetry_Int_Tables_number  7
_chemical_formula_structural  LiCu2PO4
_chemical_formula_sum  Li2Cu4P2O8
_cell_volume  173.1925833411041
_cell_formula_units_Z  2
loop_
  _symmetry_equiv_pos_site_id
 _symmetry_equiv_pos_as_xyz
 1  'x, y, z'
loop_
 _atom_site_type_symbol
 _atom_site_label
 _atom_site_symmetry_multiplicity
 _atom_site_fract_x
 _atom_site_fract_y
 _atom_site_fract_z
 _atom_site_fract_occupancy
 Cu  Cu1  1  0.45047  0.83951  0.97872  1
 Cu  Cu2  1  0.26893  0.26706  0.75357  1
 Cu  Cu3  1  0.45047  0.16049  0.47872  1
 Cu  Cu4  1  0.26893  0.73294  0.25357  1
 Li  Li1  1  0.99775  0.17989  0.99929  1
 Li  Li2  1  0.99775  0.82011  0.49929  1
 O  O1  1  0.02234  0.81824  0.94794  1
 O  O2  1  0.84412  0.39047  0.75806  1
 O  O3  1  0.42522  0.67795  0.73246  1
 O  O4  1  0.67126  0.79770  0.54952  1
 O  O5  1  0.02234  0.18176  0.44794  1
 O  O6  1  0.84412  0.60953  0.25806  1
 O  O7  1  0.42522  0.32205  0.23246  1
 O  O8  1  0.67126  0.20230  0.04952  1
 P  P1  1  0.73725  0.66501  0.74721  1
 P  P2  1  0.73725  0.33499  0.24721  1
