CIF file written using JARVIS-Tools package.
data_CaMnO2
_symmetry_space_group_name_H-M  'P2_1/m'
_cell_length_a       3.31018
_cell_length_b       7.96282
_cell_length_c       8.02329
_cell_angle_alpha    110.093
_cell_angle_beta     90.0281
_cell_angle_gamma    89.9896

_symmetry_Int_Tables_number  11
_chemical_formula_structural  CaMnO2
_chemical_formula_sum  Ca4Mn4O8
_cell_volume  198.61037870138466
_cell_formula_units_Z  4
loop_
  _symmetry_equiv_pos_site_id
 _symmetry_equiv_pos_as_xyz
 1  'x, y, z'
loop_
 _atom_site_type_symbol
 _atom_site_label
 _atom_site_symmetry_multiplicity
 _atom_site_fract_x
 _atom_site_fract_y
 _atom_site_fract_z
 _atom_site_fract_occupancy
 Ca  Ca1  1  0.23707  0.78529  0.93821  1
 Ca  Ca2  1  0.73700  0.18530  0.08059  1
 Ca  Ca3  1  0.73710  0.91993  0.32249  1
 Ca  Ca4  1  0.23697  0.05065  0.69632  1
 Mn  Mn1  1  0.73686  0.42130  0.82036  1
 Mn  Mn2  1  0.73701  0.66738  0.56662  1
 Mn  Mn3  1  0.23684  0.30321  0.45219  1
 Mn  Mn4  1  0.23702  0.54928  0.19845  1
 O  O1  1  0.73716  0.43448  0.33191  1
 O  O2  1  0.73685  0.18540  0.57396  1
 O  O3  1  0.23724  0.78519  0.44485  1
 O  O4  1  0.23699  0.53611  0.68690  1
 O  O5  1  0.23690  0.31228  0.94910  1
 O  O6  1  0.73703  0.91687  0.81572  1
 O  O7  1  0.73718  0.65830  0.06971  1
 O  O8  1  0.23705  0.05372  0.20309  1
