CIF file written using JARVIS-Tools package.
data_PbC2O4
_symmetry_space_group_name_H-M  'P-1'
_cell_length_a       5.54844
_cell_length_b       5.69656
_cell_length_c       6.83199
_cell_angle_alpha    109.742
_cell_angle_beta     88.4895
_cell_angle_gamma    113.35

_symmetry_Int_Tables_number  2
_chemical_formula_structural  PbC2O4
_chemical_formula_sum  Pb2C4O8
_cell_volume  185.15127019354733
_cell_formula_units_Z  2
loop_
  _symmetry_equiv_pos_site_id
 _symmetry_equiv_pos_as_xyz
 1  'x, y, z'
loop_
 _atom_site_type_symbol
 _atom_site_label
 _atom_site_symmetry_multiplicity
 _atom_site_fract_x
 _atom_site_fract_y
 _atom_site_fract_z
 _atom_site_fract_occupancy
 C  C1  1  0.12348  0.62181  0.49442  1
 C  C2  1  0.87652  0.37819  0.50558  1
 C  C3  1  0.35418  0.45702  0.95569  1
 C  C4  1  0.64582  0.54298  0.04431  1
 O  O1  1  0.87830  0.14330  0.43300  1
 O  O2  1  0.12170  0.85670  0.56700  1
 O  O3  1  0.30870  0.60459  0.87332  1
 O  O4  1  0.69130  0.39541  0.12668  1
 O  O5  1  0.18119  0.24054  0.97494  1
 O  O6  1  0.81881  0.75946  0.02506  1
 O  O7  1  0.68377  0.42498  0.58548  1
 O  O8  1  0.31623  0.57502  0.41452  1
 Pb  Pb1  1  0.26815  0.08829  0.25717  1
 Pb  Pb2  1  0.73185  0.91171  0.74283  1
