CIF file written using JARVIS-Tools package.
data_LiYCu2P2
_symmetry_space_group_name_H-M  'P-3m1'
_cell_length_a       3.99581
_cell_length_b       3.99578
_cell_length_c       6.63606
_cell_angle_alpha    90
_cell_angle_beta     90.0002
_cell_angle_gamma    120

_symmetry_Int_Tables_number  164
_chemical_formula_structural  LiYCu2P2
_chemical_formula_sum  LiYCu2P2
_cell_volume  91.75895948579526
_cell_formula_units_Z  1
loop_
  _symmetry_equiv_pos_site_id
 _symmetry_equiv_pos_as_xyz
 1  'x, y, z'
loop_
 _atom_site_type_symbol
 _atom_site_label
 _atom_site_symmetry_multiplicity
 _atom_site_fract_x
 _atom_site_fract_y
 _atom_site_fract_z
 _atom_site_fract_occupancy
 Cu  Cu1  1  0.66667  0.33333  0.32733  1
 Cu  Cu2  1  0.33333  0.66667  0.67267  1
 Li  Li1  1  -0.00000  -0.00000  0.50000  1
 P  P1  1  0.66666  0.33333  0.74013  1
 P  P2  1  0.33334  0.66667  0.25987  1
 Y  Y1  1  0.00000  0.00000  0.00000  1
