CIF file written using JARVIS-Tools package.
data_K2Ni3S4
_symmetry_space_group_name_H-M  'Fddd'
_cell_length_a       5.76121
_cell_length_b       5.79962
_cell_length_c       13.0807
_cell_angle_alpha    83.7205
_cell_angle_beta     77.2782
_cell_angle_gamma    60.2189

_symmetry_Int_Tables_number  70
_chemical_formula_structural  K2Ni3S4
_chemical_formula_sum  K4Ni6S8
_cell_volume  370.0285556132299
_cell_formula_units_Z  2
loop_
  _symmetry_equiv_pos_site_id
 _symmetry_equiv_pos_as_xyz
 1  'x, y, z'
loop_
 _atom_site_type_symbol
 _atom_site_label
 _atom_site_symmetry_multiplicity
 _atom_site_fract_x
 _atom_site_fract_y
 _atom_site_fract_z
 _atom_site_fract_occupancy
 K  K1  1  0.54617  0.75000  0.90766  1
 K  K2  1  0.29617  0.25000  0.40766  1
 K  K3  1  0.45383  0.25000  0.09234  1
 K  K4  1  0.70383  0.75000  0.59234  1
 Ni  Ni1  1  0.12500  0.75000  0.75000  1
 Ni  Ni2  1  0.62573  0.25000  0.74854  1
 Ni  Ni3  1  0.87500  0.25000  0.25000  1
 Ni  Ni4  1  0.37427  0.75000  0.25146  1
 Ni  Ni5  1  0.87573  0.75000  0.24854  1
 Ni  Ni6  1  0.12427  0.25000  0.75146  1
 S  S1  1  0.02009  0.08267  0.63575  1
 S  S2  1  0.65584  0.58267  0.36425  1
 S  S3  1  0.10277  0.91733  0.13575  1
 S  S4  1  0.97991  0.91733  0.36425  1
 S  S5  1  0.76149  0.58267  0.13575  1
 S  S6  1  0.89723  0.08267  0.86425  1
 S  S7  1  0.34416  0.41733  0.63575  1
 S  S8  1  0.23851  0.41733  0.86425  1
