CIF file written using JARVIS-Tools package.
data_P2Pb3O8
_symmetry_space_group_name_H-M  'R-3m'
_cell_length_a       7.4705
_cell_length_b       7.4705
_cell_length_c       7.4705
_cell_angle_alpha    43.3387
_cell_angle_beta     43.3386
_cell_angle_gamma    43.3387

_symmetry_Int_Tables_number  166
_chemical_formula_structural  P2Pb3O8
_chemical_formula_sum  P2Pb3O8
_cell_volume  178.11918995596793
_cell_formula_units_Z  1
loop_
  _symmetry_equiv_pos_site_id
 _symmetry_equiv_pos_as_xyz
 1  'x, y, z'
loop_
 _atom_site_type_symbol
 _atom_site_label
 _atom_site_symmetry_multiplicity
 _atom_site_fract_x
 _atom_site_fract_y
 _atom_site_fract_z
 _atom_site_fract_occupancy
 O  O1  1  0.72335  0.72335  0.26236  1
 O  O2  1  0.72335  0.26236  0.72335  1
 O  O3  1  0.26236  0.72335  0.72335  1
 O  O4  1  0.73764  0.27665  0.27665  1
 O  O5  1  0.27665  0.27665  0.73764  1
 O  O6  1  0.32800  0.32800  0.32800  1
 O  O7  1  0.67200  0.67200  0.67200  1
 O  O8  1  0.27665  0.73764  0.27665  1
 P  P1  1  0.59577  0.59577  0.59577  1
 P  P2  1  0.40423  0.40423  0.40423  1
 Pb  Pb1  1  0.78929  0.78929  0.78929  1
 Pb  Pb2  1  0.21071  0.21071  0.21071  1
 Pb  Pb3  1  0.00000  0.00000  0.00000  1
