CIF file written using JARVIS-Tools package.
data_MnOF
_symmetry_space_group_name_H-M  'Imma'
_cell_length_a       3.76489
_cell_length_b       4.30298
_cell_length_c       5.45791
_cell_angle_alpha    113.126
_cell_angle_beta     110.16
_cell_angle_gamma    90.0143

_symmetry_Int_Tables_number  74
_chemical_formula_structural  MnOF
_chemical_formula_sum  Mn2O2F2
_cell_volume  75.38477427192882
_cell_formula_units_Z  2
loop_
  _symmetry_equiv_pos_site_id
 _symmetry_equiv_pos_as_xyz
 1  'x, y, z'
loop_
 _atom_site_type_symbol
 _atom_site_label
 _atom_site_symmetry_multiplicity
 _atom_site_fract_x
 _atom_site_fract_y
 _atom_site_fract_z
 _atom_site_fract_occupancy
 F  F1  1  0.92265  0.17264  0.34500  1
 F  F2  1  0.07735  0.82736  0.65500  1
 Mn  Mn1  1  0.86663  0.61698  0.23336  1
 Mn  Mn2  1  0.13337  0.38302  0.76664  1
 O  O1  1  0.33745  0.58789  0.17496  1
 O  O2  1  0.66255  0.41211  0.82504  1
