CIF file written using JARVIS-Tools package.
data_Mg2Mn3O8
_symmetry_space_group_name_H-M  'C2/m'
_cell_length_a       4.83896
_cell_length_b       5.72262
_cell_length_c       5.84471
_cell_angle_alpha    119.311
_cell_angle_beta     106.781
_cell_angle_gamma    89.9999

_symmetry_Int_Tables_number  12
_chemical_formula_structural  Mg2Mn3O8
_chemical_formula_sum  Mg2Mn3O8
_cell_volume  133.16743650588552
_cell_formula_units_Z  1
loop_
  _symmetry_equiv_pos_site_id
 _symmetry_equiv_pos_as_xyz
 1  'x, y, z'
loop_
 _atom_site_type_symbol
 _atom_site_label
 _atom_site_symmetry_multiplicity
 _atom_site_fract_x
 _atom_site_fract_y
 _atom_site_fract_z
 _atom_site_fract_occupancy
 Mg  Mg1  1  0.65024  0.72276  0.44552  1
 Mg  Mg2  1  0.34976  0.27724  0.55448  1
 Mn  Mn1  1  0.50000  1.00000  -0.00000  1
 Mn  Mn2  1  1.00000  0.73930  -0.00000  1
 Mn  Mn3  1  1.00000  0.26070  0.00000  1
 O  O1  1  0.07163  0.39260  0.78521  1
 O  O2  1  0.92837  0.60739  0.21479  1
 O  O3  1  0.09109  0.89477  0.78954  1
 O  O4  1  0.90891  0.10523  0.21046  1
 O  O5  1  0.39867  0.34031  0.22684  1
 O  O6  1  0.39867  0.88653  0.22684  1
 O  O7  1  0.60133  0.11347  0.77316  1
 O  O8  1  0.60133  0.65969  0.77316  1
