CIF file written using JARVIS-Tools package.
data_Fe4O7F
_symmetry_space_group_name_H-M  'Pc'
_cell_length_a       5.20794
_cell_length_b       4.37208
_cell_length_c       9.62952
_cell_angle_alpha    90
_cell_angle_beta     96.5752
_cell_angle_gamma    90

_symmetry_Int_Tables_number  7
_chemical_formula_structural  Fe4O7F
_chemical_formula_sum  Fe8O4F2
_cell_volume  217.8173626991796
_cell_formula_units_Z  2
loop_
  _symmetry_equiv_pos_site_id
 _symmetry_equiv_pos_as_xyz
 1  'x, y, z'
loop_
 _atom_site_type_symbol
 _atom_site_label
 _atom_site_symmetry_multiplicity
 _atom_site_fract_x
 _atom_site_fract_y
 _atom_site_fract_z
 _atom_site_fract_occupancy
 F  F1  1  0.52796  0.44972  0.67447  1
 F  F2  1  0.52796  0.55028  0.17447  1
 Fe  Fe1  1  0.00142  0.25255  0.00327  1
 Fe  Fe2  1  0.76499  0.22734  0.25527  1
 Fe  Fe3  1  0.49578  0.23681  0.49081  1
 Fe  Fe4  1  0.23689  0.74866  0.25083  1
 Fe  Fe5  1  0.00142  0.74745  0.50327  1
 Fe  Fe6  1  0.49578  0.76319  0.99081  1
 Fe  Fe7  1  0.76499  0.77266  0.75527  1
 Fe  Fe8  1  0.23689  0.25134  0.75083  1
 O  O1  1  0.22611  0.94024  0.07562  1
 O  O2  1  0.22611  0.05976  0.57562  1
 O  O3  1  0.47269  0.04824  0.32263  1
 O  O4  1  0.72666  0.05658  0.07564  1
 O  O5  1  0.47269  0.95176  0.82263  1
 O  O6  1  0.72666  0.94342  0.57564  1
 O  O7  1  0.97803  0.93456  0.32751  1
 O  O8  1  0.77329  0.56447  0.92264  1
 O  O9  1  0.27236  0.55216  0.42452  1
 O  O10  1  0.02381  0.43731  0.17679  1
 O  O11  1  0.27236  0.44784  0.92452  1
 O  O12  1  0.77329  0.43553  0.42264  1
 O  O13  1  0.97803  0.06544  0.82751  1
 O  O14  1  0.02381  0.56269  0.67679  1
