CIF file written using JARVIS-Tools package.
data_ClO3
_symmetry_space_group_name_H-M  'Cc'
_cell_length_a       5.04104
_cell_length_b       5.04103
_cell_length_c       9.86677
_cell_angle_alpha    96.0721
_cell_angle_beta     96.0721
_cell_angle_gamma    114.035

_symmetry_Int_Tables_number  9
_chemical_formula_structural  ClO3
_chemical_formula_sum  Cl4O2
_cell_volume  224.62950351986603
_cell_formula_units_Z  4
loop_
  _symmetry_equiv_pos_site_id
 _symmetry_equiv_pos_as_xyz
 1  'x, y, z'
loop_
 _atom_site_type_symbol
 _atom_site_label
 _atom_site_symmetry_multiplicity
 _atom_site_fract_x
 _atom_site_fract_y
 _atom_site_fract_z
 _atom_site_fract_occupancy
 Cl  Cl1  1  0.81763  0.68262  0.13905  1
 Cl  Cl2  1  0.68262  0.81763  0.63905  1
 Cl  Cl3  1  0.18155  0.31381  0.37743  1
 Cl  Cl4  1  0.31381  0.18155  0.87743  1
 O  O1  1  0.58039  0.45224  0.18473  1
 O  O2  1  0.45224  0.58039  0.68473  1
 O  O3  1  0.81883  0.97250  0.18633  1
 O  O4  1  0.97250  0.81883  0.68633  1
 O  O5  1  0.37714  0.97094  0.94492  1
 O  O6  1  0.97094  0.37714  0.44492  1
 O  O7  1  0.11215  0.28191  0.93206  1
 O  O8  1  0.28191  0.11215  0.43206  1
 O  O9  1  0.63570  0.76649  0.48683  1
 O  O10  1  0.76649  0.63570  0.98683  1
 O  O11  1  0.69051  0.09940  0.69026  1
 O  O12  1  0.09940  0.69051  0.19026  1
