CIF file written using JARVIS-Tools package.
data_BaMgFe4O8
_symmetry_space_group_name_H-M  'P-31m'
_cell_length_a       5.36981
_cell_length_b       5.36981
_cell_length_c       7.26484
_cell_angle_alpha    90
_cell_angle_beta     90
_cell_angle_gamma    120

_symmetry_Int_Tables_number  162
_chemical_formula_structural  BaMgFe4O8
_chemical_formula_sum  BaMgFe4O8
_cell_volume  181.4152120706266
_cell_formula_units_Z  1
loop_
  _symmetry_equiv_pos_site_id
 _symmetry_equiv_pos_as_xyz
 1  'x, y, z'
loop_
 _atom_site_type_symbol
 _atom_site_label
 _atom_site_symmetry_multiplicity
 _atom_site_fract_x
 _atom_site_fract_y
 _atom_site_fract_z
 _atom_site_fract_occupancy
 Ba  Ba1  1  0.00000  0.00000  0.00000  1
 Fe  Fe1  1  0.33333  0.66667  0.74073  1
 Fe  Fe2  1  0.66667  0.33333  0.74073  1
 Fe  Fe3  1  0.33333  0.66667  0.25927  1
 Fe  Fe4  1  0.66667  0.33333  0.25927  1
 Mg  Mg1  1  0.00000  0.00000  0.50000  1
 O  O1  1  0.31387  0.31387  0.67611  1
 O  O2  1  0.68613  -0.00000  0.67611  1
 O  O3  1  -0.00000  0.68613  0.67611  1
 O  O4  1  0.68613  0.68613  0.32389  1
 O  O5  1  0.00000  0.31387  0.32389  1
 O  O6  1  0.31387  0.00000  0.32389  1
 O  O7  1  0.33333  0.66667  0.00000  1
 O  O8  1  0.66667  0.33333  0.00000  1
