CIF file written using JARVIS-Tools package.
data_Tb2Ti2S2O5
_symmetry_space_group_name_H-M  'I4/mmm'
_cell_length_a       3.79459
_cell_length_b       3.79458
_cell_length_c       11.8235
_cell_angle_alpha    99.234
_cell_angle_beta     99.234
_cell_angle_gamma    90

_symmetry_Int_Tables_number  139
_chemical_formula_structural  Tb2Ti2S2O5
_chemical_formula_sum  Tb2Ti2S2O5
_cell_volume  165.80370440217484
_cell_formula_units_Z  1
loop_
  _symmetry_equiv_pos_site_id
 _symmetry_equiv_pos_as_xyz
 1  'x, y, z'
loop_
 _atom_site_type_symbol
 _atom_site_label
 _atom_site_symmetry_multiplicity
 _atom_site_fract_x
 _atom_site_fract_y
 _atom_site_fract_z
 _atom_site_fract_occupancy
 O  O1  1  0.40016  0.90016  0.80032  1
 O  O2  1  0.90016  0.40016  0.80032  1
 O  O3  1  0.59984  0.09984  0.19968  1
 O  O4  1  0.09984  0.59984  0.19968  1
 O  O5  1  0.50000  0.50000  0.00000  1
 S  S1  1  0.29465  0.29465  0.58929  1
 S  S2  1  0.70535  0.70535  0.41071  1
 Tb  Tb1  1  0.83305  0.83305  0.66609  1
 Tb  Tb2  1  0.16695  0.16695  0.33391  1
 Ti  Ti1  1  0.42120  0.42120  0.84241  1
 Ti  Ti2  1  0.57880  0.57880  0.15759  1
