CIF file written using JARVIS-Tools package.
data_MgMo2O4
_symmetry_space_group_name_H-M  'R3m'
_cell_length_a       5.98084
_cell_length_b       5.98078
_cell_length_c       6.06456
_cell_angle_alpha    60.4548
_cell_angle_beta     60.4543
_cell_angle_gamma    60.0027

_symmetry_Int_Tables_number  160
_chemical_formula_structural  MgMo2O4
_chemical_formula_sum  Mg2Mo4O8
_cell_volume  154.44102906313097
_cell_formula_units_Z  2
loop_
  _symmetry_equiv_pos_site_id
 _symmetry_equiv_pos_as_xyz
 1  'x, y, z'
loop_
 _atom_site_type_symbol
 _atom_site_label
 _atom_site_symmetry_multiplicity
 _atom_site_fract_x
 _atom_site_fract_y
 _atom_site_fract_z
 _atom_site_fract_occupancy
 Mg  Mg1  1  0.85954  0.35956  0.92133  1
 Mg  Mg2  1  0.10477  0.60477  0.18565  1
 Mo  Mo1  1  0.47710  0.97710  0.51643  1
 Mo  Mo2  1  0.53006  0.03005  0.90984  1
 Mo  Mo3  1  0.02938  0.97710  0.51643  1
 Mo  Mo4  1  0.47710  0.52937  0.51644  1
 O  O1  1  0.23405  0.73407  0.79779  1
 O  O2  1  0.71938  0.77654  0.22757  1
 O  O3  1  0.27655  0.21938  0.22757  1
 O  O4  1  0.77114  0.27115  0.71665  1
 O  O5  1  0.77113  0.74107  0.71665  1
 O  O6  1  0.24106  0.27111  0.71670  1
 O  O7  1  0.27652  0.77649  0.22760  1
 O  O8  1  0.73223  0.23224  0.30336  1
