CIF file written using JARVIS-Tools package.
data_Ti4ZnS8
_symmetry_space_group_name_H-M  'R-3m'
_cell_length_a       6.96324
_cell_length_b       7.03081
_cell_length_c       7.03082
_cell_angle_alpha    60
_cell_angle_beta     59.6784
_cell_angle_gamma    59.6784

_symmetry_Int_Tables_number  166
_chemical_formula_structural  Ti4ZnS8
_chemical_formula_sum  Ti4ZnS8
_cell_volume  242.20299427601583
_cell_formula_units_Z  1
loop_
  _symmetry_equiv_pos_site_id
 _symmetry_equiv_pos_as_xyz
 1  'x, y, z'
loop_
 _atom_site_type_symbol
 _atom_site_label
 _atom_site_symmetry_multiplicity
 _atom_site_fract_x
 _atom_site_fract_y
 _atom_site_fract_z
 _atom_site_fract_occupancy
 S  S1  1  0.25119  0.25220  0.25220  1
 S  S2  1  0.25119  0.25220  0.74440  1
 S  S3  1  0.25119  0.74440  0.25220  1
 S  S4  1  0.74210  0.25263  0.25263  1
 S  S5  1  0.25790  0.74737  0.74737  1
 S  S6  1  0.74881  0.74780  0.25560  1
 S  S7  1  0.74881  0.25560  0.74780  1
 S  S8  1  0.74881  0.74780  0.74780  1
 Ti  Ti1  1  0.00000  0.50000  0.50000  1
 Ti  Ti2  1  0.50000  0.50000  0.00000  1
 Ti  Ti3  1  0.50000  0.50000  0.50000  1
 Ti  Ti4  1  0.50000  0.00000  0.50000  1
 Zn  Zn1  1  0.50000  -0.00000  0.00000  1
