CIF file written using JARVIS-Tools package.
data_YbBi2
_symmetry_space_group_name_H-M  'Cmcm'
_cell_length_a       4.58918
_cell_length_b       4.72135
_cell_length_c       8.80681
_cell_angle_alpha    105.548
_cell_angle_beta     90
_cell_angle_gamma    90

_symmetry_Int_Tables_number  63
_chemical_formula_structural  YbBi2
_chemical_formula_sum  Yb2Bi4
_cell_volume  183.83525778517338
_cell_formula_units_Z  2
loop_
  _symmetry_equiv_pos_site_id
 _symmetry_equiv_pos_as_xyz
 1  'x, y, z'
loop_
 _atom_site_type_symbol
 _atom_site_label
 _atom_site_symmetry_multiplicity
 _atom_site_fract_x
 _atom_site_fract_y
 _atom_site_fract_z
 _atom_site_fract_occupancy
 Bi  Bi1  1  0.25000  0.06583  0.13166  1
 Bi  Bi2  1  0.75000  0.93417  0.86834  1
 Bi  Bi3  1  0.25000  0.75746  0.51492  1
 Bi  Bi4  1  0.75000  0.24254  0.48508  1
 Yb  Yb1  1  0.25000  0.40134  0.80267  1
 Yb  Yb2  1  0.75000  0.59866  0.19733  1
