CIF file written using JARVIS-Tools package.
data_Ba8Bi4H2O
_symmetry_space_group_name_H-M  'I4/mmm'
_cell_length_a       5.27758
_cell_length_b       5.27758
_cell_length_c       19.5505
_cell_angle_alpha    97.7571
_cell_angle_beta     97.7571
_cell_angle_gamma    90

_symmetry_Int_Tables_number  139
_chemical_formula_structural  Ba8Bi4H2O
_chemical_formula_sum  Ba8Bi4H2O
_cell_volume  534.5237205363732
_cell_formula_units_Z  1
loop_
  _symmetry_equiv_pos_site_id
 _symmetry_equiv_pos_as_xyz
 1  'x, y, z'
loop_
 _atom_site_type_symbol
 _atom_site_label
 _atom_site_symmetry_multiplicity
 _atom_site_fract_x
 _atom_site_fract_y
 _atom_site_fract_z
 _atom_site_fract_occupancy
 Ba  Ba1  1  0.50000  0.00000  0.00000  1
 Ba  Ba2  1  0.00000  0.50000  0.00000  1
 Ba  Ba3  1  0.08374  0.08374  0.16749  1
 Ba  Ba4  1  0.65973  0.65973  0.31946  1
 Ba  Ba5  1  0.75000  0.25000  0.50000  1
 Ba  Ba6  1  0.25000  0.75000  0.50000  1
 Ba  Ba7  1  0.34027  0.34027  0.68054  1
 Ba  Ba8  1  0.91626  0.91626  0.83251  1
 Bi  Bi1  1  0.56730  0.56730  0.13459  1
 Bi  Bi2  1  0.17904  0.17904  0.35809  1
 Bi  Bi3  1  0.82095  0.82095  0.64191  1
 Bi  Bi4  1  0.43270  0.43270  0.86541  1
 H  H1  1  0.72928  0.72928  0.45857  1
 H  H2  1  0.27072  0.27072  0.54143  1
 O  O1  1  0.00000  0.00000  0.00000  1
