CIF file written using JARVIS-Tools package.
data_NpCuSe2
_symmetry_space_group_name_H-M  'P2_1/c'
_cell_length_a       6.61187
_cell_length_b       7.36691
_cell_length_c       7.10954
_cell_angle_alpha    90
_cell_angle_beta     97.1569
_cell_angle_gamma    90

_symmetry_Int_Tables_number  14
_chemical_formula_structural  NpCuSe2
_chemical_formula_sum  Np4Cu4Se8
_cell_volume  343.6005759202412
_cell_formula_units_Z  4
loop_
  _symmetry_equiv_pos_site_id
 _symmetry_equiv_pos_as_xyz
 1  'x, y, z'
loop_
 _atom_site_type_symbol
 _atom_site_label
 _atom_site_symmetry_multiplicity
 _atom_site_fract_x
 _atom_site_fract_y
 _atom_site_fract_z
 _atom_site_fract_occupancy
 Cu  Cu1  1  0.06401  0.33755  0.03846  1
 Cu  Cu2  1  0.93599  0.83755  0.46154  1
 Cu  Cu3  1  0.93599  0.66245  0.96154  1
 Cu  Cu4  1  0.06401  0.16245  0.53846  1
 Np  Np1  1  0.30734  0.95105  0.20344  1
 Np  Np2  1  0.30734  0.54895  0.70344  1
 Np  Np3  1  0.69266  0.04895  0.79656  1
 Np  Np4  1  0.69266  0.45105  0.29656  1
 Se  Se1  1  0.58304  0.77067  0.50182  1
 Se  Se2  1  0.10227  0.60940  0.28836  1
 Se  Se3  1  0.41696  0.27067  0.99818  1
 Se  Se4  1  0.41696  0.22933  0.49818  1
 Se  Se5  1  0.89773  0.39060  0.71164  1
 Se  Se6  1  0.89773  0.10940  0.21164  1
 Se  Se7  1  0.10227  0.89060  0.78836  1
 Se  Se8  1  0.58304  0.72933  0.00182  1
