CIF file written using JARVIS-Tools package.
data_CaAl2O4
_symmetry_space_group_name_H-M  'P2_1/m'
_cell_length_a       5.60885
_cell_length_b       3.78321
_cell_length_c       7.10251
_cell_angle_alpha    90
_cell_angle_beta     101.411
_cell_angle_gamma    90

_symmetry_Int_Tables_number  11
_chemical_formula_structural  CaAl2O4
_chemical_formula_sum  Ca2Al4O8
_cell_volume  147.73224721427962
_cell_formula_units_Z  2
loop_
  _symmetry_equiv_pos_site_id
 _symmetry_equiv_pos_as_xyz
 1  'x, y, z'
loop_
 _atom_site_type_symbol
 _atom_site_label
 _atom_site_symmetry_multiplicity
 _atom_site_fract_x
 _atom_site_fract_y
 _atom_site_fract_z
 _atom_site_fract_occupancy
 Al  Al1  1  0.84611  0.75000  0.87012  1
 Al  Al2  1  0.15389  0.25000  0.12988  1
 Al  Al3  1  0.34402  0.75000  0.88704  1
 Al  Al4  1  0.65598  0.25000  0.11296  1
 Ca  Ca1  1  0.73134  0.75000  0.42875  1
 Ca  Ca2  1  0.26866  0.25000  0.57125  1
 O  O1  1  0.94317  0.25000  0.30762  1
 O  O2  1  0.85788  0.25000  0.92830  1
 O  O3  1  0.45807  0.25000  0.30409  1
 O  O4  1  0.64329  0.75000  0.07461  1
 O  O5  1  0.54193  0.75000  0.69591  1
 O  O6  1  0.14212  0.75000  0.07170  1
 O  O7  1  0.35671  0.25000  0.92539  1
 O  O8  1  0.05683  0.75000  0.69238  1
