CIF file written using JARVIS-Tools package.
data_H2SO4
_symmetry_space_group_name_H-M  'Cc'
_cell_length_a       4.7014
_cell_length_b       4.7014
_cell_length_c       8.5702
_cell_angle_alpha    65.152
_cell_angle_beta     114.848
_cell_angle_gamma    122.008

_symmetry_Int_Tables_number  9
_chemical_formula_structural  H2SO4
_chemical_formula_sum  H4S2O8
_cell_volume  140.87798391178254
_cell_formula_units_Z  2
loop_
  _symmetry_equiv_pos_site_id
 _symmetry_equiv_pos_as_xyz
 1  'x, y, z'
loop_
 _atom_site_type_symbol
 _atom_site_label
 _atom_site_symmetry_multiplicity
 _atom_site_fract_x
 _atom_site_fract_y
 _atom_site_fract_z
 _atom_site_fract_occupancy
 H  H1  1  0.71441  0.54101  0.61660  1
 H  H2  1  0.45899  0.28559  0.11660  1
 H  H3  1  0.29317  0.76289  0.89590  1
 H  H4  1  0.23711  0.70683  0.39590  1
 O  O1  1  0.73426  0.71584  0.89457  1
 O  O2  1  0.68442  0.75617  0.58845  1
 O  O3  1  0.24383  0.31558  0.08845  1
 O  O4  1  0.28416  0.26574  0.39457  1
 O  O5  1  0.25891  0.96313  0.79910  1
 O  O6  1  0.91735  0.28130  0.67113  1
 O  O7  1  0.71870  0.08265  0.17113  1
 O  O8  1  0.03687  0.74109  0.29910  1
 S  S1  1  0.88575  0.93379  0.74764  1
 S  S2  1  0.06621  0.11425  0.24764  1
