CIF file written using JARVIS-Tools package.
data_CaAl9Co2
_symmetry_space_group_name_H-M  'P6/mmm'
_cell_length_a       7.89764
_cell_length_b       7.89764
_cell_length_c       3.86242
_cell_angle_alpha    90
_cell_angle_beta     90
_cell_angle_gamma    120

_symmetry_Int_Tables_number  191
_chemical_formula_structural  CaAl9Co2
_chemical_formula_sum  CaAl9Co2
_cell_volume  208.63393893254957
_cell_formula_units_Z  1
loop_
  _symmetry_equiv_pos_site_id
 _symmetry_equiv_pos_as_xyz
 1  'x, y, z'
loop_
 _atom_site_type_symbol
 _atom_site_label
 _atom_site_symmetry_multiplicity
 _atom_site_fract_x
 _atom_site_fract_y
 _atom_site_fract_z
 _atom_site_fract_occupancy
 Al  Al1  1  0.50000  -0.00000  0.00000  1
 Al  Al2  1  0.50000  0.50000  0.00000  1
 Al  Al3  1  -0.00000  0.50000  0.00000  1
 Al  Al4  1  0.21134  0.42268  0.50000  1
 Al  Al5  1  0.78866  0.21134  0.50000  1
 Al  Al6  1  0.42268  0.21134  0.50000  1
 Al  Al7  1  0.57732  0.78866  0.50000  1
 Al  Al8  1  0.21134  0.78866  0.50000  1
 Al  Al9  1  0.78866  0.57732  0.50000  1
 Ca  Ca1  1  0.00000  0.00000  0.00000  1
 Co  Co1  1  0.33333  0.66667  0.00000  1
 Co  Co2  1  0.66667  0.33333  0.00000  1
