CIF file written using JARVIS-Tools package.
data_LuHCl
_symmetry_space_group_name_H-M  'R-3m'
_cell_length_a       9.19542
_cell_length_b       9.19542
_cell_length_c       9.19543
_cell_angle_alpha    22.7432
_cell_angle_beta     22.7432
_cell_angle_gamma    22.7432

_symmetry_Int_Tables_number  166
_chemical_formula_structural  LuHCl
_chemical_formula_sum  Lu2H2Cl2
_cell_volume  101.96148123017429
_cell_formula_units_Z  2
loop_
  _symmetry_equiv_pos_site_id
 _symmetry_equiv_pos_as_xyz
 1  'x, y, z'
loop_
 _atom_site_type_symbol
 _atom_site_label
 _atom_site_symmetry_multiplicity
 _atom_site_fract_x
 _atom_site_fract_y
 _atom_site_fract_z
 _atom_site_fract_occupancy
 Cl  Cl1  1  0.38889  0.38889  0.38889  1
 Cl  Cl2  1  0.61111  0.61111  0.61111  1
 H  H1  1  0.80318  0.80318  0.80318  1
 H  H2  1  0.19682  0.19682  0.19682  1
 Lu  Lu1  1  0.88220  0.88220  0.88220  1
 Lu  Lu2  1  0.11780  0.11780  0.11780  1
