CIF file written using JARVIS-Tools package.
data_BiO2
_symmetry_space_group_name_H-M  'I2_12_12_1'
_cell_length_a       6.58561
_cell_length_b       6.77385
_cell_length_c       6.77309
_cell_angle_alpha    68.8524
_cell_angle_beta     60.9093
_cell_angle_gamma    60.9148

_symmetry_Int_Tables_number  24
_chemical_formula_structural  BiO2
_chemical_formula_sum  Bi4O8
_cell_volume  227.65297451469718
_cell_formula_units_Z  4
loop_
  _symmetry_equiv_pos_site_id
 _symmetry_equiv_pos_as_xyz
 1  'x, y, z'
loop_
 _atom_site_type_symbol
 _atom_site_label
 _atom_site_symmetry_multiplicity
 _atom_site_fract_x
 _atom_site_fract_y
 _atom_site_fract_z
 _atom_site_fract_occupancy
 Bi  Bi1  1  0.57692  0.50002  0.50001  1
 Bi  Bi2  1  -0.00002  -0.05240  0.55253  1
 Bi  Bi3  1  0.50013  0.05242  0.44745  1
 Bi  Bi4  1  0.42292  -0.00001  -0.00001  1
 O  O1  1  0.80348  0.17328  0.30591  1
 O  O2  1  0.71739  0.80598  0.67327  1
 O  O3  1  0.28265  0.82673  0.69408  1
 O  O4  1  0.68037  0.83323  0.20465  1
 O  O5  1  0.19667  0.19403  0.32670  1
 O  O6  1  0.28159  0.70473  0.33336  1
 O  O7  1  0.71823  0.16675  0.79538  1
 O  O8  1  0.31967  0.29524  0.66667  1
