CIF file written using JARVIS-Tools package.
data_NbPd2
_symmetry_space_group_name_H-M  'Immm'
_cell_length_a       2.84959
_cell_length_b       3.96563
_cell_length_c       4.88626
_cell_angle_alpha    113.941
_cell_angle_beta     106.953
_cell_angle_gamma    90

_symmetry_Int_Tables_number  71
_chemical_formula_structural  NbPd2
_chemical_formula_sum  NbPd2
_cell_volume  47.82883630836457
_cell_formula_units_Z  1
loop_
  _symmetry_equiv_pos_site_id
 _symmetry_equiv_pos_as_xyz
 1  'x, y, z'
loop_
 _atom_site_type_symbol
 _atom_site_label
 _atom_site_symmetry_multiplicity
 _atom_site_fract_x
 _atom_site_fract_y
 _atom_site_fract_z
 _atom_site_fract_occupancy
 Nb  Nb1  1  0.00000  0.00000  0.00000  1
 Pd  Pd1  1  0.66632  0.66632  0.33264  1
 Pd  Pd2  1  0.33368  0.33368  0.66736  1
