CIF file written using JARVIS-Tools package.
data_B2CN
_symmetry_space_group_name_H-M  'P3m1'
_cell_length_a       2.57514
_cell_length_b       2.57514
_cell_length_c       4.43473
_cell_angle_alpha    90
_cell_angle_beta     90
_cell_angle_gamma    120

_symmetry_Int_Tables_number  156
_chemical_formula_structural  B2CN
_chemical_formula_sum  B2CN
_cell_volume  25.46829087401462
_cell_formula_units_Z  1
loop_
  _symmetry_equiv_pos_site_id
 _symmetry_equiv_pos_as_xyz
 1  'x, y, z'
loop_
 _atom_site_type_symbol
 _atom_site_label
 _atom_site_symmetry_multiplicity
 _atom_site_fract_x
 _atom_site_fract_y
 _atom_site_fract_z
 _atom_site_fract_occupancy
 B  B1  1  0.00000  0.00000  0.82981  1
 B  B2  1  0.33333  0.66667  0.35785  1
 C  C1  1  0.33333  0.66667  0.99610  1
 N  N1  1  0.00000  0.00000  0.48724  1
