CIF file written using JARVIS-Tools package.
data_MgMnGe2O6
_symmetry_space_group_name_H-M  'C2/c'
_cell_length_a       5.24397
_cell_length_b       6.70868
_cell_length_c       6.70869
_cell_angle_alpha    86.2918
_cell_angle_beta     82.8774
_cell_angle_gamma    82.8774

_symmetry_Int_Tables_number  15
_chemical_formula_structural  MgMnGe2O6
_chemical_formula_sum  Mg2Mn2Ge4O2
_cell_volume  232.0924512386625
_cell_formula_units_Z  2
loop_
  _symmetry_equiv_pos_site_id
 _symmetry_equiv_pos_as_xyz
 1  'x, y, z'
loop_
 _atom_site_type_symbol
 _atom_site_label
 _atom_site_symmetry_multiplicity
 _atom_site_fract_x
 _atom_site_fract_y
 _atom_site_fract_z
 _atom_site_fract_occupancy
 Ge  Ge1  1  0.78745  0.39663  0.20783  1
 Ge  Ge2  1  0.71255  0.79217  0.60337  1
 Ge  Ge3  1  0.21255  0.60337  0.79217  1
 Ge  Ge4  1  0.28745  0.20783  0.39663  1
 Mg  Mg1  1  0.75000  0.27251  0.72749  1
 Mg  Mg2  1  0.25000  0.72749  0.27251  1
 Mn  Mn1  1  0.75000  0.90604  0.09396  1
 Mn  Mn2  1  0.25000  0.09396  0.90604  1
 O  O1  1  0.60058  0.29036  0.43245  1
 O  O2  1  0.13836  0.78550  0.97699  1
 O  O3  1  0.39942  0.70964  0.56755  1
 O  O4  1  0.10058  0.43245  0.29036  1
 O  O5  1  0.89942  0.56755  0.70964  1
 O  O6  1  0.86164  0.21450  0.02301  1
 O  O7  1  0.88891  0.85387  0.37593  1
 O  O8  1  0.61109  0.62407  0.14613  1
 O  O9  1  0.11109  0.14613  0.62407  1
 O  O10  1  0.63836  0.97699  0.78550  1
 O  O11  1  0.38891  0.37593  0.85387  1
 O  O12  1  0.36164  0.02301  0.21450  1
