CIF file written using JARVIS-Tools package.
data_ZnSnO3
_symmetry_space_group_name_H-M  'Pnma'
_cell_length_a       5.3621
_cell_length_b       5.37315
_cell_length_c       7.91597
_cell_angle_alpha    90
_cell_angle_beta     90
_cell_angle_gamma    90

_symmetry_Int_Tables_number  62
_chemical_formula_structural  ZnSnO3
_chemical_formula_sum  Zn4Sn4O2
_cell_volume  228.06983380742622
_cell_formula_units_Z  4
loop_
  _symmetry_equiv_pos_site_id
 _symmetry_equiv_pos_as_xyz
 1  'x, y, z'
loop_
 _atom_site_type_symbol
 _atom_site_label
 _atom_site_symmetry_multiplicity
 _atom_site_fract_x
 _atom_site_fract_y
 _atom_site_fract_z
 _atom_site_fract_occupancy
 O  O1  1  0.66748  0.32814  0.07032  1
 O  O2  1  0.87381  0.59505  0.75000  1
 O  O3  1  0.33252  0.67186  0.57032  1
 O  O4  1  0.62619  0.09505  0.75000  1
 O  O5  1  0.12619  0.40495  0.25000  1
 O  O6  1  0.37381  0.90495  0.25000  1
 O  O7  1  0.16748  0.17186  0.57032  1
 O  O8  1  0.83252  0.82814  0.07032  1
 O  O9  1  0.33252  0.67186  0.92968  1
 O  O10  1  0.83252  0.82814  0.42968  1
 O  O11  1  0.16748  0.17186  0.92968  1
 O  O12  1  0.66748  0.32814  0.42968  1
 Sn  Sn1  1  0.50000  0.00000  0.50000  1
 Sn  Sn2  1  0.00000  0.50000  0.50000  1
 Sn  Sn3  1  0.00000  0.50000  0.00000  1
 Sn  Sn4  1  0.50000  0.00000  0.00000  1
 Zn  Zn1  1  0.99136  0.97223  0.75000  1
 Zn  Zn2  1  0.49136  0.52777  0.25000  1
 Zn  Zn3  1  0.50864  0.47223  0.75000  1
 Zn  Zn4  1  0.00864  0.02777  0.25000  1
