CIF file written using JARVIS-Tools package.
data_Ag3AsS3
_symmetry_space_group_name_H-M  'R3c'
_cell_length_a       6.89813
_cell_length_b       6.89813
_cell_length_c       6.89813
_cell_angle_alpha    101.605
_cell_angle_beta     101.605
_cell_angle_gamma    101.605

_symmetry_Int_Tables_number  161
_chemical_formula_structural  Ag3AsS3
_chemical_formula_sum  Ag6As2S6
_cell_volume  304.8114934718585
_cell_formula_units_Z  2
loop_
  _symmetry_equiv_pos_site_id
 _symmetry_equiv_pos_as_xyz
 1  'x, y, z'
loop_
 _atom_site_type_symbol
 _atom_site_label
 _atom_site_symmetry_multiplicity
 _atom_site_fract_x
 _atom_site_fract_y
 _atom_site_fract_z
 _atom_site_fract_occupancy
 Ag  Ag1  1  0.39974  0.58453  0.06100  1
 Ag  Ag2  1  0.56100  0.08453  0.89974  1
 Ag  Ag3  1  0.06100  0.39974  0.58453  1
 Ag  Ag4  1  0.89974  0.56100  0.08453  1
 Ag  Ag5  1  0.58453  0.06100  0.39974  1
 Ag  Ag6  1  0.08453  0.89974  0.56100  1
 As  As1  1  0.63732  0.63732  0.63732  1
 As  As2  1  0.13732  0.13732  0.13732  1
 S  S1  1  0.72910  0.41185  0.39466  1
 S  S2  1  0.39466  0.72910  0.41185  1
 S  S3  1  0.91185  0.22910  0.89466  1
 S  S4  1  0.41185  0.39466  0.72910  1
 S  S5  1  0.22910  0.89466  0.91185  1
 S  S6  1  0.89466  0.91185  0.22910  1
