CIF file written using JARVIS-Tools package.
data_BaTl2O4
_symmetry_space_group_name_H-M  'Cmcm'
_cell_length_a       3.58729
_cell_length_b       6.04594
_cell_length_c       10.9953
_cell_angle_alpha    90
_cell_angle_beta     90
_cell_angle_gamma    107.258

_symmetry_Int_Tables_number  63
_chemical_formula_structural  BaTl2O4
_chemical_formula_sum  Ba2Tl4O8
_cell_volume  227.73613165739525
_cell_formula_units_Z  2
loop_
  _symmetry_equiv_pos_site_id
 _symmetry_equiv_pos_as_xyz
 1  'x, y, z'
loop_
 _atom_site_type_symbol
 _atom_site_label
 _atom_site_symmetry_multiplicity
 _atom_site_fract_x
 _atom_site_fract_y
 _atom_site_fract_z
 _atom_site_fract_occupancy
 Ba  Ba1  1  0.10589  0.21177  0.25000  1
 Ba  Ba2  1  0.89411  0.78823  0.75000  1
 O  O1  1  0.00000  0.00000  0.00000  1
 O  O2  1  0.00000  0.00000  0.50000  1
 O  O3  1  0.43609  0.87218  0.25000  1
 O  O4  1  0.27311  0.54623  0.60792  1
 O  O5  1  0.27311  0.54623  0.89208  1
 O  O6  1  0.56391  0.12782  0.75000  1
 O  O7  1  0.72689  0.45377  0.39208  1
 O  O8  1  0.72689  0.45377  0.10792  1
 Tl  Tl1  1  0.36329  0.72658  0.43248  1
 Tl  Tl2  1  0.36329  0.72658  0.06752  1
 Tl  Tl3  1  0.63671  0.27342  0.56752  1
 Tl  Tl4  1  0.63671  0.27342  0.93248  1
