CIF file written using JARVIS-Tools package.
data_Tl4CuTe3
_symmetry_space_group_name_H-M  'I4/mcm'
_cell_length_a       8.77142
_cell_length_b       8.77142
_cell_length_c       8.77142
_cell_angle_alpha    90.6144
_cell_angle_beta     119.646
_cell_angle_gamma    119.646

_symmetry_Int_Tables_number  140
_chemical_formula_structural  Tl4CuTe3
_chemical_formula_sum  Tl8Cu2Te6
_cell_volume  479.7175930548779
_cell_formula_units_Z  2
loop_
  _symmetry_equiv_pos_site_id
 _symmetry_equiv_pos_as_xyz
 1  'x, y, z'
loop_
 _atom_site_type_symbol
 _atom_site_label
 _atom_site_symmetry_multiplicity
 _atom_site_fract_x
 _atom_site_fract_y
 _atom_site_fract_z
 _atom_site_fract_occupancy
 Cu  Cu1  1  -0.00000  0.50000  0.50000  1
 Cu  Cu2  1  0.00000  0.00000  0.00000  1
 Te  Te1  1  -0.00000  0.75000  0.75000  1
 Te  Te2  1  0.17745  0.83872  0.33872  1
 Te  Te3  1  0.50000  0.66128  0.83872  1
 Te  Te4  1  0.50000  0.33872  0.16128  1
 Te  Te5  1  0.82255  0.16128  0.66128  1
 Te  Te6  1  -0.00000  0.25000  0.25000  1
 Tl  Tl1  1  0.20565  0.19336  0.69336  1
 Tl  Tl2  1  0.50000  0.98771  0.19336  1
 Tl  Tl3  1  0.50000  0.69336  0.48771  1
 Tl  Tl4  1  0.20565  0.51229  0.01229  1
 Tl  Tl5  1  0.79435  0.48771  0.98771  1
 Tl  Tl6  1  0.50000  0.30664  0.51229  1
 Tl  Tl7  1  0.50000  0.01229  0.80664  1
 Tl  Tl8  1  0.79435  0.80664  0.30664  1
