CIF file written using JARVIS-Tools package.
data_ZnCl2
_symmetry_space_group_name_H-M  'Pna2_1'
_cell_length_a       6.11962
_cell_length_b       6.42157
_cell_length_c       7.54114
_cell_angle_alpha    90
_cell_angle_beta     90
_cell_angle_gamma    90

_symmetry_Int_Tables_number  33
_chemical_formula_structural  ZnCl2
_chemical_formula_sum  Zn4Cl8
_cell_volume  296.34854251210436
_cell_formula_units_Z  4
loop_
  _symmetry_equiv_pos_site_id
 _symmetry_equiv_pos_as_xyz
 1  'x, y, z'
loop_
 _atom_site_type_symbol
 _atom_site_label
 _atom_site_symmetry_multiplicity
 _atom_site_fract_x
 _atom_site_fract_y
 _atom_site_fract_z
 _atom_site_fract_occupancy
 Cl  Cl1  1  0.00116  0.57922  0.87505  1
 Cl  Cl2  1  0.50116  0.42078  0.12495  1
 Cl  Cl3  1  0.50116  0.92078  0.37505  1
 Cl  Cl4  1  0.00116  0.07922  0.62495  1
 Cl  Cl5  1  -0.00203  0.07688  0.12752  1
 Cl  Cl6  1  0.49797  0.92312  0.87248  1
 Cl  Cl7  1  0.49797  0.42312  0.62752  1
 Cl  Cl8  1  -0.00203  0.57688  0.37248  1
 Zn  Zn1  1  0.37378  0.58509  0.37546  1
 Zn  Zn2  1  0.87378  0.41491  0.62454  1
 Zn  Zn3  1  0.87378  0.91491  0.87546  1
 Zn  Zn4  1  0.37378  0.08509  0.12454  1
