CIF file written using JARVIS-Tools package.
data_Na4CO4
_symmetry_space_group_name_H-M  'I-42m'
_cell_length_a       4.78483
_cell_length_b       5.75795
_cell_length_c       5.75776
_cell_angle_alpha    80.0704
_cell_angle_beta     65.4517
_cell_angle_gamma    65.4491

_symmetry_Int_Tables_number  121
_chemical_formula_structural  Na4CO4
_chemical_formula_sum  Na4CO4
_cell_volume  131.24762313753598
_cell_formula_units_Z  1
loop_
  _symmetry_equiv_pos_site_id
 _symmetry_equiv_pos_as_xyz
 1  'x, y, z'
loop_
 _atom_site_type_symbol
 _atom_site_label
 _atom_site_symmetry_multiplicity
 _atom_site_fract_x
 _atom_site_fract_y
 _atom_site_fract_z
 _atom_site_fract_occupancy
 C  C1  1  0.50001  0.00000  -0.00001  1
 Na  Na1  1  0.32143  0.65182  0.99995  1
 Na  Na2  1  0.67856  0.00006  0.34818  1
 Na  Na3  1  0.97320  0.34818  0.00005  1
 Na  Na4  1  0.02679  0.99995  0.65182  1
 O  O1  1  0.21761  0.00002  0.22415  1
 O  O2  1  0.78242  0.77585  -0.00002  1
 O  O3  1  0.44176  -0.00003  0.77585  1
 O  O4  1  0.55823  0.22415  0.00002  1
