CIF file written using JARVIS-Tools package.
data_ZnSb2O6
_symmetry_space_group_name_H-M  'Pmn2_1'
_cell_length_a       5.20419
_cell_length_b       5.42852
_cell_length_c       7.59021
_cell_angle_alpha    89.9991
_cell_angle_beta     89.9999
_cell_angle_gamma    90

_symmetry_Int_Tables_number  31
_chemical_formula_structural  ZnSb2O6
_chemical_formula_sum  Zn2Sb4O2
_cell_volume  214.43131845379133
_cell_formula_units_Z  2
loop_
  _symmetry_equiv_pos_site_id
 _symmetry_equiv_pos_as_xyz
 1  'x, y, z'
loop_
 _atom_site_type_symbol
 _atom_site_label
 _atom_site_symmetry_multiplicity
 _atom_site_fract_x
 _atom_site_fract_y
 _atom_site_fract_z
 _atom_site_fract_occupancy
 O  O1  1  0.32381  0.68122  0.06646  1
 O  O2  1  0.32382  0.68119  0.43353  1
 O  O3  1  0.82381  0.81878  0.56646  1
 O  O4  1  0.61380  0.05931  0.24999  1
 O  O5  1  0.70072  0.29066  0.93102  1
 O  O6  1  0.20073  0.20937  0.06898  1
 O  O7  1  0.20072  0.20934  0.43102  1
 O  O8  1  0.82382  0.81880  0.93353  1
 O  O9  1  0.11380  0.44068  0.74999  1
 O  O10  1  0.85545  0.53836  0.24999  1
 O  O11  1  0.35545  0.96164  0.75000  1
 O  O12  1  0.70074  0.29062  0.56898  1
 Sb  Sb1  1  0.49662  0.99557  0.49859  1
 Sb  Sb2  1  0.99662  0.50441  0.50140  1
 Sb  Sb3  1  0.99663  0.50443  0.99859  1
 Sb  Sb4  1  0.49662  0.99558  0.00140  1
 Zn  Zn1  1  0.97732  0.06237  0.74998  1
 Zn  Zn2  1  0.47732  0.43763  0.24998  1
