CIF file written using JARVIS-Tools package.
data_KNdGeS4
_symmetry_space_group_name_H-M  'P2_1'
_cell_length_a       6.63
_cell_length_b       6.72376
_cell_length_c       8.5978
_cell_angle_alpha    90
_cell_angle_beta     107.865
_cell_angle_gamma    90

_symmetry_Int_Tables_number  4
_chemical_formula_structural  KNdGeS4
_chemical_formula_sum  K2Nd2Ge2S8
_cell_volume  364.79583141514104
_cell_formula_units_Z  2
loop_
  _symmetry_equiv_pos_site_id
 _symmetry_equiv_pos_as_xyz
 1  'x, y, z'
loop_
 _atom_site_type_symbol
 _atom_site_label
 _atom_site_symmetry_multiplicity
 _atom_site_fract_x
 _atom_site_fract_y
 _atom_site_fract_z
 _atom_site_fract_occupancy
 Ge  Ge1  1  0.78121  0.47338  0.68502  1
 Ge  Ge2  1  0.21879  0.97338  0.31498  1
 K  K1  1  0.73321  0.99094  0.93535  1
 K  K2  1  0.26679  0.49094  0.06465  1
 Nd  Nd1  1  0.22961  0.50301  0.55339  1
 Nd  Nd2  1  0.77039  0.00301  0.44661  1
 S  S1  1  0.58200  0.46981  0.84817  1
 S  S2  1  0.02658  0.23239  0.73075  1
 S  S3  1  0.98598  0.74427  0.71630  1
 S  S4  1  0.42048  0.91919  0.57366  1
 S  S5  1  0.57952  0.41919  0.42634  1
 S  S6  1  0.01402  0.24427  0.28370  1
 S  S7  1  0.97342  0.73239  0.26925  1
 S  S8  1  0.41800  0.96981  0.15183  1
