CIF file written using JARVIS-Tools package.
data_Ni3Bi2S2
_symmetry_space_group_name_H-M  'R-3m'
_cell_length_a       5.52324
_cell_length_b       5.52324
_cell_length_c       5.52324
_cell_angle_alpha    63.7056
_cell_angle_beta     63.7056
_cell_angle_gamma    63.7056

_symmetry_Int_Tables_number  166
_chemical_formula_structural  Ni3Bi2S2
_chemical_formula_sum  Ni3Bi2S2
_cell_volume  128.88925961235975
_cell_formula_units_Z  1
loop_
  _symmetry_equiv_pos_site_id
 _symmetry_equiv_pos_as_xyz
 1  'x, y, z'
loop_
 _atom_site_type_symbol
 _atom_site_label
 _atom_site_symmetry_multiplicity
 _atom_site_fract_x
 _atom_site_fract_y
 _atom_site_fract_z
 _atom_site_fract_occupancy
 Bi  Bi1  1  0.50000  0.50000  0.50000  1
 Bi  Bi2  1  0.00000  0.00000  0.00000  1
 Ni  Ni1  1  0.00000  -0.00000  0.50000  1
 Ni  Ni2  1  0.00000  0.50000  0.00000  1
 Ni  Ni3  1  0.50000  0.00000  -0.00000  1
 S  S1  1  0.72710  0.72710  0.72710  1
 S  S2  1  0.27290  0.27290  0.27290  1
