CIF file written using JARVIS-Tools package.
data_Ca2Cr3O8
_symmetry_space_group_name_H-M  'P6_3mc'
_cell_length_a       5.95367
_cell_length_b       5.95367
_cell_length_c       10.4328
_cell_angle_alpha    90
_cell_angle_beta     90
_cell_angle_gamma    120

_symmetry_Int_Tables_number  186
_chemical_formula_structural  Ca2Cr3O8
_chemical_formula_sum  Ca4Cr6O6
_cell_volume  320.2586081037559
_cell_formula_units_Z  2
loop_
  _symmetry_equiv_pos_site_id
 _symmetry_equiv_pos_as_xyz
 1  'x, y, z'
loop_
 _atom_site_type_symbol
 _atom_site_label
 _atom_site_symmetry_multiplicity
 _atom_site_fract_x
 _atom_site_fract_y
 _atom_site_fract_z
 _atom_site_fract_occupancy
 Ca  Ca1  1  0.66667  0.33333  0.97725  1
 Ca  Ca2  1  0.33333  0.66667  0.47725  1
 Ca  Ca3  1  0.66667  0.33333  0.56726  1
 Ca  Ca4  1  0.33333  0.66667  0.06726  1
 Cr  Cr1  1  0.16327  0.83673  0.75476  1
 Cr  Cr2  1  0.83673  0.67347  0.25476  1
 Cr  Cr3  1  0.67347  0.83673  0.75476  1
 Cr  Cr4  1  0.83673  0.16327  0.25476  1
 Cr  Cr5  1  0.16327  0.32653  0.75476  1
 Cr  Cr6  1  0.32653  0.16327  0.25476  1
 O  O1  1  0.15527  0.31055  0.34240  1
 O  O2  1  0.84473  0.68945  0.84240  1
 O  O3  1  0.68945  0.84473  0.34240  1
 O  O4  1  0.47667  0.95335  0.65378  1
 O  O5  1  0.84473  0.15527  0.84240  1
 O  O6  1  0.31055  0.15527  0.84240  1
 O  O7  1  0.15527  0.84473  0.34240  1
 O  O8  1  0.33333  0.66667  0.85315  1
 O  O9  1  0.52333  0.47667  0.15378  1
 O  O10  1  0.00000  0.00000  0.65602  1
 O  O11  1  0.00000  0.00000  0.15602  1
 O  O12  1  0.52333  0.04665  0.15378  1
 O  O13  1  0.95335  0.47667  0.15378  1
 O  O14  1  0.47667  0.52333  0.65378  1
 O  O15  1  0.04665  0.52333  0.65378  1
 O  O16  1  0.66667  0.33333  0.35315  1
