CIF file written using JARVIS-Tools package.
data_MgCrF4
_symmetry_space_group_name_H-M  'C2/c'
_cell_length_a       4.98096
_cell_length_b       5.65554
_cell_length_c       6.20855
_cell_angle_alpha    117.095
_cell_angle_beta     109.868
_cell_angle_gamma    89.9999

_symmetry_Int_Tables_number  15
_chemical_formula_structural  MgCrF4
_chemical_formula_sum  Mg2Cr2F8
_cell_volume  143.9091303383164
_cell_formula_units_Z  2
loop_
  _symmetry_equiv_pos_site_id
 _symmetry_equiv_pos_as_xyz
 1  'x, y, z'
loop_
 _atom_site_type_symbol
 _atom_site_label
 _atom_site_symmetry_multiplicity
 _atom_site_fract_x
 _atom_site_fract_y
 _atom_site_fract_z
 _atom_site_fract_occupancy
 Cr  Cr1  1  0.00192  0.50172  0.00098  1
 Cr  Cr2  1  0.50195  0.00173  0.00102  1
 F  F1  1  0.18704  0.26191  0.76557  1
 F  F2  1  0.33248  0.50386  0.29460  1
 F  F3  1  0.81679  0.74153  0.23637  1
 F  F4  1  0.83248  0.29323  0.29463  1
 F  F5  1  0.67137  0.49965  0.70740  1
 F  F6  1  0.68706  0.00617  0.76561  1
 F  F7  1  0.17137  0.71028  0.70740  1
 F  F8  1  0.31683  0.99735  0.23644  1
 Mg  Mg1  1  0.75192  0.68145  0.50099  1
 Mg  Mg2  1  0.25192  0.32208  0.50100  1
