CIF file written using JARVIS-Tools package.
data_NO2
_symmetry_space_group_name_H-M  'P2_1/c'
_cell_length_a       5.90607
_cell_length_b       4.61227
_cell_length_c       6.44185
_cell_angle_alpha    90
_cell_angle_beta     119.278
_cell_angle_gamma    90

_symmetry_Int_Tables_number  14
_chemical_formula_structural  NO2
_chemical_formula_sum  N4O8
_cell_volume  153.06225146701988
_cell_formula_units_Z  4
loop_
  _symmetry_equiv_pos_site_id
 _symmetry_equiv_pos_as_xyz
 1  'x, y, z'
loop_
 _atom_site_type_symbol
 _atom_site_label
 _atom_site_symmetry_multiplicity
 _atom_site_fract_x
 _atom_site_fract_y
 _atom_site_fract_z
 _atom_site_fract_occupancy
 N  N1  1  0.16440  0.00622  0.01841  1
 N  N2  1  0.83560  0.50622  0.48159  1
 N  N3  1  0.83560  0.99378  0.98159  1
 N  N4  1  0.16440  0.49378  0.51841  1
 O  O1  1  0.29013  0.20659  0.13897  1
 O  O2  1  0.70987  0.70659  0.36103  1
 O  O3  1  0.70987  0.79341  0.86103  1
 O  O4  1  0.29013  0.29341  0.63897  1
 O  O5  1  0.20541  0.81131  0.91697  1
 O  O6  1  0.79459  0.31131  0.58303  1
 O  O7  1  0.79459  0.18869  0.08303  1
 O  O8  1  0.20541  0.68869  0.41697  1
