CIF file written using JARVIS-Tools package.
data_BaVS3
_symmetry_space_group_name_H-M  'C222_1'
_cell_length_a       5.60672
_cell_length_b       6.75032
_cell_length_c       6.75032
_cell_angle_alpha    120.166
_cell_angle_beta     90
_cell_angle_gamma    90

_symmetry_Int_Tables_number  20
_chemical_formula_structural  BaVS3
_chemical_formula_sum  Ba2V2S6
_cell_volume  220.88126647942485
_cell_formula_units_Z  2
loop_
  _symmetry_equiv_pos_site_id
 _symmetry_equiv_pos_as_xyz
 1  'x, y, z'
loop_
 _atom_site_type_symbol
 _atom_site_label
 _atom_site_symmetry_multiplicity
 _atom_site_fract_x
 _atom_site_fract_y
 _atom_site_fract_z
 _atom_site_fract_occupancy
 Ba  Ba1  1  0.75000  0.33062  0.66938  1
 Ba  Ba2  1  0.25000  0.66938  0.33062  1
 S  S1  1  0.75000  0.83719  0.16281  1
 S  S2  1  0.25958  0.66767  0.83240  1
 S  S3  1  0.25000  0.16281  0.83719  1
 S  S4  1  0.24042  0.16760  0.33233  1
 S  S5  1  0.75958  0.33233  0.16760  1
 S  S6  1  0.74042  0.83240  0.66767  1
 V  V1  1  0.50000  0.03776  0.03776  1
 V  V2  1  0.00000  0.96224  0.96224  1
