CIF file written using JARVIS-Tools package.
data_Er5BiPt2
_symmetry_space_group_name_H-M  'I4/mcm'
_cell_length_a       7.75927
_cell_length_b       7.75927
_cell_length_c       8.67677
_cell_angle_alpha    116.56
_cell_angle_beta     116.56
_cell_angle_gamma    90

_symmetry_Int_Tables_number  140
_chemical_formula_structural  Er5BiPt2
_chemical_formula_sum  Er0Bi2Pt4
_cell_volume  404.6975035906866
_cell_formula_units_Z  2
loop_
  _symmetry_equiv_pos_site_id
 _symmetry_equiv_pos_as_xyz
 1  'x, y, z'
loop_
 _atom_site_type_symbol
 _atom_site_label
 _atom_site_symmetry_multiplicity
 _atom_site_fract_x
 _atom_site_fract_y
 _atom_site_fract_z
 _atom_site_fract_occupancy
 Bi  Bi1  1  0.25000  0.25000  0.50000  1
 Bi  Bi2  1  0.75000  0.75000  0.50000  1
 Er  Er1  1  0.00000  0.00000  0.00000  1
 Er  Er2  1  0.50000  0.50000  -0.00000  1
 Er  Er3  1  0.29073  0.79073  0.27289  1
 Er  Er4  1  0.48216  0.29073  0.27289  1
 Er  Er5  1  0.79073  0.98216  0.27289  1
 Er  Er6  1  0.51784  0.70927  0.72711  1
 Er  Er7  1  0.20927  0.01784  0.72711  1
 Er  Er8  1  0.01784  0.51784  0.72711  1
 Er  Er9  1  0.70927  0.20927  0.72711  1
 Er  Er10  1  0.98216  0.48216  0.27289  1
 Pt  Pt1  1  0.35887  0.85887  0.00000  1
 Pt  Pt2  1  0.14113  0.35887  -0.00000  1
 Pt  Pt3  1  0.85887  0.64113  0.00000  1
 Pt  Pt4  1  0.64113  0.14113  -0.00000  1
