CIF file written using JARVIS-Tools package.
data_CaBi2O4
_symmetry_space_group_name_H-M  'C2/m'
_cell_length_a       3.53686
_cell_length_b       7.11908
_cell_length_c       10.3345
_cell_angle_alpha    77.9205
_cell_angle_beta     80.1468
_cell_angle_gamma    75.6155

_symmetry_Int_Tables_number  12
_chemical_formula_structural  CaBi2O4
_chemical_formula_sum  Ca2Bi4O8
_cell_volume  244.51828383042763
_cell_formula_units_Z  2
loop_
  _symmetry_equiv_pos_site_id
 _symmetry_equiv_pos_as_xyz
 1  'x, y, z'
loop_
 _atom_site_type_symbol
 _atom_site_label
 _atom_site_symmetry_multiplicity
 _atom_site_fract_x
 _atom_site_fract_y
 _atom_site_fract_z
 _atom_site_fract_occupancy
 Bi  Bi1  1  0.60761  0.69002  0.08677  1
 Bi  Bi2  1  0.10768  0.19022  0.58659  1
 Bi  Bi3  1  0.87886  0.84284  0.39152  1
 Bi  Bi4  1  0.37885  0.34304  0.89134  1
 Ca  Ca1  1  0.24333  0.26639  0.23900  1
 Ca  Ca2  1  0.74316  0.76668  0.73912  1
 O  O1  1  0.90520  0.42672  0.75497  1
 O  O2  1  0.40530  0.92637  0.25512  1
 O  O3  1  0.58123  0.10670  0.72299  1
 O  O4  1  0.08127  0.60635  0.22314  1
 O  O5  1  0.21657  0.66284  0.89611  1
 O  O6  1  0.71668  0.16266  0.39605  1
 O  O7  1  0.76990  0.37023  0.08201  1
 O  O8  1  0.26983  0.87040  0.58207  1
