CIF file written using JARVIS-Tools package.
data_Ti6Al16Ni7
_symmetry_space_group_name_H-M  'Fm-3m'
_cell_length_a       8.37292
_cell_length_b       8.37292
_cell_length_c       8.37292
_cell_angle_alpha    60
_cell_angle_beta     60
_cell_angle_gamma    60

_symmetry_Int_Tables_number  225
_chemical_formula_structural  Ti6Al16Ni7
_chemical_formula_sum  Ti6Al6Ni7
_cell_volume  415.06537066326706
_cell_formula_units_Z  1
loop_
  _symmetry_equiv_pos_site_id
 _symmetry_equiv_pos_as_xyz
 1  'x, y, z'
loop_
 _atom_site_type_symbol
 _atom_site_label
 _atom_site_symmetry_multiplicity
 _atom_site_fract_x
 _atom_site_fract_y
 _atom_site_fract_z
 _atom_site_fract_occupancy
 Al  Al1  1  0.66178  0.01465  0.66178  1
 Al  Al2  1  0.98535  0.33822  0.33822  1
 Al  Al3  1  0.33822  0.98535  0.33822  1
 Al  Al4  1  0.66178  0.66178  0.66178  1
 Al  Al5  1  0.66178  0.66178  0.01465  1
 Al  Al6  1  0.01465  0.66178  0.66178  1
 Al  Al7  1  0.11899  0.11899  0.11899  1
 Al  Al8  1  0.11899  0.11899  0.64303  1
 Al  Al9  1  0.64303  0.11899  0.11899  1
 Al  Al10  1  0.33822  0.33822  0.98535  1
 Al  Al11  1  0.11899  0.64303  0.11899  1
 Al  Al12  1  0.88101  0.88101  0.35697  1
 Al  Al13  1  0.88101  0.35697  0.88101  1
 Al  Al14  1  0.35697  0.88101  0.88101  1
 Al  Al15  1  0.88101  0.88101  0.88101  1
 Al  Al16  1  0.33822  0.33822  0.33822  1
 Ni  Ni1  1  0.50000  0.50000  0.00000  1
 Ni  Ni2  1  0.50000  -0.00000  0.00000  1
 Ni  Ni3  1  0.00000  0.50000  0.50000  1
 Ni  Ni4  1  -0.00000  0.50000  0.00000  1
 Ni  Ni5  1  -0.00000  0.00000  0.50000  1
 Ni  Ni6  1  0.00000  0.00000  0.00000  1
 Ni  Ni7  1  0.50000  0.00000  0.50000  1
 Ti  Ti1  1  0.67972  0.67972  0.32028  1
 Ti  Ti2  1  0.67972  0.32028  0.67972  1
 Ti  Ti3  1  0.32028  0.32028  0.67972  1
 Ti  Ti4  1  0.32028  0.67972  0.32028  1
 Ti  Ti5  1  0.32028  0.67972  0.67972  1
 Ti  Ti6  1  0.67972  0.32028  0.32028  1
