CIF file written using JARVIS-Tools package.
data_BaTlCuO4
_symmetry_space_group_name_H-M  'I4/mmm'
_cell_length_a       3.7176
_cell_length_b       3.7176
_cell_length_c       16.1209
_cell_angle_alpha    96.6212
_cell_angle_beta     96.6212
_cell_angle_gamma    90

_symmetry_Int_Tables_number  139
_chemical_formula_structural  BaTlCuO4
_chemical_formula_sum  Ba2Tl2Cu2O8
_cell_volume  219.8174835886935
_cell_formula_units_Z  2
loop_
  _symmetry_equiv_pos_site_id
 _symmetry_equiv_pos_as_xyz
 1  'x, y, z'
loop_
 _atom_site_type_symbol
 _atom_site_label
 _atom_site_symmetry_multiplicity
 _atom_site_fract_x
 _atom_site_fract_y
 _atom_site_fract_z
 _atom_site_fract_occupancy
 Ba  Ba1  1  0.11780  0.11780  0.23560  1
 Ba  Ba2  1  0.88220  0.88220  0.76440  1
 Cu  Cu1  1  0.54415  0.54415  0.08830  1
 Cu  Cu2  1  0.45585  0.45585  0.91170  1
 O  O1  1  0.77849  0.77849  0.55698  1
 O  O2  1  0.94323  0.44323  0.88646  1
 O  O3  1  0.55677  0.05677  0.11354  1
 O  O4  1  0.64905  0.64905  0.29811  1
 O  O5  1  0.05677  0.55677  0.11354  1
 O  O6  1  0.44323  0.94323  0.88646  1
 O  O7  1  0.35095  0.35095  0.70189  1
 O  O8  1  0.22151  0.22151  0.44302  1
 Tl  Tl1  1  0.28742  0.28742  0.57484  1
 Tl  Tl2  1  0.71258  0.71258  0.42516  1
