CIF file written using JARVIS-Tools package.
data_MnPH2O5
_symmetry_space_group_name_H-M  'C2/c'
_cell_length_a       5.12913
_cell_length_b       5.12914
_cell_length_c       7.40508
_cell_angle_alpha    104.712
_cell_angle_beta     104.712
_cell_angle_gamma    95.8515

_symmetry_Int_Tables_number  15
_chemical_formula_structural  MnPH2O5
_chemical_formula_sum  Mn2P2H4O0
_cell_volume  179.3413091561196
_cell_formula_units_Z  2
loop_
  _symmetry_equiv_pos_site_id
 _symmetry_equiv_pos_as_xyz
 1  'x, y, z'
loop_
 _atom_site_type_symbol
 _atom_site_label
 _atom_site_symmetry_multiplicity
 _atom_site_fract_x
 _atom_site_fract_y
 _atom_site_fract_z
 _atom_site_fract_occupancy
 H  H1  1  0.88723  0.93309  0.29771  1
 H  H2  1  0.93309  0.88723  0.79771  1
 H  H3  1  0.11277  0.06691  0.70229  1
 H  H4  1  0.06691  0.11277  0.20229  1
 Mn  Mn1  1  0.50000  -0.00000  -0.00000  1
 Mn  Mn2  1  0.00000  0.50000  0.50000  1
 O  O1  1  0.90118  0.09882  0.25000  1
 O  O2  1  0.09882  0.90118  0.75000  1
 O  O3  1  0.65937  0.73756  0.84558  1
 O  O4  1  0.26244  0.34063  0.65442  1
 O  O5  1  0.34063  0.26244  0.15442  1
 O  O6  1  0.27016  0.65814  0.40477  1
 O  O7  1  0.65814  0.27016  0.90477  1
 O  O8  1  0.34186  0.72984  0.09523  1
 O  O9  1  0.72984  0.34186  0.59523  1
 O  O10  1  0.73756  0.65937  0.34558  1
 P  P1  1  0.42229  0.57771  0.25000  1
 P  P2  1  0.57771  0.42229  0.75000  1
