CIF file written using JARVIS-Tools package.
data_Ba2PrIrO6
_symmetry_space_group_name_H-M  'P4/mnc'
_cell_length_a       6.08529
_cell_length_b       6.08529
_cell_length_c       8.61399
_cell_angle_alpha    90
_cell_angle_beta     90
_cell_angle_gamma    90

_symmetry_Int_Tables_number  128
_chemical_formula_structural  Ba2PrIrO6
_chemical_formula_sum  Ba4Pr2Ir2O2
_cell_volume  318.9821407190631
_cell_formula_units_Z  2
loop_
  _symmetry_equiv_pos_site_id
 _symmetry_equiv_pos_as_xyz
 1  'x, y, z'
loop_
 _atom_site_type_symbol
 _atom_site_label
 _atom_site_symmetry_multiplicity
 _atom_site_fract_x
 _atom_site_fract_y
 _atom_site_fract_z
 _atom_site_fract_occupancy
 Ba  Ba1  1  0.50000  0.00000  0.25000  1
 Ba  Ba2  1  0.50000  0.00000  0.75000  1
 Ba  Ba3  1  0.00000  0.50000  0.75000  1
 Ba  Ba4  1  0.00000  0.50000  0.25000  1
 Ir  Ir1  1  0.50000  0.50000  0.50000  1
 Ir  Ir2  1  0.00000  0.00000  0.00000  1
 O  O1  1  0.77996  0.24001  0.00000  1
 O  O2  1  0.75999  0.77996  0.00000  1
 O  O3  1  0.00000  0.00000  0.76989  1
 O  O4  1  0.22004  0.75999  0.00000  1
 O  O5  1  0.50000  0.50000  0.26989  1
 O  O6  1  0.27996  0.25999  0.50000  1
 O  O7  1  0.25999  0.72004  0.50000  1
 O  O8  1  0.50000  0.50000  0.73011  1
 O  O9  1  0.72004  0.74001  0.50000  1
 O  O10  1  0.74001  0.27996  0.50000  1
 O  O11  1  0.00000  0.00000  0.23011  1
 O  O12  1  0.24001  0.22004  0.00000  1
 Pr  Pr1  1  0.00000  0.00000  0.50000  1
 Pr  Pr2  1  0.50000  0.50000  0.00000  1
