CIF file written using JARVIS-Tools package.
data_UFeS3
_symmetry_space_group_name_H-M  'Cmcm'
_cell_length_a       3.73235
_cell_length_b       5.7122
_cell_length_c       8.48153
_cell_angle_alpha    90
_cell_angle_beta     90
_cell_angle_gamma    109.069

_symmetry_Int_Tables_number  63
_chemical_formula_structural  UFeS3
_chemical_formula_sum  U2Fe2S6
_cell_volume  170.9036136589897
_cell_formula_units_Z  2
loop_
  _symmetry_equiv_pos_site_id
 _symmetry_equiv_pos_as_xyz
 1  'x, y, z'
loop_
 _atom_site_type_symbol
 _atom_site_label
 _atom_site_symmetry_multiplicity
 _atom_site_fract_x
 _atom_site_fract_y
 _atom_site_fract_z
 _atom_site_fract_occupancy
 Fe  Fe1  1  0.00000  0.00000  0.00000  1
 Fe  Fe2  1  0.00000  0.00000  0.50000  1
 S  S1  1  0.63661  0.27322  0.55082  1
 S  S2  1  0.36339  0.72678  0.44918  1
 S  S3  1  0.36339  0.72678  0.05082  1
 S  S4  1  0.63661  0.27322  0.94918  1
 S  S5  1  0.92139  0.84278  0.75000  1
 S  S6  1  0.07861  0.15722  0.25000  1
 U  U1  1  0.23705  0.47411  0.75000  1
 U  U2  1  0.76295  0.52589  0.25000  1
