CIF file written using JARVIS-Tools package.
data_MgSn2O4
_symmetry_space_group_name_H-M  'Imma'
_cell_length_a       6.49925
_cell_length_b       6.49925
_cell_length_c       6.34071
_cell_angle_alpha    60.8037
_cell_angle_beta     60.8037
_cell_angle_gamma    65.3551

_symmetry_Int_Tables_number  74
_chemical_formula_structural  MgSn2O4
_chemical_formula_sum  Mg2Sn4O8
_cell_volume  198.38845732367156
_cell_formula_units_Z  2
loop_
  _symmetry_equiv_pos_site_id
 _symmetry_equiv_pos_as_xyz
 1  'x, y, z'
loop_
 _atom_site_type_symbol
 _atom_site_label
 _atom_site_symmetry_multiplicity
 _atom_site_fract_x
 _atom_site_fract_y
 _atom_site_fract_z
 _atom_site_fract_occupancy
 Mg  Mg1  1  0.12500  0.62500  0.62500  1
 Mg  Mg2  1  0.62500  0.12500  0.62500  1
 O  O1  1  0.39023  0.39023  0.38278  1
 O  O2  1  0.41188  0.80679  0.39067  1
 O  O3  1  0.39023  0.39023  0.83676  1
 O  O4  1  0.80679  0.41188  0.39067  1
 O  O5  1  0.44321  0.83812  0.85933  1
 O  O6  1  0.83812  0.44321  0.85933  1
 O  O7  1  0.85977  0.85977  0.41324  1
 O  O8  1  0.85977  0.85977  0.86722  1
 Sn  Sn1  1  0.01197  0.01197  0.98803  1
 Sn  Sn2  1  0.23803  0.23803  0.26197  1
 Sn  Sn3  1  0.62500  0.62500  0.12500  1
 Sn  Sn4  1  0.62500  0.62500  0.62500  1
