CIF file written using JARVIS-Tools package.
data_CaSn2O5
_symmetry_space_group_name_H-M  'Pmmn'
_cell_length_a       3.73149
_cell_length_b       5.10543
_cell_length_c       11.5085
_cell_angle_alpha    90.0289
_cell_angle_beta     90.0003
_cell_angle_gamma    89.9993

_symmetry_Int_Tables_number  59
_chemical_formula_structural  CaSn2O5
_chemical_formula_sum  Ca2Sn4O0
_cell_volume  219.2464293654089
_cell_formula_units_Z  2
loop_
  _symmetry_equiv_pos_site_id
 _symmetry_equiv_pos_as_xyz
 1  'x, y, z'
loop_
 _atom_site_type_symbol
 _atom_site_label
 _atom_site_symmetry_multiplicity
 _atom_site_fract_x
 _atom_site_fract_y
 _atom_site_fract_z
 _atom_site_fract_occupancy
 Ca  Ca1  1  0.25214  0.77817  0.75021  1
 Ca  Ca2  1  0.75213  0.22503  0.25025  1
 O  O1  1  0.25213  0.54237  0.25030  1
 O  O2  1  0.75213  0.46084  0.75016  1
 O  O3  1  0.25215  0.49255  0.92336  1
 O  O4  1  0.75214  0.51062  0.07709  1
 O  O5  1  0.25212  0.49243  0.57709  1
 O  O6  1  0.75211  0.51082  0.42337  1
 O  O7  1  0.75209  -0.06406  0.61517  1
 O  O8  1  0.25208  0.06730  0.38531  1
 O  O9  1  0.25216  0.06707  0.11541  1
 O  O10  1  0.75218  -0.06390  0.88508  1
 Sn  Sn1  1  0.75216  0.30995  0.91510  1
 Sn  Sn2  1  0.25214  0.69323  0.08535  1
 Sn  Sn3  1  0.25211  0.69348  0.41530  1
 Sn  Sn4  1  0.75212  0.30975  0.58515  1
