CIF file written using JARVIS-Tools package.
data_LiIO3
_symmetry_space_group_name_H-M  'P6_3'
_cell_length_a       5.45602
_cell_length_b       5.45602
_cell_length_c       5.10375
_cell_angle_alpha    90
_cell_angle_beta     90
_cell_angle_gamma    120

_symmetry_Int_Tables_number  173
_chemical_formula_structural  LiIO3
_chemical_formula_sum  Li2I2O6
_cell_volume  131.57465368452281
_cell_formula_units_Z  2
loop_
  _symmetry_equiv_pos_site_id
 _symmetry_equiv_pos_as_xyz
 1  'x, y, z'
loop_
 _atom_site_type_symbol
 _atom_site_label
 _atom_site_symmetry_multiplicity
 _atom_site_fract_x
 _atom_site_fract_y
 _atom_site_fract_z
 _atom_site_fract_occupancy
 I  I1  1  0.33333  0.66667  0.50787  1
 I  I2  1  0.66667  0.33333  0.00787  1
 Li  Li1  1  0.00000  0.00000  0.07420  1
 Li  Li2  1  0.00000  0.00000  0.57420  1
 O  O1  1  0.08222  0.74265  0.33621  1
 O  O2  1  0.91778  0.25735  0.83621  1
 O  O3  1  0.33957  0.08222  0.83621  1
 O  O4  1  0.25735  0.33957  0.33621  1
 O  O5  1  0.74265  0.66043  0.83621  1
 O  O6  1  0.66043  0.91778  0.33621  1
