CIF file written using JARVIS-Tools package.
data_Sm2O3
_symmetry_space_group_name_H-M  'C2/m'
_cell_length_a       3.62328
_cell_length_b       7.36826
_cell_length_c       8.88691
_cell_angle_alpha    99.6179
_cell_angle_beta     90
_cell_angle_gamma    104.233

_symmetry_Int_Tables_number  12
_chemical_formula_structural  Sm2O3
_chemical_formula_sum  Sm6O9
_cell_volume  226.531226018563
_cell_formula_units_Z  3
loop_
  _symmetry_equiv_pos_site_id
 _symmetry_equiv_pos_as_xyz
 1  'x, y, z'
loop_
 _atom_site_type_symbol
 _atom_site_label
 _atom_site_symmetry_multiplicity
 _atom_site_fract_x
 _atom_site_fract_y
 _atom_site_fract_z
 _atom_site_fract_occupancy
 O  O1  1  0.50000  0.00000  0.00000  1
 O  O2  1  0.52703  0.05406  0.65570  1
 O  O3  1  0.47297  0.94594  0.34430  1
 O  O4  1  0.20375  0.40750  0.62597  1
 O  O5  1  0.79625  0.59250  0.37403  1
 O  O6  1  0.17519  0.35038  0.97184  1
 O  O7  1  0.12886  0.25772  0.28468  1
 O  O8  1  0.87114  0.74228  0.71532  1
 O  O9  1  0.82481  0.64962  0.02816  1
 Sm  Sm1  1  0.03364  0.06728  0.81212  1
 Sm  Sm2  1  0.96636  0.93272  0.18788  1
 Sm  Sm3  1  0.30971  0.61943  0.86225  1
 Sm  Sm4  1  0.69029  0.38057  0.13775  1
 Sm  Sm5  1  0.36514  0.73028  0.51193  1
 Sm  Sm6  1  0.63486  0.26972  0.48807  1
