CIF file written using JARVIS-Tools package.
data_BiO2
_symmetry_space_group_name_H-M  'Imma'
_cell_length_a       6.65968
_cell_length_b       7.03382
_cell_length_c       7.03368
_cell_angle_alpha    90.4825
_cell_angle_beta     118.251
_cell_angle_gamma    118.252

_symmetry_Int_Tables_number  74
_chemical_formula_structural  BiO2
_chemical_formula_sum  Bi4O8
_cell_volume  243.91297287783544
_cell_formula_units_Z  4
loop_
  _symmetry_equiv_pos_site_id
 _symmetry_equiv_pos_as_xyz
 1  'x, y, z'
loop_
 _atom_site_type_symbol
 _atom_site_label
 _atom_site_symmetry_multiplicity
 _atom_site_fract_x
 _atom_site_fract_y
 _atom_site_fract_z
 _atom_site_fract_occupancy
 Bi  Bi1  1  0.49997  0.00002  0.49997  1
 Bi  Bi2  1  0.50007  0.00010  0.00002  1
 Bi  Bi3  1  0.99992  0.99993  0.49997  1
 Bi  Bi4  1  0.00011  0.50002  0.50010  1
 O  O1  1  0.44863  0.18922  0.70817  1
 O  O2  1  0.47852  0.78788  0.71220  1
 O  O3  1  0.02154  0.78779  0.71219  1
 O  O4  1  0.05126  0.79170  0.31078  1
 O  O5  1  0.94867  0.20816  0.68922  1
 O  O6  1  0.97844  0.21212  0.28779  1
 O  O7  1  0.52164  0.21230  0.28789  1
 O  O8  1  0.55122  0.81079  0.29169  1
