CIF file written using JARVIS-Tools package.
data_FeW2O8
_symmetry_space_group_name_H-M  'P2/c'
_cell_length_a       4.89813
_cell_length_b       5.78641
_cell_length_c       10.1805
_cell_angle_alpha    90
_cell_angle_beta     117.265
_cell_angle_gamma    90

_symmetry_Int_Tables_number  13
_chemical_formula_structural  FeW2O8
_chemical_formula_sum  Fe2W4O6
_cell_volume  256.48218574119505
_cell_formula_units_Z  2
loop_
  _symmetry_equiv_pos_site_id
 _symmetry_equiv_pos_as_xyz
 1  'x, y, z'
loop_
 _atom_site_type_symbol
 _atom_site_label
 _atom_site_symmetry_multiplicity
 _atom_site_fract_x
 _atom_site_fract_y
 _atom_site_fract_z
 _atom_site_fract_occupancy
 Fe  Fe1  1  0.50000  0.33174  0.25000  1
 Fe  Fe2  1  0.50000  0.66826  0.75000  1
 O  O1  1  0.70369  0.34055  0.14045  1
 O  O2  1  0.29631  0.34055  0.35955  1
 O  O3  1  0.29631  0.65945  0.85955  1
 O  O4  1  0.70369  0.65945  0.64045  1
 O  O5  1  0.32420  0.88622  0.38386  1
 O  O6  1  0.81123  0.89358  0.89058  1
 O  O7  1  0.18877  0.89358  0.60942  1
 O  O8  1  0.18877  0.10642  0.10942  1
 O  O9  1  0.23939  0.59036  0.12268  1
 O  O10  1  0.76061  0.59036  0.37732  1
 O  O11  1  0.76061  0.40964  0.87732  1
 O  O12  1  0.23939  0.40964  0.62268  1
 O  O13  1  0.67580  0.88622  0.11614  1
 O  O14  1  0.32420  0.11378  0.88386  1
 O  O15  1  0.81123  0.10642  0.39058  1
 O  O16  1  0.67580  0.11378  0.61614  1
 W  W1  1  0.27359  0.82094  0.01418  1
 W  W2  1  0.72641  0.82094  0.48582  1
 W  W3  1  0.72641  0.17906  0.98582  1
 W  W4  1  0.27359  0.17906  0.51418  1
