CIF file written using JARVIS-Tools package.
data_SbI3
_symmetry_space_group_name_H-M  'R-3'
_cell_length_a       8.13709
_cell_length_b       8.13709
_cell_length_c       8.13709
_cell_angle_alpha    54.6193
_cell_angle_beta     54.6194
_cell_angle_gamma    54.6194

_symmetry_Int_Tables_number  148
_chemical_formula_structural  SbI3
_chemical_formula_sum  Sb2I6
_cell_volume  333.2041706934351
_cell_formula_units_Z  2
loop_
  _symmetry_equiv_pos_site_id
 _symmetry_equiv_pos_as_xyz
 1  'x, y, z'
loop_
 _atom_site_type_symbol
 _atom_site_label
 _atom_site_symmetry_multiplicity
 _atom_site_fract_x
 _atom_site_fract_y
 _atom_site_fract_z
 _atom_site_fract_occupancy
 I  I1  1  0.41623  0.07721  0.74744  1
 I  I2  1  0.74744  0.41623  0.07721  1
 I  I3  1  0.07721  0.74744  0.41623  1
 I  I4  1  0.58377  0.92279  0.25256  1
 I  I5  1  0.25256  0.58377  0.92279  1
 I  I6  1  0.92279  0.25256  0.58377  1
 Sb  Sb1  1  0.16748  0.16748  0.16748  1
 Sb  Sb2  1  0.83252  0.83252  0.83252  1
