CIF file written using JARVIS-Tools package.
data_Co3O4F2
_symmetry_space_group_name_H-M  'Cm'
_cell_length_a       7.07021
_cell_length_b       5.28161
_cell_length_c       5.28161
_cell_angle_alpha    69.1791
_cell_angle_beta     70.8876
_cell_angle_gamma    70.8876

_symmetry_Int_Tables_number  8
_chemical_formula_structural  Co3O4F2
_chemical_formula_sum  Co6O8F4
_cell_volume  169.13970789639177
_cell_formula_units_Z  2
loop_
  _symmetry_equiv_pos_site_id
 _symmetry_equiv_pos_as_xyz
 1  'x, y, z'
loop_
 _atom_site_type_symbol
 _atom_site_label
 _atom_site_symmetry_multiplicity
 _atom_site_fract_x
 _atom_site_fract_y
 _atom_site_fract_z
 _atom_site_fract_occupancy
 Co  Co1  1  0.84654  0.67360  0.67360  1
 Co  Co2  1  0.31787  0.65736  0.65736  1
 Co  Co3  1  0.65197  0.33865  0.33865  1
 Co  Co4  1  0.17727  0.33816  0.33816  1
 Co  Co5  1  0.49736  0.99722  0.99722  1
 Co  Co6  1  0.99769  0.98966  0.98966  1
 F  F1  1  0.63221  0.57761  0.57761  1
 F  F2  1  0.96421  0.23199  0.23199  1
 F  F3  1  0.69112  0.09770  0.09770  1
 F  F4  1  0.30864  0.89365  0.89365  1
 O  O1  1  0.33390  0.96935  0.36180  1
 O  O2  1  0.36624  0.43554  0.43554  1
 O  O3  1  0.66895  0.03438  0.63886  1
 O  O4  1  0.33390  0.36180  0.96935  1
 O  O5  1  0.03803  0.76517  0.76517  1
 O  O6  1  0.00258  0.30271  0.69657  1
 O  O7  1  0.00258  0.69657  0.30271  1
 O  O8  1  0.66895  0.63886  0.03438  1
