CIF file written using JARVIS-Tools package.
data_ZnNiF4
_symmetry_space_group_name_H-M  'P-1'
_cell_length_a       4.95998
_cell_length_b       5.4709
_cell_length_c       6.22802
_cell_angle_alpha    106.962
_cell_angle_beta     120.139
_cell_angle_gamma    89.9136

_symmetry_Int_Tables_number  2
_chemical_formula_structural  ZnNiF4
_chemical_formula_sum  Zn2Ni2F8
_cell_volume  137.63119055822511
_cell_formula_units_Z  2
loop_
  _symmetry_equiv_pos_site_id
 _symmetry_equiv_pos_as_xyz
 1  'x, y, z'
loop_
 _atom_site_type_symbol
 _atom_site_label
 _atom_site_symmetry_multiplicity
 _atom_site_fract_x
 _atom_site_fract_y
 _atom_site_fract_z
 _atom_site_fract_occupancy
 F  F1  1  0.09760  0.17507  0.76877  1
 F  F2  1  0.43935  0.52235  0.25381  1
 F  F3  1  0.90299  0.82823  0.23028  1
 F  F4  1  0.89387  0.29175  0.18495  1
 F  F5  1  0.56137  0.48085  0.74525  1
 F  F6  1  0.50616  -0.05440  0.68326  1
 F  F7  1  0.10687  0.71156  0.81415  1
 F  F8  1  0.49437  0.05755  0.31578  1
 Ni  Ni1  1  0.00037  0.50170  -0.00042  1
 Ni  Ni2  1  0.50033  0.00170  -0.00044  1
 Zn  Zn1  1  0.76663  0.81393  0.51952  1
 Zn  Zn2  1  0.23397  0.18931  0.47960  1
