CIF file written using JARVIS-Tools package.
data_MnZn2SbO6
_symmetry_space_group_name_H-M  'P2_1/m'
_cell_length_a       5.27683
_cell_length_b       7.6576
_cell_length_c       5.31298
_cell_angle_alpha    90
_cell_angle_beta     93.4261
_cell_angle_gamma    90

_symmetry_Int_Tables_number  11
_chemical_formula_structural  MnZn2SbO6
_chemical_formula_sum  Mn2Zn4Sb2O2
_cell_volume  214.30266965445503
_cell_formula_units_Z  2
loop_
  _symmetry_equiv_pos_site_id
 _symmetry_equiv_pos_as_xyz
 1  'x, y, z'
loop_
 _atom_site_type_symbol
 _atom_site_label
 _atom_site_symmetry_multiplicity
 _atom_site_fract_x
 _atom_site_fract_y
 _atom_site_fract_z
 _atom_site_fract_occupancy
 Mn  Mn1  1  -0.00000  0.50000  0.50000  1
 Mn  Mn2  1  -0.00000  0.00000  0.50000  1
 O  O1  1  0.68067  0.56399  0.33154  1
 O  O2  1  0.41172  0.25000  0.12961  1
 O  O3  1  0.31933  0.06399  0.66846  1
 O  O4  1  0.81074  0.42931  0.83864  1
 O  O5  1  0.18926  0.92931  0.16136  1
 O  O6  1  0.81074  0.07069  0.83864  1
 O  O7  1  0.58828  0.75000  0.87039  1
 O  O8  1  0.68067  0.93601  0.33154  1
 O  O9  1  0.92180  0.25000  0.39935  1
 O  O10  1  0.31933  0.43601  0.66846  1
 O  O11  1  0.18926  0.57069  0.16136  1
 O  O12  1  0.07820  0.75000  0.60065  1
 Sb  Sb1  1  0.50000  0.00000  0.00000  1
 Sb  Sb2  1  0.50000  0.50000  0.00000  1
 Zn  Zn1  1  0.98548  0.75000  0.96153  1
 Zn  Zn2  1  0.01452  0.25000  0.03847  1
 Zn  Zn3  1  0.44707  0.75000  0.48078  1
 Zn  Zn4  1  0.55293  0.25000  0.51922  1
