CIF file written using JARVIS-Tools package.
data_MgNiGe2O6
_symmetry_space_group_name_H-M  'C2/c'
_cell_length_a       5.19789
_cell_length_b       6.58072
_cell_length_c       6.58072
_cell_angle_alpha    85.4563
_cell_angle_beta     82.4115
_cell_angle_gamma    82.4115

_symmetry_Int_Tables_number  15
_chemical_formula_structural  MgNiGe2O6
_chemical_formula_sum  Mg2Ni2Ge4O2
_cell_volume  220.73598384438918
_cell_formula_units_Z  2
loop_
  _symmetry_equiv_pos_site_id
 _symmetry_equiv_pos_as_xyz
 1  'x, y, z'
loop_
 _atom_site_type_symbol
 _atom_site_label
 _atom_site_symmetry_multiplicity
 _atom_site_fract_x
 _atom_site_fract_y
 _atom_site_fract_z
 _atom_site_fract_occupancy
 Ge  Ge1  1  0.79523  0.39716  0.20560  1
 Ge  Ge2  1  0.70477  0.79440  0.60284  1
 Ge  Ge3  1  0.20477  0.60284  0.79440  1
 Ge  Ge4  1  0.29523  0.20560  0.39716  1
 Mg  Mg1  1  0.75000  0.26665  0.73335  1
 Mg  Mg2  1  0.25000  0.73335  0.26665  1
 Ni  Ni1  1  0.75000  0.90932  0.09068  1
 Ni  Ni2  1  0.25000  0.09068  0.90932  1
 O  O1  1  0.60559  0.29127  0.43571  1
 O  O2  1  0.12808  0.79499  0.97534  1
 O  O3  1  0.39441  0.70873  0.56429  1
 O  O4  1  0.10559  0.43571  0.29127  1
 O  O5  1  0.89441  0.56429  0.70873  1
 O  O6  1  0.87192  0.20501  0.02466  1
 O  O7  1  0.88268  0.86353  0.37062  1
 O  O8  1  0.61732  0.62938  0.13647  1
 O  O9  1  0.11732  0.13647  0.62938  1
 O  O10  1  0.62808  0.97534  0.79499  1
 O  O11  1  0.38268  0.37062  0.86353  1
 O  O12  1  0.37192  0.02466  0.20501  1
