CIF file written using JARVIS-Tools package.
data_SmDy2S4
_symmetry_space_group_name_H-M  'I-42d'
_cell_length_a       7.28911
_cell_length_b       7.28911
_cell_length_c       7.28911
_cell_angle_alpha    107.799
_cell_angle_beta     112.871
_cell_angle_gamma    107.799

_symmetry_Int_Tables_number  122
_chemical_formula_structural  SmDy2S4
_chemical_formula_sum  Sm2Dy4S8
_cell_volume  297.3353471881343
_cell_formula_units_Z  2
loop_
  _symmetry_equiv_pos_site_id
 _symmetry_equiv_pos_as_xyz
 1  'x, y, z'
loop_
 _atom_site_type_symbol
 _atom_site_label
 _atom_site_symmetry_multiplicity
 _atom_site_fract_x
 _atom_site_fract_y
 _atom_site_fract_z
 _atom_site_fract_occupancy
 Dy  Dy1  1  0.25000  0.66290  0.41290  1
 Dy  Dy2  1  0.75000  0.83710  0.08710  1
 Dy  Dy3  1  0.58710  0.33710  0.25000  1
 Dy  Dy4  1  0.91290  0.16290  0.75000  1
 S  S1  1  0.99257  0.86404  0.49970  1
 S  S2  1  -0.00030  0.36404  0.49257  1
 S  S3  1  0.12854  0.13596  0.13567  1
 S  S4  1  0.37146  0.50713  0.00743  1
 S  S5  1  0.63567  0.63596  0.62854  1
 S  S6  1  0.50743  0.00713  0.87146  1
 S  S7  1  0.50030  0.99287  0.36433  1
 S  S8  1  0.86433  0.49287  0.00030  1
 Sm  Sm1  1  0.12500  0.75000  0.87500  1
 Sm  Sm2  1  0.37500  0.25000  0.62500  1
