CIF file written using JARVIS-Tools package.
data_CaSb2O6
_symmetry_space_group_name_H-M  'Pmn2_1'
_cell_length_a       5.40282
_cell_length_b       5.55186
_cell_length_c       7.74291
_cell_angle_alpha    90.0004
_cell_angle_beta     89.9998
_cell_angle_gamma    89.9994

_symmetry_Int_Tables_number  31
_chemical_formula_structural  CaSb2O6
_chemical_formula_sum  Ca2Sb4O2
_cell_volume  232.25437159681056
_cell_formula_units_Z  2
loop_
  _symmetry_equiv_pos_site_id
 _symmetry_equiv_pos_as_xyz
 1  'x, y, z'
loop_
 _atom_site_type_symbol
 _atom_site_label
 _atom_site_symmetry_multiplicity
 _atom_site_fract_x
 _atom_site_fract_y
 _atom_site_fract_z
 _atom_site_fract_occupancy
 Ca  Ca1  1  0.48435  0.43746  0.24999  1
 Ca  Ca2  1  0.98435  0.06253  0.74999  1
 O  O1  1  0.30506  0.69603  0.44789  1
 O  O2  1  0.80506  0.80396  0.55210  1
 O  O3  1  0.59009  0.02411  0.24999  1
 O  O4  1  0.70449  0.29111  0.95579  1
 O  O5  1  0.20449  0.20889  0.04420  1
 O  O6  1  0.20449  0.20889  0.45579  1
 O  O7  1  0.80506  0.80397  0.94789  1
 O  O8  1  0.30506  0.69603  0.05210  1
 O  O9  1  0.89996  0.52233  0.24999  1
 O  O10  1  0.39996  0.97766  0.74999  1
 O  O11  1  0.70449  0.29111  0.54420  1
 O  O12  1  0.09009  0.47588  0.74999  1
 Sb  Sb1  1  0.49770  0.99123  0.49946  1
 Sb  Sb2  1  0.99770  0.50876  0.50052  1
 Sb  Sb3  1  0.99770  0.50876  0.99946  1
 Sb  Sb4  1  0.49770  0.99123  0.00052  1
