CIF file written using JARVIS-Tools package.
data_KLi2Mn2O4
_symmetry_space_group_name_H-M  'P2_1/m'
_cell_length_a       3.24758
_cell_length_b       12.4931
_cell_length_c       5.40787
_cell_angle_alpha    90
_cell_angle_beta     93.7876
_cell_angle_gamma    90

_symmetry_Int_Tables_number  11
_chemical_formula_structural  KLi2Mn2O4
_chemical_formula_sum  K2Li4Mn4O8
_cell_volume  218.93124740282877
_cell_formula_units_Z  2
loop_
  _symmetry_equiv_pos_site_id
 _symmetry_equiv_pos_as_xyz
 1  'x, y, z'
loop_
 _atom_site_type_symbol
 _atom_site_label
 _atom_site_symmetry_multiplicity
 _atom_site_fract_x
 _atom_site_fract_y
 _atom_site_fract_z
 _atom_site_fract_occupancy
 K  K1  1  0.94457  0.25000  0.34915  1
 K  K2  1  0.05543  0.75000  0.65085  1
 Li  Li1  1  0.53229  0.64362  0.14246  1
 Li  Li2  1  0.53229  0.85638  0.14246  1
 Li  Li3  1  0.46771  0.35638  0.85754  1
 Li  Li4  1  0.46771  0.14362  0.85754  1
 Mn  Mn1  1  0.00000  0.00000  0.00000  1
 Mn  Mn2  1  0.00000  0.50000  0.00000  1
 Mn  Mn3  1  0.50000  0.50000  0.50000  1
 Mn  Mn4  1  0.50000  0.00000  0.50000  1
 O  O1  1  0.42203  0.08892  0.17100  1
 O  O2  1  0.95784  0.09984  0.71861  1
 O  O3  1  0.04216  0.59984  0.28139  1
 O  O4  1  0.04216  0.90016  0.28139  1
 O  O5  1  0.57797  0.58892  0.82900  1
 O  O6  1  0.57797  0.91108  0.82900  1
 O  O7  1  0.42203  0.41108  0.17100  1
 O  O8  1  0.95784  0.40016  0.71861  1
