CIF file written using JARVIS-Tools package.
data_Mn2GeO4
_symmetry_space_group_name_H-M  'Pbam'
_cell_length_a       2.98328
_cell_length_b       5.28636
_cell_length_c       9.38017
_cell_angle_alpha    90
_cell_angle_beta     90
_cell_angle_gamma    90

_symmetry_Int_Tables_number  55
_chemical_formula_structural  Mn2GeO4
_chemical_formula_sum  Mn4Ge2O8
_cell_volume  147.93182003827508
_cell_formula_units_Z  2
loop_
  _symmetry_equiv_pos_site_id
 _symmetry_equiv_pos_as_xyz
 1  'x, y, z'
loop_
 _atom_site_type_symbol
 _atom_site_label
 _atom_site_symmetry_multiplicity
 _atom_site_fract_x
 _atom_site_fract_y
 _atom_site_fract_z
 _atom_site_fract_occupancy
 Ge  Ge1  1  0.00000  0.50000  0.50000  1
 Ge  Ge2  1  0.00000  0.00000  0.00000  1
 Mn  Mn1  1  0.50000  0.44084  0.82455  1
 Mn  Mn2  1  0.50000  0.55916  0.17545  1
 Mn  Mn3  1  0.50000  0.94084  0.67545  1
 Mn  Mn4  1  0.50000  0.05916  0.32455  1
 O  O1  1  0.00000  0.13257  0.81158  1
 O  O2  1  0.00000  0.86743  0.18842  1
 O  O3  1  0.00000  0.63257  0.68842  1
 O  O4  1  0.00000  0.36743  0.31158  1
 O  O5  1  0.50000  0.26705  0.54321  1
 O  O6  1  0.50000  0.73295  0.45679  1
 O  O7  1  0.50000  0.23295  0.04321  1
 O  O8  1  0.50000  0.76705  0.95679  1
