CIF file written using JARVIS-Tools package.
data_ScFeSi
_symmetry_space_group_name_H-M  'Pnma'
_cell_length_a       4.07057
_cell_length_b       6.54405
_cell_length_c       6.62748
_cell_angle_alpha    90
_cell_angle_beta     90
_cell_angle_gamma    90

_symmetry_Int_Tables_number  62
_chemical_formula_structural  ScFeSi
_chemical_formula_sum  Sc4Fe4Si4
_cell_volume  176.54316412242068
_cell_formula_units_Z  4
loop_
  _symmetry_equiv_pos_site_id
 _symmetry_equiv_pos_as_xyz
 1  'x, y, z'
loop_
 _atom_site_type_symbol
 _atom_site_label
 _atom_site_symmetry_multiplicity
 _atom_site_fract_x
 _atom_site_fract_y
 _atom_site_fract_z
 _atom_site_fract_occupancy
 Fe  Fe1  1  0.25000  0.65323  0.56202  1
 Fe  Fe2  1  0.25000  0.15323  0.93798  1
 Fe  Fe3  1  0.75000  0.84677  0.06202  1
 Fe  Fe4  1  0.75000  0.34677  0.43798  1
 Sc  Sc1  1  0.75000  0.51507  0.80885  1
 Sc  Sc2  1  0.25000  0.98493  0.30885  1
 Sc  Sc3  1  0.75000  0.01507  0.69115  1
 Sc  Sc4  1  0.25000  0.48493  0.19115  1
 Si  Si1  1  0.25000  0.79920  0.89202  1
 Si  Si2  1  0.25000  0.29920  0.60798  1
 Si  Si3  1  0.75000  0.20080  0.10798  1
 Si  Si4  1  0.75000  0.70080  0.39202  1
