CIF file written using JARVIS-Tools package.
data_Ca2Mo3O8
_symmetry_space_group_name_H-M  'P6_3mc'
_cell_length_a       6.39772
_cell_length_b       6.39772
_cell_length_c       10.0824
_cell_angle_alpha    90
_cell_angle_beta     90
_cell_angle_gamma    120

_symmetry_Int_Tables_number  186
_chemical_formula_structural  Ca2Mo3O8
_chemical_formula_sum  Ca4Mo6O6
_cell_volume  357.3913440632645
_cell_formula_units_Z  2
loop_
  _symmetry_equiv_pos_site_id
 _symmetry_equiv_pos_as_xyz
 1  'x, y, z'
loop_
 _atom_site_type_symbol
 _atom_site_label
 _atom_site_symmetry_multiplicity
 _atom_site_fract_x
 _atom_site_fract_y
 _atom_site_fract_z
 _atom_site_fract_occupancy
 Ca  Ca1  1  0.66667  0.33333  0.97423  1
 Ca  Ca2  1  0.33333  0.66667  0.47423  1
 Ca  Ca3  1  0.66667  0.33333  0.59214  1
 Ca  Ca4  1  0.33333  0.66667  0.09214  1
 Mo  Mo1  1  0.16284  0.83716  0.75737  1
 Mo  Mo2  1  0.83716  0.67432  0.25737  1
 Mo  Mo3  1  0.67432  0.83716  0.75737  1
 Mo  Mo4  1  0.83716  0.16284  0.25737  1
 Mo  Mo5  1  0.16284  0.32568  0.75737  1
 Mo  Mo6  1  0.32568  0.16284  0.25737  1
 O  O1  1  0.16488  0.32977  0.33823  1
 O  O2  1  0.83512  0.67023  0.83823  1
 O  O3  1  0.67023  0.83512  0.33823  1
 O  O4  1  0.47265  0.94530  0.64662  1
 O  O5  1  0.83512  0.16488  0.83823  1
 O  O6  1  0.32977  0.16488  0.83823  1
 O  O7  1  0.16488  0.83512  0.33823  1
 O  O8  1  0.33333  0.66667  0.86279  1
 O  O9  1  0.52735  0.47265  0.14662  1
 O  O10  1  0.00000  0.00000  0.65068  1
 O  O11  1  0.00000  0.00000  0.15068  1
 O  O12  1  0.52735  0.05470  0.14662  1
 O  O13  1  0.94530  0.47265  0.14662  1
 O  O14  1  0.47265  0.52735  0.64662  1
 O  O15  1  0.05470  0.52735  0.64662  1
 O  O16  1  0.66667  0.33333  0.36279  1
