CIF file written using JARVIS-Tools package.
data_SnO2
_symmetry_space_group_name_H-M  'Fd-3m'
_cell_length_a       6.38052
_cell_length_b       6.38056
_cell_length_c       6.38055
_cell_angle_alpha    59.9988
_cell_angle_beta     60.0015
_cell_angle_gamma    59.9969

_symmetry_Int_Tables_number  227
_chemical_formula_structural  SnO2
_chemical_formula_sum  Sn4O8
_cell_volume  183.67473227199505
_cell_formula_units_Z  4
loop_
  _symmetry_equiv_pos_site_id
 _symmetry_equiv_pos_as_xyz
 1  'x, y, z'
loop_
 _atom_site_type_symbol
 _atom_site_label
 _atom_site_symmetry_multiplicity
 _atom_site_fract_x
 _atom_site_fract_y
 _atom_site_fract_z
 _atom_site_fract_occupancy
 O  O1  1  0.26572  0.26575  0.26580  1
 O  O2  1  0.70274  0.26573  0.26575  1
 O  O3  1  0.26577  0.70274  0.26571  1
 O  O4  1  0.26577  0.26578  0.70273  1
 O  O5  1  0.73426  0.73428  0.29726  1
 O  O6  1  0.73427  0.29725  0.73423  1
 O  O7  1  0.29726  0.73423  0.73422  1
 O  O8  1  0.73421  0.73425  0.73429  1
 Sn  Sn1  1  0.49996  -0.00000  0.50005  1
 Sn  Sn2  1  0.49998  0.49996  0.00000  1
 Sn  Sn3  1  -0.00000  0.50004  0.50002  1
 Sn  Sn4  1  0.50006  0.50001  0.49994  1
