CIF file written using JARVIS-Tools package.
data_MgMo2O5
_symmetry_space_group_name_H-M  'Cmcm'
_cell_length_a       3.80729
_cell_length_b       5.53593
_cell_length_c       11.0782
_cell_angle_alpha    90
_cell_angle_beta     90
_cell_angle_gamma    110.115

_symmetry_Int_Tables_number  63
_chemical_formula_structural  MgMo2O5
_chemical_formula_sum  Mg2Mo4O0
_cell_volume  219.25186887403478
_cell_formula_units_Z  2
loop_
  _symmetry_equiv_pos_site_id
 _symmetry_equiv_pos_as_xyz
 1  'x, y, z'
loop_
 _atom_site_type_symbol
 _atom_site_label
 _atom_site_symmetry_multiplicity
 _atom_site_fract_x
 _atom_site_fract_y
 _atom_site_fract_z
 _atom_site_fract_occupancy
 Mg  Mg1  1  0.86764  0.73455  0.75000  1
 Mg  Mg2  1  0.13236  0.26545  0.25000  1
 Mo  Mo1  1  0.17786  0.35525  0.59554  1
 Mo  Mo2  1  0.82214  0.64475  0.40446  1
 Mo  Mo3  1  0.82214  0.64475  0.09554  1
 Mo  Mo4  1  0.17786  0.35525  0.90446  1
 O  O1  1  0.70632  0.41348  0.25000  1
 O  O2  1  0.29368  0.58652  0.75000  1
 O  O3  1  0.24709  0.49475  0.07912  1
 O  O4  1  0.75291  0.50525  0.92088  1
 O  O5  1  0.75291  0.50525  0.57912  1
 O  O6  1  0.24709  0.49475  0.42088  1
 O  O7  1  0.01475  0.02861  0.62650  1
 O  O8  1  0.98525  0.97139  0.37350  1
 O  O9  1  0.01475  0.02861  0.87350  1
 O  O10  1  0.98525  0.97139  0.12651  1
