CIF file written using JARVIS-Tools package.
data_MgVO2
_symmetry_space_group_name_H-M  'C2/m'
_cell_length_a       2.87557
_cell_length_b       8.63613
_cell_length_c       8.28341
_cell_angle_alpha    101.252
_cell_angle_beta     100.003
_cell_angle_gamma    99.5785

_symmetry_Int_Tables_number  12
_chemical_formula_structural  MgVO2
_chemical_formula_sum  Mg4V4O8
_cell_volume  194.3691747753009
_cell_formula_units_Z  4
loop_
  _symmetry_equiv_pos_site_id
 _symmetry_equiv_pos_as_xyz
 1  'x, y, z'
loop_
 _atom_site_type_symbol
 _atom_site_label
 _atom_site_symmetry_multiplicity
 _atom_site_fract_x
 _atom_site_fract_y
 _atom_site_fract_z
 _atom_site_fract_occupancy
 Mg  Mg1  1  0.58920  0.96063  0.21807  1
 Mg  Mg2  1  0.43484  0.05945  0.81013  1
 Mg  Mg3  1  0.26935  0.32852  0.21005  1
 Mg  Mg4  1  0.75471  0.69158  0.81816  1
 O  O1  1  0.44573  0.22656  0.66498  1
 O  O2  1  0.20701  0.54368  0.87051  1
 O  O3  1  0.81704  0.47640  0.15769  1
 O  O4  1  0.57832  0.79352  0.36321  1
 O  O5  1  0.80318  0.88857  0.71771  1
 O  O6  1  0.94143  0.81099  0.07217  1
 O  O7  1  0.22086  0.13151  0.31049  1
 O  O8  1  0.08262  0.20909  0.95603  1
 V  V1  1  0.16152  0.79373  0.52928  1
 V  V2  1  0.38811  0.64543  0.13096  1
 V  V3  1  0.63594  0.37465  0.89724  1
 V  V4  1  0.86253  0.22635  0.49892  1
