CIF file written using JARVIS-Tools package.
data_MgSb2O4
_symmetry_space_group_name_H-M  'Imma'
_cell_length_a       6.54934
_cell_length_b       6.54934
_cell_length_c       7.11915
_cell_angle_alpha    57.0777
_cell_angle_beta     57.0778
_cell_angle_gamma    56.8038

_symmetry_Int_Tables_number  74
_chemical_formula_structural  MgSb2O4
_chemical_formula_sum  Mg2Sb4O8
_cell_volume  200.9189721037079
_cell_formula_units_Z  2
loop_
  _symmetry_equiv_pos_site_id
 _symmetry_equiv_pos_as_xyz
 1  'x, y, z'
loop_
 _atom_site_type_symbol
 _atom_site_label
 _atom_site_symmetry_multiplicity
 _atom_site_fract_x
 _atom_site_fract_y
 _atom_site_fract_z
 _atom_site_fract_occupancy
 Mg  Mg1  1  0.12500  0.62500  0.62500  1
 Mg  Mg2  1  0.62500  0.12500  0.62500  1
 O  O1  1  0.37906  0.37906  0.42165  1
 O  O2  1  0.36924  0.87411  0.37833  1
 O  O3  1  0.37906  0.37906  0.82023  1
 O  O4  1  0.87411  0.36924  0.37833  1
 O  O5  1  0.37589  0.88076  0.87167  1
 O  O6  1  0.88076  0.37589  0.87167  1
 O  O7  1  0.87094  0.87094  0.42977  1
 O  O8  1  0.87094  0.87094  0.82835  1
 Sb  Sb1  1  0.97642  0.97642  0.02358  1
 Sb  Sb2  1  0.27358  0.27358  0.22642  1
 Sb  Sb3  1  0.62500  0.62500  0.12500  1
 Sb  Sb4  1  0.62500  0.62500  0.62500  1
