CIF file written using JARVIS-Tools package.
data_Ca2Fe3O8
_symmetry_space_group_name_H-M  'P6_3mc'
_cell_length_a       5.83268
_cell_length_b       5.83268
_cell_length_c       10.463
_cell_angle_alpha    90
_cell_angle_beta     90
_cell_angle_gamma    120

_symmetry_Int_Tables_number  186
_chemical_formula_structural  Ca2Fe3O8
_chemical_formula_sum  Ca4Fe6O6
_cell_volume  308.2646526831733
_cell_formula_units_Z  2
loop_
  _symmetry_equiv_pos_site_id
 _symmetry_equiv_pos_as_xyz
 1  'x, y, z'
loop_
 _atom_site_type_symbol
 _atom_site_label
 _atom_site_symmetry_multiplicity
 _atom_site_fract_x
 _atom_site_fract_y
 _atom_site_fract_z
 _atom_site_fract_occupancy
 Ca  Ca1  1  0.33333  0.66667  0.02344  1
 Ca  Ca2  1  0.66667  0.33333  0.52344  1
 Ca  Ca3  1  0.33333  0.66667  0.44004  1
 Ca  Ca4  1  0.66667  0.33333  0.94004  1
 Fe  Fe1  1  0.83645  0.16355  0.24640  1
 Fe  Fe2  1  0.67289  0.83645  0.74640  1
 Fe  Fe3  1  0.83645  0.67289  0.24640  1
 Fe  Fe4  1  0.16355  0.83645  0.74640  1
 Fe  Fe5  1  0.32711  0.16355  0.24640  1
 Fe  Fe6  1  0.16355  0.32711  0.74640  1
 O  O1  1  0.30402  0.15201  0.65416  1
 O  O2  1  0.69598  0.84799  0.15416  1
 O  O3  1  0.84799  0.69598  0.65416  1
 O  O4  1  0.95872  0.47936  0.34456  1
 O  O5  1  0.15201  0.84799  0.15416  1
 O  O6  1  0.15201  0.30402  0.15416  1
 O  O7  1  0.84799  0.15201  0.65416  1
 O  O8  1  0.66667  0.33333  0.15428  1
 O  O9  1  0.47936  0.52064  0.84456  1
 O  O10  1  0.00000  0.00000  0.34039  1
 O  O11  1  0.00000  0.00000  0.84039  1
 O  O12  1  0.04128  0.52064  0.84456  1
 O  O13  1  0.47936  0.95872  0.84456  1
 O  O14  1  0.52064  0.47936  0.34456  1
 O  O15  1  0.52064  0.04128  0.34456  1
 O  O16  1  0.33333  0.66667  0.65428  1
