CIF file written using JARVIS-Tools package.
data_HfCuSn
_symmetry_space_group_name_H-M  'P6_3mc'
_cell_length_a       4.48232
_cell_length_b       4.48232
_cell_length_c       6.43934
_cell_angle_alpha    90
_cell_angle_beta     90
_cell_angle_gamma    120

_symmetry_Int_Tables_number  186
_chemical_formula_structural  HfCuSn
_chemical_formula_sum  Hf2Cu2Sn2
_cell_volume  112.04096499554987
_cell_formula_units_Z  2
loop_
  _symmetry_equiv_pos_site_id
 _symmetry_equiv_pos_as_xyz
 1  'x, y, z'
loop_
 _atom_site_type_symbol
 _atom_site_label
 _atom_site_symmetry_multiplicity
 _atom_site_fract_x
 _atom_site_fract_y
 _atom_site_fract_z
 _atom_site_fract_occupancy
 Cu  Cu1  1  0.66667  0.33333  0.18795  1
 Cu  Cu2  1  0.33333  0.66667  0.68795  1
 Hf  Hf1  1  0.00000  0.00000  0.50449  1
 Hf  Hf2  1  0.00000  0.00000  0.00449  1
 Sn  Sn1  1  0.66667  0.33333  0.75936  1
 Sn  Sn2  1  0.33333  0.66667  0.25936  1
