CIF file written using JARVIS-Tools package.
data_LiV2Si2O8
_symmetry_space_group_name_H-M  'P222_1'
_cell_length_a       5.68
_cell_length_b       5.72915
_cell_length_c       7.93724
_cell_angle_alpha    90
_cell_angle_beta     90
_cell_angle_gamma    90

_symmetry_Int_Tables_number  17
_chemical_formula_structural  LiV2Si2O8
_chemical_formula_sum  Li2V4Si4O6
_cell_volume  258.2906628824743
_cell_formula_units_Z  2
loop_
  _symmetry_equiv_pos_site_id
 _symmetry_equiv_pos_as_xyz
 1  'x, y, z'
loop_
 _atom_site_type_symbol
 _atom_site_label
 _atom_site_symmetry_multiplicity
 _atom_site_fract_x
 _atom_site_fract_y
 _atom_site_fract_z
 _atom_site_fract_occupancy
 Li  Li1  1  0.68574  0.50000  0.25000  1
 Li  Li2  1  0.31426  0.50000  0.75000  1
 O  O1  1  0.99622  0.23738  0.75182  1
 O  O2  1  0.99622  0.76262  0.74818  1
 O  O3  1  0.00378  0.23738  0.24818  1
 O  O4  1  0.77116  0.99178  0.00522  1
 O  O5  1  0.76983  0.48644  0.51028  1
 O  O6  1  0.76983  0.51356  0.98972  1
 O  O7  1  0.77116  0.00822  0.49478  1
 O  O8  1  0.51484  0.76683  0.77227  1
 O  O9  1  0.48516  0.76683  0.22773  1
 O  O10  1  0.23017  0.48644  0.48972  1
 O  O11  1  0.23017  0.51356  0.01028  1
 O  O12  1  0.22884  0.99178  0.99478  1
 O  O13  1  0.22884  0.00822  0.50522  1
 O  O14  1  0.48517  0.23317  0.27227  1
 O  O15  1  0.51483  0.23317  0.72773  1
 O  O16  1  0.00378  0.76262  0.25182  1
 Si  Si1  1  0.76114  0.75570  0.87886  1
 Si  Si2  1  0.76114  0.24430  0.62113  1
 Si  Si3  1  0.23886  0.24430  0.37887  1
 Si  Si4  1  0.23886  0.75570  0.12114  1
 V  V1  1  0.27861  0.00000  0.75000  1
 V  V2  1  0.72139  0.00000  0.25000  1
 V  V3  1  0.00000  0.72651  0.50000  1
 V  V4  1  0.00000  0.27349  0.00000  1
