CIF file written using JARVIS-Tools package.
data_ThAl8Cr4
_symmetry_space_group_name_H-M  'I4/mmm'
_cell_length_a       5.0372
_cell_length_b       6.86246
_cell_length_c       6.86246
_cell_angle_alpha    82.2589
_cell_angle_beta     68.4685
_cell_angle_gamma    68.4686

_symmetry_Int_Tables_number  139
_chemical_formula_structural  ThAl8Cr4
_chemical_formula_sum  ThAl8Cr4
_cell_volume  205.26593762836018
_cell_formula_units_Z  1
loop_
  _symmetry_equiv_pos_site_id
 _symmetry_equiv_pos_as_xyz
 1  'x, y, z'
loop_
 _atom_site_type_symbol
 _atom_site_label
 _atom_site_symmetry_multiplicity
 _atom_site_fract_x
 _atom_site_fract_y
 _atom_site_fract_z
 _atom_site_fract_occupancy
 Al  Al1  1  0.72595  0.77405  0.77405  1
 Al  Al2  1  0.50000  0.22595  0.77405  1
 Al  Al3  1  0.50000  0.77405  0.22595  1
 Al  Al4  1  0.27405  0.22595  0.22595  1
 Al  Al5  1  0.65586  0.34414  0.34414  1
 Al  Al6  1  0.34414  0.65586  0.65586  1
 Al  Al7  1  0.00000  0.34414  0.65586  1
 Al  Al8  1  -0.00000  0.65586  0.34414  1
 Cr  Cr1  1  -0.00000  0.00000  0.50000  1
 Cr  Cr2  1  0.50000  0.50000  -0.00000  1
 Cr  Cr3  1  0.00000  0.50000  -0.00000  1
 Cr  Cr4  1  0.50000  0.00000  0.50000  1
 Th  Th1  1  0.00000  0.00000  0.00000  1
