CIF file written using JARVIS-Tools package.
data_BeC2N2
_symmetry_space_group_name_H-M  'P4_2nm'
_cell_length_a       5.35124
_cell_length_b       5.35124
_cell_length_c       5.36236
_cell_angle_alpha    90
_cell_angle_beta     90
_cell_angle_gamma    90

_symmetry_Int_Tables_number  102
_chemical_formula_structural  BeC2N2
_chemical_formula_sum  Be2C4N4
_cell_volume  153.55510710233276
_cell_formula_units_Z  2
loop_
  _symmetry_equiv_pos_site_id
 _symmetry_equiv_pos_as_xyz
 1  'x, y, z'
loop_
 _atom_site_type_symbol
 _atom_site_label
 _atom_site_symmetry_multiplicity
 _atom_site_fract_x
 _atom_site_fract_y
 _atom_site_fract_z
 _atom_site_fract_occupancy
 Be  Be1  1  0.50000  0.50000  0.24422  1
 Be  Be2  1  0.00000  0.00000  0.74422  1
 C  C1  1  0.30734  0.30734  0.43875  1
 C  C2  1  0.69266  0.69266  0.43875  1
 C  C3  1  0.80734  0.19266  0.93875  1
 C  C4  1  0.19266  0.80734  0.93875  1
 N  N1  1  0.31775  0.68225  0.06414  1
 N  N2  1  0.68225  0.31775  0.06414  1
 N  N3  1  0.81775  0.81775  0.56414  1
 N  N4  1  0.18225  0.18225  0.56414  1
