CIF file written using JARVIS-Tools package.
data_HfAu2
_symmetry_space_group_name_H-M  'I4/mmm'
_cell_length_a       3.57104
_cell_length_b       3.57104
_cell_length_c       5.04836
_cell_angle_alpha    110.713
_cell_angle_beta     110.713
_cell_angle_gamma    90

_symmetry_Int_Tables_number  139
_chemical_formula_structural  HfAu2
_chemical_formula_sum  HfAu2
_cell_volume  55.746431982176624
_cell_formula_units_Z  1
loop_
  _symmetry_equiv_pos_site_id
 _symmetry_equiv_pos_as_xyz
 1  'x, y, z'
loop_
 _atom_site_type_symbol
 _atom_site_label
 _atom_site_symmetry_multiplicity
 _atom_site_fract_x
 _atom_site_fract_y
 _atom_site_fract_z
 _atom_site_fract_occupancy
 Au  Au1  1  0.66643  0.66643  0.33287  1
 Au  Au2  1  0.33357  0.33357  0.66713  1
 Hf  Hf1  1  0.00000  0.00000  0.00000  1
