CIF file written using JARVIS-Tools package.
data_MoWS4
_symmetry_space_group_name_H-M  'P-3m1'
_cell_length_a       3.1929
_cell_length_b       3.19292
_cell_length_c       25.0089
_cell_angle_alpha    90.0206
_cell_angle_beta     90
_cell_angle_gamma    120

_symmetry_Int_Tables_number  164
_chemical_formula_structural  MoWS4
_chemical_formula_sum  Mo2W2S8
_cell_volume  220.7998031316866
_cell_formula_units_Z  2
loop_
  _symmetry_equiv_pos_site_id
 _symmetry_equiv_pos_as_xyz
 1  'x, y, z'
loop_
 _atom_site_type_symbol
 _atom_site_label
 _atom_site_symmetry_multiplicity
 _atom_site_fract_x
 _atom_site_fract_y
 _atom_site_fract_z
 _atom_site_fract_occupancy
 Mo  Mo1  1  0.33325  0.66650  0.00046  1
 Mo  Mo2  1  0.66675  0.33350  0.75100  1
 S  S1  1  0.33336  0.66672  0.31347  1
 S  S2  1  0.33353  0.66707  0.81363  1
 S  S3  1  0.66647  0.33293  -0.06217  1
 S  S4  1  0.66664  0.33328  0.43799  1
 S  S5  1  0.66670  0.33341  0.06309  1
 S  S6  1  0.66688  0.33376  0.56398  1
 S  S7  1  0.33312  0.66624  0.18748  1
 S  S8  1  0.33330  0.66659  0.68837  1
 W  W1  1  0.33342  0.66684  0.50098  1
 W  W2  1  0.66658  0.33316  0.25047  1
