CIF file written using JARVIS-Tools package.
data_MgSbO3
_symmetry_space_group_name_H-M  'P2_1/m'
_cell_length_a       5.531
_cell_length_b       7.92392
_cell_length_c       5.54835
_cell_angle_alpha    90
_cell_angle_beta     91.8749
_cell_angle_gamma    90

_symmetry_Int_Tables_number  11
_chemical_formula_structural  MgSbO3
_chemical_formula_sum  Mg4Sb4O2
_cell_volume  243.03848776801624
_cell_formula_units_Z  4
loop_
  _symmetry_equiv_pos_site_id
 _symmetry_equiv_pos_as_xyz
 1  'x, y, z'
loop_
 _atom_site_type_symbol
 _atom_site_label
 _atom_site_symmetry_multiplicity
 _atom_site_fract_x
 _atom_site_fract_y
 _atom_site_fract_z
 _atom_site_fract_occupancy
 Mg  Mg1  1  0.51129  0.25000  0.53273  1
 Mg  Mg2  1  0.48871  0.75000  0.46727  1
 Mg  Mg3  1  0.97784  0.25000  0.02507  1
 Mg  Mg4  1  0.02216  0.75000  0.97493  1
 O  O1  1  0.68871  0.57087  0.64629  1
 O  O2  1  0.86099  0.25000  0.39934  1
 O  O3  1  0.31129  0.07087  0.35371  1
 O  O4  1  0.13640  0.43087  0.81958  1
 O  O5  1  0.86360  0.93087  0.18042  1
 O  O6  1  0.13640  0.06913  0.81958  1
 O  O7  1  0.13901  0.75000  0.60066  1
 O  O8  1  0.63981  0.25000  0.88078  1
 O  O9  1  0.86360  0.56913  0.18042  1
 O  O10  1  0.31129  0.42913  0.35371  1
 O  O11  1  0.68871  0.92913  0.64629  1
 O  O12  1  0.36019  0.75000  0.11922  1
 Sb  Sb1  1  0.00000  0.00000  0.50000  1
 Sb  Sb2  1  0.00000  0.50000  0.50000  1
 Sb  Sb3  1  0.50000  0.00000  -0.00000  1
 Sb  Sb4  1  0.50000  0.50000  -0.00000  1
