CIF file written using JARVIS-Tools package.
data_BiCl3
_symmetry_space_group_name_H-M  'Pnma'
_cell_length_a       6.30128
_cell_length_b       7.49735
_cell_length_c       8.8525
_cell_angle_alpha    90
_cell_angle_beta     90
_cell_angle_gamma    90

_symmetry_Int_Tables_number  62
_chemical_formula_structural  BiCl3
_chemical_formula_sum  Bi4Cl2
_cell_volume  418.2179910017799
_cell_formula_units_Z  4
loop_
  _symmetry_equiv_pos_site_id
 _symmetry_equiv_pos_as_xyz
 1  'x, y, z'
loop_
 _atom_site_type_symbol
 _atom_site_label
 _atom_site_symmetry_multiplicity
 _atom_site_fract_x
 _atom_site_fract_y
 _atom_site_fract_z
 _atom_site_fract_occupancy
 Bi  Bi1  1  0.51412  0.57772  0.24938  1
 Bi  Bi2  1  0.48588  0.42228  0.74938  1
 Bi  Bi3  1  -0.01412  0.07772  0.24938  1
 Bi  Bi4  1  0.01412  0.92228  0.74938  1
 Cl  Cl1  1  0.64544  0.32347  0.06163  1
 Cl  Cl2  1  0.35456  0.67653  0.56163  1
 Cl  Cl3  1  0.85456  0.82347  0.06163  1
 Cl  Cl4  1  0.14544  0.17653  0.56163  1
 Cl  Cl5  1  0.63253  0.04216  0.74977  1
 Cl  Cl6  1  0.36747  0.95784  0.24977  1
 Cl  Cl7  1  0.86747  0.54216  0.74977  1
 Cl  Cl8  1  0.13253  0.45784  0.24977  1
 Cl  Cl9  1  0.14540  0.17620  0.93782  1
 Cl  Cl10  1  0.85460  0.82380  0.43782  1
 Cl  Cl11  1  0.35460  0.67620  0.93782  1
 Cl  Cl12  1  0.64540  0.32380  0.43782  1
