CIF file written using JARVIS-Tools package.
data_Ag2SnHgSe4
_symmetry_space_group_name_H-M  'Pmn2_1'
_cell_length_a       7.15394
_cell_length_b       7.49295
_cell_length_c       8.53994
_cell_angle_alpha    90
_cell_angle_beta     90
_cell_angle_gamma    90

_symmetry_Int_Tables_number  31
_chemical_formula_structural  Ag2SnHgSe4
_chemical_formula_sum  Ag4Sn2Hg2Se8
_cell_volume  457.77572520829824
_cell_formula_units_Z  2
loop_
  _symmetry_equiv_pos_site_id
 _symmetry_equiv_pos_as_xyz
 1  'x, y, z'
loop_
 _atom_site_type_symbol
 _atom_site_label
 _atom_site_symmetry_multiplicity
 _atom_site_fract_x
 _atom_site_fract_y
 _atom_site_fract_z
 _atom_site_fract_occupancy
 Ag  Ag1  1  0.49742  0.82141  0.74508  1
 Ag  Ag2  1  0.99742  0.17859  0.24508  1
 Ag  Ag3  1  0.99742  0.17859  0.75492  1
 Ag  Ag4  1  0.49742  0.82141  0.25492  1
 Hg  Hg1  1  0.97054  0.64911  0.50000  1
 Hg  Hg2  1  0.47054  0.35089  0.00000  1
 Se  Se1  1  0.35450  0.65654  0.50000  1
 Se  Se2  1  0.85450  0.34346  0.00000  1
 Se  Se3  1  0.84132  0.31419  0.50000  1
 Se  Se4  1  0.34132  0.68581  0.00000  1
 Se  Se5  1  0.86292  0.84340  0.75586  1
 Se  Se6  1  0.86292  0.84340  0.24414  1
 Se  Se7  1  0.36292  0.15660  0.25586  1
 Se  Se8  1  0.36292  0.15660  0.74414  1
 Sn  Sn1  1  0.47797  0.33289  0.50000  1
 Sn  Sn2  1  0.97797  0.66711  0.00000  1
