CIF file written using JARVIS-Tools package.
data_ThCoSi
_symmetry_space_group_name_H-M  'I4_1md'
_cell_length_a       4.12049
_cell_length_b       4.12049
_cell_length_c       7.46802
_cell_angle_alpha    106.014
_cell_angle_beta     106.014
_cell_angle_gamma    90

_symmetry_Int_Tables_number  109
_chemical_formula_structural  ThCoSi
_chemical_formula_sum  Th2Co2Si2
_cell_volume  116.74726254333227
_cell_formula_units_Z  2
loop_
  _symmetry_equiv_pos_site_id
 _symmetry_equiv_pos_as_xyz
 1  'x, y, z'
loop_
 _atom_site_type_symbol
 _atom_site_label
 _atom_site_symmetry_multiplicity
 _atom_site_fract_x
 _atom_site_fract_y
 _atom_site_fract_z
 _atom_site_fract_occupancy
 Co  Co1  1  0.17027  0.17027  0.34054  1
 Co  Co2  1  0.42027  0.92027  0.84054  1
 Si  Si1  1  0.99932  0.99932  0.99865  1
 Si  Si2  1  0.24932  0.74932  0.49865  1
 Th  Th1  1  0.57741  0.57741  0.15481  1
 Th  Th2  1  0.82741  0.32741  0.65481  1
