CIF file written using JARVIS-Tools package.
data_K4ZnAs2
_symmetry_space_group_name_H-M  'R-3m'
_cell_length_a       9.56299
_cell_length_b       9.56298
_cell_length_c       9.56299
_cell_angle_alpha    34.6944
_cell_angle_beta     34.6944
_cell_angle_gamma    34.6944

_symmetry_Int_Tables_number  166
_chemical_formula_structural  K4ZnAs2
_chemical_formula_sum  K4ZnAs2
_cell_volume  252.8582296307228
_cell_formula_units_Z  1
loop_
  _symmetry_equiv_pos_site_id
 _symmetry_equiv_pos_as_xyz
 1  'x, y, z'
loop_
 _atom_site_type_symbol
 _atom_site_label
 _atom_site_symmetry_multiplicity
 _atom_site_fract_x
 _atom_site_fract_y
 _atom_site_fract_z
 _atom_site_fract_occupancy
 As  As1  1  0.08615  0.08615  0.08615  1
 As  As2  1  0.91385  0.91385  0.91385  1
 K  K1  1  0.38366  0.38366  0.38366  1
 K  K2  1  0.20849  0.20849  0.20849  1
 K  K3  1  0.79151  0.79151  0.79151  1
 K  K4  1  0.61634  0.61634  0.61634  1
 Zn  Zn1  1  0.00000  0.00000  0.00000  1
