CIF file written using JARVIS-Tools package.
data_BaBOF3
_symmetry_space_group_name_H-M  'Pnma'
_cell_length_a       5.12952
_cell_length_b       6.86306
_cell_length_c       9.24967
_cell_angle_alpha    90
_cell_angle_beta     90
_cell_angle_gamma    90

_symmetry_Int_Tables_number  62
_chemical_formula_structural  BaBOF3
_chemical_formula_sum  Ba4B4O4F2
_cell_volume  325.62691230986377
_cell_formula_units_Z  4
loop_
  _symmetry_equiv_pos_site_id
 _symmetry_equiv_pos_as_xyz
 1  'x, y, z'
loop_
 _atom_site_type_symbol
 _atom_site_label
 _atom_site_symmetry_multiplicity
 _atom_site_fract_x
 _atom_site_fract_y
 _atom_site_fract_z
 _atom_site_fract_occupancy
 B  B1  1  0.25000  0.82472  0.57826  1
 B  B2  1  0.75000  0.17528  0.42174  1
 B  B3  1  0.75000  0.32472  0.92174  1
 B  B4  1  0.25000  0.67528  0.07826  1
 Ba  Ba1  1  0.25000  0.32792  0.69119  1
 Ba  Ba2  1  0.75000  0.67208  0.30881  1
 Ba  Ba3  1  0.75000  0.82792  0.80881  1
 Ba  Ba4  1  0.25000  0.17208  0.19119  1
 F  F1  1  0.02471  0.81628  0.07004  1
 F  F2  1  0.02471  0.68372  0.57004  1
 F  F3  1  0.47529  0.81628  0.07004  1
 F  F4  1  0.97529  0.18372  0.92996  1
 F  F5  1  0.52471  0.31628  0.42996  1
 F  F6  1  0.25000  0.91432  0.43556  1
 F  F7  1  0.75000  0.08568  0.56444  1
 F  F8  1  0.47529  0.68372  0.57004  1
 F  F9  1  0.25000  0.58568  0.93556  1
 F  F10  1  0.97529  0.31628  0.42996  1
 F  F11  1  0.52471  0.18372  0.92996  1
 F  F12  1  0.75000  0.41432  0.06444  1
 O  O1  1  0.75000  0.43631  0.80222  1
 O  O2  1  0.25000  0.56369  0.19778  1
 O  O3  1  0.25000  0.93631  0.69778  1
 O  O4  1  0.75000  0.06369  0.30222  1
