CIF file written using JARVIS-Tools package.
data_ZnB4O7
_symmetry_space_group_name_H-M  'Cmcm'
_cell_length_a       5.2071
_cell_length_b       6.34336
_cell_length_c       6.34336
_cell_angle_alpha    118.187
_cell_angle_beta     90
_cell_angle_gamma    90

_symmetry_Int_Tables_number  63
_chemical_formula_structural  ZnB4O7
_chemical_formula_sum  Zn2B8O4
_cell_volume  184.67770336907927
_cell_formula_units_Z  2
loop_
  _symmetry_equiv_pos_site_id
 _symmetry_equiv_pos_as_xyz
 1  'x, y, z'
loop_
 _atom_site_type_symbol
 _atom_site_label
 _atom_site_symmetry_multiplicity
 _atom_site_fract_x
 _atom_site_fract_y
 _atom_site_fract_z
 _atom_site_fract_occupancy
 B  B1  1  0.50000  0.29757  0.70243  1
 B  B2  1  0.00000  0.70243  0.29757  1
 B  B3  1  0.00000  0.29757  0.70243  1
 B  B4  1  0.25000  0.92594  0.69110  1
 B  B5  1  0.25000  0.69110  0.92594  1
 B  B6  1  0.50000  0.70243  0.29757  1
 B  B7  1  0.75000  0.30890  0.07406  1
 B  B8  1  0.75000  0.07406  0.30890  1
 O  O1  1  0.25000  0.19605  0.75515  1
 O  O2  1  0.25000  0.92188  0.92188  1
 O  O3  1  0.75000  0.24485  0.80395  1
 O  O4  1  0.75000  0.07812  0.07812  1
 O  O5  1  0.02302  0.81107  0.55476  1
 O  O6  1  0.47698  0.55476  0.81107  1
 O  O7  1  0.97698  0.18893  0.44524  1
 O  O8  1  0.47698  0.81107  0.55476  1
 O  O9  1  0.97698  0.44524  0.18893  1
 O  O10  1  0.75000  0.80395  0.24485  1
 O  O11  1  0.02302  0.55476  0.81107  1
 O  O12  1  0.25000  0.75515  0.19605  1
 O  O13  1  0.52302  0.44524  0.18893  1
 O  O14  1  0.52302  0.18893  0.44524  1
 Zn  Zn1  1  0.25000  0.23518  0.23518  1
 Zn  Zn2  1  0.75000  0.76482  0.76482  1
