CIF file written using JARVIS-Tools package.
data_MgSn2O5
_symmetry_space_group_name_H-M  'P2_1/m'
_cell_length_a       3.19289
_cell_length_b       5.1574
_cell_length_c       12.5613
_cell_angle_alpha    93.9939
_cell_angle_beta     90.0031
_cell_angle_gamma    90.0024

_symmetry_Int_Tables_number  11
_chemical_formula_structural  MgSn2O5
_chemical_formula_sum  Mg2Sn4O0
_cell_volume  206.3444551683715
_cell_formula_units_Z  2
loop_
  _symmetry_equiv_pos_site_id
 _symmetry_equiv_pos_as_xyz
 1  'x, y, z'
loop_
 _atom_site_type_symbol
 _atom_site_label
 _atom_site_symmetry_multiplicity
 _atom_site_fract_x
 _atom_site_fract_y
 _atom_site_fract_z
 _atom_site_fract_occupancy
 Mg  Mg1  1  0.25062  0.86054  0.73462  1
 Mg  Mg2  1  0.75061  0.14033  0.26559  1
 O  O1  1  0.25061  0.38344  0.25212  1
 O  O2  1  0.75060  0.61744  0.74810  1
 O  O3  1  0.25053  0.65427  0.94252  1
 O  O4  1  0.75053  0.34660  0.05770  1
 O  O5  1  0.25066  0.64218  0.56886  1
 O  O6  1  0.75063  0.35870  0.43136  1
 O  O7  1  0.25065  0.14646  0.62826  1
 O  O8  1  -0.24933  0.85442  0.37196  1
 O  O9  1  0.75059  0.83609  0.15512  1
 O  O10  1  0.25047  0.16479  0.84510  1
 Sn  Sn1  1  0.75050  0.40468  0.89148  1
 Sn  Sn2  1  0.25056  0.59619  0.10873  1
 Sn  Sn3  1  0.25065  0.61837  0.39943  1
 Sn  Sn4  1  0.75066  0.38251  0.60079  1
