CIF file written using JARVIS-Tools package.
data_ZnFeF4
_symmetry_space_group_name_H-M  'Cc'
_cell_length_a       5.08163
_cell_length_b       5.25421
_cell_length_c       6.17503
_cell_angle_alpha    115.177
_cell_angle_beta     110.93
_cell_angle_gamma    89.9956

_symmetry_Int_Tables_number  9
_chemical_formula_structural  ZnFeF4
_chemical_formula_sum  Zn2Fe2F8
_cell_volume  137.094965421342
_cell_formula_units_Z  2
loop_
  _symmetry_equiv_pos_site_id
 _symmetry_equiv_pos_as_xyz
 1  'x, y, z'
loop_
 _atom_site_type_symbol
 _atom_site_label
 _atom_site_symmetry_multiplicity
 _atom_site_fract_x
 _atom_site_fract_y
 _atom_site_fract_z
 _atom_site_fract_occupancy
 F  F1  1  0.36641  0.82417  0.26399  1
 F  F2  1  0.17985  0.54711  0.77116  1
 F  F3  1  0.68462  0.20360  0.70839  1
 F  F4  1  0.67992  0.72477  0.77125  1
 F  F5  1  0.76698  0.42414  0.21613  1
 F  F6  1  0.86643  0.94041  0.26402  1
 F  F7  1  0.26698  0.29261  0.21612  1
 F  F8  1  0.18466  0.00550  0.70845  1
 Fe  Fe1  1  -0.01487  0.53105  0.01889  1
 Fe  Fe2  1  0.48518  -0.01148  0.01895  1
 Zn  Zn1  1  0.26534  0.22139  0.50950  1
 Zn  Zn2  1  0.76541  0.78874  0.50955  1
