CIF file written using JARVIS-Tools package.
data_NbSe2
_symmetry_space_group_name_H-M  'P6_3/mmc'
_cell_length_a       6.98126
_cell_length_b       6.98126
_cell_length_c       12.6916
_cell_angle_alpha    90
_cell_angle_beta     90
_cell_angle_gamma    120

_symmetry_Int_Tables_number  194
_chemical_formula_structural  NbSe2
_chemical_formula_sum  Nb8Se6
_cell_volume  535.6934897657744
_cell_formula_units_Z  8
loop_
  _symmetry_equiv_pos_site_id
 _symmetry_equiv_pos_as_xyz
 1  'x, y, z'
loop_
 _atom_site_type_symbol
 _atom_site_label
 _atom_site_symmetry_multiplicity
 _atom_site_fract_x
 _atom_site_fract_y
 _atom_site_fract_z
 _atom_site_fract_occupancy
 Nb  Nb1  1  0.00021  0.50011  0.25000  1
 Nb  Nb2  1  0.99979  0.49989  0.75000  1
 Nb  Nb3  1  0.50011  0.00021  0.75000  1
 Nb  Nb4  1  0.49989  0.50011  0.25000  1
 Nb  Nb5  1  0.50011  0.49989  0.75000  1
 Nb  Nb6  1  0.00000  0.00000  0.25000  1
 Nb  Nb7  1  0.49989  0.99979  0.25000  1
 Nb  Nb8  1  0.00000  0.00000  0.75000  1
 Se  Se1  1  0.66669  0.83335  0.11745  1
 Se  Se2  1  0.66669  0.83335  0.38255  1
 Se  Se3  1  0.83335  0.66669  0.88255  1
 Se  Se4  1  0.16665  0.83335  0.11745  1
 Se  Se5  1  0.83335  0.66669  0.61745  1
 Se  Se6  1  0.16665  0.33331  0.11745  1
 Se  Se7  1  0.83335  0.16665  0.61745  1
 Se  Se8  1  0.33333  0.66667  0.88244  1
 Se  Se9  1  0.66667  0.33333  0.38244  1
 Se  Se10  1  0.33331  0.16665  0.88255  1
 Se  Se11  1  0.33331  0.16665  0.61745  1
 Se  Se12  1  0.33333  0.66667  0.61756  1
 Se  Se13  1  0.83335  0.16665  0.88255  1
 Se  Se14  1  0.16665  0.83335  0.38255  1
 Se  Se15  1  0.16665  0.33331  0.38255  1
 Se  Se16  1  0.66667  0.33333  0.11756  1
