CIF file written using JARVIS-Tools package.
data_ZnSn2O4
_symmetry_space_group_name_H-M  'Imma'
_cell_length_a       6.49094
_cell_length_b       6.49094
_cell_length_c       6.36174
_cell_angle_alpha    60.6562
_cell_angle_beta     60.6562
_cell_angle_gamma    67.3102

_symmetry_Int_Tables_number  74
_chemical_formula_structural  ZnSn2O4
_chemical_formula_sum  Zn2Sn4O8
_cell_volume  199.8932334598608
_cell_formula_units_Z  2
loop_
  _symmetry_equiv_pos_site_id
 _symmetry_equiv_pos_as_xyz
 1  'x, y, z'
loop_
 _atom_site_type_symbol
 _atom_site_label
 _atom_site_symmetry_multiplicity
 _atom_site_fract_x
 _atom_site_fract_y
 _atom_site_fract_z
 _atom_site_fract_occupancy
 O  O1  1  0.38733  0.38733  0.37755  1
 O  O2  1  0.41430  0.80188  0.39191  1
 O  O3  1  0.38733  0.38733  0.84779  1
 O  O4  1  0.80188  0.41430  0.39191  1
 O  O5  1  0.44812  0.83570  0.85809  1
 O  O6  1  0.83570  0.44812  0.85809  1
 O  O7  1  0.86267  0.86267  0.40221  1
 O  O8  1  0.86267  0.86267  0.87245  1
 Sn  Sn1  1  0.02051  0.02051  0.97949  1
 Sn  Sn2  1  0.22949  0.22949  0.27051  1
 Sn  Sn3  1  0.62500  0.62500  0.12500  1
 Sn  Sn4  1  0.62500  0.62500  0.62500  1
 Zn  Zn1  1  0.12500  0.62500  0.62500  1
 Zn  Zn2  1  0.62500  0.12500  0.62500  1
