CIF file written using JARVIS-Tools package.
data_MnVP4O14
_symmetry_space_group_name_H-M  'P1'
_cell_length_a       4.77251
_cell_length_b       6.90891
_cell_length_c       7.8411
_cell_angle_alpha    89.7898
_cell_angle_beta     90.7272
_cell_angle_gamma    73.4608

_symmetry_Int_Tables_number  1
_chemical_formula_structural  MnVP4O14
_chemical_formula_sum  MnVP4O4
_cell_volume  247.8193635664211
_cell_formula_units_Z  1
loop_
  _symmetry_equiv_pos_site_id
 _symmetry_equiv_pos_as_xyz
 1  'x, y, z'
loop_
 _atom_site_type_symbol
 _atom_site_label
 _atom_site_symmetry_multiplicity
 _atom_site_fract_x
 _atom_site_fract_y
 _atom_site_fract_z
 _atom_site_fract_occupancy
 Mn  Mn1  1  0.78356  0.72801  0.00605  1
 O  O1  1  0.02693  0.17097  0.32602  1
 O  O2  1  0.14052  0.09068  0.67310  1
 O  O3  1  0.16100  0.54939  0.04615  1
 O  O4  1  0.87378  0.90796  0.16405  1
 O  O5  1  0.43224  0.35917  0.68191  1
 O  O6  1  0.28328  0.48267  0.36329  1
 O  O7  1  0.57964  0.26648  0.13579  1
 O  O8  1  0.40219  0.72957  0.64704  1
 O  O9  1  0.41022  0.89950  0.93577  1
 O  O10  1  0.60727  0.62674  0.18831  1
 O  O11  1  0.72574  0.51617  0.87318  1
 O  O12  1  0.85473  0.46905  0.55911  1
 O  O13  1  0.57405  0.08441  0.41955  1
 O  O14  1  0.93605  0.84363  0.81961  1
 P  P1  1  0.61384  0.50947  0.69022  1
 P  P2  1  0.76652  0.09884  0.26758  1
 P  P3  1  0.21775  0.89666  0.77739  1
 P  P4  1  0.39806  0.49423  0.18370  1
 V  V1  1  0.21797  0.27178  0.50575  1
