CIF file written using JARVIS-Tools package.
data_CaV2O5
_symmetry_space_group_name_H-M  'Cmcm'
_cell_length_a       3.75965
_cell_length_b       5.86657
_cell_length_c       11.1864
_cell_angle_alpha    90
_cell_angle_beta     90
_cell_angle_gamma    108.689

_symmetry_Int_Tables_number  63
_chemical_formula_structural  CaV2O5
_chemical_formula_sum  Ca2V4O0
_cell_volume  233.72083579131763
_cell_formula_units_Z  2
loop_
  _symmetry_equiv_pos_site_id
 _symmetry_equiv_pos_as_xyz
 1  'x, y, z'
loop_
 _atom_site_type_symbol
 _atom_site_label
 _atom_site_symmetry_multiplicity
 _atom_site_fract_x
 _atom_site_fract_y
 _atom_site_fract_z
 _atom_site_fract_occupancy
 Ca  Ca1  1  0.89882  0.79765  0.75000  1
 Ca  Ca2  1  0.10118  0.20235  0.25000  1
 O  O1  1  0.71160  0.42320  0.25000  1
 O  O2  1  0.28840  0.57680  0.75000  1
 O  O3  1  0.24068  0.48135  0.07467  1
 O  O4  1  0.75932  0.51865  0.92533  1
 O  O5  1  0.75932  0.51865  0.57467  1
 O  O6  1  0.24068  0.48135  0.42533  1
 O  O7  1  0.05564  0.11128  0.61689  1
 O  O8  1  0.94436  0.88871  0.38311  1
 O  O9  1  0.05564  0.11128  0.88311  1
 O  O10  1  0.94436  0.88871  0.11690  1
 V  V1  1  0.20271  0.40543  0.59635  1
 V  V2  1  0.79729  0.59457  0.40364  1
 V  V3  1  0.79729  0.59457  0.09636  1
 V  V4  1  0.20271  0.40543  0.90365  1
