CIF file written using JARVIS-Tools package.
data_Tb5BiAu2
_symmetry_space_group_name_H-M  'I4/mcm'
_cell_length_a       7.43529
_cell_length_b       7.43529
_cell_length_c       10.1573
_cell_angle_alpha    111.47
_cell_angle_beta     111.47
_cell_angle_gamma    90

_symmetry_Int_Tables_number  140
_chemical_formula_structural  Tb5BiAu2
_chemical_formula_sum  Tb0Bi2Au4
_cell_volume  480.4522661685479
_cell_formula_units_Z  2
loop_
  _symmetry_equiv_pos_site_id
 _symmetry_equiv_pos_as_xyz
 1  'x, y, z'
loop_
 _atom_site_type_symbol
 _atom_site_label
 _atom_site_symmetry_multiplicity
 _atom_site_fract_x
 _atom_site_fract_y
 _atom_site_fract_z
 _atom_site_fract_occupancy
 Au  Au1  1  0.37261  0.12739  -0.00000  1
 Au  Au2  1  0.87261  0.37261  0.00000  1
 Au  Au3  1  0.12739  0.62739  -0.00000  1
 Au  Au4  1  0.62739  0.87261  0.00000  1
 Bi  Bi1  1  0.25000  0.25000  0.50000  1
 Bi  Bi2  1  0.75000  0.75000  0.50000  1
 Tb  Tb1  1  0.82637  0.00308  0.32945  1
 Tb  Tb2  1  0.50308  0.32637  0.32945  1
 Tb  Tb3  1  0.67363  0.17363  0.67055  1
 Tb  Tb4  1  0.99692  0.49692  0.67055  1
 Tb  Tb5  1  0.32637  0.82637  0.32945  1
 Tb  Tb6  1  0.49692  0.67363  0.67055  1
 Tb  Tb7  1  0.00000  0.00000  0.00000  1
 Tb  Tb8  1  0.17363  0.99692  0.67055  1
 Tb  Tb9  1  0.00308  0.50308  0.32945  1
 Tb  Tb10  1  0.50000  0.50000  -0.00000  1
