CIF file written using JARVIS-Tools package.
data_CaMnGe2O6
_symmetry_space_group_name_H-M  'C2/c'
_cell_length_a       5.49518
_cell_length_b       6.89668
_cell_length_c       6.89667
_cell_angle_alpha    82.5816
_cell_angle_beta     79.8078
_cell_angle_gamma    79.8078

_symmetry_Int_Tables_number  15
_chemical_formula_structural  CaMnGe2O6
_chemical_formula_sum  Ca2Mn2Ge4O2
_cell_volume  251.89579149060782
_cell_formula_units_Z  2
loop_
  _symmetry_equiv_pos_site_id
 _symmetry_equiv_pos_as_xyz
 1  'x, y, z'
loop_
 _atom_site_type_symbol
 _atom_site_label
 _atom_site_symmetry_multiplicity
 _atom_site_fract_x
 _atom_site_fract_y
 _atom_site_fract_z
 _atom_site_fract_occupancy
 Ca  Ca1  1  0.75000  0.30763  0.69237  1
 Ca  Ca2  1  0.25000  0.69237  0.30763  1
 Ge  Ge1  1  0.76872  0.38469  0.18582  1
 Ge  Ge2  1  0.73128  0.81418  0.61531  1
 Ge  Ge3  1  0.23128  0.61531  0.81418  1
 Ge  Ge4  1  0.26872  0.18582  0.38469  1
 Mn  Mn1  1  0.75000  0.90796  0.09204  1
 Mn  Mn2  1  0.25000  0.09204  0.90796  1
 O  O1  1  0.52272  0.32265  0.39411  1
 O  O2  1  0.13793  0.79300  0.98455  1
 O  O3  1  0.47728  0.67735  0.60589  1
 O  O4  1  0.02272  0.39411  0.32265  1
 O  O5  1  0.97728  0.60589  0.67735  1
 O  O6  1  0.86207  0.20700  0.01545  1
 O  O7  1  0.85517  0.89295  0.37339  1
 O  O8  1  0.64483  0.62661  0.10705  1
 O  O9  1  0.14483  0.10705  0.62661  1
 O  O10  1  0.63793  0.98455  0.79300  1
 O  O11  1  0.35517  0.37339  0.89295  1
 O  O12  1  0.36207  0.01545  0.20700  1
