CIF file written using JARVIS-Tools package.
data_AlPO4
_symmetry_space_group_name_H-M  'P6_422'
_cell_length_a       5.15292
_cell_length_b       5.15292
_cell_length_c       11.3604
_cell_angle_alpha    90
_cell_angle_beta     90
_cell_angle_gamma    120

_symmetry_Int_Tables_number  181
_chemical_formula_structural  AlPO4
_chemical_formula_sum  Al3P3O2
_cell_volume  261.23625885122055
_cell_formula_units_Z  3
loop_
  _symmetry_equiv_pos_site_id
 _symmetry_equiv_pos_as_xyz
 1  'x, y, z'
loop_
 _atom_site_type_symbol
 _atom_site_label
 _atom_site_symmetry_multiplicity
 _atom_site_fract_x
 _atom_site_fract_y
 _atom_site_fract_z
 _atom_site_fract_occupancy
 Al  Al1  1  0.00000  0.50000  0.83333  1
 Al  Al2  1  0.50000  0.00000  0.50000  1
 Al  Al3  1  0.50000  0.50000  0.16667  1
 O  O1  1  0.19355  0.77348  0.41061  1
 O  O2  1  0.22652  0.80645  0.92273  1
 O  O3  1  0.77348  0.57994  0.74394  1
 O  O4  1  0.22652  0.42006  0.74394  1
 O  O5  1  0.80645  0.22652  0.41061  1
 O  O6  1  0.57994  0.80645  0.07727  1
 O  O7  1  0.42006  0.19355  0.07727  1
 O  O8  1  0.19355  0.42006  0.25606  1
 O  O9  1  0.57994  0.77348  0.58939  1
 O  O10  1  0.80645  0.57994  0.25606  1
 O  O11  1  0.77348  0.19355  0.92273  1
 O  O12  1  0.42006  0.22652  0.58939  1
 P  P1  1  0.50000  0.00000  0.00000  1
 P  P2  1  0.00000  0.50000  0.33333  1
 P  P3  1  0.50000  0.50000  0.66667  1
