CIF file written using JARVIS-Tools package.
data_Sr2Er2Al3Si5N11O3
_symmetry_space_group_name_H-M  'P3m1'
_cell_length_a       6.1879
_cell_length_b       6.1879
_cell_length_c       10.4011
_cell_angle_alpha    90
_cell_angle_beta     90
_cell_angle_gamma    120

_symmetry_Int_Tables_number  156
_chemical_formula_structural  Sr2Er2Al3Si5N11O3
_chemical_formula_sum  Sr2Er2Al3Si5NO3
_cell_volume  344.90306922167
_cell_formula_units_Z  1
loop_
  _symmetry_equiv_pos_site_id
 _symmetry_equiv_pos_as_xyz
 1  'x, y, z'
loop_
 _atom_site_type_symbol
 _atom_site_label
 _atom_site_symmetry_multiplicity
 _atom_site_fract_x
 _atom_site_fract_y
 _atom_site_fract_z
 _atom_site_fract_occupancy
 Al  Al1  1  0.16198  0.83802  0.43603  1
 Al  Al2  1  0.16198  0.32397  0.43603  1
 Al  Al3  1  0.67603  0.83802  0.43603  1
 Er  Er1  1  0.33333  0.66667  0.64366  1
 Er  Er2  1  0.66667  0.33333  0.34727  1
 N  N1  1  0.49107  0.98214  0.49558  1
 N  N2  1  0.01786  0.50893  0.49558  1
 N  N3  1  0.85349  0.14651  0.77583  1
 N  N4  1  0.14997  0.85003  0.26132  1
 N  N5  1  0.29303  0.14651  0.77583  1
 N  N6  1  0.00000  0.00000  0.53162  1
 N  N7  1  0.00000  0.00000  0.01493  1
 N  N8  1  0.85349  0.70697  0.77583  1
 N  N9  1  0.49107  0.50893  0.49558  1
 N  N10  1  0.14997  0.29994  0.26132  1
 N  N11  1  0.70006  0.85003  0.26132  1
 O  O1  1  0.52571  0.05143  0.98169  1
 O  O2  1  0.52571  0.47429  0.98169  1
 O  O3  1  0.94857  0.47429  0.98169  1
 Si  Si1  1  0.33906  0.16953  0.93294  1
 Si  Si2  1  0.00000  0.00000  0.70609  1
 Si  Si3  1  0.00000  0.00000  0.21203  1
 Si  Si4  1  0.83047  0.66094  0.93294  1
 Si  Si5  1  0.83047  0.16953  0.93294  1
 Sr  Sr1  1  0.66667  0.33333  0.64862  1
 Sr  Sr2  1  0.33333  0.66667  0.13156  1
