CIF file written using JARVIS-Tools package.
data_CaSnGe2O6
_symmetry_space_group_name_H-M  'C2/c'
_cell_length_a       5.54503
_cell_length_b       7.31104
_cell_length_c       7.31104
_cell_angle_alpha    85.1756
_cell_angle_beta     81.3843
_cell_angle_gamma    81.3842

_symmetry_Int_Tables_number  15
_chemical_formula_structural  CaSnGe2O6
_chemical_formula_sum  Ca2Sn2Ge4O2
_cell_volume  289.1603940502049
_cell_formula_units_Z  2
loop_
  _symmetry_equiv_pos_site_id
 _symmetry_equiv_pos_as_xyz
 1  'x, y, z'
loop_
 _atom_site_type_symbol
 _atom_site_label
 _atom_site_symmetry_multiplicity
 _atom_site_fract_x
 _atom_site_fract_y
 _atom_site_fract_z
 _atom_site_fract_occupancy
 Ca  Ca1  1  0.75000  0.32992  0.67008  1
 Ca  Ca2  1  0.25000  0.67008  0.32992  1
 Ge  Ge1  1  0.77614  0.39438  0.18479  1
 Ge  Ge2  1  0.72386  0.81521  0.60562  1
 Ge  Ge3  1  0.22386  0.60562  0.81521  1
 Ge  Ge4  1  0.27614  0.18479  0.39438  1
 O  O1  1  0.53704  0.31769  0.37399  1
 O  O2  1  0.14227  0.71219  0.02270  1
 O  O3  1  0.46296  0.68231  0.62601  1
 O  O4  1  0.03704  0.37399  0.31769  1
 O  O5  1  0.96296  0.62601  0.68231  1
 O  O6  1  0.36711  0.37628  0.84066  1
 O  O7  1  0.85773  0.28781  0.97730  1
 O  O8  1  0.63289  0.62372  0.15934  1
 O  O9  1  0.13289  0.15934  0.62372  1
 O  O10  1  0.64227  0.02270  0.71219  1
 O  O11  1  0.86711  0.84066  0.37628  1
 O  O12  1  0.35773  0.97730  0.28781  1
 Sn  Sn1  1  0.25000  0.10760  0.89240  1
 Sn  Sn2  1  0.75000  0.89240  0.10760  1
