CIF file written using JARVIS-Tools package.
data_LiV2Si2O8
_symmetry_space_group_name_H-M  'P2_1/c'
_cell_length_a       4.79779
_cell_length_b       10.049
_cell_length_c       5.72531
_cell_angle_alpha    90
_cell_angle_beta     90.1168
_cell_angle_gamma    90

_symmetry_Int_Tables_number  14
_chemical_formula_structural  LiV2Si2O8
_chemical_formula_sum  Li2V4Si4O6
_cell_volume  276.0339199168259
_cell_formula_units_Z  2
loop_
  _symmetry_equiv_pos_site_id
 _symmetry_equiv_pos_as_xyz
 1  'x, y, z'
loop_
 _atom_site_type_symbol
 _atom_site_label
 _atom_site_symmetry_multiplicity
 _atom_site_fract_x
 _atom_site_fract_y
 _atom_site_fract_z
 _atom_site_fract_occupancy
 Li  Li1  1  0.74993  0.70196  0.25035  1
 Li  Li2  1  0.25007  0.20196  0.74965  1
 O  O1  1  0.47484  0.30934  0.99498  1
 O  O2  1  0.08535  0.64017  0.00078  1
 O  O3  1  0.91465  0.14017  0.99922  1
 O  O4  1  0.96556  0.38180  0.21967  1
 O  O5  1  0.53442  0.02175  0.28028  1
 O  O6  1  0.47571  0.53090  0.28774  1
 O  O7  1  0.02420  0.87260  0.21233  1
 O  O8  1  0.02521  0.09423  0.50496  1
 O  O9  1  0.58528  0.26335  0.50080  1
 O  O10  1  0.52429  0.03090  0.71226  1
 O  O11  1  0.46558  0.52175  0.71972  1
 O  O12  1  0.03444  0.88180  0.78033  1
 O  O13  1  0.97580  0.37260  0.78767  1
 O  O14  1  0.97479  0.59423  0.49504  1
 O  O15  1  0.41472  0.76335  0.49920  1
 O  O16  1  0.52516  0.80934  0.00502  1
 Si  Si1  1  0.68974  0.10929  0.49191  1
 Si  Si2  1  0.81029  0.29425  0.00802  1
 Si  Si3  1  0.31026  0.60929  0.50809  1
 Si  Si4  1  0.18971  0.79425  0.99198  1
 V  V1  1  0.74771  0.96736  0.99104  1
 V  V2  1  0.75227  0.43619  0.50892  1
 V  V3  1  0.24773  0.93619  0.49108  1
 V  V4  1  0.25229  0.46736  0.00896  1
