CIF file written using JARVIS-Tools package.
data_CeCrO3
_symmetry_space_group_name_H-M  'Pnma'
_cell_length_a       5.37531
_cell_length_b       7.67513
_cell_length_c       5.63505
_cell_angle_alpha    90.0004
_cell_angle_beta     89.9998
_cell_angle_gamma    89.9979

_symmetry_Int_Tables_number  62
_chemical_formula_structural  CeCrO3
_chemical_formula_sum  Ce4Cr4O2
_cell_volume  232.48090635114414
_cell_formula_units_Z  4
loop_
  _symmetry_equiv_pos_site_id
 _symmetry_equiv_pos_as_xyz
 1  'x, y, z'
loop_
 _atom_site_type_symbol
 _atom_site_label
 _atom_site_symmetry_multiplicity
 _atom_site_fract_x
 _atom_site_fract_y
 _atom_site_fract_z
 _atom_site_fract_occupancy
 Ce  Ce1  1  0.01643  0.50000  0.06898  1
 Ce  Ce2  1  0.51643  0.00000  0.43101  1
 Ce  Ce3  1  0.48357  0.50000  0.56898  1
 Ce  Ce4  1  0.98357  -0.00000  0.93101  1
 Cr  Cr1  1  0.50000  0.75000  0.99999  1
 Cr  Cr2  1  0.50000  0.25000  0.99999  1
 Cr  Cr3  1  1.00000  0.75000  0.49999  1
 Cr  Cr4  1  1.00000  0.25000  0.49999  1
 O  O1  1  0.40406  0.00001  0.02190  1
 O  O2  1  0.19494  0.29916  0.80011  1
 O  O3  1  0.80505  0.79916  0.19987  1
 O  O4  1  0.30505  0.29916  0.30012  1
 O  O5  1  0.80506  0.20084  0.19988  1
 O  O6  1  0.69494  0.20084  0.69987  1
 O  O7  1  0.09593  -0.00001  0.52189  1
 O  O8  1  0.69494  0.79916  0.69988  1
 O  O9  1  0.30506  0.70084  0.30011  1
 O  O10  1  0.19495  0.70084  0.80012  1
 O  O11  1  0.90407  0.50001  0.47809  1
 O  O12  1  0.59593  0.49999  0.97808  1
