CIF file written using JARVIS-Tools package.
data_SnO2
_symmetry_space_group_name_H-M  'R-3m'
_cell_length_a       5.67077
_cell_length_b       6.52249
_cell_length_c       6.52249
_cell_angle_alpha    60
_cell_angle_beta     54.8936
_cell_angle_gamma    54.8936

_symmetry_Int_Tables_number  166
_chemical_formula_structural  SnO2
_chemical_formula_sum  Sn4O8
_cell_volume  156.2110860915868
_cell_formula_units_Z  4
loop_
  _symmetry_equiv_pos_site_id
 _symmetry_equiv_pos_as_xyz
 1  'x, y, z'
loop_
 _atom_site_type_symbol
 _atom_site_label
 _atom_site_symmetry_multiplicity
 _atom_site_fract_x
 _atom_site_fract_y
 _atom_site_fract_z
 _atom_site_fract_occupancy
 O  O1  1  0.36267  0.37914  0.37914  1
 O  O2  1  0.36267  0.37914  0.87905  1
 O  O3  1  0.36267  0.87905  0.37914  1
 O  O4  1  0.82610  0.39130  0.39130  1
 O  O5  1  0.36276  0.87908  0.87908  1
 O  O6  1  0.82601  0.39127  0.89136  1
 O  O7  1  0.82601  0.89136  0.39127  1
 O  O8  1  0.82601  0.89136  0.89136  1
 Sn  Sn1  1  0.59418  0.13527  0.13527  1
 Sn  Sn2  1  0.59443  0.13519  0.63519  1
 Sn  Sn3  1  0.59443  0.63519  0.13519  1
 Sn  Sn4  1  0.59443  0.63519  0.63519  1
