CIF file written using JARVIS-Tools package.
data_NaHS
_symmetry_space_group_name_H-M  'R3m'
_cell_length_a       3.92745
_cell_length_b       3.92745
_cell_length_c       3.92746
_cell_angle_alpha    68.8135
_cell_angle_beta     68.8135
_cell_angle_gamma    68.8134

_symmetry_Int_Tables_number  160
_chemical_formula_structural  NaHS
_chemical_formula_sum  NaHS
_cell_volume  50.77816107446314
_cell_formula_units_Z  1
loop_
  _symmetry_equiv_pos_site_id
 _symmetry_equiv_pos_as_xyz
 1  'x, y, z'
loop_
 _atom_site_type_symbol
 _atom_site_label
 _atom_site_symmetry_multiplicity
 _atom_site_fract_x
 _atom_site_fract_y
 _atom_site_fract_z
 _atom_site_fract_occupancy
 H  H1  1  0.85692  0.85692  0.85692  1
 Na  Na1  1  0.49862  0.49862  0.49862  1
 S  S1  1  0.00846  0.00846  0.00846  1
