CIF file written using JARVIS-Tools package.
data_CaCr2S4
_symmetry_space_group_name_H-M  'Imma'
_cell_length_a       7.2353
_cell_length_b       7.25251
_cell_length_c       7.25252
_cell_angle_alpha    89.0392
_cell_angle_beta     119.921
_cell_angle_gamma    119.919

_symmetry_Int_Tables_number  74
_chemical_formula_structural  CaCr2S4
_chemical_formula_sum  Ca2Cr4S8
_cell_volume  271.9066997032773
_cell_formula_units_Z  2
loop_
  _symmetry_equiv_pos_site_id
 _symmetry_equiv_pos_as_xyz
 1  'x, y, z'
loop_
 _atom_site_type_symbol
 _atom_site_label
 _atom_site_symmetry_multiplicity
 _atom_site_fract_x
 _atom_site_fract_y
 _atom_site_fract_z
 _atom_site_fract_occupancy
 Ca  Ca1  1  -0.00001  -0.00001  0.00001  1
 Ca  Ca2  1  0.50001  0.50001  0.50000  1
 Cr  Cr1  1  0.00001  0.00001  0.50001  1
 Cr  Cr2  1  0.50001  0.00001  0.00000  1
 Cr  Cr3  1  0.50000  1.00000  0.50000  1
 Cr  Cr4  1  0.00000  0.50000  0.50001  1
 S  S1  1  0.02677  0.76219  0.29136  1
 S  S2  1  0.02958  0.75941  0.74061  1
 S  S3  1  0.47322  0.20864  0.73780  1
 S  S4  1  0.52956  0.24058  0.25941  1
 S  S5  1  0.52680  0.79137  0.26220  1
 S  S6  1  0.97044  0.24060  0.25942  1
 S  S7  1  0.47043  0.75941  0.74059  1
 S  S8  1  0.97322  0.23780  0.70866  1
