CIF file written using JARVIS-Tools package.
data_Er5Co2Te2
_symmetry_space_group_name_H-M  'Cmcm'
_cell_length_a       3.89865
_cell_length_b       7.67182
_cell_length_c       14.8687
_cell_angle_alpha    90
_cell_angle_beta     90
_cell_angle_gamma    104.72

_symmetry_Int_Tables_number  63
_chemical_formula_structural  Er5Co2Te2
_chemical_formula_sum  Er0Co4Te4
_cell_volume  430.12217239547624
_cell_formula_units_Z  2
loop_
  _symmetry_equiv_pos_site_id
 _symmetry_equiv_pos_as_xyz
 1  'x, y, z'
loop_
 _atom_site_type_symbol
 _atom_site_label
 _atom_site_symmetry_multiplicity
 _atom_site_fract_x
 _atom_site_fract_y
 _atom_site_fract_z
 _atom_site_fract_occupancy
 Co  Co1  1  0.81973  0.63946  0.75000  1
 Co  Co2  1  0.18027  0.36054  0.25000  1
 Co  Co3  1  0.41500  0.83000  0.75000  1
 Co  Co4  1  0.58500  0.17000  0.25000  1
 Er  Er1  1  0.39272  0.78543  0.25000  1
 Er  Er2  1  0.60728  0.21457  0.75000  1
 Er  Er3  1  0.03741  0.07482  0.12714  1
 Er  Er4  1  0.25968  0.51936  0.63251  1
 Er  Er5  1  0.74032  0.48064  0.36749  1
 Er  Er6  1  0.03741  0.07482  0.37286  1
 Er  Er7  1  0.96259  0.92518  0.62714  1
 Er  Er8  1  0.74032  0.48064  0.13251  1
 Er  Er9  1  0.25968  0.51936  0.86749  1
 Er  Er10  1  0.96259  0.92518  0.87286  1
 Te  Te1  1  0.38102  0.76204  0.46216  1
 Te  Te2  1  0.61898  0.23796  0.53784  1
 Te  Te3  1  0.38102  0.76204  0.03784  1
 Te  Te4  1  0.61898  0.23796  0.96216  1
