CIF file written using JARVIS-Tools package.
data_MgFe2O4
_symmetry_space_group_name_H-M  'R3m'
_cell_length_a       5.84307
_cell_length_b       5.78078
_cell_length_c       5.78078
_cell_angle_alpha    59.9999
_cell_angle_beta     60.352
_cell_angle_gamma    60.352

_symmetry_Int_Tables_number  160
_chemical_formula_structural  MgFe2O4
_chemical_formula_sum  Mg2Fe4O8
_cell_volume  138.7999267046368
_cell_formula_units_Z  2
loop_
  _symmetry_equiv_pos_site_id
 _symmetry_equiv_pos_as_xyz
 1  'x, y, z'
loop_
 _atom_site_type_symbol
 _atom_site_label
 _atom_site_symmetry_multiplicity
 _atom_site_fract_x
 _atom_site_fract_y
 _atom_site_fract_z
 _atom_site_fract_occupancy
 Fe  Fe1  1  0.26299  0.24567  0.24567  1
 Fe  Fe2  1  0.62698  0.12522  0.62390  1
 Fe  Fe3  1  0.62698  0.62390  0.12522  1
 Fe  Fe4  1  0.62698  0.62390  0.62390  1
 Mg  Mg1  1  0.99264  0.00245  0.00245  1
 Mg  Mg2  1  0.11979  0.62674  0.62674  1
 O  O1  1  0.39959  0.37839  0.37839  1
 O  O2  1  0.39959  0.37839  0.84364  1
 O  O3  1  0.39959  0.84364  0.37839  1
 O  O4  1  0.84814  0.38395  0.38395  1
 O  O5  1  0.41397  0.86201  0.86201  1
 O  O6  1  0.84425  0.41240  0.87167  1
 O  O7  1  0.84425  0.87167  0.41240  1
 O  O8  1  0.84425  0.87167  0.87167  1
