CIF file written using JARVIS-Tools package.
data_Hf2Hg
_symmetry_space_group_name_H-M  'I4/mmm'
_cell_length_a       3.31191
_cell_length_b       3.31191
_cell_length_c       6.34581
_cell_angle_alpha    105.127
_cell_angle_beta     105.127
_cell_angle_gamma    90

_symmetry_Int_Tables_number  139
_chemical_formula_structural  Hf2Hg
_chemical_formula_sum  Hf2Hg
_cell_volume  64.69223828534085
_cell_formula_units_Z  1
loop_
  _symmetry_equiv_pos_site_id
 _symmetry_equiv_pos_as_xyz
 1  'x, y, z'
loop_
 _atom_site_type_symbol
 _atom_site_label
 _atom_site_symmetry_multiplicity
 _atom_site_fract_x
 _atom_site_fract_y
 _atom_site_fract_z
 _atom_site_fract_occupancy
 Hf  Hf1  1  0.66640  0.66640  0.33280  1
 Hf  Hf2  1  0.33360  0.33360  0.66720  1
 Hg  Hg1  1  0.00000  0.00000  0.00000  1
