CIF file written using JARVIS-Tools package.
data_YSnF5
_symmetry_space_group_name_H-M  'Immm'
_cell_length_a       4.32012
_cell_length_b       6.12582
_cell_length_c       6.12582
_cell_angle_alpha    71.9382
_cell_angle_beta     69.3527
_cell_angle_gamma    69.3526

_symmetry_Int_Tables_number  71
_chemical_formula_structural  YSnF5
_chemical_formula_sum  YSnF5
_cell_volume  138.72958816858997
_cell_formula_units_Z  1
loop_
  _symmetry_equiv_pos_site_id
 _symmetry_equiv_pos_as_xyz
 1  'x, y, z'
loop_
 _atom_site_type_symbol
 _atom_site_label
 _atom_site_symmetry_multiplicity
 _atom_site_fract_x
 _atom_site_fract_y
 _atom_site_fract_z
 _atom_site_fract_occupancy
 F  F1  1  0.50000  0.80608  0.19392  1
 F  F2  1  0.50000  0.19392  0.80608  1
 F  F3  1  0.74303  0.25697  0.25697  1
 F  F4  1  0.25697  0.74303  0.74303  1
 F  F5  1  0.00000  0.50000  0.50000  1
 Sn  Sn1  1  0.00000  0.00000  0.00000  1
 Y  Y1  1  0.50000  0.50000  0.50000  1
