CIF file written using JARVIS-Tools package.
data_ZnCuGe2O6
_symmetry_space_group_name_H-M  'C2/c'
_cell_length_a       5.20272
_cell_length_b       6.76642
_cell_length_c       6.76642
_cell_angle_alpha    86.4431
_cell_angle_beta     79.9047
_cell_angle_gamma    79.9047

_symmetry_Int_Tables_number  15
_chemical_formula_structural  ZnCuGe2O6
_chemical_formula_sum  Zn2Cu2Ge4O2
_cell_volume  230.76470610639217
_cell_formula_units_Z  2
loop_
  _symmetry_equiv_pos_site_id
 _symmetry_equiv_pos_as_xyz
 1  'x, y, z'
loop_
 _atom_site_type_symbol
 _atom_site_label
 _atom_site_symmetry_multiplicity
 _atom_site_fract_x
 _atom_site_fract_y
 _atom_site_fract_z
 _atom_site_fract_occupancy
 Cu  Cu1  1  0.75000  0.90500  0.09500  1
 Cu  Cu2  1  0.25000  0.09500  0.90500  1
 Ge  Ge1  1  0.78744  0.39283  0.20664  1
 Ge  Ge2  1  0.71256  0.79336  0.60717  1
 Ge  Ge3  1  0.21256  0.60717  0.79336  1
 Ge  Ge4  1  0.28744  0.20664  0.39283  1
 O  O1  1  0.87732  0.20371  0.02306  1
 O  O2  1  0.58868  0.29228  0.42652  1
 O  O3  1  0.12268  0.79629  0.97694  1
 O  O4  1  0.41132  0.70772  0.57348  1
 O  O5  1  0.08868  0.42652  0.29228  1
 O  O6  1  0.91132  0.57348  0.70772  1
 O  O7  1  0.37732  0.02306  0.20371  1
 O  O8  1  0.88471  0.86278  0.37506  1
 O  O9  1  0.61529  0.62494  0.13722  1
 O  O10  1  0.11529  0.13722  0.62494  1
 O  O11  1  0.62268  0.97694  0.79629  1
 O  O12  1  0.38471  0.37506  0.86278  1
 Zn  Zn1  1  0.25000  0.73504  0.26496  1
 Zn  Zn2  1  0.75000  0.26496  0.73504  1
