CIF file written using JARVIS-Tools package.
data_Mg2CuSbO6
_symmetry_space_group_name_H-M  'P2_1/m'
_cell_length_a       5.40541
_cell_length_b       7.374
_cell_length_c       5.48885
_cell_angle_alpha    90
_cell_angle_beta     100.507
_cell_angle_gamma    90

_symmetry_Int_Tables_number  11
_chemical_formula_structural  Mg2CuSbO6
_chemical_formula_sum  Mg4Cu2Sb2O2
_cell_volume  215.11476975408584
_cell_formula_units_Z  2
loop_
  _symmetry_equiv_pos_site_id
 _symmetry_equiv_pos_as_xyz
 1  'x, y, z'
loop_
 _atom_site_type_symbol
 _atom_site_label
 _atom_site_symmetry_multiplicity
 _atom_site_fract_x
 _atom_site_fract_y
 _atom_site_fract_z
 _atom_site_fract_occupancy
 Cu  Cu1  1  0.50000  0.50000  -0.00000  1
 Cu  Cu2  1  0.50000  0.00000  -0.00000  1
 Mg  Mg1  1  0.46595  0.75000  0.41953  1
 Mg  Mg2  1  0.53405  0.25000  0.58047  1
 Mg  Mg3  1  0.93556  0.75000  0.97215  1
 Mg  Mg4  1  0.06444  0.25000  0.02785  1
 O  O1  1  0.64555  0.44530  0.32664  1
 O  O2  1  0.87254  0.75000  0.58961  1
 O  O3  1  0.35445  0.94530  0.67336  1
 O  O4  1  0.13511  0.57276  0.20774  1
 O  O5  1  0.86489  0.07276  0.79226  1
 O  O6  1  0.13511  0.92724  0.20774  1
 O  O7  1  0.59700  0.75000  0.08008  1
 O  O8  1  0.64555  0.05470  0.32664  1
 O  O9  1  0.86489  0.42724  0.79226  1
 O  O10  1  0.35445  0.55470  0.67336  1
 O  O11  1  0.12746  0.25000  0.41039  1
 O  O12  1  0.40300  0.25000  0.91992  1
 Sb  Sb1  1  -0.00000  0.00000  0.50000  1
 Sb  Sb2  1  -0.00000  0.50000  0.50000  1
