CIF file written using JARVIS-Tools package.
data_Ca2Ni3O8
_symmetry_space_group_name_H-M  'P6_3mc'
_cell_length_a       5.86587
_cell_length_b       5.86587
_cell_length_c       10.3536
_cell_angle_alpha    90
_cell_angle_beta     90
_cell_angle_gamma    120

_symmetry_Int_Tables_number  186
_chemical_formula_structural  Ca2Ni3O8
_chemical_formula_sum  Ca4Ni6O6
_cell_volume  308.52120229032
_cell_formula_units_Z  2
loop_
  _symmetry_equiv_pos_site_id
 _symmetry_equiv_pos_as_xyz
 1  'x, y, z'
loop_
 _atom_site_type_symbol
 _atom_site_label
 _atom_site_symmetry_multiplicity
 _atom_site_fract_x
 _atom_site_fract_y
 _atom_site_fract_z
 _atom_site_fract_occupancy
 Ca  Ca1  1  0.66667  0.33333  0.97344  1
 Ca  Ca2  1  0.33333  0.66667  0.47344  1
 Ca  Ca3  1  0.66667  0.33333  0.56385  1
 Ca  Ca4  1  0.33333  0.66667  0.06385  1
 Ni  Ni1  1  0.16498  0.83502  0.75342  1
 Ni  Ni2  1  0.83502  0.67005  0.25342  1
 Ni  Ni3  1  0.67005  0.83502  0.75342  1
 Ni  Ni4  1  0.83502  0.16498  0.25342  1
 Ni  Ni5  1  0.16498  0.32995  0.75342  1
 Ni  Ni6  1  0.32995  0.16498  0.25342  1
 O  O1  1  0.15157  0.30315  0.34618  1
 O  O2  1  0.84843  0.69685  0.84618  1
 O  O3  1  0.69685  0.84843  0.34618  1
 O  O4  1  0.47879  0.95758  0.65482  1
 O  O5  1  0.84843  0.15157  0.84618  1
 O  O6  1  0.30315  0.15157  0.84618  1
 O  O7  1  0.15157  0.84843  0.34618  1
 O  O8  1  0.33333  0.66667  0.84458  1
 O  O9  1  0.52121  0.47879  0.15482  1
 O  O10  1  0.00000  0.00000  0.66136  1
 O  O11  1  0.00000  0.00000  0.16136  1
 O  O12  1  0.52121  0.04242  0.15482  1
 O  O13  1  0.95758  0.47879  0.15482  1
 O  O14  1  0.47879  0.52121  0.65482  1
 O  O15  1  0.04242  0.52121  0.65482  1
 O  O16  1  0.66667  0.33333  0.34458  1
