CIF file written using JARVIS-Tools package.
data_MgAg2O4
_symmetry_space_group_name_H-M  'Imma'
_cell_length_a       6.00897
_cell_length_b       6.00898
_cell_length_c       6.67864
_cell_angle_alpha    56.2395
_cell_angle_beta     56.2395
_cell_angle_gamma    67.4052

_symmetry_Int_Tables_number  74
_chemical_formula_structural  MgAg2O4
_chemical_formula_sum  Mg2Ag4O8
_cell_volume  165.68248093987847
_cell_formula_units_Z  2
loop_
  _symmetry_equiv_pos_site_id
 _symmetry_equiv_pos_as_xyz
 1  'x, y, z'
loop_
 _atom_site_type_symbol
 _atom_site_label
 _atom_site_symmetry_multiplicity
 _atom_site_fract_x
 _atom_site_fract_y
 _atom_site_fract_z
 _atom_site_fract_occupancy
 Ag  Ag1  1  0.01350  0.01350  -0.01350  1
 Ag  Ag2  1  0.23650  0.23650  0.26350  1
 Ag  Ag3  1  0.62500  0.62500  0.12500  1
 Ag  Ag4  1  0.62500  0.62500  0.62500  1
 Mg  Mg1  1  0.12500  0.62500  0.62500  1
 Mg  Mg2  1  0.62500  0.12500  0.62500  1
 O  O1  1  0.34982  0.34982  0.45418  1
 O  O2  1  0.45152  0.84916  0.34966  1
 O  O3  1  0.34982  0.34982  0.84617  1
 O  O4  1  0.84916  0.45152  0.34966  1
 O  O5  1  0.40084  0.79848  0.90034  1
 O  O6  1  0.79848  0.40084  0.90034  1
 O  O7  1  0.90018  0.90018  0.40383  1
 O  O8  1  0.90018  0.90018  0.79582  1
