CIF file written using JARVIS-Tools package.
data_RbAlF4
_symmetry_space_group_name_H-M  'P4/mbm'
_cell_length_a       5.137
_cell_length_b       5.137
_cell_length_c       6.32086
_cell_angle_alpha    90
_cell_angle_beta     90
_cell_angle_gamma    90

_symmetry_Int_Tables_number  127
_chemical_formula_structural  RbAlF4
_chemical_formula_sum  Rb2Al2F8
_cell_volume  166.79989361348265
_cell_formula_units_Z  2
loop_
  _symmetry_equiv_pos_site_id
 _symmetry_equiv_pos_as_xyz
 1  'x, y, z'
loop_
 _atom_site_type_symbol
 _atom_site_label
 _atom_site_symmetry_multiplicity
 _atom_site_fract_x
 _atom_site_fract_y
 _atom_site_fract_z
 _atom_site_fract_occupancy
 Al  Al1  1  0.50000  0.50000  0.00000  1
 Al  Al2  1  0.00000  0.00000  0.00000  1
 F  F1  1  0.50000  0.50000  0.28218  1
 F  F2  1  0.00000  0.00000  0.71782  1
 F  F3  1  0.50000  0.50000  0.71782  1
 F  F4  1  0.00000  0.00000  0.28218  1
 F  F5  1  0.20006  0.70006  0.00000  1
 F  F6  1  0.29994  0.20006  0.00000  1
 F  F7  1  0.70006  0.79994  0.00000  1
 F  F8  1  0.79994  0.29994  0.00000  1
 Rb  Rb1  1  0.50000  0.00000  0.50000  1
 Rb  Rb2  1  0.00000  0.50000  0.50000  1
