CIF file written using JARVIS-Tools package.
data_CaFe2O4
_symmetry_space_group_name_H-M  'R3m'
_cell_length_a       6.31259
_cell_length_b       5.92246
_cell_length_c       5.92246
_cell_angle_alpha    60
_cell_angle_beta     62.0242
_cell_angle_gamma    62.0241

_symmetry_Int_Tables_number  160
_chemical_formula_structural  CaFe2O4
_chemical_formula_sum  Ca2Fe4O8
_cell_volume  161.18592151773242
_cell_formula_units_Z  2
loop_
  _symmetry_equiv_pos_site_id
 _symmetry_equiv_pos_as_xyz
 1  'x, y, z'
loop_
 _atom_site_type_symbol
 _atom_site_label
 _atom_site_symmetry_multiplicity
 _atom_site_fract_x
 _atom_site_fract_y
 _atom_site_fract_z
 _atom_site_fract_occupancy
 Ca  Ca1  1  0.98621  0.00460  0.00460  1
 Ca  Ca2  1  0.11873  0.62709  0.62709  1
 Fe  Fe1  1  0.28091  0.23970  0.23970  1
 Fe  Fe2  1  0.61605  0.12700  0.62848  1
 Fe  Fe3  1  0.61605  0.62848  0.12700  1
 Fe  Fe4  1  0.61605  0.62848  0.62848  1
 O  O1  1  0.42357  0.36260  0.36260  1
 O  O2  1  0.42357  0.36260  0.85124  1
 O  O3  1  0.42357  0.85124  0.36260  1
 O  O4  1  0.94379  0.35207  0.35207  1
 O  O5  1  0.39545  0.86818  0.86818  1
 O  O6  1  0.80202  0.43941  0.87928  1
 O  O7  1  0.80202  0.87928  0.43941  1
 O  O8  1  0.80202  0.87928  0.87928  1
