CIF file written using JARVIS-Tools package.
data_CrGe2O6
_symmetry_space_group_name_H-M  'C2/c'
_cell_length_a       5.52084
_cell_length_b       6.6238
_cell_length_c       6.6238
_cell_angle_alpha    82.8709
_cell_angle_beta     74.8082
_cell_angle_gamma    74.8084

_symmetry_Int_Tables_number  15
_chemical_formula_structural  CrGe2O6
_chemical_formula_sum  Cr2Ge4O2
_cell_volume  225.1917279422781
_cell_formula_units_Z  2
loop_
  _symmetry_equiv_pos_site_id
 _symmetry_equiv_pos_as_xyz
 1  'x, y, z'
loop_
 _atom_site_type_symbol
 _atom_site_label
 _atom_site_symmetry_multiplicity
 _atom_site_fract_x
 _atom_site_fract_y
 _atom_site_fract_z
 _atom_site_fract_occupancy
 Cr  Cr1  1  0.75000  0.90996  0.09004  1
 Cr  Cr2  1  0.25000  0.09004  0.90996  1
 Ge  Ge1  1  0.75736  0.38740  0.20466  1
 Ge  Ge2  1  0.74264  0.79534  0.61260  1
 Ge  Ge3  1  0.24264  0.61260  0.79534  1
 Ge  Ge4  1  0.25736  0.20466  0.38740  1
 O  O1  1  0.43228  0.40010  0.33261  1
 O  O2  1  0.06772  0.66739  0.59990  1
 O  O3  1  0.12635  0.82474  0.97113  1
 O  O4  1  -0.06772  0.33261  0.40010  1
 O  O5  1  0.56772  0.59990  0.66739  1
 O  O6  1  0.74906  0.63667  0.07270  1
 O  O7  1  0.75094  0.92730  0.36333  1
 O  O8  1  0.24906  0.07270  0.63667  1
 O  O9  1  0.87365  0.17526  0.02887  1
 O  O10  1  0.62635  0.97113  0.82474  1
 O  O11  1  0.25094  0.36333  0.92730  1
 O  O12  1  0.37365  0.02887  0.17526  1
