CIF file written using JARVIS-Tools package.
data_BaCeI4
_symmetry_space_group_name_H-M  'C2/c'
_cell_length_a       7.36022
_cell_length_b       8.95956
_cell_length_c       9.12707
_cell_angle_alpha    113.923
_cell_angle_beta     107.423
_cell_angle_gamma    102.194

_symmetry_Int_Tables_number  15
_chemical_formula_structural  BaCeI4
_chemical_formula_sum  Ba2Ce2I8
_cell_volume  485.2483980267747
_cell_formula_units_Z  2
loop_
  _symmetry_equiv_pos_site_id
 _symmetry_equiv_pos_as_xyz
 1  'x, y, z'
loop_
 _atom_site_type_symbol
 _atom_site_label
 _atom_site_symmetry_multiplicity
 _atom_site_fract_x
 _atom_site_fract_y
 _atom_site_fract_z
 _atom_site_fract_occupancy
 Ba  Ba1  1  0.38467  0.63469  0.26949  1
 Ba  Ba2  1  0.61533  0.36531  0.73051  1
 Ce  Ce1  1  0.74860  0.99861  0.99720  1
 Ce  Ce2  1  0.25140  0.00139  0.00280  1
 I  I1  1  0.35441  0.63932  0.86980  1
 I  I2  1  0.64559  0.36068  0.13020  1
 I  I3  1  0.98454  0.76946  0.13018  1
 I  I4  1  0.64837  0.05864  0.34934  1
 I  I5  1  0.79912  0.70942  0.65061  1
 I  I6  1  0.20088  0.29058  0.34939  1
 I  I7  1  0.35163  0.94136  0.65066  1
 I  I8  1  0.01546  0.23054  0.86982  1
