CIF file written using JARVIS-Tools package.
data_Mn6O5F7
_symmetry_space_group_name_H-M  'P1'
_cell_length_a       4.67622
_cell_length_b       5.6162
_cell_length_c       7.81532
_cell_angle_alpha    85.9085
_cell_angle_beta     86.5735
_cell_angle_gamma    86.3515

_symmetry_Int_Tables_number  1
_chemical_formula_structural  Mn6O5F7
_chemical_formula_sum  Mn6O5F7
_cell_volume  203.99825132193158
_cell_formula_units_Z  1
loop_
  _symmetry_equiv_pos_site_id
 _symmetry_equiv_pos_as_xyz
 1  'x, y, z'
loop_
 _atom_site_type_symbol
 _atom_site_label
 _atom_site_symmetry_multiplicity
 _atom_site_fract_x
 _atom_site_fract_y
 _atom_site_fract_z
 _atom_site_fract_occupancy
 F  F1  1  0.21677  0.29113  0.90211  1
 F  F2  1  0.19494  0.62247  0.58173  1
 F  F3  1  0.29199  0.79074  0.90318  1
 F  F4  1  0.29171  0.13923  0.55573  1
 F  F5  1  0.78606  0.69725  0.09842  1
 F  F6  1  0.79663  0.39279  0.43737  1
 F  F7  1  0.18783  0.95497  0.21212  1
 Mn  Mn1  1  0.49846  0.48648  0.01001  1
 Mn  Mn2  1  0.96978  0.00168  0.99062  1
 Mn  Mn3  1  0.00690  0.67141  0.33313  1
 Mn  Mn4  1  0.97292  0.33082  0.67923  1
 Mn  Mn5  1  0.50743  0.16920  0.32234  1
 Mn  Mn6  1  0.56348  0.82739  0.66000  1
 O  O1  1  0.29798  0.46118  0.23373  1
 O  O2  1  0.69775  0.20361  0.10175  1
 O  O3  1  0.81273  0.04305  0.77132  1
 O  O4  1  0.70882  0.88641  0.41937  1
 O  O5  1  0.69783  0.53020  0.78786  1
