CIF file written using JARVIS-Tools package.
data_CaBi2O6
_symmetry_space_group_name_H-M  'Pmn2_1'
_cell_length_a       5.63845
_cell_length_b       5.9256
_cell_length_c       8.13994
_cell_angle_alpha    89.9955
_cell_angle_beta     89.9999
_cell_angle_gamma    90.0001

_symmetry_Int_Tables_number  31
_chemical_formula_structural  CaBi2O6
_chemical_formula_sum  Ca2Bi4O2
_cell_volume  271.9649716068956
_cell_formula_units_Z  2
loop_
  _symmetry_equiv_pos_site_id
 _symmetry_equiv_pos_as_xyz
 1  'x, y, z'
loop_
 _atom_site_type_symbol
 _atom_site_label
 _atom_site_symmetry_multiplicity
 _atom_site_fract_x
 _atom_site_fract_y
 _atom_site_fract_z
 _atom_site_fract_occupancy
 Bi  Bi1  1  0.49512  0.98669  0.00066  1
 Bi  Bi2  1  0.99512  0.51330  0.99933  1
 Bi  Bi3  1  0.99502  0.51332  0.50063  1
 Bi  Bi4  1  0.49502  0.98667  0.49935  1
 Ca  Ca1  1  0.47519  0.42144  0.25006  1
 Ca  Ca2  1  0.97519  0.07856  0.74993  1
 O  O1  1  0.32167  0.68068  0.43648  1
 O  O2  1  0.82167  0.81932  0.56351  1
 O  O3  1  0.60766  0.04479  0.25002  1
 O  O4  1  0.70283  0.28791  0.94144  1
 O  O5  1  0.20283  0.21209  0.05855  1
 O  O6  1  0.32186  0.68059  0.06343  1
 O  O7  1  0.82186  0.81940  0.93656  1
 O  O8  1  0.70261  0.28803  0.55841  1
 O  O9  1  0.86696  0.53432  0.24997  1
 O  O10  1  0.36696  0.96567  0.75002  1
 O  O11  1  0.20261  0.21196  0.44158  1
 O  O12  1  0.10766  0.45520  0.74997  1
