CIF file written using JARVIS-Tools package.
data_YbNiB4
_symmetry_space_group_name_H-M  'Pbam'
_cell_length_a       3.38957
_cell_length_b       5.87892
_cell_length_c       11.4066
_cell_angle_alpha    90
_cell_angle_beta     90
_cell_angle_gamma    90

_symmetry_Int_Tables_number  55
_chemical_formula_structural  YbNiB4
_chemical_formula_sum  Yb4Ni4B6
_cell_volume  227.29958894034465
_cell_formula_units_Z  4
loop_
  _symmetry_equiv_pos_site_id
 _symmetry_equiv_pos_as_xyz
 1  'x, y, z'
loop_
 _atom_site_type_symbol
 _atom_site_label
 _atom_site_symmetry_multiplicity
 _atom_site_fract_x
 _atom_site_fract_y
 _atom_site_fract_z
 _atom_site_fract_occupancy
 B  B1  1  0.50000  0.28305  0.31600  1
 B  B2  1  0.50000  0.02018  0.69033  1
 B  B3  1  0.50000  0.97982  0.30967  1
 B  B4  1  0.50000  0.52018  0.80967  1
 B  B5  1  0.50000  0.88759  0.45281  1
 B  B6  1  0.50000  0.63963  0.53241  1
 B  B7  1  0.50000  0.36037  0.46759  1
 B  B8  1  0.50000  0.47982  0.19033  1
 B  B9  1  0.50000  0.86037  0.03241  1
 B  B10  1  0.50000  0.78305  0.18400  1
 B  B11  1  0.50000  0.21695  0.81600  1
 B  B12  1  0.50000  0.11241  0.54719  1
 B  B13  1  0.50000  0.71695  0.68400  1
 B  B14  1  0.50000  0.38759  0.04719  1
 B  B15  1  0.50000  0.61241  0.95281  1
 B  B16  1  0.50000  0.13963  0.96759  1
 Ni  Ni1  1  0.00000  0.63658  0.08898  1
 Ni  Ni2  1  0.00000  0.36342  0.91102  1
 Ni  Ni3  1  0.00000  0.13658  0.41102  1
 Ni  Ni4  1  0.00000  0.86342  0.58898  1
 Yb  Yb1  1  0.00000  0.12768  0.15053  1
 Yb  Yb2  1  0.00000  0.87232  0.84947  1
 Yb  Yb3  1  0.00000  0.62768  0.34947  1
 Yb  Yb4  1  0.00000  0.37232  0.65053  1
