CIF file written using JARVIS-Tools package.
data_MgSnGe2O6
_symmetry_space_group_name_H-M  'C2/c'
_cell_length_a       5.27568
_cell_length_b       7.11317
_cell_length_c       7.11317
_cell_angle_alpha    90.4282
_cell_angle_beta     84.1279
_cell_angle_gamma    84.1279

_symmetry_Int_Tables_number  15
_chemical_formula_structural  MgSnGe2O6
_chemical_formula_sum  Mg2Sn2Ge4O2
_cell_volume  264.09767324707076
_cell_formula_units_Z  2
loop_
  _symmetry_equiv_pos_site_id
 _symmetry_equiv_pos_as_xyz
 1  'x, y, z'
loop_
 _atom_site_type_symbol
 _atom_site_label
 _atom_site_symmetry_multiplicity
 _atom_site_fract_x
 _atom_site_fract_y
 _atom_site_fract_z
 _atom_site_fract_occupancy
 Ge  Ge1  1  0.79511  0.40036  0.20230  1
 Ge  Ge2  1  0.70489  0.79770  0.59964  1
 Ge  Ge3  1  0.20489  0.59964  0.79770  1
 Ge  Ge4  1  0.29511  0.20230  0.40036  1
 Mg  Mg1  1  0.75000  0.29906  0.70094  1
 Mg  Mg2  1  0.25000  0.70094  0.29906  1
 O  O1  1  0.61277  0.29184  0.40373  1
 O  O2  1  0.14406  0.71203  0.01905  1
 O  O3  1  0.38723  0.70816  0.59627  1
 O  O4  1  0.11277  0.40373  0.29184  1
 O  O5  1  0.88723  0.59627  0.70816  1
 O  O6  1  0.39396  0.38415  0.81460  1
 O  O7  1  0.85594  0.28797  0.98095  1
 O  O8  1  0.60604  0.61585  0.18540  1
 O  O9  1  0.10604  0.18540  0.61585  1
 O  O10  1  0.64406  0.01905  0.71203  1
 O  O11  1  0.89396  0.81460  0.38415  1
 O  O12  1  0.35594  0.98095  0.28797  1
 Sn  Sn1  1  0.25000  0.11386  0.88614  1
 Sn  Sn2  1  0.75000  0.88614  0.11386  1
