CIF file written using JARVIS-Tools package.
data_Ta2ZnO6
_symmetry_space_group_name_H-M  'Imm2'
_cell_length_a       5.19387
_cell_length_b       5.67272
_cell_length_c       7.54307
_cell_angle_alpha    89.983
_cell_angle_beta     89.9992
_cell_angle_gamma    89.9995

_symmetry_Int_Tables_number  44
_chemical_formula_structural  Ta2ZnO6
_chemical_formula_sum  Ta4Zn2O2
_cell_volume  222.24434858129368
_cell_formula_units_Z  2
loop_
  _symmetry_equiv_pos_site_id
 _symmetry_equiv_pos_as_xyz
 1  'x, y, z'
loop_
 _atom_site_type_symbol
 _atom_site_label
 _atom_site_symmetry_multiplicity
 _atom_site_fract_x
 _atom_site_fract_y
 _atom_site_fract_z
 _atom_site_fract_occupancy
 O  O1  1  0.27595  0.27187  0.93401  1
 O  O2  1  0.27542  0.27138  0.56600  1
 O  O3  1  0.77542  0.22863  0.43401  1
 O  O4  1  0.60755  -0.00006  0.75000  1
 O  O5  1  0.77514  0.77112  0.06601  1
 O  O6  1  0.27513  0.72889  0.93401  1
 O  O7  1  0.27565  0.72841  0.56602  1
 O  O8  1  0.77595  0.22814  0.06600  1
 O  O9  1  0.10755  0.50007  0.25001  1
 O  O10  1  0.83926  0.49997  0.75001  1
 O  O11  1  0.33926  0.00004  0.25001  1
 O  O12  1  0.77565  0.77160  0.43399  1
 Ta  Ta1  1  0.49049  0.00005  0.50607  1
 Ta  Ta2  1  0.99049  0.49996  0.49394  1
 Ta  Ta3  1  0.99050  0.50000  0.00607  1
 Ta  Ta4  1  0.49050  0.00001  0.99394  1
 Zn  Zn1  1  0.95896  -0.00018  0.25001  1
 Zn  Zn2  1  0.45896  0.50019  0.75000  1
