CIF file written using JARVIS-Tools package.
data_MgVP2O7
_symmetry_space_group_name_H-M  'P2_1/c'
_cell_length_a       7.05229
_cell_length_b       8.46584
_cell_length_c       9.08324
_cell_angle_alpha    90
_cell_angle_beta     113.38
_cell_angle_gamma    90

_symmetry_Int_Tables_number  14
_chemical_formula_structural  MgVP2O7
_chemical_formula_sum  Mg4V4P8O28
_cell_volume  497.77495906408194
_cell_formula_units_Z  4
loop_
  _symmetry_equiv_pos_site_id
 _symmetry_equiv_pos_as_xyz
 1  'x, y, z'
loop_
 _atom_site_type_symbol
 _atom_site_label
 _atom_site_symmetry_multiplicity
 _atom_site_fract_x
 _atom_site_fract_y
 _atom_site_fract_z
 _atom_site_fract_occupancy
 Mg  Mg1  1  0.69607  0.94261  0.81737  1
 Mg  Mg2  1  0.30393  0.44261  0.68263  1
 Mg  Mg3  1  0.69607  0.55739  0.31737  1
 Mg  Mg4  1  0.30393  0.05739  0.18263  1
 O  O1  1  0.54679  0.11525  0.39886  1
 O  O2  1  0.02661  0.59928  0.12076  1
 O  O3  1  0.45321  0.88475  0.60114  1
 O  O4  1  0.74979  0.33199  0.59623  1
 O  O5  1  0.97339  0.09928  0.37924  1
 O  O6  1  0.88088  0.76298  0.79909  1
 O  O7  1  0.97339  0.40072  0.87924  1
 O  O8  1  0.02661  0.90072  0.62076  1
 O  O9  1  0.48339  0.08976  0.84168  1
 O  O10  1  0.88088  0.73702  0.29909  1
 O  O11  1  0.45321  0.61525  0.10114  1
 O  O12  1  0.62283  0.72475  0.45100  1
 O  O13  1  0.25021  0.83199  0.90377  1
 O  O14  1  0.54679  0.38475  0.89886  1
 O  O15  1  0.11925  0.88796  0.19564  1
 O  O16  1  0.11925  0.61204  0.69564  1
 O  O17  1  0.74979  0.16801  0.09623  1
 O  O18  1  0.37717  0.27525  0.54900  1
 O  O19  1  0.88075  0.38796  0.30436  1
 O  O20  1  0.48339  0.41024  0.34168  1
 O  O21  1  0.11912  0.26298  0.70091  1
 O  O22  1  0.51661  0.58976  0.65832  1
 O  O23  1  0.88075  0.11204  0.80436  1
 O  O24  1  0.11912  0.23702  0.20091  1
 O  O25  1  0.25021  0.66801  0.40377  1
 O  O26  1  0.37717  0.22475  0.04900  1
 O  O27  1  0.62283  0.77525  0.95100  1
 O  O28  1  0.51661  0.91024  0.15832  1
 P  P1  1  0.53002  0.27819  0.46671  1
 P  P2  1  0.06168  0.73135  0.24483  1
 P  P3  1  0.53002  0.22181  0.96671  1
 P  P4  1  0.46998  0.77819  0.03329  1
 P  P5  1  0.93832  0.23135  0.25517  1
 P  P6  1  0.46998  0.72181  0.53329  1
 P  P7  1  0.93832  0.26865  0.75517  1
 P  P8  1  0.06168  0.76865  0.74483  1
 V  V1  1  0.23536  0.42559  0.10748  1
 V  V2  1  0.76464  0.57441  0.89252  1
 V  V3  1  0.76464  0.92559  0.39252  1
 V  V4  1  0.23536  0.07441  0.60748  1
