CIF file written using JARVIS-Tools package.
data_Rb3GePSe7
_symmetry_space_group_name_H-M  'P-1'
_cell_length_a       7.26472
_cell_length_b       9.74132
_cell_length_c       11.9312
_cell_angle_alpha    100.021
_cell_angle_beta     89.7531
_cell_angle_gamma    111.777

_symmetry_Int_Tables_number  2
_chemical_formula_structural  Rb3GePSe7
_chemical_formula_sum  Rb6Ge2P2Se4
_cell_volume  770.449043446335
_cell_formula_units_Z  2
loop_
  _symmetry_equiv_pos_site_id
 _symmetry_equiv_pos_as_xyz
 1  'x, y, z'
loop_
 _atom_site_type_symbol
 _atom_site_label
 _atom_site_symmetry_multiplicity
 _atom_site_fract_x
 _atom_site_fract_y
 _atom_site_fract_z
 _atom_site_fract_occupancy
 Ge  Ge1  1  0.60196  0.56070  0.63066  1
 Ge  Ge2  1  0.39804  0.43930  0.36934  1
 P  P1  1  0.76886  0.07222  0.78048  1
 P  P2  1  0.23114  0.92778  0.21952  1
 Rb  Rb1  1  0.93309  0.47426  0.20917  1
 Rb  Rb2  1  0.06691  0.52574  0.79083  1
 Rb  Rb3  1  0.31514  0.12561  0.60356  1
 Rb  Rb4  1  0.68486  0.87439  0.39644  1
 Rb  Rb5  1  0.38655  0.19698  0.98623  1
 Rb  Rb6  1  0.61345  0.80302  0.01377  1
 Se  Se1  1  0.89243  0.22712  0.94565  1
 Se  Se2  1  0.84466  0.17255  0.62776  1
 Se  Se3  1  0.96280  0.93547  0.80813  1
 Se  Se4  1  0.03720  0.06453  0.19187  1
 Se  Se5  1  0.92557  0.76377  0.63254  1
 Se  Se6  1  0.10757  0.77288  0.05435  1
 Se  Se7  1  0.54351  0.07715  0.22354  1
 Se  Se8  1  0.34446  0.60930  0.53308  1
 Se  Se9  1  0.53301  0.47759  0.80137  1
 Se  Se10  1  0.46699  0.52241  0.19863  1
 Se  Se11  1  0.07443  0.23623  0.36746  1
 Se  Se12  1  0.45649  0.92285  0.77646  1
 Se  Se13  1  0.65554  0.39070  0.46692  1
 Se  Se14  1  0.15534  0.82745  0.37224  1
