CIF file written using JARVIS-Tools package.
data_VZnF4
_symmetry_space_group_name_H-M  'P-1'
_cell_length_a       5.06759
_cell_length_b       5.4588
_cell_length_c       5.87096
_cell_angle_alpha    108.132
_cell_angle_beta     103.468
_cell_angle_gamma    87.4948

_symmetry_Int_Tables_number  2
_chemical_formula_structural  VZnF4
_chemical_formula_sum  V2Zn2F8
_cell_volume  150.0263813955837
_cell_formula_units_Z  2
loop_
  _symmetry_equiv_pos_site_id
 _symmetry_equiv_pos_as_xyz
 1  'x, y, z'
loop_
 _atom_site_type_symbol
 _atom_site_label
 _atom_site_symmetry_multiplicity
 _atom_site_fract_x
 _atom_site_fract_y
 _atom_site_fract_z
 _atom_site_fract_occupancy
 F  F1  1  0.66041  0.99143  0.70989  1
 F  F2  1  0.72461  0.35468  0.14999  1
 F  F3  1  0.34866  0.00962  0.29754  1
 F  F4  1  0.81481  0.82390  0.19089  1
 F  F5  1  0.28447  0.64636  0.85743  1
 F  F6  1  0.74297  0.47527  0.66010  1
 F  F7  1  0.19427  0.17714  0.81653  1
 F  F8  1  0.26611  0.52578  0.34732  1
 V  V1  1  0.50454  0.00052  0.00371  1
 V  V2  1  0.00454  0.50052  0.00371  1
 Zn  Zn1  1  0.63931  0.69474  0.41293  1
 Zn  Zn2  1  0.36977  0.30630  0.59450  1
