CIF file written using JARVIS-Tools package.
data_UFeC2
_symmetry_space_group_name_H-M  'I-42d'
_cell_length_a       5.57293
_cell_length_b       5.57293
_cell_length_c       5.01453
_cell_angle_alpha    123.757
_cell_angle_beta     123.757
_cell_angle_gamma    90

_symmetry_Int_Tables_number  122
_chemical_formula_structural  UFeC2
_chemical_formula_sum  U2Fe2C4
_cell_volume  96.31213181627777
_cell_formula_units_Z  2
loop_
  _symmetry_equiv_pos_site_id
 _symmetry_equiv_pos_as_xyz
 1  'x, y, z'
loop_
 _atom_site_type_symbol
 _atom_site_label
 _atom_site_symmetry_multiplicity
 _atom_site_fract_x
 _atom_site_fract_y
 _atom_site_fract_z
 _atom_site_fract_occupancy
 C  C1  1  0.95104  0.87500  0.25000  1
 C  C2  1  0.62500  0.04896  0.75000  1
 C  C3  1  0.29896  0.37500  0.25000  1
 C  C4  1  0.12500  0.70104  0.75000  1
 Fe  Fe1  1  0.00000  0.00000  0.00000  1
 Fe  Fe2  1  0.25000  0.75000  0.50000  1
 U  U1  1  0.75000  0.25000  0.50000  1
 U  U2  1  0.50000  0.50000  0.00000  1
