CIF file written using JARVIS-Tools package.
data_Na3MnO3
_symmetry_space_group_name_H-M  'P2_1/c'
_cell_length_a       5.98492
_cell_length_b       10.7644
_cell_length_c       5.96556
_cell_angle_alpha    90
_cell_angle_beta     91.9651
_cell_angle_gamma    90

_symmetry_Int_Tables_number  14
_chemical_formula_structural  Na3MnO3
_chemical_formula_sum  Na2Mn4O2
_cell_volume  384.0999363547649
_cell_formula_units_Z  4
loop_
  _symmetry_equiv_pos_site_id
 _symmetry_equiv_pos_as_xyz
 1  'x, y, z'
loop_
 _atom_site_type_symbol
 _atom_site_label
 _atom_site_symmetry_multiplicity
 _atom_site_fract_x
 _atom_site_fract_y
 _atom_site_fract_z
 _atom_site_fract_occupancy
 Mn  Mn1  1  0.67057  0.99854  0.83484  1
 Mn  Mn2  1  0.82943  0.49854  0.16516  1
 Mn  Mn3  1  0.32943  0.00146  0.16516  1
 Mn  Mn4  1  0.17057  0.50146  0.83484  1
 Na  Na1  1  0.09564  0.22441  0.94795  1
 Na  Na2  1  0.14616  0.99719  0.64654  1
 Na  Na3  1  0.01936  0.71991  0.50250  1
 Na  Na4  1  0.59564  0.27559  0.94795  1
 Na  Na5  1  0.90436  0.77559  0.05205  1
 Na  Na6  1  0.64616  0.50281  0.64654  1
 Na  Na7  1  0.35384  0.49719  0.35346  1
 Na  Na8  1  0.51936  0.78009  0.50250  1
 Na  Na9  1  0.40436  0.72441  0.05205  1
 Na  Na10  1  0.98064  0.28009  0.49750  1
 Na  Na11  1  0.85384  0.00281  0.35346  1
 Na  Na12  1  0.48064  0.21991  0.49750  1
 O  O1  1  0.30600  0.37155  0.69232  1
 O  O2  1  0.19400  0.87155  0.30768  1
 O  O3  1  0.17539  0.12934  0.29686  1
 O  O4  1  0.10320  0.58855  0.10970  1
 O  O5  1  0.89680  0.41145  0.89030  1
 O  O6  1  0.69400  0.62845  0.30768  1
 O  O7  1  0.80600  0.12845  0.69232  1
 O  O8  1  0.67539  0.37066  0.29686  1
 O  O9  1  0.60320  0.91145  0.10970  1
 O  O10  1  0.32461  0.62934  0.70314  1
 O  O11  1  0.82461  0.87066  0.70314  1
 O  O12  1  0.39680  0.08855  0.89030  1
