CIF file written using JARVIS-Tools package.
data_TeWSe
_symmetry_space_group_name_H-M  'P-3m1'
_cell_length_a       3.44249
_cell_length_b       3.44251
_cell_length_c       27.5572
_cell_angle_alpha    90.0037
_cell_angle_beta     90
_cell_angle_gamma    120

_symmetry_Int_Tables_number  164
_chemical_formula_structural  TeWSe
_chemical_formula_sum  Te4W4Se4
_cell_volume  282.8219010531036
_cell_formula_units_Z  4
loop_
  _symmetry_equiv_pos_site_id
 _symmetry_equiv_pos_as_xyz
 1  'x, y, z'
loop_
 _atom_site_type_symbol
 _atom_site_label
 _atom_site_symmetry_multiplicity
 _atom_site_fract_x
 _atom_site_fract_y
 _atom_site_fract_z
 _atom_site_fract_occupancy
 Se  Se1  1  0.33289  0.66579  0.31723  1
 Se  Se2  1  0.66711  0.33421  0.43423  1
 Se  Se3  1  0.66716  0.33431  0.55328  1
 Se  Se4  1  0.33284  0.66569  0.19818  1
 Te  Te1  1  0.33355  0.66710  0.81140  1
 Te  Te2  1  0.66645  0.33290  -0.05994  1
 Te  Te3  1  0.66649  0.33297  0.07558  1
 Te  Te4  1  0.33351  0.66703  0.67588  1
 W  W1  1  0.33313  0.66625  0.00783  1
 W  W2  1  0.33380  0.66760  0.49374  1
 W  W3  1  0.66620  0.33240  0.25772  1
 W  W4  1  0.66687  0.33375  0.74362  1
