CIF file written using JARVIS-Tools package.
data_MgBi2O4
_symmetry_space_group_name_H-M  'Imma'
_cell_length_a       6.74383
_cell_length_b       6.74384
_cell_length_c       7.03851
_cell_angle_alpha    58.5438
_cell_angle_beta     58.5438
_cell_angle_gamma    58.1945

_symmetry_Int_Tables_number  74
_chemical_formula_structural  MgBi2O4
_chemical_formula_sum  Mg2Bi4O8
_cell_volume  218.19748058845698
_cell_formula_units_Z  2
loop_
  _symmetry_equiv_pos_site_id
 _symmetry_equiv_pos_as_xyz
 1  'x, y, z'
loop_
 _atom_site_type_symbol
 _atom_site_label
 _atom_site_symmetry_multiplicity
 _atom_site_fract_x
 _atom_site_fract_y
 _atom_site_fract_z
 _atom_site_fract_occupancy
 Bi  Bi1  1  0.99055  0.99055  0.00945  1
 Bi  Bi2  1  0.25945  0.25945  0.24055  1
 Bi  Bi3  1  0.62500  0.62500  0.12500  1
 Bi  Bi4  1  0.62500  0.62500  0.62500  1
 Mg  Mg1  1  0.12500  0.62500  0.62500  1
 Mg  Mg2  1  0.62500  0.12500  0.62500  1
 O  O1  1  0.37731  0.37731  0.41744  1
 O  O2  1  0.36083  0.85185  0.39366  1
 O  O3  1  0.37731  0.37731  0.82794  1
 O  O4  1  0.85185  0.36083  0.39366  1
 O  O5  1  0.39815  0.88917  0.85634  1
 O  O6  1  0.88917  0.39815  0.85634  1
 O  O7  1  0.87269  0.87269  0.42206  1
 O  O8  1  0.87269  0.87269  0.83256  1
