CIF file written using JARVIS-Tools package.
data_Ga3Pd7
_symmetry_space_group_name_H-M  'C2/m'
_cell_length_a       4.1071
_cell_length_b       5.53034
_cell_length_c       7.16419
_cell_angle_alpha    104.444
_cell_angle_beta     106.657
_cell_angle_gamma    90

_symmetry_Int_Tables_number  12
_chemical_formula_structural  Ga3Pd7
_chemical_formula_sum  Ga3Pd7
_cell_volume  150.52042027030416
_cell_formula_units_Z  1
loop_
  _symmetry_equiv_pos_site_id
 _symmetry_equiv_pos_as_xyz
 1  'x, y, z'
loop_
 _atom_site_type_symbol
 _atom_site_label
 _atom_site_symmetry_multiplicity
 _atom_site_fract_x
 _atom_site_fract_y
 _atom_site_fract_z
 _atom_site_fract_occupancy
 Ga  Ga1  1  0.00000  0.00000  0.00000  1
 Ga  Ga2  1  0.80892  0.33569  0.61784  1
 Ga  Ga3  1  0.19108  0.66431  0.38216  1
 Pd  Pd1  1  0.00000  0.50000  0.00000  1
 Pd  Pd2  1  0.79433  0.86255  0.58867  1
 Pd  Pd3  1  0.20567  0.13745  0.41133  1
 Pd  Pd4  1  0.62647  0.38749  0.25294  1
 Pd  Pd5  1  0.37353  0.61251  0.74706  1
 Pd  Pd6  1  0.58127  0.85617  0.16253  1
 Pd  Pd7  1  0.41873  0.14383  0.83747  1
