CIF file written using JARVIS-Tools package.
data_BiO2
_symmetry_space_group_name_H-M  'R3m'
_cell_length_a       5.55992
_cell_length_b       7.78362
_cell_length_c       7.78361
_cell_angle_alpha    60
_cell_angle_beta     45.575
_cell_angle_gamma    45.575

_symmetry_Int_Tables_number  160
_chemical_formula_structural  BiO2
_chemical_formula_sum  Bi4O8
_cell_volume  171.76970371020275
_cell_formula_units_Z  4
loop_
  _symmetry_equiv_pos_site_id
 _symmetry_equiv_pos_as_xyz
 1  'x, y, z'
loop_
 _atom_site_type_symbol
 _atom_site_label
 _atom_site_symmetry_multiplicity
 _atom_site_fract_x
 _atom_site_fract_y
 _atom_site_fract_z
 _atom_site_fract_occupancy
 Bi  Bi1  1  0.54506  0.15165  0.15165  1
 Bi  Bi2  1  0.59044  0.13544  0.63706  1
 Bi  Bi3  1  0.59044  0.63706  0.13544  1
 Bi  Bi4  1  0.59044  0.63706  0.63706  1
 O  O1  1  0.30508  0.40813  0.40813  1
 O  O2  1  0.30508  0.40813  0.87864  1
 O  O3  1  0.30508  0.87864  0.40813  1
 O  O4  1  0.89529  0.36823  0.36823  1
 O  O5  1  0.51927  0.82691  0.82691  1
 O  O6  1  0.82871  0.34095  0.91517  1
 O  O7  1  0.82871  0.91517  0.34095  1
 O  O8  1  0.82871  0.91517  0.91517  1
