CIF file written using JARVIS-Tools package.
data_CrN2
_symmetry_space_group_name_H-M  'P4_2/mnm'
_cell_length_a       4.63515
_cell_length_b       4.63515
_cell_length_c       2.65453
_cell_angle_alpha    90
_cell_angle_beta     90
_cell_angle_gamma    90

_symmetry_Int_Tables_number  136
_chemical_formula_structural  CrN2
_chemical_formula_sum  Cr2N4
_cell_volume  57.03145028447497
_cell_formula_units_Z  2
loop_
  _symmetry_equiv_pos_site_id
 _symmetry_equiv_pos_as_xyz
 1  'x, y, z'
loop_
 _atom_site_type_symbol
 _atom_site_label
 _atom_site_symmetry_multiplicity
 _atom_site_fract_x
 _atom_site_fract_y
 _atom_site_fract_z
 _atom_site_fract_occupancy
 Cr  Cr1  1  0.50000  0.50000  0.50000  1
 Cr  Cr2  1  0.00000  0.00000  0.00000  1
 N  N1  1  0.79921  0.20079  0.50000  1
 N  N2  1  0.20079  0.79921  0.50000  1
 N  N3  1  0.29921  0.29921  0.00000  1
 N  N4  1  0.70079  0.70079  0.00000  1
