CIF file written using JARVIS-Tools package.
data_YSn2O4
_symmetry_space_group_name_H-M  'C2/c'
_cell_length_a       6.16393
_cell_length_b       6.03864
_cell_length_c       6.84355
_cell_angle_alpha    116.153
_cell_angle_beta     116.741
_cell_angle_gamma    90.0536

_symmetry_Int_Tables_number  15
_chemical_formula_structural  YSn2O4
_chemical_formula_sum  Y2Sn4O8
_cell_volume  197.78654195112406
_cell_formula_units_Z  2
loop_
  _symmetry_equiv_pos_site_id
 _symmetry_equiv_pos_as_xyz
 1  'x, y, z'
loop_
 _atom_site_type_symbol
 _atom_site_label
 _atom_site_symmetry_multiplicity
 _atom_site_fract_x
 _atom_site_fract_y
 _atom_site_fract_z
 _atom_site_fract_occupancy
 O  O1  1  0.75501  0.50665  0.85628  1
 O  O2  1  0.10127  0.84963  0.85628  1
 O  O3  1  0.24499  0.49335  0.14372  1
 O  O4  1  0.89873  0.15037  0.14372  1
 O  O5  1  0.50154  0.10725  0.36014  1
 O  O6  1  0.85860  0.75289  0.36014  1
 O  O7  1  0.14140  0.24711  0.63986  1
 O  O8  1  0.49846  0.89275  0.63986  1
 Sn  Sn1  1  0.50000  -0.00000  0.00000  1
 Sn  Sn2  1  0.50000  0.50000  0.00000  1
 Sn  Sn3  1  0.00000  0.50000  0.50000  1
 Sn  Sn4  1  0.50000  0.50000  0.50000  1
 Y  Y1  1  0.87695  0.12695  0.75389  1
 Y  Y2  1  0.12305  0.87305  0.24611  1
