CIF file written using JARVIS-Tools package.
data_NpAl8Cu4
_symmetry_space_group_name_H-M  'I4/mmm'
_cell_length_a       5.11598
_cell_length_b       6.75113
_cell_length_c       6.75113
_cell_angle_alpha    81.7459
_cell_angle_beta     67.7345
_cell_angle_gamma    67.7346

_symmetry_Int_Tables_number  139
_chemical_formula_structural  NpAl8Cu4
_chemical_formula_sum  NpAl8Cu4
_cell_volume  199.6994851333463
_cell_formula_units_Z  1
loop_
  _symmetry_equiv_pos_site_id
 _symmetry_equiv_pos_as_xyz
 1  'x, y, z'
loop_
 _atom_site_type_symbol
 _atom_site_label
 _atom_site_symmetry_multiplicity
 _atom_site_fract_x
 _atom_site_fract_y
 _atom_site_fract_z
 _atom_site_fract_occupancy
 Al  Al1  1  0.34433  0.65567  0.65567  1
 Al  Al2  1  0.00000  0.34433  0.65567  1
 Al  Al3  1  -0.00000  0.65567  0.34433  1
 Al  Al4  1  0.65567  0.34433  0.34433  1
 Al  Al5  1  0.28342  0.21658  0.21658  1
 Al  Al6  1  0.50000  0.78342  0.21658  1
 Al  Al7  1  0.50000  0.21658  0.78342  1
 Al  Al8  1  0.71658  0.78342  0.78342  1
 Cu  Cu1  1  0.50000  0.00000  0.50000  1
 Cu  Cu2  1  0.00000  0.50000  0.00000  1
 Cu  Cu3  1  0.50000  0.50000  0.00000  1
 Cu  Cu4  1  0.00000  0.00000  0.50000  1
 Np  Np1  1  0.00000  0.00000  0.00000  1
