CIF file written using JARVIS-Tools package.
data_Ba2NF
_symmetry_space_group_name_H-M  'R-3m'
_cell_length_a       4.01846
_cell_length_b       4.01846
_cell_length_c       7.06494
_cell_angle_alpha    73.4773
_cell_angle_beta     73.4773
_cell_angle_gamma    60

_symmetry_Int_Tables_number  166
_chemical_formula_structural  Ba2NF
_chemical_formula_sum  Ba2NF
_cell_volume  93.32118487537005
_cell_formula_units_Z  1
loop_
  _symmetry_equiv_pos_site_id
 _symmetry_equiv_pos_as_xyz
 1  'x, y, z'
loop_
 _atom_site_type_symbol
 _atom_site_label
 _atom_site_symmetry_multiplicity
 _atom_site_fract_x
 _atom_site_fract_y
 _atom_site_fract_z
 _atom_site_fract_occupancy
 Ba  Ba1  1  0.75730  0.75730  0.72809  1
 Ba  Ba2  1  0.24270  0.24270  0.27191  1
 F  F1  1  0.00000  0.00000  0.00000  1
 N  N1  1  0.50000  0.50000  0.50000  1
