CIF file written using JARVIS-Tools package.
data_Na2VO3
_symmetry_space_group_name_H-M  'Fdd2'
_cell_length_a       5.46134
_cell_length_b       5.46127
_cell_length_c       9.65611
_cell_angle_alpha    101.099
_cell_angle_beta     101.099
_cell_angle_gamma    108.616

_symmetry_Int_Tables_number  43
_chemical_formula_structural  Na2VO3
_chemical_formula_sum  Na8V4O2
_cell_volume  257.64909591752485
_cell_formula_units_Z  4
loop_
  _symmetry_equiv_pos_site_id
 _symmetry_equiv_pos_as_xyz
 1  'x, y, z'
loop_
 _atom_site_type_symbol
 _atom_site_label
 _atom_site_symmetry_multiplicity
 _atom_site_fract_x
 _atom_site_fract_y
 _atom_site_fract_z
 _atom_site_fract_occupancy
 Na  Na1  1  0.99481  0.49432  0.98762  1
 Na  Na2  1  0.42856  0.42876  0.84465  1
 Na  Na3  1  0.83347  0.33372  0.65453  1
 Na  Na4  1  0.25674  0.25627  0.51156  1
 Na  Na5  1  0.74396  0.74349  0.48762  1
 Na  Na6  1  0.66647  0.16682  0.34465  1
 Na  Na7  1  0.57141  0.57177  0.15453  1
 Na  Na8  1  0.50594  0.00547  0.01156  1
 O  O1  1  0.29527  0.84046  0.19095  1
 O  O2  1  0.35389  0.39909  0.30823  1
 O  O3  1  0.94638  0.90064  0.31216  1
 O  O4  1  0.05174  0.55144  0.49416  1
 O  O5  1  0.44878  0.94847  0.50501  1
 O  O6  1  0.09963  0.05383  0.68702  1
 O  O7  1  0.60118  0.64629  0.69094  1
 O  O8  1  0.19337  0.19305  0.99417  1
 O  O9  1  0.66222  0.11639  0.81216  1
 O  O10  1  0.80718  0.80686  0.00501  1
 O  O11  1  0.88380  0.33807  0.18700  1
 O  O12  1  0.15984  0.70494  0.80823  1
 V  V1  1  0.93274  0.92554  0.82847  1
 V  V2  1  0.07468  0.06752  0.17070  1
 V  V3  1  0.15354  0.64640  0.32847  1
 V  V4  1  0.35386  0.84663  0.67070  1
