CIF file written using JARVIS-Tools package.
data_K2MnF6
_symmetry_space_group_name_H-M  'P6_3mc'
_cell_length_a       5.68615
_cell_length_b       5.68615
_cell_length_c       9.23107
_cell_angle_alpha    90
_cell_angle_beta     90
_cell_angle_gamma    120

_symmetry_Int_Tables_number  186
_chemical_formula_structural  K2MnF6
_chemical_formula_sum  K4Mn2F2
_cell_volume  258.47584149234103
_cell_formula_units_Z  2
loop_
  _symmetry_equiv_pos_site_id
 _symmetry_equiv_pos_as_xyz
 1  'x, y, z'
loop_
 _atom_site_type_symbol
 _atom_site_label
 _atom_site_symmetry_multiplicity
 _atom_site_fract_x
 _atom_site_fract_y
 _atom_site_fract_z
 _atom_site_fract_occupancy
 F  F1  1  0.82211  0.64422  0.13439  1
 F  F2  1  0.51601  0.48399  0.35983  1
 F  F3  1  0.48399  0.96798  0.85983  1
 F  F4  1  0.17789  0.35578  0.63439  1
 F  F5  1  0.96798  0.48399  0.35983  1
 F  F6  1  0.03202  0.51601  0.85983  1
 F  F7  1  0.48399  0.51601  0.85983  1
 F  F8  1  0.17789  0.82211  0.63439  1
 F  F9  1  0.82211  0.17789  0.13439  1
 F  F10  1  0.35578  0.17789  0.13439  1
 F  F11  1  0.64422  0.82211  0.63439  1
 F  F12  1  0.51601  0.03202  0.35983  1
 K  K1  1  0.33333  0.66667  0.12602  1
 K  K2  1  0.66667  0.33333  0.62602  1
 K  K3  1  0.00000  0.00000  0.39790  1
 K  K4  1  0.00000  0.00000  0.89790  1
 Mn  Mn1  1  0.33333  0.66667  0.74342  1
 Mn  Mn2  1  0.66667  0.33333  0.24342  1
