CIF file written using JARVIS-Tools package.
data_MgSb4O8
_symmetry_space_group_name_H-M  'P1'
_cell_length_a       3.27723
_cell_length_b       7.21849
_cell_length_c       8.83702
_cell_angle_alpha    66.6029
_cell_angle_beta     79.3112
_cell_angle_gamma    89.8283

_symmetry_Int_Tables_number  1
_chemical_formula_structural  MgSb4O8
_chemical_formula_sum  MgSb4O8
_cell_volume  187.9562815718544
_cell_formula_units_Z  1
loop_
  _symmetry_equiv_pos_site_id
 _symmetry_equiv_pos_as_xyz
 1  'x, y, z'
loop_
 _atom_site_type_symbol
 _atom_site_label
 _atom_site_symmetry_multiplicity
 _atom_site_fract_x
 _atom_site_fract_y
 _atom_site_fract_z
 _atom_site_fract_occupancy
 Mg  Mg1  1  0.26768  0.12856  0.01382  1
 O  O1  1  0.98421  0.73053  0.58036  1
 O  O2  1  0.38634  0.36294  0.75821  1
 O  O3  1  0.58294  0.59439  0.39501  1
 O  O4  1  0.03439  0.26241  0.48873  1
 O  O5  1  0.83981  0.03640  0.87291  1
 O  O6  1  0.75098  0.29312  0.03956  1
 O  O7  1  0.16233  0.88617  0.23025  1
 O  O8  1  0.33588  0.65598  0.86553  1
 Sb  Sb1  1  0.36921  0.09886  0.68827  1
 Sb  Sb2  1  0.14043  0.52215  0.28335  1
 Sb  Sb3  1  0.86103  0.52145  0.81704  1
 Sb  Sb4  1  0.58226  0.88316  0.39761  1
