CIF file written using JARVIS-Tools package.
data_Ta2O5
_symmetry_space_group_name_H-M  'Pmmn'
_cell_length_a       3.89968
_cell_length_b       3.86266
_cell_length_c       13.1281
_cell_angle_alpha    90
_cell_angle_beta     90.0002
_cell_angle_gamma    90

_symmetry_Int_Tables_number  59
_chemical_formula_structural  Ta2O5
_chemical_formula_sum  Ta4O0
_cell_volume  197.75111456962233
_cell_formula_units_Z  2
loop_
  _symmetry_equiv_pos_site_id
 _symmetry_equiv_pos_as_xyz
 1  'x, y, z'
loop_
 _atom_site_type_symbol
 _atom_site_label
 _atom_site_symmetry_multiplicity
 _atom_site_fract_x
 _atom_site_fract_y
 _atom_site_fract_z
 _atom_site_fract_occupancy
 O  O1  1  0.00198  0.75000  0.56477  1
 O  O2  1  0.99802  0.25000  0.43523  1
 O  O3  1  0.99802  0.25000  0.06477  1
 O  O4  1  0.00198  0.75000  0.93523  1
 O  O5  1  0.50731  0.25000  0.89927  1
 O  O6  1  0.49269  0.75000  0.10073  1
 O  O7  1  0.49269  0.75000  0.39927  1
 O  O8  1  0.99523  0.75000  0.25000  1
 O  O9  1  0.00477  0.25000  0.75000  1
 O  O10  1  0.50731  0.25000  0.60073  1
 Ta  Ta1  1  0.02108  0.25000  0.60420  1
 Ta  Ta2  1  0.97892  0.75000  0.39580  1
 Ta  Ta3  1  0.97892  0.75000  0.10420  1
 Ta  Ta4  1  0.02108  0.25000  0.89580  1
