CIF file written using JARVIS-Tools package.
data_MgMn2O4
_symmetry_space_group_name_H-M  'R3m'
_cell_length_a       5.94564
_cell_length_b       5.83298
_cell_length_c       5.83298
_cell_angle_alpha    60
_cell_angle_beta     60.6248
_cell_angle_gamma    60.6248

_symmetry_Int_Tables_number  160
_chemical_formula_structural  MgMn2O4
_chemical_formula_sum  Mg2Mn4O8
_cell_volume  144.378449461589
_cell_formula_units_Z  2
loop_
  _symmetry_equiv_pos_site_id
 _symmetry_equiv_pos_as_xyz
 1  'x, y, z'
loop_
 _atom_site_type_symbol
 _atom_site_label
 _atom_site_symmetry_multiplicity
 _atom_site_fract_x
 _atom_site_fract_y
 _atom_site_fract_z
 _atom_site_fract_occupancy
 Mg  Mg1  1  0.99324  0.00226  0.00226  1
 Mg  Mg2  1  0.12304  0.62565  0.62565  1
 Mn  Mn1  1  0.25250  0.24917  0.24917  1
 Mn  Mn2  1  0.62614  0.12328  0.62529  1
 Mn  Mn3  1  0.62614  0.62529  0.12328  1
 Mn  Mn4  1  0.62614  0.62529  0.62529  1
 O  O1  1  0.40206  0.38021  0.38021  1
 O  O2  1  0.40206  0.38021  0.83752  1
 O  O3  1  0.40206  0.83752  0.38021  1
 O  O4  1  0.84332  0.38556  0.38556  1
 O  O5  1  0.40604  0.86465  0.86465  1
 O  O6  1  0.84910  0.41088  0.87001  1
 O  O7  1  0.84910  0.87001  0.41088  1
 O  O8  1  0.84910  0.87001  0.87001  1
