CIF file written using JARVIS-Tools package.
data_ZnCo2S4
_symmetry_space_group_name_H-M  'Fd-3m'
_cell_length_a       6.8127
_cell_length_b       6.81267
_cell_length_c       6.81267
_cell_angle_alpha    60.0014
_cell_angle_beta     60.0014
_cell_angle_gamma    60.0014

_symmetry_Int_Tables_number  227
_chemical_formula_structural  ZnCo2S4
_chemical_formula_sum  Zn2Co4S8
_cell_volume  223.5901296457711
_cell_formula_units_Z  2
loop_
  _symmetry_equiv_pos_site_id
 _symmetry_equiv_pos_as_xyz
 1  'x, y, z'
loop_
 _atom_site_type_symbol
 _atom_site_label
 _atom_site_symmetry_multiplicity
 _atom_site_fract_x
 _atom_site_fract_y
 _atom_site_fract_z
 _atom_site_fract_occupancy
 Co  Co1  1  0.50000  0.50000  0.50000  1
 Co  Co2  1  0.50000  0.50000  0.00000  1
 Co  Co3  1  0.00000  0.50000  0.50000  1
 Co  Co4  1  0.50000  1.00000  0.50000  1
 S  S1  1  0.73470  0.73470  0.73470  1
 S  S2  1  0.26530  0.26531  0.70408  1
 S  S3  1  0.26530  0.70408  0.26531  1
 S  S4  1  0.70411  0.26530  0.26530  1
 S  S5  1  0.73470  0.29592  0.73469  1
 S  S6  1  0.29589  0.73470  0.73470  1
 S  S7  1  0.26530  0.26530  0.26530  1
 S  S8  1  0.73470  0.73469  0.29592  1
 Zn  Zn1  1  0.87499  0.87501  0.87502  1
 Zn  Zn2  1  0.12502  0.12498  0.12499  1
