CIF file written using JARVIS-Tools package.
data_Al2Ru
_symmetry_space_group_name_H-M  'I4/mmm'
_cell_length_a       3.15978
_cell_length_b       3.15978
_cell_length_c       4.78932
_cell_angle_alpha    109.261
_cell_angle_beta     109.261
_cell_angle_gamma    90

_symmetry_Int_Tables_number  139
_chemical_formula_structural  Al2Ru
_chemical_formula_sum  Al2Ru
_cell_volume  42.2952254446074
_cell_formula_units_Z  1
loop_
  _symmetry_equiv_pos_site_id
 _symmetry_equiv_pos_as_xyz
 1  'x, y, z'
loop_
 _atom_site_type_symbol
 _atom_site_label
 _atom_site_symmetry_multiplicity
 _atom_site_fract_x
 _atom_site_fract_y
 _atom_site_fract_z
 _atom_site_fract_occupancy
 Al  Al1  1  0.65913  0.65913  0.31825  1
 Al  Al2  1  0.34087  0.34087  0.68175  1
 Ru  Ru1  1  0.00000  0.00000  0.00000  1
