CIF file written using JARVIS-Tools package.
data_SrAl2Te4
_symmetry_space_group_name_H-M  'I422'
_cell_length_a       6.74968
_cell_length_b       6.78657
_cell_length_c       6.78657
_cell_angle_alpha    75.6829
_cell_angle_beta     60.1803
_cell_angle_gamma    60.1803

_symmetry_Int_Tables_number  97
_chemical_formula_structural  SrAl2Te4
_chemical_formula_sum  SrAl2Te4
_cell_volume  234.00119350872131
_cell_formula_units_Z  1
loop_
  _symmetry_equiv_pos_site_id
 _symmetry_equiv_pos_as_xyz
 1  'x, y, z'
loop_
 _atom_site_type_symbol
 _atom_site_label
 _atom_site_symmetry_multiplicity
 _atom_site_fract_x
 _atom_site_fract_y
 _atom_site_fract_z
 _atom_site_fract_occupancy
 Al  Al1  1  0.25000  0.50001  0.49999  1
 Al  Al2  1  0.75000  0.49999  0.50001  1
 Sr  Sr1  1  0.75000  0.99999  0.00001  1
 Te  Te1  1  0.17405  0.50000  0.15189  1
 Te  Te2  1  0.32595  0.84811  0.50000  1
 Te  Te3  1  0.67405  0.15189  0.50000  1
 Te  Te4  1  0.82595  0.50000  0.84811  1
