CIF file written using JARVIS-Tools package.
data_Li3Mn5Cu2O12
_symmetry_space_group_name_H-M  'C2'
_cell_length_a       5.0475
_cell_length_b       5.04751
_cell_length_c       9.41461
_cell_angle_alpha    85.7864
_cell_angle_beta     94.2136
_cell_angle_gamma    62.7577

_symmetry_Int_Tables_number  5
_chemical_formula_structural  Li3Mn5Cu2O12
_chemical_formula_sum  Li3Mn5Cu2O2
_cell_volume  211.1196739448732
_cell_formula_units_Z  1
loop_
  _symmetry_equiv_pos_site_id
 _symmetry_equiv_pos_as_xyz
 1  'x, y, z'
loop_
 _atom_site_type_symbol
 _atom_site_label
 _atom_site_symmetry_multiplicity
 _atom_site_fract_x
 _atom_site_fract_y
 _atom_site_fract_z
 _atom_site_fract_occupancy
 Cu  Cu1  1  0.26088  0.26088  0.75000  1
 Cu  Cu2  1  0.75469  0.75469  0.25000  1
 Li  Li1  1  0.31524  0.86063  0.98736  1
 Li  Li2  1  0.86063  0.31524  0.51264  1
 Li  Li3  1  0.91738  0.91738  0.75000  1
 Mn  Mn1  1  0.07719  0.07719  0.25000  1
 Mn  Mn2  1  0.41942  0.41942  0.25000  1
 Mn  Mn3  1  0.57938  0.57938  0.75000  1
 Mn  Mn4  1  0.50698  0.99727  0.50716  1
 Mn  Mn5  1  0.99727  0.50698  0.99284  1
 O  O1  1  0.94213  0.25989  0.86157  1
 O  O2  1  0.08131  0.75301  0.13457  1
 O  O3  1  0.30932  0.16439  0.12240  1
 O  O4  1  0.27595  0.56733  0.86239  1
 O  O5  1  0.16439  0.30932  0.37760  1
 O  O6  1  0.65482  0.80943  0.88238  1
 O  O7  1  0.42593  0.74140  0.35594  1
 O  O8  1  0.75301  0.08131  0.36543  1
 O  O9  1  0.74140  0.42593  0.14406  1
 O  O10  1  0.25989  0.94213  0.63843  1
 O  O11  1  0.56733  0.27595  0.63761  1
 O  O12  1  0.80943  0.65482  0.61762  1
