CIF file written using JARVIS-Tools package.
data_ZnMo2O5
_symmetry_space_group_name_H-M  'Cmcm'
_cell_length_a       3.72989
_cell_length_b       5.6641
_cell_length_c       11.2936
_cell_angle_alpha    90
_cell_angle_beta     90
_cell_angle_gamma    109.224

_symmetry_Int_Tables_number  63
_chemical_formula_structural  ZnMo2O5
_chemical_formula_sum  Zn2Mo4O0
_cell_volume  225.28930417941496
_cell_formula_units_Z  2
loop_
  _symmetry_equiv_pos_site_id
 _symmetry_equiv_pos_as_xyz
 1  'x, y, z'
loop_
 _atom_site_type_symbol
 _atom_site_label
 _atom_site_symmetry_multiplicity
 _atom_site_fract_x
 _atom_site_fract_y
 _atom_site_fract_z
 _atom_site_fract_occupancy
 Mo  Mo1  1  0.18805  0.37611  0.60074  1
 Mo  Mo2  1  0.81195  0.62389  0.39926  1
 Mo  Mo3  1  0.81195  0.62389  0.10074  1
 Mo  Mo4  1  0.18805  0.37611  0.89926  1
 O  O1  1  0.69423  0.38846  0.25000  1
 O  O2  1  0.30577  0.61154  0.75000  1
 O  O3  1  0.23969  0.47938  0.07578  1
 O  O4  1  0.76031  0.52062  0.92422  1
 O  O5  1  0.76031  0.52062  0.57578  1
 O  O6  1  0.23969  0.47938  0.42422  1
 O  O7  1  0.02794  0.05588  0.62582  1
 O  O8  1  0.97206  0.94412  0.37418  1
 O  O9  1  0.02794  0.05588  0.87418  1
 O  O10  1  0.97206  0.94412  0.12582  1
 Zn  Zn1  1  0.88962  0.77925  0.75000  1
 Zn  Zn2  1  0.11038  0.22076  0.25000  1
