CIF file written using JARVIS-Tools package.
data_Rb3Ge4Au
_symmetry_space_group_name_H-M  'Pmmn'
_cell_length_a       6.20022
_cell_length_b       6.89075
_cell_length_c       12.38
_cell_angle_alpha    90
_cell_angle_beta     90
_cell_angle_gamma    90

_symmetry_Int_Tables_number  59
_chemical_formula_structural  Rb3Ge4Au
_chemical_formula_sum  Rb6Ge8Au2
_cell_volume  528.9248941868652
_cell_formula_units_Z  2
loop_
  _symmetry_equiv_pos_site_id
 _symmetry_equiv_pos_as_xyz
 1  'x, y, z'
loop_
 _atom_site_type_symbol
 _atom_site_label
 _atom_site_symmetry_multiplicity
 _atom_site_fract_x
 _atom_site_fract_y
 _atom_site_fract_z
 _atom_site_fract_occupancy
 Au  Au1  1  0.68936  0.50000  0.50000  1
 Au  Au2  1  0.31064  0.00000  0.00000  1
 Ge  Ge1  1  0.32702  0.50000  0.61364  1
 Ge  Ge2  1  0.32702  0.50000  0.38636  1
 Ge  Ge3  1  0.05796  0.29880  0.50000  1
 Ge  Ge4  1  0.05796  0.70120  0.50000  1
 Ge  Ge5  1  0.94204  0.79880  0.00000  1
 Ge  Ge6  1  0.94204  0.20120  0.00000  1
 Ge  Ge7  1  0.67298  0.00000  0.88636  1
 Ge  Ge8  1  0.67298  0.00000  0.11364  1
 Rb  Rb1  1  0.42654  0.50000  0.00000  1
 Rb  Rb2  1  0.57346  0.00000  0.50000  1
 Rb  Rb3  1  0.16785  0.00000  0.26509  1
 Rb  Rb4  1  0.16785  0.00000  0.73491  1
 Rb  Rb5  1  0.83215  0.50000  0.23491  1
 Rb  Rb6  1  0.83215  0.50000  0.76509  1
