CIF file written using JARVIS-Tools package.
data_Hf2Cd
_symmetry_space_group_name_H-M  'I4/mmm'
_cell_length_a       3.07277
_cell_length_b       3.07277
_cell_length_c       7.18359
_cell_angle_alpha    102.349
_cell_angle_beta     102.349
_cell_angle_gamma    90

_symmetry_Int_Tables_number  139
_chemical_formula_structural  Hf2Cd
_chemical_formula_sum  Hf2Cd
_cell_volume  64.64993129204272
_cell_formula_units_Z  1
loop_
  _symmetry_equiv_pos_site_id
 _symmetry_equiv_pos_as_xyz
 1  'x, y, z'
loop_
 _atom_site_type_symbol
 _atom_site_label
 _atom_site_symmetry_multiplicity
 _atom_site_fract_x
 _atom_site_fract_y
 _atom_site_fract_z
 _atom_site_fract_occupancy
 Cd  Cd1  1  0.00000  0.00000  0.00000  1
 Hf  Hf1  1  0.67180  0.67180  0.34361  1
 Hf  Hf2  1  0.32820  0.32820  0.65639  1
