CIF file written using JARVIS-Tools package.
data_Mg9Sn5
_symmetry_space_group_name_H-M  'R-3'
_cell_length_a       8.85798
_cell_length_b       8.85798
_cell_length_c       8.85797
_cell_angle_alpha    96.8114
_cell_angle_beta     96.8114
_cell_angle_gamma    96.8114

_symmetry_Int_Tables_number  148
_chemical_formula_structural  Mg9Sn5
_chemical_formula_sum  Mg8Sn0
_cell_volume  679.0214712183855
_cell_formula_units_Z  2
loop_
  _symmetry_equiv_pos_site_id
 _symmetry_equiv_pos_as_xyz
 1  'x, y, z'
loop_
 _atom_site_type_symbol
 _atom_site_label
 _atom_site_symmetry_multiplicity
 _atom_site_fract_x
 _atom_site_fract_y
 _atom_site_fract_z
 _atom_site_fract_occupancy
 Mg  Mg1  1  0.65088  0.33920  0.24718  1
 Mg  Mg2  1  0.39243  0.02148  0.32480  1
 Mg  Mg3  1  0.33920  0.24718  0.65088  1
 Mg  Mg4  1  0.24718  0.65088  0.33920  1
 Mg  Mg5  1  0.33903  0.65071  0.74273  1
 Mg  Mg6  1  0.74273  0.33903  0.65071  1
 Mg  Mg7  1  0.02148  0.32480  0.39243  1
 Mg  Mg8  1  0.32480  0.39243  0.02148  1
 Mg  Mg9  1  0.67088  0.98920  0.07154  1
 Mg  Mg10  1  0.65071  0.74273  0.33903  1
 Mg  Mg11  1  0.31910  0.00072  0.91842  1
 Mg  Mg12  1  0.91842  0.31910  0.00072  1
 Mg  Mg13  1  0.00072  0.91842  0.31910  1
 Mg  Mg14  1  0.07154  0.67088  0.98920  1
 Mg  Mg15  1  0.98920  0.07154  0.67088  1
 Mg  Mg16  1  0.59746  0.96841  0.66513  1
 Mg  Mg17  1  0.66513  0.59746  0.96841  1
 Mg  Mg18  1  0.96841  0.66513  0.59746  1
 Sn  Sn1  1  0.90687  0.58344  0.24497  1
 Sn  Sn2  1  0.12683  0.12683  0.12683  1
 Sn  Sn3  1  0.62645  0.62645  0.62645  1
 Sn  Sn4  1  0.86312  0.86312  0.86312  1
 Sn  Sn5  1  0.24497  0.90687  0.58344  1
 Sn  Sn6  1  0.08305  0.40651  0.74494  1
 Sn  Sn7  1  0.40651  0.74494  0.08305  1
 Sn  Sn8  1  0.36350  0.36350  0.36350  1
 Sn  Sn9  1  0.74494  0.08305  0.40651  1
 Sn  Sn10  1  0.58344  0.24497  0.90687  1
