CIF file written using JARVIS-Tools package.
data_Ac2S3
_symmetry_space_group_name_H-M  'R-3c'
_cell_length_a       7.61765
_cell_length_b       7.61764
_cell_length_c       7.82938
_cell_angle_alpha    119.109
_cell_angle_beta     60.8907
_cell_angle_gamma    120

_symmetry_Int_Tables_number  167
_chemical_formula_structural  Ac2S3
_chemical_formula_sum  Ac4S6
_cell_volume  325.51557447533537
_cell_formula_units_Z  2
loop_
  _symmetry_equiv_pos_site_id
 _symmetry_equiv_pos_as_xyz
 1  'x, y, z'
loop_
 _atom_site_type_symbol
 _atom_site_label
 _atom_site_symmetry_multiplicity
 _atom_site_fract_x
 _atom_site_fract_y
 _atom_site_fract_z
 _atom_site_fract_occupancy
 Ac  Ac1  1  0.64254  0.35746  0.07239  1
 Ac  Ac2  1  0.85746  0.14254  0.42761  1
 Ac  Ac3  1  0.14254  0.85746  0.57239  1
 Ac  Ac4  1  0.35746  0.64254  0.92761  1
 S  S1  1  0.53927  0.75000  0.25000  1
 S  S2  1  0.25000  0.03927  0.25000  1
 S  S3  1  0.96073  0.46073  0.25000  1
 S  S4  1  0.03927  0.53927  0.75000  1
 S  S5  1  0.75000  0.96073  0.75000  1
 S  S6  1  0.46073  0.25000  0.75000  1
