CIF file written using JARVIS-Tools package.
data_HoCuS2
_symmetry_space_group_name_H-M  'Pnma'
_cell_length_a       3.94002
_cell_length_b       6.25136
_cell_length_c       13.3206
_cell_angle_alpha    90
_cell_angle_beta     90
_cell_angle_gamma    90

_symmetry_Int_Tables_number  62
_chemical_formula_structural  HoCuS2
_chemical_formula_sum  Ho4Cu4S8
_cell_volume  328.0930193835589
_cell_formula_units_Z  4
loop_
  _symmetry_equiv_pos_site_id
 _symmetry_equiv_pos_as_xyz
 1  'x, y, z'
loop_
 _atom_site_type_symbol
 _atom_site_label
 _atom_site_symmetry_multiplicity
 _atom_site_fract_x
 _atom_site_fract_y
 _atom_site_fract_z
 _atom_site_fract_occupancy
 Cu  Cu1  1  0.74953  0.37219  0.54676  1
 Cu  Cu2  1  0.24953  0.12781  0.45324  1
 Cu  Cu3  1  0.25047  0.87219  0.95324  1
 Cu  Cu4  1  0.75047  0.62781  0.04676  1
 Ho  Ho1  1  0.25028  0.25113  0.13358  1
 Ho  Ho2  1  0.75028  0.24887  0.86642  1
 Ho  Ho3  1  0.24972  0.74887  0.63358  1
 Ho  Ho4  1  0.74972  0.75113  0.36642  1
 S  S1  1  0.24970  0.50610  0.45930  1
 S  S2  1  0.75027  0.48755  0.20673  1
 S  S3  1  0.25027  0.01245  0.79327  1
 S  S4  1  0.24973  0.98755  0.29327  1
 S  S5  1  0.25030  0.49390  0.95930  1
 S  S6  1  0.74970  0.99390  0.54070  1
 S  S7  1  0.74973  0.51245  0.70673  1
 S  S8  1  0.75030  0.00610  0.04070  1
