CIF file written using JARVIS-Tools package.
data_MgMo2O4
_symmetry_space_group_name_H-M  'R3m'
_cell_length_a       6.36683
_cell_length_b       5.85972
_cell_length_c       5.85973
_cell_angle_alpha    60
_cell_angle_beta     62.6016
_cell_angle_gamma    62.6015

_symmetry_Int_Tables_number  160
_chemical_formula_structural  MgMo2O4
_chemical_formula_sum  Mg2Mo4O8
_cell_volume  160.38559244916115
_cell_formula_units_Z  2
loop_
  _symmetry_equiv_pos_site_id
 _symmetry_equiv_pos_as_xyz
 1  'x, y, z'
loop_
 _atom_site_type_symbol
 _atom_site_label
 _atom_site_symmetry_multiplicity
 _atom_site_fract_x
 _atom_site_fract_y
 _atom_site_fract_z
 _atom_site_fract_occupancy
 Mg  Mg1  1  0.98658  0.00447  0.00447  1
 Mg  Mg2  1  0.14955  0.61682  0.61682  1
 Mo  Mo1  1  0.19877  0.26708  0.26708  1
 Mo  Mo2  1  0.62197  0.08105  0.64849  1
 Mo  Mo3  1  0.62197  0.64849  0.08105  1
 Mo  Mo4  1  0.62197  0.64849  0.64849  1
 O  O1  1  0.40197  0.37135  0.37135  1
 O  O2  1  0.40197  0.37135  0.85534  1
 O  O3  1  0.40197  0.85534  0.37135  1
 O  O4  1  0.81828  0.39391  0.39391  1
 O  O5  1  0.35127  0.88291  0.88291  1
 O  O6  1  0.89125  0.40109  0.85383  1
 O  O7  1  0.89125  0.85383  0.40109  1
 O  O8  1  0.89125  0.85383  0.85383  1
