CIF file written using JARVIS-Tools package.
data_BaH4O3
_symmetry_space_group_name_H-M  'P2_1/m'
_cell_length_a       6.28336
_cell_length_b       4.18174
_cell_length_c       7.1407
_cell_angle_alpha    90
_cell_angle_beta     113.436
_cell_angle_gamma    90

_symmetry_Int_Tables_number  11
_chemical_formula_structural  BaH4O3
_chemical_formula_sum  Ba2H8O6
_cell_volume  172.14617924445744
_cell_formula_units_Z  2
loop_
  _symmetry_equiv_pos_site_id
 _symmetry_equiv_pos_as_xyz
 1  'x, y, z'
loop_
 _atom_site_type_symbol
 _atom_site_label
 _atom_site_symmetry_multiplicity
 _atom_site_fract_x
 _atom_site_fract_y
 _atom_site_fract_z
 _atom_site_fract_occupancy
 Ba  Ba1  1  0.86306  0.25000  0.71291  1
 Ba  Ba2  1  0.13694  0.75000  0.28709  1
 H  H1  1  0.61793  0.75000  0.89001  1
 H  H2  1  0.38207  0.25000  0.10999  1
 H  H3  1  0.24778  0.75000  0.86764  1
 H  H4  1  0.75222  0.25000  0.13236  1
 H  H5  1  0.67396  0.55704  0.32513  1
 H  H6  1  0.67396  0.94296  0.32513  1
 H  H7  1  0.32604  0.44296  0.67487  1
 H  H8  1  0.32604  0.05704  0.67487  1
 O  O1  1  0.61795  0.75000  0.38090  1
 O  O2  1  0.38205  0.25000  0.61910  1
 O  O3  1  0.78376  0.75000  0.91996  1
 O  O4  1  0.21624  0.25000  0.08004  1
 O  O5  1  0.19744  0.75000  0.71895  1
 O  O6  1  0.80256  0.25000  0.28105  1
