CIF file written using JARVIS-Tools package.
data_YMn2O4
_symmetry_space_group_name_H-M  'I4_1/a'
_cell_length_a       5.69193
_cell_length_b       5.6918
_cell_length_c       6.3274
_cell_angle_alpha    116.73
_cell_angle_beta     116.73
_cell_angle_gamma    89.9994

_symmetry_Int_Tables_number  88
_chemical_formula_structural  YMn2O4
_chemical_formula_sum  Y2Mn4O8
_cell_volume  158.17425028079654
_cell_formula_units_Z  2
loop_
  _symmetry_equiv_pos_site_id
 _symmetry_equiv_pos_as_xyz
 1  'x, y, z'
loop_
 _atom_site_type_symbol
 _atom_site_label
 _atom_site_symmetry_multiplicity
 _atom_site_fract_x
 _atom_site_fract_y
 _atom_site_fract_z
 _atom_site_fract_occupancy
 Mn  Mn1  1  0.50000  0.00000  0.00000  1
 Mn  Mn2  1  0.50000  0.50000  0.00000  1
 Mn  Mn3  1  -0.00000  0.50000  0.50000  1
 Mn  Mn4  1  0.50000  0.50000  0.50000  1
 O  O1  1  0.72051  0.52309  0.85101  1
 O  O2  1  0.13050  0.82791  0.85101  1
 O  O3  1  0.27949  0.47691  0.14899  1
 O  O4  1  0.86950  0.17209  0.14899  1
 O  O5  1  0.52309  0.13050  0.35101  1
 O  O6  1  0.82792  0.72052  0.35101  1
 O  O7  1  0.17208  0.27948  0.64899  1
 O  O8  1  0.47691  0.86950  0.64899  1
 Y  Y1  1  0.87500  0.12500  0.75000  1
 Y  Y2  1  0.12500  0.87500  0.25000  1
