CIF file written using JARVIS-Tools package.
data_BaNa6O4
_symmetry_space_group_name_H-M  'P4_2/nmc'
_cell_length_a       8.09123
_cell_length_b       8.09123
_cell_length_c       5.66256
_cell_angle_alpha    90
_cell_angle_beta     90
_cell_angle_gamma    90

_symmetry_Int_Tables_number  137
_chemical_formula_structural  BaNa6O4
_chemical_formula_sum  Ba2Na2O8
_cell_volume  370.71601735646675
_cell_formula_units_Z  2
loop_
  _symmetry_equiv_pos_site_id
 _symmetry_equiv_pos_as_xyz
 1  'x, y, z'
loop_
 _atom_site_type_symbol
 _atom_site_label
 _atom_site_symmetry_multiplicity
 _atom_site_fract_x
 _atom_site_fract_y
 _atom_site_fract_z
 _atom_site_fract_occupancy
 Ba  Ba1  1  0.50000  0.50000  0.00000  1
 Ba  Ba2  1  0.00000  0.00000  0.50000  1
 Na  Na1  1  0.28642  0.28642  0.50000  1
 Na  Na2  1  0.71358  0.71358  0.50000  1
 Na  Na3  1  0.71358  0.28642  0.50000  1
 Na  Na4  1  0.50000  0.00000  0.01698  1
 Na  Na5  1  0.28642  0.71358  0.50000  1
 Na  Na6  1  0.50000  0.00000  0.51698  1
 Na  Na7  1  0.21358  0.21358  0.00000  1
 Na  Na8  1  0.21358  0.78642  0.00000  1
 Na  Na9  1  0.00000  0.50000  0.48302  1
 Na  Na10  1  0.78642  0.21358  0.00000  1
 Na  Na11  1  0.78642  0.78642  0.00000  1
 Na  Na12  1  0.00000  0.50000  0.98302  1
 O  O1  1  0.00000  0.26944  0.73488  1
 O  O2  1  0.00000  0.73056  0.73488  1
 O  O3  1  0.73056  0.00000  0.26512  1
 O  O4  1  0.50000  0.23056  0.76512  1
 O  O5  1  0.50000  0.76944  0.76512  1
 O  O6  1  0.26944  0.00000  0.26512  1
 O  O7  1  0.23056  0.50000  0.23488  1
 O  O8  1  0.76944  0.50000  0.23488  1
