CIF file written using JARVIS-Tools package.
data_YCr2O4
_symmetry_space_group_name_H-M  'I4_1/a'
_cell_length_a       5.67423
_cell_length_b       5.67407
_cell_length_c       6.36328
_cell_angle_alpha    116.475
_cell_angle_beta     116.475
_cell_angle_gamma    90.0057

_symmetry_Int_Tables_number  88
_chemical_formula_structural  YCr2O4
_chemical_formula_sum  Y2Cr4O8
_cell_volume  159.01916809893294
_cell_formula_units_Z  2
loop_
  _symmetry_equiv_pos_site_id
 _symmetry_equiv_pos_as_xyz
 1  'x, y, z'
loop_
 _atom_site_type_symbol
 _atom_site_label
 _atom_site_symmetry_multiplicity
 _atom_site_fract_x
 _atom_site_fract_y
 _atom_site_fract_z
 _atom_site_fract_occupancy
 Cr  Cr1  1  0.50000  -0.00000  0.00000  1
 Cr  Cr2  1  0.50000  0.50000  0.00000  1
 Cr  Cr3  1  0.00000  0.50000  0.50000  1
 Cr  Cr4  1  0.50000  0.50000  0.50000  1
 O  O1  1  0.72345  0.52426  0.85139  1
 O  O2  1  0.12792  0.82712  0.85138  1
 O  O3  1  0.27655  0.47574  0.14861  1
 O  O4  1  0.87208  0.17288  0.14862  1
 O  O5  1  0.52429  0.12794  0.35138  1
 O  O6  1  0.82710  0.72344  0.35138  1
 O  O7  1  0.17290  0.27656  0.64862  1
 O  O8  1  0.47571  0.87206  0.64862  1
 Y  Y1  1  0.87500  0.12500  0.75000  1
 Y  Y2  1  0.12500  0.87500  0.25000  1
