CIF file written using JARVIS-Tools package.
data_TiBi2O6
_symmetry_space_group_name_H-M  'Cm'
_cell_length_a       3.77901
_cell_length_b       3.77896
_cell_length_c       9.13763
_cell_angle_alpha    94.0081
_cell_angle_beta     94.0057
_cell_angle_gamma    75.414

_symmetry_Int_Tables_number  8
_chemical_formula_structural  TiBi2O6
_chemical_formula_sum  TiBi2O6
_cell_volume  125.79286645970377
_cell_formula_units_Z  1
loop_
  _symmetry_equiv_pos_site_id
 _symmetry_equiv_pos_as_xyz
 1  'x, y, z'
loop_
 _atom_site_type_symbol
 _atom_site_label
 _atom_site_symmetry_multiplicity
 _atom_site_fract_x
 _atom_site_fract_y
 _atom_site_fract_z
 _atom_site_fract_occupancy
 Bi  Bi1  1  0.03110  0.03116  0.47213  1
 Bi  Bi2  1  0.15132  0.15126  0.09744  1
 O  O1  1  0.43525  0.43524  0.59554  1
 O  O2  1  0.99308  0.49760  0.32145  1
 O  O3  1  0.45853  0.96867  0.83564  1
 O  O4  1  0.49760  0.99310  0.32144  1
 O  O5  1  0.49822  0.49818  0.05352  1
 O  O6  1  0.96865  0.45856  0.83564  1
 Ti  Ti1  1  0.46625  0.46624  0.79633  1
