CIF file written using JARVIS-Tools package.
data_OsC2
_symmetry_space_group_name_H-M  'P-6m2'
_cell_length_a       2.88519
_cell_length_b       2.88519
_cell_length_c       4.01376
_cell_angle_alpha    90
_cell_angle_beta     90
_cell_angle_gamma    120

_symmetry_Int_Tables_number  187
_chemical_formula_structural  OsC2
_chemical_formula_sum  OsC2
_cell_volume  28.935514747367865
_cell_formula_units_Z  1
loop_
  _symmetry_equiv_pos_site_id
 _symmetry_equiv_pos_as_xyz
 1  'x, y, z'
loop_
 _atom_site_type_symbol
 _atom_site_label
 _atom_site_symmetry_multiplicity
 _atom_site_fract_x
 _atom_site_fract_y
 _atom_site_fract_z
 _atom_site_fract_occupancy
 C  C1  1  0.00000  0.00000  0.82071  1
 C  C2  1  0.00000  0.00000  0.17929  1
 Os  Os1  1  0.66667  0.33333  0.50000  1
