CIF file written using JARVIS-Tools package.
data_Rb2Cu2SnS4
_symmetry_space_group_name_H-M  'Ibam'
_cell_length_a       5.50043
_cell_length_b       9.37832
_cell_length_c       9.37832
_cell_angle_alpha    76.279
_cell_angle_beta     72.9472
_cell_angle_gamma    72.9472

_symmetry_Int_Tables_number  72
_chemical_formula_structural  Rb2Cu2SnS4
_chemical_formula_sum  Rb4Cu4Sn2S8
_cell_volume  436.08372132291095
_cell_formula_units_Z  2
loop_
  _symmetry_equiv_pos_site_id
 _symmetry_equiv_pos_as_xyz
 1  'x, y, z'
loop_
 _atom_site_type_symbol
 _atom_site_label
 _atom_site_symmetry_multiplicity
 _atom_site_fract_x
 _atom_site_fract_y
 _atom_site_fract_z
 _atom_site_fract_occupancy
 Cu  Cu1  1  0.25000  0.03146  0.46854  1
 Cu  Cu2  1  0.75000  0.53146  0.96854  1
 Cu  Cu3  1  0.75000  0.96854  0.53146  1
 Cu  Cu4  1  0.25000  0.46854  0.03146  1
 Rb  Rb1  1  0.22851  0.37610  0.62390  1
 Rb  Rb2  1  0.72851  0.12390  0.87610  1
 Rb  Rb3  1  0.27149  0.87610  0.12390  1
 Rb  Rb4  1  0.77149  0.62390  0.37610  1
 S  S1  1  0.58494  0.51434  0.77642  1
 S  S2  1  0.37570  0.98566  0.72358  1
 S  S3  1  0.08494  0.27642  0.01434  1
 S  S4  1  0.87570  0.22358  0.48566  1
 S  S5  1  0.91506  0.72358  0.98566  1
 S  S6  1  0.41506  0.48566  0.22358  1
 S  S7  1  0.12430  0.77642  0.51434  1
 S  S8  1  0.62430  0.01434  0.27642  1
 Sn  Sn1  1  0.25000  0.75000  0.75000  1
 Sn  Sn2  1  0.75000  0.25000  0.25000  1
