CIF file written using JARVIS-Tools package.
data_ZnCr2O5
_symmetry_space_group_name_H-M  'Cmcm'
_cell_length_a       3.58337
_cell_length_b       5.30712
_cell_length_c       11.3494
_cell_angle_alpha    90
_cell_angle_beta     90
_cell_angle_gamma    109.731

_symmetry_Int_Tables_number  63
_chemical_formula_structural  ZnCr2O5
_chemical_formula_sum  Zn2Cr4O0
_cell_volume  203.16445867625615
_cell_formula_units_Z  2
loop_
  _symmetry_equiv_pos_site_id
 _symmetry_equiv_pos_as_xyz
 1  'x, y, z'
loop_
 _atom_site_type_symbol
 _atom_site_label
 _atom_site_symmetry_multiplicity
 _atom_site_fract_x
 _atom_site_fract_y
 _atom_site_fract_z
 _atom_site_fract_occupancy
 Cr  Cr1  1  0.21288  0.42577  0.59741  1
 Cr  Cr2  1  0.78712  0.57423  0.40259  1
 Cr  Cr3  1  0.78712  0.57423  0.09741  1
 Cr  Cr4  1  0.21288  0.42577  0.90259  1
 O  O1  1  0.69559  0.39117  0.25000  1
 O  O2  1  0.30441  0.60883  0.75000  1
 O  O3  1  0.22791  0.45581  0.07390  1
 O  O4  1  0.77210  0.54419  0.92610  1
 O  O5  1  0.77210  0.54419  0.57390  1
 O  O6  1  0.22791  0.45581  0.42610  1
 O  O7  1  0.04949  0.09897  0.62638  1
 O  O8  1  0.95051  0.90103  0.37362  1
 O  O9  1  0.04949  0.09897  0.87362  1
 O  O10  1  0.95051  0.90103  0.12638  1
 Zn  Zn1  1  0.91172  0.82344  0.75000  1
 Zn  Zn2  1  0.08828  0.17656  0.25000  1
