CIF file written using JARVIS-Tools package.
data_Mn2ZnO4
_symmetry_space_group_name_H-M  'R3m'
_cell_length_a       5.98306
_cell_length_b       5.95397
_cell_length_c       5.95396
_cell_angle_alpha    60
_cell_angle_beta     60.1607
_cell_angle_gamma    60.1607

_symmetry_Int_Tables_number  160
_chemical_formula_structural  Mn2ZnO4
_chemical_formula_sum  Mn4Zn2O8
_cell_volume  150.33910264283895
_cell_formula_units_Z  2
loop_
  _symmetry_equiv_pos_site_id
 _symmetry_equiv_pos_as_xyz
 1  'x, y, z'
loop_
 _atom_site_type_symbol
 _atom_site_label
 _atom_site_symmetry_multiplicity
 _atom_site_fract_x
 _atom_site_fract_y
 _atom_site_fract_z
 _atom_site_fract_occupancy
 Mn  Mn1  1  0.26519  0.24494  0.24494  1
 Mn  Mn2  1  0.62467  0.12734  0.62400  1
 Mn  Mn3  1  0.62467  0.62400  0.12734  1
 Mn  Mn4  1  0.62467  0.62400  0.62400  1
 O  O1  1  0.41169  0.37741  0.37741  1
 O  O2  1  0.41169  0.37741  0.83350  1
 O  O3  1  0.41169  0.83350  0.37741  1
 O  O4  1  0.86165  0.37945  0.37945  1
 O  O5  1  0.39215  0.86928  0.86928  1
 O  O6  1  0.83797  0.41538  0.87333  1
 O  O7  1  0.83797  0.87333  0.41538  1
 O  O8  1  0.83797  0.87333  0.87333  1
 Zn  Zn1  1  0.98631  0.00456  0.00456  1
 Zn  Zn2  1  0.12175  0.62608  0.62608  1
