CIF file written using JARVIS-Tools package.
data_Li5AgF8
_symmetry_space_group_name_H-M  'R-3m'
_cell_length_a       5.86904
_cell_length_b       5.99502
_cell_length_c       5.86904
_cell_angle_alpha    119.307
_cell_angle_beta     120
_cell_angle_gamma    90

_symmetry_Int_Tables_number  166
_chemical_formula_structural  Li5AgF8
_chemical_formula_sum  Li5AgF8
_cell_volume  147.52942076939104
_cell_formula_units_Z  1
loop_
  _symmetry_equiv_pos_site_id
 _symmetry_equiv_pos_as_xyz
 1  'x, y, z'
loop_
 _atom_site_type_symbol
 _atom_site_label
 _atom_site_symmetry_multiplicity
 _atom_site_fract_x
 _atom_site_fract_y
 _atom_site_fract_z
 _atom_site_fract_occupancy
 Ag  Ag1  1  0.50000  0.50000  0.00000  1
 F  F1  1  0.25813  0.75640  0.00727  1
 F  F2  1  0.26334  0.79003  0.52668  1
 F  F3  1  0.74914  0.75640  0.00727  1
 F  F4  1  0.74914  0.75640  0.49827  1
 F  F5  1  0.25086  0.24360  0.50173  1
 F  F6  1  0.25086  0.24360  0.99273  1
 F  F7  1  0.73666  0.20997  0.47332  1
 F  F8  1  0.74187  0.24360  0.99273  1
 Li  Li1  1  0.13837  0.41512  0.27675  1
 Li  Li2  1  0.50000  -0.00000  -0.00000  1
 Li  Li3  1  0.00000  -0.00000  0.50000  1
 Li  Li4  1  0.86163  0.58488  0.72325  1
 Li  Li5  1  0.50000  -0.00000  0.50000  1
