CIF file written using JARVIS-Tools package.
data_ZnCu2O4
_symmetry_space_group_name_H-M  'Imma'
_cell_length_a       5.91745
_cell_length_b       5.91745
_cell_length_c       5.94551
_cell_angle_alpha    59.8431
_cell_angle_beta     59.8431
_cell_angle_gamma    59.8475

_symmetry_Int_Tables_number  74
_chemical_formula_structural  ZnCu2O4
_chemical_formula_sum  Zn2Cu4O8
_cell_volume  146.69285831305626
_cell_formula_units_Z  2
loop_
  _symmetry_equiv_pos_site_id
 _symmetry_equiv_pos_as_xyz
 1  'x, y, z'
loop_
 _atom_site_type_symbol
 _atom_site_label
 _atom_site_symmetry_multiplicity
 _atom_site_fract_x
 _atom_site_fract_y
 _atom_site_fract_z
 _atom_site_fract_occupancy
 Cu  Cu1  1  0.99229  0.99229  0.00771  1
 Cu  Cu2  1  0.25771  0.25771  0.24229  1
 Cu  Cu3  1  0.62500  0.62500  0.12500  1
 Cu  Cu4  1  0.62500  0.62500  0.62500  1
 O  O1  1  0.39494  0.39494  0.36714  1
 O  O2  1  0.39345  0.85958  0.37349  1
 O  O3  1  0.39494  0.39494  0.84298  1
 O  O4  1  0.85958  0.39345  0.37349  1
 O  O5  1  0.39042  0.85655  0.87651  1
 O  O6  1  0.85655  0.39042  0.87651  1
 O  O7  1  0.85506  0.85506  0.40702  1
 O  O8  1  0.85506  0.85506  0.88286  1
 Zn  Zn1  1  0.12500  0.62500  0.62500  1
 Zn  Zn2  1  0.62500  0.12500  0.62500  1
