CIF file written using JARVIS-Tools package.
data_Ca2Cr3O8
_symmetry_space_group_name_H-M  'C2/m'
_cell_length_a       4.97065
_cell_length_b       5.95022
_cell_length_c       6.27183
_cell_angle_alpha    118.318
_cell_angle_beta     107.419
_cell_angle_gamma    89.9999

_symmetry_Int_Tables_number  12
_chemical_formula_structural  Ca2Cr3O8
_chemical_formula_sum  Ca2Cr3O8
_cell_volume  153.56769955134092
_cell_formula_units_Z  1
loop_
  _symmetry_equiv_pos_site_id
 _symmetry_equiv_pos_as_xyz
 1  'x, y, z'
loop_
 _atom_site_type_symbol
 _atom_site_label
 _atom_site_symmetry_multiplicity
 _atom_site_fract_x
 _atom_site_fract_y
 _atom_site_fract_z
 _atom_site_fract_occupancy
 Ca  Ca1  1  0.66710  0.72641  0.45282  1
 Ca  Ca2  1  0.33290  0.27359  0.54718  1
 Cr  Cr1  1  0.50000  1.00000  0.00000  1
 Cr  Cr2  1  1.00000  0.73872  -0.00000  1
 Cr  Cr3  1  1.00000  0.26128  0.00000  1
 O  O1  1  0.04565  0.39958  0.79916  1
 O  O2  1  0.95435  0.60042  0.20084  1
 O  O3  1  0.09356  0.90118  0.80235  1
 O  O4  1  0.90644  0.09882  0.19765  1
 O  O5  1  0.39240  0.32183  0.20305  1
 O  O6  1  0.39240  0.88122  0.20305  1
 O  O7  1  0.60760  0.11878  0.79695  1
 O  O8  1  0.60760  0.67817  0.79695  1
