CIF file written using JARVIS-Tools package.
data_Na3VO3
_symmetry_space_group_name_H-M  'P2_1/c'
_cell_length_a       6.05365
_cell_length_b       10.6288
_cell_length_c       6.03646
_cell_angle_alpha    90
_cell_angle_beta     91.8234
_cell_angle_gamma    90

_symmetry_Int_Tables_number  14
_chemical_formula_structural  Na3VO3
_chemical_formula_sum  Na2V4O2
_cell_volume  388.20817372286234
_cell_formula_units_Z  4
loop_
  _symmetry_equiv_pos_site_id
 _symmetry_equiv_pos_as_xyz
 1  'x, y, z'
loop_
 _atom_site_type_symbol
 _atom_site_label
 _atom_site_symmetry_multiplicity
 _atom_site_fract_x
 _atom_site_fract_y
 _atom_site_fract_z
 _atom_site_fract_occupancy
 Na  Na1  1  0.91493  0.22121  0.96780  1
 Na  Na2  1  0.08507  0.77879  0.03220  1
 Na  Na3  1  0.14898  0.00631  0.34656  1
 Na  Na4  1  0.58507  0.72121  0.03220  1
 Na  Na5  1  0.48576  0.78830  0.48176  1
 Na  Na6  1  0.64898  0.49369  0.34656  1
 Na  Na7  1  0.01424  0.28830  0.51824  1
 Na  Na8  1  0.51424  0.21170  0.51824  1
 Na  Na9  1  0.41493  0.27879  0.96780  1
 Na  Na10  1  0.98576  0.71170  0.48176  1
 Na  Na11  1  0.85102  0.99369  0.65344  1
 Na  Na12  1  0.35102  0.50631  0.65344  1
 O  O1  1  0.81031  0.13206  0.31412  1
 O  O2  1  0.31806  0.63064  0.27647  1
 O  O3  1  0.18194  0.13064  0.72353  1
 O  O4  1  0.18969  0.86794  0.68588  1
 O  O5  1  0.11223  0.41554  0.89094  1
 O  O6  1  0.88777  0.58446  0.10906  1
 O  O7  1  0.81806  0.86936  0.27647  1
 O  O8  1  0.38777  0.91554  0.10906  1
 O  O9  1  0.68969  0.63206  0.68588  1
 O  O10  1  0.61223  0.08446  0.89094  1
 O  O11  1  0.31031  0.36794  0.31412  1
 O  O12  1  0.68194  0.36936  0.72353  1
 V  V1  1  0.83376  0.50380  0.82891  1
 V  V2  1  0.33376  0.99620  0.82891  1
 V  V3  1  0.16624  0.49620  0.17109  1
 V  V4  1  0.66624  0.00380  0.17109  1
