CIF file written using JARVIS-Tools package.
data_MgVF4
_symmetry_space_group_name_H-M  'P-1'
_cell_length_a       5.0617
_cell_length_b       5.47243
_cell_length_c       5.72269
_cell_angle_alpha    109.39
_cell_angle_beta     108.233
_cell_angle_gamma    91.335

_symmetry_Int_Tables_number  2
_chemical_formula_structural  MgVF4
_chemical_formula_sum  Mg2V2F8
_cell_volume  140.5812121226887
_cell_formula_units_Z  2
loop_
  _symmetry_equiv_pos_site_id
 _symmetry_equiv_pos_as_xyz
 1  'x, y, z'
loop_
 _atom_site_type_symbol
 _atom_site_label
 _atom_site_symmetry_multiplicity
 _atom_site_fract_x
 _atom_site_fract_y
 _atom_site_fract_z
 _atom_site_fract_occupancy
 F  F1  1  0.15002  0.66807  0.74577  1
 F  F2  1  0.28889  0.01902  0.25118  1
 F  F3  1  0.84268  0.33089  0.24924  1
 F  F4  1  0.33816  0.54763  0.31551  1
 F  F5  1  0.70382  0.97994  0.74383  1
 F  F6  1  0.21782  0.21534  0.80107  1
 F  F7  1  0.65453  0.45133  0.67950  1
 F  F8  1  0.77488  0.78363  0.19395  1
 Mg  Mg1  1  0.74230  0.67596  0.48309  1
 Mg  Mg2  1  0.25040  0.32300  0.51192  1
 V  V1  1  0.49635  0.99948  0.99750  1
 V  V2  1  0.99635  0.49949  0.99751  1
