CIF file written using JARVIS-Tools package.
data_Mn3O5F
_symmetry_space_group_name_H-M  'P1'
_cell_length_a       5.32437
_cell_length_b       5.33915
_cell_length_c       6.98885
_cell_angle_alpha    71.4212
_cell_angle_beta     71.4343
_cell_angle_gamma    72.7611

_symmetry_Int_Tables_number  1
_chemical_formula_structural  Mn3O5F
_chemical_formula_sum  Mn6O0F2
_cell_volume  174.27160679737733
_cell_formula_units_Z  2
loop_
  _symmetry_equiv_pos_site_id
 _symmetry_equiv_pos_as_xyz
 1  'x, y, z'
loop_
 _atom_site_type_symbol
 _atom_site_label
 _atom_site_symmetry_multiplicity
 _atom_site_fract_x
 _atom_site_fract_y
 _atom_site_fract_z
 _atom_site_fract_occupancy
 F  F1  1  0.89631  0.89330  0.30408  1
 F  F2  1  0.03630  0.63414  0.66827  1
 Mn  Mn1  1  0.99749  0.00664  0.98933  1
 Mn  Mn2  1  0.00740  0.02596  0.50000  1
 Mn  Mn3  1  0.64857  0.66638  0.84428  1
 Mn  Mn4  1  0.64857  0.65680  0.33347  1
 Mn  Mn5  1  0.36103  0.31650  0.66980  1
 Mn  Mn6  1  0.33195  0.33231  0.16229  1
 O  O1  1  0.69365  0.30459  0.00079  1
 O  O2  1  0.29787  0.69889  0.00000  1
 O  O3  1  0.96755  0.36802  0.32684  1
 O  O4  1  0.43054  0.43226  0.37004  1
 O  O5  1  0.23580  0.23112  0.95963  1
 O  O6  1  0.10780  0.10620  0.70069  1
 O  O7  1  0.56888  0.56310  0.63254  1
 O  O8  1  0.36157  0.97374  0.33200  1
 O  O9  1  0.76141  0.76829  0.03901  1
 O  O10  1  0.64732  0.02175  0.66693  1
