CIF file written using JARVIS-Tools package.
data_MgCo2O4
_symmetry_space_group_name_H-M  'R3m'
_cell_length_a       5.78142
_cell_length_b       5.7816
_cell_length_c       5.7816
_cell_angle_alpha    60
_cell_angle_beta     59.999
_cell_angle_gamma    59.999

_symmetry_Int_Tables_number  160
_chemical_formula_structural  MgCo2O4
_chemical_formula_sum  Mg2Co4O8
_cell_volume  136.6497088072579
_cell_formula_units_Z  2
loop_
  _symmetry_equiv_pos_site_id
 _symmetry_equiv_pos_as_xyz
 1  'x, y, z'
loop_
 _atom_site_type_symbol
 _atom_site_label
 _atom_site_symmetry_multiplicity
 _atom_site_fract_x
 _atom_site_fract_y
 _atom_site_fract_z
 _atom_site_fract_occupancy
 Co  Co1  1  0.25992  0.24669  0.24669  1
 Co  Co2  1  0.62530  0.12315  0.62578  1
 Co  Co3  1  0.62530  0.62578  0.12315  1
 Co  Co4  1  0.62530  0.62578  0.62578  1
 Mg  Mg1  1  0.98480  0.00507  0.00507  1
 Mg  Mg2  1  0.12383  0.62539  0.62539  1
 O  O1  1  0.40413  0.37579  0.37579  1
 O  O2  1  0.40413  0.37579  0.84430  1
 O  O3  1  0.40413  0.84430  0.37579  1
 O  O4  1  0.84108  0.38631  0.38631  1
 O  O5  1  0.41429  0.86190  0.86190  1
 O  O6  1  0.84593  0.41430  0.86989  1
 O  O7  1  0.84593  0.86989  0.41430  1
 O  O8  1  0.84593  0.86989  0.86989  1
