CIF file written using JARVIS-Tools package.
data_RbO3
_symmetry_space_group_name_H-M  'P2_1/c'
_cell_length_a       6.38793
_cell_length_b       5.92514
_cell_length_c       8.75252
_cell_angle_alpha    90
_cell_angle_beta     122.036
_cell_angle_gamma    90

_symmetry_Int_Tables_number  14
_chemical_formula_structural  RbO3
_chemical_formula_sum  Rb4O2
_cell_volume  280.82946195799707
_cell_formula_units_Z  4
loop_
  _symmetry_equiv_pos_site_id
 _symmetry_equiv_pos_as_xyz
 1  'x, y, z'
loop_
 _atom_site_type_symbol
 _atom_site_label
 _atom_site_symmetry_multiplicity
 _atom_site_fract_x
 _atom_site_fract_y
 _atom_site_fract_z
 _atom_site_fract_occupancy
 O  O1  1  0.09499  0.43592  0.78770  1
 O  O2  1  0.90501  0.93592  0.71230  1
 O  O3  1  0.90501  0.56408  0.21230  1
 O  O4  1  0.09499  0.06408  0.28770  1
 O  O5  1  0.28466  0.21226  0.38574  1
 O  O6  1  0.71534  0.71226  0.11426  1
 O  O7  1  0.71534  0.78774  0.61426  1
 O  O8  1  0.28466  0.28774  0.88574  1
 O  O9  1  0.32601  0.25571  0.55390  1
 O  O10  1  0.67399  0.75571  0.94610  1
 O  O11  1  0.67399  0.74429  0.44610  1
 O  O12  1  0.32601  0.24429  0.05390  1
 Rb  Rb1  1  0.22823  0.74705  0.58557  1
 Rb  Rb2  1  0.77177  0.24705  0.91443  1
 Rb  Rb3  1  0.77177  0.25295  0.41443  1
 Rb  Rb4  1  0.22823  0.75295  0.08557  1
