CIF file written using JARVIS-Tools package.
data_YMoO3
_symmetry_space_group_name_H-M  'Pnma'
_cell_length_a       5.27161
_cell_length_b       5.94542
_cell_length_c       7.60775
_cell_angle_alpha    90
_cell_angle_beta     90
_cell_angle_gamma    90

_symmetry_Int_Tables_number  62
_chemical_formula_structural  YMoO3
_chemical_formula_sum  Y4Mo4O2
_cell_volume  238.44165134004388
_cell_formula_units_Z  4
loop_
  _symmetry_equiv_pos_site_id
 _symmetry_equiv_pos_as_xyz
 1  'x, y, z'
loop_
 _atom_site_type_symbol
 _atom_site_label
 _atom_site_symmetry_multiplicity
 _atom_site_fract_x
 _atom_site_fract_y
 _atom_site_fract_z
 _atom_site_fract_occupancy
 Mo  Mo1  1  0.00000  0.50000  0.50000  1
 Mo  Mo2  1  0.50000  0.00000  0.50000  1
 Mo  Mo3  1  0.50000  0.00000  0.00000  1
 Mo  Mo4  1  0.00000  0.50000  0.00000  1
 O  O1  1  0.14079  0.43585  0.25000  1
 O  O2  1  0.68101  0.30327  0.44331  1
 O  O3  1  0.35921  0.93585  0.25000  1
 O  O4  1  0.81899  0.80327  0.05669  1
 O  O5  1  0.31899  0.69673  0.94331  1
 O  O6  1  0.18101  0.19673  0.55669  1
 O  O7  1  0.81899  0.80327  0.44331  1
 O  O8  1  0.85921  0.56415  0.75000  1
 O  O9  1  0.68101  0.30327  0.05669  1
 O  O10  1  0.31899  0.69673  0.55669  1
 O  O11  1  0.64079  0.06415  0.75000  1
 O  O12  1  0.18101  0.19673  0.94331  1
 Y  Y1  1  0.96783  0.07980  0.25000  1
 Y  Y2  1  0.46783  0.42020  0.75000  1
 Y  Y3  1  0.53217  0.57980  0.25000  1
 Y  Y4  1  0.03217  0.92020  0.75000  1
