CIF file written using JARVIS-Tools package.
data_Ba4NaAuO8
_symmetry_space_group_name_H-M  'I4/mmm'
_cell_length_a       5.78658
_cell_length_b       5.78658
_cell_length_c       8.37635
_cell_angle_alpha    110.207
_cell_angle_beta     110.207
_cell_angle_gamma    90

_symmetry_Int_Tables_number  139
_chemical_formula_structural  Ba4NaAuO8
_chemical_formula_sum  Ba4NaAuO8
_cell_volume  244.7370948812409
_cell_formula_units_Z  1
loop_
  _symmetry_equiv_pos_site_id
 _symmetry_equiv_pos_as_xyz
 1  'x, y, z'
loop_
 _atom_site_type_symbol
 _atom_site_label
 _atom_site_symmetry_multiplicity
 _atom_site_fract_x
 _atom_site_fract_y
 _atom_site_fract_z
 _atom_site_fract_occupancy
 Au  Au1  1  0.00000  0.00000  0.00000  1
 Ba  Ba1  1  0.37227  0.87227  0.74455  1
 Ba  Ba2  1  0.87227  0.37227  0.74455  1
 Ba  Ba3  1  0.12773  0.62773  0.25545  1
 Ba  Ba4  1  0.62773  0.12773  0.25545  1
 Na  Na1  1  0.50000  0.50000  0.00000  1
 O  O1  1  0.21710  0.21710  0.43419  1
 O  O2  1  0.32337  0.32337  0.64674  1
 O  O3  1  0.67663  0.67663  0.35326  1
 O  O4  1  0.75854  0.75854  0.00000  1
 O  O5  1  0.78290  0.78290  0.56581  1
 O  O6  1  0.24146  0.24146  -0.00000  1
 O  O7  1  0.24146  0.75854  -0.00000  1
 O  O8  1  0.75854  0.24146  0.00000  1
