CIF file written using JARVIS-Tools package.
data_Co2OF3
_symmetry_space_group_name_H-M  'P2_1/c'
_cell_length_a       5.49909
_cell_length_b       4.60074
_cell_length_c       10.3317
_cell_angle_alpha    90
_cell_angle_beta     95.9377
_cell_angle_gamma    90

_symmetry_Int_Tables_number  14
_chemical_formula_structural  Co2OF3
_chemical_formula_sum  Co8O4F2
_cell_volume  259.98968350127916
_cell_formula_units_Z  4
loop_
  _symmetry_equiv_pos_site_id
 _symmetry_equiv_pos_as_xyz
 1  'x, y, z'
loop_
 _atom_site_type_symbol
 _atom_site_label
 _atom_site_symmetry_multiplicity
 _atom_site_fract_x
 _atom_site_fract_y
 _atom_site_fract_z
 _atom_site_fract_occupancy
 Co  Co1  1  0.50000  0.50000  -0.00000  1
 Co  Co2  1  0.00000  0.50000  0.50000  1
 Co  Co3  1  0.74130  0.53447  0.72744  1
 Co  Co4  1  0.25870  0.46553  0.27256  1
 Co  Co5  1  0.25870  0.03447  0.77256  1
 Co  Co6  1  0.50000  0.00000  0.50000  1
 Co  Co7  1  0.74130  0.96553  0.22744  1
 Co  Co8  1  0.00000  0.00000  0.00000  1
 F  F1  1  0.52787  0.29876  0.17628  1
 F  F2  1  0.02301  0.29640  0.67415  1
 F  F3  1  0.76724  0.30401  0.91418  1
 F  F4  1  0.97699  0.70360  0.32585  1
 F  F5  1  0.23276  0.69599  0.08582  1
 F  F6  1  0.47213  0.70124  0.82372  1
 F  F7  1  0.97699  0.79640  0.82585  1
 F  F8  1  0.76724  0.19599  0.41418  1
 F  F9  1  0.47213  0.79876  0.32372  1
 F  F10  1  0.52787  0.20124  0.67628  1
 F  F11  1  0.02301  0.20360  0.17415  1
 F  F12  1  0.23276  0.80401  0.58582  1
 O  O1  1  0.72018  0.78237  0.06496  1
 O  O2  1  0.27982  0.21763  0.93504  1
 O  O3  1  0.27982  0.28237  0.43504  1
 O  O4  1  0.72018  0.71763  0.56496  1
