CIF file written using JARVIS-Tools package.
data_VZn2SbO6
_symmetry_space_group_name_H-M  'P2_1/m'
_cell_length_a       5.25136
_cell_length_b       7.7207
_cell_length_c       5.28477
_cell_angle_alpha    90
_cell_angle_beta     90.7221
_cell_angle_gamma    90

_symmetry_Int_Tables_number  11
_chemical_formula_structural  VZn2SbO6
_chemical_formula_sum  V2Zn4Sb2O2
_cell_volume  214.249330204753
_cell_formula_units_Z  2
loop_
  _symmetry_equiv_pos_site_id
 _symmetry_equiv_pos_as_xyz
 1  'x, y, z'
loop_
 _atom_site_type_symbol
 _atom_site_label
 _atom_site_symmetry_multiplicity
 _atom_site_fract_x
 _atom_site_fract_y
 _atom_site_fract_z
 _atom_site_fract_occupancy
 O  O1  1  0.60738  0.75000  0.07560  1
 O  O2  1  0.67270  0.43368  0.32336  1
 O  O3  1  0.87051  0.75000  0.58124  1
 O  O4  1  0.32730  0.93368  0.67664  1
 O  O5  1  0.17083  0.56765  0.17837  1
 O  O6  1  0.82917  0.06765  0.82163  1
 O  O7  1  0.17083  0.93235  0.17837  1
 O  O8  1  0.12949  0.25000  0.41876  1
 O  O9  1  0.67270  0.06632  0.32336  1
 O  O10  1  0.39262  0.25000  0.92440  1
 O  O11  1  0.32730  0.56632  0.67664  1
 O  O12  1  0.82917  0.43235  0.82163  1
 Sb  Sb1  1  -0.00000  0.00000  0.50000  1
 Sb  Sb2  1  -0.00000  0.50000  0.50000  1
 V  V1  1  0.50000  0.00000  0.00000  1
 V  V2  1  0.50000  0.50000  0.00000  1
 Zn  Zn1  1  0.02461  0.25000  0.01721  1
 Zn  Zn2  1  0.97539  0.75000  0.98279  1
 Zn  Zn3  1  0.51057  0.25000  0.54993  1
 Zn  Zn4  1  0.48943  0.75000  0.45007  1
