CIF file written using JARVIS-Tools package.
data_CoGe2O6
_symmetry_space_group_name_H-M  'C2/c'
_cell_length_a       5.39419
_cell_length_b       6.57566
_cell_length_c       6.57565
_cell_angle_alpha    81.4448
_cell_angle_beta     73.705
_cell_angle_gamma    73.7051

_symmetry_Int_Tables_number  15
_chemical_formula_structural  CoGe2O6
_chemical_formula_sum  Co2Ge4O2
_cell_volume  214.25687068643518
_cell_formula_units_Z  2
loop_
  _symmetry_equiv_pos_site_id
 _symmetry_equiv_pos_as_xyz
 1  'x, y, z'
loop_
 _atom_site_type_symbol
 _atom_site_label
 _atom_site_symmetry_multiplicity
 _atom_site_fract_x
 _atom_site_fract_y
 _atom_site_fract_z
 _atom_site_fract_occupancy
 Co  Co1  1  0.75000  0.92023  0.07977  1
 Co  Co2  1  0.25000  0.07977  0.92023  1
 Ge  Ge1  1  0.77182  0.39041  0.19731  1
 Ge  Ge2  1  0.72818  0.80269  0.60959  1
 Ge  Ge3  1  0.22818  0.60959  0.80269  1
 Ge  Ge4  1  0.27182  0.19731  0.39041  1
 O  O1  1  0.43196  0.40588  0.32214  1
 O  O2  1  0.06804  0.67786  0.59412  1
 O  O3  1  0.13145  0.82080  0.98514  1
 O  O4  1  -0.06804  0.32214  0.40588  1
 O  O5  1  0.56804  0.59412  0.67786  1
 O  O6  1  0.76280  0.64180  0.05170  1
 O  O7  1  0.73720  0.94830  0.35820  1
 O  O8  1  0.26280  0.05170  0.64180  1
 O  O9  1  0.86855  0.17920  0.01486  1
 O  O10  1  0.63145  0.98514  0.82080  1
 O  O11  1  0.23720  0.35820  0.94830  1
 O  O12  1  0.36855  0.01486  0.17920  1
