CIF file written using JARVIS-Tools package.
data_LiVC2O6
_symmetry_space_group_name_H-M  'R-3'
_cell_length_a       4.65095
_cell_length_b       5.6237
_cell_length_c       4.65095
_cell_angle_alpha    114.426
_cell_angle_beta     60
_cell_angle_gamma    114.426

_symmetry_Int_Tables_number  148
_chemical_formula_structural  LiVC2O6
_chemical_formula_sum  LiVC2O6
_cell_volume  92.56511743778488
_cell_formula_units_Z  1
loop_
  _symmetry_equiv_pos_site_id
 _symmetry_equiv_pos_as_xyz
 1  'x, y, z'
loop_
 _atom_site_type_symbol
 _atom_site_label
 _atom_site_symmetry_multiplicity
 _atom_site_fract_x
 _atom_site_fract_y
 _atom_site_fract_z
 _atom_site_fract_occupancy
 C  C1  1  0.24601  0.73804  0.24601  1
 C  C2  1  0.75399  0.26196  0.75399  1
 Li  Li1  1  0.00000  0.00000  0.00000  1
 O  O1  1  0.03851  0.26196  0.48208  1
 O  O2  1  0.51792  0.73804  0.25863  1
 O  O3  1  0.25863  0.73804  0.96149  1
 O  O4  1  0.74137  0.26196  0.03851  1
 O  O5  1  0.48208  0.26196  0.74137  1
 O  O6  1  0.96149  0.73804  0.51792  1
 V  V1  1  0.50000  0.50000  0.50000  1
