CIF file written using JARVIS-Tools package.
data_Ti2C
_symmetry_space_group_name_H-M  'Fd-3m'
_cell_length_a       6.10058
_cell_length_b       6.10058
_cell_length_c       6.10058
_cell_angle_alpha    60
_cell_angle_beta     60
_cell_angle_gamma    60

_symmetry_Int_Tables_number  227
_chemical_formula_structural  Ti2C
_chemical_formula_sum  Ti8C4
_cell_volume  160.54572651123658
_cell_formula_units_Z  4
loop_
  _symmetry_equiv_pos_site_id
 _symmetry_equiv_pos_as_xyz
 1  'x, y, z'
loop_
 _atom_site_type_symbol
 _atom_site_label
 _atom_site_symmetry_multiplicity
 _atom_site_fract_x
 _atom_site_fract_y
 _atom_site_fract_z
 _atom_site_fract_occupancy
 C  C1  1  -0.00000  0.50000  0.00000  1
 C  C2  1  0.50000  0.00000  0.00000  1
 C  C3  1  0.00000  0.00000  0.50000  1
 C  C4  1  0.00000  0.00000  0.00000  1
 Ti  Ti1  1  0.76663  0.24446  0.24446  1
 Ti  Ti2  1  0.24446  0.76663  0.24446  1
 Ti  Ti3  1  0.24446  0.24446  0.76663  1
 Ti  Ti4  1  0.75554  0.75554  0.75554  1
 Ti  Ti5  1  0.75554  0.23337  0.75554  1
 Ti  Ti6  1  0.23337  0.75554  0.75554  1
 Ti  Ti7  1  0.75554  0.75554  0.23337  1
 Ti  Ti8  1  0.24446  0.24446  0.24446  1
