CIF file written using JARVIS-Tools package.
data_Y2Co2O7
_symmetry_space_group_name_H-M  'R-3m'
_cell_length_a       6.97217
_cell_length_b       6.97212
_cell_length_c       6.98585
_cell_angle_alpha    60.0659
_cell_angle_beta     60.0672
_cell_angle_gamma    60.0015

_symmetry_Int_Tables_number  166
_chemical_formula_structural  Y2Co2O7
_chemical_formula_sum  Y4Co4O4
_cell_volume  240.3687163014987
_cell_formula_units_Z  2
loop_
  _symmetry_equiv_pos_site_id
 _symmetry_equiv_pos_as_xyz
 1  'x, y, z'
loop_
 _atom_site_type_symbol
 _atom_site_label
 _atom_site_symmetry_multiplicity
 _atom_site_fract_x
 _atom_site_fract_y
 _atom_site_fract_z
 _atom_site_fract_occupancy
 Co  Co1  1  0.50000  -0.00000  0.00000  1
 Co  Co2  1  0.00000  0.50000  -0.00000  1
 Co  Co3  1  -0.00000  -0.00000  0.50000  1
 Co  Co4  1  0.00000  0.00000  0.00000  1
 O  O1  1  0.32745  0.32745  0.92307  1
 O  O2  1  0.37529  0.37529  0.37413  1
 O  O3  1  0.62471  0.62471  0.62587  1
 O  O4  1  0.92145  0.32839  0.32871  1
 O  O5  1  0.32839  0.92143  0.32871  1
 O  O6  1  0.67255  0.07794  0.07696  1
 O  O7  1  0.07796  0.67255  0.07694  1
 O  O8  1  0.67255  0.67255  0.07693  1
 O  O9  1  0.32745  0.92206  0.92304  1
 O  O10  1  0.67161  0.07857  0.67129  1
 O  O11  1  0.07855  0.07855  0.67129  1
 O  O12  1  0.92145  0.92145  0.32871  1
 O  O13  1  0.92204  0.32745  0.92306  1
 O  O14  1  0.07855  0.67161  0.67129  1
 Y  Y1  1  0.50000  0.50000  0.50000  1
 Y  Y2  1  0.50000  0.50000  -0.00000  1
 Y  Y3  1  0.50000  -0.00000  0.50000  1
 Y  Y4  1  0.00000  0.50000  0.50000  1
