CIF file written using JARVIS-Tools package.
data_Sc3Si3Ni2
_symmetry_space_group_name_H-M  'Cmcm'
_cell_length_a       3.98415
_cell_length_b       5.23851
_cell_length_c       13.1475
_cell_angle_alpha    90
_cell_angle_beta     90
_cell_angle_gamma    112.351

_symmetry_Int_Tables_number  63
_chemical_formula_structural  Sc3Si3Ni2
_chemical_formula_sum  Sc6Si6Ni4
_cell_volume  253.7865866239695
_cell_formula_units_Z  2
loop_
  _symmetry_equiv_pos_site_id
 _symmetry_equiv_pos_as_xyz
 1  'x, y, z'
loop_
 _atom_site_type_symbol
 _atom_site_label
 _atom_site_symmetry_multiplicity
 _atom_site_fract_x
 _atom_site_fract_y
 _atom_site_fract_z
 _atom_site_fract_occupancy
 Ni  Ni1  1  0.20778  0.41556  0.40273  1
 Ni  Ni2  1  0.79222  0.58444  0.59727  1
 Ni  Ni3  1  0.20778  0.41556  0.09727  1
 Ni  Ni4  1  0.79222  0.58444  0.90273  1
 Sc  Sc1  1  0.08285  0.16570  0.88831  1
 Sc  Sc2  1  0.91715  0.83430  0.11169  1
 Sc  Sc3  1  0.91715  0.83430  0.38831  1
 Sc  Sc4  1  0.36114  0.72228  0.75000  1
 Sc  Sc5  1  0.08285  0.16570  0.61169  1
 Sc  Sc6  1  0.63886  0.27772  0.25000  1
 Si  Si1  1  0.34209  0.68417  0.25000  1
 Si  Si2  1  0.65791  0.31583  0.75000  1
 Si  Si3  1  0.38307  0.76614  0.53909  1
 Si  Si4  1  0.61693  0.23386  0.46091  1
 Si  Si5  1  0.61693  0.23386  0.03909  1
 Si  Si6  1  0.38307  0.76614  0.96091  1
