CIF file written using JARVIS-Tools package.
data_ZnTe
_symmetry_space_group_name_H-M  'F-43m'
_cell_length_a       4.35844
_cell_length_b       4.35844
_cell_length_c       10.6747
_cell_angle_alpha    90
_cell_angle_beta     90
_cell_angle_gamma    120

_symmetry_Int_Tables_number  216
_chemical_formula_structural  ZnTe
_chemical_formula_sum  Zn3Te3
_cell_volume  175.609722768493
_cell_formula_units_Z  3
loop_
  _symmetry_equiv_pos_site_id
 _symmetry_equiv_pos_as_xyz
 1  'x, y, z'
loop_
 _atom_site_type_symbol
 _atom_site_label
 _atom_site_symmetry_multiplicity
 _atom_site_fract_x
 _atom_site_fract_y
 _atom_site_fract_z
 _atom_site_fract_occupancy
 Te  Te1  1  0.33327  -0.00011  0.44333  1
 Te  Te2  1  0.00011  0.33338  0.77666  1
 Te  Te3  1  0.66662  0.66673  0.10999  1
 Zn  Zn1  1  0.33348  0.00003  0.69334  1
 Zn  Zn2  1  0.66655  0.66652  0.36001  1
 Zn  Zn3  1  -0.00003  0.33345  0.02667  1
