CIF file written using JARVIS-Tools package.
data_MgFeF4
_symmetry_space_group_name_H-M  'I-4'
_cell_length_a       4.97598
_cell_length_b       4.97614
_cell_length_c       6.53542
_cell_angle_alpha    112.377
_cell_angle_beta     112.376
_cell_angle_gamma    90.0004

_symmetry_Int_Tables_number  82
_chemical_formula_structural  MgFeF4
_chemical_formula_sum  Mg2Fe2F8
_cell_volume  136.37015823751267
_cell_formula_units_Z  2
loop_
  _symmetry_equiv_pos_site_id
 _symmetry_equiv_pos_as_xyz
 1  'x, y, z'
loop_
 _atom_site_type_symbol
 _atom_site_label
 _atom_site_symmetry_multiplicity
 _atom_site_fract_x
 _atom_site_fract_y
 _atom_site_fract_z
 _atom_site_fract_occupancy
 F  F1  1  0.42429  0.47594  0.34550  1
 F  F2  1  0.09797  0.14598  0.83169  1
 F  F3  1  0.73232  0.68236  0.83173  1
 F  F4  1  0.13056  0.57241  0.65271  1
 F  F5  1  0.91980  0.86611  0.34548  1
 F  F6  1  0.31438  0.89870  0.16650  1
 F  F7  1  0.85073  0.26440  0.16651  1
 F  F8  1  0.52072  0.07689  0.65271  1
 Fe  Fe1  1  0.46676  -0.03419  -0.06503  1
 Fe  Fe2  1  0.03091  0.52992  0.06325  1
 Mg  Mg1  1  0.21525  0.21426  0.43192  1
 Mg  Mg2  1  0.78244  0.78144  0.56629  1
