CIF file written using JARVIS-Tools package.
data_RbAlH8N4
_symmetry_space_group_name_H-M  'P4/n'
_cell_length_a       7.30254
_cell_length_b       7.30254
_cell_length_c       5.01677
_cell_angle_alpha    90
_cell_angle_beta     90
_cell_angle_gamma    90

_symmetry_Int_Tables_number  85
_chemical_formula_structural  RbAlH8N4
_chemical_formula_sum  Rb2Al2H6N8
_cell_volume  267.5297109152622
_cell_formula_units_Z  2
loop_
  _symmetry_equiv_pos_site_id
 _symmetry_equiv_pos_as_xyz
 1  'x, y, z'
loop_
 _atom_site_type_symbol
 _atom_site_label
 _atom_site_symmetry_multiplicity
 _atom_site_fract_x
 _atom_site_fract_y
 _atom_site_fract_z
 _atom_site_fract_occupancy
 Al  Al1  1  0.00000  0.00000  0.00000  1
 Al  Al2  1  0.50000  0.50000  0.00000  1
 H  H1  1  0.33616  0.20876  0.18900  1
 H  H2  1  0.29124  0.83616  0.18900  1
 H  H3  1  0.70876  0.16384  0.18900  1
 H  H4  1  0.86824  0.86503  0.57600  1
 H  H5  1  0.66384  0.79124  0.18900  1
 H  H6  1  0.13497  0.86824  0.42400  1
 H  H7  1  0.86503  0.13176  0.42400  1
 H  H8  1  0.13176  0.13497  0.57600  1
 H  H9  1  0.36824  0.36503  0.42400  1
 H  H10  1  0.20876  0.66384  0.81100  1
 H  H11  1  0.16384  0.29124  0.81100  1
 H  H12  1  0.63497  0.36824  0.57600  1
 H  H13  1  0.36503  0.63176  0.57600  1
 H  H14  1  0.83616  0.70876  0.81100  1
 H  H15  1  0.63176  0.63497  0.42400  1
 H  H16  1  0.79124  0.33616  0.81100  1
 N  N1  1  -0.09114  0.82427  0.76246  1
 N  N2  1  0.59114  0.67573  0.23754  1
 N  N3  1  0.17573  -0.09114  0.23754  1
 N  N4  1  0.82427  0.09114  0.23754  1
 N  N5  1  0.40886  0.32427  0.23754  1
 N  N6  1  0.67573  0.40886  0.76246  1
 N  N7  1  0.32427  0.59114  0.76246  1
 N  N8  1  0.09114  0.17573  0.76246  1
 Rb  Rb1  1  0.00000  0.50000  0.31109  1
 Rb  Rb2  1  0.50000  0.00000  0.68891  1
