CIF file written using JARVIS-Tools package.
data_BaMgPb
_symmetry_space_group_name_H-M  'P4/nmm'
_cell_length_a       5.01295
_cell_length_b       5.01295
_cell_length_c       8.51824
_cell_angle_alpha    90
_cell_angle_beta     90
_cell_angle_gamma    90

_symmetry_Int_Tables_number  129
_chemical_formula_structural  BaMgPb
_chemical_formula_sum  Ba2Mg2Pb2
_cell_volume  214.06061783586608
_cell_formula_units_Z  2
loop_
  _symmetry_equiv_pos_site_id
 _symmetry_equiv_pos_as_xyz
 1  'x, y, z'
loop_
 _atom_site_type_symbol
 _atom_site_label
 _atom_site_symmetry_multiplicity
 _atom_site_fract_x
 _atom_site_fract_y
 _atom_site_fract_z
 _atom_site_fract_occupancy
 Ba  Ba1  1  0.50000  0.50000  0.00000  1
 Ba  Ba2  1  0.00000  0.00000  0.00000  1
 Mg  Mg1  1  0.00000  0.50000  0.35451  1
 Mg  Mg2  1  0.50000  0.00000  0.64549  1
 Pb  Pb1  1  0.00000  0.50000  0.69519  1
 Pb  Pb2  1  0.50000  0.00000  0.30481  1
