CIF file written using JARVIS-Tools package.
data_CaCuO2
_symmetry_space_group_name_H-M  'P-1'
_cell_length_a       3.86313
_cell_length_b       6.97339
_cell_length_c       7.71496
_cell_angle_alpha    97.5925
_cell_angle_beta     103.189
_cell_angle_gamma    94.3033

_symmetry_Int_Tables_number  2
_chemical_formula_structural  CaCuO2
_chemical_formula_sum  Ca4Cu4O8
_cell_volume  199.38319950970447
_cell_formula_units_Z  4
loop_
  _symmetry_equiv_pos_site_id
 _symmetry_equiv_pos_as_xyz
 1  'x, y, z'
loop_
 _atom_site_type_symbol
 _atom_site_label
 _atom_site_symmetry_multiplicity
 _atom_site_fract_x
 _atom_site_fract_y
 _atom_site_fract_z
 _atom_site_fract_occupancy
 Ca  Ca1  1  0.89435  0.13480  0.30663  1
 Ca  Ca2  1  0.08541  0.84256  0.70151  1
 Ca  Ca3  1  0.76681  0.71493  0.02497  1
 Ca  Ca4  1  0.21293  0.26245  -0.01683  1
 Cu  Cu1  1  0.60285  0.15196  0.65082  1
 Cu  Cu2  1  0.28722  0.45221  0.63920  1
 Cu  Cu3  1  0.69258  0.52515  0.36895  1
 Cu  Cu4  1  0.37698  0.82541  0.35733  1
 O  O1  1  0.87520  0.80036  0.35188  1
 O  O2  1  0.79296  0.39792  0.14748  1
 O  O3  1  0.18680  0.57944  0.86067  1
 O  O4  1  0.10462  0.17701  0.65626  1
 O  O5  1  0.68368  0.01268  0.85109  1
 O  O6  1  0.48669  0.29931  0.45226  1
 O  O7  1  0.29611  0.96468  0.15706  1
 O  O8  1  0.49309  0.67806  0.55589  1
