CIF file written using JARVIS-Tools package.
data_YV2O4
_symmetry_space_group_name_H-M  'I4_1/a'
_cell_length_a       5.73551
_cell_length_b       5.73561
_cell_length_c       6.36534
_cell_angle_alpha    116.777
_cell_angle_beta     116.777
_cell_angle_gamma    90.0015

_symmetry_Int_Tables_number  88
_chemical_formula_structural  YV2O4
_chemical_formula_sum  Y2V4O8
_cell_volume  161.39363274800942
_cell_formula_units_Z  2
loop_
  _symmetry_equiv_pos_site_id
 _symmetry_equiv_pos_as_xyz
 1  'x, y, z'
loop_
 _atom_site_type_symbol
 _atom_site_label
 _atom_site_symmetry_multiplicity
 _atom_site_fract_x
 _atom_site_fract_y
 _atom_site_fract_z
 _atom_site_fract_occupancy
 O  O1  1  0.72767  0.51843  0.85151  1
 O  O2  1  0.12384  0.83308  0.85151  1
 O  O3  1  0.27233  0.48157  0.14849  1
 O  O4  1  0.87616  0.16692  0.14849  1
 O  O5  1  0.51843  0.12384  0.35151  1
 O  O6  1  0.83307  0.72767  0.35151  1
 O  O7  1  0.16693  0.27233  0.64849  1
 O  O8  1  0.48157  0.87616  0.64849  1
 V  V1  1  0.50000  0.00000  0.00000  1
 V  V2  1  0.50000  0.50000  0.00000  1
 V  V3  1  0.00000  0.50000  0.50000  1
 V  V4  1  0.50000  0.50000  0.50000  1
 Y  Y1  1  0.87500  0.12500  0.75000  1
 Y  Y2  1  0.12500  0.87500  0.25000  1
