CIF file written using JARVIS-Tools package.
data_CaMn2S4
_symmetry_space_group_name_H-M  'I4_1/amd'
_cell_length_a       6.82841
_cell_length_b       6.82842
_cell_length_c       8.12381
_cell_angle_alpha    114.852
_cell_angle_beta     114.852
_cell_angle_gamma    90

_symmetry_Int_Tables_number  141
_chemical_formula_structural  CaMn2S4
_chemical_formula_sum  Ca2Mn4S8
_cell_volume  304.6248274698387
_cell_formula_units_Z  2
loop_
  _symmetry_equiv_pos_site_id
 _symmetry_equiv_pos_as_xyz
 1  'x, y, z'
loop_
 _atom_site_type_symbol
 _atom_site_label
 _atom_site_symmetry_multiplicity
 _atom_site_fract_x
 _atom_site_fract_y
 _atom_site_fract_z
 _atom_site_fract_occupancy
 Ca  Ca1  1  0.37500  0.62500  0.75000  1
 Ca  Ca2  1  0.62500  0.37500  0.25000  1
 Mn  Mn1  1  -0.00000  -0.00000  0.50000  1
 Mn  Mn2  1  0.00000  0.50000  0.00000  1
 Mn  Mn3  1  0.50000  -0.00000  0.50000  1
 Mn  Mn4  1  0.00000  0.00000  0.00000  1
 S  S1  1  0.77511  0.79314  0.55023  1
 S  S2  1  0.74291  0.22489  0.94977  1
 S  S3  1  0.20686  0.22489  0.94977  1
 S  S4  1  0.22489  0.20686  0.44977  1
 S  S5  1  0.22489  0.74291  0.44977  1
 S  S6  1  0.25709  0.77511  0.05023  1
 S  S7  1  0.77511  0.25709  0.55023  1
 S  S8  1  0.79314  0.77511  0.05023  1
