CIF file written using JARVIS-Tools package.
data_CaCo4Cu3O12
_symmetry_space_group_name_H-M  'Im-3'
_cell_length_a       6.19404
_cell_length_b       6.19405
_cell_length_c       6.19405
_cell_angle_alpha    109.471
_cell_angle_beta     109.471
_cell_angle_gamma    109.471

_symmetry_Int_Tables_number  204
_chemical_formula_structural  CaCo4Cu3O12
_chemical_formula_sum  CaCo4Cu3O2
_cell_volume  182.936969329706
_cell_formula_units_Z  1
loop_
  _symmetry_equiv_pos_site_id
 _symmetry_equiv_pos_as_xyz
 1  'x, y, z'
loop_
 _atom_site_type_symbol
 _atom_site_label
 _atom_site_symmetry_multiplicity
 _atom_site_fract_x
 _atom_site_fract_y
 _atom_site_fract_z
 _atom_site_fract_occupancy
 Ca  Ca1  1  0.00000  0.00000  0.00000  1
 Co  Co1  1  0.00000  0.00000  0.50000  1
 Co  Co2  1  0.00000  0.50000  0.00000  1
 Co  Co3  1  0.50000  0.50000  0.50000  1
 Co  Co4  1  0.50000  0.00000  0.00000  1
 Cu  Cu1  1  0.50000  0.50000  0.00000  1
 Cu  Cu2  1  0.00000  0.50000  0.50000  1
 Cu  Cu3  1  0.50000  0.00000  0.50000  1
 O  O1  1  0.82324  0.30548  0.12872  1
 O  O2  1  0.87128  0.17676  0.69452  1
 O  O3  1  0.82324  0.69452  0.51776  1
 O  O4  1  0.30548  0.48224  0.17676  1
 O  O5  1  0.17676  0.69452  0.87128  1
 O  O6  1  0.17676  0.30548  0.48224  1
 O  O7  1  0.69452  0.87128  0.17676  1
 O  O8  1  0.51776  0.82324  0.69452  1
 O  O9  1  0.48224  0.17676  0.30548  1
 O  O10  1  0.69452  0.51776  0.82324  1
 O  O11  1  0.12872  0.82324  0.30548  1
 O  O12  1  0.30548  0.12872  0.82324  1
