CIF file written using JARVIS-Tools package.
data_HfZrO4
_symmetry_space_group_name_H-M  'I4_1md'
_cell_length_a       7.20322
_cell_length_b       7.20311
_cell_length_c       7.29371
_cell_angle_alpha    119.591
_cell_angle_beta     119.592
_cell_angle_gamma    90.0004

_symmetry_Int_Tables_number  109
_chemical_formula_structural  HfZrO4
_chemical_formula_sum  Hf4Zr4O6
_cell_volume  270.86625941998335
_cell_formula_units_Z  4
loop_
  _symmetry_equiv_pos_site_id
 _symmetry_equiv_pos_as_xyz
 1  'x, y, z'
loop_
 _atom_site_type_symbol
 _atom_site_label
 _atom_site_symmetry_multiplicity
 _atom_site_fract_x
 _atom_site_fract_y
 _atom_site_fract_z
 _atom_site_fract_occupancy
 Hf  Hf1  1  0.86459  0.62332  0.74258  1
 Hf  Hf2  1  0.36418  0.12376  0.24259  1
 Hf  Hf3  1  0.86506  0.12375  0.24256  1
 Hf  Hf4  1  0.86459  0.12421  0.74259  1
 O  O1  1  0.96192  0.97546  0.44228  1
 O  O2  1  0.26447  0.27379  0.54261  1
 O  O3  1  0.71627  0.72605  0.94229  1
 O  O4  1  0.46669  0.97544  0.44228  1
 O  O5  1  0.01707  0.02629  0.04753  1
 O  O6  1  0.76733  0.77663  0.54829  1
 O  O7  1  0.51503  0.52426  0.04347  1
 O  O8  1  0.01459  0.52383  0.04261  1
 O  O9  1  0.96191  0.47178  0.44228  1
 O  O10  1  0.71627  0.22128  0.94228  1
 O  O11  1  0.21261  0.22128  0.94228  1
 O  O12  1  0.51745  0.02668  0.04830  1
 O  O13  1  0.76689  0.27624  0.54753  1
 O  O14  1  0.21261  0.72605  0.94228  1
 O  O15  1  0.26490  0.77421  0.54346  1
 O  O16  1  0.46669  0.47180  0.44228  1
 Zr  Zr1  1  0.36539  0.62499  0.24503  1
 Zr  Zr2  1  0.36582  0.62457  0.74504  1
 Zr  Zr3  1  0.36582  0.12543  0.74503  1
 Zr  Zr4  1  0.86626  0.62499  0.24504  1
