CIF file written using JARVIS-Tools package.
data_CaSb2O4
_symmetry_space_group_name_H-M  'Imma'
_cell_length_a       6.78542
_cell_length_b       6.78541
_cell_length_c       6.46867
_cell_angle_alpha    61.5326
_cell_angle_beta     61.5326
_cell_angle_gamma    66.6465

_symmetry_Int_Tables_number  74
_chemical_formula_structural  CaSb2O4
_chemical_formula_sum  Ca2Sb4O8
_cell_volume  224.57702000099064
_cell_formula_units_Z  2
loop_
  _symmetry_equiv_pos_site_id
 _symmetry_equiv_pos_as_xyz
 1  'x, y, z'
loop_
 _atom_site_type_symbol
 _atom_site_label
 _atom_site_symmetry_multiplicity
 _atom_site_fract_x
 _atom_site_fract_y
 _atom_site_fract_z
 _atom_site_fract_occupancy
 Ca  Ca1  1  0.12500  0.62500  0.62500  1
 Ca  Ca2  1  0.62500  0.12500  0.62500  1
 O  O1  1  0.37114  0.37114  0.37884  1
 O  O2  1  0.40632  0.84320  0.37524  1
 O  O3  1  0.37114  0.37114  0.87887  1
 O  O4  1  0.84320  0.40632  0.37524  1
 O  O5  1  0.40680  0.84368  0.87476  1
 O  O6  1  0.84368  0.40680  0.87476  1
 O  O7  1  0.87886  0.87886  0.37113  1
 O  O8  1  0.87886  0.87886  0.87116  1
 Sb  Sb1  1  0.02051  0.02051  0.97949  1
 Sb  Sb2  1  0.22949  0.22949  0.27051  1
 Sb  Sb3  1  0.62500  0.62500  0.12500  1
 Sb  Sb4  1  0.62500  0.62500  0.62500  1
