CIF file written using JARVIS-Tools package.
data_ZnCr2O4
_symmetry_space_group_name_H-M  'R3m'
_cell_length_a       5.93896
_cell_length_b       5.93255
_cell_length_c       5.93255
_cell_angle_alpha    60
_cell_angle_beta     60.0357
_cell_angle_gamma    60.0357

_symmetry_Int_Tables_number  160
_chemical_formula_structural  ZnCr2O4
_chemical_formula_sum  Zn2Cr4O8
_cell_volume  147.88117134801556
_cell_formula_units_Z  2
loop_
  _symmetry_equiv_pos_site_id
 _symmetry_equiv_pos_as_xyz
 1  'x, y, z'
loop_
 _atom_site_type_symbol
 _atom_site_label
 _atom_site_symmetry_multiplicity
 _atom_site_fract_x
 _atom_site_fract_y
 _atom_site_fract_z
 _atom_site_fract_occupancy
 Cr  Cr1  1  0.25792  0.24736  0.24736  1
 Cr  Cr2  1  0.62676  0.12168  0.62578  1
 Cr  Cr3  1  0.62676  0.62578  0.12168  1
 Cr  Cr4  1  0.62676  0.62578  0.62578  1
 O  O1  1  0.39714  0.37228  0.37228  1
 O  O2  1  0.39714  0.37228  0.85829  1
 O  O3  1  0.39714  0.85829  0.37228  1
 O  O4  1  0.84891  0.38370  0.38370  1
 O  O5  1  0.40815  0.86395  0.86395  1
 O  O6  1  0.84937  0.40892  0.87086  1
 O  O7  1  0.84937  0.87086  0.40892  1
 O  O8  1  0.84937  0.87086  0.87086  1
 Zn  Zn1  1  0.99002  0.00333  0.00333  1
 Zn  Zn2  1  0.12518  0.62494  0.62494  1
