CIF file written using JARVIS-Tools package.
data_Fe4Cu3O12
_symmetry_space_group_name_H-M  'Im-3'
_cell_length_a       6.14078
_cell_length_b       6.14111
_cell_length_c       6.14071
_cell_angle_alpha    109.473
_cell_angle_beta     109.47
_cell_angle_gamma    109.472

_symmetry_Int_Tables_number  204
_chemical_formula_structural  Fe4Cu3O12
_chemical_formula_sum  Fe4Cu3O2
_cell_volume  178.2617684376624
_cell_formula_units_Z  1
loop_
  _symmetry_equiv_pos_site_id
 _symmetry_equiv_pos_as_xyz
 1  'x, y, z'
loop_
 _atom_site_type_symbol
 _atom_site_label
 _atom_site_symmetry_multiplicity
 _atom_site_fract_x
 _atom_site_fract_y
 _atom_site_fract_z
 _atom_site_fract_occupancy
 Cu  Cu1  1  0.50000  0.50000  -0.00000  1
 Cu  Cu2  1  -0.00000  0.50000  0.50000  1
 Cu  Cu3  1  0.50000  -0.00000  0.50000  1
 Fe  Fe1  1  0.50000  0.50000  0.50000  1
 Fe  Fe2  1  0.50000  0.00000  0.00000  1
 Fe  Fe3  1  -0.00000  -0.00000  0.50000  1
 Fe  Fe4  1  -0.00000  0.50000  -0.00000  1
 O  O1  1  0.18402  0.68993  0.87395  1
 O  O2  1  0.81598  0.31007  0.12605  1
 O  O3  1  0.49411  0.18403  0.31008  1
 O  O4  1  0.31007  0.12605  0.81598  1
 O  O5  1  0.18403  0.31008  0.49412  1
 O  O6  1  0.12604  0.81598  0.31006  1
 O  O7  1  0.68992  0.50589  0.81597  1
 O  O8  1  0.87396  0.18402  0.68994  1
 O  O9  1  0.81597  0.68992  0.50588  1
 O  O10  1  0.68993  0.87395  0.18402  1
 O  O11  1  0.50589  0.81597  0.68992  1
 O  O12  1  0.31008  0.49411  0.18403  1
