CIF file written using JARVIS-Tools package.
data_Mo2O5
_symmetry_space_group_name_H-M  'Cmmm'
_cell_length_a       3.8001
_cell_length_b       3.73913
_cell_length_c       13.0443
_cell_angle_alpha    90
_cell_angle_beta     89.9997
_cell_angle_gamma    90

_symmetry_Int_Tables_number  65
_chemical_formula_structural  Mo2O5
_chemical_formula_sum  Mo4O0
_cell_volume  185.34773762836576
_cell_formula_units_Z  2
loop_
  _symmetry_equiv_pos_site_id
 _symmetry_equiv_pos_as_xyz
 1  'x, y, z'
loop_
 _atom_site_type_symbol
 _atom_site_label
 _atom_site_symmetry_multiplicity
 _atom_site_fract_x
 _atom_site_fract_y
 _atom_site_fract_z
 _atom_site_fract_occupancy
 Mo  Mo1  1  0.99994  0.75000  0.10702  1
 Mo  Mo2  1  0.00006  0.25000  0.89298  1
 Mo  Mo3  1  0.00006  0.25000  0.60702  1
 Mo  Mo4  1  0.99994  0.75000  0.39298  1
 O  O1  1  -0.00001  0.25000  0.06026  1
 O  O2  1  0.00001  0.75000  0.93974  1
 O  O3  1  0.00001  0.75000  0.56026  1
 O  O4  1  -0.00001  0.25000  0.43974  1
 O  O5  1  0.49997  0.75000  0.39458  1
 O  O6  1  0.50003  0.25000  0.60542  1
 O  O7  1  0.50003  0.25000  0.89458  1
 O  O8  1  0.00004  0.25000  0.75000  1
 O  O9  1  -0.00004  0.75000  0.25000  1
 O  O10  1  0.49997  0.75000  0.10542  1
