CIF file written using JARVIS-Tools package.
data_CaCo2O5
_symmetry_space_group_name_H-M  'Cmcm'
_cell_length_a       3.62949
_cell_length_b       5.82664
_cell_length_c       11.2251
_cell_angle_alpha    90
_cell_angle_beta     90
_cell_angle_gamma    108.15

_symmetry_Int_Tables_number  63
_chemical_formula_structural  CaCo2O5
_chemical_formula_sum  Ca2Co4O0
_cell_volume  225.57364941000176
_cell_formula_units_Z  2
loop_
  _symmetry_equiv_pos_site_id
 _symmetry_equiv_pos_as_xyz
 1  'x, y, z'
loop_
 _atom_site_type_symbol
 _atom_site_label
 _atom_site_symmetry_multiplicity
 _atom_site_fract_x
 _atom_site_fract_y
 _atom_site_fract_z
 _atom_site_fract_occupancy
 Ca  Ca1  1  0.90385  0.80764  0.75000  1
 Ca  Ca2  1  0.09615  0.19237  0.25000  1
 Co  Co1  1  0.21111  0.42224  0.59607  1
 Co  Co2  1  0.78889  0.57776  0.40393  1
 Co  Co3  1  0.78889  0.57776  0.09607  1
 Co  Co4  1  0.21111  0.42224  0.90393  1
 O  O1  1  0.72199  0.44399  0.25000  1
 O  O2  1  0.27801  0.55601  0.75000  1
 O  O3  1  0.22035  0.44071  0.07101  1
 O  O4  1  0.77965  0.55929  0.92899  1
 O  O5  1  0.77965  0.55929  0.57101  1
 O  O6  1  0.22035  0.44071  0.42899  1
 O  O7  1  0.06112  0.12228  0.61983  1
 O  O8  1  0.93888  0.87772  0.38017  1
 O  O9  1  0.06112  0.12228  0.88017  1
 O  O10  1  0.93888  0.87772  0.11983  1
