CIF file written using JARVIS-Tools package.
data_Ti4CoBi2
_symmetry_space_group_name_H-M  'I4/mcm'
_cell_length_a       4.86232
_cell_length_b       7.87405
_cell_length_c       7.87405
_cell_angle_alpha    84.5297
_cell_angle_beta     72.0157
_cell_angle_gamma    72.0157

_symmetry_Int_Tables_number  140
_chemical_formula_structural  Ti4CoBi2
_chemical_formula_sum  Ti8Co2Bi4
_cell_volume  272.7277752251417
_cell_formula_units_Z  2
loop_
  _symmetry_equiv_pos_site_id
 _symmetry_equiv_pos_as_xyz
 1  'x, y, z'
loop_
 _atom_site_type_symbol
 _atom_site_label
 _atom_site_symmetry_multiplicity
 _atom_site_fract_x
 _atom_site_fract_y
 _atom_site_fract_z
 _atom_site_fract_occupancy
 Bi  Bi1  1  0.35980  0.78039  0.50000  1
 Bi  Bi2  1  0.85980  0.50000  0.78039  1
 Bi  Bi3  1  0.14020  0.50000  0.21961  1
 Bi  Bi4  1  0.64020  0.21961  0.50000  1
 Co  Co1  1  0.25000  0.00000  -0.00000  1
 Co  Co2  1  0.75000  0.00000  0.00000  1
 Ti  Ti1  1  0.42016  0.27272  0.88695  1
 Ti  Ti2  1  0.69289  0.88695  0.72728  1
 Ti  Ti3  1  0.80711  0.27272  0.11305  1
 Ti  Ti4  1  0.19289  0.72728  0.88695  1
 Ti  Ti5  1  0.07984  0.11305  0.72728  1
 Ti  Ti6  1  0.92016  0.88695  0.27272  1
 Ti  Ti7  1  0.57984  0.72728  0.11305  1
 Ti  Ti8  1  0.30711  0.11305  0.27272  1
