CIF file written using JARVIS-Tools package.
data_MgCu2O4
_symmetry_space_group_name_H-M  'Fd-3m'
_cell_length_a       5.94004
_cell_length_b       5.94005
_cell_length_c       5.93968
_cell_angle_alpha    120.002
_cell_angle_beta     120.002
_cell_angle_gamma    90

_symmetry_Int_Tables_number  227
_chemical_formula_structural  MgCu2O4
_chemical_formula_sum  Mg2Cu4O8
_cell_volume  148.18403073737633
_cell_formula_units_Z  2
loop_
  _symmetry_equiv_pos_site_id
 _symmetry_equiv_pos_as_xyz
 1  'x, y, z'
loop_
 _atom_site_type_symbol
 _atom_site_label
 _atom_site_symmetry_multiplicity
 _atom_site_fract_x
 _atom_site_fract_y
 _atom_site_fract_z
 _atom_site_fract_occupancy
 Cu  Cu1  1  0.00000  -0.00000  0.50000  1
 Cu  Cu2  1  0.00000  0.50000  -0.00000  1
 Cu  Cu3  1  0.50000  -0.00000  0.50000  1
 Cu  Cu4  1  0.00000  0.00000  0.00000  1
 Mg  Mg1  1  0.37500  0.62500  0.75000  1
 Mg  Mg2  1  0.62500  0.37500  0.25000  1
 O  O1  1  0.76097  0.78287  0.52193  1
 O  O2  1  0.76094  0.23903  0.97807  1
 O  O3  1  0.21713  0.23903  0.97807  1
 O  O4  1  0.23903  0.21713  0.47807  1
 O  O5  1  0.23903  0.76094  0.47807  1
 O  O6  1  0.23906  0.76097  0.02193  1
 O  O7  1  0.76097  0.23906  0.52193  1
 O  O8  1  0.78287  0.76097  0.02193  1
