CIF file written using JARVIS-Tools package.
data_LiMnO2
_symmetry_space_group_name_H-M  'C2/c'
_cell_length_a       2.90733
_cell_length_b       3.16026
_cell_length_c       10.0419
_cell_angle_alpha    99.2533
_cell_angle_beta     84.9862
_cell_angle_gamma    122.922

_symmetry_Int_Tables_number  15
_chemical_formula_structural  LiMnO2
_chemical_formula_sum  Li2Mn2O4
_cell_volume  76.44003335976338
_cell_formula_units_Z  2
loop_
  _symmetry_equiv_pos_site_id
 _symmetry_equiv_pos_as_xyz
 1  'x, y, z'
loop_
 _atom_site_type_symbol
 _atom_site_label
 _atom_site_symmetry_multiplicity
 _atom_site_fract_x
 _atom_site_fract_y
 _atom_site_fract_z
 _atom_site_fract_occupancy
 Li  Li1  1  0.32566  0.84985  0.24773  1
 Li  Li2  1  0.67434  0.52419  0.74773  1
 Mn  Mn1  1  0.49944  0.68733  0.49778  1
 Mn  Mn2  1  0.50056  0.18789  0.99778  1
 O  O1  1  0.13412  0.52523  0.88383  1
 O  O2  1  0.86702  0.85066  0.11173  1
 O  O3  1  0.13298  0.98364  0.61173  1
 O  O4  1  0.86588  0.39111  0.38383  1
