CIF file written using JARVIS-Tools package.
data_MgMnO2
_symmetry_space_group_name_H-M  'P2_1/m'
_cell_length_a       3.06277
_cell_length_b       7.52539
_cell_length_c       8.15602
_cell_angle_alpha    107.665
_cell_angle_beta     112.045
_cell_angle_gamma    90.0154

_symmetry_Int_Tables_number  11
_chemical_formula_structural  MgMnO2
_chemical_formula_sum  Mg4Mn4O8
_cell_volume  164.63101653106762
_cell_formula_units_Z  4
loop_
  _symmetry_equiv_pos_site_id
 _symmetry_equiv_pos_as_xyz
 1  'x, y, z'
loop_
 _atom_site_type_symbol
 _atom_site_label
 _atom_site_symmetry_multiplicity
 _atom_site_fract_x
 _atom_site_fract_y
 _atom_site_fract_z
 _atom_site_fract_occupancy
 Mg  Mg1  1  0.56217  0.94835  0.80062  1
 Mg  Mg2  1  0.42974  0.07287  0.16810  1
 Mg  Mg3  1  0.18551  0.32133  0.92392  1
 Mg  Mg4  1  0.80642  0.69987  0.04481  1
 Mn  Mn1  1  0.68054  0.82530  0.41895  1
 Mn  Mn2  1  -0.06131  0.57374  0.67709  1
 Mn  Mn3  1  0.05326  0.44747  0.29163  1
 Mn  Mn4  1  0.31136  0.19591  0.54977  1
 O  O1  1  0.67591  0.31531  0.41429  1
 O  O2  1  0.42109  0.57347  0.15948  1
 O  O3  1  0.57086  0.44774  0.80925  1
 O  O4  1  0.31600  0.70590  0.55444  1
 O  O5  1  0.04467  0.94712  0.28307  1
 O  O6  1  0.18857  0.82839  0.92698  1
 O  O7  1  -0.05279  0.07409  0.68565  1
 O  O8  1  -0.19664  0.19281  0.04174  1
