CIF file written using JARVIS-Tools package.
data_Ge2MoO6
_symmetry_space_group_name_H-M  'C2/c'
_cell_length_a       5.68224
_cell_length_b       6.81594
_cell_length_c       6.81593
_cell_angle_alpha    83.9423
_cell_angle_beta     75.0779
_cell_angle_gamma    75.0778

_symmetry_Int_Tables_number  15
_chemical_formula_structural  Ge2MoO6
_chemical_formula_sum  Ge4Mo2O2
_cell_volume  246.25740580534952
_cell_formula_units_Z  2
loop_
  _symmetry_equiv_pos_site_id
 _symmetry_equiv_pos_as_xyz
 1  'x, y, z'
loop_
 _atom_site_type_symbol
 _atom_site_label
 _atom_site_symmetry_multiplicity
 _atom_site_fract_x
 _atom_site_fract_y
 _atom_site_fract_z
 _atom_site_fract_occupancy
 Ge  Ge1  1  0.74736  0.38823  0.21394  1
 Ge  Ge2  1  0.75264  0.78606  0.61177  1
 Ge  Ge3  1  0.25264  0.61177  0.78606  1
 Ge  Ge4  1  0.24736  0.21394  0.38823  1
 Mo  Mo1  1  0.75000  0.90578  0.09422  1
 Mo  Mo2  1  0.25000  0.09422  0.90578  1
 O  O1  1  0.44071  0.38620  0.35260  1
 O  O2  1  0.05929  0.64740  0.61380  1
 O  O3  1  0.13168  0.82040  0.95889  1
 O  O4  1  -0.05929  0.35260  0.38620  1
 O  O5  1  0.55929  0.61380  0.64740  1
 O  O6  1  0.73204  0.62632  0.08330  1
 O  O7  1  0.76796  0.91670  0.37369  1
 O  O8  1  0.23204  0.08330  0.62632  1
 O  O9  1  0.86832  0.17960  0.04111  1
 O  O10  1  0.63168  0.95889  0.82040  1
 O  O11  1  0.26796  0.37369  0.91670  1
 O  O12  1  0.36832  0.04111  0.17960  1
