CIF file written using JARVIS-Tools package.
data_CrF5
_symmetry_space_group_name_H-M  'Cmcm'
_cell_length_a       2.96566
_cell_length_b       5.21799
_cell_length_c       10.235
_cell_angle_alpha    90
_cell_angle_beta     90
_cell_angle_gamma    106.51

_symmetry_Int_Tables_number  63
_chemical_formula_structural  CrF5
_chemical_formula_sum  Cr2F0
_cell_volume  151.85558642344398
_cell_formula_units_Z  2
loop_
  _symmetry_equiv_pos_site_id
 _symmetry_equiv_pos_as_xyz
 1  'x, y, z'
loop_
 _atom_site_type_symbol
 _atom_site_label
 _atom_site_symmetry_multiplicity
 _atom_site_fract_x
 _atom_site_fract_y
 _atom_site_fract_z
 _atom_site_fract_occupancy
 Cr  Cr1  1  0.50000  0.00000  0.50000  1
 Cr  Cr2  1  0.50000  0.00000  0.00000  1
 F  F1  1  0.23793  0.47586  0.25000  1
 F  F2  1  0.76207  0.52414  0.75000  1
 F  F3  1  0.04281  0.08561  0.61132  1
 F  F4  1  0.95719  0.91439  0.38868  1
 F  F5  1  0.33892  0.67785  0.93902  1
 F  F6  1  0.66108  0.32215  0.06098  1
 F  F7  1  0.66108  0.32215  0.43902  1
 F  F8  1  0.33892  0.67785  0.56098  1
 F  F9  1  0.04281  0.08561  0.88868  1
 F  F10  1  0.95719  0.91439  0.11132  1
