CIF file written using JARVIS-Tools package.
data_MgSi7Ir3
_symmetry_space_group_name_H-M  'R-3c'
_cell_length_a       8.02266
_cell_length_b       8.02266
_cell_length_c       8.02266
_cell_angle_alpha    56.6145
_cell_angle_beta     56.6144
_cell_angle_gamma    56.6145

_symmetry_Int_Tables_number  167
_chemical_formula_structural  MgSi7Ir3
_chemical_formula_sum  Mg2Si4Ir6
_cell_volume  336.5683318967452
_cell_formula_units_Z  2
loop_
  _symmetry_equiv_pos_site_id
 _symmetry_equiv_pos_as_xyz
 1  'x, y, z'
loop_
 _atom_site_type_symbol
 _atom_site_label
 _atom_site_symmetry_multiplicity
 _atom_site_fract_x
 _atom_site_fract_y
 _atom_site_fract_z
 _atom_site_fract_occupancy
 Ir  Ir1  1  0.57366  0.92634  0.25000  1
 Ir  Ir2  1  0.42634  0.07366  0.75000  1
 Ir  Ir3  1  0.75000  0.42634  0.07366  1
 Ir  Ir4  1  0.07366  0.75000  0.42634  1
 Ir  Ir5  1  0.25000  0.57366  0.92634  1
 Ir  Ir6  1  0.92634  0.25000  0.57366  1
 Mg  Mg1  1  0.50000  0.50000  0.50000  1
 Mg  Mg2  1  0.00000  0.00000  0.00000  1
 Si  Si1  1  0.34965  0.56563  0.17332  1
 Si  Si2  1  0.17332  0.34965  0.56563  1
 Si  Si3  1  0.75000  0.75000  0.75000  1
 Si  Si4  1  0.15035  0.32668  0.93437  1
 Si  Si5  1  0.82668  0.65035  0.43437  1
 Si  Si6  1  0.67332  0.06563  0.84965  1
 Si  Si7  1  0.84965  0.67332  0.06563  1
 Si  Si8  1  0.06563  0.84965  0.67332  1
 Si  Si9  1  0.56563  0.17332  0.34965  1
 Si  Si10  1  0.93437  0.15035  0.32668  1
 Si  Si11  1  0.43437  0.82668  0.65035  1
 Si  Si12  1  0.65035  0.43437  0.82668  1
 Si  Si13  1  0.32668  0.93437  0.15035  1
 Si  Si14  1  0.25000  0.25000  0.25000  1
