CIF file written using JARVIS-Tools package.
data_ThPt3
_symmetry_space_group_name_H-M  'P6_3/mmc'
_cell_length_a       5.94538
_cell_length_b       5.94538
_cell_length_c       5.03629
_cell_angle_alpha    90
_cell_angle_beta     90
_cell_angle_gamma    120

_symmetry_Int_Tables_number  194
_chemical_formula_structural  ThPt3
_chemical_formula_sum  Th2Pt6
_cell_volume  154.1703589827163
_cell_formula_units_Z  2
loop_
  _symmetry_equiv_pos_site_id
 _symmetry_equiv_pos_as_xyz
 1  'x, y, z'
loop_
 _atom_site_type_symbol
 _atom_site_label
 _atom_site_symmetry_multiplicity
 _atom_site_fract_x
 _atom_site_fract_y
 _atom_site_fract_z
 _atom_site_fract_occupancy
 Pt  Pt1  1  0.83976  0.67951  0.75000  1
 Pt  Pt2  1  0.83976  0.16024  0.75000  1
 Pt  Pt3  1  0.32049  0.16024  0.75000  1
 Pt  Pt4  1  0.16024  0.32049  0.25000  1
 Pt  Pt5  1  0.16024  0.83976  0.25000  1
 Pt  Pt6  1  0.67951  0.83976  0.25000  1
 Th  Th1  1  0.66667  0.33333  0.25000  1
 Th  Th2  1  0.33333  0.66667  0.75000  1
