CIF file written using JARVIS-Tools package.
data_Cr3N4
_symmetry_space_group_name_H-M  'Fd-3m'
_cell_length_a       5.69246
_cell_length_b       5.69246
_cell_length_c       5.69246
_cell_angle_alpha    60
_cell_angle_beta     60
_cell_angle_gamma    60

_symmetry_Int_Tables_number  227
_chemical_formula_structural  Cr3N4
_chemical_formula_sum  Cr6N8
_cell_volume  130.43217261037037
_cell_formula_units_Z  2
loop_
  _symmetry_equiv_pos_site_id
 _symmetry_equiv_pos_as_xyz
 1  'x, y, z'
loop_
 _atom_site_type_symbol
 _atom_site_label
 _atom_site_symmetry_multiplicity
 _atom_site_fract_x
 _atom_site_fract_y
 _atom_site_fract_z
 _atom_site_fract_occupancy
 Cr  Cr1  1  0.62500  0.12500  0.12500  1
 Cr  Cr2  1  0.37500  0.87500  0.87500  1
 Cr  Cr3  1  0.00000  -0.00000  0.50000  1
 Cr  Cr4  1  0.00000  0.50000  -0.00000  1
 Cr  Cr5  1  0.00000  0.50000  0.50000  1
 Cr  Cr6  1  0.50000  0.50000  0.50000  1
 N  N1  1  0.75292  0.74124  0.25292  1
 N  N2  1  0.75292  0.25292  0.74124  1
 N  N3  1  0.75292  0.25292  0.25292  1
 N  N4  1  0.24124  0.25292  0.25292  1
 N  N5  1  0.24708  0.25876  0.74708  1
 N  N6  1  0.24708  0.74708  0.25876  1
 N  N7  1  0.24708  0.74708  0.74708  1
 N  N8  1  0.75876  0.74708  0.74708  1
