data_image0
_chemical_formula_structural       Ge8Li30
_chemical_formula_sum              "Ge8 Li30"
_cell_length_a       8.96662
_cell_length_b       8.96662
_cell_length_c       8.96662
_cell_angle_alpha    109.471
_cell_angle_beta     109.471
_cell_angle_gamma    109.471

_space_group_name_H-M_alt    "P 1"
_space_group_IT_number       1

loop_
  _space_group_symop_operation_xyz
  'x, y, z'

loop_
  _atom_site_type_symbol
  _atom_site_label
  _atom_site_symmetry_multiplicity
  _atom_site_fract_x
  _atom_site_fract_y
  _atom_site_fract_z
  _atom_site_occupancy
  Ge  Ge1       1.0  0.41800  0.41800  0.41800  1.0000
  Ge  Ge2       1.0  0.50000  0.00000  0.08190  1.0000
  Ge  Ge3       1.0  0.08190  0.50000  0.00000  1.0000
  Ge  Ge4       1.0  0.00000  0.08190  0.50000  1.0000
  Ge  Ge5       1.0  0.91800  0.91800  0.91800  1.0000
  Ge  Ge6       1.0  0.50000  0.00000  0.58200  1.0000
  Ge  Ge7       1.0  0.00000  0.58200  0.50000  1.0000
  Ge  Ge8       1.0  0.58200  0.50000  0.00000  1.0000
  Li  Li1       1.0  0.25000  0.62500  0.37500  1.0000
  Li  Li2       1.0  0.75000  0.87500  0.12500  1.0000
  Li  Li3       1.0  0.37500  0.25000  0.62500  1.0000
  Li  Li4       1.0  0.62500  0.37500  0.25000  1.0000
  Li  Li5       1.0  0.12500  0.75000  0.87500  1.0000
  Li  Li6       1.0  0.87500  0.12500  0.75000  1.0000
  Li  Li7       1.0  0.12500  0.08480  0.27900  1.0000
  Li  Li8       1.0  0.30600  0.84600  0.22100  1.0000
  Li  Li9       1.0  0.37500  0.65400  0.96000  1.0000
  Li  Li10      1.0  0.19400  0.41500  0.54000  1.0000
  Li  Li11      1.0  0.27900  0.12500  0.08480  1.0000
  Li  Li12      1.0  0.08480  0.27900  0.12500  1.0000
  Li  Li13      1.0  0.54000  0.19400  0.41500  1.0000
  Li  Li14      1.0  0.84600  0.22100  0.30600  1.0000
  Li  Li15      1.0  0.22100  0.30600  0.84600  1.0000
  Li  Li16      1.0  0.65400  0.96000  0.37500  1.0000
  Li  Li17      1.0  0.96000  0.37500  0.65400  1.0000
  Li  Li18      1.0  0.41500  0.54000  0.19400  1.0000
  Li  Li19      1.0  0.58500  0.62500  0.77900  1.0000
  Li  Li20      1.0  0.34600  0.80600  0.72100  1.0000
  Li  Li21      1.0  0.15400  0.87500  0.46000  1.0000
  Li  Li22      1.0  0.91500  0.69400  0.04010  1.0000
  Li  Li23      1.0  0.62500  0.77900  0.58500  1.0000
  Li  Li24      1.0  0.77900  0.58500  0.62500  1.0000
  Li  Li25      1.0  0.69400  0.04010  0.91500  1.0000
  Li  Li26      1.0  0.72100  0.34600  0.80600  1.0000
  Li  Li27      1.0  0.80600  0.72100  0.34600  1.0000
  Li  Li28      1.0  0.46000  0.15400  0.87500  1.0000
  Li  Li29      1.0  0.87500  0.46000  0.15400  1.0000
  Li  Li30      1.0  0.04010  0.91500  0.69400  1.0000
