CIF file written using JARVIS-Tools package.
data_MnReO4
_symmetry_space_group_name_H-M  'P2/c'
_cell_length_a       4.62493
_cell_length_b       5.63341
_cell_length_c       5.07497
_cell_angle_alpha    90
_cell_angle_beta     91.851
_cell_angle_gamma    90

_symmetry_Int_Tables_number  13
_chemical_formula_structural  MnReO4
_chemical_formula_sum  Mn2Re2O8
_cell_volume  132.15478384660594
_cell_formula_units_Z  2
loop_
  _symmetry_equiv_pos_site_id
 _symmetry_equiv_pos_as_xyz
 1  'x, y, z'
loop_
 _atom_site_type_symbol
 _atom_site_label
 _atom_site_symmetry_multiplicity
 _atom_site_fract_x
 _atom_site_fract_y
 _atom_site_fract_z
 _atom_site_fract_occupancy
 Mn  Mn1  1  0.50000  0.66193  0.75000  1
 Mn  Mn2  1  0.50000  0.33807  0.25000  1
 O  O1  1  0.26638  0.37872  0.90159  1
 O  O2  1  0.73362  0.37872  0.59841  1
 O  O3  1  0.73362  0.62128  0.09841  1
 O  O4  1  0.26638  0.62128  0.40159  1
 O  O5  1  0.22133  0.89086  0.93300  1
 O  O6  1  0.77867  0.89086  0.56700  1
 O  O7  1  0.22133  0.10914  0.43300  1
 O  O8  1  0.77867  0.10914  0.06700  1
 Re  Re1  1  -0.00000  0.16791  0.75000  1
 Re  Re2  1  -0.00000  0.83209  0.25000  1
