CIF file written using JARVIS-Tools package.
data_MgF2
_symmetry_space_group_name_H-M  'C2/m'
_cell_length_a       3.8892
_cell_length_b       5.74839
_cell_length_c       5.78668
_cell_angle_alpha    68.089
_cell_angle_beta     70.3774
_cell_angle_gamma    70.2391

_symmetry_Int_Tables_number  12
_chemical_formula_structural  MgF2
_chemical_formula_sum  Mg2F4
_cell_volume  109.65254150709261
_cell_formula_units_Z  2
loop_
  _symmetry_equiv_pos_site_id
 _symmetry_equiv_pos_as_xyz
 1  'x, y, z'
loop_
 _atom_site_type_symbol
 _atom_site_label
 _atom_site_symmetry_multiplicity
 _atom_site_fract_x
 _atom_site_fract_y
 _atom_site_fract_z
 _atom_site_fract_occupancy
 F  F1  1  0.34013  0.41209  0.90754  1
 F  F2  1  0.00000  0.50000  0.50000  1
 F  F3  1  0.65987  0.58791  0.09246  1
 F  F4  1  0.00000  0.00000  0.00000  1
 Mg  Mg1  1  0.10950  0.63945  0.14176  1
 Mg  Mg2  1  0.89050  0.36055  0.85824  1
