CIF file written using JARVIS-Tools package.
data_V3O4F2
_symmetry_space_group_name_H-M  'P-1'
_cell_length_a       5.51167
_cell_length_b       5.52516
_cell_length_c       7.01974
_cell_angle_alpha    72.73
_cell_angle_beta     72.6267
_cell_angle_gamma    76.0972

_symmetry_Int_Tables_number  2
_chemical_formula_structural  V3O4F2
_chemical_formula_sum  V6O8F4
_cell_volume  192.10558331879918
_cell_formula_units_Z  2
loop_
  _symmetry_equiv_pos_site_id
 _symmetry_equiv_pos_as_xyz
 1  'x, y, z'
loop_
 _atom_site_type_symbol
 _atom_site_label
 _atom_site_symmetry_multiplicity
 _atom_site_fract_x
 _atom_site_fract_y
 _atom_site_fract_z
 _atom_site_fract_occupancy
 F  F1  1  0.79975  0.20042  0.50029  1
 F  F2  1  0.53951  0.13005  0.16617  1
 F  F3  1  0.46049  0.86995  0.83383  1
 F  F4  1  0.20025  0.79958  0.49971  1
 O  O1  1  0.06688  0.06193  0.13472  1
 O  O2  1  0.93312  0.93807  0.86528  1
 O  O3  1  0.60171  0.59927  0.20031  1
 O  O4  1  0.26171  0.26409  0.53403  1
 O  O5  1  0.39829  0.40073  0.79969  1
 O  O6  1  0.73829  0.73591  0.46597  1
 O  O7  1  0.85996  0.47192  0.83480  1
 O  O8  1  0.14004  0.52808  0.16520  1
 V  V1  1  0.13577  0.19908  0.83071  1
 V  V2  1  0.16593  0.18381  0.32235  1
 V  V3  1  0.83407  0.81619  0.67765  1
 V  V4  1  0.50000  0.50000  0.50000  1
 V  V5  1  0.86423  0.80092  0.16929  1
 V  V6  1  0.50000  0.50000  -0.00000  1
