CIF file written using JARVIS-Tools package.
data_Ti5Pb5O14
_symmetry_space_group_name_H-M  'P1'
_cell_length_a       8.75039
_cell_length_b       6.95268
_cell_length_c       5.7693
_cell_angle_alpha    88.2765
_cell_angle_beta     71.4606
_cell_angle_gamma    76.5275

_symmetry_Int_Tables_number  1
_chemical_formula_structural  Ti5Pb5O14
_chemical_formula_sum  Ti5Pb5O4
_cell_volume  323.25492662645945
_cell_formula_units_Z  1
loop_
  _symmetry_equiv_pos_site_id
 _symmetry_equiv_pos_as_xyz
 1  'x, y, z'
loop_
 _atom_site_type_symbol
 _atom_site_label
 _atom_site_symmetry_multiplicity
 _atom_site_fract_x
 _atom_site_fract_y
 _atom_site_fract_z
 _atom_site_fract_occupancy
 O  O1  1  0.41358  0.16732  0.27003  1
 O  O2  1  0.71182  0.07811  0.86475  1
 O  O3  1  0.30603  0.88872  0.04889  1
 O  O4  1  0.71271  0.07499  0.36735  1
 O  O5  1  0.51093  0.47331  0.97525  1
 O  O6  1  0.51529  0.46866  0.47722  1
 O  O7  1  0.91212  0.67667  0.76247  1
 O  O8  1  0.21196  0.58060  0.85693  1
 O  O9  1  0.11595  0.26740  0.66887  1
 O  O10  1  0.60852  0.77670  0.66198  1
 O  O11  1  0.81363  0.37201  0.05985  1
 O  O12  1  0.01491  0.97581  0.46462  1
 O  O13  1  0.11056  0.28173  0.15708  1
 O  O14  1  0.90846  0.67947  0.26664  1
 Pb  Pb1  1  0.98939  0.01577  0.01387  1
 Pb  Pb2  1  0.57688  0.81514  0.24583  1
 Pb  Pb3  1  0.20170  0.63772  0.43280  1
 Pb  Pb4  1  0.39203  0.20795  0.81323  1
 Pb  Pb5  1  0.79553  0.41677  0.62729  1
 Ti  Ti1  1  0.19060  0.12289  0.38432  1
 Ti  Ti2  1  0.99411  0.51170  0.00401  1
 Ti  Ti3  1  0.79866  0.90372  0.60485  1
 Ti  Ti4  1  0.40583  0.68522  0.82158  1
 Ti  Ti5  1  0.60151  0.29623  0.21218  1
