CIF file written using JARVIS-Tools package.
data_Te4O9
_symmetry_space_group_name_H-M  'R-3'
_cell_length_a       7.27495
_cell_length_b       7.27495
_cell_length_c       7.27495
_cell_angle_alpha    80.877
_cell_angle_beta     80.877
_cell_angle_gamma    80.877

_symmetry_Int_Tables_number  148
_chemical_formula_structural  Te4O9
_chemical_formula_sum  Te8O8
_cell_volume  371.81548850520113
_cell_formula_units_Z  2
loop_
  _symmetry_equiv_pos_site_id
 _symmetry_equiv_pos_as_xyz
 1  'x, y, z'
loop_
 _atom_site_type_symbol
 _atom_site_label
 _atom_site_symmetry_multiplicity
 _atom_site_fract_x
 _atom_site_fract_y
 _atom_site_fract_z
 _atom_site_fract_occupancy
 O  O1  1  0.91274  0.71747  0.58458  1
 O  O2  1  0.93566  0.04777  0.72001  1
 O  O3  1  0.72001  0.93566  0.04777  1
 O  O4  1  0.04777  0.72001  0.93566  1
 O  O5  1  0.06434  0.95223  0.27999  1
 O  O6  1  0.57531  0.28991  0.77644  1
 O  O7  1  0.95223  0.27999  0.06434  1
 O  O8  1  0.41542  0.08726  0.28253  1
 O  O9  1  0.27999  0.06434  0.95223  1
 O  O10  1  0.08726  0.28253  0.41542  1
 O  O11  1  0.58458  0.91274  0.71747  1
 O  O12  1  0.71747  0.58458  0.91274  1
 O  O13  1  0.77644  0.57531  0.28991  1
 O  O14  1  0.71009  0.22356  0.42469  1
 O  O15  1  0.42469  0.71009  0.22356  1
 O  O16  1  0.22356  0.42469  0.71009  1
 O  O17  1  0.28991  0.77644  0.57531  1
 O  O18  1  0.28253  0.41542  0.08726  1
 Te  Te1  1  0.29839  0.60385  0.84392  1
 Te  Te2  1  0.60385  0.84392  0.29839  1
 Te  Te3  1  0.84392  0.29839  0.60385  1
 Te  Te4  1  0.70161  0.39615  0.15608  1
 Te  Te5  1  0.39615  0.15608  0.70161  1
 Te  Te6  1  0.15608  0.70161  0.39615  1
 Te  Te7  1  0.18216  0.18216  0.18216  1
 Te  Te8  1  0.81784  0.81784  0.81784  1
