CIF file written using JARVIS-Tools package.
data_Te2MoW3Se6
_symmetry_space_group_name_H-M  'P3m1'
_cell_length_a       3.38437
_cell_length_b       3.38435
_cell_length_c       38.3584
_cell_angle_alpha    90.0004
_cell_angle_beta     90
_cell_angle_gamma    120

_symmetry_Int_Tables_number  156
_chemical_formula_structural  Te2MoW3Se6
_chemical_formula_sum  Te2MoW3Se6
_cell_volume  380.4912304137291
_cell_formula_units_Z  1
loop_
  _symmetry_equiv_pos_site_id
 _symmetry_equiv_pos_as_xyz
 1  'x, y, z'
loop_
 _atom_site_type_symbol
 _atom_site_label
 _atom_site_symmetry_multiplicity
 _atom_site_fract_x
 _atom_site_fract_y
 _atom_site_fract_z
 _atom_site_fract_occupancy
 Mo  Mo1  1  0.66669  0.33338  0.28179  1
 Se  Se1  1  0.33336  0.66673  0.32492  1
 Se  Se2  1  0.66664  0.33328  0.05075  1
 Se  Se3  1  0.66664  0.33329  0.42636  1
 Se  Se4  1  0.66665  0.33329  0.13722  1
 Se  Se5  1  0.66664  0.33329  0.51293  1
 Se  Se6  1  0.33335  0.66670  0.23869  1
 Te  Te1  1  0.33335  0.66671  0.70673  1
 Te  Te2  1  0.33335  0.66670  0.60826  1
 W  W1  1  0.33331  0.66662  0.09392  1
 W  W2  1  0.33331  0.66662  0.46962  1
 W  W3  1  0.66669  0.33338  0.65756  1
