CIF file written using JARVIS-Tools package.
data_KTiS2
_symmetry_space_group_name_H-M  'R-3m'
_cell_length_a       3.63834
_cell_length_b       3.63833
_cell_length_c       7.54746
_cell_angle_alpha    76.0526
_cell_angle_beta     76.0526
_cell_angle_gamma    60

_symmetry_Int_Tables_number  166
_chemical_formula_structural  KTiS2
_chemical_formula_sum  KTiS2
_cell_volume  83.10529043327384
_cell_formula_units_Z  1
loop_
  _symmetry_equiv_pos_site_id
 _symmetry_equiv_pos_as_xyz
 1  'x, y, z'
loop_
 _atom_site_type_symbol
 _atom_site_label
 _atom_site_symmetry_multiplicity
 _atom_site_fract_x
 _atom_site_fract_y
 _atom_site_fract_z
 _atom_site_fract_occupancy
 K  K1  1  0.50000  0.50000  0.50000  1
 S  S1  1  0.73017  0.73017  0.80950  1
 S  S2  1  0.26983  0.26983  0.19050  1
 Ti  Ti1  1  0.00000  0.00000  0.00000  1
