CIF file written using JARVIS-Tools package.
data_Sb8Cl2O11
_symmetry_space_group_name_H-M  'P2_1/c'
_cell_length_a       19.4765
_cell_length_b       4.17429
_cell_length_c       10.9753
_cell_angle_alpha    90
_cell_angle_beta     64.8863
_cell_angle_gamma    90

_symmetry_Int_Tables_number  14
_chemical_formula_structural  Sb8Cl2O11
_chemical_formula_sum  Sb6Cl4O22
_cell_volume  807.9487820505125
_cell_formula_units_Z  2
loop_
  _symmetry_equiv_pos_site_id
 _symmetry_equiv_pos_as_xyz
 1  'x, y, z'
loop_
 _atom_site_type_symbol
 _atom_site_label
 _atom_site_symmetry_multiplicity
 _atom_site_fract_x
 _atom_site_fract_y
 _atom_site_fract_z
 _atom_site_fract_occupancy
 Cl  Cl1  1  0.40277  0.47088  0.10889  1
 Cl  Cl2  1  0.09723  0.97088  0.39111  1
 Cl  Cl3  1  0.90277  0.02912  0.60889  1
 Cl  Cl4  1  0.59723  0.52912  0.89111  1
 O  O1  1  0.50000  0.00000  0.50000  1
 O  O2  1  0.62453  0.99419  0.23224  1
 O  O3  1  0.49971  0.42830  0.29578  1
 O  O4  1  0.75653  0.03609  0.93210  1
 O  O5  1  0.62053  0.08768  0.62918  1
 O  O6  1  0.37947  0.91232  0.37082  1
 O  O7  1  -0.00029  0.07170  0.79578  1
 O  O8  1  0.50029  0.57170  0.70422  1
 O  O9  1  0.37547  0.00581  0.76776  1
 O  O10  1  0.22949  0.96835  0.57351  1
 O  O11  1  0.25653  0.46391  0.43210  1
 O  O12  1  0.12053  0.41232  0.12918  1
 O  O13  1  0.00000  0.50000  0.00000  1
 O  O14  1  0.27051  0.46835  0.92649  1
 O  O15  1  0.12453  0.50581  0.73224  1
 O  O16  1  0.87547  0.49419  0.26776  1
 O  O17  1  0.77051  0.03165  0.42649  1
 O  O18  1  0.74347  0.53609  0.56790  1
 O  O19  1  0.00029  0.92830  0.20422  1
 O  O20  1  0.72949  0.53165  0.07351  1
 O  O21  1  0.24347  0.96391  0.06790  1
 O  O22  1  0.87947  0.58768  0.87082  1
 Sb  Sb1  1  0.02387  0.32075  0.28739  1
 Sb  Sb2  1  0.73790  0.01753  0.12578  1
 Sb  Sb3  1  0.76210  0.51753  0.37422  1
 Sb  Sb4  1  0.77768  0.53972  0.86590  1
 Sb  Sb5  1  0.72232  0.03972  0.63410  1
 Sb  Sb6  1  0.57243  0.32218  0.37590  1
 Sb  Sb7  1  0.47613  0.82075  0.21261  1
 Sb  Sb8  1  0.92757  0.82218  0.12410  1
 Sb  Sb9  1  0.27768  0.96028  0.36590  1
 Sb  Sb10  1  0.22232  0.46028  0.13410  1
 Sb  Sb11  1  0.23790  0.48247  0.62578  1
 Sb  Sb12  1  0.26210  0.98247  0.87422  1
 Sb  Sb13  1  0.52387  0.17925  0.78739  1
 Sb  Sb14  1  0.07243  0.17782  0.87590  1
 Sb  Sb15  1  0.42757  0.67782  0.62410  1
 Sb  Sb16  1  0.97613  0.67925  0.71261  1
