CIF file written using JARVIS-Tools package.
data_V5S4
_symmetry_space_group_name_H-M  'I4/m'
_cell_length_a       8.97053
_cell_length_b       8.97053
_cell_length_c       3.18817
_cell_angle_alpha    90
_cell_angle_beta     90
_cell_angle_gamma    90

_symmetry_Int_Tables_number  87
_chemical_formula_structural  V5S4
_chemical_formula_sum  V0S8
_cell_volume  256.55364268939786
_cell_formula_units_Z  2
loop_
  _symmetry_equiv_pos_site_id
 _symmetry_equiv_pos_as_xyz
 1  'x, y, z'
loop_
 _atom_site_type_symbol
 _atom_site_label
 _atom_site_symmetry_multiplicity
 _atom_site_fract_x
 _atom_site_fract_y
 _atom_site_fract_z
 _atom_site_fract_occupancy
 S  S1  1  0.22782  0.43697  0.50000  1
 S  S2  1  0.43697  0.77218  0.50000  1
 S  S3  1  0.72782  0.93697  0.00000  1
 S  S4  1  0.06303  0.72782  0.00000  1
 S  S5  1  0.27218  0.06303  0.00000  1
 S  S6  1  0.93697  0.27218  0.00000  1
 S  S7  1  0.56303  0.22782  0.50000  1
 S  S8  1  0.77218  0.56303  0.50000  1
 V  V1  1  0.87948  0.80066  0.50000  1
 V  V2  1  0.80066  0.12052  0.50000  1
 V  V3  1  0.19934  0.87948  0.50000  1
 V  V4  1  0.69934  0.37948  0.00000  1
 V  V5  1  0.30066  0.62052  0.00000  1
 V  V6  1  0.62052  0.69934  0.00000  1
 V  V7  1  0.50000  0.50000  0.50000  1
 V  V8  1  0.37948  0.30066  0.00000  1
 V  V9  1  0.00000  0.00000  0.00000  1
 V  V10  1  0.12052  0.19934  0.50000  1
