CIF file written using JARVIS-Tools package.
data_SrCaC2O6
_symmetry_space_group_name_H-M  'Pmc2_1'
_cell_length_a       5.29025
_cell_length_b       6.43241
_cell_length_c       7.31505
_cell_angle_alpha    90
_cell_angle_beta     90
_cell_angle_gamma    90

_symmetry_Int_Tables_number  26
_chemical_formula_structural  SrCaC2O6
_chemical_formula_sum  Sr2Ca2C4O2
_cell_volume  248.92406641470214
_cell_formula_units_Z  2
loop_
  _symmetry_equiv_pos_site_id
 _symmetry_equiv_pos_as_xyz
 1  'x, y, z'
loop_
 _atom_site_type_symbol
 _atom_site_label
 _atom_site_symmetry_multiplicity
 _atom_site_fract_x
 _atom_site_fract_y
 _atom_site_fract_z
 _atom_site_fract_occupancy
 C  C1  1  0.50000  0.96227  0.07670  1
 C  C2  1  0.50000  0.03773  0.57670  1
 C  C3  1  0.00000  0.58762  0.33805  1
 C  C4  1  0.00000  0.41238  0.83805  1
 Ca  Ca1  1  0.50000  0.48212  0.54942  1
 Ca  Ca2  1  0.50000  0.51788  0.04942  1
 O  O1  1  0.21076  0.50691  0.79577  1
 O  O2  1  0.78924  0.49309  0.29577  1
 O  O3  1  0.50000  0.84802  0.63437  1
 O  O4  1  0.78924  0.50691  0.79577  1
 O  O5  1  0.21076  0.49309  0.29577  1
 O  O6  1  0.28852  0.86268  0.05188  1
 O  O7  1  0.28852  0.13732  0.55188  1
 O  O8  1  0.71148  0.13732  0.55188  1
 O  O9  1  0.50000  0.15198  0.13437  1
 O  O10  1  0.00000  0.75889  0.42448  1
 O  O11  1  0.00000  0.24111  0.92448  1
 O  O12  1  0.71148  0.86268  0.05188  1
 Sr  Sr1  1  0.00000  0.88759  0.75568  1
 Sr  Sr2  1  0.00000  0.11241  0.25568  1
