CIF file written using JARVIS-Tools package.
data_CoP2O7
_symmetry_space_group_name_H-M  'C2'
_cell_length_a       4.38908
_cell_length_b       4.98481
_cell_length_c       4.98482
_cell_angle_alpha    100.024
_cell_angle_beta     98.5285
_cell_angle_gamma    98.5284

_symmetry_Int_Tables_number  5
_chemical_formula_structural  CoP2O7
_chemical_formula_sum  CoP2O7
_cell_volume  104.49803617761181
_cell_formula_units_Z  1
loop_
  _symmetry_equiv_pos_site_id
 _symmetry_equiv_pos_as_xyz
 1  'x, y, z'
loop_
 _atom_site_type_symbol
 _atom_site_label
 _atom_site_symmetry_multiplicity
 _atom_site_fract_x
 _atom_site_fract_y
 _atom_site_fract_z
 _atom_site_fract_occupancy
 Co  Co1  1  0.72360  0.44481  0.94729  1
 O  O1  1  0.54325  0.67527  0.19603  1
 O  O2  1  0.00573  0.39509  0.24389  1
 O  O3  1  0.22360  0.88678  0.50533  1
 O  O4  1  0.44146  0.14822  0.99702  1
 O  O5  1  0.99621  0.76683  0.91991  1
 O  O6  1  0.90394  0.19607  0.71684  1
 O  O7  1  0.45099  0.47220  0.62528  1
 P  P1  1  0.13210  0.00463  0.79724  1
 P  P2  1  0.31510  0.59487  0.38748  1
