CIF file written using JARVIS-Tools package.
data_Li3CuP2O7
_symmetry_space_group_name_H-M  'P-1'
_cell_length_a       5.14564
_cell_length_b       7.4637
_cell_length_c       9.06963
_cell_angle_alpha    105.738
_cell_angle_beta     94.4661
_cell_angle_gamma    110.091

_symmetry_Int_Tables_number  2
_chemical_formula_structural  Li3CuP2O7
_chemical_formula_sum  Li6Cu2P4O4
_cell_volume  309.17734617634335
_cell_formula_units_Z  2
loop_
  _symmetry_equiv_pos_site_id
 _symmetry_equiv_pos_as_xyz
 1  'x, y, z'
loop_
 _atom_site_type_symbol
 _atom_site_label
 _atom_site_symmetry_multiplicity
 _atom_site_fract_x
 _atom_site_fract_y
 _atom_site_fract_z
 _atom_site_fract_occupancy
 Cu  Cu1  1  0.00000  0.50000  0.50000  1
 Cu  Cu2  1  0.00000  0.50000  0.00000  1
 Li  Li1  1  0.07930  0.87224  0.55896  1
 Li  Li2  1  0.64003  0.12235  0.94258  1
 Li  Li3  1  0.01556  0.13910  0.78288  1
 Li  Li4  1  0.98444  0.86090  0.21712  1
 Li  Li5  1  0.35997  0.87765  0.05742  1
 Li  Li6  1  0.92070  0.12776  0.44104  1
 O  O1  1  0.43997  0.15746  0.09953  1
 O  O2  1  0.56003  0.84254  0.90047  1
 O  O3  1  0.94548  0.84899  0.74356  1
 O  O4  1  0.68978  0.22092  0.76899  1
 O  O5  1  0.56396  0.51512  0.73685  1
 O  O6  1  0.93698  0.72816  0.98220  1
 O  O7  1  0.22749  0.16579  0.60950  1
 O  O8  1  0.68910  0.28857  0.51117  1
 O  O9  1  0.77251  0.83421  0.39050  1
 O  O10  1  0.31022  0.77908  0.23101  1
 O  O11  1  0.05452  0.15101  0.25644  1
 O  O12  1  0.31090  0.71143  0.48883  1
 O  O13  1  0.43604  0.48488  0.26315  1
 O  O14  1  0.06302  0.27184  0.01780  1
 P  P1  1  0.54540  0.28941  0.65455  1
 P  P2  1  0.76045  0.74438  0.84158  1
 P  P3  1  0.45460  0.71059  0.34545  1
 P  P4  1  0.23955  0.25562  0.15842  1
