CIF file written using JARVIS-Tools package.
data_Fe2O3F
_symmetry_space_group_name_H-M  'Cmce'
_cell_length_a       5.78067
_cell_length_b       6.50994
_cell_length_c       6.74878
_cell_angle_alpha    90
_cell_angle_beta     115.358
_cell_angle_gamma    90

_symmetry_Int_Tables_number  64
_chemical_formula_structural  Fe2O3F
_chemical_formula_sum  Fe8O2F4
_cell_volume  229.4986817238242
_cell_formula_units_Z  4
loop_
  _symmetry_equiv_pos_site_id
 _symmetry_equiv_pos_as_xyz
 1  'x, y, z'
loop_
 _atom_site_type_symbol
 _atom_site_label
 _atom_site_symmetry_multiplicity
 _atom_site_fract_x
 _atom_site_fract_y
 _atom_site_fract_z
 _atom_site_fract_occupancy
 F  F1  1  0.24825  0.77572  0.49650  1
 F  F2  1  0.00175  0.27572  0.00350  1
 F  F3  1  0.74825  0.22428  0.49650  1
 F  F4  1  0.50175  0.72428  0.00350  1
 Fe  Fe1  1  0.24995  0.46829  0.49991  1
 Fe  Fe2  1  0.74995  0.53171  0.49991  1
 Fe  Fe3  1  0.50005  0.03171  0.00009  1
 Fe  Fe4  1  0.50003  0.00000  0.50007  1
 Fe  Fe5  1  0.00005  0.96829  0.00009  1
 Fe  Fe6  1  0.74997  0.50000  0.99993  1
 Fe  Fe7  1  0.24997  0.50000  0.99993  1
 Fe  Fe8  1  0.00003  0.00000  0.50007  1
 O  O1  1  0.65212  0.00000  0.80425  1
 O  O2  1  0.34779  0.00000  0.19557  1
 O  O3  1  0.84779  0.00000  0.19557  1
 O  O4  1  0.49824  0.30970  0.99647  1
 O  O5  1  0.99824  0.69030  0.99647  1
 O  O6  1  0.15212  0.00000  0.80425  1
 O  O7  1  0.40221  0.50000  0.30443  1
 O  O8  1  0.09788  0.50000  0.69575  1
 O  O9  1  0.59788  0.50000  0.69575  1
 O  O10  1  0.75176  0.80970  0.50353  1
 O  O11  1  0.25176  0.19030  0.50353  1
 O  O12  1  0.90221  0.50000  0.30443  1
