CIF file written using JARVIS-Tools package.
data_Cr3N2
_symmetry_space_group_name_H-M  'P-3m1'
_cell_length_a       2.74087
_cell_length_b       2.74107
_cell_length_c       6.92117
_cell_angle_alpha    90.0001
_cell_angle_beta     89.9922
_cell_angle_gamma    120.003

_symmetry_Int_Tables_number  164
_chemical_formula_structural  Cr3N2
_chemical_formula_sum  Cr3N2
_cell_volume  45.03064440172354
_cell_formula_units_Z  1
loop_
  _symmetry_equiv_pos_site_id
 _symmetry_equiv_pos_as_xyz
 1  'x, y, z'
loop_
 _atom_site_type_symbol
 _atom_site_label
 _atom_site_symmetry_multiplicity
 _atom_site_fract_x
 _atom_site_fract_y
 _atom_site_fract_z
 _atom_site_fract_occupancy
 Cr  Cr1  1  0.33361  0.66681  0.64801  1
 Cr  Cr2  1  0.66639  0.33319  0.35199  1
 Cr  Cr3  1  0.00000  0.00000  0.00000  1
 N  N1  1  0.33315  0.66658  0.18479  1
 N  N2  1  0.66685  0.33342  0.81521  1
