CIF file written using JARVIS-Tools package.
data_Ba2BrN
_symmetry_space_group_name_H-M  'R-3m'
_cell_length_a       4.14962
_cell_length_b       4.14963
_cell_length_c       8.2752
_cell_angle_alpha    75.4795
_cell_angle_beta     75.4795
_cell_angle_gamma    60

_symmetry_Int_Tables_number  166
_chemical_formula_structural  Ba2BrN
_chemical_formula_sum  Ba2BrN
_cell_volume  118.11863739133915
_cell_formula_units_Z  1
loop_
  _symmetry_equiv_pos_site_id
 _symmetry_equiv_pos_as_xyz
 1  'x, y, z'
loop_
 _atom_site_type_symbol
 _atom_site_label
 _atom_site_symmetry_multiplicity
 _atom_site_fract_x
 _atom_site_fract_y
 _atom_site_fract_z
 _atom_site_fract_occupancy
 Ba  Ba1  1  0.22911  0.22911  0.31267  1
 Ba  Ba2  1  0.77089  0.77089  0.68733  1
 Br  Br1  1  0.00000  0.00000  0.00000  1
 N  N1  1  0.50000  0.50000  0.50000  1
