CIF file written using JARVIS-Tools package.
data_GaH5N2F2
_symmetry_space_group_name_H-M  'C2/m'
_cell_length_a       5.90907
_cell_length_b       6.17697
_cell_length_c       4.96452
_cell_angle_alpha    92.9517
_cell_angle_beta     90
_cell_angle_gamma    61.4246

_symmetry_Int_Tables_number  12
_chemical_formula_structural  GaH5N2F2
_chemical_formula_sum  Ga2H0N4F4
_cell_volume  158.85896046807798
_cell_formula_units_Z  2
loop_
  _symmetry_equiv_pos_site_id
 _symmetry_equiv_pos_as_xyz
 1  'x, y, z'
loop_
 _atom_site_type_symbol
 _atom_site_label
 _atom_site_symmetry_multiplicity
 _atom_site_fract_x
 _atom_site_fract_y
 _atom_site_fract_z
 _atom_site_fract_occupancy
 F  F1  1  0.68465  0.15744  0.24145  1
 F  F2  1  0.31535  0.84256  0.75855  1
 F  F3  1  0.15791  0.15744  0.24145  1
 F  F4  1  0.84209  0.84256  0.75855  1
 Ga  Ga1  1  0.50000  0.00000  0.50000  1
 Ga  Ga2  1  0.00000  0.00000  0.00000  1
 H  H1  1  0.27088  0.45823  0.65616  1
 H  H2  1  0.65795  0.39001  0.79504  1
 H  H3  1  0.63467  0.73065  0.07677  1
 H  H4  1  0.34205  0.60999  0.20496  1
 H  H5  1  0.95204  0.39001  0.79504  1
 H  H6  1  0.11134  0.77731  0.42997  1
 H  H7  1  0.72912  0.54177  0.34384  1
 H  H8  1  0.88866  0.22269  0.57003  1
 H  H9  1  0.36533  0.26935  0.92323  1
 H  H10  1  0.04796  0.60999  0.20496  1
 N  N1  1  0.64202  0.71595  0.28007  1
 N  N2  1  0.14456  0.71088  0.23136  1
 N  N3  1  0.85544  0.28912  0.76864  1
 N  N4  1  0.35798  0.28405  0.71993  1
