CIF file written using JARVIS-Tools package.
data_LiCoSiO4
_symmetry_space_group_name_H-M  'I-4'
_cell_length_a       4.42426
_cell_length_b       5.29852
_cell_length_c       4.42426
_cell_angle_alpha    65.3232
_cell_angle_beta     90
_cell_angle_gamma    114.677

_symmetry_Int_Tables_number  82
_chemical_formula_structural  LiCoSiO4
_chemical_formula_sum  LiCoSiO4
_cell_volume  83.70572459409449
_cell_formula_units_Z  1
loop_
  _symmetry_equiv_pos_site_id
 _symmetry_equiv_pos_as_xyz
 1  'x, y, z'
loop_
 _atom_site_type_symbol
 _atom_site_label
 _atom_site_symmetry_multiplicity
 _atom_site_fract_x
 _atom_site_fract_y
 _atom_site_fract_z
 _atom_site_fract_occupancy
 Co  Co1  1  0.75000  0.50000  0.75000  1
 Li  Li1  1  0.50000  0.00000  0.50000  1
 O  O1  1  0.35114  0.21582  0.08464  1
 O  O2  1  0.69954  0.78418  0.35114  1
 O  O3  1  0.86467  0.21582  0.69954  1
 O  O4  1  0.08464  0.78418  0.86467  1
 Si  Si1  1  0.00000  0.00000  0.00000  1
