CIF file written using JARVIS-Tools package.
data_ErAsPd
_symmetry_space_group_name_H-M  'Pnma'
_cell_length_a       4.08975
_cell_length_b       7.01938
_cell_length_c       7.94833
_cell_angle_alpha    90
_cell_angle_beta     90
_cell_angle_gamma    90

_symmetry_Int_Tables_number  62
_chemical_formula_structural  ErAsPd
_chemical_formula_sum  Er4As4Pd4
_cell_volume  228.1769146526618
_cell_formula_units_Z  4
loop_
  _symmetry_equiv_pos_site_id
 _symmetry_equiv_pos_as_xyz
 1  'x, y, z'
loop_
 _atom_site_type_symbol
 _atom_site_label
 _atom_site_symmetry_multiplicity
 _atom_site_fract_x
 _atom_site_fract_y
 _atom_site_fract_z
 _atom_site_fract_occupancy
 As  As1  1  0.25000  0.74257  0.87902  1
 As  As2  1  0.75000  0.25743  0.12098  1
 As  As3  1  0.25000  0.24257  0.62098  1
 As  As4  1  0.75000  0.75743  0.37902  1
 Er  Er1  1  0.25000  0.53515  0.19239  1
 Er  Er2  1  0.75000  0.46485  0.80761  1
 Er  Er3  1  0.25000  0.03515  0.30761  1
 Er  Er4  1  0.75000  0.96485  0.69239  1
 Pd  Pd1  1  0.75000  0.35840  0.43703  1
 Pd  Pd2  1  0.25000  0.64160  0.56297  1
 Pd  Pd3  1  0.75000  0.85840  0.06297  1
 Pd  Pd4  1  0.25000  0.14160  0.93703  1
