CIF file written using JARVIS-Tools package.
data_V2ZnO5
_symmetry_space_group_name_H-M  'Cmcm'
_cell_length_a       3.61464
_cell_length_b       5.39722
_cell_length_c       11.3452
_cell_angle_alpha    90
_cell_angle_beta     90
_cell_angle_gamma    109.564

_symmetry_Int_Tables_number  63
_chemical_formula_structural  V2ZnO5
_chemical_formula_sum  V4Zn2O0
_cell_volume  208.55619943056723
_cell_formula_units_Z  2
loop_
  _symmetry_equiv_pos_site_id
 _symmetry_equiv_pos_as_xyz
 1  'x, y, z'
loop_
 _atom_site_type_symbol
 _atom_site_label
 _atom_site_symmetry_multiplicity
 _atom_site_fract_x
 _atom_site_fract_y
 _atom_site_fract_z
 _atom_site_fract_occupancy
 O  O1  1  0.69663  0.39327  0.25000  1
 O  O2  1  0.30337  0.60673  0.75000  1
 O  O3  1  0.23397  0.46795  0.07347  1
 O  O4  1  0.76603  0.53206  0.92653  1
 O  O5  1  0.76603  0.53206  0.57347  1
 O  O6  1  0.23397  0.46795  0.42653  1
 O  O7  1  0.04333  0.08665  0.62783  1
 O  O8  1  0.95667  0.91335  0.37217  1
 O  O9  1  0.04333  0.08665  0.87217  1
 O  O10  1  0.95667  0.91335  0.12784  1
 V  V1  1  0.20264  0.40527  0.59788  1
 V  V2  1  0.79736  0.59473  0.40212  1
 V  V3  1  0.79736  0.59473  0.09788  1
 V  V4  1  0.20264  0.40527  0.90212  1
 Zn  Zn1  1  0.90028  0.80056  0.75000  1
 Zn  Zn2  1  0.09972  0.19944  0.25000  1
