CIF file written using JARVIS-Tools package.
data_In3Ir
_symmetry_space_group_name_H-M  'Pnma'
_cell_length_a       5.45834
_cell_length_b       7.51612
_cell_length_c       8.41456
_cell_angle_alpha    90
_cell_angle_beta     90
_cell_angle_gamma    90

_symmetry_Int_Tables_number  62
_chemical_formula_structural  In3Ir
_chemical_formula_sum  In2Ir4
_cell_volume  345.21222800157545
_cell_formula_units_Z  4
loop_
  _symmetry_equiv_pos_site_id
 _symmetry_equiv_pos_as_xyz
 1  'x, y, z'
loop_
 _atom_site_type_symbol
 _atom_site_label
 _atom_site_symmetry_multiplicity
 _atom_site_fract_x
 _atom_site_fract_y
 _atom_site_fract_z
 _atom_site_fract_occupancy
 In  In1  1  0.63741  0.32908  0.55332  1
 In  In2  1  0.08681  0.48907  0.75000  1
 In  In3  1  0.86259  0.82908  0.94668  1
 In  In4  1  0.91319  0.51093  0.25000  1
 In  In5  1  0.13741  0.17092  0.05332  1
 In  In6  1  0.41319  0.98907  0.75000  1
 In  In7  1  0.36259  0.67092  0.44668  1
 In  In8  1  0.58681  0.01093  0.25000  1
 In  In9  1  0.86259  0.82908  0.55332  1
 In  In10  1  0.63741  0.32908  0.94668  1
 In  In11  1  0.13741  0.17092  0.44668  1
 In  In12  1  0.36259  0.67092  0.05332  1
 Ir  Ir1  1  0.43807  0.37284  0.25000  1
 Ir  Ir2  1  0.56193  0.62716  0.75000  1
 Ir  Ir3  1  0.93807  0.12716  0.75000  1
 Ir  Ir4  1  0.06193  0.87284  0.25000  1
