CIF file written using JARVIS-Tools package.
data_KNaSmTaO5
_symmetry_space_group_name_H-M  'P4/nmm'
_cell_length_a       5.71868
_cell_length_b       5.71868
_cell_length_c       8.2579
_cell_angle_alpha    90
_cell_angle_beta     90
_cell_angle_gamma    90

_symmetry_Int_Tables_number  129
_chemical_formula_structural  KNaSmTaO5
_chemical_formula_sum  K2Na2Sm2Ta2O0
_cell_volume  270.06048857315415
_cell_formula_units_Z  2
loop_
  _symmetry_equiv_pos_site_id
 _symmetry_equiv_pos_as_xyz
 1  'x, y, z'
loop_
 _atom_site_type_symbol
 _atom_site_label
 _atom_site_symmetry_multiplicity
 _atom_site_fract_x
 _atom_site_fract_y
 _atom_site_fract_z
 _atom_site_fract_occupancy
 K  K1  1  0.50000  0.50000  0.00000  1
 K  K2  1  0.00000  0.00000  0.00000  1
 Na  Na1  1  0.50000  0.00000  0.24144  1
 Na  Na2  1  0.00000  0.50000  0.75856  1
 O  O1  1  0.73205  0.23205  0.66918  1
 O  O2  1  0.76795  0.26795  0.33082  1
 O  O3  1  0.23205  0.26795  0.33082  1
 O  O4  1  0.00000  0.50000  0.03345  1
 O  O5  1  0.23205  0.73205  0.33082  1
 O  O6  1  0.26795  0.76795  0.66918  1
 O  O7  1  0.26795  0.23205  0.66918  1
 O  O8  1  0.76795  0.73205  0.33082  1
 O  O9  1  0.73205  0.76795  0.66918  1
 O  O10  1  0.50000  0.00000  0.96655  1
 Sm  Sm1  1  0.00000  0.00000  0.50000  1
 Sm  Sm2  1  0.50000  0.50000  0.50000  1
 Ta  Ta1  1  0.50000  0.00000  0.74099  1
 Ta  Ta2  1  0.00000  0.50000  0.25901  1
