CIF file written using JARVIS-Tools package.
data_Li2MnCr3O8
_symmetry_space_group_name_H-M  'P6_3mc'
_cell_length_a       5.77101
_cell_length_b       5.77101
_cell_length_c       9.22079
_cell_angle_alpha    90
_cell_angle_beta     90
_cell_angle_gamma    120

_symmetry_Int_Tables_number  186
_chemical_formula_structural  Li2MnCr3O8
_chemical_formula_sum  Li4Mn2Cr6O6
_cell_volume  265.9510062007602
_cell_formula_units_Z  2
loop_
  _symmetry_equiv_pos_site_id
 _symmetry_equiv_pos_as_xyz
 1  'x, y, z'
loop_
 _atom_site_type_symbol
 _atom_site_label
 _atom_site_symmetry_multiplicity
 _atom_site_fract_x
 _atom_site_fract_y
 _atom_site_fract_z
 _atom_site_fract_occupancy
 Cr  Cr1  1  0.17096  0.82904  0.78735  1
 Cr  Cr2  1  0.65808  0.82904  0.78735  1
 Cr  Cr3  1  0.17096  0.34192  0.78735  1
 Cr  Cr4  1  0.34192  0.17096  0.28735  1
 Cr  Cr5  1  0.82904  0.17096  0.28735  1
 Cr  Cr6  1  0.82904  0.65808  0.28735  1
 Li  Li1  1  0.33333  0.66667  0.10700  1
 Li  Li2  1  0.66667  0.33333  0.60700  1
 Li  Li3  1  0.00000  0.00000  0.50405  1
 Li  Li4  1  0.00000  0.00000  0.00405  1
 Mn  Mn1  1  0.33333  0.66667  0.51340  1
 Mn  Mn2  1  0.66667  0.33333  0.01340  1
 O  O1  1  0.16921  0.83079  0.40041  1
 O  O2  1  0.16921  0.33842  0.40041  1
 O  O3  1  0.95723  0.47861  0.15487  1
 O  O4  1  0.33333  0.66667  0.89971  1
 O  O5  1  0.00000  0.00000  0.69399  1
 O  O6  1  0.00000  0.00000  0.19399  1
 O  O7  1  0.04277  0.52139  0.65487  1
 O  O8  1  0.83079  0.16921  0.90041  1
 O  O9  1  0.66158  0.83079  0.40041  1
 O  O10  1  0.52139  0.04277  0.15487  1
 O  O11  1  0.52139  0.47861  0.15487  1
 O  O12  1  0.66667  0.33333  0.39971  1
 O  O13  1  0.47861  0.52139  0.65487  1
 O  O14  1  0.33842  0.16921  0.90041  1
 O  O15  1  0.47861  0.95723  0.65487  1
 O  O16  1  0.83079  0.66158  0.90041  1
