CIF file written using JARVIS-Tools package.
data_DyAu
_symmetry_space_group_name_H-M  'Cmcm'
_cell_length_a       3.72954
_cell_length_b       4.62981
_cell_length_c       5.77696
_cell_angle_alpha    90
_cell_angle_beta     71.168
_cell_angle_gamma    90

_symmetry_Int_Tables_number  63
_chemical_formula_structural  DyAu
_chemical_formula_sum  Dy2Au2
_cell_volume  94.41107202727142
_cell_formula_units_Z  2
loop_
  _symmetry_equiv_pos_site_id
 _symmetry_equiv_pos_as_xyz
 1  'x, y, z'
loop_
 _atom_site_type_symbol
 _atom_site_label
 _atom_site_symmetry_multiplicity
 _atom_site_fract_x
 _atom_site_fract_y
 _atom_site_fract_z
 _atom_site_fract_occupancy
 Au  Au1  1  0.40930  0.75000  0.18139  1
 Au  Au2  1  0.59070  0.25000  0.81861  1
 Dy  Dy1  1  0.13821  0.75000  0.72359  1
 Dy  Dy2  1  0.86179  0.25000  0.27641  1
