CIF file written using JARVIS-Tools package.
data_MgSiN2
_symmetry_space_group_name_H-M  'R-3m'
_cell_length_a       2.8511
_cell_length_b       2.85111
_cell_length_c       5.15082
_cell_angle_alpha    73.933
_cell_angle_beta     73.933
_cell_angle_gamma    60

_symmetry_Int_Tables_number  166
_chemical_formula_structural  MgSiN2
_chemical_formula_sum  MgSiN2
_cell_volume  34.35906503792405
_cell_formula_units_Z  1
loop_
  _symmetry_equiv_pos_site_id
 _symmetry_equiv_pos_as_xyz
 1  'x, y, z'
loop_
 _atom_site_type_symbol
 _atom_site_label
 _atom_site_symmetry_multiplicity
 _atom_site_fract_x
 _atom_site_fract_y
 _atom_site_fract_z
 _atom_site_fract_occupancy
 Mg  Mg1  1  0.00000  0.00000  0.00000  1
 N  N1  1  0.76298  0.76298  0.71107  1
 N  N2  1  0.23702  0.23702  0.28893  1
 Si  Si1  1  0.50000  0.50000  0.50000  1
