CIF file written using JARVIS-Tools package.
data_Li2FeF4
_symmetry_space_group_name_H-M  'P2_1/c'
_cell_length_a       5.34776
_cell_length_b       5.2425
_cell_length_c       5.82998
_cell_angle_alpha    90
_cell_angle_beta     114.788
_cell_angle_gamma    90

_symmetry_Int_Tables_number  14
_chemical_formula_structural  Li2FeF4
_chemical_formula_sum  Li4Fe2F8
_cell_volume  148.38763454852892
_cell_formula_units_Z  2
loop_
  _symmetry_equiv_pos_site_id
 _symmetry_equiv_pos_as_xyz
 1  'x, y, z'
loop_
 _atom_site_type_symbol
 _atom_site_label
 _atom_site_symmetry_multiplicity
 _atom_site_fract_x
 _atom_site_fract_y
 _atom_site_fract_z
 _atom_site_fract_occupancy
 F  F1  1  0.98125  0.01347  0.62757  1
 F  F2  1  0.02156  0.53187  0.84962  1
 F  F3  1  0.52164  0.31354  0.84965  1
 F  F4  1  0.48136  0.83196  0.62771  1
 F  F5  1  0.51864  0.33196  0.37229  1
 F  F6  1  0.47836  0.81354  0.15035  1
 F  F7  1  0.97844  0.03187  0.15038  1
 F  F8  1  0.01875  0.51347  0.37243  1
 Fe  Fe1  1  0.25003  0.17269  0.50003  1
 Fe  Fe2  1  0.74997  0.67269  0.49997  1
 Li  Li1  1  0.37116  0.63753  0.84306  1
 Li  Li2  1  0.12876  0.70781  0.15691  1
 Li  Li3  1  0.87124  0.20781  0.84309  1
 Li  Li4  1  0.62884  0.13753  0.15694  1
