CIF file written using JARVIS-Tools package.
data_CrP2O7
_symmetry_space_group_name_H-M  'C2'
_cell_length_a       5.04592
_cell_length_b       5.04592
_cell_length_c       4.48433
_cell_angle_alpha    81.7288
_cell_angle_beta     98.2713
_cell_angle_gamma    80.3901

_symmetry_Int_Tables_number  5
_chemical_formula_structural  CrP2O7
_chemical_formula_sum  CrP2O7
_cell_volume  109.74266283512286
_cell_formula_units_Z  1
loop_
  _symmetry_equiv_pos_site_id
 _symmetry_equiv_pos_as_xyz
 1  'x, y, z'
loop_
 _atom_site_type_symbol
 _atom_site_label
 _atom_site_symmetry_multiplicity
 _atom_site_fract_x
 _atom_site_fract_y
 _atom_site_fract_z
 _atom_site_fract_occupancy
 Cr  Cr1  1  0.11103  0.11103  -0.00000  1
 O  O1  1  0.55160  0.55160  0.50000  1
 O  O2  1  0.14918  0.42818  0.73194  1
 O  O3  1  0.07395  0.81156  0.29126  1
 O  O4  1  0.33218  0.85852  0.81437  1
 O  O5  1  0.81156  0.07395  0.70874  1
 O  O6  1  0.85852  0.33218  0.18563  1
 O  O7  1  0.42818  0.14918  0.26806  1
 P  P1  1  0.26327  0.66704  0.59080  1
 P  P2  1  0.66704  0.26327  0.40920  1
