CIF file written using JARVIS-Tools package.
data_FeS
_symmetry_space_group_name_H-M  'P2_1/c'
_cell_length_a       6.54589
_cell_length_b       5.66532
_cell_length_c       7.98372
_cell_angle_alpha    90
_cell_angle_beta     91.3079
_cell_angle_gamma    90

_symmetry_Int_Tables_number  14
_chemical_formula_structural  FeS
_chemical_formula_sum  Fe2S2
_cell_volume  295.9959644319787
_cell_formula_units_Z  12
loop_
  _symmetry_equiv_pos_site_id
 _symmetry_equiv_pos_as_xyz
 1  'x, y, z'
loop_
 _atom_site_type_symbol
 _atom_site_label
 _atom_site_symmetry_multiplicity
 _atom_site_fract_x
 _atom_site_fract_y
 _atom_site_fract_z
 _atom_site_fract_occupancy
 Fe  Fe1  1  0.54070  0.72764  0.07664  1
 Fe  Fe2  1  0.45930  0.22764  0.42336  1
 Fe  Fe3  1  0.45930  0.27236  0.92336  1
 Fe  Fe4  1  0.54070  0.77236  0.57664  1
 Fe  Fe5  1  0.82557  0.29201  0.28773  1
 Fe  Fe6  1  0.90758  0.79925  0.93681  1
 Fe  Fe7  1  0.17443  0.79201  0.21227  1
 Fe  Fe8  1  0.82557  0.20799  0.78773  1
 Fe  Fe9  1  0.90758  0.70075  0.43681  1
 Fe  Fe10  1  0.09242  0.20075  0.06319  1
 Fe  Fe11  1  0.09242  0.29925  0.56319  1
 Fe  Fe12  1  0.17443  0.70799  0.71227  1
 S  S1  1  0.87138  0.56624  0.68812  1
 S  S2  1  0.40720  0.07368  0.16174  1
 S  S3  1  0.59280  0.57368  0.33826  1
 S  S4  1  0.59280  0.92632  0.83826  1
 S  S5  1  0.40720  0.42632  0.66174  1
 S  S6  1  0.75787  0.41459  0.02268  1
 S  S7  1  0.24213  0.91459  0.47732  1
 S  S8  1  0.12862  0.43376  0.31188  1
 S  S9  1  0.87138  0.93376  0.18812  1
 S  S10  1  0.24213  0.58541  0.97732  1
 S  S11  1  0.75787  0.08541  0.52268  1
 S  S12  1  0.12862  0.06624  0.81188  1
