CIF file written using JARVIS-Tools package.
data_Ba3Si6N2O12
_symmetry_space_group_name_H-M  'P-3'
_cell_length_a       6.52927
_cell_length_b       7.56794
_cell_length_c       7.56801
_cell_angle_alpha    60.0007
_cell_angle_beta     89.9992
_cell_angle_gamma    89.9988

_symmetry_Int_Tables_number  147
_chemical_formula_structural  Ba3Si6N2O12
_chemical_formula_sum  Ba3Si6N2O2
_cell_volume  323.85990968079665
_cell_formula_units_Z  1
loop_
  _symmetry_equiv_pos_site_id
 _symmetry_equiv_pos_as_xyz
 1  'x, y, z'
loop_
 _atom_site_type_symbol
 _atom_site_label
 _atom_site_symmetry_multiplicity
 _atom_site_fract_x
 _atom_site_fract_y
 _atom_site_fract_z
 _atom_site_fract_occupancy
 Ba  Ba1  1  0.89529  0.33334  0.33333  1
 Ba  Ba2  1  0.10471  0.66666  0.66667  1
 Ba  Ba3  1  0.00000  0.00000  0.00000  1
 N  N1  1  0.43446  0.33333  0.33333  1
 N  N2  1  0.56554  0.66667  0.66667  1
 O  O1  1  0.59144  0.68214  0.30181  1
 O  O2  1  0.17045  0.05936  0.63941  1
 O  O3  1  0.17045  0.63941  0.30124  1
 O  O4  1  0.82955  0.69877  0.94065  1
 O  O5  1  0.17045  0.30123  0.05935  1
 O  O6  1  0.82955  0.36059  0.69876  1
 O  O7  1  0.40856  0.98394  0.31785  1
 O  O8  1  0.40856  0.31786  0.69819  1
 O  O9  1  0.59144  0.01606  0.68215  1
 O  O10  1  0.82955  0.94064  0.36059  1
 O  O11  1  0.40856  0.69822  0.98395  1
 O  O12  1  0.59144  0.30178  0.01605  1
 Si  Si1  1  0.38865  0.59341  0.23597  1
 Si  Si2  1  0.38865  0.17063  0.59341  1
 Si  Si3  1  0.38865  0.23596  0.17062  1
 Si  Si4  1  0.61135  0.40659  0.76403  1
 Si  Si5  1  0.61135  0.82937  0.40659  1
 Si  Si6  1  0.61135  0.76404  0.82938  1
