CIF file written using JARVIS-Tools package.
data_DyAl2Ni
_symmetry_space_group_name_H-M  'Cmcm'
_cell_length_a       4.06115
_cell_length_b       5.48449
_cell_length_c       6.88362
_cell_angle_alpha    90
_cell_angle_beta     90
_cell_angle_gamma    111.73

_symmetry_Int_Tables_number  63
_chemical_formula_structural  DyAl2Ni
_chemical_formula_sum  Dy2Al4Ni2
_cell_volume  142.42568198358262
_cell_formula_units_Z  2
loop_
  _symmetry_equiv_pos_site_id
 _symmetry_equiv_pos_as_xyz
 1  'x, y, z'
loop_
 _atom_site_type_symbol
 _atom_site_label
 _atom_site_symmetry_multiplicity
 _atom_site_fract_x
 _atom_site_fract_y
 _atom_site_fract_z
 _atom_site_fract_occupancy
 Al  Al1  1  0.65660  0.31320  0.44593  1
 Al  Al2  1  0.34340  0.68680  0.94593  1
 Al  Al3  1  0.34340  0.68680  0.55407  1
 Al  Al4  1  0.65660  0.31320  0.05407  1
 Dy  Dy1  1  0.06015  0.12030  0.75000  1
 Dy  Dy2  1  0.93985  0.87970  0.25000  1
 Ni  Ni1  1  0.21606  0.43212  0.25000  1
 Ni  Ni2  1  0.78394  0.56788  0.75000  1
