CIF file written using JARVIS-Tools package.
data_V3O5F
_symmetry_space_group_name_H-M  'P-1'
_cell_length_a       4.61308
_cell_length_b       5.47153
_cell_length_c       7.39384
_cell_angle_alpha    83.8519
_cell_angle_beta     89.0172
_cell_angle_gamma    88.0728

_symmetry_Int_Tables_number  2
_chemical_formula_structural  V3O5F
_chemical_formula_sum  V6O0F2
_cell_volume  185.42940823457434
_cell_formula_units_Z  2
loop_
  _symmetry_equiv_pos_site_id
 _symmetry_equiv_pos_as_xyz
 1  'x, y, z'
loop_
 _atom_site_type_symbol
 _atom_site_label
 _atom_site_symmetry_multiplicity
 _atom_site_fract_x
 _atom_site_fract_y
 _atom_site_fract_z
 _atom_site_fract_occupancy
 F  F1  1  0.20351  0.46197  0.73697  1
 F  F2  1  0.79649  0.53803  0.26303  1
 O  O1  1  0.70019  0.69612  0.60074  1
 O  O2  1  0.80429  0.19804  0.60294  1
 O  O3  1  0.79812  0.86234  0.93550  1
 O  O4  1  0.70215  0.36392  0.93259  1
 O  O5  1  0.70185  0.03936  0.26529  1
 O  O6  1  0.29815  0.96064  0.73471  1
 O  O7  1  0.29981  0.30388  0.39926  1
 O  O8  1  0.29785  0.63608  0.06741  1
 O  O9  1  0.20188  0.13766  0.06450  1
 O  O10  1  0.19571  0.80196  0.39706  1
 V  V1  1  0.02289  0.86125  0.16810  1
 V  V2  1  0.00000  0.50000  0.50000  1
 V  V3  1  0.97711  0.13875  0.83190  1
 V  V4  1  0.50000  -0.00000  0.50000  1
 V  V5  1  0.47818  0.32587  0.15813  1
 V  V6  1  0.52182  0.67413  0.84187  1
