CIF file written using JARVIS-Tools package.
data_BaZrO3
_symmetry_space_group_name_H-M  'I4/mcm'
_cell_length_a       5.9798
_cell_length_b       5.97982
_cell_length_c       5.9798
_cell_angle_alpha    120
_cell_angle_beta     90
_cell_angle_gamma    120

_symmetry_Int_Tables_number  140
_chemical_formula_structural  BaZrO3
_chemical_formula_sum  Ba2Zr2O6
_cell_volume  151.19883278172756
_cell_formula_units_Z  2
loop_
  _symmetry_equiv_pos_site_id
 _symmetry_equiv_pos_as_xyz
 1  'x, y, z'
loop_
 _atom_site_type_symbol
 _atom_site_label
 _atom_site_symmetry_multiplicity
 _atom_site_fract_x
 _atom_site_fract_y
 _atom_site_fract_z
 _atom_site_fract_occupancy
 Ba  Ba1  1  0.75000  0.50000  0.25000  1
 Ba  Ba2  1  0.25000  0.50000  0.75000  1
 O  O1  1  0.25000  0.50000  0.25000  1
 O  O2  1  0.75000  0.50000  0.75000  1
 O  O3  1  0.24694  0.00000  0.25306  1
 O  O4  1  0.75306  0.00000  0.74694  1
 O  O5  1  0.25306  0.00000  0.75306  1
 O  O6  1  0.74694  0.00000  0.24694  1
 Zr  Zr1  1  0.50000  0.00000  0.50000  1
 Zr  Zr2  1  0.00000  0.00000  0.00000  1
