CIF file written using JARVIS-Tools package.
data_Mg2Sn3O8
_symmetry_space_group_name_H-M  'C2/m'
_cell_length_a       5.41603
_cell_length_b       6.18764
_cell_length_c       5.90925
_cell_angle_alpha    121.571
_cell_angle_beta     98.7283
_cell_angle_gamma    90

_symmetry_Int_Tables_number  12
_chemical_formula_structural  Mg2Sn3O8
_chemical_formula_sum  Mg2Sn3O8
_cell_volume  166.02535847193832
_cell_formula_units_Z  1
loop_
  _symmetry_equiv_pos_site_id
 _symmetry_equiv_pos_as_xyz
 1  'x, y, z'
loop_
 _atom_site_type_symbol
 _atom_site_label
 _atom_site_symmetry_multiplicity
 _atom_site_fract_x
 _atom_site_fract_y
 _atom_site_fract_z
 _atom_site_fract_occupancy
 Mg  Mg1  1  0.57661  0.70463  0.40926  1
 Mg  Mg2  1  0.42339  0.29537  0.59074  1
 O  O1  1  0.13497  0.39401  0.78803  1
 O  O2  1  0.86503  0.60598  0.21197  1
 O  O3  1  0.13600  0.89381  0.78762  1
 O  O4  1  0.86400  0.10619  0.21238  1
 O  O5  1  0.36257  0.35271  0.25043  1
 O  O6  1  0.36257  0.89772  0.25043  1
 O  O7  1  0.63743  0.10228  0.74957  1
 O  O8  1  0.63743  0.64729  0.74957  1
 Sn  Sn1  1  0.50000  1.00000  -0.00000  1
 Sn  Sn2  1  -0.00000  0.74220  1.00000  1
 Sn  Sn3  1  0.00000  0.25780  1.00000  1
