CIF file written using JARVIS-Tools package.
data_TiF4
_symmetry_space_group_name_H-M  'P-1'
_cell_length_a       4.93283
_cell_length_b       5.86707
_cell_length_c       6.36619
_cell_angle_alpha    132.078
_cell_angle_beta     97.4735
_cell_angle_gamma    89.8673

_symmetry_Int_Tables_number  2
_chemical_formula_structural  TiF4
_chemical_formula_sum  Ti2F8
_cell_volume  134.6871945232267
_cell_formula_units_Z  2
loop_
  _symmetry_equiv_pos_site_id
 _symmetry_equiv_pos_as_xyz
 1  'x, y, z'
loop_
 _atom_site_type_symbol
 _atom_site_label
 _atom_site_symmetry_multiplicity
 _atom_site_fract_x
 _atom_site_fract_y
 _atom_site_fract_z
 _atom_site_fract_occupancy
 F  F1  1  0.84957  0.41032  0.21665  1
 F  F2  1  0.64735  0.28820  0.78084  1
 F  F3  1  0.10493  0.53774  0.74793  1
 F  F4  1  0.14916  0.09289  0.78475  1
 F  F5  1  0.34778  0.60564  0.21275  1
 F  F6  1  0.39200  0.16079  0.24957  1
 F  F7  1  0.88922  0.89327  0.24129  1
 F  F8  1  0.60771  0.80526  0.75620  1
 Ti  Ti1  1  -0.00314  0.52302  -0.00842  1
 Ti  Ti2  1  0.50007  0.17552  0.00592  1
