CIF file written using JARVIS-Tools package.
data_NdCu3Ru4O12
_symmetry_space_group_name_H-M  'Im-3'
_cell_length_a       6.49302
_cell_length_b       6.49302
_cell_length_c       6.49302
_cell_angle_alpha    109.471
_cell_angle_beta     109.471
_cell_angle_gamma    109.471

_symmetry_Int_Tables_number  204
_chemical_formula_structural  NdCu3Ru4O12
_chemical_formula_sum  NdCu3Ru4O2
_cell_volume  210.72608906607152
_cell_formula_units_Z  1
loop_
  _symmetry_equiv_pos_site_id
 _symmetry_equiv_pos_as_xyz
 1  'x, y, z'
loop_
 _atom_site_type_symbol
 _atom_site_label
 _atom_site_symmetry_multiplicity
 _atom_site_fract_x
 _atom_site_fract_y
 _atom_site_fract_z
 _atom_site_fract_occupancy
 Cu  Cu1  1  0.50000  0.50000  0.00000  1
 Cu  Cu2  1  0.00000  0.50000  0.50000  1
 Cu  Cu3  1  0.50000  0.00000  0.50000  1
 Nd  Nd1  1  0.00000  0.00000  0.00000  1
 O  O1  1  0.30420  0.82812  0.13232  1
 O  O2  1  0.69580  0.82812  0.52392  1
 O  O3  1  0.17188  0.47608  0.30420  1
 O  O4  1  0.47608  0.30420  0.17188  1
 O  O5  1  0.86768  0.69580  0.17188  1
 O  O6  1  0.82812  0.13232  0.30420  1
 O  O7  1  0.52392  0.69580  0.82812  1
 O  O8  1  0.13232  0.30420  0.82812  1
 O  O9  1  0.30420  0.17188  0.47608  1
 O  O10  1  0.17188  0.86768  0.69580  1
 O  O11  1  0.69580  0.17188  0.86768  1
 O  O12  1  0.82812  0.52392  0.69580  1
 Ru  Ru1  1  0.50000  0.50000  0.50000  1
 Ru  Ru2  1  0.50000  0.00000  0.00000  1
 Ru  Ru3  1  0.00000  0.00000  0.50000  1
 Ru  Ru4  1  0.00000  0.50000  -0.00000  1
