CIF file written using JARVIS-Tools package.
data_KMnCl3
_symmetry_space_group_name_H-M  'Pnma'
_cell_length_a       3.85568
_cell_length_b       8.70882
_cell_length_c       14.2764
_cell_angle_alpha    90
_cell_angle_beta     90
_cell_angle_gamma    90

_symmetry_Int_Tables_number  62
_chemical_formula_structural  KMnCl3
_chemical_formula_sum  K4Mn4Cl2
_cell_volume  479.37709904574257
_cell_formula_units_Z  4
loop_
  _symmetry_equiv_pos_site_id
 _symmetry_equiv_pos_as_xyz
 1  'x, y, z'
loop_
 _atom_site_type_symbol
 _atom_site_label
 _atom_site_symmetry_multiplicity
 _atom_site_fract_x
 _atom_site_fract_y
 _atom_site_fract_z
 _atom_site_fract_occupancy
 Cl  Cl1  1  0.75000  0.82888  0.49322  1
 Cl  Cl2  1  0.25000  0.02233  0.10135  1
 Cl  Cl3  1  0.75000  0.32888  0.00678  1
 Cl  Cl4  1  0.75000  0.97767  0.89865  1
 Cl  Cl5  1  0.75000  0.21519  0.29137  1
 Cl  Cl6  1  0.25000  0.17112  0.50678  1
 Cl  Cl7  1  0.75000  0.47767  0.60135  1
 Cl  Cl8  1  0.25000  0.52233  0.39865  1
 Cl  Cl9  1  0.75000  0.71519  0.20863  1
 Cl  Cl10  1  0.25000  0.67112  0.99322  1
 Cl  Cl11  1  0.25000  0.28481  0.79137  1
 Cl  Cl12  1  0.25000  0.78481  0.70863  1
 K  K1  1  0.75000  0.56871  0.82468  1
 K  K2  1  0.25000  0.93129  0.32468  1
 K  K3  1  0.25000  0.43129  0.17532  1
 K  K4  1  0.75000  0.06871  0.67532  1
 Mn  Mn1  1  0.75000  0.33338  0.44387  1
 Mn  Mn2  1  0.75000  0.83338  0.05613  1
 Mn  Mn3  1  0.25000  0.16662  0.94387  1
 Mn  Mn4  1  0.25000  0.66662  0.55613  1
