CIF file written using JARVIS-Tools package.
data_PtCl2
_symmetry_space_group_name_H-M  'R-3m'
_cell_length_a       8.13499
_cell_length_b       8.13499
_cell_length_c       8.13499
_cell_angle_alpha    108.253
_cell_angle_beta     108.253
_cell_angle_gamma    108.253

_symmetry_Int_Tables_number  166
_chemical_formula_structural  PtCl2
_chemical_formula_sum  Pt6Cl2
_cell_volume  432.1151619639927
_cell_formula_units_Z  6
loop_
  _symmetry_equiv_pos_site_id
 _symmetry_equiv_pos_as_xyz
 1  'x, y, z'
loop_
 _atom_site_type_symbol
 _atom_site_label
 _atom_site_symmetry_multiplicity
 _atom_site_fract_x
 _atom_site_fract_y
 _atom_site_fract_z
 _atom_site_fract_occupancy
 Cl  Cl1  1  0.85137  0.60006  0.60006  1
 Cl  Cl2  1  -0.00000  0.75185  0.24815  1
 Cl  Cl3  1  0.75185  0.24815  0.00000  1
 Cl  Cl4  1  0.75185  -0.00000  0.24815  1
 Cl  Cl5  1  0.00000  0.24815  0.75185  1
 Cl  Cl6  1  0.24815  0.75185  -0.00000  1
 Cl  Cl7  1  0.39994  0.14863  0.39994  1
 Cl  Cl8  1  0.24815  0.00000  0.75185  1
 Cl  Cl9  1  0.14863  0.39994  0.39994  1
 Cl  Cl10  1  0.60006  0.85137  0.60006  1
 Cl  Cl11  1  0.60006  0.60006  0.85137  1
 Cl  Cl12  1  0.39994  0.39994  0.14863  1
 Pt  Pt1  1  0.07777  0.07777  0.33304  1
 Pt  Pt2  1  0.92223  0.92223  0.66696  1
 Pt  Pt3  1  0.92223  0.66696  0.92223  1
 Pt  Pt4  1  0.66696  0.92223  0.92223  1
 Pt  Pt5  1  0.33304  0.07777  0.07777  1
 Pt  Pt6  1  0.07777  0.33304  0.07777  1
