CIF file written using JARVIS-Tools package.
data_AlBr3
_symmetry_space_group_name_H-M  'P2_1/c'
_cell_length_a       7.48564
_cell_length_b       6.89336
_cell_length_c       10.0667
_cell_angle_alpha    90
_cell_angle_beta     96.7153
_cell_angle_gamma    90

_symmetry_Int_Tables_number  14
_chemical_formula_structural  AlBr3
_chemical_formula_sum  Al4Br2
_cell_volume  515.8869624820386
_cell_formula_units_Z  4
loop_
  _symmetry_equiv_pos_site_id
 _symmetry_equiv_pos_as_xyz
 1  'x, y, z'
loop_
 _atom_site_type_symbol
 _atom_site_label
 _atom_site_symmetry_multiplicity
 _atom_site_fract_x
 _atom_site_fract_y
 _atom_site_fract_z
 _atom_site_fract_occupancy
 Al  Al1  1  0.70230  0.09610  0.04960  1
 Al  Al2  1  0.29770  0.59610  0.45040  1
 Al  Al3  1  0.29770  0.90390  0.95040  1
 Al  Al4  1  0.70230  0.40390  0.54960  1
 Br  Br1  1  0.91165  0.91134  0.16978  1
 Br  Br2  1  0.08835  0.41134  0.33022  1
 Br  Br3  1  0.08835  0.08866  0.83022  1
 Br  Br4  1  0.91165  0.58866  0.66978  1
 Br  Br5  1  0.75113  0.41060  0.00572  1
 Br  Br6  1  0.24887  0.91060  0.49428  1
 Br  Br7  1  0.24887  0.58940  0.99428  1
 Br  Br8  1  0.75113  0.08940  0.50572  1
 Br  Br9  1  0.42190  0.07133  0.15347  1
 Br  Br10  1  0.57810  0.57133  0.34653  1
 Br  Br11  1  0.57810  0.92867  0.84653  1
 Br  Br12  1  0.42190  0.42867  0.65347  1
