CIF file written using JARVIS-Tools package.
data_MgH2
_symmetry_space_group_name_H-M  'Pbca'
_cell_length_a       4.79207
_cell_length_b       4.87656
_cell_length_c       9.37496
_cell_angle_alpha    90
_cell_angle_beta     90
_cell_angle_gamma    90

_symmetry_Int_Tables_number  61
_chemical_formula_structural  MgH2
_chemical_formula_sum  Mg8H6
_cell_volume  219.081673412769
_cell_formula_units_Z  8
loop_
  _symmetry_equiv_pos_site_id
 _symmetry_equiv_pos_as_xyz
 1  'x, y, z'
loop_
 _atom_site_type_symbol
 _atom_site_label
 _atom_site_symmetry_multiplicity
 _atom_site_fract_x
 _atom_site_fract_y
 _atom_site_fract_z
 _atom_site_fract_occupancy
 H  H1  1  0.52227  0.74334  0.02636  1
 H  H2  1  0.52227  0.24334  0.47364  1
 H  H3  1  0.02227  0.25666  0.47364  1
 H  H4  1  0.02227  0.75666  0.02636  1
 H  H5  1  0.15878  0.37412  0.20506  1
 H  H6  1  0.34122  0.37412  0.70506  1
 H  H7  1  0.34122  0.87412  0.79494  1
 H  H8  1  0.97773  0.74334  0.52636  1
 H  H9  1  0.97773  0.24334  0.97364  1
 H  H10  1  0.84122  0.62588  0.79494  1
 H  H11  1  0.84122  0.12588  0.70506  1
 H  H12  1  0.65878  0.62588  0.29494  1
 H  H13  1  0.47773  0.75666  0.52636  1
 H  H14  1  0.65878  0.12588  0.20506  1
 H  H15  1  0.15878  0.87412  0.29494  1
 H  H16  1  0.47773  0.25666  0.97364  1
 Mg  Mg1  1  0.72129  0.97214  0.88203  1
 Mg  Mg2  1  0.22129  0.02786  0.61797  1
 Mg  Mg3  1  0.27871  0.52786  0.38203  1
 Mg  Mg4  1  0.77871  0.97214  0.38203  1
 Mg  Mg5  1  0.77871  0.47214  0.11797  1
 Mg  Mg6  1  0.72129  0.47214  0.61797  1
 Mg  Mg7  1  0.22129  0.52786  0.88203  1
 Mg  Mg8  1  0.27871  0.02786  0.11797  1
