CIF file written using JARVIS-Tools package.
data_YFe2O4
_symmetry_space_group_name_H-M  'I4_1/a'
_cell_length_a       5.63378
_cell_length_b       5.63366
_cell_length_c       6.24668
_cell_angle_alpha    116.801
_cell_angle_beta     116.802
_cell_angle_gamma    90.0041

_symmetry_Int_Tables_number  88
_chemical_formula_structural  YFe2O4
_chemical_formula_sum  Y2Fe4O8
_cell_volume  152.71857383990294
_cell_formula_units_Z  2
loop_
  _symmetry_equiv_pos_site_id
 _symmetry_equiv_pos_as_xyz
 1  'x, y, z'
loop_
 _atom_site_type_symbol
 _atom_site_label
 _atom_site_symmetry_multiplicity
 _atom_site_fract_x
 _atom_site_fract_y
 _atom_site_fract_z
 _atom_site_fract_occupancy
 Fe  Fe1  1  0.50000  -0.00000  0.00000  1
 Fe  Fe2  1  0.50000  0.50000  -0.00000  1
 Fe  Fe3  1  -0.00000  0.50000  0.50000  1
 Fe  Fe4  1  0.50000  0.50000  0.50000  1
 O  O1  1  0.71758  0.52455  0.85074  1
 O  O2  1  0.13316  0.82620  0.85074  1
 O  O3  1  0.28242  0.47545  0.14926  1
 O  O4  1  0.86684  0.17380  0.14926  1
 O  O5  1  0.52456  0.13317  0.35075  1
 O  O6  1  0.82619  0.71758  0.35075  1
 O  O7  1  0.17381  0.28242  0.64925  1
 O  O8  1  0.47544  0.86683  0.64925  1
 Y  Y1  1  0.87500  0.12500  0.75000  1
 Y  Y2  1  0.12500  0.87500  0.25000  1
