CIF file written using JARVIS-Tools package.
data_LiVH2OF5
_symmetry_space_group_name_H-M  'C2'
_cell_length_a       5.58292
_cell_length_b       5.58292
_cell_length_c       7.68551
_cell_angle_alpha    85.3504
_cell_angle_beta     94.6495
_cell_angle_gamma    109.84

_symmetry_Int_Tables_number  5
_chemical_formula_structural  LiVH2OF5
_chemical_formula_sum  Li2V2H4O2F0
_cell_volume  224.2227841249178
_cell_formula_units_Z  2
loop_
  _symmetry_equiv_pos_site_id
 _symmetry_equiv_pos_as_xyz
 1  'x, y, z'
loop_
 _atom_site_type_symbol
 _atom_site_label
 _atom_site_symmetry_multiplicity
 _atom_site_fract_x
 _atom_site_fract_y
 _atom_site_fract_z
 _atom_site_fract_occupancy
 F  F1  1  0.97822  0.63077  0.65387  1
 F  F2  1  0.51681  0.51681  0.25000  1
 F  F3  1  0.64157  0.84425  0.52338  1
 F  F4  1  0.31501  0.08899  0.46396  1
 F  F5  1  0.48134  0.48134  0.75000  1
 F  F6  1  0.41767  0.07713  0.13465  1
 F  F7  1  0.84425  0.64157  0.97662  1
 F  F8  1  0.07713  0.41767  0.36535  1
 F  F9  1  0.08899  0.31501  0.03604  1
 F  F10  1  0.63077  0.97822  0.84613  1
 H  H1  1  0.12235  0.20541  0.83977  1
 H  H2  1  0.20541  0.12235  0.66023  1
 H  H3  1  0.79945  0.87425  0.34354  1
 H  H4  1  0.87425  0.79945  0.15646  1
 Li  Li1  1  0.26012  0.71176  0.49452  1
 Li  Li2  1  0.71176  0.26012  0.00548  1
 O  O1  1  0.92384  0.92384  0.25000  1
 O  O2  1  0.07789  0.07789  0.75000  1
 V  V1  1  0.76492  0.76492  0.75000  1
 V  V2  1  0.23777  0.23777  0.25000  1
