CIF file written using JARVIS-Tools package.
data_TeH2O4
_symmetry_space_group_name_H-M  'P2_1/c'
_cell_length_a       5.92963
_cell_length_b       4.91462
_cell_length_c       5.27907
_cell_angle_alpha    90
_cell_angle_beta     116.795
_cell_angle_gamma    90

_symmetry_Int_Tables_number  14
_chemical_formula_structural  TeH2O4
_chemical_formula_sum  Te2H4O8
_cell_volume  137.3227461547097
_cell_formula_units_Z  2
loop_
  _symmetry_equiv_pos_site_id
 _symmetry_equiv_pos_as_xyz
 1  'x, y, z'
loop_
 _atom_site_type_symbol
 _atom_site_label
 _atom_site_symmetry_multiplicity
 _atom_site_fract_x
 _atom_site_fract_y
 _atom_site_fract_z
 _atom_site_fract_occupancy
 H  H1  1  0.39809  0.25902  0.80691  1
 H  H2  1  0.60191  0.75902  0.69309  1
 H  H3  1  0.60191  0.74098  0.19309  1
 H  H4  1  0.39809  0.24098  0.30691  1
 O  O1  1  0.34128  0.36229  0.62621  1
 O  O2  1  0.65872  0.86229  0.87379  1
 O  O3  1  0.65872  0.63771  0.37379  1
 O  O4  1  0.34128  0.13771  0.12621  1
 O  O5  1  0.88361  0.18281  0.63453  1
 O  O6  1  0.11639  0.68281  0.86547  1
 O  O7  1  0.11639  0.81719  0.36547  1
 O  O8  1  0.88361  0.31719  0.13453  1
 Te  Te1  1  -0.00000  0.50000  0.50000  1
 Te  Te2  1  0.00000  0.00000  0.00000  1
