CIF file written using JARVIS-Tools package.
data_FeP2O7
_symmetry_space_group_name_H-M  'C2'
_cell_length_a       5.0743
_cell_length_b       5.0743
_cell_length_c       4.48782
_cell_angle_alpha    81.8709
_cell_angle_beta     98.1292
_cell_angle_gamma    79.7852

_symmetry_Int_Tables_number  5
_chemical_formula_structural  FeP2O7
_chemical_formula_sum  FeP2O7
_cell_volume  110.92456693754939
_cell_formula_units_Z  1
loop_
  _symmetry_equiv_pos_site_id
 _symmetry_equiv_pos_as_xyz
 1  'x, y, z'
loop_
 _atom_site_type_symbol
 _atom_site_label
 _atom_site_symmetry_multiplicity
 _atom_site_fract_x
 _atom_site_fract_y
 _atom_site_fract_z
 _atom_site_fract_occupancy
 Fe  Fe1  1  0.11225  0.11225  -0.00000  1
 O  O1  1  0.55036  0.55036  0.50000  1
 O  O2  1  0.14536  0.43135  0.72823  1
 O  O3  1  0.07302  0.81147  0.29428  1
 O  O4  1  0.33769  0.85425  0.81883  1
 O  O5  1  0.81147  0.07302  0.70572  1
 O  O6  1  0.85425  0.33769  0.18117  1
 O  O7  1  0.43135  0.14536  0.27177  1
 P  P1  1  0.26348  0.66752  0.59268  1
 P  P2  1  0.66752  0.26348  0.40732  1
