CIF file written using JARVIS-Tools package.
data_Li3Mn2P4O14
_symmetry_space_group_name_H-M  'P1'
_cell_length_a       4.92524
_cell_length_b       7.03181
_cell_length_c       8.11278
_cell_angle_alpha    89.0719
_cell_angle_beta     90.1292
_cell_angle_gamma    70.8228

_symmetry_Int_Tables_number  1
_chemical_formula_structural  Li3Mn2P4O14
_chemical_formula_sum  Li3Mn2P4O4
_cell_volume  265.33723244001743
_cell_formula_units_Z  1
loop_
  _symmetry_equiv_pos_site_id
 _symmetry_equiv_pos_as_xyz
 1  'x, y, z'
loop_
 _atom_site_type_symbol
 _atom_site_label
 _atom_site_symmetry_multiplicity
 _atom_site_fract_x
 _atom_site_fract_y
 _atom_site_fract_z
 _atom_site_fract_occupancy
 Li  Li1  1  0.16752  0.33292  0.14583  1
 Li  Li2  1  0.28541  0.90547  0.83206  1
 Li  Li3  1  0.82337  0.65690  0.63516  1
 Mn  Mn1  1  0.21287  0.27775  0.49440  1
 Mn  Mn2  1  0.80134  0.73033  0.01387  1
 O  O1  1  0.08939  0.11992  0.66242  1
 O  O2  1  0.15511  0.12049  0.31167  1
 O  O3  1  0.87041  0.88629  0.78661  1
 O  O4  1  0.22788  0.47993  0.65077  1
 O  O5  1  0.36521  0.41528  0.32490  1
 O  O6  1  0.20278  0.49659  0.96091  1
 O  O7  1  0.63294  0.25385  0.82912  1
 O  O8  1  0.43610  0.75501  0.34707  1
 O  O9  1  0.55012  0.63193  0.80302  1
 O  O10  1  0.60620  0.10514  0.54435  1
 O  O11  1  0.75078  0.48955  0.15658  1
 O  O12  1  0.80689  0.46166  0.46969  1
 O  O13  1  0.37045  0.92750  0.05987  1
 O  O14  1  0.95061  0.86001  0.20028  1
 P  P1  1  0.59832  0.51629  0.32147  1
 P  P2  1  0.79704  0.08969  0.69402  1
 P  P3  1  0.21537  0.92016  0.22400  1
 P  P4  1  0.39580  0.47486  0.81223  1
