CIF file written using JARVIS-Tools package.
data_YCo2O4
_symmetry_space_group_name_H-M  'I4_1/a'
_cell_length_a       5.58429
_cell_length_b       5.58422
_cell_length_c       6.22522
_cell_angle_alpha    116.649
_cell_angle_beta     116.65
_cell_angle_gamma    89.9983

_symmetry_Int_Tables_number  88
_chemical_formula_structural  YCo2O4
_chemical_formula_sum  Y2Co4O8
_cell_volume  150.075038531238
_cell_formula_units_Z  2
loop_
  _symmetry_equiv_pos_site_id
 _symmetry_equiv_pos_as_xyz
 1  'x, y, z'
loop_
 _atom_site_type_symbol
 _atom_site_label
 _atom_site_symmetry_multiplicity
 _atom_site_fract_x
 _atom_site_fract_y
 _atom_site_fract_z
 _atom_site_fract_occupancy
 Co  Co1  1  0.50000  0.00000  -0.00000  1
 Co  Co2  1  0.50000  0.50000  0.00000  1
 Co  Co3  1  -0.00000  0.50000  0.50000  1
 Co  Co4  1  0.50000  0.50000  0.50000  1
 O  O1  1  0.71387  0.52651  0.85032  1
 O  O2  1  0.13645  0.82381  0.85032  1
 O  O3  1  0.28613  0.47349  0.14968  1
 O  O4  1  0.86355  0.17619  0.14968  1
 O  O5  1  0.52649  0.13643  0.35031  1
 O  O6  1  0.82382  0.71388  0.35031  1
 O  O7  1  0.17618  0.28612  0.64969  1
 O  O8  1  0.47351  0.86357  0.64969  1
 Y  Y1  1  0.87500  0.12500  0.75000  1
 Y  Y2  1  0.12500  0.87500  0.25000  1
