CIF file written using JARVIS-Tools package.
data_Ge2Mo
_symmetry_space_group_name_H-M  'Pnma'
_cell_length_a       3.48801
_cell_length_b       6.4277
_cell_length_c       8.64862
_cell_angle_alpha    90
_cell_angle_beta     90
_cell_angle_gamma    90

_symmetry_Int_Tables_number  62
_chemical_formula_structural  Ge2Mo
_chemical_formula_sum  Ge8Mo4
_cell_volume  193.90101370092734
_cell_formula_units_Z  4
loop_
  _symmetry_equiv_pos_site_id
 _symmetry_equiv_pos_as_xyz
 1  'x, y, z'
loop_
 _atom_site_type_symbol
 _atom_site_label
 _atom_site_symmetry_multiplicity
 _atom_site_fract_x
 _atom_site_fract_y
 _atom_site_fract_z
 _atom_site_fract_occupancy
 Ge  Ge1  1  0.25000  0.43848  0.13444  1
 Ge  Ge2  1  0.75000  0.56152  0.86556  1
 Ge  Ge3  1  0.25000  0.93848  0.36556  1
 Ge  Ge4  1  0.75000  0.06152  0.63444  1
 Ge  Ge5  1  0.75000  0.13570  0.04133  1
 Ge  Ge6  1  0.25000  0.86430  0.95867  1
 Ge  Ge7  1  0.75000  0.63570  0.45867  1
 Ge  Ge8  1  0.25000  0.36430  0.54133  1
 Mo  Mo1  1  0.25000  0.74997  0.67035  1
 Mo  Mo2  1  0.75000  0.25003  0.32965  1
 Mo  Mo3  1  0.25000  0.24997  0.82965  1
 Mo  Mo4  1  0.75000  0.75003  0.17035  1
