CIF file written using JARVIS-Tools package.
data_LiMn2B2O6
_symmetry_space_group_name_H-M  'P-1'
_cell_length_a       5.20996
_cell_length_b       5.7407
_cell_length_c       9.10583
_cell_angle_alpha    105.021
_cell_angle_beta     90.5633
_cell_angle_gamma    114.14

_symmetry_Int_Tables_number  2
_chemical_formula_structural  LiMn2B2O6
_chemical_formula_sum  Li2Mn4B4O2
_cell_volume  237.95561933857803
_cell_formula_units_Z  2
loop_
  _symmetry_equiv_pos_site_id
 _symmetry_equiv_pos_as_xyz
 1  'x, y, z'
loop_
 _atom_site_type_symbol
 _atom_site_label
 _atom_site_symmetry_multiplicity
 _atom_site_fract_x
 _atom_site_fract_y
 _atom_site_fract_z
 _atom_site_fract_occupancy
 B  B1  1  0.78009  0.74434  0.05403  1
 B  B2  1  0.27424  0.74164  0.53011  1
 B  B3  1  0.72576  0.25836  0.46989  1
 B  B4  1  0.21991  0.25566  0.94597  1
 Li  Li1  1  0.25419  0.67309  0.18931  1
 Li  Li2  1  0.74581  0.32691  0.81069  1
 Mn  Mn1  1  0.76007  0.74434  0.39866  1
 Mn  Mn2  1  0.27734  0.75201  0.87027  1
 Mn  Mn3  1  0.72266  0.24799  0.12973  1
 Mn  Mn4  1  0.23993  0.25566  0.60134  1
 O  O1  1  0.91105  0.13689  0.44094  1
 O  O2  1  0.08895  0.86311  0.55906  1
 O  O3  1  0.37780  0.71793  0.39305  1
 O  O4  1  0.85900  0.66721  0.17467  1
 O  O5  1  0.56670  0.83882  0.07063  1
 O  O6  1  0.62220  0.28207  0.60695  1
 O  O7  1  0.88760  0.70472  0.91911  1
 O  O8  1  0.66419  0.35935  0.35846  1
 O  O9  1  0.14100  0.33279  0.82533  1
 O  O10  1  0.33581  0.64065  0.64154  1
 O  O11  1  0.11240  0.29528  0.08089  1
 O  O12  1  0.43330  0.16118  0.92937  1
