CIF file written using JARVIS-Tools package.
data_LiFeF3
_symmetry_space_group_name_H-M  'Pnma'
_cell_length_a       2.88283
_cell_length_b       5.10297
_cell_length_c       15.777
_cell_angle_alpha    90
_cell_angle_beta     90
_cell_angle_gamma    90

_symmetry_Int_Tables_number  62
_chemical_formula_structural  LiFeF3
_chemical_formula_sum  Li4Fe4F2
_cell_volume  232.09519799227527
_cell_formula_units_Z  4
loop_
  _symmetry_equiv_pos_site_id
 _symmetry_equiv_pos_as_xyz
 1  'x, y, z'
loop_
 _atom_site_type_symbol
 _atom_site_label
 _atom_site_symmetry_multiplicity
 _atom_site_fract_x
 _atom_site_fract_y
 _atom_site_fract_z
 _atom_site_fract_occupancy
 F  F1  1  0.75000  0.29822  0.85984  1
 F  F2  1  0.25000  0.83093  0.80423  1
 F  F3  1  0.25000  0.20745  0.02922  1
 F  F4  1  0.75000  0.79822  0.64016  1
 F  F5  1  0.25000  0.70178  0.14016  1
 F  F6  1  0.75000  0.79255  0.97078  1
 F  F7  1  0.75000  0.66907  0.30423  1
 F  F8  1  0.25000  0.33093  0.69577  1
 F  F9  1  0.75000  0.29255  0.52922  1
 F  F10  1  0.75000  0.16907  0.19577  1
 F  F11  1  0.25000  0.20178  0.35984  1
 F  F12  1  0.25000  0.70745  0.47078  1
 Fe  Fe1  1  0.25000  0.03195  0.91144  1
 Fe  Fe2  1  0.75000  0.46805  0.41144  1
 Fe  Fe3  1  0.25000  0.53195  0.58856  1
 Fe  Fe4  1  0.75000  0.96805  0.08856  1
 Li  Li1  1  0.25000  0.97502  0.69676  1
 Li  Li2  1  0.75000  0.52498  0.19676  1
 Li  Li3  1  0.25000  0.47502  0.80324  1
 Li  Li4  1  0.75000  0.02498  0.30324  1
