CIF file written using JARVIS-Tools package.
data_CuI
_symmetry_space_group_name_H-M  'Cmcm'
_cell_length_a       5.05111
_cell_length_b       5.05111
_cell_length_c       4.37831
_cell_angle_alpha    90
_cell_angle_beta     90
_cell_angle_gamma    91.3843

_symmetry_Int_Tables_number  63
_chemical_formula_structural  CuI
_chemical_formula_sum  Cu2I2
_cell_volume  111.6745101272593
_cell_formula_units_Z  2
loop_
  _symmetry_equiv_pos_site_id
 _symmetry_equiv_pos_as_xyz
 1  'x, y, z'
loop_
 _atom_site_type_symbol
 _atom_site_label
 _atom_site_symmetry_multiplicity
 _atom_site_fract_x
 _atom_site_fract_y
 _atom_site_fract_z
 _atom_site_fract_occupancy
 Cu  Cu1  1  0.41500  0.58500  0.75000  1
 Cu  Cu2  1  0.58500  0.41500  0.25000  1
 I  I1  1  0.78071  0.21929  0.75000  1
 I  I2  1  0.21929  0.78071  0.25000  1
