CIF file written using JARVIS-Tools package.
data_Si2Ru
_symmetry_space_group_name_H-M  'Cmce'
_cell_length_a       6.5525
_cell_length_b       6.55249
_cell_length_c       8.27211
_cell_angle_alpha    90
_cell_angle_beta     90
_cell_angle_gamma    103.127

_symmetry_Int_Tables_number  64
_chemical_formula_structural  Si2Ru
_chemical_formula_sum  Si6Ru8
_cell_volume  345.8829322139261
_cell_formula_units_Z  8
loop_
  _symmetry_equiv_pos_site_id
 _symmetry_equiv_pos_as_xyz
 1  'x, y, z'
loop_
 _atom_site_type_symbol
 _atom_site_label
 _atom_site_symmetry_multiplicity
 _atom_site_fract_x
 _atom_site_fract_y
 _atom_site_fract_z
 _atom_site_fract_occupancy
 Ru  Ru1  1  0.18949  0.18949  0.81747  1
 Ru  Ru2  1  0.81051  0.81051  0.18253  1
 Ru  Ru3  1  0.71541  0.28459  0.50000  1
 Ru  Ru4  1  0.31051  0.31051  0.31747  1
 Ru  Ru5  1  0.21541  0.78459  0.00000  1
 Ru  Ru6  1  0.28459  0.71541  0.50000  1
 Ru  Ru7  1  0.78459  0.21541  0.00000  1
 Ru  Ru8  1  0.68949  0.68949  0.68253  1
 Si  Si1  1  0.82331  0.07696  0.72567  1
 Si  Si2  1  0.59578  0.85045  0.94435  1
 Si  Si3  1  0.64955  0.90422  0.44435  1
 Si  Si4  1  0.17669  0.92304  0.27433  1
 Si  Si5  1  0.09578  0.35045  0.55565  1
 Si  Si6  1  0.35045  0.09578  0.55565  1
 Si  Si7  1  0.57696  0.32331  0.77433  1
 Si  Si8  1  0.92304  0.17669  0.27433  1
 Si  Si9  1  0.07696  0.82331  0.72567  1
 Si  Si10  1  0.40422  0.14955  0.05565  1
 Si  Si11  1  0.32331  0.57696  0.77433  1
 Si  Si12  1  0.14955  0.40422  0.05565  1
 Si  Si13  1  0.85045  0.59578  0.94435  1
 Si  Si14  1  0.90422  0.64955  0.44435  1
 Si  Si15  1  0.67669  0.42304  0.22567  1
 Si  Si16  1  0.42304  0.67669  0.22567  1
