CIF file written using JARVIS-Tools package.
data_CrO
_symmetry_space_group_name_H-M  'P4_2/m'
_cell_length_a       5.53407
_cell_length_b       5.53407
_cell_length_c       5.68484
_cell_angle_alpha    90
_cell_angle_beta     90
_cell_angle_gamma    90

_symmetry_Int_Tables_number  84
_chemical_formula_structural  CrO
_chemical_formula_sum  Cr8O8
_cell_volume  174.1030712282654
_cell_formula_units_Z  8
loop_
  _symmetry_equiv_pos_site_id
 _symmetry_equiv_pos_as_xyz
 1  'x, y, z'
loop_
 _atom_site_type_symbol
 _atom_site_label
 _atom_site_symmetry_multiplicity
 _atom_site_fract_x
 _atom_site_fract_y
 _atom_site_fract_z
 _atom_site_fract_occupancy
 Cr  Cr1  1  0.00000  0.00000  0.00000  1
 Cr  Cr2  1  0.00000  0.00000  0.50000  1
 Cr  Cr3  1  0.00000  0.50000  0.74997  1
 Cr  Cr4  1  0.25212  0.53223  0.25000  1
 Cr  Cr5  1  0.46777  0.25212  0.75000  1
 Cr  Cr6  1  0.50000  0.00000  0.25003  1
 Cr  Cr7  1  0.53223  0.74788  0.75000  1
 Cr  Cr8  1  0.74788  0.46777  0.25000  1
 O  O1  1  0.19570  0.30352  0.98366  1
 O  O2  1  0.19573  0.30350  0.51631  1
 O  O3  1  0.30352  0.80430  0.01634  1
 O  O4  1  0.30350  0.80427  0.48369  1
 O  O5  1  0.69648  0.19570  0.01634  1
 O  O6  1  0.69650  0.19573  0.48369  1
 O  O7  1  0.80430  0.69648  0.98366  1
 O  O8  1  0.80427  0.69650  0.51631  1
