CIF file written using JARVIS-Tools package.
data_Ba3Hf2O7
_symmetry_space_group_name_H-M  'I4/mmm'
_cell_length_a       4.18445
_cell_length_b       11.3657
_cell_length_c       4.18445
_cell_angle_alpha    79.3923
_cell_angle_beta     90
_cell_angle_gamma    100.608

_symmetry_Int_Tables_number  139
_chemical_formula_structural  Ba3Hf2O7
_chemical_formula_sum  Ba3Hf2O7
_cell_volume  192.14608923075153
_cell_formula_units_Z  1
loop_
  _symmetry_equiv_pos_site_id
 _symmetry_equiv_pos_as_xyz
 1  'x, y, z'
loop_
 _atom_site_type_symbol
 _atom_site_label
 _atom_site_symmetry_multiplicity
 _atom_site_fract_x
 _atom_site_fract_y
 _atom_site_fract_z
 _atom_site_fract_occupancy
 Ba  Ba1  1  0.50000  0.00000  0.50000  1
 Ba  Ba2  1  0.68600  0.37200  0.31400  1
 Ba  Ba3  1  0.31400  0.62800  0.68600  1
 Hf  Hf1  1  0.90351  0.80702  0.09649  1
 Hf  Hf2  1  0.09649  0.19298  0.90351  1
 O  O1  1  0.00000  0.00000  0.00000  1
 O  O2  1  0.09553  0.19106  0.40447  1
 O  O3  1  0.40447  0.80894  0.09553  1
 O  O4  1  0.80832  0.61664  0.19168  1
 O  O5  1  0.19168  0.38336  0.80832  1
 O  O6  1  0.59553  0.19106  0.90447  1
 O  O7  1  0.90447  0.80894  0.59553  1
