CIF file written using JARVIS-Tools package.
data_ZnAg2O4
_symmetry_space_group_name_H-M  'Imma'
_cell_length_a       6.02758
_cell_length_b       6.02758
_cell_length_c       6.7252
_cell_angle_alpha    56.0914
_cell_angle_beta     56.0914
_cell_angle_gamma    67.514

_symmetry_Int_Tables_number  74
_chemical_formula_structural  ZnAg2O4
_chemical_formula_sum  Zn2Ag4O8
_cell_volume  167.3931498112057
_cell_formula_units_Z  2
loop_
  _symmetry_equiv_pos_site_id
 _symmetry_equiv_pos_as_xyz
 1  'x, y, z'
loop_
 _atom_site_type_symbol
 _atom_site_label
 _atom_site_symmetry_multiplicity
 _atom_site_fract_x
 _atom_site_fract_y
 _atom_site_fract_z
 _atom_site_fract_occupancy
 Ag  Ag1  1  0.01636  0.01636  -0.01636  1
 Ag  Ag2  1  0.23364  0.23364  0.26636  1
 Ag  Ag3  1  0.62500  0.62500  0.12500  1
 Ag  Ag4  1  0.62500  0.62500  0.62500  1
 O  O1  1  0.34860  0.34860  0.45292  1
 O  O2  1  0.45538  0.85116  0.34673  1
 O  O3  1  0.34860  0.34860  0.84989  1
 O  O4  1  0.85116  0.45538  0.34673  1
 O  O5  1  0.39884  0.79462  0.90327  1
 O  O6  1  0.79462  0.39884  0.90327  1
 O  O7  1  0.90140  0.90140  0.40011  1
 O  O8  1  0.90140  0.90140  0.79708  1
 Zn  Zn1  1  0.12500  0.62500  0.62500  1
 Zn  Zn2  1  0.62500  0.12500  0.62500  1
