CIF file written using JARVIS-Tools package.
data_HfBe
_symmetry_space_group_name_H-M  'Cmcm'
_cell_length_a       3.28654
_cell_length_b       3.74691
_cell_length_c       5.27775
_cell_angle_alpha    90
_cell_angle_beta     71.8589
_cell_angle_gamma    90

_symmetry_Int_Tables_number  63
_chemical_formula_structural  HfBe
_chemical_formula_sum  Hf2Be2
_cell_volume  61.76160669169956
_cell_formula_units_Z  2
loop_
  _symmetry_equiv_pos_site_id
 _symmetry_equiv_pos_as_xyz
 1  'x, y, z'
loop_
 _atom_site_type_symbol
 _atom_site_label
 _atom_site_symmetry_multiplicity
 _atom_site_fract_x
 _atom_site_fract_y
 _atom_site_fract_z
 _atom_site_fract_occupancy
 Be  Be1  1  0.43979  0.75000  0.12041  1
 Be  Be2  1  0.56021  0.25000  0.87959  1
 Hf  Hf1  1  0.15336  0.75000  0.69328  1
 Hf  Hf2  1  0.84664  0.25000  0.30672  1
