CIF file written using JARVIS-Tools package.
data_Ag2SnO3
_symmetry_space_group_name_H-M  'P6_322'
_cell_length_a       5.71205
_cell_length_b       5.71205
_cell_length_c       12.8043
_cell_angle_alpha    89.9998
_cell_angle_beta     90
_cell_angle_gamma    120

_symmetry_Int_Tables_number  182
_chemical_formula_structural  Ag2SnO3
_chemical_formula_sum  Ag8Sn4O2
_cell_volume  361.8011045013566
_cell_formula_units_Z  4
loop_
  _symmetry_equiv_pos_site_id
 _symmetry_equiv_pos_as_xyz
 1  'x, y, z'
loop_
 _atom_site_type_symbol
 _atom_site_label
 _atom_site_symmetry_multiplicity
 _atom_site_fract_x
 _atom_site_fract_y
 _atom_site_fract_z
 _atom_site_fract_occupancy
 Ag  Ag1  1  0.99999  0.67916  0.50000  1
 Ag  Ag2  1  0.00001  0.32084  -0.00000  1
 Ag  Ag3  1  0.33333  0.66666  0.75000  1
 Ag  Ag4  1  0.32084  0.32084  0.50000  1
 Ag  Ag5  1  0.32084  1.00000  -0.00000  1
 Ag  Ag6  1  0.67917  0.67915  0.00000  1
 Ag  Ag7  1  0.66667  0.33334  0.25000  1
 Ag  Ag8  1  0.67916  0.00000  0.50000  1
 O  O1  1  0.71725  0.66623  0.83828  1
 O  O2  1  0.33375  0.05100  0.83828  1
 O  O3  1  0.66625  0.71726  0.16172  1
 O  O4  1  0.33375  0.28274  0.66172  1
 O  O5  1  0.66624  0.94900  0.33828  1
 O  O6  1  0.28275  0.33377  0.33828  1
 O  O7  1  0.05102  0.33377  0.16172  1
 O  O8  1  0.94898  0.28274  0.83828  1
 O  O9  1  0.05101  0.71726  0.33828  1
 O  O10  1  0.71725  0.05100  0.66172  1
 O  O11  1  0.94898  0.66623  0.66172  1
 O  O12  1  0.28275  0.94900  0.16172  1
 Sn  Sn1  1  0.33334  0.66667  0.25000  1
 Sn  Sn2  1  0.66666  0.33333  0.75000  1
 Sn  Sn3  1  -0.00001  -0.00001  0.75000  1
 Sn  Sn4  1  0.00001  0.00001  0.25000  1
