CIF file written using JARVIS-Tools package.
data_LiFeF4
_symmetry_space_group_name_H-M  'P2_1/c'
_cell_length_a       6.94871
_cell_length_b       4.88572
_cell_length_c       7.24385
_cell_angle_alpha    90
_cell_angle_beta     101.481
_cell_angle_gamma    90

_symmetry_Int_Tables_number  14
_chemical_formula_structural  LiFeF4
_chemical_formula_sum  Li4Fe4F6
_cell_volume  241.0037537587379
_cell_formula_units_Z  4
loop_
  _symmetry_equiv_pos_site_id
 _symmetry_equiv_pos_as_xyz
 1  'x, y, z'
loop_
 _atom_site_type_symbol
 _atom_site_label
 _atom_site_symmetry_multiplicity
 _atom_site_fract_x
 _atom_site_fract_y
 _atom_site_fract_z
 _atom_site_fract_occupancy
 F  F1  1  0.19168  0.92869  0.55717  1
 F  F2  1  0.69218  0.91581  0.09773  1
 F  F3  1  0.19218  0.58419  0.09773  1
 F  F4  1  0.59427  0.43381  0.19877  1
 F  F5  1  0.80782  0.41581  0.90227  1
 F  F6  1  0.44226  0.90281  0.32059  1
 F  F7  1  0.80832  0.07131  0.44283  1
 F  F8  1  0.09427  0.06619  0.19877  1
 F  F9  1  0.30832  0.42869  0.44283  1
 F  F10  1  0.69168  0.57131  0.55717  1
 F  F11  1  0.05774  0.40281  0.67941  1
 F  F12  1  0.30782  0.08419  0.90227  1
 F  F13  1  0.55774  0.09719  0.67941  1
 F  F14  1  0.90573  0.93381  0.80123  1
 F  F15  1  0.40573  0.56619  0.80123  1
 F  F16  1  0.94226  0.59719  0.32059  1
 Fe  Fe1  1  0.30752  0.25434  0.67471  1
 Fe  Fe2  1  0.80752  0.24566  0.67471  1
 Fe  Fe3  1  0.19248  0.75434  0.32529  1
 Fe  Fe4  1  0.69248  0.74566  0.32529  1
 Li  Li1  1  0.15857  0.75200  0.85574  1
 Li  Li2  1  0.65857  0.74800  0.85574  1
 Li  Li3  1  0.34143  0.25200  0.14426  1
 Li  Li4  1  0.84143  0.24800  0.14426  1
