CIF file written using JARVIS-Tools package.
data_Ba2AlTlSn2O7
_symmetry_space_group_name_H-M  'P4/mmm'
_cell_length_a       4.1357
_cell_length_b       4.1357
_cell_length_c       13.0218
_cell_angle_alpha    90
_cell_angle_beta     90
_cell_angle_gamma    90

_symmetry_Int_Tables_number  123
_chemical_formula_structural  Ba2AlTlSn2O7
_chemical_formula_sum  Ba2AlTlSn2O7
_cell_volume  222.72440329606835
_cell_formula_units_Z  1
loop_
  _symmetry_equiv_pos_site_id
 _symmetry_equiv_pos_as_xyz
 1  'x, y, z'
loop_
 _atom_site_type_symbol
 _atom_site_label
 _atom_site_symmetry_multiplicity
 _atom_site_fract_x
 _atom_site_fract_y
 _atom_site_fract_z
 _atom_site_fract_occupancy
 Al  Al1  1  0.50000  0.50000  0.50000  1
 Ba  Ba1  1  0.50000  0.50000  0.19007  1
 Ba  Ba2  1  0.50000  0.50000  0.80993  1
 O  O1  1  0.00000  0.00000  0.21281  1
 O  O2  1  0.00000  0.50000  0.40112  1
 O  O3  1  0.50000  0.00000  0.40112  1
 O  O4  1  0.50000  0.00000  0.59888  1
 O  O5  1  0.50000  0.50000  0.00000  1
 O  O6  1  0.00000  0.50000  0.59888  1
 O  O7  1  0.00000  0.00000  0.78719  1
 Sn  Sn1  1  0.00000  0.00000  0.36998  1
 Sn  Sn2  1  0.00000  0.00000  0.63002  1
 Tl  Tl1  1  0.00000  0.00000  0.00000  1
