CIF file written using JARVIS-Tools package.
data_Fe6OF11
_symmetry_space_group_name_H-M  'Cm'
_cell_length_a       7.3583
_cell_length_b       5.69205
_cell_length_c       5.69205
_cell_angle_alpha    73.685
_cell_angle_beta     72.0504
_cell_angle_gamma    72.0504

_symmetry_Int_Tables_number  8
_chemical_formula_structural  Fe6OF11
_chemical_formula_sum  Fe6OF
_cell_volume  211.15907493234118
_cell_formula_units_Z  1
loop_
  _symmetry_equiv_pos_site_id
 _symmetry_equiv_pos_as_xyz
 1  'x, y, z'
loop_
 _atom_site_type_symbol
 _atom_site_label
 _atom_site_symmetry_multiplicity
 _atom_site_fract_x
 _atom_site_fract_y
 _atom_site_fract_z
 _atom_site_fract_occupancy
 F  F1  1  0.33337  0.94591  0.37354  1
 F  F2  1  0.67551  0.03761  0.63664  1
 F  F3  1  0.99218  0.29129  0.70624  1
 F  F4  1  0.30794  0.88234  0.88234  1
 F  F5  1  0.96473  0.24235  0.24235  1
 F  F6  1  0.33337  0.37354  0.94591  1
 F  F7  1  0.05263  0.75426  0.75426  1
 F  F8  1  0.69272  0.10412  0.10412  1
 F  F9  1  0.99218  0.70624  0.29129  1
 F  F10  1  0.67551  0.63664  0.03761  1
 F  F11  1  0.62608  0.57950  0.57950  1
 Fe  Fe1  1  0.00123  0.00406  0.00406  1
 Fe  Fe2  1  0.49189  0.00106  0.00106  1
 Fe  Fe3  1  0.18523  0.33430  0.33430  1
 Fe  Fe4  1  0.33841  0.65211  0.65211  1
 Fe  Fe5  1  0.64144  0.34422  0.34422  1
 Fe  Fe6  1  0.83909  0.66716  0.66716  1
 O  O1  1  0.35653  0.44327  0.44327  1
