CIF file written using JARVIS-Tools package.
data_TiP3
_symmetry_space_group_name_H-M  'I4/mmm'
_cell_length_a       5.32602
_cell_length_b       5.32602
_cell_length_c       5.32602
_cell_angle_alpha    140.427
_cell_angle_beta     140.427
_cell_angle_gamma    57.2057

_symmetry_Int_Tables_number  139
_chemical_formula_structural  TiP3
_chemical_formula_sum  TiP3
_cell_volume  60.80043368077025
_cell_formula_units_Z  1
loop_
  _symmetry_equiv_pos_site_id
 _symmetry_equiv_pos_as_xyz
 1  'x, y, z'
loop_
 _atom_site_type_symbol
 _atom_site_label
 _atom_site_symmetry_multiplicity
 _atom_site_fract_x
 _atom_site_fract_y
 _atom_site_fract_z
 _atom_site_fract_occupancy
 P  P1  1  0.25000  0.75000  0.50000  1
 P  P2  1  0.75000  0.25000  0.50000  1
 P  P3  1  0.50000  0.50000  0.00000  1
 Ti  Ti1  1  0.00000  0.00000  0.00000  1
