CIF file written using JARVIS-Tools package.
data_BP
_symmetry_space_group_name_H-M  'P6_3mc'
_cell_length_a       3.20335
_cell_length_b       3.20335
_cell_length_c       5.3161
_cell_angle_alpha    90
_cell_angle_beta     90
_cell_angle_gamma    120

_symmetry_Int_Tables_number  186
_chemical_formula_structural  BP
_chemical_formula_sum  B2P2
_cell_volume  47.242402105605855
_cell_formula_units_Z  2
loop_
  _symmetry_equiv_pos_site_id
 _symmetry_equiv_pos_as_xyz
 1  'x, y, z'
loop_
 _atom_site_type_symbol
 _atom_site_label
 _atom_site_symmetry_multiplicity
 _atom_site_fract_x
 _atom_site_fract_y
 _atom_site_fract_z
 _atom_site_fract_occupancy
 B  B1  1  0.66667  0.33333  0.49955  1
 B  B2  1  0.33333  0.66667  0.99955  1
 P  P1  1  0.66667  0.33333  0.12545  1
 P  P2  1  0.33333  0.66667  0.62545  1
