CIF file written using JARVIS-Tools package.
data_MoF5
_symmetry_space_group_name_H-M  'Immm'
_cell_length_a       3.64132
_cell_length_b       5.31353
_cell_length_c       5.31353
_cell_angle_alpha    49.522
_cell_angle_beta     69.9619
_cell_angle_gamma    69.9618

_symmetry_Int_Tables_number  71
_chemical_formula_structural  MoF5
_chemical_formula_sum  MoF5
_cell_volume  72.42024146558914
_cell_formula_units_Z  1
loop_
  _symmetry_equiv_pos_site_id
 _symmetry_equiv_pos_as_xyz
 1  'x, y, z'
loop_
 _atom_site_type_symbol
 _atom_site_label
 _atom_site_symmetry_multiplicity
 _atom_site_fract_x
 _atom_site_fract_y
 _atom_site_fract_z
 _atom_site_fract_occupancy
 F  F1  1  0.50000  0.76926  0.23074  1
 F  F2  1  0.50000  0.23074  0.76926  1
 F  F3  1  0.79189  0.20811  0.20811  1
 F  F4  1  0.20811  0.79189  0.79189  1
 F  F5  1  -0.00000  0.50000  0.50000  1
 Mo  Mo1  1  0.00000  0.00000  0.00000  1
