CIF file written using JARVIS-Tools package.
data_Li3Fe2Cu2O8
_symmetry_space_group_name_H-M  'C2/m'
_cell_length_a       5.50254
_cell_length_b       5.50366
_cell_length_c       5.98891
_cell_angle_alpha    117.353
_cell_angle_beta     115.161
_cell_angle_gamma    89.9989

_symmetry_Int_Tables_number  12
_chemical_formula_structural  Li3Fe2Cu2O8
_chemical_formula_sum  Li3Fe2Cu2O8
_cell_volume  141.4357563148325
_cell_formula_units_Z  1
loop_
  _symmetry_equiv_pos_site_id
 _symmetry_equiv_pos_as_xyz
 1  'x, y, z'
loop_
 _atom_site_type_symbol
 _atom_site_label
 _atom_site_symmetry_multiplicity
 _atom_site_fract_x
 _atom_site_fract_y
 _atom_site_fract_z
 _atom_site_fract_occupancy
 Cu  Cu1  1  0.00000  0.00000  0.00000  1
 Cu  Cu2  1  0.50000  0.00000  0.00000  1
 Fe  Fe1  1  0.50000  0.50000  0.50000  1
 Fe  Fe2  1  0.50000  -0.00000  0.50000  1
 Li  Li1  1  0.00000  0.00000  0.50000  1
 Li  Li2  1  0.50000  0.50000  0.00000  1
 Li  Li3  1  0.00000  0.50000  0.50000  1
 O  O1  1  0.28220  0.27018  0.54035  1
 O  O2  1  0.26246  0.74723  0.49446  1
 O  O3  1  0.70260  0.18286  0.90731  1
 O  O4  1  0.70261  0.72445  0.90732  1
 O  O5  1  0.29739  0.27555  0.09268  1
 O  O6  1  0.29740  0.81714  0.09269  1
 O  O7  1  0.73754  0.25277  0.50554  1
 O  O8  1  0.71780  0.72982  0.45965  1
