CIF file written using JARVIS-Tools package.
data_Li2YAl
_symmetry_space_group_name_H-M  'Immm'
_cell_length_a       11.8568
_cell_length_b       6.65698
_cell_length_c       6.65698
_cell_angle_alpha    28.0001
_cell_angle_beta     27.0573
_cell_angle_gamma    27.0573

_symmetry_Int_Tables_number  71
_chemical_formula_structural  Li2YAl
_chemical_formula_sum  Li2YAl
_cell_volume  97.93360311660831
_cell_formula_units_Z  1
loop_
  _symmetry_equiv_pos_site_id
 _symmetry_equiv_pos_as_xyz
 1  'x, y, z'
loop_
 _atom_site_type_symbol
 _atom_site_label
 _atom_site_symmetry_multiplicity
 _atom_site_fract_x
 _atom_site_fract_y
 _atom_site_fract_z
 _atom_site_fract_occupancy
 Al  Al1  1  0.00000  0.00000  0.00000  1
 Li  Li1  1  0.22289  0.00000  -0.00000  1
 Li  Li2  1  0.77711  -0.00000  0.00000  1
 Y  Y1  1  0.50000  -0.00000  0.00000  1
