CIF file written using JARVIS-Tools package.
data_Li2Fe3CuO8
_symmetry_space_group_name_H-M  'C2/m'
_cell_length_a       5.62397
_cell_length_b       5.79045
_cell_length_c       5.62364
_cell_angle_alpha    119.127
_cell_angle_beta     118.189
_cell_angle_gamma    91.4698

_symmetry_Int_Tables_number  12
_chemical_formula_structural  Li2Fe3CuO8
_chemical_formula_sum  Li2Fe3CuO8
_cell_volume  133.00621119075464
_cell_formula_units_Z  1
loop_
  _symmetry_equiv_pos_site_id
 _symmetry_equiv_pos_as_xyz
 1  'x, y, z'
loop_
 _atom_site_type_symbol
 _atom_site_label
 _atom_site_symmetry_multiplicity
 _atom_site_fract_x
 _atom_site_fract_y
 _atom_site_fract_z
 _atom_site_fract_occupancy
 Cu  Cu1  1  0.00000  0.00000  0.00000  1
 Fe  Fe1  1  -0.00000  -0.00000  0.50000  1
 Fe  Fe2  1  0.50000  0.00000  -0.00000  1
 Fe  Fe3  1  0.50000  -0.00000  0.50000  1
 Li  Li1  1  -0.00000  0.50000  -0.00000  1
 Li  Li2  1  0.50000  0.50000  0.50000  1
 O  O1  1  0.24174  0.21208  0.97034  1
 O  O2  1  0.72085  0.21068  0.95945  1
 O  O3  1  0.25122  0.21061  0.48973  1
 O  O4  1  0.73974  0.21542  0.47569  1
 O  O5  1  0.26026  0.78458  0.52431  1
 O  O6  1  0.74878  0.78939  0.51027  1
 O  O7  1  0.27915  0.78932  0.04055  1
 O  O8  1  0.75826  0.78792  0.02966  1
