CIF file written using JARVIS-Tools package.
data_Mn2Nb
_symmetry_space_group_name_H-M  'P6_3/mmc'
_cell_length_a       4.80662
_cell_length_b       4.80662
_cell_length_c       7.90059
_cell_angle_alpha    90
_cell_angle_beta     90
_cell_angle_gamma    120

_symmetry_Int_Tables_number  194
_chemical_formula_structural  Mn2Nb
_chemical_formula_sum  Mn8Nb4
_cell_volume  158.07796134839685
_cell_formula_units_Z  4
loop_
  _symmetry_equiv_pos_site_id
 _symmetry_equiv_pos_as_xyz
 1  'x, y, z'
loop_
 _atom_site_type_symbol
 _atom_site_label
 _atom_site_symmetry_multiplicity
 _atom_site_fract_x
 _atom_site_fract_y
 _atom_site_fract_z
 _atom_site_fract_occupancy
 Mn  Mn1  1  0.17134  0.82866  0.25000  1
 Mn  Mn2  1  0.82866  0.65732  0.75000  1
 Mn  Mn3  1  0.34268  0.17134  0.75000  1
 Mn  Mn4  1  0.65732  0.82866  0.25000  1
 Mn  Mn5  1  0.00000  0.00000  0.00000  1
 Mn  Mn6  1  0.00000  0.00000  0.50000  1
 Mn  Mn7  1  0.82866  0.17134  0.75000  1
 Mn  Mn8  1  0.17134  0.34268  0.25000  1
 Nb  Nb1  1  0.33333  0.66667  0.56241  1
 Nb  Nb2  1  0.66667  0.33333  0.06241  1
 Nb  Nb3  1  0.66667  0.33333  0.43759  1
 Nb  Nb4  1  0.33333  0.66667  0.93759  1
