CIF file written using JARVIS-Tools package.
data_SrDy2S4
_symmetry_space_group_name_H-M  'Pnma'
_cell_length_a       3.98545
_cell_length_b       11.963
_cell_length_c       14.3244
_cell_angle_alpha    90
_cell_angle_beta     90
_cell_angle_gamma    90

_symmetry_Int_Tables_number  62
_chemical_formula_structural  SrDy2S4
_chemical_formula_sum  Sr4Dy8S6
_cell_volume  682.9556224850187
_cell_formula_units_Z  4
loop_
  _symmetry_equiv_pos_site_id
 _symmetry_equiv_pos_as_xyz
 1  'x, y, z'
loop_
 _atom_site_type_symbol
 _atom_site_label
 _atom_site_symmetry_multiplicity
 _atom_site_fract_x
 _atom_site_fract_y
 _atom_site_fract_z
 _atom_site_fract_occupancy
 Dy  Dy1  1  0.75000  0.07003  0.89055  1
 Dy  Dy2  1  0.25000  0.42001  0.89890  1
 Dy  Dy3  1  0.75000  0.07999  0.39890  1
 Dy  Dy4  1  0.75000  0.57999  0.10110  1
 Dy  Dy5  1  0.25000  0.92001  0.60110  1
 Dy  Dy6  1  0.25000  0.42997  0.39055  1
 Dy  Dy7  1  0.25000  0.92997  0.10945  1
 Dy  Dy8  1  0.75000  0.57003  0.60945  1
 S  S1  1  0.25000  0.63170  0.97368  1
 S  S2  1  0.75000  0.86830  0.47368  1
 S  S3  1  0.25000  0.02103  0.28378  1
 S  S4  1  0.25000  0.91484  0.92059  1
 S  S5  1  0.75000  0.47897  0.78378  1
 S  S6  1  0.75000  0.08516  0.07941  1
 S  S7  1  0.75000  0.97897  0.71622  1
 S  S8  1  0.25000  0.52103  0.21622  1
 S  S9  1  0.25000  0.13170  0.52632  1
 S  S10  1  0.25000  0.41484  0.57941  1
 S  S11  1  0.75000  0.29147  0.32463  1
 S  S12  1  0.25000  0.20853  0.82463  1
 S  S13  1  0.75000  0.58516  0.42059  1
 S  S14  1  0.75000  0.36830  0.02632  1
 S  S15  1  0.75000  0.79147  0.17537  1
 S  S16  1  0.25000  0.70853  0.67537  1
 Sr  Sr1  1  0.25000  0.75687  0.33829  1
 Sr  Sr2  1  0.75000  0.74313  0.83829  1
 Sr  Sr3  1  0.25000  0.25687  0.16171  1
 Sr  Sr4  1  0.75000  0.24313  0.66171  1
