CIF file written using JARVIS-Tools package.
data_Nd3CuSnS7
_symmetry_space_group_name_H-M  'P6_3'
_cell_length_a       10.147
_cell_length_b       10.147
_cell_length_c       6.09697
_cell_angle_alpha    90
_cell_angle_beta     90
_cell_angle_gamma    120

_symmetry_Int_Tables_number  173
_chemical_formula_structural  Nd3CuSnS7
_chemical_formula_sum  Nd6Cu2Sn2S4
_cell_volume  543.646121042345
_cell_formula_units_Z  2
loop_
  _symmetry_equiv_pos_site_id
 _symmetry_equiv_pos_as_xyz
 1  'x, y, z'
loop_
 _atom_site_type_symbol
 _atom_site_label
 _atom_site_symmetry_multiplicity
 _atom_site_fract_x
 _atom_site_fract_y
 _atom_site_fract_z
 _atom_site_fract_occupancy
 Cu  Cu1  1  0.00000  0.00000  0.70210  1
 Cu  Cu2  1  0.00000  0.00000  0.20210  1
 Nd  Nd1  1  0.78111  0.64217  0.26037  1
 Nd  Nd2  1  0.86107  0.21889  0.26037  1
 Nd  Nd3  1  0.21889  0.35783  0.76037  1
 Nd  Nd4  1  0.64217  0.86107  0.76037  1
 Nd  Nd5  1  0.13893  0.78111  0.76037  1
 Nd  Nd6  1  0.35783  0.13893  0.26037  1
 S  S1  1  0.91392  0.48398  0.00469  1
 S  S2  1  0.57006  0.08608  0.00469  1
 S  S3  1  0.51602  0.42994  0.00469  1
 S  S4  1  0.74355  0.89769  0.21986  1
 S  S5  1  0.42994  0.91392  0.50469  1
 S  S6  1  0.89769  0.15414  0.71986  1
 S  S7  1  0.33333  0.66667  0.94259  1
 S  S8  1  0.48398  0.57006  0.50469  1
 S  S9  1  0.25645  0.10231  0.71986  1
 S  S10  1  0.10231  0.84586  0.21986  1
 S  S11  1  0.08608  0.51602  0.50469  1
 S  S12  1  0.15414  0.25645  0.21986  1
 S  S13  1  0.66667  0.33333  0.44259  1
 S  S14  1  0.84586  0.74355  0.71986  1
 Sn  Sn1  1  0.33333  0.66667  0.33256  1
 Sn  Sn2  1  0.66667  0.33333  0.83256  1
