CIF file written using JARVIS-Tools package.
data_V4O9
_symmetry_space_group_name_H-M  'P4/n'
_cell_length_a       4.16572
_cell_length_b       8.54481
_cell_length_c       8.54481
_cell_angle_alpha    90
_cell_angle_beta     90
_cell_angle_gamma    90

_symmetry_Int_Tables_number  85
_chemical_formula_structural  V4O9
_chemical_formula_sum  V8O8
_cell_volume  304.15483950823824
_cell_formula_units_Z  2
loop_
  _symmetry_equiv_pos_site_id
 _symmetry_equiv_pos_as_xyz
 1  'x, y, z'
loop_
 _atom_site_type_symbol
 _atom_site_label
 _atom_site_symmetry_multiplicity
 _atom_site_fract_x
 _atom_site_fract_y
 _atom_site_fract_z
 _atom_site_fract_occupancy
 O  O1  1  0.50230  0.14545  0.04294  1
 O  O2  1  0.50000  0.75000  0.25000  1
 O  O3  1  0.50000  0.25000  0.75000  1
 O  O4  1  0.00374  0.66002  0.03240  1
 O  O5  1  0.00374  0.46760  0.66001  1
 O  O6  1  0.49770  0.64545  0.54294  1
 O  O7  1  0.00374  0.83999  0.46760  1
 O  O8  1  0.99626  0.33999  0.96760  1
 O  O9  1  0.00374  0.03240  0.83999  1
 O  O10  1  0.99626  0.96760  0.16001  1
 O  O11  1  0.99626  0.16001  0.53240  1
 O  O12  1  0.50230  0.04294  0.35455  1
 O  O13  1  0.49770  0.95706  0.64545  1
 O  O14  1  0.50230  0.35455  0.45706  1
 O  O15  1  0.50230  0.45706  0.14545  1
 O  O16  1  0.49770  0.54294  0.85455  1
 O  O17  1  0.49770  0.85455  0.95706  1
 O  O18  1  0.99626  0.53240  0.33999  1
 V  V1  1  0.39071  0.65479  0.03697  1
 V  V2  1  0.39071  0.46303  0.65479  1
 V  V3  1  0.60929  0.15479  0.53697  1
 V  V4  1  0.60929  0.96303  0.15479  1
 V  V5  1  0.39071  0.03697  0.84521  1
 V  V6  1  0.60929  0.34521  0.96303  1
 V  V7  1  0.39071  0.84521  0.46303  1
 V  V8  1  0.60929  0.53697  0.34521  1
