CIF file written using JARVIS-Tools package.
data_Na2Zn3S4
_symmetry_space_group_name_H-M  'Ibam'
_cell_length_a       5.94918
_cell_length_b       8.62017
_cell_length_c       8.62017
_cell_angle_alpha    68.8865
_cell_angle_beta     69.8138
_cell_angle_gamma    69.8137

_symmetry_Int_Tables_number  72
_chemical_formula_structural  Na2Zn3S4
_chemical_formula_sum  Na4Zn6S8
_cell_volume  374.5534242261467
_cell_formula_units_Z  2
loop_
  _symmetry_equiv_pos_site_id
 _symmetry_equiv_pos_as_xyz
 1  'x, y, z'
loop_
 _atom_site_type_symbol
 _atom_site_label
 _atom_site_symmetry_multiplicity
 _atom_site_fract_x
 _atom_site_fract_y
 _atom_site_fract_z
 _atom_site_fract_occupancy
 Na  Na1  1  0.75301  0.62266  0.37734  1
 Na  Na2  1  0.24699  0.37734  0.62266  1
 Na  Na3  1  0.74699  0.12266  0.87734  1
 Na  Na4  1  0.25301  0.87734  0.12266  1
 S  S1  1  0.41068  0.99341  0.73056  1
 S  S2  1  0.36535  0.49341  0.23056  1
 S  S3  1  0.91068  0.23056  0.49341  1
 S  S4  1  0.13465  0.26944  0.00659  1
 S  S5  1  0.58932  0.00659  0.26944  1
 S  S6  1  0.08932  0.76944  0.50659  1
 S  S7  1  0.63465  0.50659  0.76944  1
 S  S8  1  0.86535  0.73056  0.99341  1
 Zn  Zn1  1  0.25000  0.25000  0.25000  1
 Zn  Zn2  1  0.75000  0.04296  0.45704  1
 Zn  Zn3  1  0.25000  0.54296  0.95704  1
 Zn  Zn4  1  0.75000  0.45704  0.04296  1
 Zn  Zn5  1  0.25000  0.95704  0.54296  1
 Zn  Zn6  1  0.75000  0.75000  0.75000  1
