CIF file written using JARVIS-Tools package.
data_RuBr3
_symmetry_space_group_name_H-M  'P6_3/mcm'
_cell_length_a       6.4518
_cell_length_b       6.4518
_cell_length_c       5.88556
_cell_angle_alpha    90
_cell_angle_beta     90
_cell_angle_gamma    120

_symmetry_Int_Tables_number  193
_chemical_formula_structural  RuBr3
_chemical_formula_sum  Ru2Br6
_cell_volume  212.16760661994846
_cell_formula_units_Z  2
loop_
  _symmetry_equiv_pos_site_id
 _symmetry_equiv_pos_as_xyz
 1  'x, y, z'
loop_
 _atom_site_type_symbol
 _atom_site_label
 _atom_site_symmetry_multiplicity
 _atom_site_fract_x
 _atom_site_fract_y
 _atom_site_fract_z
 _atom_site_fract_occupancy
 Br  Br1  1  0.68406  0.00000  0.75000  1
 Br  Br2  1  0.68406  0.68406  0.25000  1
 Br  Br3  1  0.31594  -0.00000  0.25000  1
 Br  Br4  1  0.31594  0.31594  0.75000  1
 Br  Br5  1  0.00000  0.68406  0.75000  1
 Br  Br6  1  -0.00000  0.31594  0.25000  1
 Ru  Ru1  1  0.00000  0.00000  0.50000  1
 Ru  Ru2  1  0.00000  0.00000  0.00000  1
