CIF file written using JARVIS-Tools package.
data_Ta2N3O
_symmetry_space_group_name_H-M  'P6/mmm'
_cell_length_a       5.43397
_cell_length_b       5.43397
_cell_length_c       2.79851
_cell_angle_alpha    90
_cell_angle_beta     90
_cell_angle_gamma    120.008

_symmetry_Int_Tables_number  191
_chemical_formula_structural  Ta2N3O
_chemical_formula_sum  Ta2N3O
_cell_volume  71.55807616764567
_cell_formula_units_Z  1
loop_
  _symmetry_equiv_pos_site_id
 _symmetry_equiv_pos_as_xyz
 1  'x, y, z'
loop_
 _atom_site_type_symbol
 _atom_site_label
 _atom_site_symmetry_multiplicity
 _atom_site_fract_x
 _atom_site_fract_y
 _atom_site_fract_z
 _atom_site_fract_occupancy
 N  N1  1  0.50001  0.50001  0.00000  1
 N  N2  1  0.50002  0.00002  0.00000  1
 N  N3  1  0.00002  0.50002  0.00000  1
 O  O1  1  0.99999  0.99999  0.00000  1
 Ta  Ta1  1  0.66668  0.33337  0.50000  1
 Ta  Ta2  1  0.33337  0.66668  0.50000  1
