CIF file written using JARVIS-Tools package.
data_HfAl2
_symmetry_space_group_name_H-M  'P6_3/mmc'
_cell_length_a       5.25566
_cell_length_b       5.25566
_cell_length_c       8.71443
_cell_angle_alpha    90
_cell_angle_beta     90
_cell_angle_gamma    120

_symmetry_Int_Tables_number  194
_chemical_formula_structural  HfAl2
_chemical_formula_sum  Hf4Al8
_cell_volume  208.46076080797664
_cell_formula_units_Z  4
loop_
  _symmetry_equiv_pos_site_id
 _symmetry_equiv_pos_as_xyz
 1  'x, y, z'
loop_
 _atom_site_type_symbol
 _atom_site_label
 _atom_site_symmetry_multiplicity
 _atom_site_fract_x
 _atom_site_fract_y
 _atom_site_fract_z
 _atom_site_fract_occupancy
 Al  Al1  1  0.17083  0.82917  0.25000  1
 Al  Al2  1  0.82917  0.65833  0.75000  1
 Al  Al3  1  0.34167  0.17083  0.75000  1
 Al  Al4  1  0.65833  0.82917  0.25000  1
 Al  Al5  1  0.00000  0.00000  0.00000  1
 Al  Al6  1  0.00000  0.00000  0.50000  1
 Al  Al7  1  0.82917  0.17083  0.75000  1
 Al  Al8  1  0.17083  0.34167  0.25000  1
 Hf  Hf1  1  0.33333  0.66667  0.56419  1
 Hf  Hf2  1  0.66667  0.33333  0.06419  1
 Hf  Hf3  1  0.66667  0.33333  0.43581  1
 Hf  Hf4  1  0.33333  0.66667  0.93581  1
