CIF file written using JARVIS-Tools package.
data_KCO2
_symmetry_space_group_name_H-M  'Pbam'
_cell_length_a       3.38613
_cell_length_b       6.14096
_cell_length_c       10.9231
_cell_angle_alpha    90
_cell_angle_beta     90
_cell_angle_gamma    90

_symmetry_Int_Tables_number  55
_chemical_formula_structural  KCO2
_chemical_formula_sum  K4C4O8
_cell_volume  227.13569497907307
_cell_formula_units_Z  4
loop_
  _symmetry_equiv_pos_site_id
 _symmetry_equiv_pos_as_xyz
 1  'x, y, z'
loop_
 _atom_site_type_symbol
 _atom_site_label
 _atom_site_symmetry_multiplicity
 _atom_site_fract_x
 _atom_site_fract_y
 _atom_site_fract_z
 _atom_site_fract_occupancy
 C  C1  1  0.00000  0.43075  0.93886  1
 C  C2  1  0.00000  0.93075  0.56114  1
 C  C3  1  0.00000  0.06925  0.43886  1
 C  C4  1  0.00000  0.56925  0.06114  1
 K  K1  1  0.50000  0.90457  0.84967  1
 K  K2  1  0.50000  0.09543  0.15033  1
 K  K3  1  0.50000  0.40457  0.65033  1
 K  K4  1  0.50000  0.59543  0.34967  1
 O  O1  1  0.00000  0.53608  0.83894  1
 O  O2  1  0.00000  0.03608  0.66106  1
 O  O3  1  0.00000  0.22575  0.95014  1
 O  O4  1  0.00000  0.96392  0.33894  1
 O  O5  1  0.00000  0.27425  0.45014  1
 O  O6  1  0.00000  0.77425  0.04986  1
 O  O7  1  0.00000  0.46392  0.16106  1
 O  O8  1  0.00000  0.72575  0.54986  1
