CIF file written using JARVIS-Tools package.
data_Li5CuF8
_symmetry_space_group_name_H-M  'Cmmm'
_cell_length_a       4.9981
_cell_length_b       4.99811
_cell_length_c       5.85142
_cell_angle_alpha    90
_cell_angle_beta     90
_cell_angle_gamma    110.3

_symmetry_Int_Tables_number  65
_chemical_formula_structural  Li5CuF8
_chemical_formula_sum  Li5CuF8
_cell_volume  137.09560013603536
_cell_formula_units_Z  1
loop_
  _symmetry_equiv_pos_site_id
 _symmetry_equiv_pos_as_xyz
 1  'x, y, z'
loop_
 _atom_site_type_symbol
 _atom_site_label
 _atom_site_symmetry_multiplicity
 _atom_site_fract_x
 _atom_site_fract_y
 _atom_site_fract_z
 _atom_site_fract_occupancy
 Cu  Cu1  1  0.50000  0.50000  0.50000  1
 F  F1  1  0.26423  0.73577  0.00000  1
 F  F2  1  0.26597  0.73403  0.50000  1
 F  F3  1  0.27118  0.27118  0.26026  1
 F  F4  1  0.27118  0.27118  0.73974  1
 F  F5  1  0.72882  0.72882  0.26026  1
 F  F6  1  0.72882  0.72882  0.73974  1
 F  F7  1  0.73403  0.26597  0.50000  1
 F  F8  1  0.73577  0.26423  0.00000  1
 Li  Li1  1  0.00000  0.50000  0.22797  1
 Li  Li2  1  0.00000  0.50000  0.77203  1
 Li  Li3  1  0.50000  0.50000  0.00000  1
 Li  Li4  1  0.50000  0.00000  0.22797  1
 Li  Li5  1  0.50000  0.00000  0.77203  1
