CIF file written using JARVIS-Tools package.
data_CrN2
_symmetry_space_group_name_H-M  'Pa-3'
_cell_length_a       4.7492
_cell_length_b       4.7492
_cell_length_c       4.7492
_cell_angle_alpha    90
_cell_angle_beta     90
_cell_angle_gamma    90

_symmetry_Int_Tables_number  205
_chemical_formula_structural  CrN2
_chemical_formula_sum  Cr4N8
_cell_volume  107.1180603099731
_cell_formula_units_Z  4
loop_
  _symmetry_equiv_pos_site_id
 _symmetry_equiv_pos_as_xyz
 1  'x, y, z'
loop_
 _atom_site_type_symbol
 _atom_site_label
 _atom_site_symmetry_multiplicity
 _atom_site_fract_x
 _atom_site_fract_y
 _atom_site_fract_z
 _atom_site_fract_occupancy
 Cr  Cr1  1  0.50000  0.50000  0.00000  1
 Cr  Cr2  1  0.50000  0.00000  0.50000  1
 Cr  Cr3  1  0.00000  0.50000  0.50000  1
 Cr  Cr4  1  0.00000  0.00000  0.00000  1
 N  N1  1  0.08246  0.91754  0.41754  1
 N  N2  1  0.91754  0.41754  0.08246  1
 N  N3  1  0.41754  0.08246  0.91754  1
 N  N4  1  0.58246  0.58246  0.58246  1
 N  N5  1  0.91754  0.08246  0.58246  1
 N  N6  1  0.08246  0.58246  0.91754  1
 N  N7  1  0.58246  0.91754  0.08246  1
 N  N8  1  0.41754  0.41754  0.41754  1
