CIF file written using JARVIS-Tools package.
data_CrO3
_symmetry_space_group_name_H-M  'P6_3/mmc'
_cell_length_a       3.28148
_cell_length_b       3.28148
_cell_length_c       10.0641
_cell_angle_alpha    90
_cell_angle_beta     90
_cell_angle_gamma    120

_symmetry_Int_Tables_number  194
_chemical_formula_structural  CrO3
_chemical_formula_sum  Cr2O6
_cell_volume  93.85215248884444
_cell_formula_units_Z  2
loop_
  _symmetry_equiv_pos_site_id
 _symmetry_equiv_pos_as_xyz
 1  'x, y, z'
loop_
 _atom_site_type_symbol
 _atom_site_label
 _atom_site_symmetry_multiplicity
 _atom_site_fract_x
 _atom_site_fract_y
 _atom_site_fract_z
 _atom_site_fract_occupancy
 Cr  Cr1  1  0.66667  0.33333  0.75000  1
 Cr  Cr2  1  0.33333  0.66667  0.25000  1
 O  O1  1  0.33333  0.66667  0.41643  1
 O  O2  1  0.66667  0.33333  0.91643  1
 O  O3  1  0.66667  0.33333  0.58357  1
 O  O4  1  0.33333  0.66667  0.08357  1
 O  O5  1  0.00000  0.00000  0.25000  1
 O  O6  1  0.00000  0.00000  0.75000  1
