CIF file written using JARVIS-Tools package.
data_MgCuGe
_symmetry_space_group_name_H-M  'P4/nmm'
_cell_length_a       4.03681
_cell_length_b       4.03681
_cell_length_c       6.36164
_cell_angle_alpha    90
_cell_angle_beta     90
_cell_angle_gamma    90

_symmetry_Int_Tables_number  129
_chemical_formula_structural  MgCuGe
_chemical_formula_sum  Mg2Cu2Ge2
_cell_volume  103.66823810097901
_cell_formula_units_Z  2
loop_
  _symmetry_equiv_pos_site_id
 _symmetry_equiv_pos_as_xyz
 1  'x, y, z'
loop_
 _atom_site_type_symbol
 _atom_site_label
 _atom_site_symmetry_multiplicity
 _atom_site_fract_x
 _atom_site_fract_y
 _atom_site_fract_z
 _atom_site_fract_occupancy
 Cu  Cu1  1  0.50000  0.00000  0.29532  1
 Cu  Cu2  1  0.00000  0.50000  0.70468  1
 Ge  Ge1  1  0.50000  0.00000  0.67715  1
 Ge  Ge2  1  0.00000  0.50000  0.32285  1
 Mg  Mg1  1  0.50000  0.50000  0.00000  1
 Mg  Mg2  1  0.00000  0.00000  0.00000  1
