CIF file written using JARVIS-Tools package.
data_Ca2H3Br
_symmetry_space_group_name_H-M  'P-3m1'
_cell_length_a       3.89001
_cell_length_b       3.89001
_cell_length_c       6.83412
_cell_angle_alpha    90
_cell_angle_beta     90
_cell_angle_gamma    120

_symmetry_Int_Tables_number  164
_chemical_formula_structural  Ca2H3Br
_chemical_formula_sum  Ca2H3Br
_cell_volume  89.56004691324856
_cell_formula_units_Z  1
loop_
  _symmetry_equiv_pos_site_id
 _symmetry_equiv_pos_as_xyz
 1  'x, y, z'
loop_
 _atom_site_type_symbol
 _atom_site_label
 _atom_site_symmetry_multiplicity
 _atom_site_fract_x
 _atom_site_fract_y
 _atom_site_fract_z
 _atom_site_fract_occupancy
 Br  Br1  1  0.00000  0.00000  0.50000  1
 Ca  Ca1  1  0.66667  0.33333  0.18596  1
 Ca  Ca2  1  0.33333  0.66667  0.81404  1
 H  H1  1  0.66667  0.33333  0.84988  1
 H  H2  1  0.33333  0.66667  0.15012  1
 H  H3  1  0.00000  0.00000  0.00000  1
