CIF file written using JARVIS-Tools package.
data_UBr4
_symmetry_space_group_name_H-M  'C2/m'
_cell_length_a       7.02485
_cell_length_b       7.06332
_cell_length_c       7.06332
_cell_angle_alpha    77.3021
_cell_angle_beta     86.0376
_cell_angle_gamma    86.0376

_symmetry_Int_Tables_number  12
_chemical_formula_structural  UBr4
_chemical_formula_sum  U2Br8
_cell_volume  340.5606721691057
_cell_formula_units_Z  2
loop_
  _symmetry_equiv_pos_site_id
 _symmetry_equiv_pos_as_xyz
 1  'x, y, z'
loop_
 _atom_site_type_symbol
 _atom_site_label
 _atom_site_symmetry_multiplicity
 _atom_site_fract_x
 _atom_site_fract_y
 _atom_site_fract_z
 _atom_site_fract_occupancy
 Br  Br1  1  0.33321  0.55905  0.17462  1
 Br  Br2  1  0.66679  0.82538  0.44095  1
 Br  Br3  1  0.75660  0.94215  0.94215  1
 Br  Br4  1  0.24340  0.05785  0.05785  1
 Br  Br5  1  0.85572  0.33352  0.33352  1
 Br  Br6  1  0.14428  0.66648  0.66648  1
 Br  Br7  1  0.33321  0.17462  0.55905  1
 Br  Br8  1  0.66679  0.44095  0.82538  1
 U  U1  1  0.43815  0.80245  0.80245  1
 U  U2  1  0.56185  0.19755  0.19755  1
