CIF file written using JARVIS-Tools package.
data_LiCuSi2O5
_symmetry_space_group_name_H-M  'P2_1'
_cell_length_a       5.68562
_cell_length_b       4.92956
_cell_length_c       8.01495
_cell_angle_alpha    90
_cell_angle_beta     107.411
_cell_angle_gamma    90

_symmetry_Int_Tables_number  4
_chemical_formula_structural  LiCuSi2O5
_chemical_formula_sum  Li2Cu2Si4O0
_cell_volume  214.34764238755383
_cell_formula_units_Z  2
loop_
  _symmetry_equiv_pos_site_id
 _symmetry_equiv_pos_as_xyz
 1  'x, y, z'
loop_
 _atom_site_type_symbol
 _atom_site_label
 _atom_site_symmetry_multiplicity
 _atom_site_fract_x
 _atom_site_fract_y
 _atom_site_fract_z
 _atom_site_fract_occupancy
 Cu  Cu1  1  0.99025  0.72640  0.37312  1
 Cu  Cu2  1  0.00975  0.22640  0.62688  1
 Li  Li1  1  0.05771  0.68410  0.81319  1
 Li  Li2  1  0.94229  0.18410  0.18681  1
 O  O1  1  0.81549  0.23453  0.38512  1
 O  O2  1  0.18451  0.73453  0.61488  1
 O  O3  1  0.32220  0.21392  0.21293  1
 O  O4  1  0.10736  0.29407  0.87098  1
 O  O5  1  0.46602  0.33963  0.54920  1
 O  O6  1  0.53398  0.83963  0.45080  1
 O  O7  1  0.67780  0.71392  0.78707  1
 O  O8  1  0.39834  0.85574  0.98547  1
 O  O9  1  0.60166  0.35574  0.01453  1
 O  O10  1  0.89264  0.79407  0.12902  1
 Si  Si1  1  0.65065  0.68285  0.98682  1
 Si  Si2  1  0.54491  0.16243  0.40127  1
 Si  Si3  1  0.45509  0.66243  0.59873  1
 Si  Si4  1  0.34935  0.18285  0.01318  1
