CIF file written using JARVIS-Tools package.
data_MgNi2O4
_symmetry_space_group_name_H-M  'Imma'
_cell_length_a       5.79087
_cell_length_b       5.79086
_cell_length_c       5.7992
_cell_angle_alpha    59.9524
_cell_angle_beta     59.9524
_cell_angle_gamma    61.4618

_symmetry_Int_Tables_number  74
_chemical_formula_structural  MgNi2O4
_chemical_formula_sum  Mg2Ni4O8
_cell_volume  138.86370123827575
_cell_formula_units_Z  2
loop_
  _symmetry_equiv_pos_site_id
 _symmetry_equiv_pos_as_xyz
 1  'x, y, z'
loop_
 _atom_site_type_symbol
 _atom_site_label
 _atom_site_symmetry_multiplicity
 _atom_site_fract_x
 _atom_site_fract_y
 _atom_site_fract_z
 _atom_site_fract_occupancy
 Mg  Mg1  1  0.12500  0.62500  0.62500  1
 Mg  Mg2  1  0.62500  0.12500  0.62500  1
 Ni  Ni1  1  0.99769  0.99769  0.00231  1
 Ni  Ni2  1  0.25231  0.25231  0.24769  1
 Ni  Ni3  1  0.62500  0.62500  0.12500  1
 Ni  Ni4  1  0.62500  0.62500  0.62500  1
 O  O1  1  0.38936  0.38936  0.37353  1
 O  O2  1  0.40591  0.85446  0.36981  1
 O  O3  1  0.38936  0.38936  0.84775  1
 O  O4  1  0.85446  0.40591  0.36981  1
 O  O5  1  0.39554  0.84409  0.88019  1
 O  O6  1  0.84409  0.39554  0.88019  1
 O  O7  1  0.86064  0.86064  0.40225  1
 O  O8  1  0.86064  0.86064  0.87647  1
