CIF file written using JARVIS-Tools package.
data_ZrSn2
_symmetry_space_group_name_H-M  'Fddd'
_cell_length_a       5.76558
_cell_length_b       5.63674
_cell_length_c       5.63674
_cell_angle_alpha    118.899
_cell_angle_beta     75.3691
_cell_angle_gamma    75.3691

_symmetry_Int_Tables_number  70
_chemical_formula_structural  ZrSn2
_chemical_formula_sum  Zr2Sn4
_cell_volume  139.17221921328448
_cell_formula_units_Z  2
loop_
  _symmetry_equiv_pos_site_id
 _symmetry_equiv_pos_as_xyz
 1  'x, y, z'
loop_
 _atom_site_type_symbol
 _atom_site_label
 _atom_site_symmetry_multiplicity
 _atom_site_fract_x
 _atom_site_fract_y
 _atom_site_fract_z
 _atom_site_fract_occupancy
 Sn  Sn1  1  0.00000  0.32996  0.67004  1
 Sn  Sn2  1  0.50000  0.57996  0.42004  1
 Sn  Sn3  1  0.00000  0.67004  0.32996  1
 Sn  Sn4  1  0.50000  0.92004  0.07996  1
 Zr  Zr1  1  0.50000  0.25000  0.75000  1
 Zr  Zr2  1  0.00000  0.00000  0.00000  1
