CIF file written using JARVIS-Tools package.
data_AlPO4
_symmetry_space_group_name_H-M  'P3_121'
_cell_length_a       4.95998
_cell_length_b       4.95998
_cell_length_c       11.0214
_cell_angle_alpha    90
_cell_angle_beta     90
_cell_angle_gamma    120

_symmetry_Int_Tables_number  152
_chemical_formula_structural  AlPO4
_chemical_formula_sum  Al3P3O2
_cell_volume  234.8154484346336
_cell_formula_units_Z  3
loop_
  _symmetry_equiv_pos_site_id
 _symmetry_equiv_pos_as_xyz
 1  'x, y, z'
loop_
 _atom_site_type_symbol
 _atom_site_label
 _atom_site_symmetry_multiplicity
 _atom_site_fract_x
 _atom_site_fract_y
 _atom_site_fract_z
 _atom_site_fract_occupancy
 Al  Al1  1  0.46287  -0.00000  0.33333  1
 Al  Al2  1  -0.00000  0.46287  0.66667  1
 Al  Al3  1  0.53713  0.53713  0.00000  1
 O  O1  1  0.26261  0.41232  0.11855  1
 O  O2  1  0.58768  0.85029  0.45188  1
 O  O3  1  0.58410  0.88283  0.93742  1
 O  O4  1  0.85029  0.58768  0.54812  1
 O  O5  1  0.14971  0.73739  0.78522  1
 O  O6  1  0.41232  0.26261  0.88145  1
 O  O7  1  0.70127  0.11717  0.72925  1
 O  O8  1  0.73739  0.14971  0.21478  1
 O  O9  1  0.88283  0.58410  0.06258  1
 O  O10  1  0.11717  0.70127  0.27075  1
 O  O11  1  0.41590  0.29873  0.39591  1
 O  O12  1  0.29873  0.41590  0.60409  1
 P  P1  1  0.53770  0.53770  0.50000  1
 P  P2  1  -0.00000  0.46230  0.16667  1
 P  P3  1  0.46230  -0.00000  0.83333  1
