CIF file written using JARVIS-Tools package.
data_Lu2TeO6
_symmetry_space_group_name_H-M  'P4_2/mnm'
_cell_length_a       4.88987
_cell_length_b       9.8656
_cell_length_c       4.88987
_cell_angle_alpha    90
_cell_angle_beta     90.0002
_cell_angle_gamma    90

_symmetry_Int_Tables_number  136
_chemical_formula_structural  Lu2TeO6
_chemical_formula_sum  Lu4Te2O2
_cell_volume  235.89461608857943
_cell_formula_units_Z  2
loop_
  _symmetry_equiv_pos_site_id
 _symmetry_equiv_pos_as_xyz
 1  'x, y, z'
loop_
 _atom_site_type_symbol
 _atom_site_label
 _atom_site_symmetry_multiplicity
 _atom_site_fract_x
 _atom_site_fract_y
 _atom_site_fract_z
 _atom_site_fract_occupancy
 Lu  Lu1  1  0.00000  0.33456  -0.00000  1
 Lu  Lu2  1  -0.00000  0.66544  0.00000  1
 Lu  Lu3  1  0.50000  0.16544  0.50000  1
 Lu  Lu4  1  0.50000  0.83456  0.50000  1
 O  O1  1  0.81435  0.14964  0.18563  1
 O  O2  1  0.81435  0.85036  0.18563  1
 O  O3  1  0.18565  0.14964  0.81437  1
 O  O4  1  0.28319  0.00000  0.28324  1
 O  O5  1  0.78327  0.50000  0.21684  1
 O  O6  1  0.31440  0.64964  0.31432  1
 O  O7  1  0.68560  0.64964  0.68568  1
 O  O8  1  0.31440  0.35036  0.31432  1
 O  O9  1  0.71681  -0.00000  0.71676  1
 O  O10  1  0.21673  0.50000  0.78316  1
 O  O11  1  0.68560  0.35036  0.68568  1
 O  O12  1  0.18565  0.85036  0.81437  1
 Te  Te1  1  0.50000  0.50000  0.50000  1
 Te  Te2  1  0.00000  0.00000  0.00000  1
