CIF file written using JARVIS-Tools package.
data_CrN2
_symmetry_space_group_name_H-M  'Pc'
_cell_length_a       4.65223
_cell_length_b       4.57051
_cell_length_c       8.18497
_cell_angle_alpha    90
_cell_angle_beta     116.087
_cell_angle_gamma    90

_symmetry_Int_Tables_number  7
_chemical_formula_structural  CrN2
_chemical_formula_sum  Cr4N8
_cell_volume  156.30816829988527
_cell_formula_units_Z  4
loop_
  _symmetry_equiv_pos_site_id
 _symmetry_equiv_pos_as_xyz
 1  'x, y, z'
loop_
 _atom_site_type_symbol
 _atom_site_label
 _atom_site_symmetry_multiplicity
 _atom_site_fract_x
 _atom_site_fract_y
 _atom_site_fract_z
 _atom_site_fract_occupancy
 Cr  Cr1  1  0.01057  0.48897  0.48959  1
 Cr  Cr2  1  0.01057  0.51103  0.98959  1
 Cr  Cr3  1  0.30731  0.12264  0.86920  1
 Cr  Cr4  1  0.30731  0.87736  0.36920  1
 N  N1  1  0.30281  0.25548  0.07706  1
 N  N2  1  0.30281  0.74452  0.57706  1
 N  N3  1  0.65686  0.26694  0.89399  1
 N  N4  1  0.65686  0.73306  0.39399  1
 N  N5  1  0.14690  0.22618  0.38898  1
 N  N6  1  0.14690  0.77382  0.88898  1
 N  N7  1  0.02292  0.29490  0.67637  1
 N  N8  1  0.02292  0.70510  0.17637  1
