CIF file written using JARVIS-Tools package.
data_Er3P4Pd7
_symmetry_space_group_name_H-M  'C2/m'
_cell_length_a       3.99426
_cell_length_b       7.91148
_cell_length_c       8.18882
_cell_angle_alpha    71.2939
_cell_angle_beta     75.8841
_cell_angle_gamma    75.3784

_symmetry_Int_Tables_number  12
_chemical_formula_structural  Er3P4Pd7
_chemical_formula_sum  Er3P4Pd7
_cell_volume  233.38661430491814
_cell_formula_units_Z  1
loop_
  _symmetry_equiv_pos_site_id
 _symmetry_equiv_pos_as_xyz
 1  'x, y, z'
loop_
 _atom_site_type_symbol
 _atom_site_label
 _atom_site_symmetry_multiplicity
 _atom_site_fract_x
 _atom_site_fract_y
 _atom_site_fract_z
 _atom_site_fract_occupancy
 Er  Er1  1  0.50000  0.50000  0.50000  1
 Er  Er2  1  0.18027  0.81561  0.82386  1
 Er  Er3  1  0.81973  0.18439  0.17614  1
 P  P1  1  0.60596  0.10791  0.68017  1
 P  P2  1  0.39404  0.89209  0.31983  1
 P  P3  1  0.15781  0.43351  0.25087  1
 P  P4  1  0.84219  0.56649  0.74913  1
 Pd  Pd1  1  0.33160  0.41298  0.92382  1
 Pd  Pd2  1  0.98934  0.23491  0.78641  1
 Pd  Pd3  1  0.01066  0.76509  0.21359  1
 Pd  Pd4  1  0.50000  0.00000  0.00000  1
 Pd  Pd5  1  0.80482  0.86010  0.53026  1
 Pd  Pd6  1  0.19518  0.13990  0.46974  1
 Pd  Pd7  1  0.66840  0.58702  0.07618  1
