CIF file written using JARVIS-Tools package.
data_CrN2
_symmetry_space_group_name_H-M  'Ibam'
_cell_length_a       4.40677
_cell_length_b       5.01476
_cell_length_c       5.12291
_cell_angle_alpha    119.304
_cell_angle_beta     115.474
_cell_angle_gamma    90

_symmetry_Int_Tables_number  72
_chemical_formula_structural  CrN2
_chemical_formula_sum  Cr2N4
_cell_volume  85.8802080693483
_cell_formula_units_Z  2
loop_
  _symmetry_equiv_pos_site_id
 _symmetry_equiv_pos_as_xyz
 1  'x, y, z'
loop_
 _atom_site_type_symbol
 _atom_site_label
 _atom_site_symmetry_multiplicity
 _atom_site_fract_x
 _atom_site_fract_y
 _atom_site_fract_z
 _atom_site_fract_occupancy
 Cr  Cr1  1  0.00000  0.75000  0.00000  1
 Cr  Cr2  1  0.00000  0.25000  0.00000  1
 N  N1  1  0.91301  0.61104  0.22207  1
 N  N2  1  0.08699  0.38896  0.77793  1
 N  N3  1  0.30906  0.11104  0.22207  1
 N  N4  1  0.69094  0.88896  0.77793  1
