CIF file written using JARVIS-Tools package.
data_LiYSe2
_symmetry_space_group_name_H-M  'I4_1/amd'
_cell_length_a       8.02223
_cell_length_b       10.6551
_cell_length_c       7.01192
_cell_angle_alpha    29.1339
_cell_angle_beta     55.1081
_cell_angle_gamma    41.1585

_symmetry_Int_Tables_number  141
_chemical_formula_structural  LiYSe2
_chemical_formula_sum  Li2Y2Se4
_cell_volume  185.06564293371477
_cell_formula_units_Z  2
loop_
  _symmetry_equiv_pos_site_id
 _symmetry_equiv_pos_as_xyz
 1  'x, y, z'
loop_
 _atom_site_type_symbol
 _atom_site_label
 _atom_site_symmetry_multiplicity
 _atom_site_fract_x
 _atom_site_fract_y
 _atom_site_fract_z
 _atom_site_fract_occupancy
 Li  Li1  1  0.24999  0.50001  0.00000  1
 Li  Li2  1  0.50001  0.99999  1.00000  1
 Se  Se1  1  0.24762  0.00001  0.50475  1
 Se  Se2  1  0.50238  0.49999  0.49525  1
 Se  Se3  1  0.99761  0.49998  0.50480  1
 Se  Se4  1  0.75239  0.00002  0.49520  1
 Y  Y1  1  0.99999  0.00001  0.99998  1
 Y  Y2  1  0.75001  0.49999  0.00002  1
