CIF file written using JARVIS-Tools package.
data_BaSb2F12
_symmetry_space_group_name_H-M  'P-1'
_cell_length_a       5.00185
_cell_length_b       6.62636
_cell_length_c       9.36958
_cell_angle_alpha    79.7624
_cell_angle_beta     109.502
_cell_angle_gamma    131.592

_symmetry_Int_Tables_number  2
_chemical_formula_structural  BaSb2F12
_chemical_formula_sum  BaSb2F2
_cell_volume  218.50437974131526
_cell_formula_units_Z  1
loop_
  _symmetry_equiv_pos_site_id
 _symmetry_equiv_pos_as_xyz
 1  'x, y, z'
loop_
 _atom_site_type_symbol
 _atom_site_label
 _atom_site_symmetry_multiplicity
 _atom_site_fract_x
 _atom_site_fract_y
 _atom_site_fract_z
 _atom_site_fract_occupancy
 Ba  Ba1  1  0.27648  0.08732  0.86520  1
 F  F1  1  0.04503  0.54616  0.95763  1
 F  F2  1  0.50797  0.62838  0.77280  1
 F  F3  1  0.79289  0.21536  0.71720  1
 F  F4  1  0.02227  0.71130  0.64897  1
 F  F5  1  0.18467  0.25818  0.56931  1
 F  F6  1  0.43655  0.77451  0.48455  1
 F  F7  1  0.66264  0.32735  0.41466  1
 F  F8  1  0.89048  0.84743  0.31571  1
 F  F9  1  0.11662  0.40016  0.24588  1
 F  F10  1  0.36830  0.91645  0.16107  1
 F  F11  1  0.76006  0.95930  0.01317  1
 F  F12  1  0.53095  0.46344  0.08146  1
 Sb  Sb1  1  0.08840  0.48997  0.58446  1
 Sb  Sb2  1  0.46467  0.68470  0.14594  1
