CIF file written using JARVIS-Tools package.
data_Na6FeS4
_symmetry_space_group_name_H-M  'P6_3mc'
_cell_length_a       8.88986
_cell_length_b       8.88986
_cell_length_c       6.88016
_cell_angle_alpha    90
_cell_angle_beta     90
_cell_angle_gamma    120

_symmetry_Int_Tables_number  186
_chemical_formula_structural  Na6FeS4
_chemical_formula_sum  Na2Fe2S8
_cell_volume  470.88871097203247
_cell_formula_units_Z  2
loop_
  _symmetry_equiv_pos_site_id
 _symmetry_equiv_pos_as_xyz
 1  'x, y, z'
loop_
 _atom_site_type_symbol
 _atom_site_label
 _atom_site_symmetry_multiplicity
 _atom_site_fract_x
 _atom_site_fract_y
 _atom_site_fract_z
 _atom_site_fract_occupancy
 Fe  Fe1  1  0.33333  0.66667  0.74734  1
 Fe  Fe2  1  0.66667  0.33333  0.24734  1
 Na  Na1  1  0.14614  0.85386  0.46003  1
 Na  Na2  1  0.85386  0.14614  0.96003  1
 Na  Na3  1  0.29228  0.14614  0.96003  1
 Na  Na4  1  0.70772  0.85386  0.46003  1
 Na  Na5  1  0.14614  0.29228  0.46003  1
 Na  Na6  1  0.85386  0.70772  0.96003  1
 Na  Na7  1  0.53078  0.46922  0.63156  1
 Na  Na8  1  0.46922  0.93844  0.13156  1
 Na  Na9  1  0.06156  0.53078  0.13156  1
 Na  Na10  1  0.93844  0.46922  0.63156  1
 Na  Na11  1  0.46922  0.53078  0.13156  1
 Na  Na12  1  0.53078  0.06156  0.63156  1
 S  S1  1  0.81157  0.62314  0.35506  1
 S  S2  1  0.37686  0.18843  0.35506  1
 S  S3  1  0.81157  0.18843  0.35506  1
 S  S4  1  0.18843  0.37686  0.85506  1
 S  S5  1  0.33333  0.66667  0.40582  1
 S  S6  1  0.66667  0.33333  0.90582  1
 S  S7  1  0.18843  0.81157  0.85506  1
 S  S8  1  0.62314  0.81157  0.85506  1
