CIF file written using JARVIS-Tools package.
data_TbCdF6
_symmetry_space_group_name_H-M  'P4_2/m'
_cell_length_a       5.21428
_cell_length_b       5.21428
_cell_length_c       7.86188
_cell_angle_alpha    90
_cell_angle_beta     90
_cell_angle_gamma    90

_symmetry_Int_Tables_number  84
_chemical_formula_structural  TbCdF6
_chemical_formula_sum  Tb2Cd2F2
_cell_volume  213.75465260730687
_cell_formula_units_Z  2
loop_
  _symmetry_equiv_pos_site_id
 _symmetry_equiv_pos_as_xyz
 1  'x, y, z'
loop_
 _atom_site_type_symbol
 _atom_site_label
 _atom_site_symmetry_multiplicity
 _atom_site_fract_x
 _atom_site_fract_y
 _atom_site_fract_z
 _atom_site_fract_occupancy
 Cd  Cd1  1  0.00000  0.00000  0.50000  1
 Cd  Cd2  1  0.00000  0.00000  0.00000  1
 F  F1  1  0.62972  0.28245  0.50000  1
 F  F2  1  0.71755  0.62972  0.00000  1
 F  F3  1  0.28245  0.37028  0.00000  1
 F  F4  1  0.37028  0.71755  0.50000  1
 F  F5  1  0.14962  0.28194  0.32494  1
 F  F6  1  0.71806  0.14962  0.82494  1
 F  F7  1  0.28194  0.85038  0.82494  1
 F  F8  1  0.85038  0.71806  0.32494  1
 F  F9  1  0.85038  0.71806  0.67506  1
 F  F10  1  0.28194  0.85038  0.17506  1
 F  F11  1  0.71806  0.14962  0.17506  1
 F  F12  1  0.14962  0.28194  0.67506  1
 Tb  Tb1  1  0.50000  0.50000  0.75000  1
 Tb  Tb2  1  0.50000  0.50000  0.25000  1
