CIF file written using JARVIS-Tools package.
data_Te2Mo2WSe4
_symmetry_space_group_name_H-M  'R3m'
_cell_length_a       3.40528
_cell_length_b       3.40528
_cell_length_c       20.4962
_cell_angle_alpha    94.7932
_cell_angle_beta     89.9919
_cell_angle_gamma    120.001

_symmetry_Int_Tables_number  160
_chemical_formula_structural  Te2Mo2WSe4
_chemical_formula_sum  Te2Mo2WSe4
_cell_volume  204.8708374752239
_cell_formula_units_Z  1
loop_
  _symmetry_equiv_pos_site_id
 _symmetry_equiv_pos_as_xyz
 1  'x, y, z'
loop_
 _atom_site_type_symbol
 _atom_site_label
 _atom_site_symmetry_multiplicity
 _atom_site_fract_x
 _atom_site_fract_y
 _atom_site_fract_z
 _atom_site_fract_occupancy
 Mo  Mo1  1  0.22243  0.44479  0.01479  1
 Mo  Mo2  1  0.66890  0.33763  0.35304  1
 Se  Se1  1  0.36255  0.72509  0.43378  1
 Se  Se2  1  0.74819  0.49645  0.59197  1
 Se  Se3  1  0.80245  0.60529  0.75425  1
 Se  Se4  1  0.30856  0.61678  0.27222  1
 Te  Te1  1  0.52505  0.04987  -0.07706  1
 Te  Te2  1  0.58648  0.17309  0.10675  1
 W  W1  1  0.44199  0.88420  0.67309  1
