CIF file written using JARVIS-Tools package.
data_Te4Mo3WSe4
_symmetry_space_group_name_H-M  'P3m1'
_cell_length_a       3.4428
_cell_length_b       3.4428
_cell_length_c       36.4271
_cell_angle_alpha    90.0003
_cell_angle_beta     89.9996
_cell_angle_gamma    120

_symmetry_Int_Tables_number  156
_chemical_formula_structural  Te4Mo3WSe4
_chemical_formula_sum  Te4Mo3WSe4
_cell_volume  373.9202206755603
_cell_formula_units_Z  1
loop_
  _symmetry_equiv_pos_site_id
 _symmetry_equiv_pos_as_xyz
 1  'x, y, z'
loop_
 _atom_site_type_symbol
 _atom_site_label
 _atom_site_symmetry_multiplicity
 _atom_site_fract_x
 _atom_site_fract_y
 _atom_site_fract_z
 _atom_site_fract_occupancy
 Mo  Mo1  1  0.33335  0.66664  0.09332  1
 Mo  Mo2  1  0.33337  0.66680  0.46960  1
 Mo  Mo3  1  0.66662  0.33322  0.28146  1
 Se  Se1  1  0.33328  0.66655  0.32639  1
 Se  Se2  1  0.33333  0.66669  0.70357  1
 Se  Se3  1  0.33329  0.66656  0.23653  1
 Se  Se4  1  0.33332  0.66666  0.61343  1
 Te  Te1  1  0.66669  0.33331  0.04233  1
 Te  Te2  1  0.66671  0.33347  0.41854  1
 Te  Te3  1  0.66668  0.33330  0.14439  1
 Te  Te4  1  0.66670  0.33347  0.52065  1
 W  W1  1  0.66666  0.33334  0.65854  1
