CIF file written using JARVIS-Tools package.
data_Na3FeF6
_symmetry_space_group_name_H-M  'P2_1/c'
_cell_length_a       5.41822
_cell_length_b       5.67989
_cell_length_c       7.80585
_cell_angle_alpha    90
_cell_angle_beta     90.277
_cell_angle_gamma    90

_symmetry_Int_Tables_number  14
_chemical_formula_structural  Na3FeF6
_chemical_formula_sum  Na6Fe2F2
_cell_volume  240.2216203608903
_cell_formula_units_Z  2
loop_
  _symmetry_equiv_pos_site_id
 _symmetry_equiv_pos_as_xyz
 1  'x, y, z'
loop_
 _atom_site_type_symbol
 _atom_site_label
 _atom_site_symmetry_multiplicity
 _atom_site_fract_x
 _atom_site_fract_y
 _atom_site_fract_z
 _atom_site_fract_occupancy
 F  F1  1  0.63352  0.46288  0.52544  1
 F  F2  1  0.41544  0.73605  0.18185  1
 F  F3  1  0.46772  0.68883  0.80339  1
 F  F4  1  0.96775  0.83557  0.30339  1
 F  F5  1  0.03225  0.33557  0.69661  1
 F  F6  1  0.58456  0.23605  0.81815  1
 F  F7  1  0.86645  0.56150  0.97457  1
 F  F8  1  0.08459  0.28836  0.31813  1
 F  F9  1  0.91541  0.78836  0.68187  1
 F  F10  1  0.53228  0.18883  0.19661  1
 F  F11  1  0.36648  0.96288  0.47456  1
 F  F12  1  0.13355  0.06150  0.02543  1
 Fe  Fe1  1  0.74998  0.51220  0.75001  1
 Fe  Fe2  1  0.25002  0.01220  0.24999  1
 Na  Na1  1  0.25001  0.01221  0.74999  1
 Na  Na2  1  0.74999  0.51221  0.25001  1
 Na  Na3  1  0.26950  0.44835  0.99729  1
 Na  Na4  1  0.73050  0.94835  0.00271  1
 Na  Na5  1  0.23047  0.57606  0.50274  1
 Na  Na6  1  0.76953  0.07606  0.49726  1
