CIF file written using JARVIS-Tools package.
data_SrSnHg
_symmetry_space_group_name_H-M  'P6_3mc'
_cell_length_a       4.98783
_cell_length_b       4.98783
_cell_length_c       8.16978
_cell_angle_alpha    90
_cell_angle_beta     90
_cell_angle_gamma    120

_symmetry_Int_Tables_number  186
_chemical_formula_structural  SrSnHg
_chemical_formula_sum  Sr2Sn2Hg2
_cell_volume  176.02112591631172
_cell_formula_units_Z  2
loop_
  _symmetry_equiv_pos_site_id
 _symmetry_equiv_pos_as_xyz
 1  'x, y, z'
loop_
 _atom_site_type_symbol
 _atom_site_label
 _atom_site_symmetry_multiplicity
 _atom_site_fract_x
 _atom_site_fract_y
 _atom_site_fract_z
 _atom_site_fract_occupancy
 Hg  Hg1  1  0.66667  0.33333  0.44681  1
 Hg  Hg2  1  0.33333  0.66667  0.94681  1
 Sn  Sn1  1  0.66667  0.33333  0.03428  1
 Sn  Sn2  1  0.33333  0.66667  0.53428  1
 Sr  Sr1  1  0.00000  0.00000  0.24891  1
 Sr  Sr2  1  0.00000  0.00000  0.74891  1
