CIF file written using JARVIS-Tools package.
data_MoW2Se4S2
_symmetry_space_group_name_H-M  'R3m'
_cell_length_a       3.28366
_cell_length_b       3.28374
_cell_length_c       19.5196
_cell_angle_alpha    94.8604
_cell_angle_beta     90
_cell_angle_gamma    119.999

_symmetry_Int_Tables_number  160
_chemical_formula_structural  MoW2Se4S2
_chemical_formula_sum  MoW2Se4S2
_cell_volume  181.40269613934157
_cell_formula_units_Z  1
loop_
  _symmetry_equiv_pos_site_id
 _symmetry_equiv_pos_as_xyz
 1  'x, y, z'
loop_
 _atom_site_type_symbol
 _atom_site_label
 _atom_site_symmetry_multiplicity
 _atom_site_fract_x
 _atom_site_fract_y
 _atom_site_fract_z
 _atom_site_fract_occupancy
 Mo  Mo1  1  0.22182  0.44364  0.01292  1
 S  S1  1  0.52855  0.05710  0.93378  1
 S  S2  1  0.58178  0.16356  0.09213  1
 Se  Se1  1  0.36114  0.72229  0.43000  1
 Se  Se2  1  0.75031  0.50062  0.59802  1
 Se  Se3  1  0.80909  0.61819  0.77288  1
 Se  Se4  1  0.30241  0.60482  0.25510  1
 W  W1  1  0.44638  0.89277  0.68547  1
 W  W2  1  0.66511  0.33021  0.34254  1
