CIF file written using JARVIS-Tools package.
data_Te2Mo3WSe2S4
_symmetry_space_group_name_H-M  'P3m1'
_cell_length_a       3.31108
_cell_length_b       3.3111
_cell_length_c       37.4455
_cell_angle_alpha    90
_cell_angle_beta     90
_cell_angle_gamma    120

_symmetry_Int_Tables_number  156
_chemical_formula_structural  Te2Mo3WSe2S4
_chemical_formula_sum  Te2Mo3WSe2S4
_cell_volume  355.5267961674732
_cell_formula_units_Z  1
loop_
  _symmetry_equiv_pos_site_id
 _symmetry_equiv_pos_as_xyz
 1  'x, y, z'
loop_
 _atom_site_type_symbol
 _atom_site_label
 _atom_site_symmetry_multiplicity
 _atom_site_fract_x
 _atom_site_fract_y
 _atom_site_fract_z
 _atom_site_fract_occupancy
 Mo  Mo1  1  0.33331  0.66662  0.09394  1
 Mo  Mo2  1  0.66669  0.33338  0.28180  1
 Mo  Mo3  1  0.66669  0.33338  0.65757  1
 S  S1  1  0.33336  0.66671  0.32264  1
 S  S2  1  0.66664  0.33328  0.42862  1
 S  S3  1  0.66664  0.33329  0.51064  1
 S  S4  1  0.33335  0.66671  0.24095  1
 Se  Se1  1  0.66664  0.33328  0.04924  1
 Se  Se2  1  0.66665  0.33329  0.13877  1
 Te  Te1  1  0.33336  0.66671  0.70853  1
 Te  Te2  1  0.33336  0.66672  0.60641  1
 W  W1  1  0.33331  0.66662  0.46963  1
