CIF file written using JARVIS-Tools package.
data_NaCo2O3
_symmetry_space_group_name_H-M  'Cmc2_1'
_cell_length_a       5.79817
_cell_length_b       5.79817
_cell_length_c       5.1914
_cell_angle_alpha    90
_cell_angle_beta     90
_cell_angle_gamma    119.822

_symmetry_Int_Tables_number  36
_chemical_formula_structural  NaCo2O3
_chemical_formula_sum  Na2Co4O6
_cell_volume  151.416406355046
_cell_formula_units_Z  2
loop_
  _symmetry_equiv_pos_site_id
 _symmetry_equiv_pos_as_xyz
 1  'x, y, z'
loop_
 _atom_site_type_symbol
 _atom_site_label
 _atom_site_symmetry_multiplicity
 _atom_site_fract_x
 _atom_site_fract_y
 _atom_site_fract_z
 _atom_site_fract_occupancy
 Co  Co1  1  0.33308  0.99402  0.51872  1
 Co  Co2  1  0.00598  0.66692  0.01872  1
 Co  Co3  1  0.99402  0.33308  0.51872  1
 Co  Co4  1  0.66692  0.00598  0.01872  1
 Na  Na1  1  0.32301  0.32301  0.99949  1
 Na  Na2  1  0.67699  0.67699  0.49949  1
 O  O1  1  0.06156  0.66526  0.38223  1
 O  O2  1  0.33474  0.93844  0.88223  1
 O  O3  1  0.28360  0.28360  0.45952  1
 O  O4  1  0.71640  0.71640  0.95952  1
 O  O5  1  0.66526  0.06156  0.38223  1
 O  O6  1  0.93844  0.33474  0.88223  1
