CIF file written using JARVIS-Tools package.
data_LiLu2Os
_symmetry_space_group_name_H-M  'Fm-3m'
_cell_length_a       4.77006
_cell_length_b       4.77006
_cell_length_c       4.77006
_cell_angle_alpha    59.9965
_cell_angle_beta     59.9965
_cell_angle_gamma    59.9965

_symmetry_Int_Tables_number  225
_chemical_formula_structural  LiLu2Os
_chemical_formula_sum  LiLu2Os
_cell_volume  76.74024945984465
_cell_formula_units_Z  1
loop_
  _symmetry_equiv_pos_site_id
 _symmetry_equiv_pos_as_xyz
 1  'x, y, z'
loop_
 _atom_site_type_symbol
 _atom_site_label
 _atom_site_symmetry_multiplicity
 _atom_site_fract_x
 _atom_site_fract_y
 _atom_site_fract_z
 _atom_site_fract_occupancy
 Li  Li1  1  0.25000  0.25000  0.25000  1
 Lu  Lu1  1  0.00001  0.00001  0.00001  1
 Lu  Lu2  1  0.49999  0.49999  0.49999  1
 Os  Os1  1  0.75000  0.75000  0.75000  1
