CIF file written using JARVIS-Tools package.
data_TaMn2
_symmetry_space_group_name_H-M  'P6_3/mmc'
_cell_length_a       4.79132
_cell_length_b       4.79132
_cell_length_c       7.88628
_cell_angle_alpha    90
_cell_angle_beta     90
_cell_angle_gamma    120

_symmetry_Int_Tables_number  194
_chemical_formula_structural  TaMn2
_chemical_formula_sum  Ta4Mn8
_cell_volume  156.7880305368043
_cell_formula_units_Z  4
loop_
  _symmetry_equiv_pos_site_id
 _symmetry_equiv_pos_as_xyz
 1  'x, y, z'
loop_
 _atom_site_type_symbol
 _atom_site_label
 _atom_site_symmetry_multiplicity
 _atom_site_fract_x
 _atom_site_fract_y
 _atom_site_fract_z
 _atom_site_fract_occupancy
 Mn  Mn1  1  0.00000  0.00000  0.00000  1
 Mn  Mn2  1  0.00000  0.00000  0.50000  1
 Mn  Mn3  1  0.82800  0.17200  0.75000  1
 Mn  Mn4  1  0.17200  0.34401  0.25000  1
 Mn  Mn5  1  0.65599  0.82800  0.25000  1
 Mn  Mn6  1  0.34401  0.17200  0.75000  1
 Mn  Mn7  1  0.82800  0.65599  0.75000  1
 Mn  Mn8  1  0.17200  0.82800  0.25000  1
 Ta  Ta1  1  0.33333  0.66667  0.93707  1
 Ta  Ta2  1  0.66667  0.33333  0.43707  1
 Ta  Ta3  1  0.66667  0.33333  0.06293  1
 Ta  Ta4  1  0.33333  0.66667  0.56293  1
