CIF file written using JARVIS-Tools package.
data_LiAlSiO4
_symmetry_space_group_name_H-M  'Pna2_1'
_cell_length_a       4.95309
_cell_length_b       6.58211
_cell_length_c       10.0595
_cell_angle_alpha    90
_cell_angle_beta     90
_cell_angle_gamma    90

_symmetry_Int_Tables_number  33
_chemical_formula_structural  LiAlSiO4
_chemical_formula_sum  Li4Al4Si4O6
_cell_volume  327.95638797443866
_cell_formula_units_Z  4
loop_
  _symmetry_equiv_pos_site_id
 _symmetry_equiv_pos_as_xyz
 1  'x, y, z'
loop_
 _atom_site_type_symbol
 _atom_site_label
 _atom_site_symmetry_multiplicity
 _atom_site_fract_x
 _atom_site_fract_y
 _atom_site_fract_z
 _atom_site_fract_occupancy
 Al  Al1  1  0.75172  0.51080  0.67268  1
 Al  Al2  1  0.25172  0.01080  0.82732  1
 Al  Al3  1  0.25172  0.48920  0.32732  1
 Al  Al4  1  0.75172  0.98920  0.17268  1
 Li  Li1  1  0.25599  0.98874  0.35098  1
 Li  Li2  1  0.75599  0.48874  0.14902  1
 Li  Li3  1  0.75599  0.01126  0.64902  1
 Li  Li4  1  0.25599  0.51126  0.85098  1
 O  O1  1  0.90032  0.96192  0.83129  1
 O  O2  1  0.81312  0.72677  0.56883  1
 O  O3  1  0.90032  0.53808  0.33129  1
 O  O4  1  0.40032  0.03808  0.16871  1
 O  O5  1  0.92412  0.28930  0.61982  1
 O  O6  1  0.92412  0.21070  0.11982  1
 O  O7  1  0.40032  0.46192  0.66871  1
 O  O8  1  0.42412  0.71070  0.38018  1
 O  O9  1  0.85833  0.56184  0.83866  1
 O  O10  1  0.35833  0.06184  0.66134  1
 O  O11  1  0.35833  0.43816  0.16134  1
 O  O12  1  0.85833  0.93816  0.33866  1
 O  O13  1  0.42412  0.78930  0.88018  1
 O  O14  1  0.31312  0.22677  0.93117  1
 O  O15  1  0.31312  0.27323  0.43117  1
 O  O16  1  0.81312  0.77323  0.06883  1
 Si  Si1  1  0.25080  0.27306  0.59122  1
 Si  Si2  1  0.25080  0.22694  0.09122  1
 Si  Si3  1  0.75080  0.77306  0.90878  1
 Si  Si4  1  0.75080  0.72694  0.40878  1
