CIF file written using JARVIS-Tools package.
data_Na3NiO3
_symmetry_space_group_name_H-M  'P4_2/mnm'
_cell_length_a       9.01281
_cell_length_b       4.50874
_cell_length_c       9.01846
_cell_angle_alpha    90
_cell_angle_beta     90.0041
_cell_angle_gamma    90

_symmetry_Int_Tables_number  136
_chemical_formula_structural  Na3NiO3
_chemical_formula_sum  Na2Ni4O2
_cell_volume  366.4779390590096
_cell_formula_units_Z  4
loop_
  _symmetry_equiv_pos_site_id
 _symmetry_equiv_pos_as_xyz
 1  'x, y, z'
loop_
 _atom_site_type_symbol
 _atom_site_label
 _atom_site_symmetry_multiplicity
 _atom_site_fract_x
 _atom_site_fract_y
 _atom_site_fract_z
 _atom_site_fract_occupancy
 Na  Na1  1  0.86825  0.00000  0.37985  1
 Na  Na2  1  0.88008  0.50000  0.63163  1
 Na  Na3  1  0.85612  0.50000  0.14393  1
 Na  Na4  1  0.64387  0.00000  0.64395  1
 Na  Na5  1  0.61989  0.00000  0.13163  1
 Na  Na6  1  0.63174  0.50000  0.87988  1
 Na  Na7  1  0.36825  0.50000  0.12017  1
 Na  Na8  1  0.38010  0.00000  0.86837  1
 Na  Na9  1  0.35611  0.00000  0.35606  1
 Na  Na10  1  0.14388  0.50000  0.85605  1
 Na  Na11  1  0.11987  0.50000  0.36838  1
 Na  Na12  1  0.13174  0.00000  0.62014  1
 Ni  Ni1  1  0.88748  0.00000  0.88754  1
 Ni  Ni2  1  0.61252  0.50000  0.38754  1
 Ni  Ni3  1  0.38749  0.50000  0.61244  1
 Ni  Ni4  1  0.11252  0.00000  0.11245  1
 O  O1  1  0.90507  0.00000  0.09485  1
 O  O2  1  0.89267  0.00000  0.68550  1
 O  O3  1  0.81474  0.50000  0.39267  1
 O  O4  1  0.68527  0.00000  0.89268  1
 O  O5  1  0.60733  0.50000  0.18549  1
 O  O6  1  0.59494  0.50000  0.59485  1
 O  O7  1  0.40507  0.50000  0.40514  1
 O  O8  1  0.39268  0.50000  0.81449  1
 O  O9  1  0.31473  0.00000  0.10732  1
 O  O10  1  0.18527  0.50000  0.60731  1
 O  O11  1  0.10732  0.00000  0.31450  1
 O  O12  1  0.09494  0.00000  0.90514  1
