CIF file written using JARVIS-Tools package.
data_AgSbS2
_symmetry_space_group_name_H-M  'C2/m'
_cell_length_a       3.94482
_cell_length_b       8.34859
_cell_length_c       11.5797
_cell_angle_alpha    82.3962
_cell_angle_beta     90
_cell_angle_gamma    103.666

_symmetry_Int_Tables_number  12
_chemical_formula_structural  AgSbS2
_chemical_formula_sum  Ag4Sb4S8
_cell_volume  367.1139199031277
_cell_formula_units_Z  4
loop_
  _symmetry_equiv_pos_site_id
 _symmetry_equiv_pos_as_xyz
 1  'x, y, z'
loop_
 _atom_site_type_symbol
 _atom_site_label
 _atom_site_symmetry_multiplicity
 _atom_site_fract_x
 _atom_site_fract_y
 _atom_site_fract_z
 _atom_site_fract_occupancy
 Ag  Ag1  1  0.71335  0.92702  0.86838  1
 Ag  Ag2  1  0.79523  0.09088  0.61911  1
 Ag  Ag3  1  0.29565  0.09088  0.11911  1
 Ag  Ag4  1  0.21367  0.92702  0.36838  1
 S  S1  1  0.56441  0.62893  0.82818  1
 S  S2  1  0.18610  0.87233  0.60168  1
 S  S3  1  0.32273  0.14557  0.88582  1
 S  S4  1  0.82284  0.14557  0.38582  1
 S  S5  1  0.94442  0.38896  0.65932  1
 S  S6  1  0.44454  0.38896  0.15932  1
 S  S7  1  0.06453  0.62893  0.32818  1
 S  S8  1  0.68622  0.87233  0.10168  1
 Sb  Sb1  1  0.07199  0.64348  0.11192  1
 Sb  Sb2  1  0.43743  0.37442  0.37558  1
 Sb  Sb3  1  0.57149  0.64348  0.61192  1
 Sb  Sb4  1  0.93699  0.37442  0.87558  1
