CIF file written using JARVIS-Tools package.
data_BaLi2MgP2O8
_symmetry_space_group_name_H-M  'P-3'
_cell_length_a       5.06132
_cell_length_b       5.06128
_cell_length_c       7.10675
_cell_angle_alpha    89.9996
_cell_angle_beta     89.9994
_cell_angle_gamma    120.002

_symmetry_Int_Tables_number  147
_chemical_formula_structural  BaLi2MgP2O8
_chemical_formula_sum  BaLi2MgP2O8
_cell_volume  157.65907866435583
_cell_formula_units_Z  1
loop_
  _symmetry_equiv_pos_site_id
 _symmetry_equiv_pos_as_xyz
 1  'x, y, z'
loop_
 _atom_site_type_symbol
 _atom_site_label
 _atom_site_symmetry_multiplicity
 _atom_site_fract_x
 _atom_site_fract_y
 _atom_site_fract_z
 _atom_site_fract_occupancy
 Ba  Ba1  1  -0.00000  0.00000  0.50000  1
 Li  Li1  1  0.33333  0.66666  0.76082  1
 Li  Li2  1  0.66667  0.33334  0.23918  1
 Mg  Mg1  1  0.00000  0.00000  0.00000  1
 O  O1  1  0.33333  0.66666  0.46699  1
 O  O2  1  0.66667  0.33334  0.53301  1
 O  O3  1  0.64005  0.94079  0.17911  1
 O  O4  1  0.05923  0.69927  0.17911  1
 O  O5  1  0.30073  0.35995  0.17910  1
 O  O6  1  0.35995  0.05921  0.82089  1
 O  O7  1  0.94077  0.30073  0.82089  1
 O  O8  1  0.69927  0.64005  0.82090  1
 P  P1  1  0.33333  0.66667  0.24889  1
 P  P2  1  0.66667  0.33333  0.75111  1
