CIF file written using JARVIS-Tools package.
data_Mn4O7F
_symmetry_space_group_name_H-M  'Pc'
_cell_length_a       4.33542
_cell_length_b       10.8269
_cell_length_c       4.85548
_cell_angle_alpha    90
_cell_angle_beta     89.6445
_cell_angle_gamma    90

_symmetry_Int_Tables_number  7
_chemical_formula_structural  Mn4O7F
_chemical_formula_sum  Mn8O4F2
_cell_volume  227.90892910290856
_cell_formula_units_Z  2
loop_
  _symmetry_equiv_pos_site_id
 _symmetry_equiv_pos_as_xyz
 1  'x, y, z'
loop_
 _atom_site_type_symbol
 _atom_site_label
 _atom_site_symmetry_multiplicity
 _atom_site_fract_x
 _atom_site_fract_y
 _atom_site_fract_z
 _atom_site_fract_occupancy
 F  F1  1  0.75346  0.19102  0.92030  1
 F  F2  1  0.75346  0.80898  0.42030  1
 Mn  Mn1  1  0.48194  0.93458  0.23967  1
 Mn  Mn2  1  0.50893  0.57218  0.74745  1
 Mn  Mn3  1  0.50893  0.42782  0.24745  1
 Mn  Mn4  1  0.01695  0.66667  0.24816  1
 Mn  Mn5  1  0.00496  0.18242  0.26705  1
 Mn  Mn6  1  0.00496  0.81758  0.76705  1
 Mn  Mn7  1  0.01695  0.33333  0.74816  1
 Mn  Mn8  1  0.48194  0.06542  0.73967  1
 O  O1  1  0.25205  0.94128  0.57814  1
 O  O2  1  0.23769  0.30903  0.08072  1
 O  O3  1  0.23769  0.69097  0.58072  1
 O  O4  1  0.23082  0.80725  0.08399  1
 O  O5  1  0.27729  0.44409  0.57721  1
 O  O6  1  0.27729  0.55591  0.07721  1
 O  O7  1  0.25205  0.05872  0.07814  1
 O  O8  1  0.74124  0.44275  0.91758  1
 O  O9  1  0.74124  0.55725  0.41758  1
 O  O10  1  0.72514  0.05816  0.41849  1
 O  O11  1  0.76953  0.31045  0.42124  1
 O  O12  1  0.76953  0.68955  0.92124  1
 O  O13  1  0.23082  0.19275  0.58399  1
 O  O14  1  0.72514  0.94184  0.91849  1
