CIF file written using JARVIS-Tools package.
data_Co4Cu3O12
_symmetry_space_group_name_H-M  'Im-3'
_cell_length_a       6.14134
_cell_length_b       6.14133
_cell_length_c       6.14134
_cell_angle_alpha    109.471
_cell_angle_beta     109.471
_cell_angle_gamma    109.471

_symmetry_Int_Tables_number  204
_chemical_formula_structural  Co4Cu3O12
_chemical_formula_sum  Co4Cu3O2
_cell_volume  178.30652965373474
_cell_formula_units_Z  1
loop_
  _symmetry_equiv_pos_site_id
 _symmetry_equiv_pos_as_xyz
 1  'x, y, z'
loop_
 _atom_site_type_symbol
 _atom_site_label
 _atom_site_symmetry_multiplicity
 _atom_site_fract_x
 _atom_site_fract_y
 _atom_site_fract_z
 _atom_site_fract_occupancy
 Co  Co1  1  0.00000  0.00000  0.50000  1
 Co  Co2  1  -0.00000  0.50000  -0.00000  1
 Co  Co3  1  0.50000  0.50000  0.50000  1
 Co  Co4  1  0.50000  0.00000  -0.00000  1
 Cu  Cu1  1  0.50000  0.50000  -0.00000  1
 Cu  Cu2  1  -0.00000  0.50000  0.50000  1
 Cu  Cu3  1  0.50000  0.00000  0.50000  1
 O  O1  1  0.81756  0.31187  0.12943  1
 O  O2  1  0.18244  0.68813  0.87057  1
 O  O3  1  0.87057  0.18244  0.68813  1
 O  O4  1  0.31187  0.49431  0.18244  1
 O  O5  1  0.81756  0.68813  0.50569  1
 O  O6  1  0.50569  0.81756  0.68813  1
 O  O7  1  0.68813  0.87057  0.18244  1
 O  O8  1  0.49431  0.18244  0.31187  1
 O  O9  1  0.18244  0.31187  0.49431  1
 O  O10  1  0.68813  0.50569  0.81756  1
 O  O11  1  0.12943  0.81756  0.31187  1
 O  O12  1  0.31187  0.12943  0.81756  1
