CIF file written using JARVIS-Tools package.
data_MgSc3Ru2
_symmetry_space_group_name_H-M  'P4/mmm'
_cell_length_a       3.23991
_cell_length_b       3.23991
_cell_length_c       10.7672
_cell_angle_alpha    90
_cell_angle_beta     90
_cell_angle_gamma    90

_symmetry_Int_Tables_number  123
_chemical_formula_structural  MgSc3Ru2
_chemical_formula_sum  MgSc3Ru2
_cell_volume  113.0231137081063
_cell_formula_units_Z  1
loop_
  _symmetry_equiv_pos_site_id
 _symmetry_equiv_pos_as_xyz
 1  'x, y, z'
loop_
 _atom_site_type_symbol
 _atom_site_label
 _atom_site_symmetry_multiplicity
 _atom_site_fract_x
 _atom_site_fract_y
 _atom_site_fract_z
 _atom_site_fract_occupancy
 Mg  Mg1  1  0.50000  0.50000  0.50000  1
 Ru  Ru1  1  0.50000  0.50000  0.84666  1
 Ru  Ru2  1  0.50000  0.50000  0.15334  1
 Sc  Sc1  1  0.00000  0.00000  0.00000  1
 Sc  Sc2  1  0.00000  0.00000  0.71281  1
 Sc  Sc3  1  0.00000  0.00000  0.28719  1
