CIF file written using JARVIS-Tools package.
data_Li2Cu2F7
_symmetry_space_group_name_H-M  'Cm'
_cell_length_a       3.07997
_cell_length_b       6.11216
_cell_length_c       8.1283
_cell_angle_alpha    85.66
_cell_angle_beta     100.925
_cell_angle_gamma    104.599

_symmetry_Int_Tables_number  8
_chemical_formula_structural  Li2Cu2F7
_chemical_formula_sum  Li2Cu2F7
_cell_volume  145.33048869867605
_cell_formula_units_Z  1
loop_
  _symmetry_equiv_pos_site_id
 _symmetry_equiv_pos_as_xyz
 1  'x, y, z'
loop_
 _atom_site_type_symbol
 _atom_site_label
 _atom_site_symmetry_multiplicity
 _atom_site_fract_x
 _atom_site_fract_y
 _atom_site_fract_z
 _atom_site_fract_occupancy
 Cu  Cu1  1  0.76558  0.83034  0.70119  1
 Cu  Cu2  1  0.55247  0.01008  0.09455  1
 F  F1  1  0.42847  0.69695  0.15961  1
 F  F2  1  0.33158  0.02217  0.64136  1
 F  F3  1  0.94205  0.95492  0.92914  1
 F  F4  1  0.59271  0.69978  0.48597  1
 F  F5  1  0.67407  0.31905  0.02890  1
 F  F6  1  0.20725  0.63276  0.78203  1
 F  F7  1  0.14615  0.04240  0.24942  1
 Li  Li1  1  0.03544  0.72343  0.34771  1
 Li  Li2  1  0.23589  0.47978  0.99177  1
