CIF file written using JARVIS-Tools package.
data_Se2Cl2O5
_symmetry_space_group_name_H-M  'I4/mmm'
_cell_length_a       3.68712
_cell_length_b       3.68711
_cell_length_c       10.6095
_cell_angle_alpha    100.007
_cell_angle_beta     100.007
_cell_angle_gamma    90

_symmetry_Int_Tables_number  139
_chemical_formula_structural  Se2Cl2O5
_chemical_formula_sum  Se2Cl2O5
_cell_volume  139.81174917325083
_cell_formula_units_Z  1
loop_
  _symmetry_equiv_pos_site_id
 _symmetry_equiv_pos_as_xyz
 1  'x, y, z'
loop_
 _atom_site_type_symbol
 _atom_site_label
 _atom_site_symmetry_multiplicity
 _atom_site_fract_x
 _atom_site_fract_y
 _atom_site_fract_z
 _atom_site_fract_occupancy
 Cl  Cl1  1  0.20801  0.20801  0.41601  1
 Cl  Cl2  1  0.79199  0.79199  0.58399  1
 O  O1  1  0.39997  0.89997  0.79993  1
 O  O2  1  0.89997  0.39997  0.79993  1
 O  O3  1  0.60003  0.10003  0.20007  1
 O  O4  1  0.10003  0.60003  0.20007  1
 O  O5  1  0.00000  0.00000  0.00000  1
 Se  Se1  1  0.08756  0.08756  0.17513  1
 Se  Se2  1  0.91244  0.91244  0.82487  1
