CIF file written using JARVIS-Tools package.
data_Ca2Sb3O8
_symmetry_space_group_name_H-M  'P6_3mc'
_cell_length_a       6.7608
_cell_length_b       6.7608
_cell_length_c       10.1076
_cell_angle_alpha    90
_cell_angle_beta     90
_cell_angle_gamma    120

_symmetry_Int_Tables_number  186
_chemical_formula_structural  Ca2Sb3O8
_chemical_formula_sum  Ca4Sb6O6
_cell_volume  400.1061138149656
_cell_formula_units_Z  2
loop_
  _symmetry_equiv_pos_site_id
 _symmetry_equiv_pos_as_xyz
 1  'x, y, z'
loop_
 _atom_site_type_symbol
 _atom_site_label
 _atom_site_symmetry_multiplicity
 _atom_site_fract_x
 _atom_site_fract_y
 _atom_site_fract_z
 _atom_site_fract_occupancy
 Ca  Ca1  1  0.66667  0.33333  0.96863  1
 Ca  Ca2  1  0.33333  0.66667  0.46863  1
 Ca  Ca3  1  0.66667  0.33333  0.60712  1
 Ca  Ca4  1  0.33333  0.66667  0.10712  1
 O  O1  1  0.83536  0.67072  0.84208  1
 O  O2  1  0.67072  0.83536  0.34208  1
 O  O3  1  0.47490  0.94979  0.63730  1
 O  O4  1  0.83536  0.16464  0.84208  1
 O  O5  1  0.32928  0.16464  0.84208  1
 O  O6  1  0.16464  0.32928  0.34208  1
 O  O7  1  0.16464  0.83536  0.34208  1
 O  O8  1  0.05021  0.52510  0.63730  1
 O  O9  1  0.52510  0.47490  0.13730  1
 O  O10  1  0.00000  0.00000  0.65313  1
 O  O11  1  0.33333  0.66667  0.87232  1
 O  O12  1  0.52510  0.05021  0.13730  1
 O  O13  1  0.94979  0.47490  0.13730  1
 O  O14  1  0.47490  0.52510  0.63730  1
 O  O15  1  0.00000  0.00000  0.15313  1
 O  O16  1  0.66667  0.33333  0.37232  1
 Sb  Sb1  1  0.16516  0.83484  0.75572  1
 Sb  Sb2  1  0.66968  0.83484  0.75572  1
 Sb  Sb3  1  0.83484  0.66968  0.25572  1
 Sb  Sb4  1  0.33032  0.16516  0.25572  1
 Sb  Sb5  1  0.83484  0.16516  0.25572  1
 Sb  Sb6  1  0.16516  0.33032  0.75572  1
