CIF file written using JARVIS-Tools package.
data_Rb2In3
_symmetry_space_group_name_H-M  'I4/mmm'
_cell_length_a       6.97448
_cell_length_b       6.97448
_cell_length_c       9.29942
_cell_angle_alpha    112.024
_cell_angle_beta     112.024
_cell_angle_gamma    90

_symmetry_Int_Tables_number  139
_chemical_formula_structural  Rb2In3
_chemical_formula_sum  Rb4In6
_cell_volume  383.5050530767388
_cell_formula_units_Z  2
loop_
  _symmetry_equiv_pos_site_id
 _symmetry_equiv_pos_as_xyz
 1  'x, y, z'
loop_
 _atom_site_type_symbol
 _atom_site_label
 _atom_site_symmetry_multiplicity
 _atom_site_fract_x
 _atom_site_fract_y
 _atom_site_fract_z
 _atom_site_fract_occupancy
 In  In1  1  -0.00000  0.70427  -0.00000  1
 In  In2  1  0.84888  0.84888  0.69775  1
 In  In3  1  0.15112  0.15112  0.30225  1
 In  In4  1  0.70427  -0.00000  -0.00000  1
 In  In5  1  0.00000  0.29573  0.00000  1
 In  In6  1  0.29573  0.00000  0.00000  1
 Rb  Rb1  1  0.60954  0.60954  0.21908  1
 Rb  Rb2  1  0.39046  0.39046  0.78092  1
 Rb  Rb3  1  0.75000  0.25000  0.50000  1
 Rb  Rb4  1  0.25000  0.75000  0.50000  1
