CIF file written using JARVIS-Tools package.
data_Te2Mo3WSe6
_symmetry_space_group_name_H-M  'P3m1'
_cell_length_a       3.38456
_cell_length_b       3.38456
_cell_length_c       36.0588
_cell_angle_alpha    90
_cell_angle_beta     90.0007
_cell_angle_gamma    120

_symmetry_Int_Tables_number  156
_chemical_formula_structural  Te2Mo3WSe6
_chemical_formula_sum  Te2Mo3WSe6
_cell_volume  357.72173608880615
_cell_formula_units_Z  1
loop_
  _symmetry_equiv_pos_site_id
 _symmetry_equiv_pos_as_xyz
 1  'x, y, z'
loop_
 _atom_site_type_symbol
 _atom_site_label
 _atom_site_symmetry_multiplicity
 _atom_site_fract_x
 _atom_site_fract_y
 _atom_site_fract_z
 _atom_site_fract_occupancy
 Mo  Mo1  1  0.33330  0.66663  0.09590  1
 Mo  Mo2  1  0.33336  0.66673  0.46876  1
 Mo  Mo3  1  0.66666  0.33331  0.27693  1
 Se  Se1  1  0.33333  0.66663  0.32283  1
 Se  Se2  1  0.33334  0.66666  0.70736  1
 Se  Se3  1  0.66663  0.33330  0.05007  1
 Se  Se4  1  0.66665  0.33330  0.14179  1
 Se  Se5  1  0.33333  0.66665  0.23105  1
 Se  Se6  1  0.33333  0.66667  0.61520  1
 Te  Te1  1  0.66668  0.33337  0.41652  1
 Te  Te2  1  0.66672  0.33342  0.52100  1
 W  W1  1  0.66666  0.33333  0.66132  1
