CIF file written using JARVIS-Tools package.
data_Mg3P2O8
_symmetry_space_group_name_H-M  'P2_1/c'
_cell_length_a       5.91866
_cell_length_b       4.76556
_cell_length_c       10.2496
_cell_angle_alpha    90
_cell_angle_beta     90.9281
_cell_angle_gamma    90

_symmetry_Int_Tables_number  14
_chemical_formula_structural  Mg3P2O8
_chemical_formula_sum  Mg6P4O6
_cell_volume  289.05933963956403
_cell_formula_units_Z  2
loop_
  _symmetry_equiv_pos_site_id
 _symmetry_equiv_pos_as_xyz
 1  'x, y, z'
loop_
 _atom_site_type_symbol
 _atom_site_label
 _atom_site_symmetry_multiplicity
 _atom_site_fract_x
 _atom_site_fract_y
 _atom_site_fract_z
 _atom_site_fract_occupancy
 Mg  Mg1  1  0.76157  0.51336  0.22316  1
 Mg  Mg2  1  0.23843  0.01336  0.27684  1
 Mg  Mg3  1  0.76157  0.98664  0.72316  1
 Mg  Mg4  1  0.50000  0.00000  0.00000  1
 Mg  Mg5  1  0.23843  0.48664  0.77684  1
 Mg  Mg6  1  0.50000  0.50000  0.50000  1
 O  O1  1  0.72591  0.74538  0.89641  1
 O  O2  1  0.25571  0.68830  0.95478  1
 O  O3  1  0.72591  0.75462  0.39641  1
 O  O4  1  0.53252  0.23081  0.33855  1
 O  O5  1  0.05741  0.80785  0.67634  1
 O  O6  1  0.05741  0.69215  0.17634  1
 O  O7  1  0.27409  0.25462  0.10359  1
 O  O8  1  0.74429  0.31170  0.04522  1
 O  O9  1  0.94259  0.19215  0.32366  1
 O  O10  1  0.46748  0.73081  0.16145  1
 O  O11  1  0.27409  0.24538  0.60359  1
 O  O12  1  0.94259  0.30785  0.82366  1
 O  O13  1  0.46748  0.76919  0.66145  1
 O  O14  1  0.74429  0.18830  0.54522  1
 O  O15  1  0.53252  0.26919  0.83855  1
 O  O16  1  0.25571  0.81170  0.45478  1
 P  P1  1  0.74530  0.42442  0.90359  1
 P  P2  1  0.25470  0.92442  0.59641  1
 P  P3  1  0.74530  0.07558  0.40359  1
 P  P4  1  0.25470  0.57558  0.09641  1
