CIF file written using JARVIS-Tools package.
data_CoS2
_symmetry_space_group_name_H-M  'Pa-3'
_cell_length_a       5.51993
_cell_length_b       5.52049
_cell_length_c       5.5204
_cell_angle_alpha    90
_cell_angle_beta     90
_cell_angle_gamma    90

_symmetry_Int_Tables_number  205
_chemical_formula_structural  CoS2
_chemical_formula_sum  Co4S8
_cell_volume  168.22194866477116
_cell_formula_units_Z  4
loop_
  _symmetry_equiv_pos_site_id
 _symmetry_equiv_pos_as_xyz
 1  'x, y, z'
loop_
 _atom_site_type_symbol
 _atom_site_label
 _atom_site_symmetry_multiplicity
 _atom_site_fract_x
 _atom_site_fract_y
 _atom_site_fract_z
 _atom_site_fract_occupancy
 Co  Co1  1  -0.00000  0.50000  0.50000  1
 Co  Co2  1  0.00000  0.00000  0.00000  1
 Co  Co3  1  0.50000  0.50000  -0.00000  1
 Co  Co4  1  0.50000  0.00000  0.50000  1
 S  S1  1  0.38731  0.38733  0.61267  1
 S  S2  1  0.38731  0.11267  0.11267  1
 S  S3  1  0.88731  0.11267  0.38733  1
 S  S4  1  0.11269  0.61267  0.11267  1
 S  S5  1  0.61269  0.88733  0.88733  1
 S  S6  1  0.11269  0.88733  0.61267  1
 S  S7  1  0.88731  0.38733  0.88733  1
 S  S8  1  0.61269  0.61267  0.38733  1
