CIF file written using JARVIS-Tools package.
data_TeH2O4
_symmetry_space_group_name_H-M  'Pc'
_cell_length_a       5.8041
_cell_length_b       4.9225
_cell_length_c       5.2768
_cell_angle_alpha    90
_cell_angle_beta     113.214
_cell_angle_gamma    90

_symmetry_Int_Tables_number  7
_chemical_formula_structural  TeH2O4
_chemical_formula_sum  Te2H4O8
_cell_volume  138.55589540422957
_cell_formula_units_Z  2
loop_
  _symmetry_equiv_pos_site_id
 _symmetry_equiv_pos_as_xyz
 1  'x, y, z'
loop_
 _atom_site_type_symbol
 _atom_site_label
 _atom_site_symmetry_multiplicity
 _atom_site_fract_x
 _atom_site_fract_y
 _atom_site_fract_z
 _atom_site_fract_occupancy
 H  H1  1  0.38899  0.29773  0.51595  1
 H  H2  1  0.60489  0.76190  0.74210  1
 H  H3  1  0.60489  0.73810  0.24210  1
 H  H4  1  0.38899  0.20227  0.01595  1
 O  O1  1  0.33870  0.35789  0.66740  1
 O  O2  1  0.66182  0.85701  0.92303  1
 O  O3  1  0.66182  0.64299  0.42303  1
 O  O4  1  0.33870  0.14211  0.16740  1
 O  O5  1  0.88047  0.18834  0.67084  1
 O  O6  1  0.11470  0.68337  0.87957  1
 O  O7  1  0.11470  0.81663  0.37957  1
 O  O8  1  0.88047  0.31166  0.17084  1
 Te  Te1  1  0.99851  0.50057  0.52336  1
 Te  Te2  1  0.99851  0.99943  0.02336  1
