CIF file written using JARVIS-Tools package.
data_ZrPd2
_symmetry_space_group_name_H-M  'I4/mmm'
_cell_length_a       3.46839
_cell_length_b       3.46839
_cell_length_c       4.9943
_cell_angle_alpha    110.318
_cell_angle_beta     110.318
_cell_angle_gamma    90

_symmetry_Int_Tables_number  139
_chemical_formula_structural  ZrPd2
_chemical_formula_sum  ZrPd2
_cell_volume  52.337117599592666
_cell_formula_units_Z  1
loop_
  _symmetry_equiv_pos_site_id
 _symmetry_equiv_pos_as_xyz
 1  'x, y, z'
loop_
 _atom_site_type_symbol
 _atom_site_label
 _atom_site_symmetry_multiplicity
 _atom_site_fract_x
 _atom_site_fract_y
 _atom_site_fract_z
 _atom_site_fract_occupancy
 Pd  Pd1  1  0.66239  0.66239  0.32477  1
 Pd  Pd2  1  0.33761  0.33761  0.67523  1
 Zr  Zr1  1  0.00000  0.00000  0.00000  1
