CIF file written using JARVIS-Tools package.
data_MoO3
_symmetry_space_group_name_H-M  'P6_3cm'
_cell_length_a       5.95703
_cell_length_b       5.95703
_cell_length_c       10.4658
_cell_angle_alpha    90
_cell_angle_beta     90
_cell_angle_gamma    120

_symmetry_Int_Tables_number  185
_chemical_formula_structural  MoO3
_chemical_formula_sum  Mo6O8
_cell_volume  321.6333583313313
_cell_formula_units_Z  6
loop_
  _symmetry_equiv_pos_site_id
 _symmetry_equiv_pos_as_xyz
 1  'x, y, z'
loop_
 _atom_site_type_symbol
 _atom_site_label
 _atom_site_symmetry_multiplicity
 _atom_site_fract_x
 _atom_site_fract_y
 _atom_site_fract_z
 _atom_site_fract_occupancy
 Mo  Mo1  1  0.67463  -0.00000  0.47917  1
 Mo  Mo2  1  0.67463  0.67463  0.97917  1
 Mo  Mo3  1  0.00000  0.32537  0.97917  1
 Mo  Mo4  1  -0.00000  0.67463  0.47917  1
 Mo  Mo5  1  0.32537  0.32537  0.47917  1
 Mo  Mo6  1  0.32537  0.00000  0.97917  1
 O  O1  1  0.66667  0.33333  0.02572  1
 O  O2  1  0.33333  0.66667  0.52572  1
 O  O3  1  0.66667  0.33333  0.52572  1
 O  O4  1  0.33333  0.66667  0.02572  1
 O  O5  1  0.00000  0.00000  0.92470  1
 O  O6  1  0.74160  0.74160  0.13435  1
 O  O7  1  0.64043  -0.00000  0.90542  1
 O  O8  1  0.00000  0.00000  0.42470  1
 O  O9  1  0.35957  0.35957  0.90542  1
 O  O10  1  -0.00000  0.64043  0.90542  1
 O  O11  1  0.64043  0.64043  0.40542  1
 O  O12  1  0.35957  0.00000  0.40542  1
 O  O13  1  0.25840  -0.00000  0.13435  1
 O  O14  1  0.25840  0.25840  0.63435  1
 O  O15  1  0.00000  0.74160  0.63435  1
 O  O16  1  -0.00000  0.25840  0.13435  1
 O  O17  1  0.00000  0.35957  0.40542  1
 O  O18  1  0.74160  0.00000  0.63435  1
