CIF file written using JARVIS-Tools package.
data_KInBr4
_symmetry_space_group_name_H-M  'Pnna'
_cell_length_a       7.89472
_cell_length_b       10.3574
_cell_length_c       10.2759
_cell_angle_alpha    90
_cell_angle_beta     90
_cell_angle_gamma    90

_symmetry_Int_Tables_number  52
_chemical_formula_structural  KInBr4
_chemical_formula_sum  K4In4Br6
_cell_volume  840.2488441373711
_cell_formula_units_Z  4
loop_
  _symmetry_equiv_pos_site_id
 _symmetry_equiv_pos_as_xyz
 1  'x, y, z'
loop_
 _atom_site_type_symbol
 _atom_site_label
 _atom_site_symmetry_multiplicity
 _atom_site_fract_x
 _atom_site_fract_y
 _atom_site_fract_z
 _atom_site_fract_occupancy
 Br  Br1  1  0.49388  0.82177  0.54516  1
 Br  Br2  1  0.65191  0.95567  0.19299  1
 Br  Br3  1  0.65191  0.54433  0.30701  1
 Br  Br4  1  0.84809  0.54433  0.69299  1
 Br  Br5  1  0.50612  0.17823  0.45484  1
 Br  Br6  1  0.34809  0.04433  0.80701  1
 Br  Br7  1  0.34809  0.45567  0.69299  1
 Br  Br8  1  0.84809  0.95567  0.80701  1
 Br  Br9  1  0.15191  0.04433  0.19299  1
 Br  Br10  1  0.00612  0.67823  0.04516  1
 Br  Br11  1  0.00612  0.82177  0.45484  1
 Br  Br12  1  0.50612  0.32177  0.04516  1
 Br  Br13  1  0.49388  0.67823  0.95484  1
 Br  Br14  1  0.99388  0.32177  0.95484  1
 Br  Br15  1  0.99388  0.17823  0.54516  1
 Br  Br16  1  0.15191  0.45567  0.30701  1
 In  In1  1  0.75000  0.82115  0.00000  1
 In  In2  1  0.75000  0.67885  0.50000  1
 In  In3  1  0.25000  0.17885  0.00000  1
 In  In4  1  0.25000  0.32115  0.50000  1
 K  K1  1  0.32315  0.75000  0.25000  1
 K  K2  1  0.17685  0.75000  0.75000  1
 K  K3  1  0.67685  0.25000  0.75000  1
 K  K4  1  0.82315  0.25000  0.25000  1
