CIF file written using JARVIS-Tools package.
data_FeCN2
_symmetry_space_group_name_H-M  'P6_3/mmc'
_cell_length_a       3.12114
_cell_length_b       3.12114
_cell_length_c       9.71721
_cell_angle_alpha    90
_cell_angle_beta     90
_cell_angle_gamma    120

_symmetry_Int_Tables_number  194
_chemical_formula_structural  FeCN2
_chemical_formula_sum  Fe2C2N4
_cell_volume  81.9785992004792
_cell_formula_units_Z  2
loop_
  _symmetry_equiv_pos_site_id
 _symmetry_equiv_pos_as_xyz
 1  'x, y, z'
loop_
 _atom_site_type_symbol
 _atom_site_label
 _atom_site_symmetry_multiplicity
 _atom_site_fract_x
 _atom_site_fract_y
 _atom_site_fract_z
 _atom_site_fract_occupancy
 C  C1  1  0.33333  0.66667  0.25000  1
 C  C2  1  0.66667  0.33333  0.75000  1
 Fe  Fe1  1  0.00000  0.00000  0.50000  1
 Fe  Fe2  1  0.00000  0.00000  0.00000  1
 N  N1  1  0.66667  0.33333  0.87701  1
 N  N2  1  0.33333  0.66667  0.37701  1
 N  N3  1  0.33333  0.66667  0.12299  1
 N  N4  1  0.66667  0.33333  0.62299  1
