CIF file written using JARVIS-Tools package.
data_Lu2InPd2
_symmetry_space_group_name_H-M  'P4/mbm'
_cell_length_a       7.6611
_cell_length_b       7.6611
_cell_length_c       3.55867
_cell_angle_alpha    90
_cell_angle_beta     90
_cell_angle_gamma    90

_symmetry_Int_Tables_number  127
_chemical_formula_structural  Lu2InPd2
_chemical_formula_sum  Lu4In2Pd4
_cell_volume  208.86682917782673
_cell_formula_units_Z  2
loop_
  _symmetry_equiv_pos_site_id
 _symmetry_equiv_pos_as_xyz
 1  'x, y, z'
loop_
 _atom_site_type_symbol
 _atom_site_label
 _atom_site_symmetry_multiplicity
 _atom_site_fract_x
 _atom_site_fract_y
 _atom_site_fract_z
 _atom_site_fract_occupancy
 In  In1  1  0.00000  0.00000  0.00000  1
 In  In2  1  0.50000  0.50000  0.00000  1
 Lu  Lu1  1  0.32980  0.82980  0.50000  1
 Lu  Lu2  1  0.82980  0.67020  0.50000  1
 Lu  Lu3  1  0.17020  0.32980  0.50000  1
 Lu  Lu4  1  0.67020  0.17020  0.50000  1
 Pd  Pd1  1  0.37056  0.12944  0.00000  1
 Pd  Pd2  1  0.87056  0.37056  0.00000  1
 Pd  Pd3  1  0.12944  0.62944  0.00000  1
 Pd  Pd4  1  0.62944  0.87056  0.00000  1
