CIF file written using JARVIS-Tools package.
data_Li3Fe2O6
_symmetry_space_group_name_H-M  'Pnn2'
_cell_length_a       4.79828
_cell_length_b       4.788
_cell_length_c       8.08502
_cell_angle_alpha    90
_cell_angle_beta     90
_cell_angle_gamma    90

_symmetry_Int_Tables_number  34
_chemical_formula_structural  Li3Fe2O6
_chemical_formula_sum  Li6Fe4O2
_cell_volume  185.74669033193075
_cell_formula_units_Z  2
loop_
  _symmetry_equiv_pos_site_id
 _symmetry_equiv_pos_as_xyz
 1  'x, y, z'
loop_
 _atom_site_type_symbol
 _atom_site_label
 _atom_site_symmetry_multiplicity
 _atom_site_fract_x
 _atom_site_fract_y
 _atom_site_fract_z
 _atom_site_fract_occupancy
 Fe  Fe1  1  0.00000  0.00000  0.10318  1
 Fe  Fe2  1  0.50000  0.50000  0.60318  1
 Fe  Fe3  1  0.00000  0.50000  0.40950  1
 Fe  Fe4  1  0.50000  0.00000  0.90950  1
 Li  Li1  1  0.00000  0.50000  0.77331  1
 Li  Li2  1  0.00000  0.50000  0.06612  1
 Li  Li3  1  0.00000  0.00000  0.71913  1
 Li  Li4  1  0.50000  0.50000  0.21913  1
 Li  Li5  1  0.50000  0.00000  0.27331  1
 Li  Li6  1  0.50000  0.00000  0.56612  1
 O  O1  1  0.17244  0.20578  0.92921  1
 O  O2  1  0.82756  0.79422  0.92921  1
 O  O3  1  0.82059  0.70602  0.58245  1
 O  O4  1  0.67941  0.20602  0.08245  1
 O  O5  1  0.85123  0.74335  0.25356  1
 O  O6  1  0.17941  0.29398  0.58245  1
 O  O7  1  0.35123  0.75665  0.75356  1
 O  O8  1  0.32756  0.70578  0.42921  1
 O  O9  1  0.32059  0.79398  0.08245  1
 O  O10  1  0.67244  0.29422  0.42921  1
 O  O11  1  0.64877  0.24335  0.75356  1
 O  O12  1  0.14877  0.25665  0.25356  1
