CIF file written using JARVIS-Tools package.
data_BiF4
_symmetry_space_group_name_H-M  'C2'
_cell_length_a       5.35898
_cell_length_b       5.35928
_cell_length_c       6.2539
_cell_angle_alpha    103.654
_cell_angle_beta     128.211
_cell_angle_gamma    90.0547

_symmetry_Int_Tables_number  5
_chemical_formula_structural  BiF4
_chemical_formula_sum  Bi2F8
_cell_volume  134.57638413603706
_cell_formula_units_Z  2
loop_
  _symmetry_equiv_pos_site_id
 _symmetry_equiv_pos_as_xyz
 1  'x, y, z'
loop_
 _atom_site_type_symbol
 _atom_site_label
 _atom_site_symmetry_multiplicity
 _atom_site_fract_x
 _atom_site_fract_y
 _atom_site_fract_z
 _atom_site_fract_occupancy
 Bi  Bi1  1  -0.00204  0.49875  -0.00125  1
 Bi  Bi2  1  0.49703  -0.00216  -0.00127  1
 F  F1  1  0.00821  0.26198  0.23802  1
 F  F2  1  0.52231  0.27025  0.75942  1
 F  F3  1  0.12507  0.59546  0.75668  1
 F  F4  1  -0.01871  0.13127  0.74342  1
 F  F5  1  0.33638  0.86750  0.24086  1
 F  F6  1  0.47463  0.39838  0.24046  1
 F  F7  1  0.88530  0.73697  0.25399  1
 F  F8  1  0.65647  0.73425  0.75715  1
