CIF file written using JARVIS-Tools package.
data_SiPt2
_symmetry_space_group_name_H-M  'P-62m'
_cell_length_a       6.56713
_cell_length_b       6.56713
_cell_length_c       3.63171
_cell_angle_alpha    90
_cell_angle_beta     90
_cell_angle_gamma    120

_symmetry_Int_Tables_number  189
_chemical_formula_structural  SiPt2
_chemical_formula_sum  Si3Pt6
_cell_volume  135.6415587680141
_cell_formula_units_Z  3
loop_
  _symmetry_equiv_pos_site_id
 _symmetry_equiv_pos_as_xyz
 1  'x, y, z'
loop_
 _atom_site_type_symbol
 _atom_site_label
 _atom_site_symmetry_multiplicity
 _atom_site_fract_x
 _atom_site_fract_y
 _atom_site_fract_z
 _atom_site_fract_occupancy
 Pt  Pt1  1  0.62297  -0.00000  0.50000  1
 Pt  Pt2  1  -0.00000  0.62297  0.50000  1
 Pt  Pt3  1  0.37703  0.37703  0.50000  1
 Pt  Pt4  1  0.71822  0.71822  0.00000  1
 Pt  Pt5  1  -0.00000  0.28178  0.00000  1
 Pt  Pt6  1  0.28178  -0.00000  0.00000  1
 Si  Si1  1  0.33333  0.66667  0.00000  1
 Si  Si2  1  0.66667  0.33333  0.00000  1
 Si  Si3  1  0.00000  0.00000  0.50000  1
