CIF file written using JARVIS-Tools package.
data_Mo3WSe4S4
_symmetry_space_group_name_H-M  'Cm'
_cell_length_a       3.25737
_cell_length_b       3.2574
_cell_length_c       25.7031
_cell_angle_alpha    89.9948
_cell_angle_beta     90
_cell_angle_gamma    120

_symmetry_Int_Tables_number  8
_chemical_formula_structural  Mo3WSe4S4
_chemical_formula_sum  Mo3WSe4S4
_cell_volume  236.18762645342758
_cell_formula_units_Z  1
loop_
  _symmetry_equiv_pos_site_id
 _symmetry_equiv_pos_as_xyz
 1  'x, y, z'
loop_
 _atom_site_type_symbol
 _atom_site_label
 _atom_site_symmetry_multiplicity
 _atom_site_fract_x
 _atom_site_fract_y
 _atom_site_fract_z
 _atom_site_fract_occupancy
 Mo  Mo1  1  0.33449  0.66898  0.99649  1
 Mo  Mo2  1  0.33170  0.66339  0.50491  1
 Mo  Mo3  1  0.66520  0.33040  0.25542  1
 S  S1  1  0.33527  0.67053  0.80655  1
 S  S2  1  0.66504  0.33007  0.44475  1
 S  S3  1  0.66502  0.33004  0.56505  1
 S  S4  1  0.33530  0.67059  0.68566  1
 Se  Se1  1  0.33182  0.66363  0.32148  1
 Se  Se2  1  0.66788  0.33575  0.93043  1
 Se  Se3  1  0.66777  0.33555  0.06257  1
 Se  Se4  1  0.33191  0.66382  0.18934  1
 W  W1  1  0.66861  0.33723  0.74610  1
