CIF file written using JARVIS-Tools package.
data_PbSeO3
_symmetry_space_group_name_H-M  'P2_1/c'
_cell_length_a       8.10407
_cell_length_b       8.84081
_cell_length_c       9.22255
_cell_angle_alpha    103.13
_cell_angle_beta     90
_cell_angle_gamma    90

_symmetry_Int_Tables_number  14
_chemical_formula_structural  PbSeO3
_chemical_formula_sum  Pb8Se8O24
_cell_volume  643.4892234813158
_cell_formula_units_Z  8
loop_
  _symmetry_equiv_pos_site_id
 _symmetry_equiv_pos_as_xyz
 1  'x, y, z'
loop_
 _atom_site_type_symbol
 _atom_site_label
 _atom_site_symmetry_multiplicity
 _atom_site_fract_x
 _atom_site_fract_y
 _atom_site_fract_z
 _atom_site_fract_occupancy
 O  O1  1  0.18056  0.37578  0.86854  1
 O  O2  1  0.44910  0.14479  0.84224  1
 O  O3  1  0.39083  0.53379  0.65975  1
 O  O4  1  0.55090  0.85521  0.15776  1
 O  O5  1  0.34271  0.64021  0.34033  1
 O  O6  1  0.94910  0.35521  0.15776  1
 O  O7  1  0.10917  0.03379  0.65975  1
 O  O8  1  0.11834  0.87616  0.12946  1
 O  O9  1  0.88166  0.12384  0.87054  1
 O  O10  1  0.94970  0.60427  0.38944  1
 O  O11  1  0.89083  0.96621  0.34025  1
 O  O12  1  0.05090  0.64479  0.84224  1
 O  O13  1  0.05030  0.39573  0.61056  1
 O  O14  1  0.15729  0.14021  0.34033  1
 O  O15  1  0.44970  0.89573  0.61056  1
 O  O16  1  0.81944  0.62422  0.13146  1
 O  O17  1  0.65729  0.35979  0.65967  1
 O  O18  1  0.61834  0.62384  0.87054  1
 O  O19  1  0.31944  0.87578  0.86854  1
 O  O20  1  0.38166  0.37616  0.12946  1
 O  O21  1  0.68056  0.12422  0.13146  1
 O  O22  1  0.55030  0.10427  0.38944  1
 O  O23  1  0.84271  0.85979  0.65967  1
 O  O24  1  0.60917  0.46621  0.34025  1
 Pb  Pb1  1  0.16626  0.17303  0.00737  1
 Pb  Pb2  1  0.66626  0.32697  0.99263  1
 Pb  Pb3  1  0.83374  0.82697  0.99263  1
 Pb  Pb4  1  0.67491  0.77133  0.39569  1
 Pb  Pb5  1  0.32509  0.22867  0.60431  1
 Pb  Pb6  1  0.33374  0.67303  0.00737  1
 Pb  Pb7  1  0.82509  0.27133  0.39569  1
 Pb  Pb8  1  0.17491  0.72867  0.60431  1
 Se  Se1  1  0.89641  0.05111  0.67817  1
 Se  Se2  1  0.39641  0.44889  0.32183  1
 Se  Se3  1  0.00500  0.44635  0.79658  1
 Se  Se4  1  0.49500  0.94635  0.79658  1
 Se  Se5  1  0.10359  0.94889  0.32183  1
 Se  Se6  1  0.99500  0.55365  0.20342  1
 Se  Se7  1  0.60359  0.55111  0.67817  1
 Se  Se8  1  0.50500  0.05365  0.20342  1
