CIF file written using JARVIS-Tools package.
data_Ca2GeO4
_symmetry_space_group_name_H-M  'Pnma'
_cell_length_a       5.29038
_cell_length_b       6.80588
_cell_length_c       11.4245
_cell_angle_alpha    90
_cell_angle_beta     90
_cell_angle_gamma    90

_symmetry_Int_Tables_number  62
_chemical_formula_structural  Ca2GeO4
_chemical_formula_sum  Ca8Ge4O6
_cell_volume  411.34560343434174
_cell_formula_units_Z  4
loop_
  _symmetry_equiv_pos_site_id
 _symmetry_equiv_pos_as_xyz
 1  'x, y, z'
loop_
 _atom_site_type_symbol
 _atom_site_label
 _atom_site_symmetry_multiplicity
 _atom_site_fract_x
 _atom_site_fract_y
 _atom_site_fract_z
 _atom_site_fract_occupancy
 Ca  Ca1  1  0.00863  0.75000  0.72036  1
 Ca  Ca2  1  0.99137  0.25000  0.27964  1
 Ca  Ca3  1  0.50863  0.25000  0.77964  1
 Ca  Ca4  1  0.49137  0.75000  0.22036  1
 Ca  Ca5  1  0.50000  0.50000  0.50000  1
 Ca  Ca6  1  0.00000  0.00000  0.00000  1
 Ca  Ca7  1  0.00000  0.50000  0.00000  1
 Ca  Ca8  1  0.50000  0.00000  0.50000  1
 Ge  Ge1  1  0.43082  0.25000  0.09649  1
 Ge  Ge2  1  0.93082  0.75000  0.40351  1
 Ge  Ge3  1  0.56918  0.75000  0.90351  1
 Ge  Ge4  1  0.06918  0.25000  0.59649  1
 O  O1  1  0.78568  0.75000  0.54728  1
 O  O2  1  0.28103  0.04199  0.16442  1
 O  O3  1  0.71897  0.54199  0.83558  1
 O  O4  1  0.73479  0.25000  0.59268  1
 O  O5  1  0.71432  0.75000  0.04728  1
 O  O6  1  0.28103  0.45801  0.16442  1
 O  O7  1  0.78103  0.54199  0.33558  1
 O  O8  1  0.21897  0.04199  0.66442  1
 O  O9  1  0.78103  0.95801  0.33558  1
 O  O10  1  0.23479  0.75000  0.90732  1
 O  O11  1  0.21432  0.25000  0.45272  1
 O  O12  1  0.71897  0.95801  0.83558  1
 O  O13  1  0.21897  0.45801  0.66442  1
 O  O14  1  0.28568  0.25000  0.95272  1
 O  O15  1  0.26521  0.75000  0.40732  1
 O  O16  1  0.76521  0.25000  0.09268  1
