CIF file written using JARVIS-Tools package.
data_HgO2
_symmetry_space_group_name_H-M  'C2/m'
_cell_length_a       3.64657
_cell_length_b       3.64657
_cell_length_c       4.61717
_cell_angle_alpha    61.5965
_cell_angle_beta     118.403
_cell_angle_gamma    109.143

_symmetry_Int_Tables_number  12
_chemical_formula_structural  HgO2
_chemical_formula_sum  HgO2
_cell_volume  47.09287657537414
_cell_formula_units_Z  1
loop_
  _symmetry_equiv_pos_site_id
 _symmetry_equiv_pos_as_xyz
 1  'x, y, z'
loop_
 _atom_site_type_symbol
 _atom_site_label
 _atom_site_symmetry_multiplicity
 _atom_site_fract_x
 _atom_site_fract_y
 _atom_site_fract_z
 _atom_site_fract_occupancy
 Hg  Hg1  1  0.00000  0.00000  0.00000  1
 O  O1  1  0.55563  0.44437  0.69093  1
 O  O2  1  0.44437  0.55563  0.30907  1
