CIF file written using JARVIS-Tools package.
data_NaAl11O17
_symmetry_space_group_name_H-M  'R3m'
_cell_length_a       5.64936
_cell_length_b       11.8377
_cell_length_c       5.64936
_cell_angle_alpha    103.805
_cell_angle_beta     60
_cell_angle_gamma    103.805

_symmetry_Int_Tables_number  160
_chemical_formula_structural  NaAl11O17
_chemical_formula_sum  NaAlO7
_cell_volume  314.5230291259984
_cell_formula_units_Z  1
loop_
  _symmetry_equiv_pos_site_id
 _symmetry_equiv_pos_as_xyz
 1  'x, y, z'
loop_
 _atom_site_type_symbol
 _atom_site_label
 _atom_site_symmetry_multiplicity
 _atom_site_fract_x
 _atom_site_fract_y
 _atom_site_fract_z
 _atom_site_fract_occupancy
 Al  Al1  1  0.99994  0.99981  0.99994  1
 Al  Al2  1  0.90365  0.21274  0.90365  1
 Al  Al3  1  0.90365  0.21274  0.40543  1
 Al  Al4  1  0.64934  0.94801  0.64934  1
 Al  Al5  1  0.34986  0.04957  0.34986  1
 Al  Al6  1  0.55012  0.65036  0.55012  1
 Al  Al7  1  0.40543  0.21274  0.90365  1
 Al  Al8  1  0.59251  0.78599  0.09674  1
 Al  Al9  1  0.09674  0.78599  0.59251  1
 Al  Al10  1  0.45047  0.35140  0.45047  1
 Al  Al11  1  0.09674  0.78599  0.09674  1
 Na  Na1  1  0.82574  0.47723  0.82574  1
 O  O1  1  0.29674  0.89023  0.29674  1
 O  O2  1  0.09430  0.28290  0.09430  1
 O  O3  1  0.70333  0.10999  0.70333  1
 O  O4  1  0.19055  0.10037  0.19055  1
 O  O5  1  0.09009  0.29219  0.60105  1
 O  O6  1  0.40316  0.71218  0.40316  1
 O  O7  1  0.60105  0.29219  0.09009  1
 O  O8  1  0.81101  0.90052  0.81101  1
 O  O9  1  0.19055  0.10037  0.71926  1
 O  O10  1  0.40316  0.71218  0.90586  1
 O  O11  1  0.60105  0.29219  0.60105  1
 O  O12  1  0.90586  0.71218  0.40316  1
 O  O13  1  0.50022  0.50066  0.50022  1
 O  O14  1  0.71926  0.10037  0.19055  1
 O  O15  1  0.81101  0.90052  0.27851  1
 O  O16  1  0.27851  0.90052  0.81101  1
 O  O17  1  0.90428  0.71285  0.90428  1
