CIF file written using JARVIS-Tools package.
data_Li3PO4
_symmetry_space_group_name_H-M  'Pmn2_1'
_cell_length_a       4.8501
_cell_length_b       5.22721
_cell_length_c       6.09528
_cell_angle_alpha    90
_cell_angle_beta     90
_cell_angle_gamma    90

_symmetry_Int_Tables_number  31
_chemical_formula_structural  Li3PO4
_chemical_formula_sum  Li6P2O8
_cell_volume  154.5302827791515
_cell_formula_units_Z  2
loop_
  _symmetry_equiv_pos_site_id
 _symmetry_equiv_pos_as_xyz
 1  'x, y, z'
loop_
 _atom_site_type_symbol
 _atom_site_label
 _atom_site_symmetry_multiplicity
 _atom_site_fract_x
 _atom_site_fract_y
 _atom_site_fract_z
 _atom_site_fract_occupancy
 Li  Li1  1  0.50960  0.84082  0.00000  1
 Li  Li2  1  0.00960  0.15918  0.50000  1
 Li  Li3  1  0.50877  0.32779  0.25266  1
 Li  Li4  1  0.00877  0.67221  0.24734  1
 Li  Li5  1  0.00877  0.67221  0.75266  1
 Li  Li6  1  0.50877  0.32779  0.74734  1
 O  O1  1  0.10792  0.31396  0.79066  1
 O  O2  1  0.60368  0.10774  0.50000  1
 O  O3  1  0.18095  0.82030  0.50000  1
 O  O4  1  0.68095  0.17970  0.00000  1
 O  O5  1  0.60792  0.68604  0.29066  1
 O  O6  1  0.10792  0.31396  0.20934  1
 O  O7  1  0.10368  0.89226  0.00000  1
 O  O8  1  0.60792  0.68604  0.70934  1
 P  P1  1  0.50129  0.82563  0.50000  1
 P  P2  1  0.00129  0.17437  0.00000  1
