CIF file written using JARVIS-Tools package.
data_Mn3O5F
_symmetry_space_group_name_H-M  'Cm'
_cell_length_a       7.11561
_cell_length_b       5.36444
_cell_length_c       5.36444
_cell_angle_alpha    71.221
_cell_angle_beta     70.6573
_cell_angle_gamma    70.6573

_symmetry_Int_Tables_number  8
_chemical_formula_structural  Mn3O5F
_chemical_formula_sum  Mn6O0F2
_cell_volume  177.0481633755415
_cell_formula_units_Z  2
loop_
  _symmetry_equiv_pos_site_id
 _symmetry_equiv_pos_as_xyz
 1  'x, y, z'
loop_
 _atom_site_type_symbol
 _atom_site_label
 _atom_site_symmetry_multiplicity
 _atom_site_fract_x
 _atom_site_fract_y
 _atom_site_fract_z
 _atom_site_fract_occupancy
 F  F1  1  0.62851  0.56960  0.56960  1
 F  F2  1  0.29991  0.89489  0.89489  1
 Mn  Mn1  1  0.99195  0.00421  0.00421  1
 Mn  Mn2  1  0.50912  0.00650  0.00650  1
 Mn  Mn3  1  0.84690  0.67370  0.67370  1
 Mn  Mn4  1  0.31941  0.65553  0.65553  1
 Mn  Mn5  1  0.66602  0.32924  0.32924  1
 Mn  Mn6  1  0.16501  0.33038  0.33038  1
 O  O1  1  -0.00147  0.69509  0.30470  1
 O  O2  1  -0.00147  0.30470  0.69509  1
 O  O3  1  0.33352  0.96587  0.36371  1
 O  O4  1  0.36757  0.43520  0.43520  1
 O  O5  1  0.96099  0.22984  0.22984  1
 O  O6  1  0.70266  0.10447  0.10447  1
 O  O7  1  0.33352  0.36371  0.96587  1
 O  O8  1  0.66791  0.03083  0.64034  1
 O  O9  1  0.04204  0.76589  0.76589  1
 O  O10  1  0.66791  0.64034  0.03083  1
