CIF file written using JARVIS-Tools package.
data_FeOF
_symmetry_space_group_name_H-M  'Pm'
_cell_length_a       4.63727
_cell_length_b       2.87972
_cell_length_c       9.22617
_cell_angle_alpha    90
_cell_angle_beta     93.9457
_cell_angle_gamma    90

_symmetry_Int_Tables_number  6
_chemical_formula_structural  FeOF
_chemical_formula_sum  Fe4O4F4
_cell_volume  122.91444550123472
_cell_formula_units_Z  4
loop_
  _symmetry_equiv_pos_site_id
 _symmetry_equiv_pos_as_xyz
 1  'x, y, z'
loop_
 _atom_site_type_symbol
 _atom_site_label
 _atom_site_symmetry_multiplicity
 _atom_site_fract_x
 _atom_site_fract_y
 _atom_site_fract_z
 _atom_site_fract_occupancy
 F  F1  1  0.82776  0.50000  0.58644  1
 F  F2  1  0.31299  0.00000  0.16030  1
 F  F3  1  0.17313  0.50000  0.90939  1
 F  F4  1  0.21582  0.50000  0.39741  1
 Fe  Fe1  1  0.94279  0.00000  0.00714  1
 Fe  Fe2  1  0.01557  0.00000  0.49252  1
 Fe  Fe3  1  0.47395  0.50000  0.74444  1
 Fe  Fe4  1  0.55469  0.50000  0.25665  1
 O  O1  1  0.78723  0.50000  0.11066  1
 O  O2  1  0.66943  0.00000  0.84449  1
 O  O3  1  0.72548  0.00000  0.35010  1
 O  O4  1  0.30117  0.00000  0.64046  1
