CIF file written using JARVIS-Tools package.
data_BaCO3
_symmetry_space_group_name_H-M  'P2_1/m'
_cell_length_a       4.56276
_cell_length_b       5.35766
_cell_length_c       6.93224
_cell_angle_alpha    90
_cell_angle_beta     111.761
_cell_angle_gamma    90

_symmetry_Int_Tables_number  11
_chemical_formula_structural  BaCO3
_chemical_formula_sum  Ba2C2O6
_cell_volume  157.38719112504992
_cell_formula_units_Z  2
loop_
  _symmetry_equiv_pos_site_id
 _symmetry_equiv_pos_as_xyz
 1  'x, y, z'
loop_
 _atom_site_type_symbol
 _atom_site_label
 _atom_site_symmetry_multiplicity
 _atom_site_fract_x
 _atom_site_fract_y
 _atom_site_fract_z
 _atom_site_fract_occupancy
 Ba  Ba1  1  0.34371  0.23120  0.23142  1
 Ba  Ba2  1  0.65629  0.73120  0.76858  1
 C  C1  1  0.75380  0.73120  0.24567  1
 C  C2  1  0.24620  0.23120  0.75433  1
 O  O1  1  0.82741  0.94099  0.18159  1
 O  O2  1  0.82741  0.52144  0.18155  1
 O  O3  1  0.58817  0.73118  0.36342  1
 O  O4  1  0.41183  0.23118  0.63658  1
 O  O5  1  0.17259  0.44099  0.81841  1
 O  O6  1  0.17259  0.02144  0.81845  1
