CIF file written using JARVIS-Tools package.
data_MoWSeS3
_symmetry_space_group_name_H-M  'P3m1'
_cell_length_a       3.22359
_cell_length_b       3.22359
_cell_length_c       33.8142
_cell_angle_alpha    90.0092
_cell_angle_beta     90
_cell_angle_gamma    120

_symmetry_Int_Tables_number  156
_chemical_formula_structural  MoWSeS3
_chemical_formula_sum  Mo2W2Se2S6
_cell_volume  304.30427824625207
_cell_formula_units_Z  2
loop_
  _symmetry_equiv_pos_site_id
 _symmetry_equiv_pos_as_xyz
 1  'x, y, z'
loop_
 _atom_site_type_symbol
 _atom_site_label
 _atom_site_symmetry_multiplicity
 _atom_site_fract_x
 _atom_site_fract_y
 _atom_site_fract_z
 _atom_site_fract_occupancy
 Mo  Mo1  1  0.33343  0.66686  0.46919  1
 Mo  Mo2  1  0.66648  0.33297  0.27872  1
 S  S1  1  0.33321  0.66641  0.32476  1
 S  S2  1  0.33373  0.66747  0.70667  1
 S  S3  1  0.66636  0.33271  0.04833  1
 S  S4  1  0.66646  0.33292  0.14085  1
 S  S5  1  0.33310  0.66619  0.23270  1
 S  S6  1  0.33362  0.66725  0.61414  1
 Se  Se1  1  0.66671  0.33342  0.41860  1
 Se  Se2  1  0.66681  0.33362  0.51978  1
 W  W1  1  0.33308  0.66616  0.09457  1
 W  W2  1  0.66701  0.33402  0.66043  1
