CIF file written using JARVIS-Tools package.
data_US2
_symmetry_space_group_name_H-M  'I422'
_cell_length_a       5.24169
_cell_length_b       7.94341
_cell_length_c       7.94341
_cell_angle_alpha    83.7492
_cell_angle_beta     70.735
_cell_angle_gamma    70.7351

_symmetry_Int_Tables_number  97
_chemical_formula_structural  US2
_chemical_formula_sum  U5S0
_cell_volume  294.7353762510093
_cell_formula_units_Z  5
loop_
  _symmetry_equiv_pos_site_id
 _symmetry_equiv_pos_as_xyz
 1  'x, y, z'
loop_
 _atom_site_type_symbol
 _atom_site_label
 _atom_site_symmetry_multiplicity
 _atom_site_fract_x
 _atom_site_fract_y
 _atom_site_fract_z
 _atom_site_fract_occupancy
 S  S1  1  0.07909  0.13691  0.70018  1
 S  S2  1  0.28401  0.13694  0.29987  1
 S  S3  1  0.25000  0.50000  0.50000  1
 S  S4  1  0.21599  0.70013  0.86306  1
 S  S5  1  0.42091  0.29982  0.86309  1
 S  S6  1  0.58382  0.70018  0.13691  1
 S  S7  1  0.77921  0.29986  0.13693  1
 S  S8  1  0.75000  0.50000  0.50000  1
 S  S9  1  0.72079  0.86307  0.70014  1
 S  S10  1  0.91618  0.86309  0.29982  1
 U  U1  1  0.16184  0.50001  0.17629  1
 U  U2  1  0.75000  0.00000  -0.00000  1
 U  U3  1  0.33816  0.82371  0.49999  1
 U  U4  1  0.66187  0.17629  0.50000  1
 U  U5  1  0.83813  0.50000  0.82371  1
