CIF file written using JARVIS-Tools package.
data_CrN2
_symmetry_space_group_name_H-M  'P2'
_cell_length_a       4.58078
_cell_length_b       4.56746
_cell_length_c       8.12722
_cell_angle_alpha    90
_cell_angle_beta     96.2317
_cell_angle_gamma    90

_symmetry_Int_Tables_number  3
_chemical_formula_structural  CrN2
_chemical_formula_sum  Cr4N8
_cell_volume  169.03734646534247
_cell_formula_units_Z  4
loop_
  _symmetry_equiv_pos_site_id
 _symmetry_equiv_pos_as_xyz
 1  'x, y, z'
loop_
 _atom_site_type_symbol
 _atom_site_label
 _atom_site_symmetry_multiplicity
 _atom_site_fract_x
 _atom_site_fract_y
 _atom_site_fract_z
 _atom_site_fract_occupancy
 Cr  Cr1  1  0.16996  0.01653  0.68116  1
 Cr  Cr2  1  0.83004  0.01653  0.31884  1
 Cr  Cr3  1  0.40587  0.41905  0.18923  1
 Cr  Cr4  1  0.59413  0.41905  0.81077  1
 N  N1  1  0.07927  0.24551  0.21436  1
 N  N2  1  0.92073  0.24551  0.78564  1
 N  N3  1  0.50000  0.30102  0.00000  1
 N  N4  1  0.39209  0.27293  0.62383  1
 N  N5  1  0.60791  0.27293  0.37617  1
 N  N6  1  -0.00000  0.86308  0.50000  1
 N  N7  1  0.57229  0.76077  0.21753  1
 N  N8  1  0.42771  0.76077  0.78247  1
