CIF file written using JARVIS-Tools package.
data_NbTeCl9
_symmetry_space_group_name_H-M  'P-1'
_cell_length_a       6.31487
_cell_length_b       9.25039
_cell_length_c       11.2022
_cell_angle_alpha    106.291
_cell_angle_beta     106.591
_cell_angle_gamma    90.6691

_symmetry_Int_Tables_number  2
_chemical_formula_structural  NbTeCl9
_chemical_formula_sum  Nb2Te2Cl8
_cell_volume  598.9523609100687
_cell_formula_units_Z  2
loop_
  _symmetry_equiv_pos_site_id
 _symmetry_equiv_pos_as_xyz
 1  'x, y, z'
loop_
 _atom_site_type_symbol
 _atom_site_label
 _atom_site_symmetry_multiplicity
 _atom_site_fract_x
 _atom_site_fract_y
 _atom_site_fract_z
 _atom_site_fract_occupancy
 Cl  Cl1  1  0.97277  0.03589  0.72122  1
 Cl  Cl2  1  0.47963  0.09714  0.16536  1
 Cl  Cl3  1  0.52037  0.90286  0.83464  1
 Cl  Cl4  1  0.28092  0.36047  0.38124  1
 Cl  Cl5  1  0.71908  0.63953  0.61876  1
 Cl  Cl6  1  0.15015  0.75462  0.49042  1
 Cl  Cl7  1  0.84985  0.24538  0.50958  1
 Cl  Cl8  1  0.05747  0.80493  0.93779  1
 Cl  Cl9  1  0.74654  0.49061  0.29461  1
 Cl  Cl10  1  0.02723  0.96411  0.27878  1
 Cl  Cl11  1  0.94253  0.19507  0.06221  1
 Cl  Cl12  1  0.12202  0.60711  0.17044  1
 Cl  Cl13  1  0.87798  0.39289  0.82956  1
 Cl  Cl14  1  0.60026  0.69732  0.08252  1
 Cl  Cl15  1  0.39974  0.30268  0.91748  1
 Cl  Cl16  1  0.62132  0.85687  0.39271  1
 Cl  Cl17  1  0.37868  0.14313  0.60729  1
 Cl  Cl18  1  0.25346  0.50939  0.70539  1
 Nb  Nb1  1  0.88121  0.74425  0.29760  1
 Nb  Nb2  1  0.11879  0.25575  0.70240  1
 Te  Te1  1  0.69862  0.67746  0.83187  1
 Te  Te2  1  0.30138  0.32254  0.16813  1
