CIF file written using JARVIS-Tools package.
data_Mo2WSe4S2
_symmetry_space_group_name_H-M  'P3m1'
_cell_length_a       3.27836
_cell_length_b       3.27836
_cell_length_c       28.3288
_cell_angle_alpha    90.0003
_cell_angle_beta     90
_cell_angle_gamma    120

_symmetry_Int_Tables_number  156
_chemical_formula_structural  Mo2WSe4S2
_chemical_formula_sum  Mo2WSe4S2
_cell_volume  263.67689979496987
_cell_formula_units_Z  1
loop_
  _symmetry_equiv_pos_site_id
 _symmetry_equiv_pos_as_xyz
 1  'x, y, z'
loop_
 _atom_site_type_symbol
 _atom_site_label
 _atom_site_symmetry_multiplicity
 _atom_site_fract_x
 _atom_site_fract_y
 _atom_site_fract_z
 _atom_site_fract_occupancy
 Mo  Mo1  1  0.33331  0.66661  0.11541  1
 Mo  Mo2  1  0.66667  0.33335  0.34954  1
 S  S1  1  0.66666  0.33332  0.52139  1
 S  S2  1  0.66667  0.33333  0.63055  1
 Se  Se1  1  0.33334  0.66669  0.40920  1
 Se  Se2  1  0.66664  0.33328  0.05580  1
 Se  Se3  1  0.66664  0.33328  0.17511  1
 Se  Se4  1  0.33334  0.66667  0.28985  1
 W  W1  1  0.33333  0.66666  0.57600  1
