CIF file written using JARVIS-Tools package.
data_YbCu2
_symmetry_space_group_name_H-M  'Imma'
_cell_length_a       4.22455
_cell_length_b       5.37942
_cell_length_c       5.37942
_cell_angle_alpha    77.5612
_cell_angle_beta     66.88
_cell_angle_gamma    66.8799

_symmetry_Int_Tables_number  74
_chemical_formula_structural  YbCu2
_chemical_formula_sum  Yb2Cu4
_cell_volume  103.13092167998188
_cell_formula_units_Z  2
loop_
  _symmetry_equiv_pos_site_id
 _symmetry_equiv_pos_as_xyz
 1  'x, y, z'
loop_
 _atom_site_type_symbol
 _atom_site_label
 _atom_site_symmetry_multiplicity
 _atom_site_fract_x
 _atom_site_fract_y
 _atom_site_fract_z
 _atom_site_fract_occupancy
 Cu  Cu1  1  0.16237  0.89237  0.78288  1
 Cu  Cu2  1  0.83763  0.10763  0.21712  1
 Cu  Cu3  1  0.83763  0.71712  0.60763  1
 Cu  Cu4  1  0.16237  0.28288  0.39237  1
 Yb  Yb1  1  0.54417  0.70583  0.20583  1
 Yb  Yb2  1  0.45583  0.29417  0.79417  1
