CIF file written using JARVIS-Tools package.
data_GaSb
_symmetry_space_group_name_H-M  'P6_3mc'
_cell_length_a       4.36351
_cell_length_b       4.36339
_cell_length_c       7.20506
_cell_angle_alpha    90
_cell_angle_beta     90
_cell_angle_gamma    120.001

_symmetry_Int_Tables_number  186
_chemical_formula_structural  GaSb
_chemical_formula_sum  Ga2Sb2
_cell_volume  118.80196208336801
_cell_formula_units_Z  2
loop_
  _symmetry_equiv_pos_site_id
 _symmetry_equiv_pos_as_xyz
 1  'x, y, z'
loop_
 _atom_site_type_symbol
 _atom_site_label
 _atom_site_symmetry_multiplicity
 _atom_site_fract_x
 _atom_site_fract_y
 _atom_site_fract_z
 _atom_site_fract_occupancy
 Ga  Ga1  1  0.66667  0.33335  0.50059  1
 Ga  Ga2  1  0.33333  0.66665  0.00059  1
 Sb  Sb1  1  0.66666  0.33333  0.87431  1
 Sb  Sb2  1  0.33334  0.66667  0.37431  1
