CIF file written using JARVIS-Tools package.
data_Al3CrO6
_symmetry_space_group_name_H-M  'Pc'
_cell_length_a       5.22223
_cell_length_b       4.85853
_cell_length_c       7.14391
_cell_angle_alpha    90
_cell_angle_beta     95.6613
_cell_angle_gamma    90

_symmetry_Int_Tables_number  7
_chemical_formula_structural  Al3CrO6
_chemical_formula_sum  Al6Cr2O2
_cell_volume  180.3739177447043
_cell_formula_units_Z  2
loop_
  _symmetry_equiv_pos_site_id
 _symmetry_equiv_pos_as_xyz
 1  'x, y, z'
loop_
 _atom_site_type_symbol
 _atom_site_label
 _atom_site_symmetry_multiplicity
 _atom_site_fract_x
 _atom_site_fract_y
 _atom_site_fract_z
 _atom_site_fract_occupancy
 Al  Al1  1  0.29459  0.99822  0.85303  1
 Al  Al2  1  0.80004  0.49793  0.85013  1
 Al  Al3  1  0.20506  0.49766  0.64648  1
 Al  Al4  1  0.29459  0.00178  0.35303  1
 Al  Al5  1  0.80004  0.50207  0.35013  1
 Al  Al6  1  0.20506  0.50234  0.14648  1
 Cr  Cr1  1  0.69995  0.99802  0.64980  1
 Cr  Cr2  1  0.69995  0.00198  0.14980  1
 O  O1  1  0.64656  0.83631  0.89829  1
 O  O2  1  0.00952  0.80095  0.25512  1
 O  O3  1  0.15350  0.65627  0.90297  1
 O  O4  1  0.33927  0.84612  0.59488  1
 O  O5  1  0.85193  0.63872  0.59569  1
 O  O6  1  0.85193  0.36128  0.09569  1
 O  O7  1  0.49960  0.69032  0.25360  1
 O  O8  1  0.64656  0.16369  0.39829  1
 O  O9  1  0.49960  0.30968  0.75360  1
 O  O10  1  0.15350  0.34373  0.40297  1
 O  O11  1  0.00952  0.19905  0.75512  1
 O  O12  1  0.33927  0.15388  0.09488  1
