CIF file written using JARVIS-Tools package.
data_Er2InPd2
_symmetry_space_group_name_H-M  'P4/mbm'
_cell_length_a       7.69773
_cell_length_b       7.69773
_cell_length_c       3.62631
_cell_angle_alpha    90
_cell_angle_beta     90
_cell_angle_gamma    90

_symmetry_Int_Tables_number  127
_chemical_formula_structural  Er2InPd2
_chemical_formula_sum  Er4In2Pd4
_cell_volume  214.87690935515474
_cell_formula_units_Z  2
loop_
  _symmetry_equiv_pos_site_id
 _symmetry_equiv_pos_as_xyz
 1  'x, y, z'
loop_
 _atom_site_type_symbol
 _atom_site_label
 _atom_site_symmetry_multiplicity
 _atom_site_fract_x
 _atom_site_fract_y
 _atom_site_fract_z
 _atom_site_fract_occupancy
 Er  Er1  1  0.32820  0.82820  0.50000  1
 Er  Er2  1  0.82820  0.67180  0.50000  1
 Er  Er3  1  0.17180  0.32820  0.50000  1
 Er  Er4  1  0.67180  0.17180  0.50000  1
 In  In1  1  0.00000  0.00000  0.00000  1
 In  In2  1  0.50000  0.50000  0.00000  1
 Pd  Pd1  1  0.37131  0.12869  0.00000  1
 Pd  Pd2  1  0.87131  0.37131  0.00000  1
 Pd  Pd3  1  0.12869  0.62869  0.00000  1
 Pd  Pd4  1  0.62869  0.87131  0.00000  1
