CIF file written using JARVIS-Tools package.
data_Ca2Al2SiO7
_symmetry_space_group_name_H-M  'P-42_1m'
_cell_length_a       7.6665
_cell_length_b       7.6665
_cell_length_c       5.14597
_cell_angle_alpha    90
_cell_angle_beta     90
_cell_angle_gamma    90

_symmetry_Int_Tables_number  113
_chemical_formula_structural  Ca2Al2SiO7
_chemical_formula_sum  Ca4Al4Si2O4
_cell_volume  302.4556990117939
_cell_formula_units_Z  2
loop_
  _symmetry_equiv_pos_site_id
 _symmetry_equiv_pos_as_xyz
 1  'x, y, z'
loop_
 _atom_site_type_symbol
 _atom_site_label
 _atom_site_symmetry_multiplicity
 _atom_site_fract_x
 _atom_site_fract_y
 _atom_site_fract_z
 _atom_site_fract_occupancy
 Al  Al1  1  0.64455  0.14455  0.02644  1
 Al  Al2  1  0.35545  0.85545  0.02644  1
 Al  Al3  1  0.85545  0.64455  0.97356  1
 Al  Al4  1  0.14455  0.35545  0.97356  1
 Ca  Ca1  1  0.84462  0.34462  0.48506  1
 Ca  Ca2  1  0.15538  0.65538  0.48506  1
 Ca  Ca3  1  0.65538  0.84462  0.51494  1
 Ca  Ca4  1  0.34462  0.15538  0.51494  1
 O  O1  1  0.64518  0.14518  0.69011  1
 O  O2  1  0.90624  0.84916  0.82005  1
 O  O3  1  0.35482  0.85482  0.69011  1
 O  O4  1  0.34916  0.40624  0.82005  1
 O  O5  1  0.14518  0.35482  0.30989  1
 O  O6  1  0.40624  0.65084  0.17995  1
 O  O7  1  0.84916  0.09376  0.17995  1
 O  O8  1  0.09376  0.15084  0.82005  1
 O  O9  1  0.00000  0.50000  0.82119  1
 O  O10  1  0.15084  0.90624  0.17995  1
 O  O11  1  0.65084  0.59376  0.82005  1
 O  O12  1  0.85482  0.64518  0.30989  1
 O  O13  1  0.50000  0.00000  0.17881  1
 O  O14  1  0.59376  0.34916  0.17995  1
 Si  Si1  1  0.50000  0.50000  0.00000  1
 Si  Si2  1  0.00000  0.00000  0.00000  1
