CIF file written using JARVIS-Tools package.
data_HfZrO4
_symmetry_space_group_name_H-M  'P2_1/c'
_cell_length_a       5.85277
_cell_length_b       4.8696
_cell_length_c       5.85146
_cell_angle_alpha    90
_cell_angle_beta     112.526
_cell_angle_gamma    90

_symmetry_Int_Tables_number  14
_chemical_formula_structural  HfZrO4
_chemical_formula_sum  Hf2Zr2O8
_cell_volume  154.047128026571
_cell_formula_units_Z  2
loop_
  _symmetry_equiv_pos_site_id
 _symmetry_equiv_pos_as_xyz
 1  'x, y, z'
loop_
 _atom_site_type_symbol
 _atom_site_label
 _atom_site_symmetry_multiplicity
 _atom_site_fract_x
 _atom_site_fract_y
 _atom_site_fract_z
 _atom_site_fract_occupancy
 Hf  Hf1  1  0.00000  0.00000  0.00000  1
 Hf  Hf2  1  0.00000  0.50000  0.50000  1
 O  O1  1  0.15007  0.69688  0.84454  1
 O  O2  1  0.15007  0.80312  0.34454  1
 O  O3  1  0.34504  0.30784  0.64967  1
 O  O4  1  0.34504  0.19216  0.14967  1
 O  O5  1  0.65496  0.80784  0.85033  1
 O  O6  1  0.65496  0.69216  0.35033  1
 O  O7  1  0.84993  0.19688  0.65546  1
 O  O8  1  0.84993  0.30312  0.15546  1
 Zr  Zr1  1  0.50000  0.50000  -0.00000  1
 Zr  Zr2  1  0.50000  0.00000  0.50000  1
