CIF file written using JARVIS-Tools package.
data_Ba2Re6S11
_symmetry_space_group_name_H-M  'R-3c'
_cell_length_a       12.0412
_cell_length_b       12.0412
_cell_length_c       12.0412
_cell_angle_alpha    45.0799
_cell_angle_beta     45.0799
_cell_angle_gamma    45.0799

_symmetry_Int_Tables_number  167
_chemical_formula_structural  Ba2Re6S11
_chemical_formula_sum  Ba4Re2S22
_cell_volume  796.8658787655581
_cell_formula_units_Z  2
loop_
  _symmetry_equiv_pos_site_id
 _symmetry_equiv_pos_as_xyz
 1  'x, y, z'
loop_
 _atom_site_type_symbol
 _atom_site_label
 _atom_site_symmetry_multiplicity
 _atom_site_fract_x
 _atom_site_fract_y
 _atom_site_fract_z
 _atom_site_fract_occupancy
 Ba  Ba1  1  0.81195  0.81195  0.81195  1
 Ba  Ba2  1  0.68805  0.68805  0.68805  1
 Ba  Ba3  1  0.18805  0.18805  0.18805  1
 Ba  Ba4  1  0.31195  0.31195  0.31195  1
 Re  Re1  1  0.70859  0.51153  0.38129  1
 Re  Re2  1  0.29141  0.48847  0.61871  1
 Re  Re3  1  0.51153  0.38129  0.70859  1
 Re  Re4  1  0.88129  0.01153  0.20859  1
 Re  Re5  1  0.20859  0.88129  0.01153  1
 Re  Re6  1  0.98847  0.79141  0.11871  1
 Re  Re7  1  0.48847  0.61871  0.29141  1
 Re  Re8  1  0.11871  0.98847  0.79141  1
 Re  Re9  1  0.61871  0.29141  0.48847  1
 Re  Re10  1  0.79141  0.11871  0.98847  1
 Re  Re11  1  0.38129  0.70859  0.51153  1
 Re  Re12  1  0.01153  0.20859  0.88129  1
 S  S1  1  0.51571  0.25000  0.98429  1
 S  S2  1  0.29382  0.68738  0.92798  1
 S  S3  1  0.92798  0.29382  0.68738  1
 S  S4  1  0.68738  0.92798  0.29382  1
 S  S5  1  0.81262  0.20618  0.57202  1
 S  S6  1  0.57202  0.81262  0.20618  1
 S  S7  1  0.20618  0.57202  0.81262  1
 S  S8  1  0.98429  0.51571  0.25000  1
 S  S9  1  0.25000  0.98429  0.51571  1
 S  S10  1  0.01571  0.48429  0.75000  1
 S  S11  1  0.42798  0.18738  0.79382  1
 S  S12  1  0.48429  0.75000  0.01571  1
 S  S13  1  0.09090  0.09090  0.09090  1
 S  S14  1  0.40910  0.40910  0.40910  1
 S  S15  1  0.90910  0.90910  0.90910  1
 S  S16  1  0.70618  0.31262  0.07202  1
 S  S17  1  0.59090  0.59090  0.59090  1
 S  S18  1  0.07202  0.70618  0.31262  1
 S  S19  1  0.79382  0.42798  0.18738  1
 S  S20  1  0.18738  0.79382  0.42798  1
 S  S21  1  0.75000  0.01571  0.48429  1
 S  S22  1  0.31262  0.07202  0.70618  1
