CIF file written using JARVIS-Tools package.
data_Zn2Bi3O8
_symmetry_space_group_name_H-M  'P6_3mc'
_cell_length_a       6.80497
_cell_length_b       6.80497
_cell_length_c       9.42783
_cell_angle_alpha    90
_cell_angle_beta     90
_cell_angle_gamma    120

_symmetry_Int_Tables_number  186
_chemical_formula_structural  Zn2Bi3O8
_chemical_formula_sum  Zn4Bi6O6
_cell_volume  378.0894330361306
_cell_formula_units_Z  2
loop_
  _symmetry_equiv_pos_site_id
 _symmetry_equiv_pos_as_xyz
 1  'x, y, z'
loop_
 _atom_site_type_symbol
 _atom_site_label
 _atom_site_symmetry_multiplicity
 _atom_site_fract_x
 _atom_site_fract_y
 _atom_site_fract_z
 _atom_site_fract_occupancy
 Bi  Bi1  1  0.16548  0.33096  0.75758  1
 Bi  Bi2  1  0.83452  0.16548  0.25758  1
 Bi  Bi3  1  0.33096  0.16548  0.25758  1
 Bi  Bi4  1  0.83452  0.66904  0.25758  1
 Bi  Bi5  1  0.66904  0.83452  0.75758  1
 Bi  Bi6  1  0.16548  0.83452  0.75758  1
 O  O1  1  0.33333  0.66667  0.88757  1
 O  O2  1  0.82524  0.65047  0.86438  1
 O  O3  1  0.65047  0.82524  0.36438  1
 O  O4  1  0.48822  0.97644  0.61913  1
 O  O5  1  0.82524  0.17476  0.86438  1
 O  O6  1  0.34953  0.17476  0.86438  1
 O  O7  1  0.17476  0.34953  0.36438  1
 O  O8  1  0.17476  0.82524  0.36438  1
 O  O9  1  0.02356  0.51178  0.61913  1
 O  O10  1  0.66667  0.33333  0.38757  1
 O  O11  1  0.00000  0.00000  0.64020  1
 O  O12  1  0.00000  0.00000  0.14020  1
 O  O13  1  0.51178  0.02356  0.11913  1
 O  O14  1  0.97644  0.48822  0.11913  1
 O  O15  1  0.48822  0.51178  0.61913  1
 O  O16  1  0.51178  0.48822  0.11913  1
 Zn  Zn1  1  0.33333  0.66667  0.10036  1
 Zn  Zn2  1  0.66667  0.33333  0.60036  1
 Zn  Zn3  1  0.33333  0.66667  0.45509  1
 Zn  Zn4  1  0.66667  0.33333  0.95509  1
