CIF file written using JARVIS-Tools package.
data_Nb3TeI7
_symmetry_space_group_name_H-M  'P6_3mc'
_cell_length_a       7.70246
_cell_length_b       7.70246
_cell_length_c       13.9871
_cell_angle_alpha    90
_cell_angle_beta     90
_cell_angle_gamma    120

_symmetry_Int_Tables_number  186
_chemical_formula_structural  Nb3TeI7
_chemical_formula_sum  Nb6Te2I4
_cell_volume  718.6514573843583
_cell_formula_units_Z  2
loop_
  _symmetry_equiv_pos_site_id
 _symmetry_equiv_pos_as_xyz
 1  'x, y, z'
loop_
 _atom_site_type_symbol
 _atom_site_label
 _atom_site_symmetry_multiplicity
 _atom_site_fract_x
 _atom_site_fract_y
 _atom_site_fract_z
 _atom_site_fract_occupancy
 I  I1  1  0.99667  0.49833  0.63802  1
 I  I2  1  0.66667  0.33333  0.35654  1
 I  I3  1  0.33333  0.66667  0.85654  1
 I  I4  1  0.00333  0.50167  0.13802  1
 I  I5  1  0.33881  0.16940  0.88179  1
 I  I6  1  0.83060  0.66119  0.88179  1
 I  I7  1  0.16940  0.83060  0.38179  1
 I  I8  1  0.66119  0.83060  0.38179  1
 I  I9  1  0.83060  0.16940  0.88179  1
 I  I10  1  0.49833  0.50167  0.13802  1
 I  I11  1  0.50167  0.49833  0.63802  1
 I  I12  1  0.50167  0.00333  0.63802  1
 I  I13  1  0.49833  0.99667  0.13802  1
 I  I14  1  0.16940  0.33881  0.38179  1
 Nb  Nb1  1  0.13244  0.86756  0.74964  1
 Nb  Nb2  1  0.26488  0.13244  0.24964  1
 Nb  Nb3  1  0.86756  0.73512  0.24964  1
 Nb  Nb4  1  0.13244  0.26488  0.74964  1
 Nb  Nb5  1  0.73512  0.86756  0.74964  1
 Nb  Nb6  1  0.86756  0.13244  0.24964  1
 Te  Te1  1  0.00000  0.00000  0.60032  1
 Te  Te2  1  0.00000  0.00000  0.10032  1
