CIF file written using JARVIS-Tools package.
data_AlTc2
_symmetry_space_group_name_H-M  'I4/mmm'
_cell_length_a       2.98473
_cell_length_b       2.98473
_cell_length_c       5.23087
_cell_angle_alpha    106.577
_cell_angle_beta     106.577
_cell_angle_gamma    90

_symmetry_Int_Tables_number  139
_chemical_formula_structural  AlTc2
_chemical_formula_sum  AlTc2
_cell_volume  42.63841792009314
_cell_formula_units_Z  1
loop_
  _symmetry_equiv_pos_site_id
 _symmetry_equiv_pos_as_xyz
 1  'x, y, z'
loop_
 _atom_site_type_symbol
 _atom_site_label
 _atom_site_symmetry_multiplicity
 _atom_site_fract_x
 _atom_site_fract_y
 _atom_site_fract_z
 _atom_site_fract_occupancy
 Al  Al1  1  0.00000  0.00000  0.00000  1
 Tc  Tc1  1  0.66949  0.66949  0.33898  1
 Tc  Tc2  1  0.33051  0.33051  0.66102  1
