CIF file written using JARVIS-Tools package.
data_VO2F
_symmetry_space_group_name_H-M  'P-1'
_cell_length_a       4.97001
_cell_length_b       4.98197
_cell_length_c       8.95271
_cell_angle_alpha    76.154
_cell_angle_beta     75.5722
_cell_angle_gamma    62.047

_symmetry_Int_Tables_number  2
_chemical_formula_structural  VO2F
_chemical_formula_sum  V4O8F4
_cell_volume  187.68066570044323
_cell_formula_units_Z  4
loop_
  _symmetry_equiv_pos_site_id
 _symmetry_equiv_pos_as_xyz
 1  'x, y, z'
loop_
 _atom_site_type_symbol
 _atom_site_label
 _atom_site_symmetry_multiplicity
 _atom_site_fract_x
 _atom_site_fract_y
 _atom_site_fract_z
 _atom_site_fract_occupancy
 F  F1  1  0.27247  0.86902  0.37717  1
 F  F2  1  0.37263  0.98473  0.87231  1
 F  F3  1  0.62737  0.01527  0.12769  1
 F  F4  1  0.72753  0.13098  0.62283  1
 O  O1  1  0.22239  0.62169  0.12083  1
 O  O2  1  0.12692  0.51971  0.62726  1
 O  O3  1  0.04490  0.19515  0.12728  1
 O  O4  1  0.53049  0.71617  0.62392  1
 O  O5  1  0.46951  0.28383  0.37608  1
 O  O6  1  0.95510  0.80485  0.87272  1
 O  O7  1  0.87308  0.48029  0.37274  1
 O  O8  1  0.77761  0.37831  0.87917  1
 V  V1  1  0.00000  0.00000  0.00000  1
 V  V2  1  0.21249  0.31219  0.25030  1
 V  V3  1  0.50000  0.50000  0.50000  1
 V  V4  1  0.78751  0.68781  0.74970  1
