CIF file written using JARVIS-Tools package.
data_CeSe2
_symmetry_space_group_name_H-M  'I4/mmm'
_cell_length_a       3.82504
_cell_length_b       3.82504
_cell_length_c       5.43362
_cell_angle_alpha    110.608
_cell_angle_beta     110.608
_cell_angle_gamma    90

_symmetry_Int_Tables_number  139
_chemical_formula_structural  CeSe2
_chemical_formula_sum  CeSe2
_cell_volume  68.94971020650604
_cell_formula_units_Z  1
loop_
  _symmetry_equiv_pos_site_id
 _symmetry_equiv_pos_as_xyz
 1  'x, y, z'
loop_
 _atom_site_type_symbol
 _atom_site_label
 _atom_site_symmetry_multiplicity
 _atom_site_fract_x
 _atom_site_fract_y
 _atom_site_fract_z
 _atom_site_fract_occupancy
 Ce  Ce1  1  0.50000  0.50000  0.00000  1
 Se  Se1  1  0.84637  0.84637  0.69273  1
 Se  Se2  1  0.15363  0.15363  0.30727  1
