CIF file written using JARVIS-Tools package.
data_CdH2O2
_symmetry_space_group_name_H-M  'P-3m1'
_cell_length_a       3.55072
_cell_length_b       3.55073
_cell_length_c       4.6312
_cell_angle_alpha    90
_cell_angle_beta     90.0003
_cell_angle_gamma    120

_symmetry_Int_Tables_number  164
_chemical_formula_structural  CdH2O2
_chemical_formula_sum  CdH2O2
_cell_volume  50.56607888162393
_cell_formula_units_Z  1
loop_
  _symmetry_equiv_pos_site_id
 _symmetry_equiv_pos_as_xyz
 1  'x, y, z'
loop_
 _atom_site_type_symbol
 _atom_site_label
 _atom_site_symmetry_multiplicity
 _atom_site_fract_x
 _atom_site_fract_y
 _atom_site_fract_z
 _atom_site_fract_occupancy
 Cd  Cd1  1  0.00000  0.00000  0.00000  1
 H  H1  1  0.66666  0.33333  0.54737  1
 H  H2  1  0.33334  0.66667  0.45263  1
 O  O1  1  0.66666  0.33333  0.75869  1
 O  O2  1  0.33334  0.66667  0.24131  1
