CIF file written using JARVIS-Tools package.
data_Ti3Pd5
_symmetry_space_group_name_H-M  'P4/mmm'
_cell_length_a       3.29799
_cell_length_b       3.29799
_cell_length_c       11.477
_cell_angle_alpha    90
_cell_angle_beta     90
_cell_angle_gamma    90

_symmetry_Int_Tables_number  123
_chemical_formula_structural  Ti3Pd5
_chemical_formula_sum  Ti3Pd5
_cell_volume  124.83213839680218
_cell_formula_units_Z  1
loop_
  _symmetry_equiv_pos_site_id
 _symmetry_equiv_pos_as_xyz
 1  'x, y, z'
loop_
 _atom_site_type_symbol
 _atom_site_label
 _atom_site_symmetry_multiplicity
 _atom_site_fract_x
 _atom_site_fract_y
 _atom_site_fract_z
 _atom_site_fract_occupancy
 Pd  Pd1  1  0.00000  0.00000  0.24195  1
 Pd  Pd2  1  0.50000  0.50000  0.61943  1
 Pd  Pd3  1  0.50000  0.50000  0.38057  1
 Pd  Pd4  1  0.00000  0.00000  0.75805  1
 Pd  Pd5  1  0.00000  0.00000  0.00000  1
 Ti  Ti1  1  0.50000  0.50000  0.13668  1
 Ti  Ti2  1  0.50000  0.50000  0.86332  1
 Ti  Ti3  1  0.00000  0.00000  0.50000  1
