CIF file written using JARVIS-Tools package.
data_TePb
_symmetry_space_group_name_H-M  'P6_3mc'
_cell_length_a       4.53671
_cell_length_b       7.85829
_cell_length_c       7.9705
_cell_angle_alpha    90
_cell_angle_beta     90.0001
_cell_angle_gamma    90

_symmetry_Int_Tables_number  186
_chemical_formula_structural  TePb
_chemical_formula_sum  Te4Pb4
_cell_volume  284.1544235061805
_cell_formula_units_Z  4
loop_
  _symmetry_equiv_pos_site_id
 _symmetry_equiv_pos_as_xyz
 1  'x, y, z'
loop_
 _atom_site_type_symbol
 _atom_site_label
 _atom_site_symmetry_multiplicity
 _atom_site_fract_x
 _atom_site_fract_y
 _atom_site_fract_z
 _atom_site_fract_occupancy
 Pb  Pb1  1  0.74999  0.00012  0.00022  1
 Pb  Pb2  1  0.74999  -0.00012  0.50022  1
 Pb  Pb3  1  0.24999  0.50016  0.50044  1
 Pb  Pb4  1  0.24999  0.49984  0.00044  1
 Te  Te1  1  0.74999  0.66667  0.74985  1
 Te  Te2  1  0.74999  0.33333  0.24985  1
 Te  Te3  1  0.25001  0.16669  0.74946  1
 Te  Te4  1  0.25001  0.83331  0.24946  1
