CIF file written using JARVIS-Tools package.
data_Te7Mo6S5
_symmetry_space_group_name_H-M  'Cm'
_cell_length_a       3.41103
_cell_length_b       8.93595
_cell_length_c       14.3192
_cell_angle_alpha    100.648
_cell_angle_beta     96.8408
_cell_angle_gamma    78.9952

_symmetry_Int_Tables_number  8
_chemical_formula_structural  Te7Mo6S5
_chemical_formula_sum  Te7Mo6S5
_cell_volume  419.46264990046456
_cell_formula_units_Z  1
loop_
  _symmetry_equiv_pos_site_id
 _symmetry_equiv_pos_as_xyz
 1  'x, y, z'
loop_
 _atom_site_type_symbol
 _atom_site_label
 _atom_site_symmetry_multiplicity
 _atom_site_fract_x
 _atom_site_fract_y
 _atom_site_fract_z
 _atom_site_fract_occupancy
 Mo  Mo1  1  0.70048  0.34745  0.74838  1
 Mo  Mo2  1  0.35409  0.03511  0.74327  1
 Mo  Mo3  1  0.96816  0.31166  0.24801  1
 Mo  Mo4  1  0.03546  0.67860  0.74948  1
 Mo  Mo5  1  0.30834  0.63930  0.25600  1
 Mo  Mo6  1  0.62940  0.98543  0.24427  1
 S  S1  1  0.84681  0.15956  0.85317  1
 S  S2  1  0.56079  0.22876  0.35036  1
 S  S3  1  0.10731  0.43028  0.64488  1
 S  S4  1  0.76288  0.10875  0.63449  1
 S  S5  1  0.82055  0.50906  0.15017  1
 Te  Te1  1  0.19782  0.49173  0.88733  1
 Te  Te2  1  0.42740  0.76201  0.61680  1
 Te  Te3  1  0.14850  0.81986  0.11688  1
 Te  Te4  1  0.23286  0.91451  0.38025  1
 Te  Te5  1  0.51662  0.84401  0.87722  1
 Te  Te6  1  0.91576  0.56003  0.39156  1
 Te  Te7  1  0.46677  0.17389  0.10746  1
