CIF file written using JARVIS-Tools package.
data_SnSe
_symmetry_space_group_name_H-M  'Cmcm'
_cell_length_a       6.13043
_cell_length_b       3.94975
_cell_length_c       5.90022
_cell_angle_alpha    109.555
_cell_angle_beta     90
_cell_angle_gamma    90

_symmetry_Int_Tables_number  63
_chemical_formula_structural  SnSe
_chemical_formula_sum  Sn2Se2
_cell_volume  134.62531166144174
_cell_formula_units_Z  2
loop_
  _symmetry_equiv_pos_site_id
 _symmetry_equiv_pos_as_xyz
 1  'x, y, z'
loop_
 _atom_site_type_symbol
 _atom_site_label
 _atom_site_symmetry_multiplicity
 _atom_site_fract_x
 _atom_site_fract_y
 _atom_site_fract_z
 _atom_site_fract_occupancy
 Se  Se1  1  0.25000  0.16763  0.33527  1
 Se  Se2  1  0.75000  0.83237  0.66473  1
 Sn  Sn1  1  0.25000  0.84103  0.68207  1
 Sn  Sn2  1  0.75000  0.15897  0.31793  1
