CIF file written using JARVIS-Tools package.
data_HoCoSn
_symmetry_space_group_name_H-M  'Pnma'
_cell_length_a       4.56808
_cell_length_b       7.16535
_cell_length_c       7.29809
_cell_angle_alpha    90
_cell_angle_beta     90
_cell_angle_gamma    90

_symmetry_Int_Tables_number  62
_chemical_formula_structural  HoCoSn
_chemical_formula_sum  Ho4Co4Sn4
_cell_volume  238.88035495127752
_cell_formula_units_Z  4
loop_
  _symmetry_equiv_pos_site_id
 _symmetry_equiv_pos_as_xyz
 1  'x, y, z'
loop_
 _atom_site_type_symbol
 _atom_site_label
 _atom_site_symmetry_multiplicity
 _atom_site_fract_x
 _atom_site_fract_y
 _atom_site_fract_z
 _atom_site_fract_occupancy
 Co  Co1  1  0.75000  0.83552  0.56167  1
 Co  Co2  1  0.25000  0.16448  0.43833  1
 Co  Co3  1  0.75000  0.33552  0.93833  1
 Co  Co4  1  0.25000  0.66448  0.06167  1
 Ho  Ho1  1  0.25000  0.47757  0.70083  1
 Ho  Ho2  1  0.25000  0.97757  0.79917  1
 Ho  Ho3  1  0.75000  0.02243  0.20083  1
 Ho  Ho4  1  0.75000  0.52243  0.29917  1
 Sn  Sn1  1  0.75000  0.70153  0.89492  1
 Sn  Sn2  1  0.25000  0.79847  0.39492  1
 Sn  Sn3  1  0.25000  0.29847  0.10508  1
 Sn  Sn4  1  0.75000  0.20153  0.60508  1
