CIF file written using JARVIS-Tools package.
data_Ba4HoRu3O12
_symmetry_space_group_name_H-M  'R-3m'
_cell_length_a       10.3379
_cell_length_b       10.3379
_cell_length_c       10.338
_cell_angle_alpha    33.1815
_cell_angle_beta     33.1815
_cell_angle_gamma    33.1815

_symmetry_Int_Tables_number  166
_chemical_formula_structural  Ba4HoRu3O12
_chemical_formula_sum  Ba4HoRu3O2
_cell_volume  294.59028347111223
_cell_formula_units_Z  1
loop_
  _symmetry_equiv_pos_site_id
 _symmetry_equiv_pos_as_xyz
 1  'x, y, z'
loop_
 _atom_site_type_symbol
 _atom_site_label
 _atom_site_symmetry_multiplicity
 _atom_site_fract_x
 _atom_site_fract_y
 _atom_site_fract_z
 _atom_site_fract_occupancy
 Ba  Ba1  1  0.71413  0.71413  0.71413  1
 Ba  Ba2  1  0.28587  0.28587  0.28587  1
 Ba  Ba3  1  0.12926  0.12926  0.12926  1
 Ba  Ba4  1  0.87074  0.87074  0.87074  1
 Ho  Ho1  1  0.00000  0.00000  0.00000  1
 O  O1  1  0.21903  0.21903  0.69218  1
 O  O2  1  0.14683  0.61310  0.61310  1
 O  O3  1  0.85317  0.38690  0.38690  1
 O  O4  1  0.61310  0.61310  0.14683  1
 O  O5  1  0.61310  0.14683  0.61310  1
 O  O6  1  0.78097  0.78097  0.30782  1
 O  O7  1  0.78097  0.30782  0.78097  1
 O  O8  1  0.21903  0.69218  0.21903  1
 O  O9  1  0.38690  0.38690  0.85317  1
 O  O10  1  0.38690  0.85317  0.38690  1
 O  O11  1  0.69218  0.21903  0.21903  1
 O  O12  1  0.30782  0.78097  0.78097  1
 Ru  Ru1  1  0.58668  0.58668  0.58668  1
 Ru  Ru2  1  0.50000  0.50000  0.50000  1
 Ru  Ru3  1  0.41332  0.41332  0.41332  1
