CIF file written using JARVIS-Tools package.
data_TbGaPd
_symmetry_space_group_name_H-M  'Pnma'
_cell_length_a       4.46441
_cell_length_b       6.93345
_cell_length_c       7.66234
_cell_angle_alpha    90
_cell_angle_beta     90
_cell_angle_gamma    90

_symmetry_Int_Tables_number  62
_chemical_formula_structural  TbGaPd
_chemical_formula_sum  Tb4Ga4Pd4
_cell_volume  237.17835570787724
_cell_formula_units_Z  4
loop_
  _symmetry_equiv_pos_site_id
 _symmetry_equiv_pos_as_xyz
 1  'x, y, z'
loop_
 _atom_site_type_symbol
 _atom_site_label
 _atom_site_symmetry_multiplicity
 _atom_site_fract_x
 _atom_site_fract_y
 _atom_site_fract_z
 _atom_site_fract_occupancy
 Ga  Ga1  1  0.25000  0.82083  0.92225  1
 Ga  Ga2  1  0.75000  0.17917  0.07775  1
 Ga  Ga3  1  0.25000  0.32083  0.57775  1
 Ga  Ga4  1  0.75000  0.67917  0.42225  1
 Pd  Pd1  1  0.75000  0.78076  0.09417  1
 Pd  Pd2  1  0.25000  0.21924  0.90583  1
 Pd  Pd3  1  0.75000  0.28076  0.40583  1
 Pd  Pd4  1  0.25000  0.71924  0.59417  1
 Tb  Tb1  1  0.25000  0.48393  0.20064  1
 Tb  Tb2  1  0.75000  0.51607  0.79936  1
 Tb  Tb3  1  0.25000  0.98393  0.29936  1
 Tb  Tb4  1  0.75000  0.01607  0.70064  1
