CIF file written using JARVIS-Tools package.
data_CaBiAu
_symmetry_space_group_name_H-M  'P6_3mc'
_cell_length_a       4.84002
_cell_length_b       4.84002
_cell_length_c       7.87099
_cell_angle_alpha    90
_cell_angle_beta     90
_cell_angle_gamma    120

_symmetry_Int_Tables_number  186
_chemical_formula_structural  CaBiAu
_chemical_formula_sum  Ca2Bi2Au2
_cell_volume  159.681386470698
_cell_formula_units_Z  2
loop_
  _symmetry_equiv_pos_site_id
 _symmetry_equiv_pos_as_xyz
 1  'x, y, z'
loop_
 _atom_site_type_symbol
 _atom_site_label
 _atom_site_symmetry_multiplicity
 _atom_site_fract_x
 _atom_site_fract_y
 _atom_site_fract_z
 _atom_site_fract_occupancy
 Au  Au1  1  0.66667  0.33333  0.81287  1
 Au  Au2  1  0.33333  0.66667  0.31287  1
 Bi  Bi1  1  0.66667  0.33333  0.20487  1
 Bi  Bi2  1  0.33333  0.66667  0.70487  1
 Ca  Ca1  1  0.00000  0.00000  0.48226  1
 Ca  Ca2  1  0.00000  0.00000  0.98226  1
