CIF file written using JARVIS-Tools package.
data_Nb2ReO8
_symmetry_space_group_name_H-M  'P-1'
_cell_length_a       5.18013
_cell_length_b       5.87648
_cell_length_c       10.0324
_cell_angle_alpha    106.906
_cell_angle_beta     89.9662
_cell_angle_gamma    90.0546

_symmetry_Int_Tables_number  2
_chemical_formula_structural  Nb2ReO8
_chemical_formula_sum  Nb4Re2O6
_cell_volume  292.19615955396614
_cell_formula_units_Z  2
loop_
  _symmetry_equiv_pos_site_id
 _symmetry_equiv_pos_as_xyz
 1  'x, y, z'
loop_
 _atom_site_type_symbol
 _atom_site_label
 _atom_site_symmetry_multiplicity
 _atom_site_fract_x
 _atom_site_fract_y
 _atom_site_fract_z
 _atom_site_fract_occupancy
 Nb  Nb1  1  0.75847  0.32529  0.27843  1
 Nb  Nb2  1  0.74252  0.04704  0.71977  1
 Nb  Nb3  1  0.24233  0.67574  0.71995  1
 Nb  Nb4  1  0.25828  0.95399  0.27861  1
 O  O1  1  0.09121  0.22311  0.12366  1
 O  O2  1  0.41041  0.09819  0.87457  1
 O  O3  1  0.90959  0.77793  0.87472  1
 O  O4  1  0.59040  0.90283  0.12381  1
 O  O5  1  0.92579  0.07633  0.34211  1
 O  O6  1  0.92152  0.32879  0.89396  1
 O  O7  1  0.58105  0.43309  0.10333  1
 O  O8  1  0.07928  0.67224  0.10441  1
 O  O9  1  0.07502  0.92470  0.65626  1
 O  O10  1  0.41975  0.56794  0.89505  1
 O  O11  1  0.38080  0.78869  0.38229  1
 O  O12  1  0.12020  0.40701  0.61638  1
 O  O13  1  0.61999  0.21234  0.61608  1
 O  O14  1  0.88060  0.59402  0.38199  1
 O  O15  1  0.42568  0.26654  0.34183  1
 O  O16  1  0.57512  0.73448  0.65655  1
 Re  Re1  1  0.25004  0.34145  0.99857  1
 Re  Re2  1  0.75077  0.65957  0.99980  1
