CIF file written using JARVIS-Tools package.
data_Te4Mo2WSe2
_symmetry_space_group_name_H-M  'Amm2'
_cell_length_a       3.48535
_cell_length_b       3.48152
_cell_length_c       25.7262
_cell_angle_alpha    90
_cell_angle_beta     90
_cell_angle_gamma    120.037

_symmetry_Int_Tables_number  38
_chemical_formula_structural  Te4Mo2WSe2
_chemical_formula_sum  Te4Mo2WSe2
_cell_volume  270.24801089205187
_cell_formula_units_Z  1
loop_
  _symmetry_equiv_pos_site_id
 _symmetry_equiv_pos_as_xyz
 1  'x, y, z'
loop_
 _atom_site_type_symbol
 _atom_site_label
 _atom_site_symmetry_multiplicity
 _atom_site_fract_x
 _atom_site_fract_y
 _atom_site_fract_z
 _atom_site_fract_occupancy
 Mo  Mo1  1  0.33872  0.67744  0.08268  1
 Mo  Mo2  1  0.33872  0.67744  0.61128  1
 Se  Se1  1  0.32252  0.64504  0.41030  1
 Se  Se2  1  0.32252  0.64504  0.28366  1
 Te  Te1  1  0.67256  0.34512  0.01110  1
 Te  Te2  1  0.67125  0.34250  0.53961  1
 Te  Te3  1  0.67125  0.34250  0.15436  1
 Te  Te4  1  0.67256  0.34512  0.68286  1
 W  W1  1  0.65650  0.31300  0.34698  1
