CIF file written using JARVIS-Tools package.
data_Mg2Bi3O8
_symmetry_space_group_name_H-M  'P6_3mc'
_cell_length_a       6.89978
_cell_length_b       6.89978
_cell_length_c       8.9299
_cell_angle_alpha    90
_cell_angle_beta     90
_cell_angle_gamma    120

_symmetry_Int_Tables_number  186
_chemical_formula_structural  Mg2Bi3O8
_chemical_formula_sum  Mg4Bi6O6
_cell_volume  368.1685632797395
_cell_formula_units_Z  2
loop_
  _symmetry_equiv_pos_site_id
 _symmetry_equiv_pos_as_xyz
 1  'x, y, z'
loop_
 _atom_site_type_symbol
 _atom_site_label
 _atom_site_symmetry_multiplicity
 _atom_site_fract_x
 _atom_site_fract_y
 _atom_site_fract_z
 _atom_site_fract_occupancy
 Bi  Bi1  1  0.66517  0.83258  0.76442  1
 Bi  Bi2  1  0.16742  0.83258  0.76442  1
 Bi  Bi3  1  0.83258  0.66517  0.26442  1
 Bi  Bi4  1  0.33483  0.16742  0.26442  1
 Bi  Bi5  1  0.16742  0.33483  0.76442  1
 Bi  Bi6  1  0.83258  0.16742  0.26442  1
 Mg  Mg1  1  0.66667  0.33333  0.97451  1
 Mg  Mg2  1  0.66667  0.33333  0.64840  1
 Mg  Mg3  1  0.33333  0.66667  0.47451  1
 Mg  Mg4  1  0.33333  0.66667  0.14840  1
 O  O1  1  0.19786  0.39572  0.33086  1
 O  O2  1  0.80214  0.60428  0.83086  1
 O  O3  1  0.60428  0.80214  0.33086  1
 O  O4  1  0.47321  0.94641  0.61756  1
 O  O5  1  0.80214  0.19786  0.83086  1
 O  O6  1  0.39572  0.19786  0.83086  1
 O  O7  1  0.19786  0.80214  0.33086  1
 O  O8  1  0.33333  0.66667  0.90879  1
 O  O9  1  0.52679  0.47321  0.11756  1
 O  O10  1  0.00000  0.00000  0.63626  1
 O  O11  1  0.00000  0.00000  0.13626  1
 O  O12  1  0.52679  0.05359  0.11756  1
 O  O13  1  0.94641  0.47321  0.11756  1
 O  O14  1  0.47321  0.52679  0.61756  1
 O  O15  1  0.05359  0.52679  0.61756  1
 O  O16  1  0.66667  0.33333  0.40879  1
