CIF file written using JARVIS-Tools package.
data_MoF4
_symmetry_space_group_name_H-M  'P1'
_cell_length_a       4.95656
_cell_length_b       5.24886
_cell_length_c       6.66465
_cell_angle_alpha    111.968
_cell_angle_beta     124.867
_cell_angle_gamma    89.9514

_symmetry_Int_Tables_number  1
_chemical_formula_structural  MoF4
_chemical_formula_sum  Mo2F8
_cell_volume  126.65990706265046
_cell_formula_units_Z  2
loop_
  _symmetry_equiv_pos_site_id
 _symmetry_equiv_pos_as_xyz
 1  'x, y, z'
loop_
 _atom_site_type_symbol
 _atom_site_label
 _atom_site_symmetry_multiplicity
 _atom_site_fract_x
 _atom_site_fract_y
 _atom_site_fract_z
 _atom_site_fract_occupancy
 F  F1  1  0.90294  0.39683  0.20698  1
 F  F2  1  0.57206  0.15399  0.72813  1
 F  F3  1  0.07532  0.73402  0.81294  1
 F  F4  1  0.13210  0.22912  0.81017  1
 F  F5  1  0.41450  0.67511  0.26748  1
 F  F6  1  0.50885  0.18159  0.27746  1
 F  F7  1  0.91549  0.89607  0.20802  1
 F  F8  1  0.50478  0.65425  0.72860  1
 Mo  Mo1  1  0.95040  0.53477  0.97201  1
 Mo  Mo2  1  0.50821  0.03689  0.97570  1
