CIF file written using JARVIS-Tools package.
data_TaCo3
_symmetry_space_group_name_H-M  'R-3m'
_cell_length_a       6.91329
_cell_length_b       6.91329
_cell_length_c       6.91329
_cell_angle_alpha    43.7782
_cell_angle_beta     43.7782
_cell_angle_gamma    43.7783

_symmetry_Int_Tables_number  166
_chemical_formula_structural  TaCo3
_chemical_formula_sum  Ta3Co9
_cell_volume  143.587761342637
_cell_formula_units_Z  3
loop_
  _symmetry_equiv_pos_site_id
 _symmetry_equiv_pos_as_xyz
 1  'x, y, z'
loop_
 _atom_site_type_symbol
 _atom_site_label
 _atom_site_symmetry_multiplicity
 _atom_site_fract_x
 _atom_site_fract_y
 _atom_site_fract_z
 _atom_site_fract_occupancy
 Co  Co1  1  0.50000  0.50000  0.00000  1
 Co  Co2  1  0.00000  0.50000  0.50000  1
 Co  Co3  1  0.50000  0.00000  0.50000  1
 Co  Co4  1  0.71406  0.24141  0.71406  1
 Co  Co5  1  0.71406  0.71406  0.24141  1
 Co  Co6  1  0.24141  0.71406  0.71406  1
 Co  Co7  1  0.75859  0.28594  0.28594  1
 Co  Co8  1  0.28594  0.75859  0.28594  1
 Co  Co9  1  0.28594  0.28594  0.75859  1
 Ta  Ta1  1  0.00000  0.00000  0.00000  1
 Ta  Ta2  1  0.21856  0.21856  0.21856  1
 Ta  Ta3  1  0.78144  0.78144  0.78144  1
