CIF file written using JARVIS-Tools package.
data_Li2FeF4
_symmetry_space_group_name_H-M  'Cm'
_cell_length_a       4.89024
_cell_length_b       5.90003
_cell_length_c       5.90063
_cell_angle_alpha    65.8323
_cell_angle_beta     86.0326
_cell_angle_gamma    86.0343

_symmetry_Int_Tables_number  8
_chemical_formula_structural  Li2FeF4
_chemical_formula_sum  Li4Fe2F8
_cell_volume  154.79778045759497
_cell_formula_units_Z  2
loop_
  _symmetry_equiv_pos_site_id
 _symmetry_equiv_pos_as_xyz
 1  'x, y, z'
loop_
 _atom_site_type_symbol
 _atom_site_label
 _atom_site_symmetry_multiplicity
 _atom_site_fract_x
 _atom_site_fract_y
 _atom_site_fract_z
 _atom_site_fract_occupancy
 F  F1  1  0.75938  0.78162  0.78184  1
 F  F2  1  0.73673  0.88478  0.27339  1
 F  F3  1  0.24783  0.62100  0.62101  1
 F  F4  1  0.73670  0.27335  0.88464  1
 F  F5  1  0.24765  0.73119  0.11045  1
 F  F6  1  0.68786  0.39178  0.39165  1
 F  F7  1  0.24766  0.11041  0.73107  1
 F  F8  1  0.20079  0.21899  0.21875  1
 Fe  Fe1  1  0.83810  0.57590  0.57583  1
 Fe  Fe2  1  0.24389  0.41586  0.41584  1
 Li  Li1  1  0.92726  0.94107  0.94103  1
 Li  Li2  1  0.41548  0.05451  0.05450  1
 Li  Li3  1  0.38488  0.78780  0.78792  1
 Li  Li4  1  0.82579  0.21189  0.21164  1
