CIF file written using JARVIS-Tools package.
data_LiCaMgSiN3
_symmetry_space_group_name_H-M  'C2/m'
_cell_length_a       5.57449
_cell_length_b       5.67094
_cell_length_c       6.00865
_cell_angle_alpha    86.6506
_cell_angle_beta     83.1732
_cell_angle_gamma    60.5611

_symmetry_Int_Tables_number  12
_chemical_formula_structural  LiCaMgSiN3
_chemical_formula_sum  Li2Ca2Mg2Si2N6
_cell_volume  164.2499672048356
_cell_formula_units_Z  2
loop_
  _symmetry_equiv_pos_site_id
 _symmetry_equiv_pos_as_xyz
 1  'x, y, z'
loop_
 _atom_site_type_symbol
 _atom_site_label
 _atom_site_symmetry_multiplicity
 _atom_site_fract_x
 _atom_site_fract_y
 _atom_site_fract_z
 _atom_site_fract_occupancy
 Ca  Ca1  1  0.31966  0.36067  0.50000  1
 Ca  Ca2  1  0.68034  0.63933  0.50000  1
 Li  Li1  1  0.68038  0.00000  0.09120  1
 Li  Li2  1  0.31962  -0.00000  0.90880  1
 Mg  Mg1  1  0.23553  0.52894  -0.00000  1
 Mg  Mg2  1  0.76447  0.47106  0.00000  1
 N  N1  1  0.80734  -0.00000  0.38911  1
 N  N2  1  0.19266  0.00000  0.61089  1
 N  N3  1  0.60791  0.29072  0.81057  1
 N  N4  1  0.89864  0.70928  0.81057  1
 N  N5  1  0.39209  0.70928  0.18943  1
 N  N6  1  0.10136  0.29072  0.18943  1
 Si  Si1  1  0.13021  0.00000  0.32067  1
 Si  Si2  1  0.86979  -0.00000  0.67933  1
