CIF file written using JARVIS-Tools package.
data_YBiO3
_symmetry_space_group_name_H-M  'R-3'
_cell_length_a       6.07825
_cell_length_b       6.07825
_cell_length_c       6.07825
_cell_angle_alpha    59.3926
_cell_angle_beta     59.3926
_cell_angle_gamma    59.3926

_symmetry_Int_Tables_number  148
_chemical_formula_structural  YBiO3
_chemical_formula_sum  Y2Bi2O6
_cell_volume  156.5941224454748
_cell_formula_units_Z  2
loop_
  _symmetry_equiv_pos_site_id
 _symmetry_equiv_pos_as_xyz
 1  'x, y, z'
loop_
 _atom_site_type_symbol
 _atom_site_label
 _atom_site_symmetry_multiplicity
 _atom_site_fract_x
 _atom_site_fract_y
 _atom_site_fract_z
 _atom_site_fract_occupancy
 Bi  Bi1  1  0.35972  0.35972  0.35972  1
 Bi  Bi2  1  0.64028  0.64028  0.64028  1
 O  O1  1  0.00853  0.78143  0.45579  1
 O  O2  1  0.54421  0.99147  0.21857  1
 O  O3  1  0.21857  0.54421  0.99147  1
 O  O4  1  0.78143  0.45579  0.00853  1
 O  O5  1  0.45579  0.00853  0.78143  1
 O  O6  1  0.99147  0.21857  0.54421  1
 Y  Y1  1  0.14059  0.14059  0.14059  1
 Y  Y2  1  0.85941  0.85941  0.85941  1
