CIF file written using JARVIS-Tools package.
data_Co6OF11
_symmetry_space_group_name_H-M  'Amm2'
_cell_length_a       4.69852
_cell_length_b       4.69852
_cell_length_c       9.31761
_cell_angle_alpha    90
_cell_angle_beta     90
_cell_angle_gamma    89.0515

_symmetry_Int_Tables_number  38
_chemical_formula_structural  Co6OF11
_chemical_formula_sum  Co6OF
_cell_volume  205.66835185713143
_cell_formula_units_Z  1
loop_
  _symmetry_equiv_pos_site_id
 _symmetry_equiv_pos_as_xyz
 1  'x, y, z'
loop_
 _atom_site_type_symbol
 _atom_site_label
 _atom_site_symmetry_multiplicity
 _atom_site_fract_x
 _atom_site_fract_y
 _atom_site_fract_z
 _atom_site_fract_occupancy
 Co  Co1  1  0.00664  0.99336  0.01608  1
 Co  Co2  1  0.00664  0.99336  0.31726  1
 Co  Co3  1  0.00417  0.99583  0.66667  1
 Co  Co4  1  0.47544  0.52456  0.16667  1
 Co  Co5  1  0.50444  0.49556  0.83547  1
 Co  Co6  1  0.50444  0.49556  0.49787  1
 F  F1  1  0.20133  0.79867  0.83625  1
 F  F2  1  0.80882  0.19118  0.83867  1
 F  F3  1  0.29759  0.30420  0.33292  1
 F  F4  1  0.29759  0.30420  0.00041  1
 F  F5  1  0.20133  0.79867  0.49708  1
 F  F6  1  0.69580  0.70241  0.33292  1
 F  F7  1  0.69580  0.70241  0.00041  1
 F  F8  1  0.30696  0.29509  0.66667  1
 F  F9  1  0.77885  0.22115  0.16667  1
 F  F10  1  0.70491  0.69304  0.66667  1
 F  F11  1  0.80882  0.19118  0.49467  1
 O  O1  1  0.20043  0.79957  0.16667  1
