CIF file written using JARVIS-Tools package.
data_Ni4B3
_symmetry_space_group_name_H-M  'C2/c'
_cell_length_a       4.02773
_cell_length_b       4.02773
_cell_length_c       7.86897
_cell_angle_alpha    80.0453
_cell_angle_beta     80.0453
_cell_angle_gamma    75.0071

_symmetry_Int_Tables_number  15
_chemical_formula_structural  Ni4B3
_chemical_formula_sum  Ni8B6
_cell_volume  120.34621803760787
_cell_formula_units_Z  2
loop_
  _symmetry_equiv_pos_site_id
 _symmetry_equiv_pos_as_xyz
 1  'x, y, z'
loop_
 _atom_site_type_symbol
 _atom_site_label
 _atom_site_symmetry_multiplicity
 _atom_site_fract_x
 _atom_site_fract_y
 _atom_site_fract_z
 _atom_site_fract_occupancy
 B  B1  1  0.84671  0.68934  0.43919  1
 B  B2  1  0.68934  0.84671  0.93919  1
 B  B3  1  0.31066  0.15329  0.06081  1
 B  B4  1  0.92024  0.07976  0.75000  1
 B  B5  1  0.15329  0.31066  0.56081  1
 B  B6  1  0.07976  0.92024  0.25000  1
 Ni  Ni1  1  0.22562  0.36333  0.29001  1
 Ni  Ni2  1  0.63667  0.77438  0.20999  1
 Ni  Ni3  1  0.20306  0.70568  0.99163  1
 Ni  Ni4  1  0.36333  0.22562  0.79001  1
 Ni  Ni5  1  0.70568  0.20306  0.49163  1
 Ni  Ni6  1  0.79694  0.29432  0.00837  1
 Ni  Ni7  1  0.29432  0.79694  0.50837  1
 Ni  Ni8  1  0.77438  0.63667  0.70999  1
