CIF file written using JARVIS-Tools package.
data_MoW3S8
_symmetry_space_group_name_H-M  'P3m1'
_cell_length_a       3.19278
_cell_length_b       3.19277
_cell_length_c       35.7552
_cell_angle_alpha    90
_cell_angle_beta     90
_cell_angle_gamma    120

_symmetry_Int_Tables_number  156
_chemical_formula_structural  MoW3S8
_chemical_formula_sum  MoW3S8
_cell_volume  315.6515750996808
_cell_formula_units_Z  1
loop_
  _symmetry_equiv_pos_site_id
 _symmetry_equiv_pos_as_xyz
 1  'x, y, z'
loop_
 _atom_site_type_symbol
 _atom_site_label
 _atom_site_symmetry_multiplicity
 _atom_site_fract_x
 _atom_site_fract_y
 _atom_site_fract_z
 _atom_site_fract_occupancy
 Mo  Mo1  1  0.33331  0.66662  0.09392  1
 S  S1  1  0.33336  0.66671  0.32582  1
 S  S2  1  0.33336  0.66671  0.70148  1
 S  S3  1  0.66664  0.33328  0.05024  1
 S  S4  1  0.66664  0.33329  0.42563  1
 S  S5  1  0.66664  0.33329  0.13769  1
 S  S6  1  0.66665  0.33329  0.51369  1
 S  S7  1  0.33336  0.66671  0.23776  1
 S  S8  1  0.33336  0.66671  0.61353  1
 W  W1  1  0.33331  0.66662  0.46966  1
 W  W2  1  0.66669  0.33338  0.28179  1
 W  W3  1  0.66669  0.33338  0.65755  1
