CIF file written using JARVIS-Tools package.
data_TiMnV4O12
_symmetry_space_group_name_H-M  'C2'
_cell_length_a       6.70657
_cell_length_b       6.70657
_cell_length_c       5.61282
_cell_angle_alpha    74.6435
_cell_angle_beta     105.356
_cell_angle_gamma    96.597

_symmetry_Int_Tables_number  5
_chemical_formula_structural  TiMnV4O12
_chemical_formula_sum  TiMnV4O2
_cell_volume  234.47668032278898
_cell_formula_units_Z  1
loop_
  _symmetry_equiv_pos_site_id
 _symmetry_equiv_pos_as_xyz
 1  'x, y, z'
loop_
 _atom_site_type_symbol
 _atom_site_label
 _atom_site_symmetry_multiplicity
 _atom_site_fract_x
 _atom_site_fract_y
 _atom_site_fract_z
 _atom_site_fract_occupancy
 Mn  Mn1  1  0.08482  0.08482  0.75000  1
 O  O1  1  0.63417  0.92040  0.24804  1
 O  O2  1  0.02770  0.81717  0.64040  1
 O  O3  1  0.09749  0.35745  0.77412  1
 O  O4  1  0.92040  0.63417  0.25196  1
 O  O5  1  0.38630  0.66886  0.57486  1
 O  O6  1  0.18204  0.96990  0.12282  1
 O  O7  1  0.33137  0.61602  0.07805  1
 O  O8  1  0.66886  0.38630  0.92514  1
 O  O9  1  0.96990  0.18204  0.37718  1
 O  O10  1  0.61602  0.33137  0.42195  1
 O  O11  1  0.81717  0.02770  0.85960  1
 O  O12  1  0.35745  0.09749  0.72588  1
 Ti  Ti1  1  0.91383  0.91383  0.25000  1
 V  V1  1  0.80112  0.38904  0.23878  1
 V  V2  1  0.60481  0.19751  0.73726  1
 V  V3  1  0.38904  0.80112  0.26122  1
 V  V4  1  0.19751  0.60481  0.76274  1
