CIF file written using JARVIS-Tools package.
data_HfTaNO3
_symmetry_space_group_name_H-M  'Pmm2'
_cell_length_a       3.52508
_cell_length_b       3.57325
_cell_length_c       5.25752
_cell_angle_alpha    90
_cell_angle_beta     90
_cell_angle_gamma    90

_symmetry_Int_Tables_number  25
_chemical_formula_structural  HfTaNO3
_chemical_formula_sum  HfTaNO3
_cell_volume  66.2237905939423
_cell_formula_units_Z  1
loop_
  _symmetry_equiv_pos_site_id
 _symmetry_equiv_pos_as_xyz
 1  'x, y, z'
loop_
 _atom_site_type_symbol
 _atom_site_label
 _atom_site_symmetry_multiplicity
 _atom_site_fract_x
 _atom_site_fract_y
 _atom_site_fract_z
 _atom_site_fract_occupancy
 Hf  Hf1  1  0.00000  0.00000  0.23974  1
 N  N1  1  0.50000  0.00000  0.93137  1
 O  O1  1  0.00000  0.50000  0.57114  1
 O  O2  1  0.50000  0.00000  0.44058  1
 O  O3  1  0.00000  0.50000  0.05687  1
 Ta  Ta1  1  0.50000  0.50000  0.76031  1
