CIF file written using JARVIS-Tools package.
data_BeGeN2
_symmetry_space_group_name_H-M  'Pna2_1'
_cell_length_a       4.88261
_cell_length_b       5.18521
_cell_length_c       5.95292
_cell_angle_alpha    90
_cell_angle_beta     90
_cell_angle_gamma    90

_symmetry_Int_Tables_number  33
_chemical_formula_structural  BeGeN2
_chemical_formula_sum  Be4Ge4N8
_cell_volume  150.7124788842558
_cell_formula_units_Z  4
loop_
  _symmetry_equiv_pos_site_id
 _symmetry_equiv_pos_as_xyz
 1  'x, y, z'
loop_
 _atom_site_type_symbol
 _atom_site_label
 _atom_site_symmetry_multiplicity
 _atom_site_fract_x
 _atom_site_fract_y
 _atom_site_fract_z
 _atom_site_fract_occupancy
 Be  Be1  1  0.99073  0.58010  0.87486  1
 Be  Be2  1  0.49073  0.41990  0.12514  1
 Be  Be3  1  0.49073  0.91990  0.37486  1
 Be  Be4  1  0.99073  0.08010  0.62514  1
 Ge  Ge1  1  0.99063  0.59050  0.37553  1
 Ge  Ge2  1  0.49063  0.40950  0.62447  1
 Ge  Ge3  1  0.49063  0.90950  0.87553  1
 Ge  Ge4  1  0.99063  0.09050  0.12447  1
 N  N1  1  0.37784  0.59066  0.36593  1
 N  N2  1  0.87784  0.40934  0.63407  1
 N  N3  1  0.87784  0.90934  0.86593  1
 N  N4  1  0.37784  0.09066  0.13407  1
 N  N5  1  0.35480  0.57244  0.88447  1
 N  N6  1  0.85480  0.42756  0.11553  1
 N  N7  1  0.85480  0.92756  0.38447  1
 N  N8  1  0.35480  0.07244  0.61553  1
