CIF file written using JARVIS-Tools package.
data_Tl3AsS4
_symmetry_space_group_name_H-M  'Pnma'
_cell_length_a       8.99068
_cell_length_b       9.19405
_cell_length_c       10.8992
_cell_angle_alpha    90
_cell_angle_beta     90
_cell_angle_gamma    90

_symmetry_Int_Tables_number  62
_chemical_formula_structural  Tl3AsS4
_chemical_formula_sum  Tl2As4S6
_cell_volume  900.9365641013234
_cell_formula_units_Z  4
loop_
  _symmetry_equiv_pos_site_id
 _symmetry_equiv_pos_as_xyz
 1  'x, y, z'
loop_
 _atom_site_type_symbol
 _atom_site_label
 _atom_site_symmetry_multiplicity
 _atom_site_fract_x
 _atom_site_fract_y
 _atom_site_fract_z
 _atom_site_fract_occupancy
 As  As1  1  0.21992  0.02517  0.25000  1
 As  As2  1  0.28008  0.52517  0.75000  1
 As  As3  1  0.71992  0.47483  0.25000  1
 As  As4  1  0.78008  0.97483  0.75000  1
 S  S1  1  0.34560  0.96480  0.41552  1
 S  S2  1  0.65440  0.03520  0.91552  1
 S  S3  1  0.15440  0.46480  0.58448  1
 S  S4  1  0.84560  0.53520  0.08448  1
 S  S5  1  0.15440  0.46480  0.91552  1
 S  S6  1  0.84560  0.53520  0.41552  1
 S  S7  1  0.00417  0.07248  0.75000  1
 S  S8  1  0.49583  0.57248  0.25000  1
 S  S9  1  0.50417  0.42752  0.75000  1
 S  S10  1  0.99583  0.92752  0.25000  1
 S  S11  1  0.80881  0.73461  0.75000  1
 S  S12  1  0.65440  0.03520  0.58448  1
 S  S13  1  0.69119  0.23461  0.25000  1
 S  S14  1  0.30881  0.76539  0.75000  1
 S  S15  1  0.34560  0.96480  0.08448  1
 S  S16  1  0.19119  0.26539  0.25000  1
 Tl  Tl1  1  0.61449  0.89362  0.25000  1
 Tl  Tl2  1  0.11449  0.60638  0.25000  1
 Tl  Tl3  1  0.88551  0.39362  0.75000  1
 Tl  Tl4  1  0.38551  0.10638  0.75000  1
 Tl  Tl5  1  0.93535  0.19479  0.04963  1
 Tl  Tl6  1  0.43535  0.30521  0.45037  1
 Tl  Tl7  1  0.56465  0.69479  0.95037  1
 Tl  Tl8  1  0.06465  0.80521  0.54963  1
 Tl  Tl9  1  0.06465  0.80521  0.95037  1
 Tl  Tl10  1  0.56465  0.69479  0.54963  1
 Tl  Tl11  1  0.43535  0.30521  0.04963  1
 Tl  Tl12  1  0.93535  0.19479  0.45037  1
