CIF file written using JARVIS-Tools package.
data_GaMo4S8
_symmetry_space_group_name_H-M  'F-43m'
_cell_length_a       6.93294
_cell_length_b       6.93294
_cell_length_c       6.93294
_cell_angle_alpha    60.0011
_cell_angle_beta     60.0011
_cell_angle_gamma    60.0011

_symmetry_Int_Tables_number  216
_chemical_formula_structural  GaMo4S8
_chemical_formula_sum  GaMo4S8
_cell_volume  235.63941712659576
_cell_formula_units_Z  1
loop_
  _symmetry_equiv_pos_site_id
 _symmetry_equiv_pos_as_xyz
 1  'x, y, z'
loop_
 _atom_site_type_symbol
 _atom_site_label
 _atom_site_symmetry_multiplicity
 _atom_site_fract_x
 _atom_site_fract_y
 _atom_site_fract_z
 _atom_site_fract_occupancy
 Ga  Ga1  1  0.00120  0.00120  0.00120  1
 Mo  Mo1  1  0.80832  0.39884  0.39884  1
 Mo  Mo2  1  0.39884  0.39884  0.39884  1
 Mo  Mo3  1  0.39884  0.39884  0.80832  1
 Mo  Mo4  1  0.39884  0.80832  0.39884  1
 S  S1  1  0.63511  0.63511  0.63511  1
 S  S2  1  0.13676  0.59456  0.13676  1
 S  S3  1  0.13675  0.13675  0.13675  1
 S  S4  1  0.13676  0.13676  0.59456  1
 S  S5  1  0.63511  0.63511  0.09951  1
 S  S6  1  0.59456  0.13676  0.13676  1
 S  S7  1  0.09951  0.63511  0.63511  1
 S  S8  1  0.63511  0.09951  0.63511  1
