CIF file written using JARVIS-Tools package.
data_SrGa2Au2
_symmetry_space_group_name_H-M  'P4/nmm'
_cell_length_a       4.56104
_cell_length_b       4.56104
_cell_length_c       10.5212
_cell_angle_alpha    90
_cell_angle_beta     90
_cell_angle_gamma    90

_symmetry_Int_Tables_number  129
_chemical_formula_structural  SrGa2Au2
_chemical_formula_sum  Sr2Ga4Au4
_cell_volume  218.8730484691933
_cell_formula_units_Z  2
loop_
  _symmetry_equiv_pos_site_id
 _symmetry_equiv_pos_as_xyz
 1  'x, y, z'
loop_
 _atom_site_type_symbol
 _atom_site_label
 _atom_site_symmetry_multiplicity
 _atom_site_fract_x
 _atom_site_fract_y
 _atom_site_fract_z
 _atom_site_fract_occupancy
 Au  Au1  1  0.00000  0.50000  0.62986  1
 Au  Au2  1  0.00000  0.00000  0.00000  1
 Au  Au3  1  0.50000  0.50000  0.00000  1
 Au  Au4  1  0.50000  0.00000  0.37014  1
 Ga  Ga1  1  0.50000  0.00000  0.12538  1
 Ga  Ga2  1  0.50000  0.50000  0.50000  1
 Ga  Ga3  1  0.00000  0.50000  0.87462  1
 Ga  Ga4  1  0.00000  0.00000  0.50000  1
 Sr  Sr1  1  0.50000  0.00000  0.75087  1
 Sr  Sr2  1  0.00000  0.50000  0.24913  1
