CIF file written using JARVIS-Tools package.
data_TbAlPd
_symmetry_space_group_name_H-M  'Pnma'
_cell_length_a       4.43895
_cell_length_b       6.94075
_cell_length_c       7.80287
_cell_angle_alpha    90
_cell_angle_beta     90
_cell_angle_gamma    90

_symmetry_Int_Tables_number  62
_chemical_formula_structural  TbAlPd
_chemical_formula_sum  Tb4Al4Pd4
_cell_volume  240.40360292706987
_cell_formula_units_Z  4
loop_
  _symmetry_equiv_pos_site_id
 _symmetry_equiv_pos_as_xyz
 1  'x, y, z'
loop_
 _atom_site_type_symbol
 _atom_site_label
 _atom_site_symmetry_multiplicity
 _atom_site_fract_x
 _atom_site_fract_y
 _atom_site_fract_z
 _atom_site_fract_occupancy
 Al  Al1  1  0.25000  0.64484  0.43599  1
 Al  Al2  1  0.75000  0.35516  0.56401  1
 Al  Al3  1  0.25000  0.14484  0.06401  1
 Al  Al4  1  0.75000  0.85516  0.93599  1
 Pd  Pd1  1  0.75000  0.72751  0.61584  1
 Pd  Pd2  1  0.25000  0.27249  0.38416  1
 Pd  Pd3  1  0.75000  0.22751  0.88416  1
 Pd  Pd4  1  0.25000  0.77249  0.11584  1
 Tb  Tb1  1  0.25000  0.53252  0.81967  1
 Tb  Tb2  1  0.75000  0.46748  0.18033  1
 Tb  Tb3  1  0.25000  0.03252  0.68033  1
 Tb  Tb4  1  0.75000  0.96748  0.31967  1
