CIF file written using JARVIS-Tools package.
data_PrSe2
_symmetry_space_group_name_H-M  'P4/nmm'
_cell_length_a       4.19674
_cell_length_b       4.19674
_cell_length_c       8.62035
_cell_angle_alpha    90
_cell_angle_beta     90
_cell_angle_gamma    90

_symmetry_Int_Tables_number  129
_chemical_formula_structural  PrSe2
_chemical_formula_sum  Pr2Se4
_cell_volume  151.82736602985605
_cell_formula_units_Z  2
loop_
  _symmetry_equiv_pos_site_id
 _symmetry_equiv_pos_as_xyz
 1  'x, y, z'
loop_
 _atom_site_type_symbol
 _atom_site_label
 _atom_site_symmetry_multiplicity
 _atom_site_fract_x
 _atom_site_fract_y
 _atom_site_fract_z
 _atom_site_fract_occupancy
 Pr  Pr1  1  0.50000  0.00000  0.72589  1
 Pr  Pr2  1  0.00000  0.50000  0.27411  1
 Se  Se1  1  0.50000  0.00000  0.36740  1
 Se  Se2  1  0.00000  0.50000  0.63260  1
 Se  Se3  1  0.50000  0.50000  0.00000  1
 Se  Se4  1  0.00000  0.00000  0.00000  1
