CIF file written using JARVIS-Tools package.
data_Na5SiP3
_symmetry_space_group_name_H-M  'P2_1/c'
_cell_length_a       7.94579
_cell_length_b       7.30579
_cell_length_c       15.2564
_cell_angle_alpha    90
_cell_angle_beta     120.933
_cell_angle_gamma    90

_symmetry_Int_Tables_number  14
_chemical_formula_structural  Na5SiP3
_chemical_formula_sum  Na20Si4P2
_cell_volume  759.6721916892325
_cell_formula_units_Z  4
loop_
  _symmetry_equiv_pos_site_id
 _symmetry_equiv_pos_as_xyz
 1  'x, y, z'
loop_
 _atom_site_type_symbol
 _atom_site_label
 _atom_site_symmetry_multiplicity
 _atom_site_fract_x
 _atom_site_fract_y
 _atom_site_fract_z
 _atom_site_fract_occupancy
 Na  Na1  1  0.55676  0.50599  0.74181  1
 Na  Na2  1  0.44324  0.00599  0.75819  1
 Na  Na3  1  0.44324  0.49401  0.25819  1
 Na  Na4  1  0.55676  0.99401  0.24181  1
 Na  Na5  1  0.91670  0.98386  0.58866  1
 Na  Na6  1  0.08330  0.48386  0.91134  1
 Na  Na7  1  0.08330  0.01614  0.41134  1
 Na  Na8  1  0.91670  0.51614  0.08866  1
 Na  Na9  1  0.25276  0.52933  0.41746  1
 Na  Na10  1  0.84097  0.83667  0.91898  1
 Na  Na11  1  0.74724  0.02933  0.08254  1
 Na  Na12  1  0.25276  0.97067  0.91746  1
 Na  Na13  1  0.83586  0.15420  0.75850  1
 Na  Na14  1  0.16414  0.65420  0.74150  1
 Na  Na15  1  0.16414  0.84580  0.24150  1
 Na  Na16  1  0.83586  0.34580  0.25850  1
 Na  Na17  1  0.15903  0.33667  0.58102  1
 Na  Na18  1  0.84097  0.66333  0.41898  1
 Na  Na19  1  0.15903  0.16333  0.08102  1
 Na  Na20  1  0.74724  0.47067  0.58254  1
 P  P1  1  0.47978  0.31756  0.06537  1
 P  P2  1  0.80166  0.73098  0.22278  1
 P  P3  1  0.19834  0.23098  0.27722  1
 P  P4  1  0.19834  0.26902  0.77722  1
 P  P5  1  0.80166  0.76902  0.72278  1
 P  P6  1  0.24020  0.75851  0.07980  1
 P  P7  1  0.75980  0.25851  0.42020  1
 P  P8  1  0.47978  0.18244  0.56537  1
 P  P9  1  0.24020  0.74149  0.57980  1
 P  P10  1  0.52022  0.68244  0.93463  1
 P  P11  1  0.52022  0.81756  0.43463  1
 P  P12  1  0.75980  0.24149  0.92020  1
 Si  Si1  1  0.51231  0.63930  0.08421  1
 Si  Si2  1  0.51231  0.86070  0.58421  1
 Si  Si3  1  0.48769  0.36070  0.91579  1
 Si  Si4  1  0.48769  0.13930  0.41579  1
