CIF file written using JARVIS-Tools package.
data_LiMg2Al
_symmetry_space_group_name_H-M  'Immm'
_cell_length_a       12.1141
_cell_length_b       6.74134
_cell_length_c       6.74134
_cell_angle_alpha    25.5185
_cell_angle_beta     26.0397
_cell_angle_gamma    26.0398

_symmetry_Int_Tables_number  71
_chemical_formula_structural  LiMg2Al
_chemical_formula_sum  LiMg2Al
_cell_volume  92.25876524394435
_cell_formula_units_Z  1
loop_
  _symmetry_equiv_pos_site_id
 _symmetry_equiv_pos_as_xyz
 1  'x, y, z'
loop_
 _atom_site_type_symbol
 _atom_site_label
 _atom_site_symmetry_multiplicity
 _atom_site_fract_x
 _atom_site_fract_y
 _atom_site_fract_z
 _atom_site_fract_occupancy
 Al  Al1  1  0.50000  -0.00000  0.00000  1
 Li  Li1  1  0.00000  0.00000  0.00000  1
 Mg  Mg1  1  0.73530  -0.00000  0.00000  1
 Mg  Mg2  1  0.26470  0.00000  -0.00000  1
