CIF file written using JARVIS-Tools package.
data_LiV2O3F3
_symmetry_space_group_name_H-M  'P1'
_cell_length_a       4.99687
_cell_length_b       5.00394
_cell_length_c       13.3403
_cell_angle_alpha    88.0574
_cell_angle_beta     87.2867
_cell_angle_gamma    62.4046

_symmetry_Int_Tables_number  1
_chemical_formula_structural  LiV2O3F3
_chemical_formula_sum  Li3V6O9F9
_cell_volume  295.25744243685523
_cell_formula_units_Z  3
loop_
  _symmetry_equiv_pos_site_id
 _symmetry_equiv_pos_as_xyz
 1  'x, y, z'
loop_
 _atom_site_type_symbol
 _atom_site_label
 _atom_site_symmetry_multiplicity
 _atom_site_fract_x
 _atom_site_fract_y
 _atom_site_fract_z
 _atom_site_fract_occupancy
 F  F1  1  0.98305  0.64819  0.25369  1
 F  F2  1  0.66208  0.06706  0.41615  1
 F  F3  1  0.32542  0.97422  0.58787  1
 F  F4  1  0.66258  0.29466  0.92253  1
 F  F5  1  0.34688  0.01345  0.24662  1
 F  F6  1  0.69022  0.34430  0.57901  1
 F  F7  1  0.94959  0.32134  0.08870  1
 F  F8  1  0.01438  0.37861  0.74669  1
 F  F9  1  0.02842  0.66522  0.91104  1
 Li  Li1  1  0.64800  0.67406  0.88438  1
 Li  Li2  1  0.96406  0.03085  0.21729  1
 Li  Li3  1  0.31434  0.35545  0.55190  1
 O  O1  1  0.27054  0.05877  0.91379  1
 O  O2  1  0.08824  0.26570  0.42162  1
 O  O3  1  0.93794  0.72768  0.58125  1
 O  O4  1  0.74968  0.91007  0.08501  1
 O  O5  1  0.43361  0.58261  0.75612  1
 O  O6  1  0.60279  0.39416  0.24854  1
 O  O7  1  0.32739  0.73448  0.08238  1
 O  O8  1  0.26187  0.68112  0.41527  1
 O  O9  1  0.61322  0.99326  0.75010  1
 V  V1  1  0.01657  0.98778  0.49280  1
 V  V2  1  0.36776  0.29793  0.82548  1
 V  V3  1  0.02572  0.97387  0.00184  1
 V  V4  1  0.62536  0.68134  0.15795  1
 V  V5  1  0.67329  0.68569  0.67028  1
 V  V6  1  0.31829  0.37758  0.33753  1
