CIF file written using JARVIS-Tools package.
data_CeGa4Co9
_symmetry_space_group_name_H-M  'I4/mcm'
_cell_length_a       8.10306
_cell_length_b       8.10306
_cell_length_c       8.10306
_cell_angle_alpha    121.388
_cell_angle_beta     121.388
_cell_angle_gamma    87.6126

_symmetry_Int_Tables_number  140
_chemical_formula_structural  CeGa4Co9
_chemical_formula_sum  Ce2Ga8Co8
_cell_volume  367.97298560027446
_cell_formula_units_Z  2
loop_
  _symmetry_equiv_pos_site_id
 _symmetry_equiv_pos_as_xyz
 1  'x, y, z'
loop_
 _atom_site_type_symbol
 _atom_site_label
 _atom_site_symmetry_multiplicity
 _atom_site_fract_x
 _atom_site_fract_y
 _atom_site_fract_z
 _atom_site_fract_occupancy
 Ce  Ce1  1  0.75000  0.75000  0.00000  1
 Ce  Ce2  1  0.25000  0.25000  0.00000  1
 Co  Co1  1  0.19810  0.06158  0.25968  1
 Co  Co2  1  0.80190  0.93842  0.74032  1
 Co  Co3  1  0.30190  0.56158  0.86348  1
 Co  Co4  1  0.56026  0.29041  0.50000  1
 Co  Co5  1  0.43842  0.30190  0.74032  1
 Co  Co6  1  0.56158  0.69810  0.25968  1
 Co  Co7  1  0.93842  0.19810  0.13652  1
 Co  Co8  1  0.69810  0.43842  0.13652  1
 Co  Co9  1  0.50000  0.00000  0.50000  1
 Co  Co10  1  0.29041  0.79041  0.73015  1
 Co  Co11  1  0.06026  0.56026  0.26985  1
 Co  Co12  1  0.20959  0.93974  0.50000  1
 Co  Co13  1  0.43974  0.70959  0.50000  1
 Co  Co14  1  0.70959  0.20959  0.26985  1
 Co  Co15  1  0.93974  0.43974  0.73015  1
 Co  Co16  1  0.00000  0.50000  0.50000  1
 Co  Co17  1  0.06158  0.80190  0.86348  1
 Co  Co18  1  0.79041  0.06026  0.50000  1
 Ga  Ga1  1  0.05402  0.19509  0.50000  1
 Ga  Ga2  1  0.80491  0.30491  0.85893  1
 Ga  Ga3  1  0.44598  0.94598  0.14107  1
 Ga  Ga4  1  0.69509  0.55402  0.50000  1
 Ga  Ga5  1  0.94598  0.80491  0.50000  1
 Ga  Ga6  1  0.19509  0.69509  0.14107  1
 Ga  Ga7  1  0.55402  0.05402  0.85893  1
 Ga  Ga8  1  0.30491  0.44598  0.50000  1
