CIF file written using JARVIS-Tools package.
data_Li2Fe3NiO8
_symmetry_space_group_name_H-M  'P6_3mc'
_cell_length_a       5.58261
_cell_length_b       5.58261
_cell_length_c       9.38351
_cell_angle_alpha    90.0026
_cell_angle_beta     89.9988
_cell_angle_gamma    120

_symmetry_Int_Tables_number  186
_chemical_formula_structural  Li2Fe3NiO8
_chemical_formula_sum  Li4Fe6Ni2O6
_cell_volume  253.26190365068425
_cell_formula_units_Z  2
loop_
  _symmetry_equiv_pos_site_id
 _symmetry_equiv_pos_as_xyz
 1  'x, y, z'
loop_
 _atom_site_type_symbol
 _atom_site_label
 _atom_site_symmetry_multiplicity
 _atom_site_fract_x
 _atom_site_fract_y
 _atom_site_fract_z
 _atom_site_fract_occupancy
 Fe  Fe1  1  0.65318  0.82660  0.21317  1
 Fe  Fe2  1  0.17344  0.82659  0.21318  1
 Fe  Fe3  1  0.17344  0.34687  0.21317  1
 Fe  Fe4  1  0.82656  0.17343  0.71317  1
 Fe  Fe5  1  0.82656  0.65315  0.71318  1
 Fe  Fe6  1  0.34682  0.17342  0.71317  1
 Li  Li1  1  0.33333  0.66668  0.89641  1
 Li  Li2  1  0.99992  0.99997  0.49549  1
 Li  Li3  1  0.00008  0.00005  0.99549  1
 Li  Li4  1  0.66667  0.33335  0.39641  1
 Ni  Ni1  1  0.33330  0.66666  0.49052  1
 Ni  Ni2  1  0.66670  0.33336  0.99052  1
 O  O1  1  0.16140  0.32286  0.60500  1
 O  O2  1  0.16140  0.83856  0.60500  1
 O  O3  1  0.96526  0.48264  0.83636  1
 O  O4  1  0.33335  0.66668  0.09899  1
 O  O5  1  0.00000  0.00002  0.30888  1
 O  O6  1  1.00000  0.00001  0.80888  1
 O  O7  1  0.03474  0.51738  0.33636  1
 O  O8  1  0.83860  0.67717  0.10500  1
 O  O9  1  0.67709  0.83855  0.60502  1
 O  O10  1  0.51736  0.48264  0.83637  1
 O  O11  1  0.51735  0.03475  0.83637  1
 O  O12  1  0.66665  0.33333  0.59899  1
 O  O13  1  0.48264  0.96528  0.33637  1
 O  O14  1  0.32291  0.16146  0.10502  1
 O  O15  1  0.48265  0.51739  0.33637  1
 O  O16  1  0.83860  0.16145  0.10500  1
