CIF file written using JARVIS-Tools package.
data_CaNi2O5
_symmetry_space_group_name_H-M  'Cmcm'
_cell_length_a       3.65871
_cell_length_b       5.93656
_cell_length_c       11.06
_cell_angle_alpha    90
_cell_angle_beta     90
_cell_angle_gamma    107.948

_symmetry_Int_Tables_number  63
_chemical_formula_structural  CaNi2O5
_chemical_formula_sum  Ca2Ni4O0
_cell_volume  228.53430758620357
_cell_formula_units_Z  2
loop_
  _symmetry_equiv_pos_site_id
 _symmetry_equiv_pos_as_xyz
 1  'x, y, z'
loop_
 _atom_site_type_symbol
 _atom_site_label
 _atom_site_symmetry_multiplicity
 _atom_site_fract_x
 _atom_site_fract_y
 _atom_site_fract_z
 _atom_site_fract_occupancy
 Ca  Ca1  1  0.91805  0.83609  0.75000  1
 Ca  Ca2  1  0.08195  0.16391  0.25000  1
 Ni  Ni1  1  0.22895  0.45790  0.59791  1
 Ni  Ni2  1  0.77105  0.54210  0.40209  1
 Ni  Ni3  1  0.77105  0.54210  0.09791  1
 Ni  Ni4  1  0.22895  0.45790  0.90209  1
 O  O1  1  0.70286  0.40572  0.25000  1
 O  O2  1  0.29714  0.59428  0.75000  1
 O  O3  1  0.21762  0.43523  0.07154  1
 O  O4  1  0.78239  0.56477  0.92846  1
 O  O5  1  0.78239  0.56477  0.57154  1
 O  O6  1  0.21762  0.43523  0.42846  1
 O  O7  1  0.07791  0.15583  0.63360  1
 O  O8  1  0.92209  0.84417  0.36640  1
 O  O9  1  0.07791  0.15583  0.86640  1
 O  O10  1  0.92209  0.84417  0.13360  1
