CIF file written using JARVIS-Tools package.
data_Mg3N2
_symmetry_space_group_name_H-M  'Ia-3'
_cell_length_a       8.64374
_cell_length_b       8.64375
_cell_length_c       8.64374
_cell_angle_alpha    109.471
_cell_angle_beta     109.471
_cell_angle_gamma    109.471

_symmetry_Int_Tables_number  206
_chemical_formula_structural  Mg3N2
_chemical_formula_sum  Mg24N6
_cell_volume  497.14590460314287
_cell_formula_units_Z  8
loop_
  _symmetry_equiv_pos_site_id
 _symmetry_equiv_pos_as_xyz
 1  'x, y, z'
loop_
 _atom_site_type_symbol
 _atom_site_label
 _atom_site_symmetry_multiplicity
 _atom_site_fract_x
 _atom_site_fract_y
 _atom_site_fract_z
 _atom_site_fract_occupancy
 Mg  Mg1  1  0.45834  0.46545  0.22858  1
 Mg  Mg2  1  0.99289  0.95834  0.72975  1
 Mg  Mg3  1  0.04166  0.27025  0.00711  1
 Mg  Mg4  1  0.27142  0.73687  0.22975  1
 Mg  Mg5  1  0.76313  0.03455  0.49289  1
 Mg  Mg6  1  0.22858  0.45834  0.46545  1
 Mg  Mg7  1  0.72975  0.99289  0.95834  1
 Mg  Mg8  1  0.26313  0.77025  0.72858  1
 Mg  Mg9  1  0.50711  0.23687  0.96545  1
 Mg  Mg10  1  0.95834  0.72975  0.99289  1
 Mg  Mg11  1  0.72858  0.26313  0.77025  1
 Mg  Mg12  1  0.23687  0.96545  0.50711  1
 Mg  Mg13  1  0.53455  0.77142  0.54166  1
 Mg  Mg14  1  0.77142  0.54166  0.53455  1
 Mg  Mg15  1  0.54166  0.53455  0.77142  1
 Mg  Mg16  1  0.22975  0.27142  0.73687  1
 Mg  Mg17  1  0.03455  0.49289  0.76313  1
 Mg  Mg18  1  0.73687  0.22975  0.27142  1
 Mg  Mg19  1  0.49289  0.76313  0.03455  1
 Mg  Mg20  1  0.46545  0.22858  0.45834  1
 Mg  Mg21  1  0.96545  0.50711  0.23687  1
 Mg  Mg22  1  0.27025  0.00711  0.04166  1
 Mg  Mg23  1  0.77025  0.72858  0.26313  1
 Mg  Mg24  1  0.00711  0.04166  0.27025  1
 N  N1  1  0.25000  0.21921  0.96921  1
 N  N2  1  0.75000  0.28079  0.53079  1
 N  N3  1  0.28079  0.53079  0.75000  1
 N  N4  1  0.53079  0.75000  0.28079  1
 N  N5  1  0.21921  0.96921  0.25000  1
 N  N6  1  0.96921  0.25000  0.21921  1
 N  N7  1  0.75000  0.78079  0.03079  1
 N  N8  1  0.50000  0.50000  0.50000  1
 N  N9  1  0.78079  0.03079  0.75000  1
 N  N10  1  0.03079  0.75000  0.78079  1
 N  N11  1  0.25000  0.71921  0.46921  1
 N  N12  1  0.00000  0.00000  0.50000  1
 N  N13  1  0.50000  0.00000  0.00000  1
 N  N14  1  0.71921  0.46921  0.25000  1
 N  N15  1  0.46921  0.25000  0.71921  1
 N  N16  1  -0.00000  0.50000  0.00000  1
