CIF file written using JARVIS-Tools package.
data_UInNi2
_symmetry_space_group_name_H-M  'Fm-3m'
_cell_length_a       4.57714
_cell_length_b       4.57689
_cell_length_c       4.57713
_cell_angle_alpha    59.9993
_cell_angle_beta     60.0022
_cell_angle_gamma    59.9942

_symmetry_Int_Tables_number  225
_chemical_formula_structural  UInNi2
_chemical_formula_sum  UInNi2
_cell_volume  67.79971808048283
_cell_formula_units_Z  1
loop_
  _symmetry_equiv_pos_site_id
 _symmetry_equiv_pos_as_xyz
 1  'x, y, z'
loop_
 _atom_site_type_symbol
 _atom_site_label
 _atom_site_symmetry_multiplicity
 _atom_site_fract_x
 _atom_site_fract_y
 _atom_site_fract_z
 _atom_site_fract_occupancy
 In  In1  1  -0.00001  -0.00000  0.00001  1
 Ni  Ni1  1  0.75000  0.75003  0.75003  1
 Ni  Ni2  1  0.25000  0.24997  0.24996  1
 U  U1  1  0.50001  0.50000  0.50000  1
