CIF file written using JARVIS-Tools package.
data_KAgF3
_symmetry_space_group_name_H-M  'Pm-3m'
_cell_length_a       6.14313
_cell_length_b       6.14637
_cell_length_c       8.69144
_cell_angle_alpha    90
_cell_angle_beta     90
_cell_angle_gamma    90

_symmetry_Int_Tables_number  221
_chemical_formula_structural  KAgF3
_chemical_formula_sum  K4Ag4F2
_cell_volume  328.1707832031884
_cell_formula_units_Z  4
loop_
  _symmetry_equiv_pos_site_id
 _symmetry_equiv_pos_as_xyz
 1  'x, y, z'
loop_
 _atom_site_type_symbol
 _atom_site_label
 _atom_site_symmetry_multiplicity
 _atom_site_fract_x
 _atom_site_fract_y
 _atom_site_fract_z
 _atom_site_fract_occupancy
 Ag  Ag1  1  0.00000  0.50000  0.50000  1
 Ag  Ag2  1  0.50000  0.00000  0.00000  1
 Ag  Ag3  1  0.00000  0.50000  0.00000  1
 Ag  Ag4  1  0.50000  0.00000  0.50000  1
 F  F1  1  0.50000  0.00000  0.25000  1
 F  F2  1  0.25000  0.25000  0.50000  1
 F  F3  1  0.75000  0.75000  0.00000  1
 F  F4  1  0.25000  0.75000  0.00000  1
 F  F5  1  0.25000  0.75000  0.50000  1
 F  F6  1  0.75000  0.75000  0.50000  1
 F  F7  1  0.25000  0.25000  0.00000  1
 F  F8  1  0.50000  0.00000  0.75000  1
 F  F9  1  0.75000  0.25000  0.50000  1
 F  F10  1  0.00000  0.50000  0.25000  1
 F  F11  1  0.00000  0.50000  0.75000  1
 F  F12  1  0.75000  0.25000  0.00000  1
 K  K1  1  0.00000  0.00000  0.25000  1
 K  K2  1  0.50000  0.50000  0.75000  1
 K  K3  1  0.50000  0.50000  0.25000  1
 K  K4  1  0.00000  0.00000  0.75000  1
