CIF file written using JARVIS-Tools package.
data_ThGa3
_symmetry_space_group_name_H-M  'P6_3/mmc'
_cell_length_a       6.48025
_cell_length_b       6.48025
_cell_length_c       4.59146
_cell_angle_alpha    90
_cell_angle_beta     90
_cell_angle_gamma    120

_symmetry_Int_Tables_number  194
_chemical_formula_structural  ThGa3
_chemical_formula_sum  Th2Ga6
_cell_volume  166.98003916866713
_cell_formula_units_Z  2
loop_
  _symmetry_equiv_pos_site_id
 _symmetry_equiv_pos_as_xyz
 1  'x, y, z'
loop_
 _atom_site_type_symbol
 _atom_site_label
 _atom_site_symmetry_multiplicity
 _atom_site_fract_x
 _atom_site_fract_y
 _atom_site_fract_z
 _atom_site_fract_occupancy
 Ga  Ga1  1  0.85711  0.71422  0.75000  1
 Ga  Ga2  1  0.85711  0.14289  0.75000  1
 Ga  Ga3  1  0.28578  0.14289  0.75000  1
 Ga  Ga4  1  0.14289  0.28578  0.25000  1
 Ga  Ga5  1  0.14289  0.85711  0.25000  1
 Ga  Ga6  1  0.71422  0.85711  0.25000  1
 Th  Th1  1  0.66667  0.33333  0.25000  1
 Th  Th2  1  0.33333  0.66667  0.75000  1
