CIF file written using JARVIS-Tools package.
data_ErPu3
_symmetry_space_group_name_H-M  'P6_3/mmc'
_cell_length_a       6.79448
_cell_length_b       6.79448
_cell_length_c       5.42728
_cell_angle_alpha    90
_cell_angle_beta     90
_cell_angle_gamma    120

_symmetry_Int_Tables_number  194
_chemical_formula_structural  ErPu3
_chemical_formula_sum  Er2Pu6
_cell_volume  216.98229089599172
_cell_formula_units_Z  2
loop_
  _symmetry_equiv_pos_site_id
 _symmetry_equiv_pos_as_xyz
 1  'x, y, z'
loop_
 _atom_site_type_symbol
 _atom_site_label
 _atom_site_symmetry_multiplicity
 _atom_site_fract_x
 _atom_site_fract_y
 _atom_site_fract_z
 _atom_site_fract_occupancy
 Er  Er1  1  0.33333  0.66667  0.75000  1
 Er  Er2  1  0.66667  0.33333  0.25000  1
 Pu  Pu1  1  0.67241  0.83620  0.25000  1
 Pu  Pu2  1  0.16380  0.83620  0.25000  1
 Pu  Pu3  1  0.16380  0.32759  0.25000  1
 Pu  Pu4  1  0.32759  0.16380  0.75000  1
 Pu  Pu5  1  0.83620  0.16380  0.75000  1
 Pu  Pu6  1  0.83620  0.67241  0.75000  1
