CIF file written using JARVIS-Tools package.
data_ThAu
_symmetry_space_group_name_H-M  'Cmcm'
_cell_length_a       3.87575
_cell_length_b       4.61901
_cell_length_c       6.19424
_cell_angle_alpha    90
_cell_angle_beta     71.7689
_cell_angle_gamma    90

_symmetry_Int_Tables_number  63
_chemical_formula_structural  ThAu
_chemical_formula_sum  Th2Au2
_cell_volume  105.32370341328124
_cell_formula_units_Z  2
loop_
  _symmetry_equiv_pos_site_id
 _symmetry_equiv_pos_as_xyz
 1  'x, y, z'
loop_
 _atom_site_type_symbol
 _atom_site_label
 _atom_site_symmetry_multiplicity
 _atom_site_fract_x
 _atom_site_fract_y
 _atom_site_fract_z
 _atom_site_fract_occupancy
 Au  Au1  1  0.42140  0.75000  0.15721  1
 Au  Au2  1  0.57860  0.25000  0.84279  1
 Th  Th1  1  0.14720  0.75000  0.70559  1
 Th  Th2  1  0.85280  0.25000  0.29441  1
