CIF file written using JARVIS-Tools package.
data_ZrAg2
_symmetry_space_group_name_H-M  'I4/mmm'
_cell_length_a       3.56243
_cell_length_b       3.56243
_cell_length_c       5.15971
_cell_angle_alpha    110.195
_cell_angle_beta     110.195
_cell_angle_gamma    90

_symmetry_Int_Tables_number  139
_chemical_formula_structural  ZrAg2
_chemical_formula_sum  ZrAg2
_cell_volume  57.14736052581244
_cell_formula_units_Z  1
loop_
  _symmetry_equiv_pos_site_id
 _symmetry_equiv_pos_as_xyz
 1  'x, y, z'
loop_
 _atom_site_type_symbol
 _atom_site_label
 _atom_site_symmetry_multiplicity
 _atom_site_fract_x
 _atom_site_fract_y
 _atom_site_fract_z
 _atom_site_fract_occupancy
 Ag  Ag1  1  0.67132  0.67132  0.34265  1
 Ag  Ag2  1  0.32868  0.32868  0.65735  1
 Zr  Zr1  1  0.00000  0.00000  0.00000  1
