CIF file written using JARVIS-Tools package.
data_LiCu2PO4
_symmetry_space_group_name_H-M  'C2'
_cell_length_a       4.67162
_cell_length_b       5.29928
_cell_length_c       4.36964
_cell_angle_alpha    66.7281
_cell_angle_beta     87.7649
_cell_angle_gamma    115.132

_symmetry_Int_Tables_number  5
_chemical_formula_structural  LiCu2PO4
_chemical_formula_sum  LiCu2PO4
_cell_volume  87.14161643030319
_cell_formula_units_Z  1
loop_
  _symmetry_equiv_pos_site_id
 _symmetry_equiv_pos_as_xyz
 1  'x, y, z'
loop_
 _atom_site_type_symbol
 _atom_site_label
 _atom_site_symmetry_multiplicity
 _atom_site_fract_x
 _atom_site_fract_y
 _atom_site_fract_z
 _atom_site_fract_occupancy
 Cu  Cu1  1  0.73633  0.47267  0.76367  1
 Cu  Cu2  1  0.54677  0.09354  0.45323  1
 Li  Li1  1  0.25177  0.50354  0.24823  1
 O  O1  1  0.92413  0.20200  0.11960  1
 O  O2  1  0.27787  0.20200  0.67840  1
 O  O3  1  0.67969  0.77363  0.93084  1
 O  O4  1  0.09394  0.77363  0.29553  1
 P  P1  1  -0.01050  -0.02100  0.01050  1
