CIF file written using JARVIS-Tools package.
data_V4O3F9
_symmetry_space_group_name_H-M  'P1'
_cell_length_a       5.03909
_cell_length_b       5.29683
_cell_length_c       8.8434
_cell_angle_alpha    72.4257
_cell_angle_beta     75.0573
_cell_angle_gamma    62.1211

_symmetry_Int_Tables_number  1
_chemical_formula_structural  V4O3F9
_chemical_formula_sum  V4O3F9
_cell_volume  196.9918396927969
_cell_formula_units_Z  1
loop_
  _symmetry_equiv_pos_site_id
 _symmetry_equiv_pos_as_xyz
 1  'x, y, z'
loop_
 _atom_site_type_symbol
 _atom_site_label
 _atom_site_symmetry_multiplicity
 _atom_site_fract_x
 _atom_site_fract_y
 _atom_site_fract_z
 _atom_site_fract_occupancy
 F  F1  1  0.32359  0.32870  0.42130  1
 F  F2  1  0.31969  0.94206  0.81863  1
 F  F3  1  0.75268  0.38266  0.88241  1
 F  F4  1  0.74574  0.11477  0.61180  1
 F  F5  1  0.81266  0.44957  0.31436  1
 F  F6  1  0.18166  0.54554  0.67976  1
 F  F7  1  0.25005  0.88099  0.38164  1
 F  F8  1  0.24931  0.62009  0.12363  1
 F  F9  1  0.68397  0.05814  0.18675  1
 O  O1  1  0.83652  0.83563  0.91508  1
 O  O2  1  0.17290  0.17044  0.08353  1
 O  O3  1  0.66175  0.66274  0.58207  1
 V  V1  1  0.75427  0.75407  0.75893  1
 V  V2  1  0.51486  0.51451  0.50436  1
 V  V3  1  0.24534  0.24504  0.23643  1
 V  V4  1  0.99501  0.99502  0.99931  1
