CIF file written using JARVIS-Tools package.
data_Co6O7F5
_symmetry_space_group_name_H-M  'Cm'
_cell_length_a       7.2699
_cell_length_b       5.3456
_cell_length_c       5.3456
_cell_angle_alpha    67.8031
_cell_angle_beta     69.4406
_cell_angle_gamma    69.4406

_symmetry_Int_Tables_number  8
_chemical_formula_structural  Co6O7F5
_chemical_formula_sum  Co6O7F5
_cell_volume  174.27964507920478
_cell_formula_units_Z  1
loop_
  _symmetry_equiv_pos_site_id
 _symmetry_equiv_pos_as_xyz
 1  'x, y, z'
loop_
 _atom_site_type_symbol
 _atom_site_label
 _atom_site_symmetry_multiplicity
 _atom_site_fract_x
 _atom_site_fract_y
 _atom_site_fract_z
 _atom_site_fract_occupancy
 Co  Co1  1  0.83324  0.66705  0.66705  1
 Co  Co2  1  0.32581  0.65195  0.65195  1
 Co  Co3  1  0.65323  0.33592  0.33592  1
 Co  Co4  1  0.18151  0.34145  0.34145  1
 Co  Co5  1  0.49679  0.99664  0.99664  1
 Co  Co6  1  0.00137  0.00511  0.00511  1
 F  F1  1  0.29701  0.88658  0.88658  1
 F  F2  1  0.64444  0.57156  0.57156  1
 F  F3  1  0.01947  0.76669  0.76669  1
 F  F4  1  0.70400  0.09767  0.09767  1
 F  F5  1  0.96549  0.24457  0.24457  1
 O  O1  1  0.66433  0.03215  0.63710  1
 O  O2  1  0.33414  0.35990  0.96632  1
 O  O3  1  0.33414  0.96632  0.35990  1
 O  O4  1  0.00469  0.30515  0.70172  1
 O  O5  1  0.00469  0.70172  0.30515  1
 O  O6  1  0.37133  0.43246  0.43246  1
 O  O7  1  0.66433  0.63710  0.03215  1
