CIF file written using JARVIS-Tools package.
data_CdInGaS4
_symmetry_space_group_name_H-M  'P-3m1'
_cell_length_a       3.89746
_cell_length_b       3.89746
_cell_length_c       25.215
_cell_angle_alpha    90
_cell_angle_beta     90
_cell_angle_gamma    120

_symmetry_Int_Tables_number  164
_chemical_formula_structural  CdInGaS4
_chemical_formula_sum  Cd2In2Ga2S8
_cell_volume  331.7059506144515
_cell_formula_units_Z  2
loop_
  _symmetry_equiv_pos_site_id
 _symmetry_equiv_pos_as_xyz
 1  'x, y, z'
loop_
 _atom_site_type_symbol
 _atom_site_label
 _atom_site_symmetry_multiplicity
 _atom_site_fract_x
 _atom_site_fract_y
 _atom_site_fract_z
 _atom_site_fract_occupancy
 Cd  Cd1  1  0.00000  0.00000  0.24210  1
 Cd  Cd2  1  0.00000  0.00000  0.75790  1
 Ga  Ga1  1  0.66667  0.33333  0.90226  1
 Ga  Ga2  1  0.33333  0.66667  0.09774  1
 In  In1  1  0.66667  0.33333  0.39423  1
 In  In2  1  0.33333  0.66667  0.60577  1
 S  S1  1  0.66667  0.33333  0.55979  1
 S  S2  1  0.33333  0.66667  0.70094  1
 S  S3  1  0.66667  0.33333  0.06080  1
 S  S4  1  0.33333  0.66667  0.44021  1
 S  S5  1  0.66667  0.33333  0.81455  1
 S  S6  1  0.66667  0.33333  0.29906  1
 S  S7  1  0.33333  0.66667  0.18545  1
 S  S8  1  0.33333  0.66667  0.93920  1
