CIF file written using JARVIS-Tools package.
data_ZrSnIr
_symmetry_space_group_name_H-M  'P-62c'
_cell_length_a       7.38686
_cell_length_b       7.38686
_cell_length_c       7.42569
_cell_angle_alpha    90
_cell_angle_beta     90
_cell_angle_gamma    120

_symmetry_Int_Tables_number  190
_chemical_formula_structural  ZrSnIr
_chemical_formula_sum  Zr6Sn6Ir6
_cell_volume  350.9038721567557
_cell_formula_units_Z  6
loop_
  _symmetry_equiv_pos_site_id
 _symmetry_equiv_pos_as_xyz
 1  'x, y, z'
loop_
 _atom_site_type_symbol
 _atom_site_label
 _atom_site_symmetry_multiplicity
 _atom_site_fract_x
 _atom_site_fract_y
 _atom_site_fract_z
 _atom_site_fract_occupancy
 Ir  Ir1  1  0.00000  0.00000  0.25000  1
 Ir  Ir2  1  0.33333  0.66667  0.46207  1
 Ir  Ir3  1  0.33333  0.66667  0.03793  1
 Ir  Ir4  1  0.66667  0.33333  0.96207  1
 Ir  Ir5  1  0.66667  0.33333  0.53793  1
 Ir  Ir6  1  0.00000  0.00000  0.75000  1
 Sn  Sn1  1  0.72913  0.00000  0.50000  1
 Sn  Sn2  1  0.72913  0.00000  0.00000  1
 Sn  Sn3  1  0.00000  0.72913  0.00000  1
 Sn  Sn4  1  0.27087  0.27087  0.50000  1
 Sn  Sn5  1  0.27087  0.27087  0.00000  1
 Sn  Sn6  1  0.00000  0.72913  0.50000  1
 Zr  Zr1  1  0.01958  0.40482  0.75000  1
 Zr  Zr2  1  0.59518  0.61476  0.75000  1
 Zr  Zr3  1  0.61476  0.59518  0.25000  1
 Zr  Zr4  1  0.40482  0.01958  0.25000  1
 Zr  Zr5  1  0.38524  0.98042  0.75000  1
 Zr  Zr6  1  0.98042  0.38524  0.25000  1
