CIF file written using JARVIS-Tools package.
data_Li4V3Cr3O12
_symmetry_space_group_name_H-M  'P-1'
_cell_length_a       5.07331
_cell_length_b       5.89463
_cell_length_c       7.71155
_cell_angle_alpha    78.5261
_cell_angle_beta     77.4604
_cell_angle_gamma    73.0254

_symmetry_Int_Tables_number  2
_chemical_formula_structural  Li4V3Cr3O12
_chemical_formula_sum  Li4V3Cr3O2
_cell_volume  213.02689827960617
_cell_formula_units_Z  1
loop_
  _symmetry_equiv_pos_site_id
 _symmetry_equiv_pos_as_xyz
 1  'x, y, z'
loop_
 _atom_site_type_symbol
 _atom_site_label
 _atom_site_symmetry_multiplicity
 _atom_site_fract_x
 _atom_site_fract_y
 _atom_site_fract_z
 _atom_site_fract_occupancy
 Cr  Cr1  1  0.49251  0.66821  0.83192  1
 Cr  Cr2  1  0.50749  0.33179  0.16808  1
 Cr  Cr3  1  0.50000  0.00000  0.50000  1
 Li  Li1  1  0.49890  0.83410  0.16694  1
 Li  Li2  1  0.50110  0.16590  0.83306  1
 Li  Li3  1  0.00642  0.66651  0.33574  1
 Li  Li4  1  0.99358  0.33349  0.66426  1
 O  O1  1  0.73889  0.01565  0.26374  1
 O  O2  1  0.26111  0.98435  0.73626  1
 O  O3  1  0.74928  0.69051  0.59645  1
 O  O4  1  0.73599  0.36239  0.92287  1
 O  O5  1  0.74743  0.81196  0.90749  1
 O  O6  1  0.23705  0.51145  0.76208  1
 O  O7  1  0.25072  0.30949  0.40355  1
 O  O8  1  0.76841  0.13738  0.57718  1
 O  O9  1  0.26401  0.63761  0.07713  1
 O  O10  1  0.23159  0.86262  0.42282  1
 O  O11  1  0.76295  0.48855  0.23792  1
 O  O12  1  0.25257  0.18804  0.09251  1
 V  V1  1  0.99404  0.17034  0.32689  1
 V  V2  1  0.00000  0.50000  0.00000  1
 V  V3  1  0.00596  0.82966  0.67311  1
