CIF file written using JARVIS-Tools package.
data_BaGa2Te4
_symmetry_space_group_name_H-M  'I422'
_cell_length_a       6.78174
_cell_length_b       6.93314
_cell_length_c       6.93314
_cell_angle_alpha    76.1664
_cell_angle_beta     60.7265
_cell_angle_gamma    60.7265

_symmetry_Int_Tables_number  97
_chemical_formula_structural  BaGa2Te4
_chemical_formula_sum  BaGa2Te4
_cell_volume  248.04393908074132
_cell_formula_units_Z  1
loop_
  _symmetry_equiv_pos_site_id
 _symmetry_equiv_pos_as_xyz
 1  'x, y, z'
loop_
 _atom_site_type_symbol
 _atom_site_label
 _atom_site_symmetry_multiplicity
 _atom_site_fract_x
 _atom_site_fract_y
 _atom_site_fract_z
 _atom_site_fract_occupancy
 Ba  Ba1  1  0.75000  -0.00001  0.00001  1
 Ga  Ga1  1  0.25000  0.50003  0.49997  1
 Ga  Ga2  1  0.75000  0.50002  0.49998  1
 Te  Te1  1  0.17093  0.49996  0.15807  1
 Te  Te2  1  0.32907  0.84193  0.50004  1
 Te  Te3  1  0.67086  0.15812  0.50004  1
 Te  Te4  1  0.82914  0.49996  0.84188  1
