CIF file written using JARVIS-Tools package.
data_Zr2Ga
_symmetry_space_group_name_H-M  'I4/mcm'
_cell_length_a       5.46657
_cell_length_b       5.45995
_cell_length_c       5.45995
_cell_angle_alpha    75.4865
_cell_angle_beta     59.9599
_cell_angle_gamma    59.9598

_symmetry_Int_Tables_number  140
_chemical_formula_structural  Zr2Ga
_chemical_formula_sum  Zr4Ga2
_cell_volume  122.12453526613197
_cell_formula_units_Z  2
loop_
  _symmetry_equiv_pos_site_id
 _symmetry_equiv_pos_as_xyz
 1  'x, y, z'
loop_
 _atom_site_type_symbol
 _atom_site_label
 _atom_site_symmetry_multiplicity
 _atom_site_fract_x
 _atom_site_fract_y
 _atom_site_fract_z
 _atom_site_fract_occupancy
 Ga  Ga1  1  0.25000  0.00000  -0.00000  1
 Ga  Ga2  1  0.75000  0.00000  0.00000  1
 Zr  Zr1  1  0.34633  0.80733  0.50000  1
 Zr  Zr2  1  0.15367  0.50000  0.19267  1
 Zr  Zr3  1  0.65367  0.19267  0.50000  1
 Zr  Zr4  1  0.84633  0.50000  0.80733  1
