CIF file written using JARVIS-Tools package.
data_CoMo2S4
_symmetry_space_group_name_H-M  'C2/m'
_cell_length_a       6.43562
_cell_length_b       6.73157
_cell_length_c       11.7577
_cell_angle_alpha    85.5441
_cell_angle_beta     105.877
_cell_angle_gamma    118.547

_symmetry_Int_Tables_number  12
_chemical_formula_structural  CoMo2S4
_chemical_formula_sum  Co4Mo8S6
_cell_volume  429.5210883749411
_cell_formula_units_Z  4
loop_
  _symmetry_equiv_pos_site_id
 _symmetry_equiv_pos_as_xyz
 1  'x, y, z'
loop_
 _atom_site_type_symbol
 _atom_site_label
 _atom_site_symmetry_multiplicity
 _atom_site_fract_x
 _atom_site_fract_y
 _atom_site_fract_z
 _atom_site_fract_occupancy
 Co  Co1  1  0.51242  0.80710  0.96774  1
 Co  Co2  1  0.76242  0.30710  0.46774  1
 Co  Co3  1  0.26244  0.30715  0.46774  1
 Co  Co4  1  0.01244  0.80715  0.96774  1
 Mo  Mo1  1  0.41022  0.86349  0.70706  1
 Mo  Mo2  1  0.11451  0.75077  0.22843  1
 Mo  Mo3  1  0.66034  0.36349  0.20706  1
 Mo  Mo4  1  0.36467  0.25076  0.72843  1
 Mo  Mo5  1  0.16024  0.36354  0.20705  1
 Mo  Mo6  1  0.61465  0.75073  0.22843  1
 Mo  Mo7  1  0.86450  0.25072  0.72843  1
 Mo  Mo8  1  0.91036  0.86354  0.70705  1
 S  S1  1  0.61858  0.65118  0.83600  1
 S  S2  1  0.89574  0.47567  0.06583  1
 S  S3  1  0.37912  0.63866  0.36962  1
 S  S4  1  0.87913  0.63858  0.36966  1
 S  S5  1  0.62911  0.13858  0.86966  1
 S  S6  1  0.36854  0.15119  0.33600  1
 S  S7  1  0.14577  0.97567  0.56583  1
 S  S8  1  0.64573  0.97561  0.56586  1
 S  S9  1  0.11854  0.65116  0.83602  1
 S  S10  1  0.90630  0.96310  0.09947  1
 S  S11  1  0.65632  0.46310  0.59947  1
 S  S12  1  0.39575  0.47561  0.06586  1
 S  S13  1  0.40632  0.96307  0.09949  1
 S  S14  1  0.86858  0.15116  0.33602  1
 S  S15  1  0.15630  0.46307  0.59949  1
 S  S16  1  0.12915  0.13866  0.86962  1
