CIF file written using JARVIS-Tools package.
data_MgSeO4
_symmetry_space_group_name_H-M  'Pnma'
_cell_length_a       4.93673
_cell_length_b       6.72135
_cell_length_c       9.12487
_cell_angle_alpha    90
_cell_angle_beta     90
_cell_angle_gamma    90

_symmetry_Int_Tables_number  62
_chemical_formula_structural  MgSeO4
_chemical_formula_sum  Mg4Se4O6
_cell_volume  302.776772397852
_cell_formula_units_Z  4
loop_
  _symmetry_equiv_pos_site_id
 _symmetry_equiv_pos_as_xyz
 1  'x, y, z'
loop_
 _atom_site_type_symbol
 _atom_site_label
 _atom_site_symmetry_multiplicity
 _atom_site_fract_x
 _atom_site_fract_y
 _atom_site_fract_z
 _atom_site_fract_occupancy
 Mg  Mg1  1  0.00000  0.50000  0.00000  1
 Mg  Mg2  1  0.50000  0.00000  0.50000  1
 Mg  Mg3  1  0.00000  0.00000  0.00000  1
 Mg  Mg4  1  0.50000  0.50000  0.50000  1
 O  O1  1  0.69995  0.25000  0.37758  1
 O  O2  1  0.83016  0.95693  0.62472  1
 O  O3  1  0.56040  0.75000  0.36579  1
 O  O4  1  0.16984  0.04307  0.37528  1
 O  O5  1  0.66984  0.54307  0.12472  1
 O  O6  1  0.93960  0.75000  0.86579  1
 O  O7  1  0.33016  0.04307  0.87528  1
 O  O8  1  0.66984  0.95693  0.12472  1
 O  O9  1  0.30005  0.75000  0.62242  1
 O  O10  1  0.80005  0.25000  0.87758  1
 O  O11  1  0.43960  0.25000  0.63421  1
 O  O12  1  0.06040  0.25000  0.13421  1
 O  O13  1  0.33016  0.45693  0.87528  1
 O  O14  1  0.19995  0.75000  0.12242  1
 O  O15  1  0.83016  0.54307  0.62472  1
 O  O16  1  0.16984  0.45693  0.37528  1
 Se  Se1  1  0.97699  0.75000  0.68118  1
 Se  Se2  1  0.52301  0.75000  0.18118  1
 Se  Se3  1  0.02301  0.25000  0.31882  1
 Se  Se4  1  0.47699  0.25000  0.81882  1
