CIF file written using JARVIS-Tools package.
data_MgIr2
_symmetry_space_group_name_H-M  'P6_3/mmc'
_cell_length_a       5.21438
_cell_length_b       5.21438
_cell_length_c       8.44335
_cell_angle_alpha    90
_cell_angle_beta     90
_cell_angle_gamma    120

_symmetry_Int_Tables_number  194
_chemical_formula_structural  MgIr2
_chemical_formula_sum  Mg4Ir8
_cell_volume  198.81576341523282
_cell_formula_units_Z  4
loop_
  _symmetry_equiv_pos_site_id
 _symmetry_equiv_pos_as_xyz
 1  'x, y, z'
loop_
 _atom_site_type_symbol
 _atom_site_label
 _atom_site_symmetry_multiplicity
 _atom_site_fract_x
 _atom_site_fract_y
 _atom_site_fract_z
 _atom_site_fract_occupancy
 Ir  Ir1  1  0.00000  0.00000  0.00000  1
 Ir  Ir2  1  0.00000  0.00000  0.50000  1
 Ir  Ir3  1  0.82787  0.17213  0.75000  1
 Ir  Ir4  1  0.17213  0.34427  0.25000  1
 Ir  Ir5  1  0.65573  0.82787  0.25000  1
 Ir  Ir6  1  0.34427  0.17213  0.75000  1
 Ir  Ir7  1  0.82787  0.65573  0.75000  1
 Ir  Ir8  1  0.17213  0.82787  0.25000  1
 Mg  Mg1  1  0.33333  0.66667  0.93083  1
 Mg  Mg2  1  0.66667  0.33333  0.43083  1
 Mg  Mg3  1  0.66667  0.33333  0.06917  1
 Mg  Mg4  1  0.33333  0.66667  0.56917  1
