CIF file written using JARVIS-Tools package.
data_BCl
_symmetry_space_group_name_H-M  'P4_2/nmc'
_cell_length_a       7.99238
_cell_length_b       7.99238
_cell_length_c       5.28063
_cell_angle_alpha    90
_cell_angle_beta     90
_cell_angle_gamma    90

_symmetry_Int_Tables_number  137
_chemical_formula_structural  BCl
_chemical_formula_sum  B8Cl8
_cell_volume  337.3166069984924
_cell_formula_units_Z  8
loop_
  _symmetry_equiv_pos_site_id
 _symmetry_equiv_pos_as_xyz
 1  'x, y, z'
loop_
 _atom_site_type_symbol
 _atom_site_label
 _atom_site_symmetry_multiplicity
 _atom_site_fract_x
 _atom_site_fract_y
 _atom_site_fract_z
 _atom_site_fract_occupancy
 B  B1  1  0.39470  0.50000  0.88670  1
 B  B2  1  0.00000  0.89470  0.38670  1
 B  B3  1  0.00000  0.10530  0.38670  1
 B  B4  1  0.50000  0.60530  0.11330  1
 B  B5  1  0.50000  0.39470  0.11330  1
 B  B6  1  0.60530  0.50000  0.88670  1
 B  B7  1  0.89470  0.00000  0.61330  1
 B  B8  1  0.10530  0.00000  0.61330  1
 Cl  Cl1  1  0.50000  0.77888  0.30680  1
 Cl  Cl2  1  0.27888  0.00000  0.80680  1
 Cl  Cl3  1  0.72112  0.00000  0.80680  1
 Cl  Cl4  1  0.00000  0.27888  0.19320  1
 Cl  Cl5  1  0.00000  0.72112  0.19320  1
 Cl  Cl6  1  0.50000  0.22112  0.30680  1
 Cl  Cl7  1  0.77888  0.50000  0.69320  1
 Cl  Cl8  1  0.22112  0.50000  0.69320  1
