CIF file written using JARVIS-Tools package.
data_CdH2O2
_symmetry_space_group_name_H-M  'P3m1'
_cell_length_a       3.82333
_cell_length_b       3.82376
_cell_length_c       4.21546
_cell_angle_alpha    89.9999
_cell_angle_beta     89.9998
_cell_angle_gamma    120.004

_symmetry_Int_Tables_number  156
_chemical_formula_structural  CdH2O2
_chemical_formula_sum  CdH2O2
_cell_volume  53.36930525772655
_cell_formula_units_Z  1
loop_
  _symmetry_equiv_pos_site_id
 _symmetry_equiv_pos_as_xyz
 1  'x, y, z'
loop_
 _atom_site_type_symbol
 _atom_site_label
 _atom_site_symmetry_multiplicity
 _atom_site_fract_x
 _atom_site_fract_y
 _atom_site_fract_z
 _atom_site_fract_occupancy
 Cd  Cd1  1  0.99998  0.99999  0.97433  1
 H  H1  1  0.66673  0.33336  0.01560  1
 H  H2  1  0.33333  0.66667  0.44312  1
 O  O1  1  0.66663  0.33332  0.78145  1
 O  O2  1  0.33333  0.66666  0.21086  1
