CIF file written using JARVIS-Tools package.
data_CeSe2
_symmetry_space_group_name_H-M  'P-62m'
_cell_length_a       7.70704
_cell_length_b       7.70704
_cell_length_c       4.24686
_cell_angle_alpha    90
_cell_angle_beta     90
_cell_angle_gamma    120

_symmetry_Int_Tables_number  189
_chemical_formula_structural  CeSe2
_chemical_formula_sum  Ce3Se6
_cell_volume  218.4605319605855
_cell_formula_units_Z  3
loop_
  _symmetry_equiv_pos_site_id
 _symmetry_equiv_pos_as_xyz
 1  'x, y, z'
loop_
 _atom_site_type_symbol
 _atom_site_label
 _atom_site_symmetry_multiplicity
 _atom_site_fract_x
 _atom_site_fract_y
 _atom_site_fract_z
 _atom_site_fract_occupancy
 Ce  Ce1  1  0.33333  0.66667  0.50000  1
 Ce  Ce2  1  0.66667  0.33333  0.50000  1
 Ce  Ce3  1  0.00000  0.00000  0.00000  1
 Se  Se1  1  0.00000  0.25937  0.50000  1
 Se  Se2  1  0.25937  0.00000  0.50000  1
 Se  Se3  1  0.74063  0.74063  0.50000  1
 Se  Se4  1  1.00000  0.59499  0.00000  1
 Se  Se5  1  0.59499  1.00000  0.00000  1
 Se  Se6  1  0.40501  0.40501  0.00000  1
