CIF file written using JARVIS-Tools package.
data_CaSeO3
_symmetry_space_group_name_H-M  'Pnma'
_cell_length_a       5.41903
_cell_length_b       6.40475
_cell_length_c       8.37028
_cell_angle_alpha    90
_cell_angle_beta     90
_cell_angle_gamma    90

_symmetry_Int_Tables_number  62
_chemical_formula_structural  CaSeO3
_chemical_formula_sum  Ca4Se4O2
_cell_volume  290.51170958378304
_cell_formula_units_Z  4
loop_
  _symmetry_equiv_pos_site_id
 _symmetry_equiv_pos_as_xyz
 1  'x, y, z'
loop_
 _atom_site_type_symbol
 _atom_site_label
 _atom_site_symmetry_multiplicity
 _atom_site_fract_x
 _atom_site_fract_y
 _atom_site_fract_z
 _atom_site_fract_occupancy
 Ca  Ca1  1  0.00000  0.50000  0.00000  1
 Ca  Ca2  1  0.00000  0.50000  0.50000  1
 Ca  Ca3  1  0.50000  0.00000  0.00000  1
 Ca  Ca4  1  0.50000  0.00000  0.50000  1
 O  O1  1  0.20264  0.41843  0.25000  1
 O  O2  1  0.86959  0.82876  0.40860  1
 O  O3  1  0.13041  0.17124  0.90860  1
 O  O4  1  0.36959  0.67124  0.59140  1
 O  O5  1  0.13041  0.17124  0.59140  1
 O  O6  1  0.29736  0.91843  0.25000  1
 O  O7  1  0.70264  0.08157  0.75000  1
 O  O8  1  0.63041  0.32876  0.40860  1
 O  O9  1  0.36959  0.67124  0.90860  1
 O  O10  1  0.86959  0.82876  0.09140  1
 O  O11  1  0.63041  0.32876  0.09140  1
 O  O12  1  0.79736  0.58157  0.75000  1
 Se  Se1  1  0.98444  0.97594  0.25000  1
 Se  Se2  1  0.51556  0.47594  0.25000  1
 Se  Se3  1  0.48444  0.52406  0.75000  1
 Se  Se4  1  0.01556  0.02406  0.75000  1
