CIF file written using JARVIS-Tools package.
data_Sm5Mg
_symmetry_space_group_name_H-M  'Amm2'
_cell_length_a       3.62592
_cell_length_b       9.21716
_cell_length_c       5.71141
_cell_angle_alpha    90
_cell_angle_beta     90
_cell_angle_gamma    78.6563

_symmetry_Int_Tables_number  38
_chemical_formula_structural  Sm5Mg
_chemical_formula_sum  Sm5Mg
_cell_volume  187.15030842531792
_cell_formula_units_Z  1
loop_
  _symmetry_equiv_pos_site_id
 _symmetry_equiv_pos_as_xyz
 1  'x, y, z'
loop_
 _atom_site_type_symbol
 _atom_site_label
 _atom_site_symmetry_multiplicity
 _atom_site_fract_x
 _atom_site_fract_y
 _atom_site_fract_z
 _atom_site_fract_occupancy
 Mg  Mg1  1  0.78124  0.43751  0.50000  1
 Sm  Sm1  1  0.99477  0.01046  0.00000  1
 Sm  Sm2  1  0.32628  0.34743  0.00000  1
 Sm  Sm3  1  0.66562  0.66876  0.00000  1
 Sm  Sm4  1  0.44619  0.10761  0.50000  1
 Sm  Sm5  1  0.11922  0.76156  0.50000  1
