CIF file written using JARVIS-Tools package.
data_YbAlAu
_symmetry_space_group_name_H-M  'Pnma'
_cell_length_a       4.44246
_cell_length_b       7.12176
_cell_length_c       7.9106
_cell_angle_alpha    90
_cell_angle_beta     90
_cell_angle_gamma    90

_symmetry_Int_Tables_number  62
_chemical_formula_structural  YbAlAu
_chemical_formula_sum  Yb4Al4Au4
_cell_volume  250.27665758610652
_cell_formula_units_Z  4
loop_
  _symmetry_equiv_pos_site_id
 _symmetry_equiv_pos_as_xyz
 1  'x, y, z'
loop_
 _atom_site_type_symbol
 _atom_site_label
 _atom_site_symmetry_multiplicity
 _atom_site_fract_x
 _atom_site_fract_y
 _atom_site_fract_z
 _atom_site_fract_occupancy
 Al  Al1  1  0.25000  0.64170  0.55910  1
 Al  Al2  1  0.25000  0.14170  0.94090  1
 Al  Al3  1  0.75000  0.35830  0.44090  1
 Al  Al4  1  0.75000  0.85830  0.05910  1
 Au  Au1  1  0.25000  0.77737  0.87161  1
 Au  Au2  1  0.25000  0.27737  0.62839  1
 Au  Au3  1  0.75000  0.72263  0.37161  1
 Au  Au4  1  0.75000  0.22263  0.12839  1
 Yb  Yb1  1  0.75000  0.47117  0.82561  1
 Yb  Yb2  1  0.25000  0.02883  0.32561  1
 Yb  Yb3  1  0.75000  0.97117  0.67439  1
 Yb  Yb4  1  0.25000  0.52883  0.17439  1
