CIF file written using JARVIS-Tools package.
data_PCl5
_symmetry_space_group_name_H-M  'C2/m'
_cell_length_a       8.09957
_cell_length_b       8.5456
_cell_length_c       8.75321
_cell_angle_alpha    118.196
_cell_angle_beta     90
_cell_angle_gamma    118.288

_symmetry_Int_Tables_number  12
_chemical_formula_structural  PCl5
_chemical_formula_sum  P3Cl5
_cell_volume  450.203970370089
_cell_formula_units_Z  3
loop_
  _symmetry_equiv_pos_site_id
 _symmetry_equiv_pos_as_xyz
 1  'x, y, z'
loop_
 _atom_site_type_symbol
 _atom_site_label
 _atom_site_symmetry_multiplicity
 _atom_site_fract_x
 _atom_site_fract_y
 _atom_site_fract_z
 _atom_site_fract_occupancy
 Cl  Cl1  1  0.78803  0.57606  0.05916  1
 Cl  Cl2  1  0.33784  0.67569  0.43316  1
 Cl  Cl3  1  0.64950  0.91992  0.29762  1
 Cl  Cl4  1  0.14686  0.29372  0.52780  1
 Cl  Cl5  1  0.55437  0.70968  0.83299  1
 Cl  Cl6  1  0.66216  0.32431  0.56684  1
 Cl  Cl7  1  0.00000  0.00000  0.00000  1
 Cl  Cl8  1  0.72958  0.08008  0.70238  1
 Cl  Cl9  1  0.84469  0.29032  0.16701  1
 Cl  Cl10  1  0.44563  0.29032  0.16701  1
 Cl  Cl11  1  0.21197  0.42394  0.94084  1
 Cl  Cl12  1  0.85314  0.70628  0.47220  1
 Cl  Cl13  1  0.35050  0.08008  0.70238  1
 Cl  Cl14  1  0.15531  0.70968  0.83299  1
 Cl  Cl15  1  0.27042  0.91992  0.29762  1
 P  P1  1  0.50000  0.00000  0.50000  1
 P  P2  1  0.73255  0.46510  0.21872  1
 P  P3  1  0.26745  0.53490  0.78128  1
