CIF file written using JARVIS-Tools package.
data_CuRh2Se4
_symmetry_space_group_name_H-M  'Fd-3m'
_cell_length_a       7.34508
_cell_length_b       7.34509
_cell_length_c       7.34509
_cell_angle_alpha    60
_cell_angle_beta     60
_cell_angle_gamma    60

_symmetry_Int_Tables_number  227
_chemical_formula_structural  CuRh2Se4
_chemical_formula_sum  Cu2Rh4Se8
_cell_volume  280.20485216357196
_cell_formula_units_Z  2
loop_
  _symmetry_equiv_pos_site_id
 _symmetry_equiv_pos_as_xyz
 1  'x, y, z'
loop_
 _atom_site_type_symbol
 _atom_site_label
 _atom_site_symmetry_multiplicity
 _atom_site_fract_x
 _atom_site_fract_y
 _atom_site_fract_z
 _atom_site_fract_occupancy
 Cu  Cu1  1  0.87500  0.87500  0.87500  1
 Cu  Cu2  1  0.12500  0.12500  0.12500  1
 Rh  Rh1  1  0.50000  0.50000  0.50000  1
 Rh  Rh2  1  0.50000  0.00000  0.50000  1
 Rh  Rh3  1  -0.00000  0.50000  0.50000  1
 Rh  Rh4  1  0.50000  0.50000  0.00000  1
 Se  Se1  1  0.25930  0.25930  0.72211  1
 Se  Se2  1  0.74070  0.74070  0.74070  1
 Se  Se3  1  0.74070  0.74070  0.27789  1
 Se  Se4  1  0.25930  0.72211  0.25930  1
 Se  Se5  1  0.25930  0.25930  0.25930  1
 Se  Se6  1  0.27789  0.74070  0.74070  1
 Se  Se7  1  0.74070  0.27789  0.74070  1
 Se  Se8  1  0.72211  0.25930  0.25930  1
