CIF file written using JARVIS-Tools package.
data_Te8Mo3W
_symmetry_space_group_name_H-M  'P3m1'
_cell_length_a       3.56822
_cell_length_b       3.56821
_cell_length_c       38.0255
_cell_angle_alpha    90.0009
_cell_angle_beta     89.9999
_cell_angle_gamma    120

_symmetry_Int_Tables_number  156
_chemical_formula_structural  Te8Mo3W
_chemical_formula_sum  Te8Mo3W
_cell_volume  419.2833415091364
_cell_formula_units_Z  1
loop_
  _symmetry_equiv_pos_site_id
 _symmetry_equiv_pos_as_xyz
 1  'x, y, z'
loop_
 _atom_site_type_symbol
 _atom_site_label
 _atom_site_symmetry_multiplicity
 _atom_site_fract_x
 _atom_site_fract_y
 _atom_site_fract_z
 _atom_site_fract_occupancy
 Mo  Mo1  1  0.33331  0.66663  0.09458  1
 Mo  Mo2  1  0.66667  0.33335  0.28191  1
 Mo  Mo3  1  0.66668  0.33337  0.65697  1
 Te  Te1  1  0.33334  0.66669  0.32956  1
 Te  Te2  1  0.33335  0.66672  0.70455  1
 Te  Te3  1  0.66665  0.33329  0.04700  1
 Te  Te4  1  0.66666  0.33330  0.42164  1
 Te  Te5  1  0.66665  0.33330  0.14226  1
 Te  Te6  1  0.66667  0.33332  0.51728  1
 Te  Te7  1  0.33334  0.66668  0.23425  1
 Te  Te8  1  0.33334  0.66669  0.60930  1
 W  W1  1  0.33333  0.66664  0.46946  1
