CIF file written using JARVIS-Tools package.
data_Sr2H3I
_symmetry_space_group_name_H-M  'P-3m1'
_cell_length_a       4.22728
_cell_length_b       4.22728
_cell_length_c       7.63566
_cell_angle_alpha    90
_cell_angle_beta     90
_cell_angle_gamma    120

_symmetry_Int_Tables_number  164
_chemical_formula_structural  Sr2H3I
_chemical_formula_sum  Sr2H3I
_cell_volume  118.16782924092556
_cell_formula_units_Z  1
loop_
  _symmetry_equiv_pos_site_id
 _symmetry_equiv_pos_as_xyz
 1  'x, y, z'
loop_
 _atom_site_type_symbol
 _atom_site_label
 _atom_site_symmetry_multiplicity
 _atom_site_fract_x
 _atom_site_fract_y
 _atom_site_fract_z
 _atom_site_fract_occupancy
 H  H1  1  0.00000  0.00000  0.50000  1
 H  H2  1  0.66667  0.33333  0.64500  1
 H  H3  1  0.33333  0.66667  0.35500  1
 I  I1  1  0.00000  0.00000  0.00000  1
 Sr  Sr1  1  0.66667  0.33333  0.32033  1
 Sr  Sr2  1  0.33333  0.66667  0.67967  1
