CIF file written using JARVIS-Tools package.
data_ZrAu2
_symmetry_space_group_name_H-M  'I4/mmm'
_cell_length_a       3.59653
_cell_length_b       3.59653
_cell_length_c       5.09429
_cell_angle_alpha    110.671
_cell_angle_beta     110.671
_cell_angle_gamma    90

_symmetry_Int_Tables_number  139
_chemical_formula_structural  ZrAu2
_chemical_formula_sum  ZrAu2
_cell_volume  57.09640319519889
_cell_formula_units_Z  1
loop_
  _symmetry_equiv_pos_site_id
 _symmetry_equiv_pos_as_xyz
 1  'x, y, z'
loop_
 _atom_site_type_symbol
 _atom_site_label
 _atom_site_symmetry_multiplicity
 _atom_site_fract_x
 _atom_site_fract_y
 _atom_site_fract_z
 _atom_site_fract_occupancy
 Au  Au1  1  0.66730  0.66730  0.33461  1
 Au  Au2  1  0.33270  0.33270  0.66539  1
 Zr  Zr1  1  0.00000  0.00000  0.00000  1
