CIF file written using JARVIS-Tools package.
data_Li3V4O3F9
_symmetry_space_group_name_H-M  'P1'
_cell_length_a       5.02468
_cell_length_b       5.41181
_cell_length_c       7.57763
_cell_angle_alpha    95.1956
_cell_angle_beta     90.853
_cell_angle_gamma    92.2648

_symmetry_Int_Tables_number  1
_chemical_formula_structural  Li3V4O3F9
_chemical_formula_sum  Li3V4O3F9
_cell_volume  205.01347242318135
_cell_formula_units_Z  1
loop_
  _symmetry_equiv_pos_site_id
 _symmetry_equiv_pos_as_xyz
 1  'x, y, z'
loop_
 _atom_site_type_symbol
 _atom_site_label
 _atom_site_symmetry_multiplicity
 _atom_site_fract_x
 _atom_site_fract_y
 _atom_site_fract_z
 _atom_site_fract_occupancy
 F  F1  1  0.14879  0.97046  0.25167  1
 F  F2  1  0.32114  0.82816  0.58172  1
 F  F3  1  0.34885  0.50797  0.24813  1
 F  F4  1  0.63133  0.49918  0.74687  1
 F  F5  1  0.67683  0.18638  0.41614  1
 F  F6  1  0.81772  0.31286  0.08804  1
 F  F7  1  0.84876  0.02298  0.75098  1
 F  F8  1  0.19679  0.69077  0.91780  1
 F  F9  1  0.18659  0.31850  0.55435  1
 Li  Li1  1  0.97955  0.59923  0.21983  1
 Li  Li2  1  0.49092  0.93071  0.80287  1
 Li  Li3  1  0.51346  0.05112  0.19638  1
 O  O1  1  0.70523  0.79874  0.05496  1
 O  O2  1  0.31879  0.18663  0.95992  1
 O  O3  1  0.80052  0.70469  0.44654  1
 V  V1  1  0.00551  0.00089  0.99496  1
 V  V2  1  0.50169  0.49496  0.99239  1
 V  V3  1  0.51460  0.51305  0.49613  1
 V  V4  1  0.99142  0.99343  0.50149  1
