CIF file written using JARVIS-Tools package.
data_B2Mo2Ir
_symmetry_space_group_name_H-M  'Pnnm'
_cell_length_a       3.26787
_cell_length_b       7.4049
_cell_length_c       9.43457
_cell_angle_alpha    90
_cell_angle_beta     90
_cell_angle_gamma    90

_symmetry_Int_Tables_number  58
_chemical_formula_structural  B2Mo2Ir
_chemical_formula_sum  B8Mo8Ir4
_cell_volume  228.29993412306538
_cell_formula_units_Z  4
loop_
  _symmetry_equiv_pos_site_id
 _symmetry_equiv_pos_as_xyz
 1  'x, y, z'
loop_
 _atom_site_type_symbol
 _atom_site_label
 _atom_site_symmetry_multiplicity
 _atom_site_fract_x
 _atom_site_fract_y
 _atom_site_fract_z
 _atom_site_fract_occupancy
 B  B1  1  0.50000  0.12400  0.26349  1
 B  B2  1  0.00000  0.61495  0.04104  1
 B  B3  1  0.00000  0.38505  0.95896  1
 B  B4  1  0.00000  0.37600  0.76349  1
 B  B5  1  0.50000  0.11495  0.45896  1
 B  B6  1  0.00000  0.62400  0.23651  1
 B  B7  1  0.50000  0.87600  0.73651  1
 B  B8  1  0.50000  0.88505  0.54104  1
 Ir  Ir1  1  0.50000  0.62072  0.38884  1
 Ir  Ir2  1  0.00000  0.87928  0.88884  1
 Ir  Ir3  1  0.50000  0.37928  0.61116  1
 Ir  Ir4  1  0.00000  0.12072  0.11116  1
 Mo  Mo1  1  0.50000  0.18989  0.86957  1
 Mo  Mo2  1  0.00000  0.07308  0.63827  1
 Mo  Mo3  1  0.00000  0.68989  0.63043  1
 Mo  Mo4  1  0.50000  0.42692  0.13827  1
 Mo  Mo5  1  0.50000  0.81011  0.13043  1
 Mo  Mo6  1  0.00000  0.92692  0.36173  1
 Mo  Mo7  1  0.00000  0.31011  0.36957  1
 Mo  Mo8  1  0.50000  0.57308  0.86173  1
