CIF file written using JARVIS-Tools package.
data_Ti3O5
_symmetry_space_group_name_H-M  'Cmcm'
_cell_length_a       3.78846
_cell_length_b       5.28919
_cell_length_c       10.027
_cell_angle_alpha    90
_cell_angle_beta     90
_cell_angle_gamma    110.986

_symmetry_Int_Tables_number  63
_chemical_formula_structural  Ti3O5
_chemical_formula_sum  Ti6O0
_cell_volume  187.59256128016236
_cell_formula_units_Z  2
loop_
  _symmetry_equiv_pos_site_id
 _symmetry_equiv_pos_as_xyz
 1  'x, y, z'
loop_
 _atom_site_type_symbol
 _atom_site_label
 _atom_site_symmetry_multiplicity
 _atom_site_fract_x
 _atom_site_fract_y
 _atom_site_fract_z
 _atom_site_fract_occupancy
 O  O1  1  0.26694  0.53387  0.75000  1
 O  O2  1  0.73306  0.46613  0.25000  1
 O  O3  1  0.55113  0.10227  0.87688  1
 O  O4  1  0.44887  0.89773  0.12312  1
 O  O5  1  0.44887  0.89773  0.37688  1
 O  O6  1  0.55113  0.10227  0.62312  1
 O  O7  1  0.18276  0.36551  0.43201  1
 O  O8  1  0.81724  0.63449  0.56799  1
 O  O9  1  0.81724  0.63449  0.93201  1
 O  O10  1  0.18276  0.36551  0.06799  1
 Ti  Ti1  1  0.30149  0.60298  0.25000  1
 Ti  Ti2  1  0.69851  0.39702  0.75000  1
 Ti  Ti3  1  0.63075  0.26150  0.05794  1
 Ti  Ti4  1  0.36925  0.73850  0.94206  1
 Ti  Ti5  1  0.36925  0.73850  0.55794  1
 Ti  Ti6  1  0.63075  0.26150  0.44206  1
