CIF file written using JARVIS-Tools package.
data_Mo3WSe4S4
_symmetry_space_group_name_H-M  'P3m1'
_cell_length_a       3.25597
_cell_length_b       3.25603
_cell_length_c       32.0209
_cell_angle_alpha    89.9955
_cell_angle_beta     90.0051
_cell_angle_gamma    119.994

_symmetry_Int_Tables_number  156
_chemical_formula_structural  Mo3WSe4S4
_chemical_formula_sum  Mo3WSe4S4
_cell_volume  294.00856379779873
_cell_formula_units_Z  1
loop_
  _symmetry_equiv_pos_site_id
 _symmetry_equiv_pos_as_xyz
 1  'x, y, z'
loop_
 _atom_site_type_symbol
 _atom_site_label
 _atom_site_symmetry_multiplicity
 _atom_site_fract_x
 _atom_site_fract_y
 _atom_site_fract_z
 _atom_site_fract_occupancy
 Mo  Mo1  1  0.33321  0.66633  0.07872  1
 Mo  Mo2  1  0.66681  0.33403  0.27893  1
 Mo  Mo3  1  0.66683  0.33340  0.67318  1
 S  S1  1  0.33335  0.66714  0.32721  1
 S  S2  1  0.66651  0.33268  0.42356  1
 S  S3  1  0.66657  0.33309  0.52062  1
 S  S4  1  0.33339  0.66739  0.23063  1
 Se  Se1  1  0.33339  0.66656  0.72618  1
 Se  Se2  1  0.66658  0.33301  0.02573  1
 Se  Se3  1  0.66669  0.33315  0.13177  1
 Se  Se4  1  0.33351  0.66688  0.62013  1
 W  W1  1  0.33317  0.66633  0.47208  1
