CIF file written using JARVIS-Tools package.
data_LaScSi
_symmetry_space_group_name_H-M  'I4/mmm'
_cell_length_a       4.33343
_cell_length_b       4.33343
_cell_length_c       8.62469
_cell_angle_alpha    104.55
_cell_angle_beta     104.55
_cell_angle_gamma    90

_symmetry_Int_Tables_number  139
_chemical_formula_structural  LaScSi
_chemical_formula_sum  La2Sc2Si2
_cell_volume  151.39306733379635
_cell_formula_units_Z  2
loop_
  _symmetry_equiv_pos_site_id
 _symmetry_equiv_pos_as_xyz
 1  'x, y, z'
loop_
 _atom_site_type_symbol
 _atom_site_label
 _atom_site_symmetry_multiplicity
 _atom_site_fract_x
 _atom_site_fract_y
 _atom_site_fract_z
 _atom_site_fract_occupancy
 La  La1  1  0.32305  0.32305  0.64610  1
 La  La2  1  0.67695  0.67695  0.35390  1
 Sc  Sc1  1  0.00000  0.50000  0.00000  1
 Sc  Sc2  1  0.50000  0.00000  0.00000  1
 Si  Si1  1  0.11856  0.11856  0.23712  1
 Si  Si2  1  0.88144  0.88144  0.76288  1
