data_image0
_chemical_formula_structural       O6V2Zn
_chemical_formula_sum              "O6 V2 Zn1"
_cell_length_a       3.543
_cell_length_b       4.9304
_cell_length_c       6.51655
_cell_angle_alpha    111.223
_cell_angle_beta     90
_cell_angle_gamma    111.057

_space_group_name_H-M_alt    "P 1"
_space_group_IT_number       1

loop_
  _space_group_symop_operation_xyz
  'x, y, z'

loop_
  _atom_site_type_symbol
  _atom_site_label
  _atom_site_symmetry_multiplicity
  _atom_site_fract_x
  _atom_site_fract_y
  _atom_site_fract_z
  _atom_site_occupancy
  O   O1        1.0  0.63400  0.31400  0.10700  1.0000
  O   O2        1.0  0.95200  0.95200  0.28600  1.0000
  O   O3        1.0  0.28500  0.61700  0.43500  1.0000
  O   O4        1.0  0.66800  0.38300  0.56500  1.0000
  O   O5        1.0  0.00000  0.04790  0.71400  1.0000
  O   O6        1.0  0.32000  0.68600  0.89300  1.0000
  V   V1        1.0  0.79000  0.62700  0.35400  1.0000
  V   V2        1.0  0.16300  0.37300  0.64600  1.0000
  Zn  Zn1       1.0  0.98100  0.00000  0.00000  1.0000
