CIF file written using JARVIS-Tools package.
data_Rb3YO3
_symmetry_space_group_name_H-M  'C2/m'
_cell_length_a       7.21611
_cell_length_b       7.21611
_cell_length_c       7.18222
_cell_angle_alpha    85.1648
_cell_angle_beta     94.8352
_cell_angle_gamma    64.6676

_symmetry_Int_Tables_number  12
_chemical_formula_structural  Rb3YO3
_chemical_formula_sum  Rb6Y2O6
_cell_volume  333.80787594021416
_cell_formula_units_Z  2
loop_
  _symmetry_equiv_pos_site_id
 _symmetry_equiv_pos_as_xyz
 1  'x, y, z'
loop_
 _atom_site_type_symbol
 _atom_site_label
 _atom_site_symmetry_multiplicity
 _atom_site_fract_x
 _atom_site_fract_y
 _atom_site_fract_z
 _atom_site_fract_occupancy
 O  O1  1  0.09901  0.90099  0.83850  1
 O  O2  1  0.17006  0.54736  0.26833  1
 O  O3  1  0.45264  0.82994  0.26833  1
 O  O4  1  0.82994  0.45264  0.73167  1
 O  O5  1  0.54736  0.17006  0.73167  1
 O  O6  1  0.90099  0.09901  0.16150  1
 Rb  Rb1  1  0.36064  0.63936  0.63892  1
 Rb  Rb2  1  0.79865  0.79865  0.50000  1
 Rb  Rb3  1  0.20135  0.20135  0.50000  1
 Rb  Rb4  1  0.25885  0.25885  0.00000  1
 Rb  Rb5  1  0.74115  0.74115  -0.00000  1
 Rb  Rb6  1  0.63936  0.36064  0.36108  1
 Y  Y1  1  0.18128  0.81872  0.14745  1
 Y  Y2  1  0.81872  0.18128  0.85255  1
