CIF file written using JARVIS-Tools package.
data_NiS2
_symmetry_space_group_name_H-M  'Pbcn'
_cell_length_a       4.5258
_cell_length_b       6.57984
_cell_length_c       6.1884
_cell_angle_alpha    90
_cell_angle_beta     89.9987
_cell_angle_gamma    90

_symmetry_Int_Tables_number  60
_chemical_formula_structural  NiS2
_chemical_formula_sum  Ni4S8
_cell_volume  184.28464241789305
_cell_formula_units_Z  4
loop_
  _symmetry_equiv_pos_site_id
 _symmetry_equiv_pos_as_xyz
 1  'x, y, z'
loop_
 _atom_site_type_symbol
 _atom_site_label
 _atom_site_symmetry_multiplicity
 _atom_site_fract_x
 _atom_site_fract_y
 _atom_site_fract_z
 _atom_site_fract_occupancy
 Ni  Ni1  1  -0.00000  0.85298  0.25000  1
 Ni  Ni2  1  -0.00000  0.14702  0.75000  1
 Ni  Ni3  1  0.50000  0.64702  0.75000  1
 Ni  Ni4  1  0.50000  0.35298  0.25000  1
 S  S1  1  0.30828  0.91235  0.54515  1
 S  S2  1  0.69172  0.91235  0.95485  1
 S  S3  1  0.80828  0.58764  0.45485  1
 S  S4  1  0.80828  0.41236  0.95485  1
 S  S5  1  0.69172  0.08765  0.45485  1
 S  S6  1  0.30828  0.08765  0.04515  1
 S  S7  1  0.19172  0.41236  0.54515  1
 S  S8  1  0.19172  0.58764  0.04515  1
