CIF file written using JARVIS-Tools package.
data_VPt
_symmetry_space_group_name_H-M  'Pmma'
_cell_length_a       2.70239
_cell_length_b       4.40327
_cell_length_c       4.80973
_cell_angle_alpha    90
_cell_angle_beta     90
_cell_angle_gamma    90

_symmetry_Int_Tables_number  51
_chemical_formula_structural  VPt
_chemical_formula_sum  V2Pt2
_cell_volume  57.23275725917377
_cell_formula_units_Z  2
loop_
  _symmetry_equiv_pos_site_id
 _symmetry_equiv_pos_as_xyz
 1  'x, y, z'
loop_
 _atom_site_type_symbol
 _atom_site_label
 _atom_site_symmetry_multiplicity
 _atom_site_fract_x
 _atom_site_fract_y
 _atom_site_fract_z
 _atom_site_fract_occupancy
 Pt  Pt1  1  0.50000  0.75000  0.68094  1
 Pt  Pt2  1  0.50000  0.25000  0.31906  1
 V  V1  1  0.00000  0.75000  0.16959  1
 V  V2  1  0.00000  0.25000  0.83041  1
