CIF file written using JARVIS-Tools package.
data_Li2CoOF3
_symmetry_space_group_name_H-M  'Cc'
_cell_length_a       5.26801
_cell_length_b       5.26801
_cell_length_c       5.75185
_cell_angle_alpha    90.9388
_cell_angle_beta     89.0612
_cell_angle_gamma    117.92

_symmetry_Int_Tables_number  9
_chemical_formula_structural  Li2CoOF3
_chemical_formula_sum  Li4Co2O2F6
_cell_volume  141.01875538186633
_cell_formula_units_Z  2
loop_
  _symmetry_equiv_pos_site_id
 _symmetry_equiv_pos_as_xyz
 1  'x, y, z'
loop_
 _atom_site_type_symbol
 _atom_site_label
 _atom_site_symmetry_multiplicity
 _atom_site_fract_x
 _atom_site_fract_y
 _atom_site_fract_z
 _atom_site_fract_occupancy
 Co  Co1  1  0.05631  0.08873  0.52086  1
 Co  Co2  1  0.91127  0.94369  0.02086  1
 F  F1  1  0.49232  0.65657  0.92431  1
 F  F2  1  0.34343  0.50768  0.42431  1
 F  F3  1  0.41537  0.09690  0.61088  1
 F  F4  1  0.90918  0.65918  0.60790  1
 F  F5  1  0.34082  0.09082  0.10790  1
 F  F6  1  0.90310  0.58463  0.11088  1
 Li  Li1  1  0.28566  0.69259  0.67911  1
 Li  Li2  1  0.30741  0.71434  0.17911  1
 Li  Li3  1  0.62566  0.35062  0.86590  1
 Li  Li4  1  0.64938  0.37434  0.36590  1
 O  O1  1  0.93750  0.17742  0.79103  1
 O  O2  1  0.82258  0.06250  0.29103  1
