CIF file written using JARVIS-Tools package.
data_Hf2Ni2Sn
_symmetry_space_group_name_H-M  'P4/mbm'
_cell_length_a       7.07024
_cell_length_b       7.07024
_cell_length_c       3.38061
_cell_angle_alpha    90
_cell_angle_beta     90
_cell_angle_gamma    90

_symmetry_Int_Tables_number  127
_chemical_formula_structural  Hf2Ni2Sn
_chemical_formula_sum  Hf4Ni4Sn2
_cell_volume  168.99100601496667
_cell_formula_units_Z  2
loop_
  _symmetry_equiv_pos_site_id
 _symmetry_equiv_pos_as_xyz
 1  'x, y, z'
loop_
 _atom_site_type_symbol
 _atom_site_label
 _atom_site_symmetry_multiplicity
 _atom_site_fract_x
 _atom_site_fract_y
 _atom_site_fract_z
 _atom_site_fract_occupancy
 Hf  Hf1  1  0.66592  0.16592  0.50000  1
 Hf  Hf2  1  0.33408  0.83408  0.50000  1
 Hf  Hf3  1  0.83408  0.66592  0.50000  1
 Hf  Hf4  1  0.16592  0.33408  0.50000  1
 Ni  Ni1  1  0.62589  0.87411  0.00000  1
 Ni  Ni2  1  0.12589  0.62589  0.00000  1
 Ni  Ni3  1  0.87411  0.37411  0.00000  1
 Ni  Ni4  1  0.37411  0.12589  0.00000  1
 Sn  Sn1  1  0.50000  0.50000  0.00000  1
 Sn  Sn2  1  0.00000  0.00000  0.00000  1
