CIF file written using JARVIS-Tools package.
data_KRb2ScF6
_symmetry_space_group_name_H-M  'I4/m'
_cell_length_a       6.30411
_cell_length_b       6.30411
_cell_length_c       6.40286
_cell_angle_alpha    119.491
_cell_angle_beta     119.491
_cell_angle_gamma    90

_symmetry_Int_Tables_number  87
_chemical_formula_structural  KRb2ScF6
_chemical_formula_sum  KRb2ScF6
_cell_volume  182.66393852030234
_cell_formula_units_Z  1
loop_
  _symmetry_equiv_pos_site_id
 _symmetry_equiv_pos_as_xyz
 1  'x, y, z'
loop_
 _atom_site_type_symbol
 _atom_site_label
 _atom_site_symmetry_multiplicity
 _atom_site_fract_x
 _atom_site_fract_y
 _atom_site_fract_z
 _atom_site_fract_occupancy
 F  F1  1  0.83859  0.72146  -0.00000  1
 F  F2  1  0.27854  0.83859  -0.00000  1
 F  F3  1  0.72146  0.16141  0.00000  1
 F  F4  1  0.16141  0.27854  0.00000  1
 F  F5  1  0.22185  0.22185  0.44371  1
 F  F6  1  0.77815  0.77815  0.55629  1
 K  K1  1  0.50000  0.50000  0.00000  1
 Rb  Rb1  1  0.25000  0.75000  0.50000  1
 Rb  Rb2  1  0.75000  0.25000  0.50000  1
 Sc  Sc1  1  0.00000  0.00000  0.00000  1
