CIF file written using JARVIS-Tools package.
data_AlCo2Si
_symmetry_space_group_name_H-M  'Immm'
_cell_length_a       9.79896
_cell_length_b       5.51576
_cell_length_c       5.51576
_cell_angle_alpha    27.141
_cell_angle_beta     27.3435
_cell_angle_gamma    27.3435

_symmetry_Int_Tables_number  71
_chemical_formula_structural  AlCo2Si
_chemical_formula_sum  AlCo2Si
_cell_volume  55.24329941962408
_cell_formula_units_Z  1
loop_
  _symmetry_equiv_pos_site_id
 _symmetry_equiv_pos_as_xyz
 1  'x, y, z'
loop_
 _atom_site_type_symbol
 _atom_site_label
 _atom_site_symmetry_multiplicity
 _atom_site_fract_x
 _atom_site_fract_y
 _atom_site_fract_z
 _atom_site_fract_occupancy
 Al  Al1  1  0.00000  0.00000  0.00000  1
 Co  Co1  1  0.26743  0.00000  -0.00000  1
 Co  Co2  1  0.73257  -0.00000  0.00000  1
 Si  Si1  1  0.50000  0.00000  -0.00000  1
