CIF file written using JARVIS-Tools package.
data_CaCoSi
_symmetry_space_group_name_H-M  'P4/nmm'
_cell_length_a       3.98553
_cell_length_b       3.98553
_cell_length_c       6.85742
_cell_angle_alpha    90
_cell_angle_beta     90
_cell_angle_gamma    90

_symmetry_Int_Tables_number  129
_chemical_formula_structural  CaCoSi
_chemical_formula_sum  Ca2Co2Si2
_cell_volume  108.92619290206437
_cell_formula_units_Z  2
loop_
  _symmetry_equiv_pos_site_id
 _symmetry_equiv_pos_as_xyz
 1  'x, y, z'
loop_
 _atom_site_type_symbol
 _atom_site_label
 _atom_site_symmetry_multiplicity
 _atom_site_fract_x
 _atom_site_fract_y
 _atom_site_fract_z
 _atom_site_fract_occupancy
 Ca  Ca1  1  0.50000  0.00000  0.32579  1
 Ca  Ca2  1  0.00000  0.50000  0.67421  1
 Co  Co1  1  0.50000  0.50000  0.00000  1
 Co  Co2  1  0.00000  0.00000  0.00000  1
 Si  Si1  1  0.50000  0.00000  0.82658  1
 Si  Si2  1  0.00000  0.50000  0.17342  1
