CIF file written using JARVIS-Tools package.
data_YbAl10Fe2
_symmetry_space_group_name_H-M  'Cmcm'
_cell_length_a       6.78438
_cell_length_b       6.78438
_cell_length_c       9.00983
_cell_angle_alpha    90
_cell_angle_beta     90
_cell_angle_gamma    97.2624

_symmetry_Int_Tables_number  63
_chemical_formula_structural  YbAl10Fe2
_chemical_formula_sum  Yb2Al20Fe4
_cell_volume  411.37600803646166
_cell_formula_units_Z  2
loop_
  _symmetry_equiv_pos_site_id
 _symmetry_equiv_pos_as_xyz
 1  'x, y, z'
loop_
 _atom_site_type_symbol
 _atom_site_label
 _atom_site_symmetry_multiplicity
 _atom_site_fract_x
 _atom_site_fract_y
 _atom_site_fract_z
 _atom_site_fract_occupancy
 Al  Al1  1  0.86598  0.58345  0.25000  1
 Al  Al2  1  0.77249  0.77249  0.00000  1
 Al  Al3  1  0.77249  0.77249  0.50000  1
 Al  Al4  1  0.22751  0.22751  0.00000  1
 Al  Al5  1  0.37335  0.62665  0.54489  1
 Al  Al6  1  0.62665  0.37335  0.04489  1
 Al  Al7  1  0.58345  0.86598  0.75000  1
 Al  Al8  1  0.41655  0.13402  0.25000  1
 Al  Al9  1  0.13402  0.41655  0.75000  1
 Al  Al10  1  0.47447  0.21914  0.75000  1
 Al  Al11  1  0.22751  0.22751  0.50000  1
 Al  Al12  1  0.78086  0.52553  0.75000  1
 Al  Al13  1  0.15624  0.84376  0.40366  1
 Al  Al14  1  0.84376  0.15624  0.90366  1
 Al  Al15  1  0.84376  0.15624  0.59634  1
 Al  Al16  1  0.15624  0.84376  0.09634  1
 Al  Al17  1  0.37335  0.62665  0.95511  1
 Al  Al18  1  0.62665  0.37335  0.45511  1
 Al  Al19  1  0.52553  0.78086  0.25000  1
 Al  Al20  1  0.21914  0.47447  0.25000  1
 Fe  Fe1  1  -0.00000  0.50000  0.50000  1
 Fe  Fe2  1  -0.00000  0.50000  0.00000  1
 Fe  Fe3  1  0.50000  0.00000  0.00000  1
 Fe  Fe4  1  0.50000  0.00000  0.50000  1
 Yb  Yb1  1  0.87709  0.12291  0.25000  1
 Yb  Yb2  1  0.12291  0.87709  0.75000  1
