CIF file written using JARVIS-Tools package.
data_CrN2
_symmetry_space_group_name_H-M  'P3_2'
_cell_length_a       4.16202
_cell_length_b       4.16201
_cell_length_c       4.63712
_cell_angle_alpha    90
_cell_angle_beta     90
_cell_angle_gamma    120

_symmetry_Int_Tables_number  145
_chemical_formula_structural  CrN2
_chemical_formula_sum  Cr3N6
_cell_volume  69.56409830413826
_cell_formula_units_Z  3
loop_
  _symmetry_equiv_pos_site_id
 _symmetry_equiv_pos_as_xyz
 1  'x, y, z'
loop_
 _atom_site_type_symbol
 _atom_site_label
 _atom_site_symmetry_multiplicity
 _atom_site_fract_x
 _atom_site_fract_y
 _atom_site_fract_z
 _atom_site_fract_occupancy
 Cr  Cr1  1  0.35774  0.38852  0.00163  1
 Cr  Cr2  1  0.03077  0.64226  0.33497  1
 Cr  Cr3  1  0.61148  0.96923  0.66830  1
 N  N1  1  0.18943  0.34818  0.57993  1
 N  N2  1  0.15875  0.81057  0.91326  1
 N  N3  1  0.65182  0.84125  0.24659  1
 N  N4  1  0.33760  0.18822  0.41847  1
 N  N5  1  0.81178  0.14938  0.08514  1
 N  N6  1  0.85062  0.66240  0.75180  1
