CIF file written using JARVIS-Tools package.
data_MoSeS
_symmetry_space_group_name_H-M  'P-3m1'
_cell_length_a       3.25678
_cell_length_b       3.25682
_cell_length_c       34.6734
_cell_angle_alpha    90.0021
_cell_angle_beta     90.0029
_cell_angle_gamma    119.999

_symmetry_Int_Tables_number  164
_chemical_formula_structural  MoSeS
_chemical_formula_sum  Mo4Se4S4
_cell_volume  318.50205262254264
_cell_formula_units_Z  4
loop_
  _symmetry_equiv_pos_site_id
 _symmetry_equiv_pos_as_xyz
 1  'x, y, z'
loop_
 _atom_site_type_symbol
 _atom_site_label
 _atom_site_symmetry_multiplicity
 _atom_site_fract_x
 _atom_site_fract_y
 _atom_site_fract_z
 _atom_site_fract_occupancy
 Mo  Mo1  1  0.33331  0.66666  0.09480  1
 Mo  Mo2  1  0.33335  0.66670  0.47170  1
 Mo  Mo3  1  0.66665  0.33330  0.27976  1
 Mo  Mo4  1  0.66669  0.33334  0.65666  1
 S  S1  1  0.33339  0.66669  0.70121  1
 S  S2  1  0.66661  0.33331  0.05024  1
 S  S3  1  0.66667  0.33333  0.13941  1
 S  S4  1  0.33333  0.66667  0.61205  1
 Se  Se1  1  0.33337  0.66669  0.32875  1
 Se  Se2  1  0.66663  0.33331  0.42271  1
 Se  Se3  1  0.66673  0.33339  0.52068  1
 Se  Se4  1  0.33327  0.66661  0.23078  1
