CIF file written using JARVIS-Tools package.
data_U2SnPd2
_symmetry_space_group_name_H-M  'P4/mbm'
_cell_length_a       7.70872
_cell_length_b       7.70872
_cell_length_c       3.7414
_cell_angle_alpha    90
_cell_angle_beta     90
_cell_angle_gamma    90

_symmetry_Int_Tables_number  127
_chemical_formula_structural  U2SnPd2
_chemical_formula_sum  U4Sn2Pd4
_cell_volume  222.32997192988384
_cell_formula_units_Z  2
loop_
  _symmetry_equiv_pos_site_id
 _symmetry_equiv_pos_as_xyz
 1  'x, y, z'
loop_
 _atom_site_type_symbol
 _atom_site_label
 _atom_site_symmetry_multiplicity
 _atom_site_fract_x
 _atom_site_fract_y
 _atom_site_fract_z
 _atom_site_fract_occupancy
 Pd  Pd1  1  0.37194  0.12806  0.00000  1
 Pd  Pd2  1  0.87194  0.37194  0.00000  1
 Pd  Pd3  1  0.12806  0.62806  0.00000  1
 Pd  Pd4  1  0.62806  0.87194  0.00000  1
 Sn  Sn1  1  0.00000  0.00000  0.00000  1
 Sn  Sn2  1  0.50000  0.50000  0.00000  1
 U  U1  1  0.32539  0.82539  0.50000  1
 U  U2  1  0.82539  0.67461  0.50000  1
 U  U3  1  0.17461  0.32539  0.50000  1
 U  U4  1  0.67461  0.17461  0.50000  1
