CIF file written using JARVIS-Tools package.
data_HfVSi
_symmetry_space_group_name_H-M  'P4/nmm'
_cell_length_a       3.66239
_cell_length_b       3.66239
_cell_length_c       7.18392
_cell_angle_alpha    90
_cell_angle_beta     90
_cell_angle_gamma    90

_symmetry_Int_Tables_number  129
_chemical_formula_structural  HfVSi
_chemical_formula_sum  Hf2V2Si2
_cell_volume  96.35859649516303
_cell_formula_units_Z  2
loop_
  _symmetry_equiv_pos_site_id
 _symmetry_equiv_pos_as_xyz
 1  'x, y, z'
loop_
 _atom_site_type_symbol
 _atom_site_label
 _atom_site_symmetry_multiplicity
 _atom_site_fract_x
 _atom_site_fract_y
 _atom_site_fract_z
 _atom_site_fract_occupancy
 Hf  Hf1  1  0.50000  0.00000  0.36147  1
 Hf  Hf2  1  0.00000  0.50000  0.63853  1
 Si  Si1  1  0.50000  0.00000  0.75131  1
 Si  Si2  1  0.00000  0.50000  0.24869  1
 V  V1  1  0.50000  0.50000  0.00000  1
 V  V2  1  0.00000  0.00000  0.00000  1
