CIF file written using JARVIS-Tools package.
data_K6Si2CuO8
_symmetry_space_group_name_H-M  'P-1'
_cell_length_a       6.17974
_cell_length_b       6.66991
_cell_length_c       7.55155
_cell_angle_alpha    83.187
_cell_angle_beta     87.8786
_cell_angle_gamma    70.2937

_symmetry_Int_Tables_number  2
_chemical_formula_structural  K6Si2CuO8
_chemical_formula_sum  K6Si2CuO8
_cell_volume  290.9617493066213
_cell_formula_units_Z  1
loop_
  _symmetry_equiv_pos_site_id
 _symmetry_equiv_pos_as_xyz
 1  'x, y, z'
loop_
 _atom_site_type_symbol
 _atom_site_label
 _atom_site_symmetry_multiplicity
 _atom_site_fract_x
 _atom_site_fract_y
 _atom_site_fract_z
 _atom_site_fract_occupancy
 Cu  Cu1  1  -0.00000  0.50000  0.50000  1
 K  K1  1  0.34292  0.17007  0.83400  1
 K  K2  1  0.20111  0.69535  0.02621  1
 K  K3  1  0.65708  0.82993  0.16600  1
 K  K4  1  0.27515  0.80911  0.55850  1
 K  K5  1  0.79889  0.30465  0.97379  1
 K  K6  1  0.72485  0.19089  0.44150  1
 O  O1  1  0.98035  0.45647  0.24557  1
 O  O2  1  0.74298  0.77242  0.51065  1
 O  O3  1  0.56209  0.72559  0.84336  1
 O  O4  1  0.83332  0.97281  0.78536  1
 O  O5  1  0.16668  0.02719  0.21464  1
 O  O6  1  0.01965  0.54353  0.75443  1
 O  O7  1  0.43791  0.27441  0.15664  1
 O  O8  1  0.25702  0.22758  0.48935  1
 Si  Si1  1  0.78057  0.76233  0.73232  1
 Si  Si2  1  0.21943  0.23767  0.26768  1
