CIF file written using JARVIS-Tools package.
data_LiH2BrO
_symmetry_space_group_name_H-M  'Cmcm'
_cell_length_a       5.65127
_cell_length_b       5.65127
_cell_length_c       7.84625
_cell_angle_alpha    90
_cell_angle_beta     90
_cell_angle_gamma    91.0801

_symmetry_Int_Tables_number  63
_chemical_formula_structural  LiH2BrO
_chemical_formula_sum  Li4H8Br4O4
_cell_volume  250.54046717207305
_cell_formula_units_Z  4
loop_
  _symmetry_equiv_pos_site_id
 _symmetry_equiv_pos_as_xyz
 1  'x, y, z'
loop_
 _atom_site_type_symbol
 _atom_site_label
 _atom_site_symmetry_multiplicity
 _atom_site_fract_x
 _atom_site_fract_y
 _atom_site_fract_z
 _atom_site_fract_occupancy
 Br  Br1  1  0.72966  0.21746  0.75000  1
 Br  Br2  1  0.78254  0.27034  0.25000  1
 Br  Br3  1  0.21746  0.72966  0.75000  1
 Br  Br4  1  0.27034  0.78254  0.25000  1
 H  H1  1  0.59621  0.78909  0.06348  1
 H  H2  1  0.78909  0.59621  0.43652  1
 H  H3  1  0.40379  0.21091  0.93652  1
 H  H4  1  0.40379  0.21091  0.56348  1
 H  H5  1  0.78909  0.59621  0.06348  1
 H  H6  1  0.59621  0.78909  0.43652  1
 H  H7  1  0.21091  0.40379  0.93652  1
 H  H8  1  0.21091  0.40379  0.56348  1
 Li  Li1  1  0.00000  0.00000  0.00000  1
 Li  Li2  1  0.69290  0.69290  0.75000  1
 Li  Li3  1  0.30710  0.30710  0.25000  1
 Li  Li4  1  0.00000  0.00000  0.50000  1
 O  O1  1  0.74208  0.74208  0.49756  1
 O  O2  1  0.25792  0.25792  -0.00244  1
 O  O3  1  0.25792  0.25792  0.50244  1
 O  O4  1  0.74208  0.74208  0.00244  1
