CIF file written using JARVIS-Tools package.
data_SmAl8Cu4
_symmetry_space_group_name_H-M  'I4/mmm'
_cell_length_a       5.19838
_cell_length_b       6.7779
_cell_length_c       6.77789
_cell_angle_alpha    81.5436
_cell_angle_beta     67.4505
_cell_angle_gamma    67.4506

_symmetry_Int_Tables_number  139
_chemical_formula_structural  SmAl8Cu4
_chemical_formula_sum  SmAl8Cu4
_cell_volume  203.6931919682532
_cell_formula_units_Z  1
loop_
  _symmetry_equiv_pos_site_id
 _symmetry_equiv_pos_as_xyz
 1  'x, y, z'
loop_
 _atom_site_type_symbol
 _atom_site_label
 _atom_site_symmetry_multiplicity
 _atom_site_fract_x
 _atom_site_fract_y
 _atom_site_fract_z
 _atom_site_fract_occupancy
 Al  Al1  1  0.34781  0.65219  0.65219  1
 Al  Al2  1  0.00000  0.34781  0.65219  1
 Al  Al3  1  -0.00000  0.65219  0.34781  1
 Al  Al4  1  0.65219  0.34781  0.34781  1
 Al  Al5  1  0.72014  0.77986  0.77986  1
 Al  Al6  1  0.50000  0.22014  0.77986  1
 Al  Al7  1  0.50000  0.77986  0.22014  1
 Al  Al8  1  0.27986  0.22014  0.22014  1
 Cu  Cu1  1  0.50000  0.00000  0.50000  1
 Cu  Cu2  1  0.00000  0.50000  -0.00000  1
 Cu  Cu3  1  0.50000  0.50000  -0.00000  1
 Cu  Cu4  1  -0.00000  0.00000  0.50000  1
 Sm  Sm1  1  0.00000  0.00000  0.00000  1
