CIF file written using JARVIS-Tools package.
data_Te6MoW2
_symmetry_space_group_name_H-M  'R3m'
_cell_length_a       3.57215
_cell_length_b       3.57201
_cell_length_c       21.5427
_cell_angle_alpha    94.7996
_cell_angle_beta     90
_cell_angle_gamma    120.001

_symmetry_Int_Tables_number  160
_chemical_formula_structural  Te6MoW2
_chemical_formula_sum  Te6MoW2
_cell_volume  236.9357302908985
_cell_formula_units_Z  1
loop_
  _symmetry_equiv_pos_site_id
 _symmetry_equiv_pos_as_xyz
 1  'x, y, z'
loop_
 _atom_site_type_symbol
 _atom_site_label
 _atom_site_symmetry_multiplicity
 _atom_site_fract_x
 _atom_site_fract_y
 _atom_site_fract_z
 _atom_site_fract_occupancy
 Mo  Mo1  1  0.22198  0.44396  0.01400  1
 Te  Te1  1  0.36194  0.72389  0.43155  1
 Te  Te2  1  0.52690  0.05380  0.92964  1
 Te  Te3  1  0.74936  0.49873  0.59537  1
 Te  Te4  1  0.58379  0.16758  0.09849  1
 Te  Te5  1  0.80645  0.61290  0.76483  1
 Te  Te6  1  0.30486  0.60972  0.26206  1
 W  W1  1  0.44457  0.88915  0.68009  1
 W  W2  1  0.66674  0.33349  0.34681  1
