CIF file written using JARVIS-Tools package.
data_Sm2SiTeO4
_symmetry_space_group_name_H-M  'Pbcm'
_cell_length_a       6.27332
_cell_length_b       7.13689
_cell_length_c       11.1741
_cell_angle_alpha    90
_cell_angle_beta     90
_cell_angle_gamma    90

_symmetry_Int_Tables_number  57
_chemical_formula_structural  Sm2SiTeO4
_chemical_formula_sum  Sm8Si4Te4O6
_cell_volume  500.2852774917572
_cell_formula_units_Z  4
loop_
  _symmetry_equiv_pos_site_id
 _symmetry_equiv_pos_as_xyz
 1  'x, y, z'
loop_
 _atom_site_type_symbol
 _atom_site_label
 _atom_site_symmetry_multiplicity
 _atom_site_fract_x
 _atom_site_fract_y
 _atom_site_fract_z
 _atom_site_fract_occupancy
 O  O1  1  0.05165  0.73372  0.61660  1
 O  O2  1  0.94835  0.23372  0.61660  1
 O  O3  1  0.94835  0.26628  0.38340  1
 O  O4  1  0.72966  0.57408  0.46458  1
 O  O5  1  0.05165  0.76628  0.11660  1
 O  O6  1  0.05165  0.76628  0.38340  1
 O  O7  1  0.27034  0.07408  0.03542  1
 O  O8  1  0.94835  0.23372  0.88340  1
 O  O9  1  0.94835  0.26628  0.11660  1
 O  O10  1  0.27034  0.42592  0.96458  1
 O  O11  1  0.72966  0.92592  0.53542  1
 O  O12  1  0.72966  0.92592  0.96458  1
 O  O13  1  0.72966  0.57408  0.03542  1
 O  O14  1  0.27034  0.42592  0.53542  1
 O  O15  1  0.27034  0.07408  0.46458  1
 O  O16  1  0.05165  0.73372  0.88340  1
 Si  Si1  1  0.88746  0.75000  0.50000  1
 Si  Si2  1  0.11254  0.25000  0.50000  1
 Si  Si3  1  0.11254  0.25000  0.00000  1
 Si  Si4  1  0.88746  0.75000  0.00000  1
 Sm  Sm1  1  0.38913  0.75000  0.50000  1
 Sm  Sm2  1  0.11321  0.03516  0.25000  1
 Sm  Sm3  1  0.11321  0.46484  0.75000  1
 Sm  Sm4  1  0.88679  0.53516  0.25000  1
 Sm  Sm5  1  0.88679  0.96484  0.75000  1
 Sm  Sm6  1  0.61087  0.25000  0.00000  1
 Sm  Sm7  1  0.61087  0.25000  0.50000  1
 Sm  Sm8  1  0.38913  0.75000  0.00000  1
 Te  Te1  1  0.40261  0.41771  0.25000  1
 Te  Te2  1  0.40261  0.08229  0.75000  1
 Te  Te3  1  0.59739  0.58229  0.75000  1
 Te  Te4  1  0.59739  0.91771  0.25000  1
