CIF file written using JARVIS-Tools package.
data_Tl2CdTe4
_symmetry_space_group_name_H-M  'I-42m'
_cell_length_a       6.41048
_cell_length_b       6.41048
_cell_length_c       7.75643
_cell_angle_alpha    114.408
_cell_angle_beta     114.408
_cell_angle_gamma    90

_symmetry_Int_Tables_number  121
_chemical_formula_structural  Tl2CdTe4
_chemical_formula_sum  Tl2CdTe4
_cell_volume  258.64932407379644
_cell_formula_units_Z  1
loop_
  _symmetry_equiv_pos_site_id
 _symmetry_equiv_pos_as_xyz
 1  'x, y, z'
loop_
 _atom_site_type_symbol
 _atom_site_label
 _atom_site_symmetry_multiplicity
 _atom_site_fract_x
 _atom_site_fract_y
 _atom_site_fract_z
 _atom_site_fract_occupancy
 Cd  Cd1  1  0.00000  0.00000  0.00000  1
 Te  Te1  1  0.38607  0.38607  0.20974  1
 Te  Te2  1  0.82367  0.82367  0.20974  1
 Te  Te3  1  0.17633  0.61393  0.79026  1
 Te  Te4  1  0.61393  0.17633  0.79026  1
 Tl  Tl1  1  0.25000  0.75000  0.50000  1
 Tl  Tl2  1  0.75000  0.25000  0.50000  1
