CIF file written using JARVIS-Tools package.
data_TmAlSi
_symmetry_space_group_name_H-M  'Cmcm'
_cell_length_a       3.99051
_cell_length_b       5.4672
_cell_length_c       5.66351
_cell_angle_alpha    90
_cell_angle_beta     90
_cell_angle_gamma    111.405

_symmetry_Int_Tables_number  63
_chemical_formula_structural  TmAlSi
_chemical_formula_sum  Tm2Al2Si2
_cell_volume  115.03825541231805
_cell_formula_units_Z  2
loop_
  _symmetry_equiv_pos_site_id
 _symmetry_equiv_pos_as_xyz
 1  'x, y, z'
loop_
 _atom_site_type_symbol
 _atom_site_label
 _atom_site_symmetry_multiplicity
 _atom_site_fract_x
 _atom_site_fract_y
 _atom_site_fract_z
 _atom_site_fract_occupancy
 Al  Al1  1  0.00000  0.00000  0.00000  1
 Al  Al2  1  0.00000  0.00000  0.50000  1
 Si  Si1  1  0.60336  0.20672  0.75000  1
 Si  Si2  1  0.39664  0.79328  0.25000  1
 Tm  Tm1  1  0.30657  0.61315  0.75000  1
 Tm  Tm2  1  0.69343  0.38685  0.25000  1
