CIF file written using JARVIS-Tools package.
data_TaN2
_symmetry_space_group_name_H-M  'P6_3/mmc'
_cell_length_a       3.06524
_cell_length_b       3.06524
_cell_length_c       7.78885
_cell_angle_alpha    90
_cell_angle_beta     90
_cell_angle_gamma    120

_symmetry_Int_Tables_number  194
_chemical_formula_structural  TaN2
_chemical_formula_sum  Ta2N4
_cell_volume  63.37716174796779
_cell_formula_units_Z  2
loop_
  _symmetry_equiv_pos_site_id
 _symmetry_equiv_pos_as_xyz
 1  'x, y, z'
loop_
 _atom_site_type_symbol
 _atom_site_label
 _atom_site_symmetry_multiplicity
 _atom_site_fract_x
 _atom_site_fract_y
 _atom_site_fract_z
 _atom_site_fract_occupancy
 N  N1  1  0.00000  0.00000  0.40938  1
 N  N2  1  0.00000  0.00000  0.59062  1
 N  N3  1  0.00000  0.00000  0.90938  1
 N  N4  1  0.00000  0.00000  0.09062  1
 Ta  Ta1  1  0.66667  0.33333  0.25000  1
 Ta  Ta2  1  0.33333  0.66667  0.75000  1
