CIF file written using JARVIS-Tools package.
data_Ba3NdRu2O9
_symmetry_space_group_name_H-M  'P6_3/mmc'
_cell_length_a       5.98214
_cell_length_b       5.98214
_cell_length_c       14.8134
_cell_angle_alpha    90
_cell_angle_beta     90
_cell_angle_gamma    120

_symmetry_Int_Tables_number  194
_chemical_formula_structural  Ba3NdRu2O9
_chemical_formula_sum  Ba6Nd2Ru4O8
_cell_volume  459.0930713909524
_cell_formula_units_Z  2
loop_
  _symmetry_equiv_pos_site_id
 _symmetry_equiv_pos_as_xyz
 1  'x, y, z'
loop_
 _atom_site_type_symbol
 _atom_site_label
 _atom_site_symmetry_multiplicity
 _atom_site_fract_x
 _atom_site_fract_y
 _atom_site_fract_z
 _atom_site_fract_occupancy
 Ba  Ba1  1  0.33333  0.66667  0.39846  1
 Ba  Ba2  1  0.00000  0.00000  0.75000  1
 Ba  Ba3  1  0.66667  0.33333  0.60154  1
 Ba  Ba4  1  0.66667  0.33333  0.89846  1
 Ba  Ba5  1  0.33333  0.66667  0.10154  1
 Ba  Ba6  1  0.00000  0.00000  0.25000  1
 Nd  Nd1  1  0.00000  0.00000  0.50000  1
 Nd  Nd2  1  0.00000  0.00000  0.00000  1
 O  O1  1  0.64230  0.82115  0.90727  1
 O  O2  1  0.82115  0.17885  0.40727  1
 O  O3  1  0.82115  0.64230  0.40727  1
 O  O4  1  0.82115  0.17885  0.09273  1
 O  O5  1  0.17885  0.35770  0.90727  1
 O  O6  1  0.49140  0.98281  0.75000  1
 O  O7  1  0.17885  0.82115  0.90727  1
 O  O8  1  0.64230  0.82115  0.59273  1
 O  O9  1  0.35770  0.17885  0.40727  1
 O  O10  1  0.35770  0.17885  0.09273  1
 O  O11  1  0.50860  0.01719  0.25000  1
 O  O12  1  0.17885  0.82115  0.59273  1
 O  O13  1  0.49140  0.50860  0.75000  1
 O  O14  1  0.17885  0.35770  0.59273  1
 O  O15  1  0.98281  0.49140  0.25000  1
 O  O16  1  0.01719  0.50860  0.75000  1
 O  O17  1  0.82115  0.64230  0.09273  1
 O  O18  1  0.50860  0.49140  0.25000  1
 Ru  Ru1  1  0.33333  0.66667  0.66670  1
 Ru  Ru2  1  0.66667  0.33333  0.16670  1
 Ru  Ru3  1  0.66667  0.33333  0.33330  1
 Ru  Ru4  1  0.33333  0.66667  0.83330  1
