CIF file written using JARVIS-Tools package.
data_Cu2P2O7
_symmetry_space_group_name_H-M  'C2/m'
_cell_length_a       4.5999
_cell_length_b       5.38655
_cell_length_c       5.38654
_cell_angle_alpha    99.1835
_cell_angle_beta     102.716
_cell_angle_gamma    102.716

_symmetry_Int_Tables_number  12
_chemical_formula_structural  Cu2P2O7
_chemical_formula_sum  Cu2P2O7
_cell_volume  123.9259386530461
_cell_formula_units_Z  1
loop_
  _symmetry_equiv_pos_site_id
 _symmetry_equiv_pos_as_xyz
 1  'x, y, z'
loop_
 _atom_site_type_symbol
 _atom_site_label
 _atom_site_symmetry_multiplicity
 _atom_site_fract_x
 _atom_site_fract_y
 _atom_site_fract_z
 _atom_site_fract_occupancy
 Cu  Cu1  1  0.50000  0.31155  0.68845  1
 Cu  Cu2  1  0.50000  0.68845  0.31155  1
 O  O1  1  0.27251  0.95226  0.64259  1
 O  O2  1  0.72749  0.35741  0.04774  1
 O  O3  1  0.72749  0.04774  0.35741  1
 O  O4  1  0.27251  0.64259  0.95226  1
 O  O5  1  0.00000  0.00000  0.00000  1
 O  O6  1  0.77997  0.62049  0.62049  1
 O  O7  1  0.22003  0.37951  0.37951  1
 P  P1  1  0.90806  0.19926  0.19926  1
 P  P2  1  0.09194  0.80074  0.80074  1
