CIF file written using JARVIS-Tools package.
data_Sr3P2
_symmetry_space_group_name_H-M  'Pm-3m'
_cell_length_a       5.64441
_cell_length_b       5.64441
_cell_length_c       5.64441
_cell_angle_alpha    90
_cell_angle_beta     90
_cell_angle_gamma    90

_symmetry_Int_Tables_number  221
_chemical_formula_structural  Sr3P2
_chemical_formula_sum  Sr3P2
_cell_volume  179.8271762964699
_cell_formula_units_Z  1
loop_
  _symmetry_equiv_pos_site_id
 _symmetry_equiv_pos_as_xyz
 1  'x, y, z'
loop_
 _atom_site_type_symbol
 _atom_site_label
 _atom_site_symmetry_multiplicity
 _atom_site_fract_x
 _atom_site_fract_y
 _atom_site_fract_z
 _atom_site_fract_occupancy
 P  P1  1  0.00000  0.00000  0.00000  1
 P  P2  1  0.50000  0.50000  0.50000  1
 Sr  Sr1  1  0.00000  0.50000  0.50000  1
 Sr  Sr2  1  0.50000  0.00000  0.50000  1
 Sr  Sr3  1  0.50000  0.50000  0.00000  1
