CIF file written using JARVIS-Tools package.
data_TeHO3
_symmetry_space_group_name_H-M  'Pna2_1'
_cell_length_a       12.0399
_cell_length_b       8.13055
_cell_length_c       4.77009
_cell_angle_alpha    90
_cell_angle_beta     89.9998
_cell_angle_gamma    90

_symmetry_Int_Tables_number  33
_chemical_formula_structural  TeHO3
_chemical_formula_sum  Te8H8O24
_cell_volume  466.94815587574095
_cell_formula_units_Z  8
loop_
  _symmetry_equiv_pos_site_id
 _symmetry_equiv_pos_as_xyz
 1  'x, y, z'
loop_
 _atom_site_type_symbol
 _atom_site_label
 _atom_site_symmetry_multiplicity
 _atom_site_fract_x
 _atom_site_fract_y
 _atom_site_fract_z
 _atom_site_fract_occupancy
 H  H1  1  0.27400  0.61328  0.89629  1
 H  H2  1  0.25431  0.88215  0.69820  1
 H  H3  1  0.75431  0.61785  0.69820  1
 H  H4  1  0.22614  0.11328  0.39629  1
 H  H5  1  0.77400  0.88672  0.89629  1
 H  H6  1  0.72614  0.38672  0.39629  1
 H  H7  1  0.24585  0.38215  0.19821  1
 H  H8  1  0.74585  0.11785  0.19821  1
 O  O1  1  0.84948  0.16092  0.67625  1
 O  O2  1  0.23724  0.00292  0.71762  1
 O  O3  1  0.65067  0.66094  0.17624  1
 O  O4  1  0.34948  0.33908  0.67625  1
 O  O5  1  0.45310  0.05050  0.48252  1
 O  O6  1  0.07923  0.23550  0.77966  1
 O  O7  1  0.54706  0.94952  0.98252  1
 O  O8  1  0.04706  0.55048  0.98252  1
 O  O9  1  0.95310  0.44950  0.48252  1
 O  O10  1  0.78716  0.83131  0.71157  1
 O  O11  1  0.76292  0.99708  0.21763  1
 O  O12  1  0.26292  0.50292  0.21763  1
 O  O13  1  0.73724  0.49708  0.71762  1
 O  O14  1  0.51673  0.59459  0.72105  1
 O  O15  1  0.01673  0.90541  0.72105  1
 O  O16  1  0.21298  0.16869  0.21156  1
 O  O17  1  0.57923  0.26450  0.77966  1
 O  O18  1  0.42092  0.73552  0.27967  1
 O  O19  1  0.92092  0.76448  0.27967  1
 O  O20  1  0.15067  0.83906  0.17624  1
 O  O21  1  0.71298  0.33131  0.21156  1
 O  O22  1  0.28716  0.66869  0.71157  1
 O  O23  1  0.48342  0.40543  0.22105  1
 O  O24  1  0.98342  0.09457  0.22105  1
 Te  Te1  1  0.43955  0.14103  0.84889  1
 Te  Te2  1  0.56061  0.85899  0.34889  1
 Te  Te3  1  0.06061  0.64101  0.34889  1
 Te  Te4  1  0.93955  0.35897  0.84889  1
 Te  Te5  1  0.11234  0.03442  -0.01665  1
 Te  Te6  1  0.88782  0.96557  0.48335  1
 Te  Te7  1  0.38782  0.53443  0.48335  1
 Te  Te8  1  0.61234  0.46558  -0.01665  1
