CIF file written using JARVIS-Tools package.
data_Te2MoWS2
_symmetry_space_group_name_H-M  'P3m1'
_cell_length_a       3.36777
_cell_length_b       3.36761
_cell_length_c       35.8428
_cell_angle_alpha    89.9864
_cell_angle_beta     90
_cell_angle_gamma    120.002

_symmetry_Int_Tables_number  156
_chemical_formula_structural  Te2MoWS2
_chemical_formula_sum  Te4Mo2W2S4
_cell_volume  352.0390467682719
_cell_formula_units_Z  2
loop_
  _symmetry_equiv_pos_site_id
 _symmetry_equiv_pos_as_xyz
 1  'x, y, z'
loop_
 _atom_site_type_symbol
 _atom_site_label
 _atom_site_symmetry_multiplicity
 _atom_site_fract_x
 _atom_site_fract_y
 _atom_site_fract_z
 _atom_site_fract_occupancy
 Mo  Mo1  1  0.33331  0.66662  0.10281  1
 Mo  Mo2  1  0.33336  0.66672  0.46064  1
 S  S1  1  0.33328  0.66656  0.31570  1
 S  S2  1  0.66669  0.33338  0.06064  1
 S  S3  1  0.66661  0.33322  0.14502  1
 S  S4  1  0.33337  0.66675  0.23096  1
 Te  Te1  1  0.33321  0.66643  0.71917  1
 Te  Te2  1  0.66661  0.33321  0.40782  1
 Te  Te3  1  0.66671  0.33341  0.51340  1
 Te  Te4  1  0.33350  0.66701  0.61308  1
 W  W1  1  0.66670  0.33340  0.27332  1
 W  W2  1  0.66664  0.33329  0.66618  1
