CIF file written using JARVIS-Tools package.
data_SrLi3MnN3
_symmetry_space_group_name_H-M  'R-3'
_cell_length_a       7.17268
_cell_length_b       7.17268
_cell_length_c       7.17268
_cell_angle_alpha    47.9799
_cell_angle_beta     47.98
_cell_angle_gamma    47.9799

_symmetry_Int_Tables_number  148
_chemical_formula_structural  SrLi3MnN3
_chemical_formula_sum  Sr2Li6Mn2N6
_cell_volume  186.57559964173961
_cell_formula_units_Z  2
loop_
  _symmetry_equiv_pos_site_id
 _symmetry_equiv_pos_as_xyz
 1  'x, y, z'
loop_
 _atom_site_type_symbol
 _atom_site_label
 _atom_site_symmetry_multiplicity
 _atom_site_fract_x
 _atom_site_fract_y
 _atom_site_fract_z
 _atom_site_fract_occupancy
 Li  Li1  1  0.10556  0.52392  0.76339  1
 Li  Li2  1  0.76339  0.10556  0.52392  1
 Li  Li3  1  0.47608  0.23661  0.89444  1
 Li  Li4  1  0.52392  0.76339  0.10556  1
 Li  Li5  1  0.23661  0.89444  0.47608  1
 Li  Li6  1  0.89444  0.47608  0.23661  1
 Mn  Mn1  1  0.93256  0.93256  0.93256  1
 Mn  Mn2  1  0.06744  0.06744  0.06744  1
 N  N1  1  0.79463  0.38225  0.09488  1
 N  N2  1  0.90512  0.20537  0.61775  1
 N  N3  1  0.20537  0.61775  0.90512  1
 N  N4  1  0.61775  0.90512  0.20537  1
 N  N5  1  0.09488  0.79463  0.38225  1
 N  N6  1  0.38225  0.09488  0.79463  1
 Sr  Sr1  1  0.66268  0.66268  0.66268  1
 Sr  Sr2  1  0.33732  0.33732  0.33732  1
