CIF file written using JARVIS-Tools package.
data_TaTi2N3
_symmetry_space_group_name_H-M  'P6/mmm'
_cell_length_a       5.05468
_cell_length_b       5.05468
_cell_length_c       2.86776
_cell_angle_alpha    90
_cell_angle_beta     90
_cell_angle_gamma    120

_symmetry_Int_Tables_number  191
_chemical_formula_structural  TaTi2N3
_chemical_formula_sum  TaTi2N3
_cell_volume  63.4541971250377
_cell_formula_units_Z  1
loop_
  _symmetry_equiv_pos_site_id
 _symmetry_equiv_pos_as_xyz
 1  'x, y, z'
loop_
 _atom_site_type_symbol
 _atom_site_label
 _atom_site_symmetry_multiplicity
 _atom_site_fract_x
 _atom_site_fract_y
 _atom_site_fract_z
 _atom_site_fract_occupancy
 N  N1  1  0.00000  0.50000  0.00000  1
 N  N2  1  0.50000  0.50000  0.00000  1
 N  N3  1  0.50000  -0.00000  0.00000  1
 Ta  Ta1  1  0.00000  0.00000  0.00000  1
 Ti  Ti1  1  0.33333  0.66667  0.50000  1
 Ti  Ti2  1  0.66667  0.33333  0.50000  1
