CIF file written using JARVIS-Tools package.
data_TaSbO4
_symmetry_space_group_name_H-M  'Pnna'
_cell_length_a       6.22995
_cell_length_b       6.26227
_cell_length_c       10.4602
_cell_angle_alpha    90
_cell_angle_beta     90
_cell_angle_gamma    90

_symmetry_Int_Tables_number  52
_chemical_formula_structural  TaSbO4
_chemical_formula_sum  Ta4Sb4O6
_cell_volume  408.09113104942594
_cell_formula_units_Z  4
loop_
  _symmetry_equiv_pos_site_id
 _symmetry_equiv_pos_as_xyz
 1  'x, y, z'
loop_
 _atom_site_type_symbol
 _atom_site_label
 _atom_site_symmetry_multiplicity
 _atom_site_fract_x
 _atom_site_fract_y
 _atom_site_fract_z
 _atom_site_fract_occupancy
 O  O1  1  0.25507  0.45361  0.31207  1
 O  O2  1  0.48338  0.70702  0.48012  1
 O  O3  1  0.98338  0.29298  0.48012  1
 O  O4  1  0.75507  0.95361  0.18793  1
 O  O5  1  0.01662  0.70702  0.51988  1
 O  O6  1  0.51662  0.20702  0.98012  1
 O  O7  1  0.24493  0.45361  0.68793  1
 O  O8  1  0.74493  0.95361  0.81207  1
 O  O9  1  0.25507  0.04639  0.18793  1
 O  O10  1  0.98338  0.20702  0.01988  1
 O  O11  1  0.01662  0.79298  0.98012  1
 O  O12  1  0.74493  0.54639  0.68793  1
 O  O13  1  0.24493  0.04639  0.81207  1
 O  O14  1  0.51662  0.29298  0.51988  1
 O  O15  1  0.75507  0.54639  0.31207  1
 O  O16  1  0.48338  0.79298  0.01988  1
 Sb  Sb1  1  0.48267  0.25000  0.75000  1
 Sb  Sb2  1  0.01733  0.25000  0.25000  1
 Sb  Sb3  1  0.51733  0.75000  0.25000  1
 Sb  Sb4  1  0.98267  0.75000  0.75000  1
 Ta  Ta1  1  0.25000  0.49595  0.50000  1
 Ta  Ta2  1  0.75000  0.50405  0.50000  1
 Ta  Ta3  1  0.25000  0.00405  0.00000  1
 Ta  Ta4  1  0.75000  0.99595  0.00000  1
