CIF file written using JARVIS-Tools package.
data_Fe4O3F5
_symmetry_space_group_name_H-M  'P-1'
_cell_length_a       4.71229
_cell_length_b       7.64687
_cell_length_c       7.73727
_cell_angle_alpha    103.51
_cell_angle_beta     91.1776
_cell_angle_gamma    91.6416

_symmetry_Int_Tables_number  2
_chemical_formula_structural  Fe4O3F5
_chemical_formula_sum  Fe8O6F0
_cell_volume  270.87425561588293
_cell_formula_units_Z  2
loop_
  _symmetry_equiv_pos_site_id
 _symmetry_equiv_pos_as_xyz
 1  'x, y, z'
loop_
 _atom_site_type_symbol
 _atom_site_label
 _atom_site_symmetry_multiplicity
 _atom_site_fract_x
 _atom_site_fract_y
 _atom_site_fract_z
 _atom_site_fract_occupancy
 F  F1  1  0.80313  0.21560  0.94721  1
 F  F2  1  0.70257  0.09988  0.59148  1
 F  F3  1  0.70801  0.34781  0.31989  1
 F  F4  1  0.29743  0.90012  0.40852  1
 F  F5  1  0.29199  0.65219  0.68011  1
 F  F6  1  0.19687  0.78440  0.05279  1
 F  F7  1  0.21891  0.53622  0.28606  1
 F  F8  1  0.20849  0.01708  0.76514  1
 F  F9  1  0.78109  0.46378  0.71394  1
 F  F10  1  0.79151  0.98292  0.23486  1
 Fe  Fe1  1  0.55596  0.86733  0.64167  1
 Fe  Fe2  1  0.95851  0.74321  0.26541  1
 Fe  Fe3  1  0.00000  0.00000  0.00000  1
 Fe  Fe4  1  0.04149  0.25679  0.73459  1
 Fe  Fe5  1  0.00000  0.50000  0.50000  1
 Fe  Fe6  1  0.48989  0.37637  0.10293  1
 Fe  Fe7  1  0.51011  0.62363  0.89707  1
 Fe  Fe8  1  0.44404  0.13267  0.35833  1
 O  O1  1  0.70250  0.83343  0.86802  1
 O  O2  1  0.20076  0.28226  0.51681  1
 O  O3  1  0.29750  0.16657  0.13198  1
 O  O4  1  0.79924  0.71774  0.48319  1
 O  O5  1  0.69825  0.59293  0.09951  1
 O  O6  1  0.30175  0.40707  0.90049  1
