CIF file written using JARVIS-Tools package.
data_VN2Cl6O2
_symmetry_space_group_name_H-M  'P2_1/c'
_cell_length_a       6.53195
_cell_length_b       6.63195
_cell_length_c       10.1855
_cell_angle_alpha    90
_cell_angle_beta     92.5866
_cell_angle_gamma    90

_symmetry_Int_Tables_number  14
_chemical_formula_structural  VN2Cl6O2
_chemical_formula_sum  V2N4Cl2O4
_cell_volume  440.781815149878
_cell_formula_units_Z  2
loop_
  _symmetry_equiv_pos_site_id
 _symmetry_equiv_pos_as_xyz
 1  'x, y, z'
loop_
 _atom_site_type_symbol
 _atom_site_label
 _atom_site_symmetry_multiplicity
 _atom_site_fract_x
 _atom_site_fract_y
 _atom_site_fract_z
 _atom_site_fract_occupancy
 Cl  Cl1  1  0.29050  0.82152  0.98014  1
 Cl  Cl2  1  0.79050  0.67848  0.48014  1
 Cl  Cl3  1  0.68847  0.19966  0.50106  1
 Cl  Cl4  1  0.96145  0.02421  0.77073  1
 Cl  Cl5  1  0.18847  0.30034  0.00106  1
 Cl  Cl6  1  0.31153  0.80034  0.49894  1
 Cl  Cl7  1  0.70950  0.17848  0.01986  1
 Cl  Cl8  1  0.03855  0.97579  0.22927  1
 Cl  Cl9  1  0.53855  0.52421  0.72927  1
 Cl  Cl10  1  0.20950  0.32152  0.51986  1
 Cl  Cl11  1  0.81153  0.69966  0.99894  1
 Cl  Cl12  1  0.46145  0.47579  0.27073  1
 N  N1  1  0.42655  0.01332  0.30807  1
 N  N2  1  0.57345  0.98668  0.69193  1
 N  N3  1  0.07345  0.51332  0.19193  1
 N  N4  1  0.92655  0.48668  0.80807  1
 O  O1  1  0.02789  0.57135  0.74047  1
 O  O2  1  0.47211  0.07135  0.75953  1
 O  O3  1  0.97211  0.42865  0.25953  1
 O  O4  1  0.52789  0.92865  0.24047  1
 V  V1  1  0.50000  0.50000  0.50000  1
 V  V2  1  0.00000  0.00000  0.00000  1
