CIF file written using JARVIS-Tools package.
data_K2GeI6O18
_symmetry_space_group_name_H-M  'R-3'
_cell_length_a       7.46225
_cell_length_b       7.46225
_cell_length_c       7.46225
_cell_angle_alpha    96.9945
_cell_angle_beta     96.9945
_cell_angle_gamma    96.9946

_symmetry_Int_Tables_number  148
_chemical_formula_structural  K2GeI6O18
_chemical_formula_sum  K2GeI6O8
_cell_volume  405.42021322218056
_cell_formula_units_Z  1
loop_
  _symmetry_equiv_pos_site_id
 _symmetry_equiv_pos_as_xyz
 1  'x, y, z'
loop_
 _atom_site_type_symbol
 _atom_site_label
 _atom_site_symmetry_multiplicity
 _atom_site_fract_x
 _atom_site_fract_y
 _atom_site_fract_z
 _atom_site_fract_occupancy
 Ge  Ge1  1  0.00000  0.00000  0.00000  1
 I  I1  1  0.36910  0.16086  0.79445  1
 I  I2  1  0.63090  0.83914  0.20555  1
 I  I3  1  0.79445  0.36910  0.16086  1
 I  I4  1  0.83914  0.20555  0.63090  1
 I  I5  1  0.16086  0.79445  0.36910  1
 I  I6  1  0.20555  0.63090  0.83914  1
 K  K1  1  0.32658  0.32658  0.32658  1
 K  K2  1  0.67342  0.67342  0.67342  1
 O  O1  1  0.41607  0.79456  0.88352  1
 O  O2  1  0.81794  0.81517  0.05202  1
 O  O3  1  0.11648  0.58393  0.20544  1
 O  O4  1  0.58393  0.20544  0.11648  1
 O  O5  1  0.94798  0.18206  0.18483  1
 O  O6  1  0.81467  0.42372  0.40870  1
 O  O7  1  0.59130  0.18533  0.57628  1
 O  O8  1  0.57628  0.59130  0.18533  1
 O  O9  1  0.05202  0.81794  0.81517  1
 O  O10  1  0.81517  0.05202  0.81794  1
 O  O11  1  0.18206  0.18483  0.94798  1
 O  O12  1  0.88352  0.41607  0.79456  1
 O  O13  1  0.18533  0.57628  0.59130  1
 O  O14  1  0.79456  0.88352  0.41607  1
 O  O15  1  0.42372  0.40870  0.81467  1
 O  O16  1  0.18483  0.94798  0.18206  1
 O  O17  1  0.20544  0.11648  0.58393  1
 O  O18  1  0.40870  0.81467  0.42372  1
