CIF file written using JARVIS-Tools package.
data_SiAs2
_symmetry_space_group_name_H-M  'Pa-3'
_cell_length_a       6.14113
_cell_length_b       6.14113
_cell_length_c       6.14113
_cell_angle_alpha    90
_cell_angle_beta     90
_cell_angle_gamma    90

_symmetry_Int_Tables_number  205
_chemical_formula_structural  SiAs2
_chemical_formula_sum  Si4As8
_cell_volume  231.6035365657759
_cell_formula_units_Z  4
loop_
  _symmetry_equiv_pos_site_id
 _symmetry_equiv_pos_as_xyz
 1  'x, y, z'
loop_
 _atom_site_type_symbol
 _atom_site_label
 _atom_site_symmetry_multiplicity
 _atom_site_fract_x
 _atom_site_fract_y
 _atom_site_fract_z
 _atom_site_fract_occupancy
 As  As1  1  0.38474  0.38474  0.38474  1
 As  As2  1  0.11526  0.61526  0.88474  1
 As  As3  1  0.88474  0.11526  0.61526  1
 As  As4  1  0.61526  0.88474  0.11526  1
 As  As5  1  0.61526  0.61526  0.61526  1
 As  As6  1  0.88474  0.38474  0.11526  1
 As  As7  1  0.11526  0.88474  0.38474  1
 As  As8  1  0.38474  0.11526  0.88474  1
 Si  Si1  1  0.00000  0.00000  0.00000  1
 Si  Si2  1  0.50000  0.00000  0.50000  1
 Si  Si3  1  0.50000  0.50000  0.00000  1
 Si  Si4  1  0.00000  0.50000  0.50000  1
