CIF file written using JARVIS-Tools package.
data_NaNd2RuO6
_symmetry_space_group_name_H-M  'P2_1/c'
_cell_length_a       5.51657
_cell_length_b       5.96055
_cell_length_c       9.59029
_cell_angle_alpha    90
_cell_angle_beta     124.117
_cell_angle_gamma    90

_symmetry_Int_Tables_number  14
_chemical_formula_structural  NaNd2RuO6
_chemical_formula_sum  Na2Nd4Ru2O2
_cell_volume  261.07395386625166
_cell_formula_units_Z  2
loop_
  _symmetry_equiv_pos_site_id
 _symmetry_equiv_pos_as_xyz
 1  'x, y, z'
loop_
 _atom_site_type_symbol
 _atom_site_label
 _atom_site_symmetry_multiplicity
 _atom_site_fract_x
 _atom_site_fract_y
 _atom_site_fract_z
 _atom_site_fract_occupancy
 Na  Na1  1  0.00000  0.00000  0.00000  1
 Na  Na2  1  0.00000  0.50000  0.50000  1
 Nd  Nd1  1  0.77385  0.42591  0.75274  1
 Nd  Nd2  1  0.22615  0.92591  0.74726  1
 Nd  Nd3  1  0.22615  0.57409  0.24726  1
 Nd  Nd4  1  0.77385  0.07409  0.25274  1
 O  O1  1  0.73068  0.71803  0.56628  1
 O  O2  1  0.15543  0.67329  0.94872  1
 O  O3  1  0.26932  0.28197  0.43372  1
 O  O4  1  0.73068  0.78197  0.06628  1
 O  O5  1  0.26932  0.21803  0.93372  1
 O  O6  1  0.38540  0.54694  0.76780  1
 O  O7  1  0.84457  0.32671  0.05128  1
 O  O8  1  0.61460  0.45306  0.23220  1
 O  O9  1  0.61460  0.04694  0.73220  1
 O  O10  1  0.15543  0.82671  0.44872  1
 O  O11  1  0.38540  0.95306  0.26780  1
 O  O12  1  0.84457  0.17329  0.55128  1
 Ru  Ru1  1  0.50000  0.00000  0.50000  1
 Ru  Ru2  1  0.50000  0.50000  -0.00000  1
