CIF file written using JARVIS-Tools package.
data_CrN2
_symmetry_space_group_name_H-M  'Imma'
_cell_length_a       5.65614
_cell_length_b       7.57432
_cell_length_c       7.57432
_cell_angle_alpha    79.1441
_cell_angle_beta     68.076
_cell_angle_gamma    68.076

_symmetry_Int_Tables_number  74
_chemical_formula_structural  CrN2
_chemical_formula_sum  Cr4N8
_cell_volume  278.8051629403726
_cell_formula_units_Z  4
loop_
  _symmetry_equiv_pos_site_id
 _symmetry_equiv_pos_as_xyz
 1  'x, y, z'
loop_
 _atom_site_type_symbol
 _atom_site_label
 _atom_site_symmetry_multiplicity
 _atom_site_fract_x
 _atom_site_fract_y
 _atom_site_fract_z
 _atom_site_fract_occupancy
 Cr  Cr1  1  0.91511  0.92896  0.23900  1
 Cr  Cr2  1  0.08307  0.07104  0.76100  1
 Cr  Cr3  1  0.58307  0.26100  0.57104  1
 Cr  Cr4  1  0.41511  0.73900  0.42896  1
 N  N1  1  0.70171  0.79739  0.29706  1
 N  N2  1  0.79615  0.20261  0.70294  1
 N  N3  1  0.29615  0.20294  0.70261  1
 N  N4  1  0.20171  0.79706  0.29739  1
 N  N5  1  0.74912  0.12570  0.37430  1
 N  N6  1  0.24912  0.87430  0.62570  1
 N  N7  1  -0.00059  0.00000  0.00000  1
 N  N8  1  0.49941  0.50000  0.50000  1
