CIF file written using JARVIS-Tools package.
data_Li3V2O6
_symmetry_space_group_name_H-M  'P-1'
_cell_length_a       4.91019
_cell_length_b       4.97458
_cell_length_c       5.17851
_cell_angle_alpha    100.47
_cell_angle_beta     103.599
_cell_angle_gamma    117.21

_symmetry_Int_Tables_number  2
_chemical_formula_structural  Li3V2O6
_chemical_formula_sum  Li3V2O6
_cell_volume  103.03736658991951
_cell_formula_units_Z  1
loop_
  _symmetry_equiv_pos_site_id
 _symmetry_equiv_pos_as_xyz
 1  'x, y, z'
loop_
 _atom_site_type_symbol
 _atom_site_label
 _atom_site_symmetry_multiplicity
 _atom_site_fract_x
 _atom_site_fract_y
 _atom_site_fract_z
 _atom_site_fract_occupancy
 Li  Li1  1  0.00430  0.50033  -0.00028  1
 Li  Li2  1  0.68038  0.88497  -0.03854  1
 Li  Li3  1  0.32827  0.11573  0.03809  1
 O  O1  1  0.80174  0.29766  0.25872  1
 O  O2  1  0.20695  0.70310  0.74077  1
 O  O3  1  0.96002  0.08507  0.73869  1
 O  O4  1  0.42647  0.55530  0.27562  1
 O  O5  1  0.58224  0.44550  0.72382  1
 O  O6  1  0.04869  0.91570  0.26081  1
 V  V1  1  0.83251  0.67687  0.45533  1
 V  V2  1  0.17617  0.32390  0.54416  1
