CIF file written using JARVIS-Tools package.
data_Cr2B
_symmetry_space_group_name_H-M  'Fddd'
_cell_length_a       4.2099
_cell_length_b       4.23397
_cell_length_c       7.58563
_cell_angle_alpha    82.0703
_cell_angle_beta     73.8894
_cell_angle_gamma    60.1879

_symmetry_Int_Tables_number  70
_chemical_formula_structural  Cr2B
_chemical_formula_sum  Cr8B4
_cell_volume  112.70989773382371
_cell_formula_units_Z  4
loop_
  _symmetry_equiv_pos_site_id
 _symmetry_equiv_pos_as_xyz
 1  'x, y, z'
loop_
 _atom_site_type_symbol
 _atom_site_label
 _atom_site_symmetry_multiplicity
 _atom_site_fract_x
 _atom_site_fract_y
 _atom_site_fract_z
 _atom_site_fract_occupancy
 B  B1  1  0.75048  0.75000  0.49903  1
 B  B2  1  0.50048  0.25000  0.99903  1
 B  B3  1  0.49952  0.75000  0.00097  1
 B  B4  1  0.24952  0.25000  0.50097  1
 Cr  Cr1  1  0.79241  0.25000  0.41518  1
 Cr  Cr2  1  0.20759  0.75000  0.58482  1
 Cr  Cr3  1  0.20939  0.58121  0.25000  1
 Cr  Cr4  1  0.04241  0.75000  0.91518  1
 Cr  Cr5  1  0.79061  0.41879  0.75000  1
 Cr  Cr6  1  0.54061  0.91879  0.25000  1
 Cr  Cr7  1  0.95759  0.25000  0.08482  1
 Cr  Cr8  1  0.45939  0.08121  0.75000  1
