CIF file written using JARVIS-Tools package.
data_LiVOF4
_symmetry_space_group_name_H-M  'P2_1'
_cell_length_a       4.07858
_cell_length_b       9.51113
_cell_length_c       5.16081
_cell_angle_alpha    90
_cell_angle_beta     113.271
_cell_angle_gamma    90

_symmetry_Int_Tables_number  4
_chemical_formula_structural  LiVOF4
_chemical_formula_sum  Li2V2O2F8
_cell_volume  183.91090062278866
_cell_formula_units_Z  2
loop_
  _symmetry_equiv_pos_site_id
 _symmetry_equiv_pos_as_xyz
 1  'x, y, z'
loop_
 _atom_site_type_symbol
 _atom_site_label
 _atom_site_symmetry_multiplicity
 _atom_site_fract_x
 _atom_site_fract_y
 _atom_site_fract_z
 _atom_site_fract_occupancy
 F  F1  1  0.62774  0.12316  0.23696  1
 F  F2  1  0.62413  0.39005  0.22633  1
 F  F3  1  0.89692  0.12742  0.77219  1
 F  F4  1  0.89009  0.39435  0.76153  1
 F  F5  1  0.10991  0.89435  0.23847  1
 F  F6  1  0.10308  0.62742  0.22781  1
 F  F7  1  0.37587  0.89005  0.77367  1
 F  F8  1  0.37226  0.62316  0.76304  1
 Li  Li1  1  0.74511  0.50879  0.98821  1
 Li  Li2  1  0.25489  0.00879  0.01179  1
 O  O1  1  0.75701  0.75872  0.50081  1
 O  O2  1  0.24299  0.25872  0.49919  1
 V  V1  1  0.84891  0.25874  0.49927  1
 V  V2  1  0.15109  0.75874  0.50073  1
