CIF file written using JARVIS-Tools package.
data_UOF4
_symmetry_space_group_name_H-M  'R3m'
_cell_length_a       7.92622
_cell_length_b       7.92622
_cell_length_c       7.92622
_cell_angle_alpha    114.719
_cell_angle_beta     114.719
_cell_angle_gamma    114.719

_symmetry_Int_Tables_number  160
_chemical_formula_structural  UOF4
_chemical_formula_sum  U3O3F2
_cell_volume  285.68540589333054
_cell_formula_units_Z  3
loop_
  _symmetry_equiv_pos_site_id
 _symmetry_equiv_pos_as_xyz
 1  'x, y, z'
loop_
 _atom_site_type_symbol
 _atom_site_label
 _atom_site_symmetry_multiplicity
 _atom_site_fract_x
 _atom_site_fract_y
 _atom_site_fract_z
 _atom_site_fract_occupancy
 F  F1  1  0.15305  0.95775  0.62606  1
 F  F2  1  0.95775  0.15305  0.62606  1
 F  F3  1  0.62606  0.95775  0.15305  1
 F  F4  1  0.65735  0.65735  0.87743  1
 F  F5  1  0.15982  0.15982  0.38005  1
 F  F6  1  0.15305  0.62606  0.95775  1
 F  F7  1  0.65735  0.87743  0.65735  1
 F  F8  1  0.62606  0.15305  0.95775  1
 F  F9  1  0.95775  0.62606  0.15305  1
 F  F10  1  0.15982  0.38005  0.15982  1
 F  F11  1  0.87743  0.65735  0.65735  1
 F  F12  1  0.38005  0.15982  0.15982  1
 O  O1  1  0.57986  0.16302  0.57986  1
 O  O2  1  0.57986  0.57986  0.16302  1
 O  O3  1  0.16302  0.57986  0.57986  1
 U  U1  1  0.85481  0.85481  0.26312  1
 U  U2  1  0.26312  0.85481  0.85481  1
 U  U3  1  0.85481  0.26312  0.85481  1
