CIF file written using JARVIS-Tools package.
data_LuAl2Ni
_symmetry_space_group_name_H-M  'Cmcm'
_cell_length_a       4.04554
_cell_length_b       5.31492
_cell_length_c       6.85764
_cell_angle_alpha    90
_cell_angle_beta     90
_cell_angle_gamma    112.37

_symmetry_Int_Tables_number  63
_chemical_formula_structural  LuAl2Ni
_chemical_formula_sum  Lu2Al4Ni2
_cell_volume  136.3550960723645
_cell_formula_units_Z  2
loop_
  _symmetry_equiv_pos_site_id
 _symmetry_equiv_pos_as_xyz
 1  'x, y, z'
loop_
 _atom_site_type_symbol
 _atom_site_label
 _atom_site_symmetry_multiplicity
 _atom_site_fract_x
 _atom_site_fract_y
 _atom_site_fract_z
 _atom_site_fract_occupancy
 Al  Al1  1  0.15086  0.30172  0.05295  1
 Al  Al2  1  0.84914  0.69828  0.94705  1
 Al  Al3  1  0.84914  0.69828  0.55295  1
 Al  Al4  1  0.15086  0.30172  0.44705  1
 Lu  Lu1  1  0.43680  0.87359  0.25000  1
 Lu  Lu2  1  0.56320  0.12641  0.75000  1
 Ni  Ni1  1  0.71483  0.42966  0.25000  1
 Ni  Ni2  1  0.28517  0.57034  0.75000  1
