CIF file written using JARVIS-Tools package.
data_Pa3H
_symmetry_space_group_name_H-M  'P6_3/mmc'
_cell_length_a       7.91026
_cell_length_b       7.91026
_cell_length_c       3.12452
_cell_angle_alpha    90
_cell_angle_beta     90
_cell_angle_gamma    120

_symmetry_Int_Tables_number  194
_chemical_formula_structural  Pa3H
_chemical_formula_sum  Pa6H2
_cell_volume  169.31484480885172
_cell_formula_units_Z  2
loop_
  _symmetry_equiv_pos_site_id
 _symmetry_equiv_pos_as_xyz
 1  'x, y, z'
loop_
 _atom_site_type_symbol
 _atom_site_label
 _atom_site_symmetry_multiplicity
 _atom_site_fract_x
 _atom_site_fract_y
 _atom_site_fract_z
 _atom_site_fract_occupancy
 H  H1  1  0.33333  0.66667  0.75000  1
 H  H2  1  0.66667  0.33333  0.25000  1
 Pa  Pa1  1  0.19514  0.39028  0.25000  1
 Pa  Pa2  1  0.60972  0.80486  0.25000  1
 Pa  Pa3  1  0.19514  0.80486  0.25000  1
 Pa  Pa4  1  0.80486  0.60972  0.75000  1
 Pa  Pa5  1  0.39028  0.19514  0.75000  1
 Pa  Pa6  1  0.80486  0.19514  0.75000  1
