CIF file written using JARVIS-Tools package.
data_Li2V3O6
_symmetry_space_group_name_H-M  'C2/m'
_cell_length_a       5.12906
_cell_length_b       5.02533
_cell_length_c       5.01489
_cell_angle_alpha    60.0687
_cell_angle_beta     71.6744
_cell_angle_gamma    80.974

_symmetry_Int_Tables_number  12
_chemical_formula_structural  Li2V3O6
_chemical_formula_sum  Li2V3O6
_cell_volume  106.33877116417264
_cell_formula_units_Z  1
loop_
  _symmetry_equiv_pos_site_id
 _symmetry_equiv_pos_as_xyz
 1  'x, y, z'
loop_
 _atom_site_type_symbol
 _atom_site_label
 _atom_site_symmetry_multiplicity
 _atom_site_fract_x
 _atom_site_fract_y
 _atom_site_fract_z
 _atom_site_fract_occupancy
 Li  Li1  1  -0.00000  0.33986  0.33007  1
 Li  Li2  1  0.00000  0.66014  0.66993  1
 O  O1  1  0.26760  -0.00000  0.25170  1
 O  O2  1  0.28238  0.34506  0.55890  1
 O  O3  1  0.28238  0.65494  0.90396  1
 O  O4  1  0.71762  0.34506  0.09604  1
 O  O5  1  0.71762  0.65494  0.44110  1
 O  O6  1  0.73240  0.00000  0.74830  1
 V  V1  1  0.50000  0.68448  0.15776  1
 V  V2  1  0.50000  -0.00000  0.50000  1
 V  V3  1  0.50000  0.31552  0.84224  1
