CIF file written using JARVIS-Tools package.
data_Te4Mo3Se2
_symmetry_space_group_name_H-M  'P-6m2'
_cell_length_a       3.48444
_cell_length_b       3.48447
_cell_length_c       28.707
_cell_angle_alpha    90
_cell_angle_beta     90
_cell_angle_gamma    120

_symmetry_Int_Tables_number  187
_chemical_formula_structural  Te4Mo3Se2
_chemical_formula_sum  Te4Mo3Se2
_cell_volume  301.84992197767724
_cell_formula_units_Z  1
loop_
  _symmetry_equiv_pos_site_id
 _symmetry_equiv_pos_as_xyz
 1  'x, y, z'
loop_
 _atom_site_type_symbol
 _atom_site_label
 _atom_site_symmetry_multiplicity
 _atom_site_fract_x
 _atom_site_fract_y
 _atom_site_fract_z
 _atom_site_fract_occupancy
 Mo  Mo1  1  0.33314  0.66628  0.10980  1
 Mo  Mo2  1  0.33314  0.66628  0.58416  1
 Mo  Mo3  1  0.66703  0.33405  0.34698  1
 Se  Se1  1  0.33370  0.66740  0.40355  1
 Se  Se2  1  0.33370  0.66740  0.29042  1
 Te  Te1  1  0.66647  0.33293  0.04567  1
 Te  Te2  1  0.66648  0.33296  0.51993  1
 Te  Te3  1  0.66648  0.33296  0.17403  1
 Te  Te4  1  0.66647  0.33293  0.64829  1
