CIF file written using JARVIS-Tools package.
data_YPb2
_symmetry_space_group_name_H-M  'Cmcm'
_cell_length_a       4.51349
_cell_length_b       4.54242
_cell_length_c       8.66741
_cell_angle_alpha    105.191
_cell_angle_beta     90
_cell_angle_gamma    90

_symmetry_Int_Tables_number  63
_chemical_formula_structural  YPb2
_chemical_formula_sum  Y2Pb4
_cell_volume  171.4915539337761
_cell_formula_units_Z  2
loop_
  _symmetry_equiv_pos_site_id
 _symmetry_equiv_pos_as_xyz
 1  'x, y, z'
loop_
 _atom_site_type_symbol
 _atom_site_label
 _atom_site_symmetry_multiplicity
 _atom_site_fract_x
 _atom_site_fract_y
 _atom_site_fract_z
 _atom_site_fract_occupancy
 Pb  Pb1  1  0.75000  0.43251  0.86502  1
 Pb  Pb2  1  0.25000  0.56749  0.13498  1
 Pb  Pb3  1  0.75000  0.74867  0.49735  1
 Pb  Pb4  1  0.25000  0.25133  0.50265  1
 Y  Y1  1  0.25000  0.90405  0.80809  1
 Y  Y2  1  0.75000  0.09595  0.19191  1
