CIF file written using JARVIS-Tools package.
data_K2SrNb6Cl18
_symmetry_space_group_name_H-M  'R-3'
_cell_length_a       10.204
_cell_length_b       10.204
_cell_length_c       10.204
_cell_angle_alpha    54.4211
_cell_angle_beta     54.4211
_cell_angle_gamma    54.4211

_symmetry_Int_Tables_number  148
_chemical_formula_structural  K2SrNb6Cl18
_chemical_formula_sum  K2SrNb6Cl8
_cell_volume  653.5241898400366
_cell_formula_units_Z  1
loop_
  _symmetry_equiv_pos_site_id
 _symmetry_equiv_pos_as_xyz
 1  'x, y, z'
loop_
 _atom_site_type_symbol
 _atom_site_label
 _atom_site_symmetry_multiplicity
 _atom_site_fract_x
 _atom_site_fract_y
 _atom_site_fract_z
 _atom_site_fract_occupancy
 Cl  Cl1  1  0.91544  0.07641  0.33762  1
 Cl  Cl2  1  0.48773  0.15824  0.66572  1
 Cl  Cl3  1  0.08456  0.92359  0.66238  1
 Cl  Cl4  1  0.07641  0.33762  0.91544  1
 Cl  Cl5  1  0.92359  0.66238  0.08456  1
 Cl  Cl6  1  0.51227  0.84176  0.33428  1
 Cl  Cl7  1  0.66238  0.08456  0.92359  1
 Cl  Cl8  1  0.15824  0.66572  0.48773  1
 Cl  Cl9  1  0.26339  0.57527  0.16181  1
 Cl  Cl10  1  0.73661  0.42473  0.83819  1
 Cl  Cl11  1  0.16181  0.26339  0.57527  1
 Cl  Cl12  1  0.42473  0.83819  0.73661  1
 Cl  Cl13  1  0.83819  0.73661  0.42473  1
 Cl  Cl14  1  0.66572  0.48773  0.15824  1
 Cl  Cl15  1  0.57527  0.16181  0.26339  1
 Cl  Cl16  1  0.33762  0.91544  0.07641  1
 Cl  Cl17  1  0.84176  0.33428  0.51227  1
 Cl  Cl18  1  0.33428  0.51227  0.84176  1
 K  K1  1  0.77855  0.77855  0.77855  1
 K  K2  1  0.22145  0.22145  0.22145  1
 Nb  Nb1  1  0.92556  0.14869  0.78766  1
 Nb  Nb2  1  0.78766  0.92556  0.14869  1
 Nb  Nb3  1  0.21234  0.07444  0.85131  1
 Nb  Nb4  1  0.85131  0.21234  0.07444  1
 Nb  Nb5  1  0.07444  0.85131  0.21234  1
 Nb  Nb6  1  0.14869  0.78766  0.92556  1
 Sr  Sr1  1  0.50000  0.50000  0.50000  1
