CIF file written using JARVIS-Tools package.
data_Li2FeOF3
_symmetry_space_group_name_H-M  'P4_1'
_cell_length_a       5.90445
_cell_length_b       5.90445
_cell_length_c       8.38473
_cell_angle_alpha    90
_cell_angle_beta     90
_cell_angle_gamma    90

_symmetry_Int_Tables_number  76
_chemical_formula_structural  Li2FeOF3
_chemical_formula_sum  Li8Fe4O4F2
_cell_volume  292.3124837743437
_cell_formula_units_Z  4
loop_
  _symmetry_equiv_pos_site_id
 _symmetry_equiv_pos_as_xyz
 1  'x, y, z'
loop_
 _atom_site_type_symbol
 _atom_site_label
 _atom_site_symmetry_multiplicity
 _atom_site_fract_x
 _atom_site_fract_y
 _atom_site_fract_z
 _atom_site_fract_occupancy
 F  F1  1  0.98567  0.74721  0.25918  1
 F  F2  1  0.75805  0.47923  0.99997  1
 F  F3  1  0.74747  0.50472  0.49153  1
 F  F4  1  0.52077  0.75805  0.24997  1
 F  F5  1  0.50472  0.25253  0.24153  1
 F  F6  1  0.49528  0.74747  0.74153  1
 F  F7  1  0.47923  0.24195  0.74997  1
 F  F8  1  0.24195  0.52077  0.49997  1
 F  F9  1  0.25253  0.49528  0.99153  1
 F  F10  1  0.74721  0.01433  0.00918  1
 F  F11  1  0.25279  0.98567  0.50918  1
 F  F12  1  0.01433  0.25279  0.75918  1
 Fe  Fe1  1  0.01826  0.25387  0.01762  1
 Fe  Fe2  1  0.98174  0.74613  0.51762  1
 Fe  Fe3  1  0.25387  0.98174  0.76762  1
 Fe  Fe4  1  0.74613  0.01826  0.26762  1
 Li  Li1  1  0.24130  0.25410  0.37498  1
 Li  Li2  1  0.75870  0.74590  0.87498  1
 Li  Li3  1  0.74590  0.24130  0.62498  1
 Li  Li4  1  0.73685  0.50376  0.24448  1
 Li  Li5  1  0.49624  0.73685  0.49448  1
 Li  Li6  1  0.50376  0.26315  0.99448  1
 Li  Li7  1  0.26315  0.49624  0.74448  1
 Li  Li8  1  0.25410  0.75870  0.12498  1
 O  O1  1  0.24112  0.02411  0.98724  1
 O  O2  1  0.97589  0.24112  0.23724  1
 O  O3  1  0.02411  0.75888  0.73724  1
 O  O4  1  0.75888  0.97589  0.48724  1
