CIF file written using JARVIS-Tools package.
data_PrTeCl
_symmetry_space_group_name_H-M  'P4/nmm'
_cell_length_a       4.49595
_cell_length_b       4.49595
_cell_length_c       8.27253
_cell_angle_alpha    90
_cell_angle_beta     90
_cell_angle_gamma    90

_symmetry_Int_Tables_number  129
_chemical_formula_structural  PrTeCl
_chemical_formula_sum  Pr2Te2Cl2
_cell_volume  167.21707376852322
_cell_formula_units_Z  2
loop_
  _symmetry_equiv_pos_site_id
 _symmetry_equiv_pos_as_xyz
 1  'x, y, z'
loop_
 _atom_site_type_symbol
 _atom_site_label
 _atom_site_symmetry_multiplicity
 _atom_site_fract_x
 _atom_site_fract_y
 _atom_site_fract_z
 _atom_site_fract_occupancy
 Cl  Cl1  1  0.50000  0.50000  0.00000  1
 Cl  Cl2  1  0.00000  0.00000  0.00000  1
 Pr  Pr1  1  0.50000  0.00000  0.76074  1
 Pr  Pr2  1  0.00000  0.50000  0.23926  1
 Te  Te1  1  0.50000  0.00000  0.36410  1
 Te  Te2  1  0.00000  0.50000  0.63590  1
