CIF file written using JARVIS-Tools package.
data_Tl2CuAsO4
_symmetry_space_group_name_H-M  'P2_1'
_cell_length_a       5.72521
_cell_length_b       5.59049
_cell_length_c       8.74071
_cell_angle_alpha    90
_cell_angle_beta     95.0609
_cell_angle_gamma    90

_symmetry_Int_Tables_number  4
_chemical_formula_structural  Tl2CuAsO4
_chemical_formula_sum  Tl4Cu2As2O8
_cell_volume  278.67083255481487
_cell_formula_units_Z  2
loop_
  _symmetry_equiv_pos_site_id
 _symmetry_equiv_pos_as_xyz
 1  'x, y, z'
loop_
 _atom_site_type_symbol
 _atom_site_label
 _atom_site_symmetry_multiplicity
 _atom_site_fract_x
 _atom_site_fract_y
 _atom_site_fract_z
 _atom_site_fract_occupancy
 As  As1  1  0.25578  0.01281  0.78174  1
 As  As2  1  0.74422  0.51281  0.21826  1
 Cu  Cu1  1  0.29491  0.44823  0.99167  1
 Cu  Cu2  1  0.70509  0.94823  0.00833  1
 O  O1  1  0.82233  0.81486  0.19951  1
 O  O2  1  0.82718  0.43514  0.40565  1
 O  O3  1  0.56272  0.00933  0.80907  1
 O  O4  1  0.43728  0.50933  0.19093  1
 O  O5  1  0.13018  0.83658  0.91338  1
 O  O6  1  0.17767  0.31486  0.80049  1
 O  O7  1  0.17282  0.93514  0.59435  1
 O  O8  1  0.86982  0.33658  0.08662  1
 Tl  Tl1  1  0.24861  0.00261  0.19241  1
 Tl  Tl2  1  0.26597  0.48784  0.50334  1
 Tl  Tl3  1  0.75139  0.50261  0.80759  1
 Tl  Tl4  1  0.73403  -0.01216  0.49666  1
