CIF file written using JARVIS-Tools package.
data_Rb3PS4
_symmetry_space_group_name_H-M  'Pnma'
_cell_length_a       9.28097
_cell_length_b       9.28926
_cell_length_c       10.9291
_cell_angle_alpha    90
_cell_angle_beta     90
_cell_angle_gamma    90

_symmetry_Int_Tables_number  62
_chemical_formula_structural  Rb3PS4
_chemical_formula_sum  Rb2P4S6
_cell_volume  942.2347761849021
_cell_formula_units_Z  4
loop_
  _symmetry_equiv_pos_site_id
 _symmetry_equiv_pos_as_xyz
 1  'x, y, z'
loop_
 _atom_site_type_symbol
 _atom_site_label
 _atom_site_symmetry_multiplicity
 _atom_site_fract_x
 _atom_site_fract_y
 _atom_site_fract_z
 _atom_site_fract_occupancy
 P  P1  1  0.27661  0.02034  0.25000  1
 P  P2  1  0.22339  0.52034  0.75000  1
 P  P3  1  0.77661  0.47966  0.25000  1
 P  P4  1  0.72339  0.97966  0.75000  1
 Rb  Rb1  1  0.95884  0.70454  0.54047  1
 Rb  Rb2  1  0.54116  0.20454  0.45953  1
 Rb  Rb3  1  0.45884  0.79546  0.95953  1
 Rb  Rb4  1  0.04116  0.29546  0.04047  1
 Rb  Rb5  1  0.15439  0.08928  0.75000  1
 Rb  Rb6  1  0.45884  0.79546  0.54047  1
 Rb  Rb7  1  0.54116  0.20454  0.04047  1
 Rb  Rb8  1  0.95884  0.70454  0.95953  1
 Rb  Rb9  1  0.84561  0.91072  0.25000  1
 Rb  Rb10  1  0.65439  0.41072  0.75000  1
 Rb  Rb11  1  0.34561  0.58928  0.25000  1
 Rb  Rb12  1  0.04116  0.29546  0.45953  1
 S  S1  1  0.16995  0.95592  0.40629  1
 S  S2  1  0.20837  0.74180  0.75000  1
 S  S3  1  0.29163  0.24180  0.25000  1
 S  S4  1  0.70837  0.75820  0.75000  1
 S  S5  1  0.79163  0.25820  0.25000  1
 S  S6  1  0.66995  0.54408  0.40629  1
 S  S7  1  0.16995  0.95592  0.09371  1
 S  S8  1  0.51869  0.07012  0.75000  1
 S  S9  1  0.98131  0.57012  0.25000  1
 S  S10  1  0.48131  0.92988  0.25000  1
 S  S11  1  0.01869  0.42988  0.75000  1
 S  S12  1  0.66995  0.54408  0.09371  1
 S  S13  1  0.83005  0.04408  0.90629  1
 S  S14  1  0.83005  0.04408  0.59371  1
 S  S15  1  0.33005  0.45592  0.90629  1
 S  S16  1  0.33005  0.45592  0.59371  1
