CIF file written using JARVIS-Tools package.
data_MnGaGe
_symmetry_space_group_name_H-M  'P4/nmm'
_cell_length_a       3.95192
_cell_length_b       3.95192
_cell_length_c       5.86622
_cell_angle_alpha    90
_cell_angle_beta     90
_cell_angle_gamma    90

_symmetry_Int_Tables_number  129
_chemical_formula_structural  MnGaGe
_chemical_formula_sum  Mn2Ga2Ge2
_cell_volume  91.61654760588912
_cell_formula_units_Z  2
loop_
  _symmetry_equiv_pos_site_id
 _symmetry_equiv_pos_as_xyz
 1  'x, y, z'
loop_
 _atom_site_type_symbol
 _atom_site_label
 _atom_site_symmetry_multiplicity
 _atom_site_fract_x
 _atom_site_fract_y
 _atom_site_fract_z
 _atom_site_fract_occupancy
 Ga  Ga1  1  0.50000  0.00000  0.70631  1
 Ga  Ga2  1  0.00000  0.50000  0.29369  1
 Ge  Ge1  1  0.50000  0.00000  0.27887  1
 Ge  Ge2  1  0.00000  0.50000  0.72113  1
 Mn  Mn1  1  0.50000  0.50000  0.00000  1
 Mn  Mn2  1  0.00000  0.00000  0.00000  1
