CIF file written using JARVIS-Tools package.
data_U2AlCo2
_symmetry_space_group_name_H-M  'P4/mbm'
_cell_length_a       7.09102
_cell_length_b       7.09102
_cell_length_c       3.39875
_cell_angle_alpha    90
_cell_angle_beta     90
_cell_angle_gamma    90

_symmetry_Int_Tables_number  127
_chemical_formula_structural  U2AlCo2
_chemical_formula_sum  U4Al2Co4
_cell_volume  170.89813628337745
_cell_formula_units_Z  2
loop_
  _symmetry_equiv_pos_site_id
 _symmetry_equiv_pos_as_xyz
 1  'x, y, z'
loop_
 _atom_site_type_symbol
 _atom_site_label
 _atom_site_symmetry_multiplicity
 _atom_site_fract_x
 _atom_site_fract_y
 _atom_site_fract_z
 _atom_site_fract_occupancy
 Al  Al1  1  0.00000  0.00000  0.00000  1
 Al  Al2  1  0.50000  0.50000  0.00000  1
 Co  Co1  1  0.86317  0.36317  0.00000  1
 Co  Co2  1  0.36317  0.13683  0.00000  1
 Co  Co3  1  0.63683  0.86317  0.00000  1
 Co  Co4  1  0.13683  0.63683  0.00000  1
 U  U1  1  0.67211  0.17211  0.50000  1
 U  U2  1  0.17211  0.32789  0.50000  1
 U  U3  1  0.82789  0.67211  0.50000  1
 U  U4  1  0.32789  0.82789  0.50000  1
