CIF file written using JARVIS-Tools package.
data_CrN2
_symmetry_space_group_name_H-M  'P1'
_cell_length_a       4.89857
_cell_length_b       5.04146
_cell_length_c       6.83661
_cell_angle_alpha    101.516
_cell_angle_beta     88.7877
_cell_angle_gamma    110.113

_symmetry_Int_Tables_number  1
_chemical_formula_structural  CrN2
_chemical_formula_sum  Cr4N8
_cell_volume  155.14113718512087
_cell_formula_units_Z  4
loop_
  _symmetry_equiv_pos_site_id
 _symmetry_equiv_pos_as_xyz
 1  'x, y, z'
loop_
 _atom_site_type_symbol
 _atom_site_label
 _atom_site_symmetry_multiplicity
 _atom_site_fract_x
 _atom_site_fract_y
 _atom_site_fract_z
 _atom_site_fract_occupancy
 Cr  Cr1  1  0.20752  0.11026  0.90909  1
 Cr  Cr2  1  0.29737  0.00771  0.47892  1
 Cr  Cr3  1  0.50935  0.64589  0.80605  1
 Cr  Cr4  1  0.78728  0.42026  0.19169  1
 N  N1  1  0.23209  0.26699  0.67443  1
 N  N2  1  0.42237  0.79837  0.57330  1
 N  N3  1  0.98114  0.74879  0.31848  1
 N  N4  1  0.85997  0.82633  0.78811  1
 N  N5  1  0.04515  0.23988  0.09646  1
 N  N6  1  0.58851  0.42746  0.98375  1
 N  N7  1  0.35862  0.85197  0.96484  1
 N  N8  1  0.57535  0.21589  0.34880  1
