CIF file written using JARVIS-Tools package.
data_BiBr
_symmetry_space_group_name_H-M  'C2/m'
_cell_length_a       4.28776
_cell_length_b       7.08965
_cell_length_c       19.6383
_cell_angle_alpha    86.1731
_cell_angle_beta     83.7347
_cell_angle_gamma    72.3979

_symmetry_Int_Tables_number  12
_chemical_formula_structural  BiBr
_chemical_formula_sum  Bi8Br8
_cell_volume  565.2713037031746
_cell_formula_units_Z  8
loop_
  _symmetry_equiv_pos_site_id
 _symmetry_equiv_pos_as_xyz
 1  'x, y, z'
loop_
 _atom_site_type_symbol
 _atom_site_label
 _atom_site_symmetry_multiplicity
 _atom_site_fract_x
 _atom_site_fract_y
 _atom_site_fract_z
 _atom_site_fract_occupancy
 Bi  Bi1  1  0.83146  0.34081  0.99626  1
 Bi  Bi2  1  0.16854  0.65919  0.00374  1
 Bi  Bi3  1  0.82781  0.83977  0.50460  1
 Bi  Bi4  1  0.79487  0.25768  0.15261  1
 Bi  Bi5  1  0.20513  0.74232  0.84739  1
 Bi  Bi6  1  0.17219  0.16023  0.49540  1
 Bi  Bi7  1  0.93011  0.79198  0.34778  1
 Bi  Bi8  1  0.06989  0.20802  0.65222  1
 Br  Br1  1  0.86254  0.46096  0.81392  1
 Br  Br2  1  0.56163  0.50164  0.37507  1
 Br  Br3  1  0.54803  0.02103  0.88286  1
 Br  Br4  1  0.45197  0.97897  0.11714  1
 Br  Br5  1  0.43837  0.49836  0.62493  1
 Br  Br6  1  0.30466  0.07778  0.31290  1
 Br  Br7  1  0.69534  0.92222  0.68710  1
 Br  Br8  1  0.13746  0.53904  0.18608  1
