CIF file written using JARVIS-Tools package.
data_Fe3O4F2
_symmetry_space_group_name_H-M  'C2'
_cell_length_a       4.40345
_cell_length_b       4.40345
_cell_length_c       8.69231
_cell_angle_alpha    90.0526
_cell_angle_beta     90.0526
_cell_angle_gamma    89.9526

_symmetry_Int_Tables_number  5
_chemical_formula_structural  Fe3O4F2
_chemical_formula_sum  Fe6O8F4
_cell_volume  168.54743864715982
_cell_formula_units_Z  2
loop_
  _symmetry_equiv_pos_site_id
 _symmetry_equiv_pos_as_xyz
 1  'x, y, z'
loop_
 _atom_site_type_symbol
 _atom_site_label
 _atom_site_symmetry_multiplicity
 _atom_site_fract_x
 _atom_site_fract_y
 _atom_site_fract_z
 _atom_site_fract_occupancy
 F  F1  1  0.80415  0.20795  0.49588  1
 F  F2  1  0.29564  0.29290  0.99889  1
 F  F3  1  0.79205  0.19585  0.83745  1
 F  F4  1  0.70710  0.70436  0.33444  1
 Fe  Fe1  1  0.46926  0.51177  0.50697  1
 Fe  Fe2  1  0.98345  0.96081  0.00879  1
 Fe  Fe3  1  0.50810  0.49190  0.16667  1
 Fe  Fe4  1  0.01639  0.98361  0.66667  1
 Fe  Fe5  1  0.03919  0.01655  0.32454  1
 Fe  Fe6  1  0.48823  0.53074  0.82637  1
 O  O1  1  0.81022  0.18978  0.16667  1
 O  O2  1  0.69366  0.70306  0.66692  1
 O  O3  1  0.29694  0.30634  0.66641  1
 O  O4  1  0.19154  0.80553  0.83521  1
 O  O5  1  0.19447  0.80846  0.49813  1
 O  O6  1  0.20424  0.79576  0.16667  1
 O  O7  1  0.31651  0.31115  0.33456  1
 O  O8  1  0.68885  0.68349  0.99877  1
