CIF file written using JARVIS-Tools package.
data_LaCuPb
_symmetry_space_group_name_H-M  'P6_3mc'
_cell_length_a       4.73479
_cell_length_b       4.73479
_cell_length_c       7.90189
_cell_angle_alpha    90
_cell_angle_beta     90
_cell_angle_gamma    120

_symmetry_Int_Tables_number  186
_chemical_formula_structural  LaCuPb
_chemical_formula_sum  La2Cu2Pb2
_cell_volume  153.41333519449836
_cell_formula_units_Z  2
loop_
  _symmetry_equiv_pos_site_id
 _symmetry_equiv_pos_as_xyz
 1  'x, y, z'
loop_
 _atom_site_type_symbol
 _atom_site_label
 _atom_site_symmetry_multiplicity
 _atom_site_fract_x
 _atom_site_fract_y
 _atom_site_fract_z
 _atom_site_fract_occupancy
 Cu  Cu1  1  0.33333  0.66667  0.68830  1
 Cu  Cu2  1  0.66667  0.33333  0.18830  1
 La  La1  1  0.00000  0.00000  0.99153  1
 La  La2  1  0.00000  0.00000  0.49153  1
 Pb  Pb1  1  0.33333  0.66667  0.26228  1
 Pb  Pb2  1  0.66667  0.33333  0.76228  1
