CIF file written using JARVIS-Tools package.
data_HF
_symmetry_space_group_name_H-M  'Cmcm'
_cell_length_a       2.65165
_cell_length_b       2.65165
_cell_length_c       5.27424
_cell_angle_alpha    90
_cell_angle_beta     90
_cell_angle_gamma    67.2647

_symmetry_Int_Tables_number  63
_chemical_formula_structural  HF
_chemical_formula_sum  H2F2
_cell_volume  34.203051898652106
_cell_formula_units_Z  2
loop_
  _symmetry_equiv_pos_site_id
 _symmetry_equiv_pos_as_xyz
 1  'x, y, z'
loop_
 _atom_site_type_symbol
 _atom_site_label
 _atom_site_symmetry_multiplicity
 _atom_site_fract_x
 _atom_site_fract_y
 _atom_site_fract_z
 _atom_site_fract_occupancy
 F  F1  1  0.64553  0.64553  0.58102  1
 F  F2  1  0.35447  0.35447  0.08102  1
 H  H1  1  0.42776  0.42776  0.58098  1
 H  H2  1  0.57224  0.57224  0.08098  1
