CIF file written using JARVIS-Tools package.
data_HfO2
_symmetry_space_group_name_H-M  'Pca2_1'
_cell_length_a       5.03715
_cell_length_b       5.06461
_cell_length_c       5.25293
_cell_angle_alpha    90
_cell_angle_beta     90
_cell_angle_gamma    90

_symmetry_Int_Tables_number  29
_chemical_formula_structural  HfO2
_chemical_formula_sum  Hf4O8
_cell_volume  134.00857737672
_cell_formula_units_Z  4
loop_
  _symmetry_equiv_pos_site_id
 _symmetry_equiv_pos_as_xyz
 1  'x, y, z'
loop_
 _atom_site_type_symbol
 _atom_site_label
 _atom_site_symmetry_multiplicity
 _atom_site_fract_x
 _atom_site_fract_y
 _atom_site_fract_z
 _atom_site_fract_occupancy
 Hf  Hf1  1  0.26731  0.24165  0.03282  1
 Hf  Hf2  1  0.26731  0.74165  0.46718  1
 Hf  Hf3  1  0.73269  0.24165  0.53282  1
 Hf  Hf4  1  0.73269  0.74165  0.96718  1
 O  O1  1  0.07111  0.37970  0.36772  1
 O  O2  1  0.07111  0.87970  0.13228  1
 O  O3  1  0.46000  0.49165  0.73344  1
 O  O4  1  0.46000  0.99165  0.76656  1
 O  O5  1  0.54000  0.99165  0.26656  1
 O  O6  1  0.54000  0.49165  0.23344  1
 O  O7  1  0.92889  0.37970  0.86772  1
 O  O8  1  0.92889  0.87970  0.63228  1
