CIF file written using JARVIS-Tools package.
data_Ce2Th2O7
_symmetry_space_group_name_H-M  'P-4m2'
_cell_length_a       3.94804
_cell_length_b       3.94804
_cell_length_c       11.1502
_cell_angle_alpha    90
_cell_angle_beta     90
_cell_angle_gamma    90

_symmetry_Int_Tables_number  115
_chemical_formula_structural  Ce2Th2O7
_chemical_formula_sum  Ce2Th2O7
_cell_volume  173.79944529968256
_cell_formula_units_Z  1
loop_
  _symmetry_equiv_pos_site_id
 _symmetry_equiv_pos_as_xyz
 1  'x, y, z'
loop_
 _atom_site_type_symbol
 _atom_site_label
 _atom_site_symmetry_multiplicity
 _atom_site_fract_x
 _atom_site_fract_y
 _atom_site_fract_z
 _atom_site_fract_occupancy
 Ce  Ce1  1  0.50000  0.00000  0.86889  1
 Ce  Ce2  1  0.00000  0.50000  0.13111  1
 O  O1  1  0.00000  0.00000  0.00000  1
 O  O2  1  0.50000  0.50000  0.23907  1
 O  O3  1  0.00000  0.00000  0.25384  1
 O  O4  1  0.00000  0.00000  0.50000  1
 O  O5  1  0.50000  0.50000  0.50000  1
 O  O6  1  0.00000  0.00000  0.74616  1
 O  O7  1  0.50000  0.50000  0.76093  1
 Th  Th1  1  0.50000  0.00000  0.37328  1
 Th  Th2  1  0.00000  0.50000  0.62672  1
