CIF file written using JARVIS-Tools package.
data_Cu12Sb4S13
_symmetry_space_group_name_H-M  'I-43m'
_cell_length_a       9.00252
_cell_length_b       9.00252
_cell_length_c       9.00252
_cell_angle_alpha    109.471
_cell_angle_beta     109.471
_cell_angle_gamma    109.471

_symmetry_Int_Tables_number  217
_chemical_formula_structural  Cu12Sb4S13
_chemical_formula_sum  Cu2Sb4S3
_cell_volume  561.6561222303828
_cell_formula_units_Z  1
loop_
  _symmetry_equiv_pos_site_id
 _symmetry_equiv_pos_as_xyz
 1  'x, y, z'
loop_
 _atom_site_type_symbol
 _atom_site_label
 _atom_site_symmetry_multiplicity
 _atom_site_fract_x
 _atom_site_fract_y
 _atom_site_fract_z
 _atom_site_fract_occupancy
 Cu  Cu1  1  0.00000  0.77759  0.77759  1
 Cu  Cu2  1  0.50000  0.25000  0.75000  1
 Cu  Cu3  1  0.75000  0.50000  0.25000  1
 Cu  Cu4  1  0.25000  0.75000  0.50000  1
 Cu  Cu5  1  0.25000  0.50000  0.75000  1
 Cu  Cu6  1  0.77759  0.77759  0.00000  1
 Cu  Cu7  1  0.75000  0.25000  0.50000  1
 Cu  Cu8  1  0.77759  0.00000  0.77759  1
 Cu  Cu9  1  0.22241  0.22241  1.00000  1
 Cu  Cu10  1  0.50000  0.75000  0.25000  1
 Cu  Cu11  1  0.22241  1.00000  0.22241  1
 Cu  Cu12  1  1.00000  0.22241  0.22241  1
 S  S1  1  0.75137  1.00000  0.51849  1
 S  S2  1  1.00000  0.75137  0.51849  1
 S  S3  1  0.48151  0.48151  0.23288  1
 S  S4  1  0.48151  0.23288  0.48151  1
 S  S5  1  0.23288  0.48151  0.48151  1
 S  S6  1  0.24863  0.76712  0.24863  1
 S  S7  1  0.76712  0.24863  0.24863  1
 S  S8  1  0.00000  0.00000  0.00000  1
 S  S9  1  0.24863  0.24863  0.76712  1
 S  S10  1  0.75137  0.51849  -0.00000  1
 S  S11  1  0.51849  0.00000  0.75137  1
 S  S12  1  0.51849  0.75137  0.00000  1
 S  S13  1  0.00000  0.51849  0.75137  1
 Sb  Sb1  1  0.45464  1.00000  0.00000  1
 Sb  Sb2  1  1.00000  0.45464  0.00000  1
 Sb  Sb3  1  0.54536  0.54536  0.54536  1
 Sb  Sb4  1  0.00000  0.00000  0.45464  1
