CIF file written using JARVIS-Tools package.
data_SiO2
_symmetry_space_group_name_H-M  'P2_13'
_cell_length_a       7.07126
_cell_length_b       7.07126
_cell_length_c       7.07126
_cell_angle_alpha    90
_cell_angle_beta     90
_cell_angle_gamma    90

_symmetry_Int_Tables_number  198
_chemical_formula_structural  SiO2
_chemical_formula_sum  Si8O6
_cell_volume  353.5828480795413
_cell_formula_units_Z  8
loop_
  _symmetry_equiv_pos_site_id
 _symmetry_equiv_pos_as_xyz
 1  'x, y, z'
loop_
 _atom_site_type_symbol
 _atom_site_label
 _atom_site_symmetry_multiplicity
 _atom_site_fract_x
 _atom_site_fract_y
 _atom_site_fract_z
 _atom_site_fract_occupancy
 O  O1  1  0.65630  0.34370  0.84370  1
 O  O2  1  0.86156  0.33104  0.52852  1
 O  O3  1  0.36156  0.16896  0.47148  1
 O  O4  1  0.13844  0.83104  0.97148  1
 O  O5  1  0.66896  0.02852  0.63844  1
 O  O6  1  0.97148  0.13844  0.83104  1
 O  O7  1  0.47148  0.36156  0.16896  1
 O  O8  1  0.16896  0.47148  0.36156  1
 O  O9  1  0.52852  0.86156  0.33104  1
 O  O10  1  0.15630  0.15630  0.15630  1
 O  O11  1  0.34370  0.84370  0.65630  1
 O  O12  1  0.83104  0.97148  0.13844  1
 O  O13  1  0.84370  0.65630  0.34370  1
 O  O14  1  0.63844  0.66896  0.02852  1
 O  O15  1  0.02852  0.63844  0.66896  1
 O  O16  1  0.33104  0.52852  0.86156  1
 Si  Si1  1  0.28862  0.28862  0.28862  1
 Si  Si2  1  0.21138  0.71138  0.78862  1
 Si  Si3  1  0.78862  0.21138  0.71138  1
 Si  Si4  1  0.71138  0.78862  0.21138  1
 Si  Si5  1  0.02457  0.02457  0.02457  1
 Si  Si6  1  0.47543  0.97543  0.52457  1
 Si  Si7  1  0.52457  0.47543  0.97543  1
 Si  Si8  1  0.97543  0.52457  0.47543  1
