CIF file written using JARVIS-Tools package.
data_SrZn2
_symmetry_space_group_name_H-M  'Imma'
_cell_length_a       4.74097
_cell_length_b       5.9938
_cell_length_c       5.9938
_cell_angle_alpha    80.663
_cell_angle_beta     66.7035
_cell_angle_gamma    66.7035

_symmetry_Int_Tables_number  74
_chemical_formula_structural  SrZn2
_chemical_formula_sum  Sr2Zn4
_cell_volume  143.67849315421594
_cell_formula_units_Z  2
loop_
  _symmetry_equiv_pos_site_id
 _symmetry_equiv_pos_as_xyz
 1  'x, y, z'
loop_
 _atom_site_type_symbol
 _atom_site_label
 _atom_site_symmetry_multiplicity
 _atom_site_fract_x
 _atom_site_fract_y
 _atom_site_fract_z
 _atom_site_fract_occupancy
 Sr  Sr1  1  0.95341  0.79659  0.29659  1
 Sr  Sr2  1  0.04659  0.20341  0.70341  1
 Zn  Zn1  1  0.33497  0.22487  0.10519  1
 Zn  Zn2  1  0.66503  0.77513  0.89481  1
 Zn  Zn3  1  0.33497  0.60519  0.72487  1
 Zn  Zn4  1  0.66503  0.39481  0.27513  1
