CIF file written using JARVIS-Tools package.
data_Mo2Se3S
_symmetry_space_group_name_H-M  'P3m1'
_cell_length_a       3.29168
_cell_length_b       3.29168
_cell_length_c       34.9256
_cell_angle_alpha    90.0004
_cell_angle_beta     90.0001
_cell_angle_gamma    120

_symmetry_Int_Tables_number  156
_chemical_formula_structural  Mo2Se3S
_chemical_formula_sum  Mo4Se6S2
_cell_volume  327.72522508314904
_cell_formula_units_Z  2
loop_
  _symmetry_equiv_pos_site_id
 _symmetry_equiv_pos_as_xyz
 1  'x, y, z'
loop_
 _atom_site_type_symbol
 _atom_site_label
 _atom_site_symmetry_multiplicity
 _atom_site_fract_x
 _atom_site_fract_y
 _atom_site_fract_z
 _atom_site_fract_occupancy
 Mo  Mo1  1  0.33332  0.66664  0.09662  1
 Mo  Mo2  1  0.33333  0.66666  0.46877  1
 Mo  Mo3  1  0.66667  0.33334  0.27927  1
 Mo  Mo4  1  0.66668  0.33336  0.65825  1
 S  S1  1  0.66665  0.33331  0.05270  1
 S  S2  1  0.66666  0.33330  0.14061  1
 Se  Se1  1  0.33334  0.66668  0.32755  1
 Se  Se2  1  0.33335  0.66671  0.70647  1
 Se  Se3  1  0.66667  0.33334  0.42049  1
 Se  Se4  1  0.66666  0.33332  0.51704  1
 Se  Se5  1  0.33333  0.66666  0.23101  1
 Se  Se6  1  0.33334  0.66668  0.60997  1
