CIF file written using JARVIS-Tools package.
data_BaNa2MgP2O8
_symmetry_space_group_name_H-M  'P-3'
_cell_length_a       5.32699
_cell_length_b       5.32699
_cell_length_c       7.00916
_cell_angle_alpha    90
_cell_angle_beta     90
_cell_angle_gamma    120

_symmetry_Int_Tables_number  147
_chemical_formula_structural  BaNa2MgP2O8
_chemical_formula_sum  BaNa2MgP2O8
_cell_volume  172.25049713139683
_cell_formula_units_Z  1
loop_
  _symmetry_equiv_pos_site_id
 _symmetry_equiv_pos_as_xyz
 1  'x, y, z'
loop_
 _atom_site_type_symbol
 _atom_site_label
 _atom_site_symmetry_multiplicity
 _atom_site_fract_x
 _atom_site_fract_y
 _atom_site_fract_z
 _atom_site_fract_occupancy
 Ba  Ba1  1  0.00000  0.00000  0.50000  1
 Mg  Mg1  1  0.00000  0.00000  0.00000  1
 Na  Na1  1  0.33333  0.66667  0.81901  1
 Na  Na2  1  0.66667  0.33333  0.18099  1
 O  O1  1  0.87477  0.23139  0.82230  1
 O  O2  1  0.35662  0.12523  0.82230  1
 O  O3  1  0.76861  0.64338  0.82230  1
 O  O4  1  0.66667  0.33333  0.52488  1
 O  O5  1  0.33333  0.66667  0.47512  1
 O  O6  1  0.23139  0.35662  0.17770  1
 O  O7  1  0.64338  0.87477  0.17770  1
 O  O8  1  0.12523  0.76861  0.17770  1
 P  P1  1  0.66667  0.33333  0.74420  1
 P  P2  1  0.33333  0.66667  0.25580  1
