CIF file written using JARVIS-Tools package.
data_Li5SiP3
_symmetry_space_group_name_H-M  'Cc'
_cell_length_a       5.90365
_cell_length_b       7.04933
_cell_length_c       8.59069
_cell_angle_alpha    107.568
_cell_angle_beta     90.0009
_cell_angle_gamma    114.754

_symmetry_Int_Tables_number  9
_chemical_formula_structural  Li5SiP3
_chemical_formula_sum  Li0Si2P6
_cell_volume  306.2045569293652
_cell_formula_units_Z  2
loop_
  _symmetry_equiv_pos_site_id
 _symmetry_equiv_pos_as_xyz
 1  'x, y, z'
loop_
 _atom_site_type_symbol
 _atom_site_label
 _atom_site_symmetry_multiplicity
 _atom_site_fract_x
 _atom_site_fract_y
 _atom_site_fract_z
 _atom_site_fract_occupancy
 Li  Li1  1  0.08377  0.68739  0.42005  1
 Li  Li2  1  0.60358  0.68738  0.92004  1
 Li  Li3  1  0.43731  0.34816  0.07837  1
 Li  Li4  1  0.08768  0.64610  0.90849  1
 Li  Li5  1  0.55841  0.64610  0.40849  1
 Li  Li6  1  0.78499  0.99691  0.27195  1
 Li  Li7  1  0.21189  0.99692  0.77196  1
 Li  Li8  1  0.91083  0.34815  0.57838  1
 Li  Li9  1  0.91944  0.32095  0.08190  1
 Li  Li10  1  0.40147  0.32095  0.58190  1
 P  P1  1  0.64752  0.31470  0.32649  1
 P  P2  1  0.32997  0.68247  0.17232  1
 P  P3  1  0.03528  0.00020  0.03761  1
 P  P4  1  0.35247  0.68246  0.67231  1
 P  P5  1  0.96488  0.00019  0.53761  1
 P  P6  1  0.66716  0.31471  0.82649  1
 Si  Si1  1  0.67626  0.99911  0.69699  1
 Si  Si2  1  0.32281  0.99912  0.19700  1
