CIF file written using JARVIS-Tools package.
data_Tc3P
_symmetry_space_group_name_H-M  'I-42m'
_cell_length_a       4.87661
_cell_length_b       7.18026
_cell_length_c       7.18025
_cell_angle_alpha    83.378
_cell_angle_beta     70.1484
_cell_angle_gamma    70.1484

_symmetry_Int_Tables_number  121
_chemical_formula_structural  Tc3P
_chemical_formula_sum  Tc2P4
_cell_volume  222.42615547110776
_cell_formula_units_Z  4
loop_
  _symmetry_equiv_pos_site_id
 _symmetry_equiv_pos_as_xyz
 1  'x, y, z'
loop_
 _atom_site_type_symbol
 _atom_site_label
 _atom_site_symmetry_multiplicity
 _atom_site_fract_x
 _atom_site_fract_y
 _atom_site_fract_z
 _atom_site_fract_occupancy
 P  P1  1  0.20910  0.29087  0.29096  1
 P  P2  1  0.49995  0.29096  0.70913  1
 P  P3  1  0.50003  0.70904  0.29087  1
 P  P4  1  0.79092  0.70913  0.70904  1
 Tc  Tc1  1  0.34823  0.65174  0.65167  1
 Tc  Tc2  1  0.00009  0.65167  0.34826  1
 Tc  Tc3  1  0.00003  0.34833  0.65174  1
 Tc  Tc4  1  0.65165  0.34826  0.34833  1
 Tc  Tc5  1  0.90908  0.00008  0.59190  1
 Tc  Tc6  1  0.49902  0.59190  0.99992  1
 Tc  Tc7  1  0.09084  0.40810  0.00008  1
 Tc  Tc8  1  0.50106  0.99992  0.40810  1
 Tc  Tc9  1  0.09145  0.00002  0.19752  1
 Tc  Tc10  1  0.71104  0.19752  -0.00002  1
 Tc  Tc11  1  0.90854  0.80248  0.00002  1
 Tc  Tc12  1  0.28898  -0.00002  0.80248  1
