CIF file written using JARVIS-Tools package.
data_UMo6S8
_symmetry_space_group_name_H-M  'R-3'
_cell_length_a       6.47111
_cell_length_b       6.47111
_cell_length_c       6.47111
_cell_angle_alpha    88.7739
_cell_angle_beta     88.7739
_cell_angle_gamma    88.774

_symmetry_Int_Tables_number  148
_chemical_formula_structural  UMo6S8
_chemical_formula_sum  UMo6S8
_cell_volume  270.7962126724591
_cell_formula_units_Z  1
loop_
  _symmetry_equiv_pos_site_id
 _symmetry_equiv_pos_as_xyz
 1  'x, y, z'
loop_
 _atom_site_type_symbol
 _atom_site_label
 _atom_site_symmetry_multiplicity
 _atom_site_fract_x
 _atom_site_fract_y
 _atom_site_fract_z
 _atom_site_fract_occupancy
 Mo  Mo1  1  0.43773  0.77665  0.57894  1
 Mo  Mo2  1  0.77665  0.57894  0.43773  1
 Mo  Mo3  1  0.57894  0.43773  0.77665  1
 Mo  Mo4  1  0.56227  0.22335  0.42106  1
 Mo  Mo5  1  0.22335  0.42106  0.56227  1
 Mo  Mo6  1  0.42106  0.56227  0.22335  1
 S  S1  1  0.76067  0.76067  0.76067  1
 S  S2  1  0.23933  0.23933  0.23933  1
 S  S3  1  0.24127  0.63278  0.87395  1
 S  S4  1  0.63278  0.87395  0.24127  1
 S  S5  1  0.87395  0.24127  0.63278  1
 S  S6  1  0.75873  0.36722  0.12605  1
 S  S7  1  0.36722  0.12605  0.75873  1
 S  S8  1  0.12605  0.75873  0.36722  1
 U  U1  1  0.00000  0.00000  0.00000  1
