CIF file written using JARVIS-Tools package.
data_MnS2
_symmetry_space_group_name_H-M  'Pnnm'
_cell_length_a       3.26724
_cell_length_b       4.70173
_cell_length_c       5.57476
_cell_angle_alpha    90
_cell_angle_beta     90
_cell_angle_gamma    90

_symmetry_Int_Tables_number  58
_chemical_formula_structural  MnS2
_chemical_formula_sum  Mn2S4
_cell_volume  85.63777083933599
_cell_formula_units_Z  2
loop_
  _symmetry_equiv_pos_site_id
 _symmetry_equiv_pos_as_xyz
 1  'x, y, z'
loop_
 _atom_site_type_symbol
 _atom_site_label
 _atom_site_symmetry_multiplicity
 _atom_site_fract_x
 _atom_site_fract_y
 _atom_site_fract_z
 _atom_site_fract_occupancy
 Mn  Mn1  1  0.50000  0.50000  0.50000  1
 Mn  Mn2  1  0.00000  0.00000  0.00000  1
 S  S1  1  0.50000  0.69980  0.13231  1
 S  S2  1  0.50000  0.30020  0.86769  1
 S  S3  1  0.00000  0.19980  0.36769  1
 S  S4  1  0.00000  0.80020  0.63231  1
