CIF file written using JARVIS-Tools package.
data_PbF2
_symmetry_space_group_name_H-M  'Fm-3m'
_cell_length_a       4.20716
_cell_length_b       4.20706
_cell_length_c       5.94983
_cell_angle_alpha    89.9996
_cell_angle_beta     90.0001
_cell_angle_gamma    90.0046

_symmetry_Int_Tables_number  225
_chemical_formula_structural  PbF2
_chemical_formula_sum  Pb2F4
_cell_volume  105.31043899045926
_cell_formula_units_Z  2
loop_
  _symmetry_equiv_pos_site_id
 _symmetry_equiv_pos_as_xyz
 1  'x, y, z'
loop_
 _atom_site_type_symbol
 _atom_site_label
 _atom_site_symmetry_multiplicity
 _atom_site_fract_x
 _atom_site_fract_y
 _atom_site_fract_z
 _atom_site_fract_occupancy
 F  F1  1  0.52997  0.96993  0.25009  1
 F  F2  1  0.03007  0.47003  0.74992  1
 F  F3  1  0.02996  0.46993  0.24991  1
 F  F4  1  0.53007  0.97004  0.75008  1
 Pb  Pb1  1  0.02996  0.97004  -0.00000  1
 Pb  Pb2  1  0.52996  0.47004  0.50000  1
