CIF file written using JARVIS-Tools package.
data_Na2Al2As3
_symmetry_space_group_name_H-M  'P2_1/c'
_cell_length_a       13.1825
_cell_length_b       6.76563
_cell_length_c       14.4589
_cell_angle_alpha    90
_cell_angle_beta     90.2043
_cell_angle_gamma    90

_symmetry_Int_Tables_number  14
_chemical_formula_structural  Na2Al2As3
_chemical_formula_sum  Na6Al6As24
_cell_volume  1289.5564109792472
_cell_formula_units_Z  8
loop_
  _symmetry_equiv_pos_site_id
 _symmetry_equiv_pos_as_xyz
 1  'x, y, z'
loop_
 _atom_site_type_symbol
 _atom_site_label
 _atom_site_symmetry_multiplicity
 _atom_site_fract_x
 _atom_site_fract_y
 _atom_site_fract_z
 _atom_site_fract_occupancy
 Al  Al1  1  0.31640  0.78376  0.33646  1
 Al  Al2  1  0.90678  0.29216  0.23011  1
 Al  Al3  1  0.31640  0.71624  0.83646  1
 Al  Al4  1  0.68360  0.21624  0.66354  1
 Al  Al5  1  0.68360  0.28376  0.16354  1
 Al  Al6  1  0.90678  0.20784  0.73011  1
 Al  Al7  1  0.09322  0.70784  0.76989  1
 Al  Al8  1  0.09322  0.79216  0.26989  1
 Al  Al9  1  0.18851  0.26074  0.32912  1
 Al  Al10  1  0.18851  0.23926  0.82912  1
 Al  Al11  1  0.81149  0.76074  0.17088  1
 Al  Al12  1  0.41190  0.23812  0.75926  1
 Al  Al13  1  0.58810  0.73812  0.74074  1
 Al  Al14  1  0.58810  0.76188  0.24074  1
 Al  Al15  1  0.81149  0.73926  0.67088  1
 Al  Al16  1  0.41190  0.26188  0.25926  1
 As  As1  1  0.74891  0.28321  0.32527  1
 As  As2  1  0.52019  0.46816  0.15552  1
 As  As3  1  0.74891  0.21679  0.82527  1
 As  As4  1  0.03268  0.03274  0.82857  1
 As  As5  1  0.96732  0.53274  0.67143  1
 As  As6  1  0.96732  0.96726  0.17143  1
 As  As7  1  0.25297  0.16157  0.17045  1
 As  As8  1  0.03268  0.46726  0.32857  1
 As  As9  1  0.25109  0.78321  0.17473  1
 As  As10  1  0.16076  0.54995  0.91487  1
 As  As11  1  0.83924  0.45005  0.08513  1
 As  As12  1  0.34006  0.05334  0.89716  1
 As  As13  1  0.65994  0.55334  0.60284  1
 As  As14  1  0.16076  0.95005  0.41487  1
 As  As15  1  0.34006  0.44666  0.39716  1
 As  As16  1  0.52019  0.03184  0.65552  1
 As  As17  1  0.47981  0.96816  0.34448  1
 As  As18  1  0.83924  0.04995  0.58513  1
 As  As19  1  0.47981  0.53184  0.84448  1
 As  As20  1  0.25109  0.71679  0.67473  1
 As  As21  1  0.74703  0.83843  0.82955  1
 As  As22  1  0.74703  0.66157  0.32955  1
 As  As23  1  0.65994  0.94666  0.10284  1
 As  As24  1  0.25297  0.33843  0.67045  1
 Na  Na1  1  0.56714  0.39440  0.41852  1
 Na  Na2  1  0.43286  0.89440  0.08148  1
 Na  Na3  1  0.43286  0.60560  0.58148  1
 Na  Na4  1  0.56714  0.10560  0.91852  1
 Na  Na5  1  0.91402  0.55173  0.89428  1
 Na  Na6  1  0.91402  0.94827  0.39428  1
 Na  Na7  1  0.08598  0.44827  0.10572  1
 Na  Na8  1  0.65117  0.58782  0.97929  1
 Na  Na9  1  0.65117  0.91218  0.47929  1
 Na  Na10  1  0.34883  0.41218  0.02071  1
 Na  Na11  1  0.86289  0.44419  0.48831  1
 Na  Na12  1  0.13711  0.94419  0.01169  1
 Na  Na13  1  0.13711  0.55581  0.51169  1
 Na  Na14  1  0.34883  0.08782  0.52071  1
 Na  Na15  1  0.08598  0.05173  0.60572  1
 Na  Na16  1  0.86289  0.05581  0.98831  1
