CIF file written using JARVIS-Tools package.
data_Li3CuF5
_symmetry_space_group_name_H-M  'C2/c'
_cell_length_a       6.12991
_cell_length_b       6.1299
_cell_length_c       6.79358
_cell_angle_alpha    106.171
_cell_angle_beta     106.171
_cell_angle_gamma    57.0026

_symmetry_Int_Tables_number  15
_chemical_formula_structural  Li3CuF5
_chemical_formula_sum  Li6Cu2F0
_cell_volume  203.06079450157745
_cell_formula_units_Z  2
loop_
  _symmetry_equiv_pos_site_id
 _symmetry_equiv_pos_as_xyz
 1  'x, y, z'
loop_
 _atom_site_type_symbol
 _atom_site_label
 _atom_site_symmetry_multiplicity
 _atom_site_fract_x
 _atom_site_fract_y
 _atom_site_fract_z
 _atom_site_fract_occupancy
 Cu  Cu1  1  -0.00000  -0.00000  0.50000  1
 Cu  Cu2  1  0.00000  0.00000  -0.00000  1
 F  F1  1  0.83040  0.16960  0.25000  1
 F  F2  1  0.76925  0.46194  0.95691  1
 F  F3  1  0.23074  0.53808  0.04309  1
 F  F4  1  0.16959  0.83041  0.75000  1
 F  F5  1  0.91645  0.73321  0.36621  1
 F  F6  1  0.73319  0.91646  0.86620  1
 F  F7  1  0.26679  0.08355  0.13379  1
 F  F8  1  0.08354  0.26681  0.63380  1
 F  F9  1  0.53806  0.23075  0.54309  1
 F  F10  1  0.46192  0.76926  0.45691  1
 Li  Li1  1  0.94430  0.55285  0.82935  1
 Li  Li2  1  0.55284  0.94431  0.32935  1
 Li  Li3  1  0.48808  0.51192  0.75000  1
 Li  Li4  1  0.51191  0.48809  0.25000  1
 Li  Li5  1  0.44715  0.05570  0.67065  1
 Li  Li6  1  0.05569  0.44716  0.17065  1
