CIF file written using JARVIS-Tools package.
data_USe2
_symmetry_space_group_name_H-M  'Pnma'
_cell_length_a       4.14724
_cell_length_b       7.50363
_cell_length_c       9.06935
_cell_angle_alpha    90
_cell_angle_beta     90
_cell_angle_gamma    90

_symmetry_Int_Tables_number  62
_chemical_formula_structural  USe2
_chemical_formula_sum  U4Se8
_cell_volume  282.2326137415037
_cell_formula_units_Z  4
loop_
  _symmetry_equiv_pos_site_id
 _symmetry_equiv_pos_as_xyz
 1  'x, y, z'
loop_
 _atom_site_type_symbol
 _atom_site_label
 _atom_site_symmetry_multiplicity
 _atom_site_fract_x
 _atom_site_fract_y
 _atom_site_fract_z
 _atom_site_fract_occupancy
 Se  Se1  1  0.25000  0.53112  0.83576  1
 Se  Se2  1  0.75000  0.46888  0.16424  1
 Se  Se3  1  0.25000  0.03112  0.66424  1
 Se  Se4  1  0.75000  0.96888  0.33576  1
 Se  Se5  1  0.25000  0.14136  0.06845  1
 Se  Se6  1  0.75000  0.85864  0.93155  1
 Se  Se7  1  0.25000  0.64136  0.43155  1
 Se  Se8  1  0.75000  0.35864  0.56845  1
 U  U1  1  0.25000  0.25526  0.36867  1
 U  U2  1  0.75000  0.74474  0.63133  1
 U  U3  1  0.25000  0.75526  0.13133  1
 U  U4  1  0.75000  0.24474  0.86867  1
