CIF file written using JARVIS-Tools package.
data_InAgS2
_symmetry_space_group_name_H-M  'P-6m2'
_cell_length_a       4.5451
_cell_length_b       4.5451
_cell_length_c       5.38104
_cell_angle_alpha    90
_cell_angle_beta     90
_cell_angle_gamma    120

_symmetry_Int_Tables_number  187
_chemical_formula_structural  InAgS2
_chemical_formula_sum  InAgS2
_cell_volume  96.26835486801575
_cell_formula_units_Z  1
loop_
  _symmetry_equiv_pos_site_id
 _symmetry_equiv_pos_as_xyz
 1  'x, y, z'
loop_
 _atom_site_type_symbol
 _atom_site_label
 _atom_site_symmetry_multiplicity
 _atom_site_fract_x
 _atom_site_fract_y
 _atom_site_fract_z
 _atom_site_fract_occupancy
 Ag  Ag1  1  0.66667  0.33333  0.93753  1
 In  In1  1  0.33333  0.66667  0.43750  1
 S  S1  1  0.33333  0.66667  0.93749  1
 S  S2  1  0.66667  0.33333  0.43749  1
