CIF file written using JARVIS-Tools package.
data_IrF4
_symmetry_space_group_name_H-M  'Fdd2'
_cell_length_a       5.44954
_cell_length_b       5.44954
_cell_length_c       5.62282
_cell_angle_alpha    104.808
_cell_angle_beta     104.808
_cell_angle_gamma    118.201

_symmetry_Int_Tables_number  43
_chemical_formula_structural  IrF4
_chemical_formula_sum  Ir2F8
_cell_volume  127.63967455996763
_cell_formula_units_Z  2
loop_
  _symmetry_equiv_pos_site_id
 _symmetry_equiv_pos_as_xyz
 1  'x, y, z'
loop_
 _atom_site_type_symbol
 _atom_site_label
 _atom_site_symmetry_multiplicity
 _atom_site_fract_x
 _atom_site_fract_y
 _atom_site_fract_z
 _atom_site_fract_occupancy
 F  F1  1  0.97210  0.72730  0.16572  1
 F  F2  1  0.56158  0.80638  0.83428  1
 F  F3  1  0.04253  0.29671  0.32844  1
 F  F4  1  0.96827  0.71409  0.67156  1
 F  F5  1  0.04671  0.29253  0.82844  1
 F  F6  1  0.46409  0.21827  0.17156  1
 F  F7  1  0.55638  0.81158  0.33428  1
 F  F8  1  0.47730  0.22210  0.66572  1
 Ir  Ir1  1  0.74552  0.24552  0.50000  1
 Ir  Ir2  1  0.99552  0.99552  -0.00000  1
