CIF file written using JARVIS-Tools package.
data_LiSm2IrO6
_symmetry_space_group_name_H-M  'P2_1/c'
_cell_length_a       5.36017
_cell_length_b       5.80912
_cell_length_c       9.28436
_cell_angle_alpha    90
_cell_angle_beta     124.525
_cell_angle_gamma    90

_symmetry_Int_Tables_number  14
_chemical_formula_structural  LiSm2IrO6
_chemical_formula_sum  Li2Sm4Ir2O2
_cell_volume  238.17920830389875
_cell_formula_units_Z  2
loop_
  _symmetry_equiv_pos_site_id
 _symmetry_equiv_pos_as_xyz
 1  'x, y, z'
loop_
 _atom_site_type_symbol
 _atom_site_label
 _atom_site_symmetry_multiplicity
 _atom_site_fract_x
 _atom_site_fract_y
 _atom_site_fract_z
 _atom_site_fract_occupancy
 Ir  Ir1  1  0.50000  0.50000  0.00000  1
 Ir  Ir2  1  0.50000  0.00000  0.50000  1
 Li  Li1  1  0.00000  0.00000  0.00000  1
 Li  Li2  1  -0.00000  0.50000  0.50000  1
 O  O1  1  0.26914  0.29321  0.44567  1
 O  O2  1  0.64443  0.46845  0.24876  1
 O  O3  1  0.73086  0.70679  0.55433  1
 O  O4  1  0.26914  0.20679  0.94567  1
 O  O5  1  0.73086  0.79321  0.05433  1
 O  O6  1  0.35557  0.53155  0.75124  1
 O  O7  1  0.85679  0.31350  0.05081  1
 O  O8  1  0.14321  0.68650  0.94919  1
 O  O9  1  0.64443  0.03155  0.74876  1
 O  O10  1  0.85679  0.18650  0.55081  1
 O  O11  1  0.14321  0.81350  0.44919  1
 O  O12  1  0.35557  0.96845  0.25124  1
 Sm  Sm1  1  0.22778  0.92155  0.74839  1
 Sm  Sm2  1  0.77222  0.42155  0.75161  1
 Sm  Sm3  1  0.22778  0.57845  0.24839  1
 Sm  Sm4  1  0.77222  0.07845  0.25161  1
