CIF file written using JARVIS-Tools package.
data_Ba2Ta6Te2O21
_symmetry_space_group_name_H-M  'C2/m'
_cell_length_a       5.72863
_cell_length_b       8.91574
_cell_length_c       9.67464
_cell_angle_alpha    96.4416
_cell_angle_beta     90
_cell_angle_gamma    108.74

_symmetry_Int_Tables_number  12
_chemical_formula_structural  Ba2Ta6Te2O21
_chemical_formula_sum  Ba2Ta6Te2O2
_cell_volume  464.6428579564841
_cell_formula_units_Z  1
loop_
  _symmetry_equiv_pos_site_id
 _symmetry_equiv_pos_as_xyz
 1  'x, y, z'
loop_
 _atom_site_type_symbol
 _atom_site_label
 _atom_site_symmetry_multiplicity
 _atom_site_fract_x
 _atom_site_fract_y
 _atom_site_fract_z
 _atom_site_fract_occupancy
 Ba  Ba1  1  0.13765  0.27530  0.52727  1
 Ba  Ba2  1  0.86235  0.72470  0.47273  1
 O  O1  1  0.41790  0.83580  0.72055  1
 O  O2  1  0.79105  0.58210  0.15306  1
 O  O3  1  0.20895  0.41790  0.84694  1
 O  O4  1  0.00000  0.00000  0.00000  1
 O  O5  1  0.30805  0.13228  0.77983  1
 O  O6  1  0.17578  0.86772  0.22017  1
 O  O7  1  0.69195  0.86772  0.22017  1
 O  O8  1  0.82422  0.13228  0.77983  1
 O  O9  1  0.60559  0.70767  0.94615  1
 O  O10  1  0.27779  -0.00000  0.50000  1
 O  O11  1  0.72221  -0.00000  0.50000  1
 O  O12  1  0.35823  0.71647  0.39818  1
 O  O13  1  0.64177  0.28353  0.60182  1
 O  O14  1  0.58210  0.16420  0.27945  1
 O  O15  1  0.02252  0.56361  0.66845  1
 O  O16  1  0.45891  0.43639  0.33155  1
 O  O17  1  0.10208  0.70767  0.94615  1
 O  O18  1  0.39441  0.29233  0.05385  1
 O  O19  1  0.89792  0.29233  0.05385  1
 O  O20  1  0.97748  0.43639  0.33155  1
 O  O21  1  0.54109  0.56361  0.66845  1
 Ta  Ta1  1  0.32335  0.64670  0.82481  1
 Ta  Ta2  1  0.09977  0.19953  0.91957  1
 Ta  Ta3  1  0.90023  0.80047  0.08043  1
 Ta  Ta4  1  0.52087  0.04174  0.66424  1
 Ta  Ta5  1  0.47913  0.95826  0.33576  1
 Ta  Ta6  1  0.67665  0.35330  0.17519  1
 Te  Te1  1  0.72474  0.44948  0.75325  1
 Te  Te2  1  0.27526  0.55052  0.24675  1
