CIF file written using JARVIS-Tools package.
data_RbAuCl4
_symmetry_space_group_name_H-M  'C2/c'
_cell_length_a       5.78677
_cell_length_b       6.75279
_cell_length_c       9.9068
_cell_angle_alpha    100.238
_cell_angle_beta     90
_cell_angle_gamma    115.371

_symmetry_Int_Tables_number  15
_chemical_formula_structural  RbAuCl4
_chemical_formula_sum  Rb2Au2Cl8
_cell_volume  342.95497423496573
_cell_formula_units_Z  2
loop_
  _symmetry_equiv_pos_site_id
 _symmetry_equiv_pos_as_xyz
 1  'x, y, z'
loop_
 _atom_site_type_symbol
 _atom_site_label
 _atom_site_symmetry_multiplicity
 _atom_site_fract_x
 _atom_site_fract_y
 _atom_site_fract_z
 _atom_site_fract_occupancy
 Au  Au1  1  0.00000  0.00000  0.00000  1
 Au  Au2  1  0.50000  -0.00000  0.50000  1
 Cl  Cl1  1  0.81770  0.61560  0.92886  1
 Cl  Cl2  1  0.32223  0.03689  0.85215  1
 Cl  Cl3  1  0.70210  0.38440  0.57114  1
 Cl  Cl4  1  0.18230  0.38440  0.07114  1
 Cl  Cl5  1  0.67777  0.96311  0.14785  1
 Cl  Cl6  1  0.78534  0.96311  0.64785  1
 Cl  Cl7  1  0.21466  0.03689  0.35215  1
 Cl  Cl8  1  0.29790  0.61560  0.42886  1
 Rb  Rb1  1  0.73459  0.50000  0.25000  1
 Rb  Rb2  1  0.26541  0.50000  0.75000  1
