CIF file written using JARVIS-Tools package.
data_Hf5Sb3
_symmetry_space_group_name_H-M  'Pnma'
_cell_length_a       7.44415
_cell_length_b       8.81722
_cell_length_c       10.7743
_cell_angle_alpha    90
_cell_angle_beta     90
_cell_angle_gamma    90

_symmetry_Int_Tables_number  62
_chemical_formula_structural  Hf5Sb3
_chemical_formula_sum  Hf20Sb2
_cell_volume  707.1903388413734
_cell_formula_units_Z  4
loop_
  _symmetry_equiv_pos_site_id
 _symmetry_equiv_pos_as_xyz
 1  'x, y, z'
loop_
 _atom_site_type_symbol
 _atom_site_label
 _atom_site_symmetry_multiplicity
 _atom_site_fract_x
 _atom_site_fract_y
 _atom_site_fract_z
 _atom_site_fract_occupancy
 Hf  Hf1  1  0.80074  0.44097  0.55992  1
 Hf  Hf2  1  0.80074  0.05903  0.55992  1
 Hf  Hf3  1  0.30074  0.05903  0.94008  1
 Hf  Hf4  1  0.19926  0.94097  0.44008  1
 Hf  Hf5  1  0.69926  0.55903  0.05992  1
 Hf  Hf6  1  0.63998  0.25000  0.78360  1
 Hf  Hf7  1  0.86002  0.75000  0.28360  1
 Hf  Hf8  1  0.36002  0.75000  0.21640  1
 Hf  Hf9  1  0.30074  0.44097  0.94008  1
 Hf  Hf10  1  0.30468  0.25000  0.22280  1
 Hf  Hf11  1  0.13998  0.25000  0.71640  1
 Hf  Hf12  1  0.19926  0.55903  0.44008  1
 Hf  Hf13  1  0.19532  0.75000  0.72280  1
 Hf  Hf14  1  0.69532  0.75000  0.77720  1
 Hf  Hf15  1  0.80468  0.25000  0.27720  1
 Hf  Hf16  1  0.02646  0.75000  0.98869  1
 Hf  Hf17  1  0.52646  0.75000  0.51131  1
 Hf  Hf18  1  0.97354  0.25000  0.01131  1
 Hf  Hf19  1  0.47354  0.25000  0.48869  1
 Hf  Hf20  1  0.69926  0.94097  0.05992  1
 Sb  Sb1  1  0.57530  0.50854  0.32489  1
 Sb  Sb2  1  0.41785  0.75000  0.95538  1
 Sb  Sb3  1  0.58215  0.25000  0.04462  1
 Sb  Sb4  1  0.08215  0.25000  0.45538  1
 Sb  Sb5  1  0.91785  0.75000  0.54462  1
 Sb  Sb6  1  0.42470  0.00854  0.67511  1
 Sb  Sb7  1  0.42470  0.49146  0.67511  1
 Sb  Sb8  1  0.92470  0.00854  0.82489  1
 Sb  Sb9  1  0.92470  0.49146  0.82489  1
 Sb  Sb10  1  0.57530  0.99146  0.32489  1
 Sb  Sb11  1  0.07530  0.50854  0.17511  1
 Sb  Sb12  1  0.07530  0.99146  0.17511  1
