CIF file written using JARVIS-Tools package.
data_VOF
_symmetry_space_group_name_H-M  'C2'
_cell_length_a       4.65768
_cell_length_b       4.6575
_cell_length_c       12.2586
_cell_angle_alpha    90.0034
_cell_angle_beta     90.0044
_cell_angle_gamma    90.1368

_symmetry_Int_Tables_number  5
_chemical_formula_structural  VOF
_chemical_formula_sum  V8O8F8
_cell_volume  265.92640378710365
_cell_formula_units_Z  8
loop_
  _symmetry_equiv_pos_site_id
 _symmetry_equiv_pos_as_xyz
 1  'x, y, z'
loop_
 _atom_site_type_symbol
 _atom_site_label
 _atom_site_symmetry_multiplicity
 _atom_site_fract_x
 _atom_site_fract_y
 _atom_site_fract_z
 _atom_site_fract_occupancy
 F  F1  1  0.79655  0.20135  0.87501  1
 F  F2  1  0.79865  0.20345  0.37499  1
 F  F3  1  0.70038  0.72024  0.74973  1
 F  F4  1  0.71235  0.70276  0.25013  1
 F  F5  1  0.27976  0.29961  0.50027  1
 F  F6  1  0.29725  0.28765  0.99987  1
 F  F7  1  0.21105  0.78895  0.12500  1
 F  F8  1  0.79870  0.20130  0.62500  1
 O  O1  1  0.19116  0.81156  0.87384  1
 O  O2  1  0.18843  0.80884  0.37616  1
 O  O3  1  0.19118  0.80881  0.62500  1
 O  O4  1  0.31881  0.31023  0.25011  1
 O  O5  1  0.31106  0.31366  0.74978  1
 O  O6  1  0.68634  0.68894  0.50022  1
 O  O7  1  0.81887  0.18114  0.12500  1
 O  O8  1  0.68977  0.68119  0.99989  1
 V  V1  1  0.47490  0.52389  0.37497  1
 V  V2  1  0.47611  0.52510  0.87503  1
 V  V3  1  0.47890  0.52110  0.62500  1
 V  V4  1  0.53584  0.46415  0.12500  1
 V  V5  1  0.05083  0.01317  0.74978  1
 V  V6  1  0.98682  0.94917  0.50022  1
 V  V7  1  0.03490  0.02863  0.25010  1
 V  V8  1  0.97138  0.96510  0.99990  1
