CIF file written using JARVIS-Tools package.
data_Ce2AlNO3
_symmetry_space_group_name_H-M  'I4mm'
_cell_length_a       3.72011
_cell_length_b       3.72011
_cell_length_c       6.78526
_cell_angle_alpha    105.91
_cell_angle_beta     105.91
_cell_angle_gamma    90

_symmetry_Int_Tables_number  107
_chemical_formula_structural  Ce2AlNO3
_chemical_formula_sum  Ce2AlNO3
_cell_volume  86.55873084081098
_cell_formula_units_Z  1
loop_
  _symmetry_equiv_pos_site_id
 _symmetry_equiv_pos_as_xyz
 1  'x, y, z'
loop_
 _atom_site_type_symbol
 _atom_site_label
 _atom_site_symmetry_multiplicity
 _atom_site_fract_x
 _atom_site_fract_y
 _atom_site_fract_z
 _atom_site_fract_occupancy
 Al  Al1  1  0.15924  0.15924  0.31848  1
 Ce  Ce1  1  0.51679  0.51679  0.03358  1
 Ce  Ce2  1  0.81246  0.81246  0.62492  1
 N  N1  1  0.99663  0.99663  0.99325  1
 O  O1  1  0.16913  0.66913  0.33827  1
 O  O2  1  0.66913  0.16913  0.33827  1
 O  O3  1  0.32932  0.32932  0.65864  1
