CIF file written using JARVIS-Tools package.
data_ZrMo2O8
_symmetry_space_group_name_H-M  'Pmn2_1'
_cell_length_a       5.94619
_cell_length_b       7.34215
_cell_length_c       9.23501
_cell_angle_alpha    90
_cell_angle_beta     90
_cell_angle_gamma    90

_symmetry_Int_Tables_number  31
_chemical_formula_structural  ZrMo2O8
_chemical_formula_sum  Zr2Mo4O6
_cell_volume  403.18081086563694
_cell_formula_units_Z  2
loop_
  _symmetry_equiv_pos_site_id
 _symmetry_equiv_pos_as_xyz
 1  'x, y, z'
loop_
 _atom_site_type_symbol
 _atom_site_label
 _atom_site_symmetry_multiplicity
 _atom_site_fract_x
 _atom_site_fract_y
 _atom_site_fract_z
 _atom_site_fract_occupancy
 Mo  Mo1  1  0.00000  0.58076  0.40242  1
 Mo  Mo2  1  0.00000  0.04331  0.67499  1
 Mo  Mo3  1  0.50000  0.95669  0.17499  1
 Mo  Mo4  1  0.50000  0.41924  0.90242  1
 O  O1  1  0.74470  0.08124  0.57277  1
 O  O2  1  0.00000  0.84480  0.79392  1
 O  O3  1  0.00000  0.22060  0.79381  1
 O  O4  1  0.25685  0.55159  0.94968  1
 O  O5  1  0.50000  0.21824  0.99801  1
 O  O6  1  0.75530  0.91876  0.07277  1
 O  O7  1  0.00000  0.78176  0.49801  1
 O  O8  1  0.75685  0.44841  0.44968  1
 O  O9  1  0.74315  0.55159  0.94968  1
 O  O10  1  0.24470  0.91876  0.07277  1
 O  O11  1  0.24315  0.44841  0.44968  1
 O  O12  1  0.50000  0.77940  0.29381  1
 O  O13  1  0.50000  0.15520  0.29392  1
 O  O14  1  0.50000  0.37444  0.71238  1
 O  O15  1  0.00000  0.62556  0.21238  1
 O  O16  1  0.25530  0.08124  0.57277  1
 Zr  Zr1  1  0.50000  0.26266  0.49996  1
 Zr  Zr2  1  0.00000  0.73734  -0.00004  1
