CIF file written using JARVIS-Tools package.
data_UTe3
_symmetry_space_group_name_H-M  'P2_1/m'
_cell_length_a       4.17176
_cell_length_b       6.08542
_cell_length_c       11.2201
_cell_angle_alpha    114.335
_cell_angle_beta     90
_cell_angle_gamma    90

_symmetry_Int_Tables_number  11
_chemical_formula_structural  UTe3
_chemical_formula_sum  U2Te6
_cell_volume  259.5353714170752
_cell_formula_units_Z  2
loop_
  _symmetry_equiv_pos_site_id
 _symmetry_equiv_pos_as_xyz
 1  'x, y, z'
loop_
 _atom_site_type_symbol
 _atom_site_label
 _atom_site_symmetry_multiplicity
 _atom_site_fract_x
 _atom_site_fract_y
 _atom_site_fract_z
 _atom_site_fract_occupancy
 Te  Te1  1  0.75000  0.74906  0.33785  1
 Te  Te2  1  0.75000  0.20384  0.93875  1
 Te  Te3  1  0.75000  0.25829  0.33393  1
 Te  Te4  1  0.25000  0.25094  0.66215  1
 Te  Te5  1  0.25000  0.79616  0.06125  1
 Te  Te6  1  0.25000  0.74171  0.66607  1
 U  U1  1  0.25000  0.37396  0.16329  1
 U  U2  1  0.75000  0.62604  0.83671  1
