CIF file written using JARVIS-Tools package.
data_CaTiSiO5
_symmetry_space_group_name_H-M  'C2/c'
_cell_length_a       6.60179
_cell_length_b       8.76948
_cell_length_c       7.08242
_cell_angle_alpha    90
_cell_angle_beta     113.776
_cell_angle_gamma    90

_symmetry_Int_Tables_number  15
_chemical_formula_structural  CaTiSiO5
_chemical_formula_sum  Ca4Ti4Si4O20
_cell_volume  375.23138868872655
_cell_formula_units_Z  4
loop_
  _symmetry_equiv_pos_site_id
 _symmetry_equiv_pos_as_xyz
 1  'x, y, z'
loop_
 _atom_site_type_symbol
 _atom_site_label
 _atom_site_symmetry_multiplicity
 _atom_site_fract_x
 _atom_site_fract_y
 _atom_site_fract_z
 _atom_site_fract_occupancy
 Ca  Ca1  1  0.25000  0.92030  0.74991  1
 Ca  Ca2  1  0.25000  0.57970  0.24991  1
 Ca  Ca3  1  0.75000  0.42030  0.75009  1
 Ca  Ca4  1  0.75000  0.07970  0.25009  1
 O  O1  1  0.93494  0.18547  0.91205  1
 O  O2  1  0.06506  0.81453  0.08795  1
 O  O3  1  0.14724  0.03773  0.38290  1
 O  O4  1  0.35275  0.46229  0.61708  1
 O  O5  1  0.64725  0.96229  0.88292  1
 O  O6  1  0.35275  0.03771  0.11708  1
 O  O7  1  0.25000  0.32077  0.24998  1
 O  O8  1  0.43492  0.68547  0.91203  1
 O  O9  1  0.85276  0.53773  0.11710  1
 O  O10  1  0.85276  0.96227  0.61710  1
 O  O11  1  0.14724  0.46227  0.88290  1
 O  O12  1  0.64725  0.53771  0.38292  1
 O  O13  1  0.75000  0.82077  0.25002  1
 O  O14  1  0.25000  0.17923  0.74998  1
 O  O15  1  0.93494  0.31453  0.41205  1
 O  O16  1  0.56508  0.31453  0.08797  1
 O  O17  1  0.43492  0.81453  0.41203  1
 O  O18  1  0.06506  0.68547  0.58795  1
 O  O19  1  0.75000  0.67923  0.75002  1
 O  O20  1  0.56508  0.18547  0.58797  1
 Si  Si1  1  0.24999  0.56887  0.74999  1
 Si  Si2  1  0.75001  0.06887  0.75001  1
 Si  Si3  1  0.24999  0.93113  0.24999  1
 Si  Si4  1  0.75001  0.43113  0.25001  1
 Ti  Ti1  1  0.74999  0.75004  0.00010  1
 Ti  Ti2  1  0.25001  0.24996  0.99990  1
 Ti  Ti3  1  0.74999  0.74996  0.50010  1
 Ti  Ti4  1  0.25001  0.25004  0.49990  1
