CIF file written using JARVIS-Tools package.
data_Fe3O5F
_symmetry_space_group_name_H-M  'P1'
_cell_length_a       5.2278
_cell_length_b       5.21606
_cell_length_c       6.80149
_cell_angle_alpha    72.3701
_cell_angle_beta     72.1884
_cell_angle_gamma    72.2165

_symmetry_Int_Tables_number  1
_chemical_formula_structural  Fe3O5F
_chemical_formula_sum  Fe6O0F2
_cell_volume  163.59075041134233
_cell_formula_units_Z  2
loop_
  _symmetry_equiv_pos_site_id
 _symmetry_equiv_pos_as_xyz
 1  'x, y, z'
loop_
 _atom_site_type_symbol
 _atom_site_label
 _atom_site_symmetry_multiplicity
 _atom_site_fract_x
 _atom_site_fract_y
 _atom_site_fract_z
 _atom_site_fract_occupancy
 F  F1  1  0.10238  0.09879  0.69832  1
 F  F2  1  0.36287  0.96355  0.33212  1
 Fe  Fe1  1  0.99418  0.00299  0.01126  1
 Fe  Fe2  1  0.97673  0.99443  0.49389  1
 Fe  Fe3  1  0.33226  0.35025  0.15742  1
 Fe  Fe4  1  0.34121  0.35013  0.66665  1
 Fe  Fe5  1  0.68552  0.63825  0.33366  1
 Fe  Fe6  1  0.66826  0.66993  0.83859  1
 O  O1  1  0.69714  0.30801  0.99935  1
 O  O2  1  0.30116  0.70240  0.00045  1
 O  O3  1  0.63574  0.03418  0.66842  1
 O  O4  1  0.89179  0.89292  0.29924  1
 O  O5  1  0.43807  0.43210  0.36695  1
 O  O6  1  0.23301  0.23577  0.96300  1
 O  O7  1  0.76996  0.76570  0.04203  1
 O  O8  1  0.02606  0.63907  0.66619  1
 O  O9  1  0.56704  0.56959  0.62901  1
 O  O10  1  0.97662  0.35193  0.33346  1
