CIF file written using JARVIS-Tools package.
data_Na2Cd3Si3O10
_symmetry_space_group_name_H-M  'C2/c'
_cell_length_a       5.15738
_cell_length_b       8.72201
_cell_length_c       11.067
_cell_angle_alpha    93.4521
_cell_angle_beta     90
_cell_angle_gamma    107.197

_symmetry_Int_Tables_number  15
_chemical_formula_structural  Na2Cd3Si3O10
_chemical_formula_sum  Na4Cd6Si6O20
_cell_volume  474.62253590895756
_cell_formula_units_Z  2
loop_
  _symmetry_equiv_pos_site_id
 _symmetry_equiv_pos_as_xyz
 1  'x, y, z'
loop_
 _atom_site_type_symbol
 _atom_site_label
 _atom_site_symmetry_multiplicity
 _atom_site_fract_x
 _atom_site_fract_y
 _atom_site_fract_z
 _atom_site_fract_occupancy
 Cd  Cd1  1  0.00000  0.50000  -0.00000  1
 Cd  Cd2  1  0.50000  0.50000  0.50000  1
 Cd  Cd3  1  0.05621  0.68484  0.29380  1
 Cd  Cd4  1  0.37136  0.31516  0.20620  1
 Cd  Cd5  1  0.94379  0.31516  0.70620  1
 Cd  Cd6  1  0.62864  0.68484  0.79380  1
 Na  Na1  1  0.28507  0.09220  0.46757  1
 Na  Na2  1  0.19287  0.90780  0.03243  1
 Na  Na3  1  0.71493  0.90780  0.53243  1
 Na  Na4  1  0.80713  0.09220  0.96757  1
 O  O1  1  0.31412  0.55904  0.17117  1
 O  O2  1  0.24492  0.55904  0.67117  1
 O  O3  1  0.41017  0.70563  0.96621  1
 O  O4  1  0.68588  0.44096  0.82883  1
 O  O5  1  0.54584  0.87585  0.17276  1
 O  O6  1  0.06261  0.09232  0.65122  1
 O  O7  1  0.45416  0.12415  0.82724  1
 O  O8  1  0.93739  0.90768  0.34878  1
 O  O9  1  0.02971  0.09232  0.15122  1
 O  O10  1  0.75508  0.44096  0.32883  1
 O  O11  1  0.33001  0.87585  0.67276  1
 O  O12  1  0.14935  0.31277  0.89723  1
 O  O13  1  0.29546  0.70563  0.46621  1
 O  O14  1  0.85065  0.68723  0.10277  1
 O  O15  1  0.97029  0.90768  0.84878  1
 O  O16  1  0.16341  0.31277  0.39723  1
 O  O17  1  0.66999  0.12415  0.32724  1
 O  O18  1  0.58983  0.29437  0.03379  1
 O  O19  1  0.83659  0.68723  0.60277  1
 O  O20  1  0.70454  0.29437  0.53379  1
 Si  Si1  1  0.15826  0.69909  0.60056  1
 Si  Si2  1  0.18527  0.00000  0.75000  1
 Si  Si3  1  0.84174  0.30091  0.39944  1
 Si  Si4  1  0.54083  0.69909  0.10056  1
 Si  Si5  1  0.45917  0.30091  0.89944  1
 Si  Si6  1  0.81473  -0.00000  0.25000  1
