CIF file written using JARVIS-Tools package.
data_Y2Re2Si2C
_symmetry_space_group_name_H-M  'C2/m'
_cell_length_a       3.99527
_cell_length_b       5.84326
_cell_length_c       6.00785
_cell_angle_alpha    71.8364
_cell_angle_beta     70.5792
_cell_angle_gamma    70.0092

_symmetry_Int_Tables_number  12
_chemical_formula_structural  Y2Re2Si2C
_chemical_formula_sum  Y2Re2Si2C
_cell_volume  121.1617679174129
_cell_formula_units_Z  1
loop_
  _symmetry_equiv_pos_site_id
 _symmetry_equiv_pos_as_xyz
 1  'x, y, z'
loop_
 _atom_site_type_symbol
 _atom_site_label
 _atom_site_symmetry_multiplicity
 _atom_site_fract_x
 _atom_site_fract_y
 _atom_site_fract_z
 _atom_site_fract_occupancy
 C  C1  1  0.00000  0.00000  0.00000  1
 Re  Re1  1  0.79323  0.32113  0.09240  1
 Re  Re2  1  0.20677  0.67887  0.90760  1
 Si  Si1  1  0.85743  0.60346  0.68167  1
 Si  Si2  1  0.14257  0.39654  0.31833  1
 Y  Y1  1  0.42794  0.84509  0.29903  1
 Y  Y2  1  0.57206  0.15491  0.70097  1
