CIF file written using JARVIS-Tools package.
data_Ho2Al
_symmetry_space_group_name_H-M  'Pnma'
_cell_length_a       5.04994
_cell_length_b       6.48139
_cell_length_c       9.38391
_cell_angle_alpha    90
_cell_angle_beta     90
_cell_angle_gamma    90

_symmetry_Int_Tables_number  62
_chemical_formula_structural  Ho2Al
_chemical_formula_sum  Ho8Al4
_cell_volume  307.141202708248
_cell_formula_units_Z  4
loop_
  _symmetry_equiv_pos_site_id
 _symmetry_equiv_pos_as_xyz
 1  'x, y, z'
loop_
 _atom_site_type_symbol
 _atom_site_label
 _atom_site_symmetry_multiplicity
 _atom_site_fract_x
 _atom_site_fract_y
 _atom_site_fract_z
 _atom_site_fract_occupancy
 Al  Al1  1  0.75000  0.70842  0.10259  1
 Al  Al2  1  0.25000  0.29158  0.89741  1
 Al  Al3  1  0.75000  0.20842  0.39741  1
 Al  Al4  1  0.25000  0.79158  0.60259  1
 Ho  Ho1  1  0.75000  0.18819  0.07291  1
 Ho  Ho2  1  0.25000  0.81181  0.92709  1
 Ho  Ho3  1  0.75000  0.68819  0.42709  1
 Ho  Ho4  1  0.25000  0.31181  0.57291  1
 Ho  Ho5  1  0.75000  0.02745  0.71071  1
 Ho  Ho6  1  0.25000  0.97255  0.28929  1
 Ho  Ho7  1  0.75000  0.52745  0.78929  1
 Ho  Ho8  1  0.25000  0.47255  0.21071  1
