CIF file written using JARVIS-Tools package.
data_PrTlCd
_symmetry_space_group_name_H-M  'P6_3/mmc'
_cell_length_a       5.0359
_cell_length_b       5.03608
_cell_length_c       7.48126
_cell_angle_alpha    90
_cell_angle_beta     90
_cell_angle_gamma    119.999

_symmetry_Int_Tables_number  194
_chemical_formula_structural  PrTlCd
_chemical_formula_sum  Pr2Tl2Cd2
_cell_volume  164.31622661367447
_cell_formula_units_Z  2
loop_
  _symmetry_equiv_pos_site_id
 _symmetry_equiv_pos_as_xyz
 1  'x, y, z'
loop_
 _atom_site_type_symbol
 _atom_site_label
 _atom_site_symmetry_multiplicity
 _atom_site_fract_x
 _atom_site_fract_y
 _atom_site_fract_z
 _atom_site_fract_occupancy
 Cd  Cd1  1  0.33334  0.66668  0.25000  1
 Cd  Cd2  1  0.66666  0.33332  0.75000  1
 Pr  Pr1  1  0.00000  0.00000  0.50000  1
 Pr  Pr2  1  0.00000  0.00000  0.00000  1
 Tl  Tl1  1  0.33334  0.66668  0.75000  1
 Tl  Tl2  1  0.66666  0.33332  0.25000  1
