CIF file written using JARVIS-Tools package.
data_VCl4
_symmetry_space_group_name_H-M  'P2/c'
_cell_length_a       7.53586
_cell_length_b       6.26249
_cell_length_c       12.6707
_cell_angle_alpha    90
_cell_angle_beta     108.341
_cell_angle_gamma    90

_symmetry_Int_Tables_number  13
_chemical_formula_structural  VCl4
_chemical_formula_sum  V4Cl6
_cell_volume  567.5949506340288
_cell_formula_units_Z  4
loop_
  _symmetry_equiv_pos_site_id
 _symmetry_equiv_pos_as_xyz
 1  'x, y, z'
loop_
 _atom_site_type_symbol
 _atom_site_label
 _atom_site_symmetry_multiplicity
 _atom_site_fract_x
 _atom_site_fract_y
 _atom_site_fract_z
 _atom_site_fract_occupancy
 Cl  Cl1  1  0.55280  0.82551  0.36374  1
 Cl  Cl2  1  0.67759  0.67071  0.13244  1
 Cl  Cl3  1  0.32241  0.67071  0.86756  1
 Cl  Cl4  1  0.17761  0.32929  0.63244  1
 Cl  Cl5  1  0.82239  0.32929  0.36756  1
 Cl  Cl6  1  0.43463  0.14721  0.12624  1
 Cl  Cl7  1  0.29851  0.33652  0.37749  1
 Cl  Cl8  1  0.56537  0.14721  0.87376  1
 Cl  Cl9  1  0.93465  0.85278  0.62624  1
 Cl  Cl10  1  0.70149  0.33652  0.62251  1
 Cl  Cl11  1  0.44720  0.82551  0.63626  1
 Cl  Cl12  1  0.94718  0.17450  0.13626  1
 Cl  Cl13  1  0.05282  0.17450  0.86374  1
 Cl  Cl14  1  0.20148  0.66348  0.12251  1
 Cl  Cl15  1  0.79852  0.66348  0.87749  1
 Cl  Cl16  1  0.06535  0.85278  0.37376  1
 V  V1  1  0.96535  0.17565  0.68528  1
 V  V2  1  0.03465  0.17565  0.31472  1
 V  V3  1  0.53466  0.82434  0.81471  1
 V  V4  1  0.46534  0.82434  0.18529  1
