CIF file written using JARVIS-Tools package.
data_TiCr2S4
_symmetry_space_group_name_H-M  'Cm'
_cell_length_a       4.77478
_cell_length_b       4.92876
_cell_length_c       4.92824
_cell_angle_alpha    95.8327
_cell_angle_beta     93.6334
_cell_angle_gamma    93.6307

_symmetry_Int_Tables_number  8
_chemical_formula_structural  TiCr2S4
_chemical_formula_sum  TiCr2S4
_cell_volume  114.86295529499931
_cell_formula_units_Z  1
loop_
  _symmetry_equiv_pos_site_id
 _symmetry_equiv_pos_as_xyz
 1  'x, y, z'
loop_
 _atom_site_type_symbol
 _atom_site_label
 _atom_site_symmetry_multiplicity
 _atom_site_fract_x
 _atom_site_fract_y
 _atom_site_fract_z
 _atom_site_fract_occupancy
 Cr  Cr1  1  0.72039  0.27871  0.51731  1
 Cr  Cr2  1  0.72020  0.73161  0.06431  1
 S  S1  1  0.22371  0.23526  0.44529  1
 S  S2  1  0.68721  0.22672  0.01244  1
 S  S3  1  0.22356  0.65953  0.02102  1
 S  S4  1  0.77391  0.77578  0.56144  1
 Ti  Ti1  1  0.15102  0.09239  0.87818  1
