CIF file written using JARVIS-Tools package.
data_Sn4SF6
_symmetry_space_group_name_H-M  'R3'
_cell_length_a       5.98175
_cell_length_b       5.98175
_cell_length_c       5.98175
_cell_angle_alpha    92.7453
_cell_angle_beta     92.7453
_cell_angle_gamma    92.7453

_symmetry_Int_Tables_number  146
_chemical_formula_structural  Sn4SF6
_chemical_formula_sum  Sn4SF6
_cell_volume  213.27360836871762
_cell_formula_units_Z  1
loop_
  _symmetry_equiv_pos_site_id
 _symmetry_equiv_pos_as_xyz
 1  'x, y, z'
loop_
 _atom_site_type_symbol
 _atom_site_label
 _atom_site_symmetry_multiplicity
 _atom_site_fract_x
 _atom_site_fract_y
 _atom_site_fract_z
 _atom_site_fract_occupancy
 F  F1  1  0.39235  0.13086  0.69429  1
 F  F2  1  0.69429  0.39235  0.13086  1
 F  F3  1  0.13086  0.69429  0.39235  1
 F  F4  1  0.66712  0.81066  0.41292  1
 F  F5  1  0.41292  0.66712  0.81066  1
 F  F6  1  0.81066  0.41292  0.66712  1
 S  S1  1  0.91835  0.91835  0.91835  1
 Sn  Sn1  1  0.49482  0.99259  0.00526  1
 Sn  Sn2  1  0.00526  0.49482  0.99259  1
 Sn  Sn3  1  0.99259  0.00526  0.49482  1
 Sn  Sn4  1  0.48915  0.48915  0.48915  1
