CIF file written using JARVIS-Tools package.
data_PbSe2
_symmetry_space_group_name_H-M  'I4/mcm'
_cell_length_a       6.03
_cell_length_b       6.03
_cell_length_c       6.03
_cell_angle_alpha    114.883
_cell_angle_beta     114.883
_cell_angle_gamma    99.1175

_symmetry_Int_Tables_number  140
_chemical_formula_structural  PbSe2
_chemical_formula_sum  Pb2Se4
_cell_volume  164.76120694181319
_cell_formula_units_Z  2
loop_
  _symmetry_equiv_pos_site_id
 _symmetry_equiv_pos_as_xyz
 1  'x, y, z'
loop_
 _atom_site_type_symbol
 _atom_site_label
 _atom_site_symmetry_multiplicity
 _atom_site_fract_x
 _atom_site_fract_y
 _atom_site_fract_z
 _atom_site_fract_occupancy
 Pb  Pb1  1  0.25000  0.25000  0.00000  1
 Pb  Pb2  1  0.75000  0.75000  0.00000  1
 Se  Se1  1  0.63149  0.13149  0.76298  1
 Se  Se2  1  0.36851  0.86851  0.23702  1
 Se  Se3  1  0.86851  0.63149  0.50000  1
 Se  Se4  1  0.13149  0.36851  0.50000  1
