CIF file written using JARVIS-Tools package.
data_SrGeO3
_symmetry_space_group_name_H-M  'C2/c'
_cell_length_a       7.27526
_cell_length_b       7.27526
_cell_length_c       11.3819
_cell_angle_alpha    71.7709
_cell_angle_beta     71.7709
_cell_angle_gamma    60.1201

_symmetry_Int_Tables_number  15
_chemical_formula_structural  SrGeO3
_chemical_formula_sum  Sr6Ge6O8
_cell_volume  487.0426266240576
_cell_formula_units_Z  6
loop_
  _symmetry_equiv_pos_site_id
 _symmetry_equiv_pos_as_xyz
 1  'x, y, z'
loop_
 _atom_site_type_symbol
 _atom_site_label
 _atom_site_symmetry_multiplicity
 _atom_site_fract_x
 _atom_site_fract_y
 _atom_site_fract_z
 _atom_site_fract_occupancy
 Ge  Ge1  1  0.41778  0.32027  0.24656  1
 Ge  Ge2  1  0.15358  0.84642  0.25000  1
 Ge  Ge3  1  0.84642  0.15358  0.75000  1
 Ge  Ge4  1  0.58222  0.67973  0.75344  1
 Ge  Ge5  1  0.32027  0.41778  0.74656  1
 Ge  Ge6  1  0.67973  0.58222  0.25344  1
 O  O1  1  0.58289  0.18028  0.74887  1
 O  O2  1  0.18028  0.58289  0.24887  1
 O  O3  1  0.41711  0.81972  0.25113  1
 O  O4  1  0.71767  0.53140  0.40637  1
 O  O5  1  0.99019  0.11195  0.59944  1
 O  O6  1  0.88805  0.00981  0.90056  1
 O  O7  1  0.00981  0.88805  0.40056  1
 O  O8  1  0.11195  0.99019  0.09944  1
 O  O9  1  0.34604  0.65396  0.75000  1
 O  O10  1  0.81972  0.41711  0.75113  1
 O  O11  1  0.82464  0.63200  0.10380  1
 O  O12  1  0.46860  0.28233  0.09363  1
 O  O13  1  0.53140  0.71767  0.90637  1
 O  O14  1  0.65396  0.34604  0.25000  1
 O  O15  1  0.28233  0.46860  0.59363  1
 O  O16  1  0.63200  0.82464  0.60380  1
 O  O17  1  0.17536  0.36800  0.89620  1
 O  O18  1  0.36800  0.17536  0.39620  1
 Sr  Sr1  1  0.16017  0.66949  0.99934  1
 Sr  Sr2  1  0.00000  0.50000  0.50000  1
 Sr  Sr3  1  0.50000  0.00000  -0.00000  1
 Sr  Sr4  1  0.83983  0.33051  0.00066  1
 Sr  Sr5  1  0.66949  0.16017  0.49934  1
 Sr  Sr6  1  0.33051  0.83983  0.50066  1
