CIF file written using JARVIS-Tools package.
data_V3NiS6
_symmetry_space_group_name_H-M  'R-3'
_cell_length_a       6.54537
_cell_length_b       6.54537
_cell_length_c       6.54537
_cell_angle_alpha    51.0342
_cell_angle_beta     51.0343
_cell_angle_gamma    51.0342

_symmetry_Int_Tables_number  148
_chemical_formula_structural  V3NiS6
_chemical_formula_sum  V3NiS6
_cell_volume  156.37924682218733
_cell_formula_units_Z  1
loop_
  _symmetry_equiv_pos_site_id
 _symmetry_equiv_pos_as_xyz
 1  'x, y, z'
loop_
 _atom_site_type_symbol
 _atom_site_label
 _atom_site_symmetry_multiplicity
 _atom_site_fract_x
 _atom_site_fract_y
 _atom_site_fract_z
 _atom_site_fract_occupancy
 Ni  Ni1  1  0.50000  0.50000  0.50000  1
 S  S1  1  0.41670  0.08299  0.75538  1
 S  S2  1  0.75538  0.41670  0.08299  1
 S  S3  1  0.08299  0.75538  0.41670  1
 S  S4  1  0.91701  0.24462  0.58330  1
 S  S5  1  0.24462  0.58330  0.91701  1
 S  S6  1  0.58330  0.91701  0.24462  1
 V  V1  1  0.00000  0.00000  0.00000  1
 V  V2  1  0.33034  0.33034  0.33034  1
 V  V3  1  0.66966  0.66966  0.66966  1
