CIF file written using JARVIS-Tools package.
data_LiCu2Sn
_symmetry_space_group_name_H-M  'P6_3/mmc'
_cell_length_a       4.3298
_cell_length_b       4.3298
_cell_length_c       7.66533
_cell_angle_alpha    90
_cell_angle_beta     90
_cell_angle_gamma    120

_symmetry_Int_Tables_number  194
_chemical_formula_structural  LiCu2Sn
_chemical_formula_sum  Li2Cu4Sn2
_cell_volume  124.4507367451562
_cell_formula_units_Z  2
loop_
  _symmetry_equiv_pos_site_id
 _symmetry_equiv_pos_as_xyz
 1  'x, y, z'
loop_
 _atom_site_type_symbol
 _atom_site_label
 _atom_site_symmetry_multiplicity
 _atom_site_fract_x
 _atom_site_fract_y
 _atom_site_fract_z
 _atom_site_fract_occupancy
 Cu  Cu1  1  0.66667  0.33333  0.58972  1
 Cu  Cu2  1  0.33333  0.66667  0.08972  1
 Cu  Cu3  1  0.66667  0.33333  0.91028  1
 Cu  Cu4  1  0.33333  0.66667  0.41028  1
 Li  Li1  1  0.00000  0.00000  0.50000  1
 Li  Li2  1  0.00000  0.00000  0.00000  1
 Sn  Sn1  1  0.66667  0.33333  0.25000  1
 Sn  Sn2  1  0.33333  0.66667  0.75000  1
