CIF file written using JARVIS-Tools package.
data_Li2VCl4
_symmetry_space_group_name_H-M  'Imma'
_cell_length_a       7.30754
_cell_length_b       7.22549
_cell_length_c       7.30754
_cell_angle_alpha    60.3707
_cell_angle_beta     60.5742
_cell_angle_gamma    60.3707

_symmetry_Int_Tables_number  74
_chemical_formula_structural  Li2VCl4
_chemical_formula_sum  Li4V2Cl8
_cell_volume  275.53454136122554
_cell_formula_units_Z  2
loop_
  _symmetry_equiv_pos_site_id
 _symmetry_equiv_pos_as_xyz
 1  'x, y, z'
loop_
 _atom_site_type_symbol
 _atom_site_label
 _atom_site_symmetry_multiplicity
 _atom_site_fract_x
 _atom_site_fract_y
 _atom_site_fract_z
 _atom_site_fract_occupancy
 Cl  Cl1  1  0.37564  0.38949  0.37564  1
 Cl  Cl2  1  0.37564  0.85923  0.37564  1
 Cl  Cl3  1  0.37886  0.38603  0.84907  1
 Cl  Cl4  1  0.84907  0.38603  0.37886  1
 Cl  Cl5  1  0.40093  0.86397  0.87113  1
 Cl  Cl6  1  0.87436  0.39077  0.87436  1
 Cl  Cl7  1  0.87113  0.86397  0.40093  1
 Cl  Cl8  1  0.87436  0.86051  0.87436  1
 Li  Li1  1  0.01556  0.98444  0.01556  1
 Li  Li2  1  0.23445  0.26555  0.23445  1
 Li  Li3  1  0.62501  0.12500  0.62501  1
 Li  Li4  1  0.62501  0.62498  0.62501  1
 V  V1  1  0.12499  0.62500  0.62500  1
 V  V2  1  0.62500  0.62500  0.12499  1
