CIF file written using JARVIS-Tools package.
data_BaCO3
_symmetry_space_group_name_H-M  'C2/m'
_cell_length_a       4.55662
_cell_length_b       4.55662
_cell_length_c       8.77981
_cell_angle_alpha    71.4782
_cell_angle_beta     71.4782
_cell_angle_gamma    71.5174

_symmetry_Int_Tables_number  12
_chemical_formula_structural  BaCO3
_chemical_formula_sum  Ba2C2O6
_cell_volume  159.09269102689737
_cell_formula_units_Z  2
loop_
  _symmetry_equiv_pos_site_id
 _symmetry_equiv_pos_as_xyz
 1  'x, y, z'
loop_
 _atom_site_type_symbol
 _atom_site_label
 _atom_site_symmetry_multiplicity
 _atom_site_fract_x
 _atom_site_fract_y
 _atom_site_fract_z
 _atom_site_fract_occupancy
 Ba  Ba1  1  0.50000  0.50000  0.25000  1
 Ba  Ba2  1  0.50000  0.50000  0.75000  1
 C  C1  1  0.04403  0.04403  0.51737  1
 C  C2  1  0.95597  0.95597  0.98263  1
 O  O1  1  0.08534  0.66281  0.05016  1
 O  O2  1  0.66281  0.08534  0.05016  1
 O  O3  1  0.11198  0.11198  0.84847  1
 O  O4  1  0.33719  0.91466  0.44984  1
 O  O5  1  0.91466  0.33719  0.44984  1
 O  O6  1  0.88802  0.88802  0.65153  1
