CIF file written using JARVIS-Tools package.
data_B3Ru2
_symmetry_space_group_name_H-M  'P6_3/mmc'
_cell_length_a       2.92503
_cell_length_b       2.92503
_cell_length_c       12.8525
_cell_angle_alpha    90
_cell_angle_beta     90
_cell_angle_gamma    120

_symmetry_Int_Tables_number  194
_chemical_formula_structural  B3Ru2
_chemical_formula_sum  B6Ru4
_cell_volume  95.23110050947518
_cell_formula_units_Z  2
loop_
  _symmetry_equiv_pos_site_id
 _symmetry_equiv_pos_as_xyz
 1  'x, y, z'
loop_
 _atom_site_type_symbol
 _atom_site_label
 _atom_site_symmetry_multiplicity
 _atom_site_fract_x
 _atom_site_fract_y
 _atom_site_fract_z
 _atom_site_fract_occupancy
 B  B1  1  0.66667  0.33333  0.25000  1
 B  B2  1  0.33333  0.66667  0.75000  1
 B  B3  1  0.33333  0.66667  0.53019  1
 B  B4  1  0.66667  0.33333  0.03019  1
 B  B5  1  0.33333  0.66667  0.96981  1
 B  B6  1  0.66667  0.33333  0.46981  1
 Ru  Ru1  1  0.33333  0.66667  0.35995  1
 Ru  Ru2  1  0.66667  0.33333  0.85995  1
 Ru  Ru3  1  0.66667  0.33333  0.64005  1
 Ru  Ru4  1  0.33333  0.66667  0.14005  1
