CIF file written using JARVIS-Tools package.
data_Mo3O8
_symmetry_space_group_name_H-M  'C2/m'
_cell_length_a       4.98214
_cell_length_b       6.07292
_cell_length_c       6.65219
_cell_angle_alpha    117.159
_cell_angle_beta     122.713
_cell_angle_gamma    90

_symmetry_Int_Tables_number  12
_chemical_formula_structural  Mo3O8
_chemical_formula_sum  Mo3O8
_cell_volume  142.26025730099892
_cell_formula_units_Z  1
loop_
  _symmetry_equiv_pos_site_id
 _symmetry_equiv_pos_as_xyz
 1  'x, y, z'
loop_
 _atom_site_type_symbol
 _atom_site_label
 _atom_site_symmetry_multiplicity
 _atom_site_fract_x
 _atom_site_fract_y
 _atom_site_fract_z
 _atom_site_fract_occupancy
 Mo  Mo1  1  0.50000  1.00000  0.00000  1
 Mo  Mo2  1  1.00000  0.70895  0.00000  1
 Mo  Mo3  1  1.00000  0.29105  -0.00000  1
 O  O1  1  -0.02750  0.37087  0.74174  1
 O  O2  1  0.02750  0.62913  0.25826  1
 O  O3  1  0.02079  0.89090  0.78180  1
 O  O4  1  0.97921  0.10910  0.21820  1
 O  O5  1  0.46529  0.33413  0.21146  1
 O  O6  1  0.46529  0.87733  0.21146  1
 O  O7  1  0.53471  0.12266  0.78854  1
 O  O8  1  0.53471  0.66587  0.78854  1
