CIF file written using JARVIS-Tools package.
data_BaSr2MgSi2O8
_symmetry_space_group_name_H-M  'P-3m1'
_cell_length_a       5.52769
_cell_length_b       5.52769
_cell_length_c       7.0655
_cell_angle_alpha    90
_cell_angle_beta     90
_cell_angle_gamma    120

_symmetry_Int_Tables_number  164
_chemical_formula_structural  BaSr2MgSi2O8
_chemical_formula_sum  BaSr2MgSi2O8
_cell_volume  186.96493590890145
_cell_formula_units_Z  1
loop_
  _symmetry_equiv_pos_site_id
 _symmetry_equiv_pos_as_xyz
 1  'x, y, z'
loop_
 _atom_site_type_symbol
 _atom_site_label
 _atom_site_symmetry_multiplicity
 _atom_site_fract_x
 _atom_site_fract_y
 _atom_site_fract_z
 _atom_site_fract_occupancy
 Ba  Ba1  1  0.00000  0.00000  0.50000  1
 Mg  Mg1  1  0.00000  0.00000  0.00000  1
 O  O1  1  0.33333  0.66667  0.50049  1
 O  O2  1  0.66667  0.33333  0.49951  1
 O  O3  1  0.17466  0.82534  0.17696  1
 O  O4  1  0.17466  0.34932  0.17696  1
 O  O5  1  0.65068  0.82534  0.17696  1
 O  O6  1  0.82534  0.17466  0.82304  1
 O  O7  1  0.82534  0.65068  0.82304  1
 O  O8  1  0.34932  0.17466  0.82304  1
 Si  Si1  1  0.33333  0.66667  0.27141  1
 Si  Si2  1  0.66667  0.33333  0.72859  1
 Sr  Sr1  1  0.33333  0.66667  0.83914  1
 Sr  Sr2  1  0.66667  0.33333  0.16086  1
