CIF file written using JARVIS-Tools package.
data_U3Si2
_symmetry_space_group_name_H-M  'P4/mbm'
_cell_length_a       7.3128
_cell_length_b       7.3128
_cell_length_c       3.91264
_cell_angle_alpha    90
_cell_angle_beta     90
_cell_angle_gamma    90

_symmetry_Int_Tables_number  127
_chemical_formula_structural  U3Si2
_chemical_formula_sum  U6Si4
_cell_volume  209.2360036080875
_cell_formula_units_Z  2
loop_
  _symmetry_equiv_pos_site_id
 _symmetry_equiv_pos_as_xyz
 1  'x, y, z'
loop_
 _atom_site_type_symbol
 _atom_site_label
 _atom_site_symmetry_multiplicity
 _atom_site_fract_x
 _atom_site_fract_y
 _atom_site_fract_z
 _atom_site_fract_occupancy
 Si  Si1  1  0.88512  0.38512  0.00000  1
 Si  Si2  1  0.38512  0.11488  0.00000  1
 Si  Si3  1  0.61488  0.88512  0.00000  1
 Si  Si4  1  0.11488  0.61488  0.00000  1
 U  U1  1  0.81571  0.68429  0.50000  1
 U  U2  1  0.31571  0.81571  0.50000  1
 U  U3  1  0.18429  0.31571  0.50000  1
 U  U4  1  0.68429  0.18429  0.50000  1
 U  U5  1  0.50000  0.50000  0.00000  1
 U  U6  1  0.00000  0.00000  0.00000  1
