CIF file written using JARVIS-Tools package.
data_In3AsSe3
_symmetry_space_group_name_H-M  'Pmn2_1'
_cell_length_a       4.20984
_cell_length_b       5.96565
_cell_length_c       16.7543
_cell_angle_alpha    90
_cell_angle_beta     90
_cell_angle_gamma    90

_symmetry_Int_Tables_number  31
_chemical_formula_structural  In3AsSe3
_chemical_formula_sum  In6As2Se6
_cell_volume  420.7754760134419
_cell_formula_units_Z  2
loop_
  _symmetry_equiv_pos_site_id
 _symmetry_equiv_pos_as_xyz
 1  'x, y, z'
loop_
 _atom_site_type_symbol
 _atom_site_label
 _atom_site_symmetry_multiplicity
 _atom_site_fract_x
 _atom_site_fract_y
 _atom_site_fract_z
 _atom_site_fract_occupancy
 As  As1  1  0.00000  0.75065  0.43290  1
 As  As2  1  0.50000  0.25065  0.56710  1
 In  In1  1  0.50000  0.49641  0.93469  1
 In  In2  1  0.00000  0.99641  0.06531  1
 In  In3  1  0.00000  0.99417  0.29951  1
 In  In4  1  0.50000  0.48576  0.43301  1
 In  In5  1  0.00000  0.98576  0.56699  1
 In  In6  1  0.50000  0.49417  0.70049  1
 Se  Se1  1  0.50000  0.22017  0.81811  1
 Se  Se2  1  0.00000  0.77809  0.92677  1
 Se  Se3  1  0.50000  0.27809  0.07323  1
 Se  Se4  1  0.00000  0.72017  0.18189  1
 Se  Se5  1  0.50000  0.27473  0.29388  1
 Se  Se6  1  0.00000  0.77473  0.70612  1
