CIF file written using JARVIS-Tools package.
data_C
_symmetry_space_group_name_H-M  'R-3m'
_cell_length_a       9.77255
_cell_length_b       3.63646
_cell_length_c       5.03931
_cell_angle_alpha    152.613
_cell_angle_beta     165.843
_cell_angle_gamma    23.691

_symmetry_Int_Tables_number  166
_chemical_formula_structural  C
_chemical_formula_sum  C2
_cell_volume  17.59866016948323
_cell_formula_units_Z  2
loop_
  _symmetry_equiv_pos_site_id
 _symmetry_equiv_pos_as_xyz
 1  'x, y, z'
loop_
 _atom_site_type_symbol
 _atom_site_label
 _atom_site_symmetry_multiplicity
 _atom_site_fract_x
 _atom_site_fract_y
 _atom_site_fract_z
 _atom_site_fract_occupancy
 C  C1  1  0.83340  0.33302  -0.00000  1
 C  C2  1  0.16660  0.66698  0.00000  1
