CIF file written using JARVIS-Tools package.
data_CrN2
_symmetry_space_group_name_H-M  'Fd-3m'
_cell_length_a       11.5549
_cell_length_b       11.5549
_cell_length_c       11.5549
_cell_angle_alpha    60
_cell_angle_beta     60
_cell_angle_gamma    60

_symmetry_Int_Tables_number  227
_chemical_formula_structural  CrN2
_chemical_formula_sum  Cr8N6
_cell_volume  1090.8855477720342
_cell_formula_units_Z  8
loop_
  _symmetry_equiv_pos_site_id
 _symmetry_equiv_pos_as_xyz
 1  'x, y, z'
loop_
 _atom_site_type_symbol
 _atom_site_label
 _atom_site_symmetry_multiplicity
 _atom_site_fract_x
 _atom_site_fract_y
 _atom_site_fract_z
 _atom_site_fract_occupancy
 Cr  Cr1  1  0.43583  0.69251  0.43583  1
 Cr  Cr2  1  0.43583  0.43583  0.43583  1
 Cr  Cr3  1  0.43583  0.43583  0.69251  1
 Cr  Cr4  1  0.69251  0.43583  0.43583  1
 Cr  Cr5  1  0.31417  0.05749  0.31417  1
 Cr  Cr6  1  0.31417  0.31417  0.31417  1
 Cr  Cr7  1  0.31417  0.31417  0.05749  1
 Cr  Cr8  1  0.05749  0.31417  0.31417  1
 N  N1  1  0.37895  0.37895  0.62105  1
 N  N2  1  0.37895  0.62105  0.62105  1
 N  N3  1  0.37895  0.62105  0.37895  1
 N  N4  1  0.37500  0.37500  0.87500  1
 N  N5  1  0.62105  0.37895  0.62105  1
 N  N6  1  0.62105  0.62105  0.37895  1
 N  N7  1  0.62105  0.37895  0.37895  1
 N  N8  1  0.12895  0.37105  0.12895  1
 N  N9  1  0.37105  0.12895  0.37105  1
 N  N10  1  0.12895  0.37105  0.37105  1
 N  N11  1  0.37105  0.37105  0.12895  1
 N  N12  1  0.12895  0.12895  0.37105  1
 N  N13  1  0.37500  0.87500  0.37500  1
 N  N14  1  0.37500  0.37500  0.37500  1
 N  N15  1  0.37105  0.12895  0.12895  1
 N  N16  1  0.87500  0.37500  0.37500  1
