CIF file written using JARVIS-Tools package.
data_Pb3O4
_symmetry_space_group_name_H-M  'Pbam'
_cell_length_a       3.48979
_cell_length_b       6.80177
_cell_length_c       10.0422
_cell_angle_alpha    89.9981
_cell_angle_beta     90.0057
_cell_angle_gamma    89.9952

_symmetry_Int_Tables_number  55
_chemical_formula_structural  Pb3O4
_chemical_formula_sum  Pb6O8
_cell_volume  238.36943226849417
_cell_formula_units_Z  2
loop_
  _symmetry_equiv_pos_site_id
 _symmetry_equiv_pos_as_xyz
 1  'x, y, z'
loop_
 _atom_site_type_symbol
 _atom_site_label
 _atom_site_symmetry_multiplicity
 _atom_site_fract_x
 _atom_site_fract_y
 _atom_site_fract_z
 _atom_site_fract_occupancy
 O  O1  1  0.49994  0.66899  0.91266  1
 O  O2  1  0.50000  0.33100  0.08735  1
 O  O3  1  0.50003  0.83100  0.41265  1
 O  O4  1  0.50002  0.16899  0.58733  1
 O  O5  1  0.00001  0.64668  0.19416  1
 O  O6  1  0.00012  0.85333  0.69415  1
 O  O7  1  -0.00006  0.14667  0.30584  1
 O  O8  1  -0.00006  0.35332  0.80585  1
 Pb  Pb1  1  0.49981  0.52081  0.68880  1
 Pb  Pb2  1  0.49990  0.97921  0.18878  1
 Pb  Pb3  1  -0.00003  0.50000  0.00000  1
 Pb  Pb4  1  0.50019  0.02081  0.81120  1
 Pb  Pb5  1  0.50011  0.47921  0.31122  1
 Pb  Pb6  1  0.00003  -0.00001  0.49999  1
