CIF file written using JARVIS-Tools package.
data_CeAlCo
_symmetry_space_group_name_H-M  'C2/m'
_cell_length_a       4.43627
_cell_length_b       4.74547
_cell_length_c       5.95642
_cell_angle_alpha    104.723
_cell_angle_beta     111.863
_cell_angle_gamma    90

_symmetry_Int_Tables_number  12
_chemical_formula_structural  CeAlCo
_chemical_formula_sum  Ce2Al2Co2
_cell_volume  111.92759338603351
_cell_formula_units_Z  2
loop_
  _symmetry_equiv_pos_site_id
 _symmetry_equiv_pos_as_xyz
 1  'x, y, z'
loop_
 _atom_site_type_symbol
 _atom_site_label
 _atom_site_symmetry_multiplicity
 _atom_site_fract_x
 _atom_site_fract_y
 _atom_site_fract_z
 _atom_site_fract_occupancy
 Al  Al1  1  0.58604  0.81554  0.17207  1
 Al  Al2  1  0.41396  0.18446  0.82793  1
 Ce  Ce1  1  0.86865  0.67009  0.73731  1
 Ce  Ce2  1  0.13135  0.32991  0.26269  1
 Co  Co1  1  0.18949  0.84062  0.37898  1
 Co  Co2  1  0.81051  0.15938  0.62102  1
