CIF file written using JARVIS-Tools package.
data_LiNd2IrO6
_symmetry_space_group_name_H-M  'P2_1/c'
_cell_length_a       5.42936
_cell_length_b       5.81186
_cell_length_c       9.41022
_cell_angle_alpha    90
_cell_angle_beta     124.652
_cell_angle_gamma    90

_symmetry_Int_Tables_number  14
_chemical_formula_structural  LiNd2IrO6
_chemical_formula_sum  Li2Nd4Ir2O2
_cell_volume  244.26518902098684
_cell_formula_units_Z  2
loop_
  _symmetry_equiv_pos_site_id
 _symmetry_equiv_pos_as_xyz
 1  'x, y, z'
loop_
 _atom_site_type_symbol
 _atom_site_label
 _atom_site_symmetry_multiplicity
 _atom_site_fract_x
 _atom_site_fract_y
 _atom_site_fract_z
 _atom_site_fract_occupancy
 Ir  Ir1  1  0.50000  0.50000  0.00000  1
 Ir  Ir2  1  0.50000  0.00000  0.50000  1
 Li  Li1  1  0.00000  0.00000  0.00000  1
 Li  Li2  1  -0.00000  0.50000  0.50000  1
 Nd  Nd1  1  0.76924  0.07238  0.25138  1
 Nd  Nd2  1  0.23076  0.57238  0.24862  1
 Nd  Nd3  1  0.76924  0.42762  0.75138  1
 Nd  Nd4  1  0.23076  0.92762  0.74862  1
 O  O1  1  0.26750  0.29017  0.44990  1
 O  O2  1  0.65399  0.47414  0.24798  1
 O  O3  1  0.73250  0.70983  0.55010  1
 O  O4  1  0.26750  0.20983  0.94990  1
 O  O5  1  0.73250  0.79017  0.05010  1
 O  O6  1  0.15237  0.68997  0.95275  1
 O  O7  1  0.84763  0.31003  0.04725  1
 O  O8  1  0.15237  0.81003  0.45275  1
 O  O9  1  0.65399  0.02586  0.74798  1
 O  O10  1  0.84763  0.18997  0.54725  1
 O  O11  1  0.34601  0.52586  0.75202  1
 O  O12  1  0.34601  0.97414  0.25202  1
