CIF file written using JARVIS-Tools package.
data_BaBe2Si2O7
_symmetry_space_group_name_H-M  'Pmn2_1'
_cell_length_a       4.70485
_cell_length_b       4.9543
_cell_length_c       11.729
_cell_angle_alpha    90
_cell_angle_beta     90
_cell_angle_gamma    90

_symmetry_Int_Tables_number  31
_chemical_formula_structural  BaBe2Si2O7
_chemical_formula_sum  Ba2Be4Si4O4
_cell_volume  273.3933171346145
_cell_formula_units_Z  2
loop_
  _symmetry_equiv_pos_site_id
 _symmetry_equiv_pos_as_xyz
 1  'x, y, z'
loop_
 _atom_site_type_symbol
 _atom_site_label
 _atom_site_symmetry_multiplicity
 _atom_site_fract_x
 _atom_site_fract_y
 _atom_site_fract_z
 _atom_site_fract_occupancy
 Ba  Ba1  1  0.00744  0.20206  0.00000  1
 Ba  Ba2  1  0.50744  0.79794  0.50000  1
 Be  Be1  1  0.51804  0.16859  0.25075  1
 Be  Be2  1  0.01804  0.83141  0.24925  1
 Be  Be3  1  0.51804  0.16859  0.74925  1
 Be  Be4  1  0.01804  0.83141  0.75075  1
 O  O1  1  0.41956  0.77731  0.00000  1
 O  O2  1  0.86890  0.13433  0.27593  1
 O  O3  1  0.37207  0.27166  0.63309  1
 O  O4  1  0.87207  0.72834  0.86691  1
 O  O5  1  0.37207  0.27166  0.36691  1
 O  O6  1  0.91956  0.22269  0.50000  1
 O  O7  1  0.96168  0.64658  0.63867  1
 O  O8  1  0.46168  0.35342  0.86133  1
 O  O9  1  0.36890  0.86567  0.77593  1
 O  O10  1  0.96168  0.64658  0.36133  1
 O  O11  1  0.87207  0.72834  0.13309  1
 O  O12  1  0.86890  0.13433  0.72407  1
 O  O13  1  0.46168  0.35342  0.13867  1
 O  O14  1  0.36890  0.86567  0.22407  1
 Si  Si1  1  0.03101  0.32581  0.62859  1
 Si  Si2  1  0.53101  0.67419  0.87141  1
 Si  Si3  1  0.53101  0.67419  0.12859  1
 Si  Si4  1  0.03101  0.32581  0.37141  1
