CIF file written using JARVIS-Tools package.
data_DyFeC2
_symmetry_space_group_name_H-M  'Amm2'
_cell_length_a       3.61569
_cell_length_b       3.73059
_cell_length_c       3.73059
_cell_angle_alpha    105.247
_cell_angle_beta     90
_cell_angle_gamma    90

_symmetry_Int_Tables_number  38
_chemical_formula_structural  DyFeC2
_chemical_formula_sum  DyFeC2
_cell_volume  48.549387403999994
_cell_formula_units_Z  1
loop_
  _symmetry_equiv_pos_site_id
 _symmetry_equiv_pos_as_xyz
 1  'x, y, z'
loop_
 _atom_site_type_symbol
 _atom_site_label
 _atom_site_symmetry_multiplicity
 _atom_site_fract_x
 _atom_site_fract_y
 _atom_site_fract_z
 _atom_site_fract_occupancy
 C  C1  1  0.50000  0.85513  0.45307  1
 C  C2  1  0.50000  0.54693  0.14487  1
 Dy  Dy1  1  0.00000  0.99693  0.00307  1
 Fe  Fe1  1  0.50000  0.38601  0.61399  1
