CIF file written using JARVIS-Tools package.
data_Li2MnFeB2O6
_symmetry_space_group_name_H-M  'P1'
_cell_length_a       5.18517
_cell_length_b       5.17395
_cell_length_c       10.1201
_cell_angle_alpha    89.3283
_cell_angle_beta     89.8834
_cell_angle_gamma    119.923

_symmetry_Int_Tables_number  1
_chemical_formula_structural  Li2MnFeB2O6
_chemical_formula_sum  Li4Mn2Fe2B4O2
_cell_volume  235.2833737399377
_cell_formula_units_Z  2
loop_
  _symmetry_equiv_pos_site_id
 _symmetry_equiv_pos_as_xyz
 1  'x, y, z'
loop_
 _atom_site_type_symbol
 _atom_site_label
 _atom_site_symmetry_multiplicity
 _atom_site_fract_x
 _atom_site_fract_y
 _atom_site_fract_z
 _atom_site_fract_occupancy
 B  B1  1  0.70031  0.02843  0.37476  1
 B  B2  1  0.97279  0.30942  0.12871  1
 B  B3  1  -0.01086  0.65821  0.88033  1
 B  B4  1  0.34788  0.01093  0.62189  1
 Fe  Fe1  1  0.03943  0.70095  0.36586  1
 Fe  Fe2  1  0.29652  -0.03116  0.14700  1
 Li  Li1  1  0.68557  0.66448  0.66266  1
 Li  Li2  1  0.32231  0.33217  0.91949  1
 Li  Li3  1  0.37421  0.35999  0.41611  1
 Li  Li4  1  0.63170  0.65082  0.16799  1
 Mn  Mn1  1  0.65049  -0.00894  0.88425  1
 Mn  Mn2  1  0.01418  0.34182  0.63246  1
 O  O1  1  0.58787  0.97932  0.66173  1
 O  O2  1  0.24822  0.32930  0.12303  1
 O  O3  1  0.37736  0.29064  0.61045  1
 O  O4  1  0.68132  0.75426  0.36130  1
 O  O5  1  0.71415  0.63428  0.86367  1
 O  O6  1  0.94730  0.55858  0.15766  1
 O  O7  1  0.71399  0.04189  0.10242  1
 O  O8  1  0.96420  0.28254  0.40702  1
 O  O9  1  0.23202  0.92353  0.92069  1
 O  O10  1  0.02469  0.41370  0.85118  1
 O  O11  1  0.44790  0.05512  0.35188  1
 O  O12  1  0.07704  0.76030  0.59128  1
