CIF file written using JARVIS-Tools package.
data_Te3MoWSe
_symmetry_space_group_name_H-M  'Cm'
_cell_length_a       3.50926
_cell_length_b       3.50827
_cell_length_c       34.269
_cell_angle_alpha    89.9351
_cell_angle_beta     90
_cell_angle_gamma    120.009

_symmetry_Int_Tables_number  8
_chemical_formula_structural  Te3MoWSe
_chemical_formula_sum  Te6Mo2W2Se2
_cell_volume  365.3437858752876
_cell_formula_units_Z  2
loop_
  _symmetry_equiv_pos_site_id
 _symmetry_equiv_pos_as_xyz
 1  'x, y, z'
loop_
 _atom_site_type_symbol
 _atom_site_label
 _atom_site_symmetry_multiplicity
 _atom_site_fract_x
 _atom_site_fract_y
 _atom_site_fract_z
 _atom_site_fract_occupancy
 Mo  Mo1  1  0.33258  0.66515  0.47129  1
 Mo  Mo2  1  0.66668  0.33336  0.27343  1
 Se  Se1  1  0.33280  0.66559  0.32060  1
 Se  Se2  1  0.33392  0.66784  0.22629  1
 Te  Te1  1  0.33317  0.66633  0.73589  1
 Te  Te2  1  0.66786  0.33572  0.02232  1
 Te  Te3  1  0.66608  0.33216  0.41782  1
 Te  Te4  1  0.66656  0.33312  0.12968  1
 Te  Te5  1  0.66542  0.33084  0.52479  1
 Te  Te6  1  0.33449  0.66899  0.62846  1
 W  W1  1  0.33356  0.66712  0.07596  1
 W  W2  1  0.66689  0.33377  0.68224  1
