CIF file written using JARVIS-Tools package.
data_Rb2PdI2Br4
_symmetry_space_group_name_H-M  'I4/mmm'
_cell_length_a       7.33482
_cell_length_b       7.33482
_cell_length_c       7.33483
_cell_angle_alpha    105.761
_cell_angle_beta     111.358
_cell_angle_gamma    111.357

_symmetry_Int_Tables_number  139
_chemical_formula_structural  Rb2PdI2Br4
_chemical_formula_sum  Rb2PdI2Br4
_cell_volume  302.82396199636077
_cell_formula_units_Z  1
loop_
  _symmetry_equiv_pos_site_id
 _symmetry_equiv_pos_as_xyz
 1  'x, y, z'
loop_
 _atom_site_type_symbol
 _atom_site_label
 _atom_site_symmetry_multiplicity
 _atom_site_fract_x
 _atom_site_fract_y
 _atom_site_fract_z
 _atom_site_fract_occupancy
 Br  Br1  1  -0.00000  0.78783  0.21217  1
 Br  Br2  1  0.57566  0.78783  0.78783  1
 Br  Br3  1  0.00000  0.21217  0.78783  1
 Br  Br4  1  0.42434  0.21217  0.21217  1
 I  I1  1  0.00000  0.33200  0.33200  1
 I  I2  1  -0.00000  0.66800  0.66800  1
 Pd  Pd1  1  0.00000  0.00000  0.00000  1
 Rb  Rb1  1  0.50000  0.25000  0.75000  1
 Rb  Rb2  1  0.50000  0.75000  0.25000  1
