CIF file written using JARVIS-Tools package.
data_Ta2CrNO5
_symmetry_space_group_name_H-M  'Cm'
_cell_length_a       4.74708
_cell_length_b       4.74708
_cell_length_c       9.03471
_cell_angle_alpha    89.9074
_cell_angle_beta     90.0926
_cell_angle_gamma    89.8185

_symmetry_Int_Tables_number  8
_chemical_formula_structural  Ta2CrNO5
_chemical_formula_sum  Ta4Cr2N2O0
_cell_volume  203.5935328391725
_cell_formula_units_Z  2
loop_
  _symmetry_equiv_pos_site_id
 _symmetry_equiv_pos_as_xyz
 1  'x, y, z'
loop_
 _atom_site_type_symbol
 _atom_site_label
 _atom_site_symmetry_multiplicity
 _atom_site_fract_x
 _atom_site_fract_y
 _atom_site_fract_z
 _atom_site_fract_occupancy
 Cr  Cr1  1  0.00335  0.99665  0.99348  1
 Cr  Cr2  1  0.51657  0.48343  0.49893  1
 N  N1  1  0.19854  0.80146  0.84419  1
 N  N2  1  0.79380  0.20620  0.49839  1
 O  O1  1  0.70046  0.69596  0.66328  1
 O  O2  1  0.80232  0.19768  0.16630  1
 O  O3  1  0.19941  0.80059  0.16246  1
 O  O4  1  0.30346  0.30260  0.33253  1
 O  O5  1  0.19847  0.80153  0.49945  1
 O  O6  1  0.30523  0.29971  0.00105  1
 O  O7  1  0.80030  0.19970  0.83616  1
 O  O8  1  0.69740  0.69654  0.33253  1
 O  O9  1  0.30404  0.29954  0.66328  1
 O  O10  1  0.70029  0.69477  0.00105  1
 Ta  Ta1  1  0.48650  0.51350  0.82661  1
 Ta  Ta2  1  0.49684  0.50316  0.16712  1
 Ta  Ta3  1  0.00058  -0.00058  0.67398  1
 Ta  Ta4  1  0.99241  0.00759  0.33919  1
