CIF file written using JARVIS-Tools package.
data_Ti2VSe4
_symmetry_space_group_name_H-M  'C2/m'
_cell_length_a       3.55665
_cell_length_b       6.35846
_cell_length_c       6.99421
_cell_angle_alpha    116.109
_cell_angle_beta     104.73
_cell_angle_gamma    90

_symmetry_Int_Tables_number  12
_chemical_formula_structural  Ti2VSe4
_chemical_formula_sum  Ti2VSe4
_cell_volume  136.21968267801404
_cell_formula_units_Z  1
loop_
  _symmetry_equiv_pos_site_id
 _symmetry_equiv_pos_as_xyz
 1  'x, y, z'
loop_
 _atom_site_type_symbol
 _atom_site_label
 _atom_site_symmetry_multiplicity
 _atom_site_fract_x
 _atom_site_fract_y
 _atom_site_fract_z
 _atom_site_fract_occupancy
 Se  Se1  1  0.11246  0.44849  0.22493  1
 Se  Se2  1  0.88754  0.55151  0.77507  1
 Se  Se3  1  0.36919  0.03435  0.73839  1
 Se  Se4  1  0.63081  0.96565  0.26161  1
 Ti  Ti1  1  0.25323  0.28752  0.50646  1
 Ti  Ti2  1  0.74677  0.71248  0.49354  1
 V  V1  1  0.00000  0.00000  0.00000  1
