CIF file written using JARVIS-Tools package.
data_K7TaS6O24
_symmetry_space_group_name_H-M  'R-3'
_cell_length_a       9.30724
_cell_length_b       9.30724
_cell_length_c       9.30724
_cell_angle_alpha    109.662
_cell_angle_beta     109.662
_cell_angle_gamma    109.662

_symmetry_Int_Tables_number  148
_chemical_formula_structural  K7TaS6O24
_chemical_formula_sum  K7TaS6O24
_cell_volume  616.2200099653719
_cell_formula_units_Z  1
loop_
  _symmetry_equiv_pos_site_id
 _symmetry_equiv_pos_as_xyz
 1  'x, y, z'
loop_
 _atom_site_type_symbol
 _atom_site_label
 _atom_site_symmetry_multiplicity
 _atom_site_fract_x
 _atom_site_fract_y
 _atom_site_fract_z
 _atom_site_fract_occupancy
 K  K1  1  0.68125  0.83672  0.33792  1
 K  K2  1  0.33792  0.68125  0.83672  1
 K  K3  1  0.83672  0.33792  0.68125  1
 K  K4  1  0.31875  0.16328  0.66208  1
 K  K5  1  0.66208  0.31875  0.16328  1
 K  K6  1  0.16328  0.66208  0.31875  1
 K  K7  1  0.50000  0.50000  0.50000  1
 O  O1  1  0.90745  0.16764  0.42991  1
 O  O2  1  0.16764  0.42991  0.90745  1
 O  O3  1  0.68991  0.01600  0.64053  1
 O  O4  1  0.01600  0.64053  0.68991  1
 O  O5  1  0.64053  0.68991  0.01600  1
 O  O6  1  0.31009  0.98400  0.35947  1
 O  O7  1  0.23794  0.02650  0.10557  1
 O  O8  1  0.35947  0.31009  0.98400  1
 O  O9  1  0.42991  0.90745  0.16764  1
 O  O10  1  0.02650  0.10557  0.23794  1
 O  O11  1  0.36078  0.53270  0.21617  1
 O  O12  1  0.21617  0.36078  0.53270  1
 O  O13  1  0.98400  0.35947  0.31009  1
 O  O14  1  0.83236  0.57009  0.09255  1
 O  O15  1  0.89443  0.76206  0.97350  1
 O  O16  1  0.53270  0.21617  0.36078  1
 O  O17  1  0.57009  0.09255  0.83236  1
 O  O18  1  0.63922  0.46730  0.78383  1
 O  O19  1  0.97350  0.89443  0.76206  1
 O  O20  1  0.76206  0.97350  0.89443  1
 O  O21  1  0.10557  0.23794  0.02650  1
 O  O22  1  0.46730  0.78383  0.63922  1
 O  O23  1  0.09255  0.83236  0.57009  1
 O  O24  1  0.78383  0.63922  0.46730  1
 S  S1  1  0.96746  0.74285  0.61465  1
 S  S2  1  0.61465  0.96746  0.74285  1
 S  S3  1  0.03254  0.25715  0.38535  1
 S  S4  1  0.25715  0.38535  0.03254  1
 S  S5  1  0.38535  0.03254  0.25715  1
 S  S6  1  0.74285  0.61465  0.96746  1
 Ta  Ta1  1  0.00000  0.00000  0.00000  1
