CIF file written using JARVIS-Tools package.
data_VFeO4
_symmetry_space_group_name_H-M  'Imma'
_cell_length_a       5.29591
_cell_length_b       5.29591
_cell_length_c       5.29591
_cell_angle_alpha    107.153
_cell_angle_beta     115.42
_cell_angle_gamma    106.011

_symmetry_Int_Tables_number  74
_chemical_formula_structural  VFeO4
_chemical_formula_sum  V2Fe2O8
_cell_volume  113.39626274846933
_cell_formula_units_Z  2
loop_
  _symmetry_equiv_pos_site_id
 _symmetry_equiv_pos_as_xyz
 1  'x, y, z'
loop_
 _atom_site_type_symbol
 _atom_site_label
 _atom_site_symmetry_multiplicity
 _atom_site_fract_x
 _atom_site_fract_y
 _atom_site_fract_z
 _atom_site_fract_occupancy
 Fe  Fe1  1  0.00000  0.00000  0.00000  1
 Fe  Fe2  1  0.50000  -0.00000  0.50000  1
 O  O1  1  0.24769  0.19450  0.44681  1
 O  O2  1  0.20466  0.70108  0.50358  1
 O  O3  1  0.69750  0.70108  0.99642  1
 O  O4  1  0.75231  0.19912  0.94681  1
 O  O5  1  0.24769  0.80088  0.05319  1
 O  O6  1  0.30250  0.29892  0.00358  1
 O  O7  1  0.79534  0.29892  0.49642  1
 O  O8  1  0.75231  0.80550  0.55319  1
 V  V1  1  0.26854  0.51854  0.75000  1
 V  V2  1  0.73146  0.48146  0.25000  1
