CIF file written using JARVIS-Tools package.
data_Te4MoW
_symmetry_space_group_name_H-M  'P-3m1'
_cell_length_a       3.56912
_cell_length_b       3.56919
_cell_length_c       38.0114
_cell_angle_alpha    90.0004
_cell_angle_beta     90
_cell_angle_gamma    119.999

_symmetry_Int_Tables_number  164
_chemical_formula_structural  Te4MoW
_chemical_formula_sum  Te8Mo2W2
_cell_volume  419.3504517233496
_cell_formula_units_Z  2
loop_
  _symmetry_equiv_pos_site_id
 _symmetry_equiv_pos_as_xyz
 1  'x, y, z'
loop_
 _atom_site_type_symbol
 _atom_site_label
 _atom_site_symmetry_multiplicity
 _atom_site_fract_x
 _atom_site_fract_y
 _atom_site_fract_z
 _atom_site_fract_occupancy
 Mo  Mo1  1  0.33333  0.66667  0.46938  1
 Mo  Mo2  1  0.66667  0.33333  0.28208  1
 Te  Te1  1  0.33334  0.66668  0.32974  1
 Te  Te2  1  0.33335  0.66670  0.70474  1
 Te  Te3  1  0.66665  0.33330  0.04672  1
 Te  Te4  1  0.66666  0.33332  0.42171  1
 Te  Te5  1  0.66666  0.33332  0.14232  1
 Te  Te6  1  0.66666  0.33333  0.51704  1
 Te  Te7  1  0.33334  0.66667  0.23442  1
 Te  Te8  1  0.33334  0.66668  0.60914  1
 W  W1  1  0.33332  0.66665  0.09447  1
 W  W2  1  0.66668  0.33335  0.65699  1
