CIF file written using JARVIS-Tools package.
data_LiReO3
_symmetry_space_group_name_H-M  'R3c'
_cell_length_a       5.40788
_cell_length_b       5.40788
_cell_length_c       5.40787
_cell_angle_alpha    56.2817
_cell_angle_beta     56.2816
_cell_angle_gamma    56.2816

_symmetry_Int_Tables_number  161
_chemical_formula_structural  LiReO3
_chemical_formula_sum  Li2Re2O6
_cell_volume  102.21037228849445
_cell_formula_units_Z  2
loop_
  _symmetry_equiv_pos_site_id
 _symmetry_equiv_pos_as_xyz
 1  'x, y, z'
loop_
 _atom_site_type_symbol
 _atom_site_label
 _atom_site_symmetry_multiplicity
 _atom_site_fract_x
 _atom_site_fract_y
 _atom_site_fract_z
 _atom_site_fract_occupancy
 Li  Li1  1  0.78127  0.78127  0.78127  1
 Li  Li2  1  0.28127  0.28127  0.28127  1
 O  O1  1  0.73962  0.12452  0.36803  1
 O  O2  1  0.36803  0.73962  0.12452  1
 O  O3  1  0.86803  0.62452  0.23962  1
 O  O4  1  0.23962  0.86803  0.62452  1
 O  O5  1  0.62452  0.23962  0.86803  1
 O  O6  1  0.12452  0.36803  0.73962  1
 Re  Re1  1  0.49755  0.49755  0.49755  1
 Re  Re2  1  0.99755  0.99755  0.99755  1
