data_image0
_chemical_formula_structural       As4Ta5
_chemical_formula_sum              "As4 Ta5"
_cell_length_a       3.44207
_cell_length_b       7.20348
_cell_length_c       7.20348
_cell_angle_alpha    93.2723
_cell_angle_beta     103.823
_cell_angle_gamma    76.1773

_space_group_name_H-M_alt    "P 1"
_space_group_IT_number       1

loop_
  _space_group_symop_operation_xyz
  'x, y, z'

loop_
  _atom_site_type_symbol
  _atom_site_label
  _atom_site_symmetry_multiplicity
  _atom_site_fract_x
  _atom_site_fract_y
  _atom_site_fract_z
  _atom_site_occupancy
  As  As1       1.0  0.94800  0.33700  0.23300  1.0000
  As  As2       1.0  0.28500  0.76700  0.33700  1.0000
  As  As3       1.0  0.71500  0.23300  0.66300  1.0000
  As  As4       1.0  0.05180  0.66300  0.76700  1.0000
  Ta  Ta1       1.0  0.00000  0.00000  0.00000  1.0000
  Ta  Ta2       1.0  0.69400  0.67400  0.06240  1.0000
  Ta  Ta3       1.0  0.63200  0.06240  0.32600  1.0000
  Ta  Ta4       1.0  0.36800  0.93800  0.67400  1.0000
  Ta  Ta5       1.0  0.30600  0.32600  0.93800  1.0000
