CIF file written using JARVIS-Tools package.
data_Li4Mn3FeB4O12
_symmetry_space_group_name_H-M  'P1'
_cell_length_a       5.22107
_cell_length_b       5.92427
_cell_length_c       8.94376
_cell_angle_alpha    103.524
_cell_angle_beta     90.3937
_cell_angle_gamma    114.12

_symmetry_Int_Tables_number  1
_chemical_formula_structural  Li4Mn3FeB4O12
_chemical_formula_sum  Li4Mn3FeB4O2
_cell_volume  243.8438348263626
_cell_formula_units_Z  1
loop_
  _symmetry_equiv_pos_site_id
 _symmetry_equiv_pos_as_xyz
 1  'x, y, z'
loop_
 _atom_site_type_symbol
 _atom_site_label
 _atom_site_symmetry_multiplicity
 _atom_site_fract_x
 _atom_site_fract_y
 _atom_site_fract_z
 _atom_site_fract_occupancy
 B  B1  1  0.94437  0.74078  0.86803  1
 B  B2  1  0.55279  0.25799  0.63017  1
 B  B3  1  0.44891  0.74135  0.37197  1
 B  B4  1  0.05396  0.26018  0.12966  1
 Fe  Fe1  1  0.45456  0.76637  0.70711  1
 Li  Li1  1  0.58494  0.31563  0.96497  1
 Li  Li2  1  0.41336  0.68219  0.03332  1
 Li  Li3  1  0.91287  0.68076  0.53571  1
 Li  Li4  1  0.09003  0.32041  0.46643  1
 Mn  Mn1  1  0.95527  0.76333  0.20612  1
 Mn  Mn2  1  0.54586  0.23663  0.29516  1
 Mn  Mn3  1  0.04237  0.23468  0.79142  1
 O  O1  1  0.68486  0.68896  0.36995  1
 O  O2  1  0.86299  0.81570  0.74532  1
 O  O3  1  0.22300  0.29834  0.01187  1
 O  O4  1  0.77790  0.70158  0.98654  1
 O  O5  1  0.12719  0.18050  0.25264  1
 O  O6  1  0.72641  0.29654  0.51415  1
 O  O7  1  0.81632  0.31040  0.13119  1
 O  O8  1  0.62328  0.17708  0.75332  1
 O  O9  1  0.28215  0.70690  0.49133  1
 O  O10  1  0.18687  0.69658  0.86547  1
 O  O11  1  0.31616  0.30859  0.62971  1
 O  O12  1  0.37357  0.81852  0.24843  1
