CIF file written using JARVIS-Tools package.
data_Te2MoW3S6
_symmetry_space_group_name_H-M  'P3m1'
_cell_length_a       3.27501
_cell_length_b       3.27501
_cell_length_c       37.2309
_cell_angle_alpha    90
_cell_angle_beta     90
_cell_angle_gamma    120

_symmetry_Int_Tables_number  156
_chemical_formula_structural  Te2MoW3S6
_chemical_formula_sum  Te2MoW3S6
_cell_volume  345.8276595048219
_cell_formula_units_Z  1
loop_
  _symmetry_equiv_pos_site_id
 _symmetry_equiv_pos_as_xyz
 1  'x, y, z'
loop_
 _atom_site_type_symbol
 _atom_site_label
 _atom_site_symmetry_multiplicity
 _atom_site_fract_x
 _atom_site_fract_y
 _atom_site_fract_z
 _atom_site_fract_occupancy
 Mo  Mo1  1  0.66670  0.33341  0.28175  1
 S  S1  1  0.33335  0.66670  0.32308  1
 S  S2  1  0.33335  0.66671  0.69907  1
 S  S3  1  0.66665  0.33330  0.05243  1
 S  S4  1  0.66665  0.33329  0.13545  1
 S  S5  1  0.33335  0.66670  0.24044  1
 S  S6  1  0.33335  0.66671  0.61608  1
 Te  Te1  1  0.66664  0.33327  0.41751  1
 Te  Te2  1  0.66664  0.33328  0.52176  1
 W  W1  1  0.33331  0.66662  0.09393  1
 W  W2  1  0.33331  0.66662  0.46965  1
 W  W3  1  0.66669  0.33338  0.65760  1
