CIF file written using JARVIS-Tools package.
data_MoWSe2S2
_symmetry_space_group_name_H-M  'P-3m1'
_cell_length_a       3.256
_cell_length_b       3.25601
_cell_length_c       34.0275
_cell_angle_alpha    89.9988
_cell_angle_beta     90
_cell_angle_gamma    120

_symmetry_Int_Tables_number  164
_chemical_formula_structural  MoWSe2S2
_chemical_formula_sum  Mo2W2Se4S4
_cell_volume  312.4144330313976
_cell_formula_units_Z  2
loop_
  _symmetry_equiv_pos_site_id
 _symmetry_equiv_pos_as_xyz
 1  'x, y, z'
loop_
 _atom_site_type_symbol
 _atom_site_label
 _atom_site_symmetry_multiplicity
 _atom_site_fract_x
 _atom_site_fract_y
 _atom_site_fract_z
 _atom_site_fract_occupancy
 Mo  Mo1  1  0.33351  0.66701  0.47345  1
 Mo  Mo2  1  0.66649  0.33299  0.27801  1
 S  S1  1  0.33339  0.66678  0.70827  1
 S  S2  1  0.66661  0.33322  0.04318  1
 S  S3  1  0.66661  0.33321  0.13450  1
 S  S4  1  0.33339  0.66679  0.61696  1
 Se  Se1  1  0.33316  0.66632  0.32794  1
 Se  Se2  1  0.66684  0.33368  0.42352  1
 Se  Se3  1  0.66683  0.33367  0.52336  1
 Se  Se4  1  0.33317  0.66633  0.22809  1
 W  W1  1  0.33328  0.66656  0.08882  1
 W  W2  1  0.66672  0.33344  0.66264  1
