CIF file written using JARVIS-Tools package.
data_LiPr2IrO6
_symmetry_space_group_name_H-M  'P2_1/c'
_cell_length_a       5.47584
_cell_length_b       5.7901
_cell_length_c       9.49184
_cell_angle_alpha    90
_cell_angle_beta     124.744
_cell_angle_gamma    90

_symmetry_Int_Tables_number  14
_chemical_formula_structural  LiPr2IrO6
_chemical_formula_sum  Li2Pr4Ir2O2
_cell_volume  247.28908847192335
_cell_formula_units_Z  2
loop_
  _symmetry_equiv_pos_site_id
 _symmetry_equiv_pos_as_xyz
 1  'x, y, z'
loop_
 _atom_site_type_symbol
 _atom_site_label
 _atom_site_symmetry_multiplicity
 _atom_site_fract_x
 _atom_site_fract_y
 _atom_site_fract_z
 _atom_site_fract_occupancy
 Ir  Ir1  1  0.50000  0.50000  0.00000  1
 Ir  Ir2  1  0.50000  0.00000  0.50000  1
 Li  Li1  1  0.00000  0.00000  0.00000  1
 Li  Li2  1  0.00000  0.50000  0.50000  1
 O  O1  1  0.26528  0.28824  0.45245  1
 O  O2  1  0.65909  0.47765  0.24729  1
 O  O3  1  0.73472  0.71176  0.54755  1
 O  O4  1  0.26528  0.21176  0.95245  1
 O  O5  1  0.73472  0.78824  0.04755  1
 O  O6  1  0.34091  0.52235  0.75271  1
 O  O7  1  0.84147  0.30689  0.04518  1
 O  O8  1  0.15853  0.69311  0.95482  1
 O  O9  1  0.65909  0.02235  0.74729  1
 O  O10  1  0.84147  0.19311  0.54518  1
 O  O11  1  0.15853  0.80689  0.45482  1
 O  O12  1  0.34091  0.97765  0.25271  1
 Pr  Pr1  1  0.23298  0.93290  0.74866  1
 Pr  Pr2  1  0.76702  0.43290  0.75134  1
 Pr  Pr3  1  0.23298  0.56710  0.24866  1
 Pr  Pr4  1  0.76702  0.06710  0.25134  1
