CIF file written using JARVIS-Tools package.
data_ZnSb4O8
_symmetry_space_group_name_H-M  'R-3m'
_cell_length_a       6.22643
_cell_length_b       6.22643
_cell_length_c       6.22643
_cell_angle_alpha    67.3645
_cell_angle_beta     67.3644
_cell_angle_gamma    67.3645

_symmetry_Int_Tables_number  166
_chemical_formula_structural  ZnSb4O8
_chemical_formula_sum  ZnSb4O8
_cell_volume  197.53254473468115
_cell_formula_units_Z  1
loop_
  _symmetry_equiv_pos_site_id
 _symmetry_equiv_pos_as_xyz
 1  'x, y, z'
loop_
 _atom_site_type_symbol
 _atom_site_label
 _atom_site_symmetry_multiplicity
 _atom_site_fract_x
 _atom_site_fract_y
 _atom_site_fract_z
 _atom_site_fract_occupancy
 O  O1  1  0.74164  0.28082  0.74164  1
 O  O2  1  0.25836  0.25836  0.71918  1
 O  O3  1  0.25836  0.71918  0.25836  1
 O  O4  1  0.71918  0.25836  0.25836  1
 O  O5  1  0.26473  0.26473  0.26473  1
 O  O6  1  0.73527  0.73527  0.73527  1
 O  O7  1  0.28082  0.74164  0.74164  1
 O  O8  1  0.74164  0.74164  0.28082  1
 Sb  Sb1  1  0.50000  1.00000  0.50000  1
 Sb  Sb2  1  1.00000  0.50000  0.50000  1
 Sb  Sb3  1  0.50000  0.50000  0.00000  1
 Sb  Sb4  1  0.00000  0.00000  0.00000  1
 Zn  Zn1  1  0.50000  0.50000  0.50000  1
