CIF file written using JARVIS-Tools package.
data_CuSe
_symmetry_space_group_name_H-M  'P6_3/mmc'
_cell_length_a       3.95393
_cell_length_b       3.95394
_cell_length_c       17.2452
_cell_angle_alpha    90
_cell_angle_beta     90
_cell_angle_gamma    120

_symmetry_Int_Tables_number  194
_chemical_formula_structural  CuSe
_chemical_formula_sum  Cu6Se6
_cell_volume  233.48428060043383
_cell_formula_units_Z  6
loop_
  _symmetry_equiv_pos_site_id
 _symmetry_equiv_pos_as_xyz
 1  'x, y, z'
loop_
 _atom_site_type_symbol
 _atom_site_label
 _atom_site_symmetry_multiplicity
 _atom_site_fract_x
 _atom_site_fract_y
 _atom_site_fract_z
 _atom_site_fract_occupancy
 Cu  Cu1  1  0.33333  0.66667  0.95917  1
 Cu  Cu2  1  0.66667  0.33333  0.45917  1
 Cu  Cu3  1  0.33333  0.66667  0.54083  1
 Cu  Cu4  1  0.66667  0.33333  0.25000  1
 Cu  Cu5  1  0.33333  0.66667  0.75000  1
 Cu  Cu6  1  0.66667  0.33333  0.04083  1
 Se  Se1  1  0.00000  0.00000  0.40902  1
 Se  Se2  1  0.00000  0.00000  0.59098  1
 Se  Se3  1  0.00000  0.00000  0.09098  1
 Se  Se4  1  0.33333  0.66667  0.25000  1
 Se  Se5  1  0.00000  0.00000  0.90902  1
 Se  Se6  1  0.66667  0.33333  0.75000  1
