CIF file written using JARVIS-Tools package.
data_CeCu2Sb2
_symmetry_space_group_name_H-M  'P4/nmm'
_cell_length_a       4.70337
_cell_length_b       4.70337
_cell_length_c       9.90267
_cell_angle_alpha    90
_cell_angle_beta     90
_cell_angle_gamma    90

_symmetry_Int_Tables_number  129
_chemical_formula_structural  CeCu2Sb2
_chemical_formula_sum  Ce2Cu4Sb4
_cell_volume  219.06353444193292
_cell_formula_units_Z  2
loop_
  _symmetry_equiv_pos_site_id
 _symmetry_equiv_pos_as_xyz
 1  'x, y, z'
loop_
 _atom_site_type_symbol
 _atom_site_label
 _atom_site_symmetry_multiplicity
 _atom_site_fract_x
 _atom_site_fract_y
 _atom_site_fract_z
 _atom_site_fract_occupancy
 Ce  Ce1  1  0.00000  0.50000  0.75901  1
 Ce  Ce2  1  0.50000  0.00000  0.24099  1
 Cu  Cu1  1  0.50000  0.50000  0.00000  1
 Cu  Cu2  1  0.00000  0.00000  0.00000  1
 Cu  Cu3  1  0.00000  0.50000  0.37827  1
 Cu  Cu4  1  0.50000  0.00000  0.62173  1
 Sb  Sb1  1  0.00000  0.50000  0.12640  1
 Sb  Sb2  1  0.50000  0.00000  0.87360  1
 Sb  Sb3  1  0.50000  0.50000  0.50000  1
 Sb  Sb4  1  0.00000  0.00000  0.50000  1
