CIF file written using JARVIS-Tools package.
data_Ca2GeO4
_symmetry_space_group_name_H-M  'P-3m1'
_cell_length_a       5.76473
_cell_length_b       5.76473
_cell_length_c       6.85993
_cell_angle_alpha    90
_cell_angle_beta     90
_cell_angle_gamma    120

_symmetry_Int_Tables_number  164
_chemical_formula_structural  Ca2GeO4
_chemical_formula_sum  Ca4Ge2O8
_cell_volume  197.42788755448555
_cell_formula_units_Z  2
loop_
  _symmetry_equiv_pos_site_id
 _symmetry_equiv_pos_as_xyz
 1  'x, y, z'
loop_
 _atom_site_type_symbol
 _atom_site_label
 _atom_site_symmetry_multiplicity
 _atom_site_fract_x
 _atom_site_fract_y
 _atom_site_fract_z
 _atom_site_fract_occupancy
 Ca  Ca1  1  0.66667  0.33333  0.63181  1
 Ca  Ca2  1  0.33333  0.66667  0.36819  1
 Ca  Ca3  1  0.00000  0.00000  0.50000  1
 Ca  Ca4  1  0.00000  0.00000  0.00000  1
 Ge  Ge1  1  0.66667  0.33333  0.18627  1
 Ge  Ge2  1  0.33333  0.66667  0.81373  1
 O  O1  1  0.66667  0.33333  0.93555  1
 O  O2  1  0.33333  0.66667  0.06445  1
 O  O3  1  0.34441  0.17220  0.29622  1
 O  O4  1  0.82780  0.17220  0.29622  1
 O  O5  1  0.82780  0.65559  0.29622  1
 O  O6  1  0.65559  0.82780  0.70378  1
 O  O7  1  0.17220  0.82780  0.70378  1
 O  O8  1  0.17220  0.34441  0.70378  1
