CIF file written using JARVIS-Tools package.
data_TmSnGe
_symmetry_space_group_name_H-M  'Cmcm'
_cell_length_a       4.05563
_cell_length_b       4.24162
_cell_length_c       8.3365
_cell_angle_alpha    104.738
_cell_angle_beta     90
_cell_angle_gamma    90

_symmetry_Int_Tables_number  63
_chemical_formula_structural  TmSnGe
_chemical_formula_sum  Tm2Sn2Ge2
_cell_volume  138.68981694814397
_cell_formula_units_Z  2
loop_
  _symmetry_equiv_pos_site_id
 _symmetry_equiv_pos_as_xyz
 1  'x, y, z'
loop_
 _atom_site_type_symbol
 _atom_site_label
 _atom_site_symmetry_multiplicity
 _atom_site_fract_x
 _atom_site_fract_y
 _atom_site_fract_z
 _atom_site_fract_occupancy
 Ge  Ge1  1  0.25000  0.94503  0.89006  1
 Ge  Ge2  1  0.75000  0.05497  0.10994  1
 Sn  Sn1  1  0.25000  0.24457  0.48913  1
 Sn  Sn2  1  0.75000  0.75543  0.51087  1
 Tm  Tm1  1  0.25000  0.59396  0.18792  1
 Tm  Tm2  1  0.75000  0.40604  0.81208  1
