CIF file written using JARVIS-Tools package.
data_RbUN3O11
_symmetry_space_group_name_H-M  'R-3c'
_cell_length_a       8.2486
_cell_length_b       8.2486
_cell_length_c       8.2486
_cell_angle_alpha    68.8178
_cell_angle_beta     68.8178
_cell_angle_gamma    68.8178

_symmetry_Int_Tables_number  167
_chemical_formula_structural  RbUN3O11
_chemical_formula_sum  Rb2U2N6O22
_cell_volume  470.4516152267654
_cell_formula_units_Z  2
loop_
  _symmetry_equiv_pos_site_id
 _symmetry_equiv_pos_as_xyz
 1  'x, y, z'
loop_
 _atom_site_type_symbol
 _atom_site_label
 _atom_site_symmetry_multiplicity
 _atom_site_fract_x
 _atom_site_fract_y
 _atom_site_fract_z
 _atom_site_fract_occupancy
 N  N1  1  0.93564  0.25000  0.56436  1
 N  N2  1  0.56436  0.93564  0.25000  1
 N  N3  1  0.06436  0.75000  0.43564  1
 N  N4  1  0.75000  0.43564  0.06436  1
 N  N5  1  0.43564  0.06436  0.75000  1
 N  N6  1  0.25000  0.56436  0.93564  1
 O  O1  1  0.80419  0.25000  0.69581  1
 O  O2  1  0.69581  0.80419  0.25000  1
 O  O3  1  0.06257  0.62121  0.58310  1
 O  O4  1  0.62121  0.58310  0.06257  1
 O  O5  1  0.58310  0.06257  0.62121  1
 O  O6  1  0.41690  0.93743  0.37879  1
 O  O7  1  0.30419  0.19581  0.75000  1
 O  O8  1  0.15395  0.15395  0.15395  1
 O  O9  1  0.34605  0.34605  0.34605  1
 O  O10  1  0.65395  0.65395  0.65395  1
 O  O11  1  0.91690  0.87879  0.43743  1
 O  O12  1  0.75000  0.30419  0.19581  1
 O  O13  1  0.25000  0.69581  0.80419  1
 O  O14  1  0.12121  0.56257  0.08310  1
 O  O15  1  0.08310  0.12121  0.56257  1
 O  O16  1  0.19581  0.75000  0.30419  1
 O  O17  1  0.37879  0.41690  0.93743  1
 O  O18  1  0.93743  0.37879  0.41690  1
 O  O19  1  0.43743  0.91690  0.87879  1
 O  O20  1  0.87879  0.43743  0.91690  1
 O  O21  1  0.84605  0.84605  0.84605  1
 O  O22  1  0.56257  0.08310  0.12121  1
 Rb  Rb1  1  0.00000  0.00000  0.00000  1
 Rb  Rb2  1  0.50000  0.50000  0.50000  1
 U  U1  1  0.25000  0.25000  0.25000  1
 U  U2  1  0.75000  0.75000  0.75000  1
