CIF file written using JARVIS-Tools package.
data_Ag4SI
_symmetry_space_group_name_H-M  'Cmmm'
_cell_length_a       5.34314
_cell_length_b       5.34313
_cell_length_c       7.81172
_cell_angle_alpha    116.638
_cell_angle_beta     116.761
_cell_angle_gamma    110.066

_symmetry_Int_Tables_number  65
_chemical_formula_structural  Ag4SI
_chemical_formula_sum  Ag4SI
_cell_volume  130.03761160673452
_cell_formula_units_Z  1
loop_
  _symmetry_equiv_pos_site_id
 _symmetry_equiv_pos_as_xyz
 1  'x, y, z'
loop_
 _atom_site_type_symbol
 _atom_site_label
 _atom_site_symmetry_multiplicity
 _atom_site_fract_x
 _atom_site_fract_y
 _atom_site_fract_z
 _atom_site_fract_occupancy
 Ag  Ag1  1  0.33555  0.66448  0.50001  1
 Ag  Ag2  1  -0.00000  0.50000  -0.00000  1
 Ag  Ag3  1  0.66445  0.33552  0.49999  1
 Ag  Ag4  1  0.50000  -0.00000  -0.00000  1
 I  I1  1  -0.00000  -0.00000  0.50000  1
 S  S1  1  0.00000  0.00000  0.00000  1
