CIF file written using JARVIS-Tools package.
data_LiB6C
_symmetry_space_group_name_H-M  'Amm2'
_cell_length_a       4.70527
_cell_length_b       5.30618
_cell_length_c       5.30618
_cell_angle_alpha    115.753
_cell_angle_beta     90
_cell_angle_gamma    90

_symmetry_Int_Tables_number  38
_chemical_formula_structural  LiB6C
_chemical_formula_sum  Li2B2C2
_cell_volume  119.32126390664
_cell_formula_units_Z  2
loop_
  _symmetry_equiv_pos_site_id
 _symmetry_equiv_pos_as_xyz
 1  'x, y, z'
loop_
 _atom_site_type_symbol
 _atom_site_label
 _atom_site_symmetry_multiplicity
 _atom_site_fract_x
 _atom_site_fract_y
 _atom_site_fract_z
 _atom_site_fract_occupancy
 B  B1  1  0.81735  0.25762  0.25762  1
 B  B2  1  0.69367  0.90152  0.09793  1
 B  B3  1  0.69367  0.09793  0.90152  1
 B  B4  1  0.18321  0.74312  0.74312  1
 B  B5  1  0.00000  0.33261  0.99324  1
 B  B6  1  0.30633  0.09793  0.90152  1
 B  B7  1  0.00000  0.00751  0.66891  1
 B  B8  1  0.00000  0.99324  0.33261  1
 B  B9  1  0.30633  0.90152  0.09793  1
 B  B10  1  0.18265  0.25762  0.25762  1
 B  B11  1  0.00000  0.66891  0.00751  1
 B  B12  1  0.81679  0.74312  0.74312  1
 C  C1  1  0.64627  0.50164  0.50164  1
 C  C2  1  0.35373  0.50164  0.50164  1
 Li  Li1  1  0.50000  0.52774  0.11573  1
 Li  Li2  1  0.50000  0.11573  0.52774  1
