CIF file written using JARVIS-Tools package.
data_Sm2AlNO3
_symmetry_space_group_name_H-M  'I4mm'
_cell_length_a       3.68883
_cell_length_b       3.68883
_cell_length_c       6.73482
_cell_angle_alpha    105.894
_cell_angle_beta     105.894
_cell_angle_gamma    90

_symmetry_Int_Tables_number  107
_chemical_formula_structural  Sm2AlNO3
_chemical_formula_sum  Sm2AlNO3
_cell_volume  84.49146017335053
_cell_formula_units_Z  1
loop_
  _symmetry_equiv_pos_site_id
 _symmetry_equiv_pos_as_xyz
 1  'x, y, z'
loop_
 _atom_site_type_symbol
 _atom_site_label
 _atom_site_symmetry_multiplicity
 _atom_site_fract_x
 _atom_site_fract_y
 _atom_site_fract_z
 _atom_site_fract_occupancy
 Al  Al1  1  0.15723  0.15723  0.31447  1
 N  N1  1  0.99561  0.99561  0.99122  1
 O  O1  1  0.17064  0.67064  0.34127  1
 O  O2  1  0.67064  0.17064  0.34127  1
 O  O3  1  0.33156  0.33156  0.66312  1
 Sm  Sm1  1  0.51880  0.51880  0.03760  1
 Sm  Sm2  1  0.80822  0.80822  0.61645  1
