CIF file written using JARVIS-Tools package.
data_NdPt
_symmetry_space_group_name_H-M  'Cmcm'
_cell_length_a       3.90885
_cell_length_b       4.55551
_cell_length_c       5.80178
_cell_angle_alpha    90
_cell_angle_beta     109.686
_cell_angle_gamma    90

_symmetry_Int_Tables_number  63
_chemical_formula_structural  NdPt
_chemical_formula_sum  Nd2Pt2
_cell_volume  97.27290824065655
_cell_formula_units_Z  2
loop_
  _symmetry_equiv_pos_site_id
 _symmetry_equiv_pos_as_xyz
 1  'x, y, z'
loop_
 _atom_site_type_symbol
 _atom_site_label
 _atom_site_symmetry_multiplicity
 _atom_site_fract_x
 _atom_site_fract_y
 _atom_site_fract_z
 _atom_site_fract_occupancy
 Nd  Nd1  1  0.86303  0.25000  0.72605  1
 Nd  Nd2  1  0.13697  0.75000  0.27395  1
 Pt  Pt1  1  0.41014  0.75000  0.82028  1
 Pt  Pt2  1  0.58986  0.25000  0.17972  1
