CIF file written using JARVIS-Tools package.
data_VO2
_symmetry_space_group_name_H-M  'P2/m'
_cell_length_a       4.86077
_cell_length_b       6.6521
_cell_length_c       7.96618
_cell_angle_alpha    90
_cell_angle_beta     99.3225
_cell_angle_gamma    90

_symmetry_Int_Tables_number  10
_chemical_formula_structural  VO2
_chemical_formula_sum  V4O8
_cell_volume  254.1788493921871
_cell_formula_units_Z  4
loop_
  _symmetry_equiv_pos_site_id
 _symmetry_equiv_pos_as_xyz
 1  'x, y, z'
loop_
 _atom_site_type_symbol
 _atom_site_label
 _atom_site_symmetry_multiplicity
 _atom_site_fract_x
 _atom_site_fract_y
 _atom_site_fract_z
 _atom_site_fract_occupancy
 O  O1  1  0.26836  0.00000  0.14209  1
 O  O2  1  0.73164  0.00000  0.85791  1
 O  O3  1  0.22646  0.75680  0.85336  1
 O  O4  1  0.77354  0.75680  0.14664  1
 O  O5  1  0.77354  0.24320  0.14664  1
 O  O6  1  0.22646  0.24320  0.85336  1
 O  O7  1  0.26976  0.00000  0.57762  1
 O  O8  1  0.73024  0.00000  0.42238  1
 V  V1  1  0.65440  0.00000  0.21929  1
 V  V2  1  0.34560  0.00000  0.78071  1
 V  V3  1  0.00000  0.16516  0.00000  1
 V  V4  1  0.00000  0.83484  0.00000  1
