CIF file written using JARVIS-Tools package.
data_Sr2ErRuO6
_symmetry_space_group_name_H-M  'P2_1/c'
_cell_length_a       5.77274
_cell_length_b       5.80661
_cell_length_c       9.98059
_cell_angle_alpha    90
_cell_angle_beta     125.026
_cell_angle_gamma    90

_symmetry_Int_Tables_number  14
_chemical_formula_structural  Sr2ErRuO6
_chemical_formula_sum  Sr4Er2Ru2O2
_cell_volume  273.9611419068775
_cell_formula_units_Z  2
loop_
  _symmetry_equiv_pos_site_id
 _symmetry_equiv_pos_as_xyz
 1  'x, y, z'
loop_
 _atom_site_type_symbol
 _atom_site_label
 _atom_site_symmetry_multiplicity
 _atom_site_fract_x
 _atom_site_fract_y
 _atom_site_fract_z
 _atom_site_fract_occupancy
 Er  Er1  1  0.00000  0.00000  0.50000  1
 Er  Er2  1  0.00000  0.50000  0.00000  1
 O  O1  1  0.66110  0.27142  0.96191  1
 O  O2  1  0.80604  0.01587  0.23518  1
 O  O3  1  0.33890  0.72858  0.03809  1
 O  O4  1  0.19396  0.98413  0.76482  1
 O  O5  1  0.80604  0.48413  0.73518  1
 O  O6  1  0.19396  0.51587  0.26482  1
 O  O7  1  0.73292  0.70180  0.46315  1
 O  O8  1  0.73292  0.79820  0.96315  1
 O  O9  1  0.66110  0.22858  0.46191  1
 O  O10  1  0.26708  0.20180  0.03685  1
 O  O11  1  0.33890  0.77142  0.53809  1
 O  O12  1  0.26708  0.29820  0.53685  1
 Ru  Ru1  1  0.50000  0.50000  0.50000  1
 Ru  Ru2  1  0.50000  0.00000  0.00000  1
 Sr  Sr1  1  0.25779  0.96689  0.25073  1
 Sr  Sr2  1  0.74221  0.46689  0.24927  1
 Sr  Sr3  1  0.25779  0.53311  0.75073  1
 Sr  Sr4  1  0.74221  0.03311  0.74927  1
