CIF file written using JARVIS-Tools package.
data_PrSe2
_symmetry_space_group_name_H-M  'P2_1/c'
_cell_length_a       8.46232
_cell_length_b       4.22024
_cell_length_c       8.58929
_cell_angle_alpha    90
_cell_angle_beta     90.0883
_cell_angle_gamma    90

_symmetry_Int_Tables_number  14
_chemical_formula_structural  PrSe2
_chemical_formula_sum  Pr4Se8
_cell_volume  306.74924401280657
_cell_formula_units_Z  4
loop_
  _symmetry_equiv_pos_site_id
 _symmetry_equiv_pos_as_xyz
 1  'x, y, z'
loop_
 _atom_site_type_symbol
 _atom_site_label
 _atom_site_symmetry_multiplicity
 _atom_site_fract_x
 _atom_site_fract_y
 _atom_site_fract_z
 _atom_site_fract_occupancy
 Pr  Pr1  1  0.62639  0.27554  0.27494  1
 Pr  Pr2  1  0.37361  0.72446  0.72506  1
 Pr  Pr3  1  0.87361  0.77554  0.72506  1
 Pr  Pr4  1  0.12639  0.22446  0.27494  1
 Se  Se1  1  0.88120  0.31254  0.99833  1
 Se  Se2  1  0.87488  0.75555  0.36769  1
 Se  Se3  1  0.38120  0.18746  0.99833  1
 Se  Se4  1  0.61880  0.81254  0.00167  1
 Se  Se5  1  0.62512  0.25555  0.63231  1
 Se  Se6  1  0.11880  0.68746  0.00167  1
 Se  Se7  1  0.37488  0.74445  0.36769  1
 Se  Se8  1  0.12512  0.24445  0.63231  1
