CIF file written using JARVIS-Tools package.
data_Yb4Ba3O9
_symmetry_space_group_name_H-M  'R3'
_cell_length_a       9.08874
_cell_length_b       9.08874
_cell_length_c       9.08874
_cell_angle_alpha    39.1772
_cell_angle_beta     39.1772
_cell_angle_gamma    39.1772

_symmetry_Int_Tables_number  146
_chemical_formula_structural  Yb4Ba3O9
_chemical_formula_sum  Yb4Ba3O9
_cell_volume  269.53759636354334
_cell_formula_units_Z  1
loop_
  _symmetry_equiv_pos_site_id
 _symmetry_equiv_pos_as_xyz
 1  'x, y, z'
loop_
 _atom_site_type_symbol
 _atom_site_label
 _atom_site_symmetry_multiplicity
 _atom_site_fract_x
 _atom_site_fract_y
 _atom_site_fract_z
 _atom_site_fract_occupancy
 Ba  Ba1  1  0.00995  0.00995  0.00995  1
 Ba  Ba2  1  0.17499  0.17499  0.17499  1
 Ba  Ba3  1  0.58734  0.58734  0.58734  1
 O  O1  1  0.46108  0.60116  0.04876  1
 O  O2  1  0.60116  0.04876  0.46108  1
 O  O3  1  0.04876  0.46108  0.60116  1
 O  O4  1  0.59575  0.71483  0.14408  1
 O  O5  1  0.71483  0.14408  0.59575  1
 O  O6  1  0.14408  0.59575  0.71483  1
 O  O7  1  0.03560  0.59077  0.15172  1
 O  O8  1  0.15172  0.03560  0.59077  1
 O  O9  1  0.59077  0.15172  0.03560  1
 Yb  Yb1  1  0.43299  0.43299  0.43299  1
 Yb  Yb2  1  0.87420  0.87420  0.87420  1
 Yb  Yb3  1  0.75362  0.75362  0.75362  1
 Yb  Yb4  1  0.31265  0.31265  0.31265  1
