CIF file written using JARVIS-Tools package.
data_AlV4C3
_symmetry_space_group_name_H-M  'P6_3/mmc'
_cell_length_a       2.92924
_cell_length_b       2.92924
_cell_length_c       22.7916
_cell_angle_alpha    90
_cell_angle_beta     90
_cell_angle_gamma    120

_symmetry_Int_Tables_number  194
_chemical_formula_structural  AlV4C3
_chemical_formula_sum  Al2V8C6
_cell_volume  169.36214579183994
_cell_formula_units_Z  2
loop_
  _symmetry_equiv_pos_site_id
 _symmetry_equiv_pos_as_xyz
 1  'x, y, z'
loop_
 _atom_site_type_symbol
 _atom_site_label
 _atom_site_symmetry_multiplicity
 _atom_site_fract_x
 _atom_site_fract_y
 _atom_site_fract_z
 _atom_site_fract_occupancy
 Al  Al1  1  0.66667  0.33333  0.25000  1
 Al  Al2  1  0.33333  0.66667  0.75000  1
 C  C1  1  0.33333  0.66667  0.10795  1
 C  C2  1  0.66667  0.33333  0.60795  1
 C  C3  1  0.00000  0.00000  0.00000  1
 C  C4  1  0.33333  0.66667  0.39205  1
 C  C5  1  0.66667  0.33333  0.89205  1
 C  C6  1  0.00000  0.00000  0.50000  1
 V  V1  1  0.00000  0.00000  0.65475  1
 V  V2  1  0.00000  0.00000  0.34525  1
 V  V3  1  0.00000  0.00000  0.84525  1
 V  V4  1  0.33333  0.66667  0.55434  1
 V  V5  1  0.66667  0.33333  0.05434  1
 V  V6  1  0.00000  0.00000  0.15475  1
 V  V7  1  0.66667  0.33333  0.44566  1
 V  V8  1  0.33333  0.66667  0.94566  1
