CIF file written using JARVIS-Tools package.
data_Te2MoW2Se2S2
_symmetry_space_group_name_H-M  'Cm'
_cell_length_a       3.36222
_cell_length_b       3.358
_cell_length_c       20.2235
_cell_angle_alpha    96.1639
_cell_angle_beta     90
_cell_angle_gamma    120.042

_symmetry_Int_Tables_number  8
_chemical_formula_structural  Te2MoW2Se2S2
_chemical_formula_sum  Te2MoW2Se2S2
_cell_volume  196.1302721946041
_cell_formula_units_Z  1
loop_
  _symmetry_equiv_pos_site_id
 _symmetry_equiv_pos_as_xyz
 1  'x, y, z'
loop_
 _atom_site_type_symbol
 _atom_site_label
 _atom_site_symmetry_multiplicity
 _atom_site_fract_x
 _atom_site_fract_y
 _atom_site_fract_z
 _atom_site_fract_occupancy
 Mo  Mo1  1  0.16608  0.33217  0.00558  1
 S  S1  1  0.46668  0.93336  0.93009  1
 S  S2  1  0.53227  0.06454  0.08100  1
 Se  Se1  1  0.78653  0.57305  0.60939  1
 Se  Se2  1  0.85824  0.71649  0.77594  1
 Te  Te1  1  0.38616  0.77231  0.43789  1
 Te  Te2  1  0.30339  0.60677  0.24751  1
 W  W1  1  0.48883  0.97767  0.69278  1
 W  W2  1  0.67842  0.35684  0.34267  1
