CIF file written using JARVIS-Tools package.
data_LuAl
_symmetry_space_group_name_H-M  'Pbcm'
_cell_length_a       5.50617
_cell_length_b       5.74902
_cell_length_c       11.1799
_cell_angle_alpha    90
_cell_angle_beta     90
_cell_angle_gamma    90

_symmetry_Int_Tables_number  57
_chemical_formula_structural  LuAl
_chemical_formula_sum  Lu8Al8
_cell_volume  353.90172416226466
_cell_formula_units_Z  8
loop_
  _symmetry_equiv_pos_site_id
 _symmetry_equiv_pos_as_xyz
 1  'x, y, z'
loop_
 _atom_site_type_symbol
 _atom_site_label
 _atom_site_symmetry_multiplicity
 _atom_site_fract_x
 _atom_site_fract_y
 _atom_site_fract_z
 _atom_site_fract_occupancy
 Al  Al1  1  0.00000  0.93001  0.25000  1
 Al  Al2  1  0.50000  0.06999  0.75000  1
 Al  Al3  1  0.00000  0.06999  0.75000  1
 Al  Al4  1  0.50000  0.93001  0.25000  1
 Al  Al5  1  0.25000  0.65537  0.09551  1
 Al  Al6  1  0.75000  0.34463  0.90449  1
 Al  Al7  1  0.75000  0.65537  0.40449  1
 Al  Al8  1  0.25000  0.34463  0.59551  1
 Lu  Lu1  1  0.25000  0.39461  0.33005  1
 Lu  Lu2  1  0.75000  0.60539  0.66995  1
 Lu  Lu3  1  0.75000  0.39461  0.16995  1
 Lu  Lu4  1  0.25000  0.60539  0.83005  1
 Lu  Lu5  1  0.25000  0.15820  0.01804  1
 Lu  Lu6  1  0.75000  0.84180  0.98196  1
 Lu  Lu7  1  0.75000  0.15820  0.48196  1
 Lu  Lu8  1  0.25000  0.84180  0.51804  1
