CIF file written using JARVIS-Tools package.
data_Ga2Te3
_symmetry_space_group_name_H-M  'Cc'
_cell_length_a       8.47491
_cell_length_b       12.6707
_cell_length_c       7.30465
_cell_angle_alpha    30.1461
_cell_angle_beta     54.3971
_cell_angle_gamma    59.7731

_symmetry_Int_Tables_number  9
_chemical_formula_structural  Ga2Te3
_chemical_formula_sum  Ga4Te6
_cell_volume  320.2927028803082
_cell_formula_units_Z  2
loop_
  _symmetry_equiv_pos_site_id
 _symmetry_equiv_pos_as_xyz
 1  'x, y, z'
loop_
 _atom_site_type_symbol
 _atom_site_label
 _atom_site_symmetry_multiplicity
 _atom_site_fract_x
 _atom_site_fract_y
 _atom_site_fract_z
 _atom_site_fract_occupancy
 Ga  Ga1  1  0.12141  0.99311  0.24618  1
 Ga  Ga2  1  0.12591  0.66746  0.25812  1
 Ga  Ga3  1  0.62141  0.34022  0.22551  1
 Ga  Ga4  1  0.62591  0.66587  0.26051  1
 Te  Te1  1  0.97723  0.00487  0.99834  1
 Te  Te2  1  0.01031  0.32141  0.03793  1
 Te  Te3  1  0.51031  0.01193  0.00215  1
 Te  Te4  1  0.01514  0.63379  0.02847  1
 Te  Te5  1  0.47723  0.32846  0.01296  1
 Te  Te6  1  0.51514  0.69954  0.92983  1
