CIF file written using JARVIS-Tools package.
data_Ti3Sb
_symmetry_space_group_name_H-M  'I4/mcm'
_cell_length_a       5.23482
_cell_length_b       7.91939
_cell_length_c       7.91938
_cell_angle_alpha    83.7288
_cell_angle_beta     70.7005
_cell_angle_gamma    70.7005

_symmetry_Int_Tables_number  140
_chemical_formula_structural  Ti3Sb
_chemical_formula_sum  Ti2Sb4
_cell_volume  292.447862726503
_cell_formula_units_Z  4
loop_
  _symmetry_equiv_pos_site_id
 _symmetry_equiv_pos_as_xyz
 1  'x, y, z'
loop_
 _atom_site_type_symbol
 _atom_site_label
 _atom_site_symmetry_multiplicity
 _atom_site_fract_x
 _atom_site_fract_y
 _atom_site_fract_z
 _atom_site_fract_occupancy
 Sb  Sb1  1  0.83765  0.50000  0.82470  1
 Sb  Sb2  1  0.33765  0.82470  0.50000  1
 Sb  Sb3  1  0.16235  0.50000  0.17530  1
 Sb  Sb4  1  0.66235  0.17530  0.50000  1
 Ti  Ti1  1  0.57582  0.70899  0.13936  1
 Ti  Ti2  1  0.71518  0.86064  0.70899  1
 Ti  Ti3  1  0.28482  0.13936  0.29101  1
 Ti  Ti4  1  0.07582  0.13936  0.70899  1
 Ti  Ti5  1  0.75000  0.00000  -0.00000  1
 Ti  Ti6  1  0.78482  0.29101  0.13936  1
 Ti  Ti7  1  0.42418  0.29101  0.86064  1
 Ti  Ti8  1  0.25000  0.00000  0.00000  1
 Ti  Ti9  1  0.21518  0.70899  0.86064  1
 Ti  Ti10  1  0.92418  0.86064  0.29101  1
 Ti  Ti11  1  0.75000  0.50000  0.50000  1
 Ti  Ti12  1  0.25000  0.50000  0.50000  1
