CIF file written using JARVIS-Tools package.
data_PrTi2O6
_symmetry_space_group_name_H-M  'Pmn2_1'
_cell_length_a       5.44201
_cell_length_b       7.73445
_cell_length_c       5.51266
_cell_angle_alpha    90
_cell_angle_beta     90.001
_cell_angle_gamma    90

_symmetry_Int_Tables_number  31
_chemical_formula_structural  PrTi2O6
_chemical_formula_sum  Pr2Ti4O2
_cell_volume  232.0332052819034
_cell_formula_units_Z  2
loop_
  _symmetry_equiv_pos_site_id
 _symmetry_equiv_pos_as_xyz
 1  'x, y, z'
loop_
 _atom_site_type_symbol
 _atom_site_label
 _atom_site_symmetry_multiplicity
 _atom_site_fract_x
 _atom_site_fract_y
 _atom_site_fract_z
 _atom_site_fract_occupancy
 O  O1  1  0.28380  0.78333  0.71619  1
 O  O2  1  0.93861  0.00000  0.50734  1
 O  O3  1  0.78380  0.71667  0.78381  1
 O  O4  1  0.23256  0.23047  0.23156  1
 O  O5  1  0.73256  0.26953  0.26845  1
 O  O6  1  0.78380  0.28333  0.78381  1
 O  O7  1  0.53943  0.00000  0.00832  1
 O  O8  1  0.43861  0.50000  0.99266  1
 O  O9  1  0.03943  0.50000  0.49169  1
 O  O10  1  0.28380  0.21667  0.71619  1
 O  O11  1  0.23256  0.76953  0.23156  1
 O  O12  1  0.73256  0.73047  0.26845  1
 Pr  Pr1  1  0.49010  0.00000  0.45679  1
 Pr  Pr2  1  0.99010  0.50000  0.04321  1
 Ti  Ti1  1  0.49431  0.74923  0.98556  1
 Ti  Ti2  1  0.49431  0.25077  0.98556  1
 Ti  Ti3  1  0.99431  0.24924  0.51445  1
 Ti  Ti4  1  0.99431  0.75076  0.51445  1
