CIF file written using JARVIS-Tools package.
data_HfGePd
_symmetry_space_group_name_H-M  'P2_1/m'
_cell_length_a       6.71283
_cell_length_b       3.94993
_cell_length_c       11.5499
_cell_angle_alpha    90
_cell_angle_beta     90.1342
_cell_angle_gamma    90

_symmetry_Int_Tables_number  11
_chemical_formula_structural  HfGePd
_chemical_formula_sum  Hf6Ge6Pd6
_cell_volume  306.247812644223
_cell_formula_units_Z  6
loop_
  _symmetry_equiv_pos_site_id
 _symmetry_equiv_pos_as_xyz
 1  'x, y, z'
loop_
 _atom_site_type_symbol
 _atom_site_label
 _atom_site_symmetry_multiplicity
 _atom_site_fract_x
 _atom_site_fract_y
 _atom_site_fract_z
 _atom_site_fract_occupancy
 Ge  Ge1  1  0.25934  0.75000  0.25018  1
 Ge  Ge2  1  0.25358  0.25000  0.58506  1
 Ge  Ge3  1  0.74642  0.75000  0.41494  1
 Ge  Ge4  1  0.74066  0.25000  0.74982  1
 Ge  Ge5  1  0.74597  0.25000  0.08362  1
 Ge  Ge6  1  0.25403  0.75000  0.91638  1
 Hf  Hf1  1  0.33656  0.25000  0.07994  1
 Hf  Hf2  1  0.96700  0.25000  0.29228  1
 Hf  Hf3  1  0.53530  0.75000  0.62173  1
 Hf  Hf4  1  0.46470  0.25000  0.37827  1
 Hf  Hf5  1  0.66344  0.75000  0.92006  1
 Hf  Hf6  1  0.03300  0.75000  0.70772  1
 Pd  Pd1  1  0.62504  0.75000  0.20579  1
 Pd  Pd2  1  0.00198  0.75000  0.09104  1
 Pd  Pd3  1  0.99802  0.25000  0.90896  1
 Pd  Pd4  1  0.14231  0.75000  0.45876  1
 Pd  Pd5  1  0.85769  0.25000  0.54124  1
 Pd  Pd6  1  0.37496  0.25000  0.79421  1
