CIF file written using JARVIS-Tools package.
data_SrU2O6
_symmetry_space_group_name_H-M  'Immm'
_cell_length_a       3.89609
_cell_length_b       11.5782
_cell_length_c       6.75284
_cell_angle_alpha    28.9725
_cell_angle_beta     54.7694
_cell_angle_gamma    59.6902

_symmetry_Int_Tables_number  71
_chemical_formula_structural  SrU2O6
_chemical_formula_sum  SrU2O6
_cell_volume  120.527673148093
_cell_formula_units_Z  1
loop_
  _symmetry_equiv_pos_site_id
 _symmetry_equiv_pos_as_xyz
 1  'x, y, z'
loop_
 _atom_site_type_symbol
 _atom_site_label
 _atom_site_symmetry_multiplicity
 _atom_site_fract_x
 _atom_site_fract_y
 _atom_site_fract_z
 _atom_site_fract_occupancy
 O  O1  1  0.26612  0.30909  0.27024  1
 O  O2  1  0.22069  0.66667  0.27930  1
 O  O3  1  0.73388  0.02424  0.72976  1
 O  O4  1  0.26612  0.02424  0.19752  1
 O  O5  1  0.73388  0.30909  0.80248  1
 O  O6  1  0.77931  0.66667  0.72070  1
 Sr  Sr1  1  -0.00000  0.66667  0.00000  1
 U  U1  1  0.00000  0.99779  0.00332  1
 U  U2  1  -0.00000  0.33555  0.99668  1
