CIF file written using JARVIS-Tools package.
data_Ca2SiO4
_symmetry_space_group_name_H-M  'Cc'
_cell_length_a       6.98184
_cell_length_b       5.21978
_cell_length_c       5.95074
_cell_angle_alpha    104.145
_cell_angle_beta     84.7587
_cell_angle_gamma    111.951

_symmetry_Int_Tables_number  9
_chemical_formula_structural  Ca2SiO4
_chemical_formula_sum  Ca4Si2O8
_cell_volume  195.0465854929592
_cell_formula_units_Z  2
loop_
  _symmetry_equiv_pos_site_id
 _symmetry_equiv_pos_as_xyz
 1  'x, y, z'
loop_
 _atom_site_type_symbol
 _atom_site_label
 _atom_site_symmetry_multiplicity
 _atom_site_fract_x
 _atom_site_fract_y
 _atom_site_fract_z
 _atom_site_fract_occupancy
 Ca  Ca1  1  0.87019  0.88983  0.14185  1
 Ca  Ca2  1  0.54842  0.76861  0.56799  1
 Ca  Ca3  1  0.45158  0.22019  0.06799  1
 Ca  Ca4  1  0.12981  0.01963  0.64185  1
 O  O1  1  0.16165  0.84555  0.25306  1
 O  O2  1  0.13846  0.28677  0.02649  1
 O  O3  1  0.49160  0.71182  0.16445  1
 O  O4  1  0.28366  0.73925  0.82070  1
 O  O5  1  0.50840  0.22022  0.66445  1
 O  O6  1  0.83835  0.68390  0.75306  1
 O  O7  1  0.71634  0.45559  0.32070  1
 O  O8  1  0.86154  0.14831  0.52649  1
 Si  Si1  1  0.25442  0.63237  0.06546  1
 Si  Si2  1  0.74558  0.37795  0.56546  1
