CIF file written using JARVIS-Tools package.
data_H4N2O3
_symmetry_space_group_name_H-M  'C2'
_cell_length_a       3.05886
_cell_length_b       5.52215
_cell_length_c       5.52215
_cell_angle_alpha    84.1924
_cell_angle_beta     92.6611
_cell_angle_gamma    87.3389

_symmetry_Int_Tables_number  5
_chemical_formula_structural  H4N2O3
_chemical_formula_sum  H4N2O3
_cell_volume  92.57588724170522
_cell_formula_units_Z  1
loop_
  _symmetry_equiv_pos_site_id
 _symmetry_equiv_pos_as_xyz
 1  'x, y, z'
loop_
 _atom_site_type_symbol
 _atom_site_label
 _atom_site_symmetry_multiplicity
 _atom_site_fract_x
 _atom_site_fract_y
 _atom_site_fract_z
 _atom_site_fract_occupancy
 H  H1  1  0.19451  0.38036  0.53171  1
 H  H2  1  0.80549  0.53171  0.38036  1
 H  H3  1  0.97405  0.20699  0.98830  1
 H  H4  1  0.02595  0.98830  0.20699  1
 N  N1  1  -0.00000  0.01803  0.01803  1
 N  N2  1  0.50000  0.73306  0.73306  1
 O  O1  1  -0.00000  0.38612  0.38612  1
 O  O2  1  0.52660  0.64951  0.94522  1
 O  O3  1  0.47340  0.94522  0.64951  1
