CIF file written using JARVIS-Tools package.
data_Te2Mo2WSe2S2
_symmetry_space_group_name_H-M  'Cm'
_cell_length_a       3.36001
_cell_length_b       3.36002
_cell_length_c       20.1314
_cell_angle_alpha    85.1798
_cell_angle_beta     89.999
_cell_angle_gamma    120

_symmetry_Int_Tables_number  8
_chemical_formula_structural  Te2Mo2WSe2S2
_chemical_formula_sum  Te2Mo2WSe2S2
_cell_volume  195.90025619684
_cell_formula_units_Z  1
loop_
  _symmetry_equiv_pos_site_id
 _symmetry_equiv_pos_as_xyz
 1  'x, y, z'
loop_
 _atom_site_type_symbol
 _atom_site_label
 _atom_site_symmetry_multiplicity
 _atom_site_fract_x
 _atom_site_fract_y
 _atom_site_fract_z
 _atom_site_fract_occupancy
 Mo  Mo1  1  0.43974  0.87940  0.02521  1
 Mo  Mo2  1  0.66959  0.33871  0.34069  1
 S  S1  1  0.31087  0.62130  0.41626  1
 S  S2  1  0.36163  0.72280  0.26516  1
 Se  Se1  1  0.80094  0.60178  0.94224  1
 Se  Se2  1  0.74521  0.49033  0.10818  1
 Te  Te1  1  0.58932  0.17915  0.57982  1
 Te  Te2  1  0.52534  0.05124  0.77020  1
 W  W1  1  0.22396  0.44849  0.67509  1
