CIF file written using JARVIS-Tools package.
data_In3Ru
_symmetry_space_group_name_H-M  'P4_2/mnm'
_cell_length_a       7.08473
_cell_length_b       7.08474
_cell_length_c       7.35788
_cell_angle_alpha    89.9969
_cell_angle_beta     89.9985
_cell_angle_gamma    90.0019

_symmetry_Int_Tables_number  136
_chemical_formula_structural  In3Ru
_chemical_formula_sum  In2Ru4
_cell_volume  369.31754336641467
_cell_formula_units_Z  4
loop_
  _symmetry_equiv_pos_site_id
 _symmetry_equiv_pos_as_xyz
 1  'x, y, z'
loop_
 _atom_site_type_symbol
 _atom_site_label
 _atom_site_symmetry_multiplicity
 _atom_site_fract_x
 _atom_site_fract_y
 _atom_site_fract_z
 _atom_site_fract_occupancy
 In  In1  1  0.84463  0.84467  0.73742  1
 In  In2  1  0.65540  0.34463  0.23738  1
 In  In3  1  0.84463  0.84463  0.26261  1
 In  In4  1  0.15534  0.15537  0.26258  1
 In  In5  1  0.65536  0.34461  0.76260  1
 In  In6  1  0.00002  0.50002  -0.00001  1
 In  In7  1  0.49996  0.99998  0.00001  1
 In  In8  1  0.34464  0.65532  0.23743  1
 In  In9  1  0.34466  0.65536  0.76258  1
 In  In10  1  0.15538  0.15537  0.73739  1
 In  In11  1  -0.00002  0.50001  0.50004  1
 In  In12  1  0.49999  0.00003  0.49996  1
 Ru  Ru1  1  0.34450  0.34450  -0.00000  1
 Ru  Ru2  1  0.15551  0.84450  0.50000  1
 Ru  Ru3  1  0.84450  0.15550  0.50000  1
 Ru  Ru4  1  0.65551  0.65549  0.00000  1
