CIF file written using JARVIS-Tools package.
data_Si2NiSe4
_symmetry_space_group_name_H-M  'C2/m'
_cell_length_a       3.51701
_cell_length_b       6.43275
_cell_length_c       6.84047
_cell_angle_alpha    110.096
_cell_angle_beta     104.897
_cell_angle_gamma    90

_symmetry_Int_Tables_number  12
_chemical_formula_structural  Si2NiSe4
_chemical_formula_sum  Si2NiSe4
_cell_volume  139.78573306772503
_cell_formula_units_Z  1
loop_
  _symmetry_equiv_pos_site_id
 _symmetry_equiv_pos_as_xyz
 1  'x, y, z'
loop_
 _atom_site_type_symbol
 _atom_site_label
 _atom_site_symmetry_multiplicity
 _atom_site_fract_x
 _atom_site_fract_y
 _atom_site_fract_z
 _atom_site_fract_occupancy
 Ni  Ni1  1  0.00000  0.00000  0.00000  1
 Se  Se1  1  0.12554  0.47052  0.25108  1
 Se  Se2  1  0.87446  0.52948  0.74892  1
 Se  Se3  1  0.37867  0.01584  0.75734  1
 Se  Se4  1  0.62133  0.98416  0.24266  1
 Si  Si1  1  0.26668  0.28227  0.53336  1
 Si  Si2  1  0.73332  0.71773  0.46664  1
