CIF file written using JARVIS-Tools package.
data_MnN2Cl4
_symmetry_space_group_name_H-M  'I4/mmm'
_cell_length_a       4.62543
_cell_length_b       4.62543
_cell_length_c       8.096
_cell_angle_alpha    106.598
_cell_angle_beta     106.598
_cell_angle_gamma    90

_symmetry_Int_Tables_number  139
_chemical_formula_structural  MnN2Cl4
_chemical_formula_sum  MnN2Cl4
_cell_volume  158.44744159733887
_cell_formula_units_Z  1
loop_
  _symmetry_equiv_pos_site_id
 _symmetry_equiv_pos_as_xyz
 1  'x, y, z'
loop_
 _atom_site_type_symbol
 _atom_site_label
 _atom_site_symmetry_multiplicity
 _atom_site_fract_x
 _atom_site_fract_y
 _atom_site_fract_z
 _atom_site_fract_occupancy
 Cl  Cl1  1  0.14771  0.14771  0.29541  1
 Cl  Cl2  1  0.85229  0.85229  0.70459  1
 Cl  Cl3  1  0.00000  0.50000  0.00000  1
 Cl  Cl4  1  0.50000  0.00000  0.00000  1
 Mn  Mn1  1  0.00000  0.00000  0.00000  1
 N  N1  1  0.34379  0.34379  0.68757  1
 N  N2  1  0.65621  0.65621  0.31243  1
