CIF file written using JARVIS-Tools package.
data_YbNaF4
_symmetry_space_group_name_H-M  'P-1'
_cell_length_a       5.63244
_cell_length_b       5.63632
_cell_length_c       6.23085
_cell_angle_alpha    117.286
_cell_angle_beta     115.486
_cell_angle_gamma    90.0905

_symmetry_Int_Tables_number  2
_chemical_formula_structural  YbNaF4
_chemical_formula_sum  Yb2Na2F8
_cell_volume  153.737145701541
_cell_formula_units_Z  2
loop_
  _symmetry_equiv_pos_site_id
 _symmetry_equiv_pos_as_xyz
 1  'x, y, z'
loop_
 _atom_site_type_symbol
 _atom_site_label
 _atom_site_symmetry_multiplicity
 _atom_site_fract_x
 _atom_site_fract_y
 _atom_site_fract_z
 _atom_site_fract_occupancy
 F  F1  1  0.37038  0.88447  0.24121  1
 F  F2  1  0.87899  0.37013  0.25903  1
 F  F3  1  0.10095  0.61070  0.72365  1
 F  F4  1  0.64906  0.63930  0.77637  1
 F  F5  1  0.87111  0.87998  0.24119  1
 F  F6  1  0.65040  0.13712  0.77600  1
 F  F7  1  0.09958  0.11286  0.72395  1
 F  F8  1  0.37953  0.36543  0.25859  1
 Na  Na1  1  0.48492  0.49451  -0.00114  1
 Na  Na2  1  0.26519  0.75549  0.50115  1
 Yb  Yb1  1  0.01448  0.00484  -0.00048  1
 Yb  Yb2  1  0.73540  0.24517  0.50047  1
