CIF file written using JARVIS-Tools package.
data_KTiPSe5
_symmetry_space_group_name_H-M  'C2/m'
_cell_length_a       6.60851
_cell_length_b       7.38818
_cell_length_c       9.93351
_cell_angle_alpha    111.832
_cell_angle_beta     97.3184
_cell_angle_gamma    90

_symmetry_Int_Tables_number  12
_chemical_formula_structural  KTiPSe5
_chemical_formula_sum  K2Ti2P2Se0
_cell_volume  445.9587838113455
_cell_formula_units_Z  2
loop_
  _symmetry_equiv_pos_site_id
 _symmetry_equiv_pos_as_xyz
 1  'x, y, z'
loop_
 _atom_site_type_symbol
 _atom_site_label
 _atom_site_symmetry_multiplicity
 _atom_site_fract_x
 _atom_site_fract_y
 _atom_site_fract_z
 _atom_site_fract_occupancy
 K  K1  1  0.76495  0.26812  0.53623  1
 K  K2  1  0.23505  0.73188  0.46377  1
 P  P1  1  0.21442  0.13794  0.27588  1
 P  P2  1  0.78558  0.86206  0.72412  1
 Se  Se1  1  0.11759  0.91442  0.82883  1
 Se  Se2  1  0.18790  0.43822  0.87644  1
 Se  Se3  1  0.66060  0.15637  0.82770  1
 Se  Se4  1  0.88241  0.08558  0.17117  1
 Se  Se5  1  0.33940  0.84363  0.17230  1
 Se  Se6  1  0.66060  0.67134  0.82770  1
 Se  Se7  1  0.81210  0.56178  0.12356  1
 Se  Se8  1  0.25772  0.25726  0.51452  1
 Se  Se9  1  0.33940  0.32866  0.17230  1
 Se  Se10  1  0.74228  0.74274  0.48548  1
 Ti  Ti1  1  -0.00000  0.72393  0.00000  1
 Ti  Ti2  1  0.00000  0.27607  -0.00000  1
