CIF file written using JARVIS-Tools package.
data_Li10Mn3F16
_symmetry_space_group_name_H-M  'R-3m'
_cell_length_a       5.97944
_cell_length_b       10.0655
_cell_length_c       5.9794
_cell_angle_alpha    107.281
_cell_angle_beta     60.0015
_cell_angle_gamma    107.275

_symmetry_Int_Tables_number  166
_chemical_formula_structural  Li10Mn3F16
_chemical_formula_sum  Li0Mn3F6
_cell_volume  292.76371357266515
_cell_formula_units_Z  1
loop_
  _symmetry_equiv_pos_site_id
 _symmetry_equiv_pos_as_xyz
 1  'x, y, z'
loop_
 _atom_site_type_symbol
 _atom_site_label
 _atom_site_symmetry_multiplicity
 _atom_site_fract_x
 _atom_site_fract_y
 _atom_site_fract_z
 _atom_site_fract_occupancy
 F  F1  1  0.87922  0.63763  0.87922  1
 F  F2  1  0.12320  0.87430  0.12320  1
 F  F3  1  0.87679  0.12571  0.37210  1
 F  F4  1  0.12078  0.36237  0.12079  1
 F  F5  1  0.15906  0.36818  0.60455  1
 F  F6  1  0.39545  0.63183  0.39544  1
 F  F7  1  0.62791  0.87430  0.12320  1
 F  F8  1  0.12321  0.87430  0.62790  1
 F  F9  1  0.37210  0.11631  0.37210  1
 F  F10  1  0.60455  0.36818  0.15905  1
 F  F11  1  0.37209  0.12570  0.87680  1
 F  F12  1  0.60455  0.36817  0.60456  1
 F  F13  1  0.84094  0.63182  0.39545  1
 F  F14  1  0.39545  0.63182  0.84095  1
 F  F15  1  0.87680  0.12570  0.87680  1
 F  F16  1  0.62790  0.88369  0.62790  1
 Li  Li1  1  0.50000  0.50000  0.50000  1
 Li  Li2  1  0.25392  0.25384  0.25391  1
 Li  Li3  1  -0.00000  0.00000  0.50000  1
 Li  Li4  1  0.74609  0.74616  0.25399  1
 Li  Li5  1  0.74608  0.74616  0.74609  1
 Li  Li6  1  0.50000  -0.00000  -0.00000  1
 Li  Li7  1  0.25392  0.25384  0.74601  1
 Li  Li8  1  0.50000  -0.00000  0.50000  1
 Li  Li9  1  0.74601  0.25384  0.25391  1
 Li  Li10  1  0.25399  0.74616  0.74609  1
 Mn  Mn1  1  0.80725  0.42178  0.80726  1
 Mn  Mn2  1  -0.00000  0.00000  -0.00000  1
 Mn  Mn3  1  0.19275  0.57822  0.19274  1
