CIF file written using JARVIS-Tools package.
data_ThCo9Si2
_symmetry_space_group_name_H-M  'I4_1/amd'
_cell_length_a       6.25024
_cell_length_b       7.5305
_cell_length_c       7.5305
_cell_angle_alpha    80.083
_cell_angle_beta     65.4811
_cell_angle_gamma    65.481

_symmetry_Int_Tables_number  141
_chemical_formula_structural  ThCo9Si2
_chemical_formula_sum  Th2Co8Si4
_cell_volume  293.39897504021474
_cell_formula_units_Z  2
loop_
  _symmetry_equiv_pos_site_id
 _symmetry_equiv_pos_as_xyz
 1  'x, y, z'
loop_
 _atom_site_type_symbol
 _atom_site_label
 _atom_site_symmetry_multiplicity
 _atom_site_fract_x
 _atom_site_fract_y
 _atom_site_fract_z
 _atom_site_fract_occupancy
 Co  Co1  1  0.69040  0.08194  0.16887  1
 Co  Co2  1  0.64073  0.66887  0.91806  1
 Co  Co3  1  0.22766  0.83113  0.58194  1
 Co  Co4  1  0.05879  0.58194  0.66887  1
 Co  Co5  1  0.77234  0.91806  0.66887  1
 Co  Co6  1  0.35927  0.58194  0.83113  1
 Co  Co7  1  0.94121  0.83113  0.91806  1
 Co  Co8  1  0.35927  0.33113  0.08194  1
 Co  Co9  1  0.62500  0.75000  0.25000  1
 Co  Co10  1  0.77234  0.16887  0.41806  1
 Co  Co11  1  0.22766  0.08194  0.33113  1
 Co  Co12  1  0.64073  0.41806  0.16887  1
 Co  Co13  1  0.30960  0.33113  0.41806  1
 Co  Co14  1  0.05879  0.16887  0.08194  1
 Co  Co15  1  0.69040  0.66887  0.58194  1
 Co  Co16  1  0.37500  0.25000  0.75000  1
 Co  Co17  1  0.94121  0.41806  0.33113  1
 Co  Co18  1  0.30960  0.91806  0.83113  1
 Si  Si1  1  0.50000  0.00000  -0.00000  1
 Si  Si2  1  0.00000  0.50000  -0.00000  1
 Si  Si3  1  0.50000  0.50000  0.50000  1
 Si  Si4  1  0.50000  0.00000  0.50000  1
 Th  Th1  1  0.87500  0.25000  0.75000  1
 Th  Th2  1  0.12500  0.75000  0.25000  1
