CIF file written using JARVIS-Tools package.
data_CdCl2
_symmetry_space_group_name_H-M  'P-4m2'
_cell_length_a       11.7723
_cell_length_b       5.13142
_cell_length_c       6.55291
_cell_angle_alpha    141.59
_cell_angle_beta     153.943
_cell_angle_gamma    29.283

_symmetry_Int_Tables_number  115
_chemical_formula_structural  CdCl2
_chemical_formula_sum  CdCl2
_cell_volume  85.05067809704484
_cell_formula_units_Z  1
loop_
  _symmetry_equiv_pos_site_id
 _symmetry_equiv_pos_as_xyz
 1  'x, y, z'
loop_
 _atom_site_type_symbol
 _atom_site_label
 _atom_site_symmetry_multiplicity
 _atom_site_fract_x
 _atom_site_fract_y
 _atom_site_fract_z
 _atom_site_fract_occupancy
 Cd  Cd1  1  0.83790  -0.00192  0.66703  1
 Cl  Cl1  1  0.83729  0.21426  0.16599  1
 Cl  Cl2  1  0.33767  0.78127  0.16573  1
