CIF file written using JARVIS-Tools package.
data_Te2MoWSe2
_symmetry_space_group_name_H-M  'P3m1'
_cell_length_a       3.45151
_cell_length_b       3.45153
_cell_length_c       38.8104
_cell_angle_alpha    90.0003
_cell_angle_beta     90
_cell_angle_gamma    120

_symmetry_Int_Tables_number  156
_chemical_formula_structural  Te2MoWSe2
_chemical_formula_sum  Te4Mo2W2Se4
_cell_volume  400.40628754942384
_cell_formula_units_Z  2
loop_
  _symmetry_equiv_pos_site_id
 _symmetry_equiv_pos_as_xyz
 1  'x, y, z'
loop_
 _atom_site_type_symbol
 _atom_site_label
 _atom_site_symmetry_multiplicity
 _atom_site_fract_x
 _atom_site_fract_y
 _atom_site_fract_z
 _atom_site_fract_occupancy
 Mo  Mo1  1  0.33331  0.66661  0.46961  1
 Mo  Mo2  1  0.66668  0.33337  0.28176  1
 Se  Se1  1  0.66664  0.33328  0.05187  1
 Se  Se2  1  0.66664  0.33328  0.42758  1
 Se  Se3  1  0.66665  0.33329  0.13626  1
 Se  Se4  1  0.66665  0.33330  0.51179  1
 Te  Te1  1  0.33336  0.66671  0.32977  1
 Te  Te2  1  0.33336  0.66672  0.70539  1
 Te  Te3  1  0.33335  0.66670  0.23388  1
 Te  Te4  1  0.33335  0.66671  0.60939  1
 W  W1  1  0.33331  0.66663  0.09393  1
 W  W2  1  0.66669  0.33338  0.65753  1
