CIF file written using JARVIS-Tools package.
data_SnF4
_symmetry_space_group_name_H-M  'C2/c'
_cell_length_a       5.58966
_cell_length_b       5.20462
_cell_length_c       7.45661
_cell_angle_alpha    132.562
_cell_angle_beta     112.003
_cell_angle_gamma    90.0007

_symmetry_Int_Tables_number  15
_chemical_formula_structural  SnF4
_chemical_formula_sum  Sn2F8
_cell_volume  137.56140377628847
_cell_formula_units_Z  2
loop_
  _symmetry_equiv_pos_site_id
 _symmetry_equiv_pos_as_xyz
 1  'x, y, z'
loop_
 _atom_site_type_symbol
 _atom_site_label
 _atom_site_symmetry_multiplicity
 _atom_site_fract_x
 _atom_site_fract_y
 _atom_site_fract_z
 _atom_site_fract_occupancy
 F  F1  1  0.95566  0.38484  0.21901  1
 F  F2  1  0.54125  0.11371  0.77847  1
 F  F3  1  0.21474  0.57402  0.73830  1
 F  F4  1  0.02181  0.07400  0.73828  1
 F  F5  1  0.28220  0.92449  0.25922  1
 F  F6  1  0.47512  0.42448  0.25925  1
 F  F7  1  0.76151  0.88491  0.21905  1
 F  F8  1  0.73544  0.61365  0.77843  1
 Sn  Sn1  1  0.94283  0.49927  -0.00127  1
 Sn  Sn2  1  0.55409  -0.00073  -0.00126  1
