CIF file written using JARVIS-Tools package.
data_MgV4O10
_symmetry_space_group_name_H-M  'Pm'
_cell_length_a       3.6319
_cell_length_b       5.3236
_cell_length_c       11.3123
_cell_angle_alpha    90.0014
_cell_angle_beta     90.0019
_cell_angle_gamma    70.219

_symmetry_Int_Tables_number  6
_chemical_formula_structural  MgV4O10
_chemical_formula_sum  MgV4O0
_cell_volume  205.81530139296018
_cell_formula_units_Z  1
loop_
  _symmetry_equiv_pos_site_id
 _symmetry_equiv_pos_as_xyz
 1  'x, y, z'
loop_
 _atom_site_type_symbol
 _atom_site_label
 _atom_site_symmetry_multiplicity
 _atom_site_fract_x
 _atom_site_fract_y
 _atom_site_fract_z
 _atom_site_fract_occupancy
 Mg  Mg1  1  0.37942  0.21853  0.75000  1
 O  O1  1  0.79066  0.39726  0.75000  1
 O  O2  1  0.22274  0.53338  0.25000  1
 O  O3  1  0.73308  0.51253  0.06548  1
 O  O4  1  0.24813  0.48232  0.91701  1
 O  O5  1  0.73308  0.51255  0.43452  1
 O  O6  1  0.24813  0.48233  0.58300  1
 O  O7  1  0.44141  0.09177  0.38424  1
 O  O8  1  0.53091  0.91967  0.62881  1
 O  O9  1  0.53091  0.91966  0.87119  1
 O  O10  1  0.44142  0.09176  0.11577  1
 V  V1  1  0.28399  0.40976  0.10149  1
 V  V2  1  0.69107  0.59736  0.90078  1
 V  V3  1  0.69106  0.59736  0.59922  1
 V  V4  1  0.28398  0.40977  0.39851  1
