CIF file written using JARVIS-Tools package.
data_NaLiFe2Si4O12
_symmetry_space_group_name_H-M  'C2'
_cell_length_a       6.39641
_cell_length_b       6.39641
_cell_length_c       5.27396
_cell_angle_alpha    76.1378
_cell_angle_beta     103.862
_cell_angle_gamma    96.015

_symmetry_Int_Tables_number  5
_chemical_formula_structural  NaLiFe2Si4O12
_chemical_formula_sum  NaLiFe2Si4O2
_cell_volume  203.1353136610981
_cell_formula_units_Z  1
loop_
  _symmetry_equiv_pos_site_id
 _symmetry_equiv_pos_as_xyz
 1  'x, y, z'
loop_
 _atom_site_type_symbol
 _atom_site_label
 _atom_site_symmetry_multiplicity
 _atom_site_fract_x
 _atom_site_fract_y
 _atom_site_fract_z
 _atom_site_fract_occupancy
 Fe  Fe1  1  0.08766  0.08766  0.75000  1
 Fe  Fe2  1  0.91548  0.91548  0.25000  1
 Li  Li1  1  0.25732  0.25732  0.25000  1
 Na  Na1  1  0.70598  0.70598  0.75000  1
 O  O1  1  0.03325  0.80897  0.63631  1
 O  O2  1  0.80897  0.03325  0.86369  1
 O  O3  1  0.10517  0.36662  0.82848  1
 O  O4  1  0.34869  0.63445  0.51901  1
 O  O5  1  0.19729  0.97506  0.13792  1
 O  O6  1  0.36945  0.65380  0.01847  1
 O  O7  1  0.63445  0.34869  0.98099  1
 O  O8  1  0.65380  0.36945  0.48153  1
 O  O9  1  0.63061  0.90685  0.30920  1
 O  O10  1  0.90685  0.63061  0.19080  1
 O  O11  1  0.36662  0.10517  0.67152  1
 O  O12  1  0.97506  0.19729  0.36208  1
 Si  Si1  1  0.79886  0.39059  0.25951  1
 Si  Si2  1  0.61026  0.20363  0.75717  1
 Si  Si3  1  0.39059  0.79886  0.24049  1
 Si  Si4  1  0.20363  0.61026  0.74283  1
