CIF file written using JARVIS-Tools package.
data_MoCl4
_symmetry_space_group_name_H-M  'P-31m'
_cell_length_a       12.1524
_cell_length_b       12.1524
_cell_length_c       5.77387
_cell_angle_alpha    90
_cell_angle_beta     90
_cell_angle_gamma    120

_symmetry_Int_Tables_number  162
_chemical_formula_structural  MoCl4
_chemical_formula_sum  Mo6Cl24
_cell_volume  738.4471186452861
_cell_formula_units_Z  6
loop_
  _symmetry_equiv_pos_site_id
 _symmetry_equiv_pos_as_xyz
 1  'x, y, z'
loop_
 _atom_site_type_symbol
 _atom_site_label
 _atom_site_symmetry_multiplicity
 _atom_site_fract_x
 _atom_site_fract_y
 _atom_site_fract_z
 _atom_site_fract_occupancy
 Cl  Cl1  1  0.67780  0.50868  0.75362  1
 Cl  Cl2  1  0.16912  0.49132  0.75362  1
 Cl  Cl3  1  0.00000  0.66808  0.76059  1
 Cl  Cl4  1  0.83088  0.32220  0.75362  1
 Cl  Cl5  1  0.17105  -0.00000  0.77511  1
 Cl  Cl6  1  0.83088  0.50868  0.24638  1
 Cl  Cl7  1  0.66808  0.66808  0.23941  1
 Cl  Cl8  1  -0.00000  0.82895  0.22489  1
 Cl  Cl9  1  0.00000  0.17105  0.77511  1
 Cl  Cl10  1  0.82895  0.00000  0.22489  1
 Cl  Cl11  1  0.16912  0.67780  0.24638  1
 Cl  Cl12  1  0.49132  0.16912  0.75362  1
 Cl  Cl13  1  0.33192  0.33192  0.76059  1
 Cl  Cl14  1  0.50868  0.67780  0.75362  1
 Cl  Cl15  1  -0.00000  0.33192  0.23941  1
 Cl  Cl16  1  0.50868  0.83088  0.24638  1
 Cl  Cl17  1  0.67780  0.16912  0.24638  1
 Cl  Cl18  1  0.82895  0.82895  0.77511  1
 Cl  Cl19  1  0.49132  0.32220  0.24638  1
 Cl  Cl20  1  0.66808  -0.00000  0.76059  1
 Cl  Cl21  1  0.32220  0.49132  0.24638  1
 Cl  Cl22  1  0.17105  0.17105  0.22489  1
 Cl  Cl23  1  0.32220  0.83088  0.75362  1
 Cl  Cl24  1  0.33192  0.00000  0.23941  1
 Mo  Mo1  1  0.65116  0.82558  0.00000  1
 Mo  Mo2  1  0.34884  0.17442  0.00000  1
 Mo  Mo3  1  0.82558  0.17442  0.00000  1
 Mo  Mo4  1  0.17442  0.34884  0.00000  1
 Mo  Mo5  1  0.17442  0.82558  0.00000  1
 Mo  Mo6  1  0.82558  0.65116  0.00000  1
