CIF file written using JARVIS-Tools package.
data_KNaTiO3
_symmetry_space_group_name_H-M  'C2/c'
_cell_length_a       5.49094
_cell_length_b       5.78508
_cell_length_c       6.21864
_cell_angle_alpha    62.2808
_cell_angle_beta     86.2354
_cell_angle_gamma    81.8853

_symmetry_Int_Tables_number  15
_chemical_formula_structural  KNaTiO3
_chemical_formula_sum  K2Na2Ti2O6
_cell_volume  173.1176340333343
_cell_formula_units_Z  2
loop_
  _symmetry_equiv_pos_site_id
 _symmetry_equiv_pos_as_xyz
 1  'x, y, z'
loop_
 _atom_site_type_symbol
 _atom_site_label
 _atom_site_symmetry_multiplicity
 _atom_site_fract_x
 _atom_site_fract_y
 _atom_site_fract_z
 _atom_site_fract_occupancy
 K  K1  1  0.25000  0.26233  0.47533  1
 K  K2  1  0.75000  0.73767  0.52467  1
 Na  Na1  1  0.25000  0.57747  0.84507  1
 Na  Na2  1  0.75000  0.42253  0.15493  1
 O  O1  1  0.49594  0.81129  0.94643  1
 O  O2  1  0.99594  0.75772  0.05357  1
 O  O3  1  0.00407  0.24228  0.94643  1
 O  O4  1  0.50406  0.18871  0.05357  1
 O  O5  1  0.25000  0.78487  0.43027  1
 O  O6  1  0.75000  0.21513  0.56973  1
 Ti  Ti1  1  0.75000  0.05321  0.89357  1
 Ti  Ti2  1  0.25000  0.94679  0.10643  1
