CIF file written using JARVIS-Tools package.
data_MoW2S6
_symmetry_space_group_name_H-M  'P-6m2'
_cell_length_a       3.19238
_cell_length_b       3.1924
_cell_length_c       27.0286
_cell_angle_alpha    90
_cell_angle_beta     90
_cell_angle_gamma    120

_symmetry_Int_Tables_number  187
_chemical_formula_structural  MoW2S6
_chemical_formula_sum  MoW2S6
_cell_volume  238.55523034320777
_cell_formula_units_Z  1
loop_
  _symmetry_equiv_pos_site_id
 _symmetry_equiv_pos_as_xyz
 1  'x, y, z'
loop_
 _atom_site_type_symbol
 _atom_site_label
 _atom_site_symmetry_multiplicity
 _atom_site_fract_x
 _atom_site_fract_y
 _atom_site_fract_z
 _atom_site_fract_occupancy
 Mo  Mo1  1  0.66678  0.33356  0.34698  1
 S  S1  1  0.33346  0.66691  0.40493  1
 S  S2  1  0.66659  0.33319  0.05742  1
 S  S3  1  0.66660  0.33319  0.52000  1
 S  S4  1  0.66660  0.33319  0.17396  1
 S  S5  1  0.66659  0.33319  0.63655  1
 S  S6  1  0.33346  0.66691  0.28903  1
 W  W1  1  0.33326  0.66653  0.11566  1
 W  W2  1  0.33326  0.66653  0.57830  1
