CIF file written using JARVIS-Tools package.
data_CoCl2
_symmetry_space_group_name_H-M  'P-3m1'
_cell_length_a       12.4348
_cell_length_b       5.48315
_cell_length_c       6.44573
_cell_angle_alpha    148.144
_cell_angle_beta     164.705
_cell_angle_gamma    28.2885

_symmetry_Int_Tables_number  164
_chemical_formula_structural  CoCl2
_chemical_formula_sum  CoCl2
_cell_volume  54.942206545868196
_cell_formula_units_Z  1
loop_
  _symmetry_equiv_pos_site_id
 _symmetry_equiv_pos_as_xyz
 1  'x, y, z'
loop_
 _atom_site_type_symbol
 _atom_site_label
 _atom_site_symmetry_multiplicity
 _atom_site_fract_x
 _atom_site_fract_y
 _atom_site_fract_z
 _atom_site_fract_occupancy
 Cl  Cl1  1  0.33306  0.10309  -0.00000  1
 Cl  Cl2  1  0.66694  0.89691  0.00000  1
 Co  Co1  1  0.00000  0.00000  0.00000  1
