CIF file written using JARVIS-Tools package.
data_Mn4O7F
_symmetry_space_group_name_H-M  'Cc'
_cell_length_a       6.55565
_cell_length_b       5.4204
_cell_length_c       6.55565
_cell_angle_alpha    89.9895
_cell_angle_beta     96.1241
_cell_angle_gamma    90.0105

_symmetry_Int_Tables_number  9
_chemical_formula_structural  Mn4O7F
_chemical_formula_sum  Mn8O4F2
_cell_volume  231.62074520421473
_cell_formula_units_Z  2
loop_
  _symmetry_equiv_pos_site_id
 _symmetry_equiv_pos_as_xyz
 1  'x, y, z'
loop_
 _atom_site_type_symbol
 _atom_site_label
 _atom_site_symmetry_multiplicity
 _atom_site_fract_x
 _atom_site_fract_y
 _atom_site_fract_z
 _atom_site_fract_occupancy
 F  F1  1  0.83659  0.87992  0.91743  1
 F  F2  1  0.33257  0.37992  0.41341  1
 Mn  Mn1  1  0.87885  0.35424  0.62665  1
 Mn  Mn2  1  0.61718  0.62829  0.86817  1
 Mn  Mn3  1  0.62335  0.85424  0.37115  1
 Mn  Mn4  1  0.37359  0.35276  0.11604  1
 Mn  Mn5  1  0.87581  0.16827  0.13429  1
 Mn  Mn6  1  0.13396  0.85276  0.87641  1
 Mn  Mn7  1  0.11571  0.66827  0.37419  1
 Mn  Mn8  1  0.38183  0.12829  0.63282  1
 O  O1  1  0.59317  0.11854  0.17137  1
 O  O2  1  0.15453  0.11830  0.07688  1
 O  O3  1  0.17312  0.61830  0.09547  1
 O  O4  1  0.57401  0.61157  0.15260  1
 O  O5  1  0.34396  0.88595  0.42478  1
 O  O6  1  0.09740  0.11157  0.67599  1
 O  O7  1  0.40940  0.88079  0.83110  1
 O  O8  1  0.65881  0.11038  0.57837  1
 O  O9  1  0.90221  0.89098  0.32043  1
 O  O10  1  0.67163  0.61038  0.59119  1
 O  O11  1  0.92957  0.39098  0.34779  1
 O  O12  1  0.82522  0.38595  0.90604  1
 O  O13  1  0.07863  0.61854  0.65683  1
 O  O14  1  0.41890  0.38079  0.84060  1
