CIF file written using JARVIS-Tools package.
data_MnH2O2
_symmetry_space_group_name_H-M  'P3m1'
_cell_length_a       3.30754
_cell_length_b       3.30749
_cell_length_c       4.06997
_cell_angle_alpha    89.9999
_cell_angle_beta     89.9888
_cell_angle_gamma    119.999

_symmetry_Int_Tables_number  156
_chemical_formula_structural  MnH2O2
_chemical_formula_sum  MnH2O2
_cell_volume  38.55911073010994
_cell_formula_units_Z  1
loop_
  _symmetry_equiv_pos_site_id
 _symmetry_equiv_pos_as_xyz
 1  'x, y, z'
loop_
 _atom_site_type_symbol
 _atom_site_label
 _atom_site_symmetry_multiplicity
 _atom_site_fract_x
 _atom_site_fract_y
 _atom_site_fract_z
 _atom_site_fract_occupancy
 H  H1  1  0.66666  0.33333  0.03597  1
 H  H2  1  0.33328  0.66664  0.43681  1
 Mn  Mn1  1  0.00002  0.00001  0.96818  1
 O  O1  1  0.66674  0.33337  0.78610  1
 O  O2  1  0.33330  0.66665  0.19541  1
