CIF file written using JARVIS-Tools package.
data_Cd4SF6
_symmetry_space_group_name_H-M  'P4_2/nmc'
_cell_length_a       5.56677
_cell_length_b       7.94897
_cell_length_c       7.94905
_cell_angle_alpha    89.9991
_cell_angle_beta     90.0108
_cell_angle_gamma    90.0107

_symmetry_Int_Tables_number  137
_chemical_formula_structural  Cd4SF6
_chemical_formula_sum  Cd8S2F2
_cell_volume  351.7458088317739
_cell_formula_units_Z  2
loop_
  _symmetry_equiv_pos_site_id
 _symmetry_equiv_pos_as_xyz
 1  'x, y, z'
loop_
 _atom_site_type_symbol
 _atom_site_label
 _atom_site_symmetry_multiplicity
 _atom_site_fract_x
 _atom_site_fract_y
 _atom_site_fract_z
 _atom_site_fract_occupancy
 Cd  Cd1  1  0.51621  0.25002  0.48599  1
 Cd  Cd2  1  0.51621  0.25006  0.01399  1
 Cd  Cd3  1  0.01620  0.48599  0.25002  1
 Cd  Cd4  1  0.01620  0.01399  0.25002  1
 Cd  Cd5  1  0.48380  0.74994  0.51401  1
 Cd  Cd6  1  0.48378  0.74995  0.98601  1
 Cd  Cd7  1  0.98380  0.51401  0.74993  1
 Cd  Cd8  1  0.98379  0.98601  0.74997  1
 F  F1  1  0.22158  0.75008  0.74993  1
 F  F2  1  0.25008  0.46397  0.53606  1
 F  F3  1  0.24997  0.03611  0.96393  1
 F  F4  1  0.24993  0.03614  0.53598  1
 F  F5  1  0.25005  0.46402  0.96383  1
 F  F6  1  0.74998  0.96392  0.03608  1
 F  F7  1  0.27842  0.25009  0.24995  1
 F  F8  1  0.74990  0.53595  0.03617  1
 F  F9  1  0.77841  0.24993  0.25008  1
 F  F10  1  0.75006  0.96384  0.46401  1
 F  F11  1  0.75008  0.53607  0.46397  1
 F  F12  1  0.72158  0.74992  0.75007  1
 S  S1  1  0.74999  0.24998  0.75001  1
 S  S2  1  0.25000  0.75001  0.24999  1
