CIF file written using JARVIS-Tools package.
data_Ag5SbS4
_symmetry_space_group_name_H-M  'Cmc2_1'
_cell_length_a       7.32142
_cell_length_b       7.32142
_cell_length_c       8.78834
_cell_angle_alpha    90
_cell_angle_beta     90
_cell_angle_gamma    115.403

_symmetry_Int_Tables_number  36
_chemical_formula_structural  Ag5SbS4
_chemical_formula_sum  Ag0Sb2S8
_cell_volume  425.5335522310503
_cell_formula_units_Z  2
loop_
  _symmetry_equiv_pos_site_id
 _symmetry_equiv_pos_as_xyz
 1  'x, y, z'
loop_
 _atom_site_type_symbol
 _atom_site_label
 _atom_site_symmetry_multiplicity
 _atom_site_fract_x
 _atom_site_fract_y
 _atom_site_fract_z
 _atom_site_fract_occupancy
 Ag  Ag1  1  0.55949  0.80498  0.48894  1
 Ag  Ag2  1  0.13146  0.25524  0.16936  1
 Ag  Ag3  1  0.19502  0.44051  0.48894  1
 Ag  Ag4  1  0.74476  0.86854  0.16936  1
 Ag  Ag5  1  0.25524  0.13146  0.66936  1
 Ag  Ag6  1  0.80498  0.55949  0.98894  1
 Ag  Ag7  1  0.85772  0.14228  0.83165  1
 Ag  Ag8  1  0.44051  0.19502  0.98894  1
 Ag  Ag9  1  0.86854  0.74476  0.66936  1
 Ag  Ag10  1  0.14228  0.85772  0.33165  1
 S  S1  1  0.03258  0.50034  0.72563  1
 S  S2  1  0.49966  0.96742  0.72563  1
 S  S3  1  0.50034  0.03258  0.22563  1
 S  S4  1  0.02875  0.97125  0.97869  1
 S  S5  1  0.97125  0.02875  0.47869  1
 S  S6  1  0.51606  0.48394  0.79782  1
 S  S7  1  0.48394  0.51606  0.29782  1
 S  S8  1  0.96742  0.49966  0.22563  1
 Sb  Sb1  1  0.32581  0.67419  0.89848  1
 Sb  Sb2  1  0.67419  0.32581  0.39848  1
