CIF file written using JARVIS-Tools package.
data_Cd5S4Cl2
_symmetry_space_group_name_H-M  'C2/c'
_cell_length_a       6.63168
_cell_length_b       10.0848
_cell_length_c       10.0851
_cell_angle_alpha    90.1375
_cell_angle_beta     109.194
_cell_angle_gamma    109.192

_symmetry_Int_Tables_number  15
_chemical_formula_structural  Cd5S4Cl2
_chemical_formula_sum  Cd0S8Cl4
_cell_volume  596.9566471230959
_cell_formula_units_Z  2
loop_
  _symmetry_equiv_pos_site_id
 _symmetry_equiv_pos_as_xyz
 1  'x, y, z'
loop_
 _atom_site_type_symbol
 _atom_site_label
 _atom_site_symmetry_multiplicity
 _atom_site_fract_x
 _atom_site_fract_y
 _atom_site_fract_z
 _atom_site_fract_occupancy
 Cd  Cd1  1  0.00021  0.75006  0.24994  1
 Cd  Cd2  1  0.99979  0.24994  0.75006  1
 Cd  Cd3  1  0.30472  0.05509  0.55450  1
 Cd  Cd4  1  0.69518  0.44519  0.94524  1
 Cd  Cd5  1  0.69528  0.94491  0.44550  1
 Cd  Cd6  1  0.30482  0.55481  0.05476  1
 Cd  Cd7  1  0.40456  0.60119  0.60127  1
 Cd  Cd8  1  0.59544  0.39881  0.39873  1
 Cd  Cd9  1  0.20237  0.89870  0.89863  1
 Cd  Cd10  1  0.79763  0.10130  0.10137  1
 Cl  Cl1  1  0.58993  0.89128  0.89151  1
 Cl  Cl2  1  0.80692  0.60877  0.60859  1
 Cl  Cl3  1  0.19308  0.39123  0.39141  1
 Cl  Cl4  1  0.41007  0.10872  0.10849  1
 S  S1  1  0.66295  0.51763  0.19476  1
 S  S2  1  0.33705  0.48237  0.80524  1
 S  S3  1  0.04970  0.01764  0.69476  1
 S  S4  1  0.66300  0.19476  0.51742  1
 S  S5  1  0.95057  0.30523  0.98254  1
 S  S6  1  0.95030  0.98236  0.30524  1
 S  S7  1  0.33700  0.80524  0.48258  1
 S  S8  1  0.04943  0.69477  0.01746  1
