CIF file written using JARVIS-Tools package.
data_Nd2Th2O7
_symmetry_space_group_name_H-M  'Pmma'
_cell_length_a       3.90736
_cell_length_b       7.99409
_cell_length_c       11.3041
_cell_angle_alpha    90
_cell_angle_beta     90
_cell_angle_gamma    90

_symmetry_Int_Tables_number  51
_chemical_formula_structural  Nd2Th2O7
_chemical_formula_sum  Nd4Th4O4
_cell_volume  353.09165868604873
_cell_formula_units_Z  2
loop_
  _symmetry_equiv_pos_site_id
 _symmetry_equiv_pos_as_xyz
 1  'x, y, z'
loop_
 _atom_site_type_symbol
 _atom_site_label
 _atom_site_symmetry_multiplicity
 _atom_site_fract_x
 _atom_site_fract_y
 _atom_site_fract_z
 _atom_site_fract_occupancy
 Nd  Nd1  1  0.00000  0.25000  0.73052  1
 Nd  Nd2  1  0.50000  0.50000  0.00000  1
 Nd  Nd3  1  0.00000  0.75000  0.26948  1
 Nd  Nd4  1  0.50000  0.00000  0.00000  1
 O  O1  1  0.00000  0.46492  0.87285  1
 O  O2  1  0.50000  0.75000  0.63151  1
 O  O3  1  0.00000  0.98772  0.62182  1
 O  O4  1  0.00000  0.48772  0.37818  1
 O  O5  1  0.00000  0.01228  0.37818  1
 O  O6  1  0.00000  0.51228  0.62182  1
 O  O7  1  0.50000  0.25000  0.11367  1
 O  O8  1  0.00000  0.53508  0.12715  1
 O  O9  1  0.00000  0.03508  0.87285  1
 O  O10  1  0.50000  0.75000  0.37638  1
 O  O11  1  0.50000  0.75000  0.88633  1
 O  O12  1  0.50000  0.25000  0.62362  1
 O  O13  1  0.00000  0.96492  0.12715  1
 O  O14  1  0.50000  0.25000  0.36849  1
 Th  Th1  1  0.50000  0.00000  0.50000  1
 Th  Th2  1  0.50000  0.50000  0.50000  1
 Th  Th3  1  0.00000  0.75000  0.75275  1
 Th  Th4  1  0.00000  0.25000  0.24725  1
