CIF file written using JARVIS-Tools package.
data_ScBr2
_symmetry_space_group_name_H-M  'P4_2/mnm'
_cell_length_a       6.68
_cell_length_b       6.68
_cell_length_c       3.71208
_cell_angle_alpha    90
_cell_angle_beta     90
_cell_angle_gamma    90

_symmetry_Int_Tables_number  136
_chemical_formula_structural  ScBr2
_chemical_formula_sum  Sc2Br4
_cell_volume  165.64163021974466
_cell_formula_units_Z  2
loop_
  _symmetry_equiv_pos_site_id
 _symmetry_equiv_pos_as_xyz
 1  'x, y, z'
loop_
 _atom_site_type_symbol
 _atom_site_label
 _atom_site_symmetry_multiplicity
 _atom_site_fract_x
 _atom_site_fract_y
 _atom_site_fract_z
 _atom_site_fract_occupancy
 Br  Br1  1  0.29027  0.29027  0.00000  1
 Br  Br2  1  0.70973  0.70973  0.00000  1
 Br  Br3  1  0.20973  0.79027  0.50000  1
 Br  Br4  1  0.79027  0.20973  0.50000  1
 Sc  Sc1  1  0.00000  0.00000  0.00000  1
 Sc  Sc2  1  0.50000  0.50000  0.50000  1
