CIF file written using JARVIS-Tools package.
data_Sc3Hg
_symmetry_space_group_name_H-M  'P6_3/mmc'
_cell_length_a       6.26651
_cell_length_b       6.26651
_cell_length_c       5.15341
_cell_angle_alpha    90
_cell_angle_beta     90
_cell_angle_gamma    120

_symmetry_Int_Tables_number  194
_chemical_formula_structural  Sc3Hg
_chemical_formula_sum  Sc6Hg2
_cell_volume  175.25757711356837
_cell_formula_units_Z  2
loop_
  _symmetry_equiv_pos_site_id
 _symmetry_equiv_pos_as_xyz
 1  'x, y, z'
loop_
 _atom_site_type_symbol
 _atom_site_label
 _atom_site_symmetry_multiplicity
 _atom_site_fract_x
 _atom_site_fract_y
 _atom_site_fract_z
 _atom_site_fract_occupancy
 Hg  Hg1  1  0.33333  0.66667  0.75000  1
 Hg  Hg2  1  0.66667  0.33333  0.25000  1
 Sc  Sc1  1  0.66019  0.83010  0.25000  1
 Sc  Sc2  1  0.16990  0.83010  0.25000  1
 Sc  Sc3  1  0.16990  0.33981  0.25000  1
 Sc  Sc4  1  0.33981  0.16990  0.75000  1
 Sc  Sc5  1  0.83010  0.16990  0.75000  1
 Sc  Sc6  1  0.83010  0.66019  0.75000  1
