CIF file written using JARVIS-Tools package.
data_Nd2Re2Si2C
_symmetry_space_group_name_H-M  'C2/m'
_cell_length_a       4.07771
_cell_length_b       5.96346
_cell_length_c       6.13824
_cell_angle_alpha    72.8578
_cell_angle_beta     70.6004
_cell_angle_gamma    70.0079

_symmetry_Int_Tables_number  12
_chemical_formula_structural  Nd2Re2Si2C
_chemical_formula_sum  Nd2Re2Si2C
_cell_volume  129.51299031319095
_cell_formula_units_Z  1
loop_
  _symmetry_equiv_pos_site_id
 _symmetry_equiv_pos_as_xyz
 1  'x, y, z'
loop_
 _atom_site_type_symbol
 _atom_site_label
 _atom_site_symmetry_multiplicity
 _atom_site_fract_x
 _atom_site_fract_y
 _atom_site_fract_z
 _atom_site_fract_occupancy
 C  C1  1  0.00000  0.00000  0.00000  1
 Nd  Nd1  1  0.42820  0.84065  0.30294  1
 Nd  Nd2  1  0.57180  0.15935  0.69706  1
 Re  Re1  1  0.79618  0.31926  0.08838  1
 Re  Re2  1  0.20382  0.68074  0.91162  1
 Si  Si1  1  0.85051  0.60115  0.69783  1
 Si  Si2  1  0.14949  0.39885  0.30217  1
