CIF file written using JARVIS-Tools package.
data_Y2Fe2Si2C
_symmetry_space_group_name_H-M  'C2/m'
_cell_length_a       3.92189
_cell_length_b       5.65365
_cell_length_c       5.67385
_cell_angle_alpha    73.2862
_cell_angle_beta     69.781
_cell_angle_gamma    69.7056

_symmetry_Int_Tables_number  12
_chemical_formula_structural  Y2Fe2Si2C
_chemical_formula_sum  Y2Fe2Si2C
_cell_volume  108.69642951282077
_cell_formula_units_Z  1
loop_
  _symmetry_equiv_pos_site_id
 _symmetry_equiv_pos_as_xyz
 1  'x, y, z'
loop_
 _atom_site_type_symbol
 _atom_site_label
 _atom_site_symmetry_multiplicity
 _atom_site_fract_x
 _atom_site_fract_y
 _atom_site_fract_z
 _atom_site_fract_occupancy
 C  C1  1  0.00000  0.00000  0.00000  1
 Fe  Fe1  1  0.80003  0.30583  0.09411  1
 Fe  Fe2  1  0.19997  0.69417  0.90589  1
 Si  Si1  1  0.83632  0.60954  0.71782  1
 Si  Si2  1  0.16368  0.39046  0.28218  1
 Y  Y1  1  0.44035  0.82521  0.29410  1
 Y  Y2  1  0.55965  0.17479  0.70590  1
