CIF file written using JARVIS-Tools package.
data_LuAl4Ni
_symmetry_space_group_name_H-M  'Cmcm'
_cell_length_a       4.02334
_cell_length_b       6.677
_cell_length_c       7.84535
_cell_angle_alpha    90
_cell_angle_beta     104.857
_cell_angle_gamma    90

_symmetry_Int_Tables_number  63
_chemical_formula_structural  LuAl4Ni
_chemical_formula_sum  Lu2Al8Ni2
_cell_volume  203.70998807169258
_cell_formula_units_Z  2
loop_
  _symmetry_equiv_pos_site_id
 _symmetry_equiv_pos_as_xyz
 1  'x, y, z'
loop_
 _atom_site_type_symbol
 _atom_site_label
 _atom_site_symmetry_multiplicity
 _atom_site_fract_x
 _atom_site_fract_y
 _atom_site_fract_z
 _atom_site_fract_occupancy
 Al  Al1  1  0.50000  0.00000  0.00000  1
 Al  Al2  1  0.50000  0.50000  0.00000  1
 Al  Al3  1  0.07413  0.25000  0.14825  1
 Al  Al4  1  0.92587  0.75000  0.85175  1
 Al  Al5  1  0.68712  0.05257  0.37425  1
 Al  Al6  1  0.31288  0.94743  0.62575  1
 Al  Al7  1  0.31288  0.55257  0.62575  1
 Al  Al8  1  0.68712  0.44743  0.37425  1
 Lu  Lu1  1  0.12041  0.75000  0.24081  1
 Lu  Lu2  1  0.87959  0.25000  0.75919  1
 Ni  Ni1  1  0.77194  0.75000  0.54388  1
 Ni  Ni2  1  0.22806  0.25000  0.45612  1
