CIF file written using JARVIS-Tools package.
data_YbDy2S4
_symmetry_space_group_name_H-M  'I-42d'
_cell_length_a       7.1975
_cell_length_b       7.1977
_cell_length_c       7.1975
_cell_angle_alpha    109.425
_cell_angle_beta     109.567
_cell_angle_gamma    109.425

_symmetry_Int_Tables_number  122
_chemical_formula_structural  YbDy2S4
_chemical_formula_sum  Yb2Dy4S8
_cell_volume  287.02542866475096
_cell_formula_units_Z  2
loop_
  _symmetry_equiv_pos_site_id
 _symmetry_equiv_pos_as_xyz
 1  'x, y, z'
loop_
 _atom_site_type_symbol
 _atom_site_label
 _atom_site_symmetry_multiplicity
 _atom_site_fract_x
 _atom_site_fract_y
 _atom_site_fract_z
 _atom_site_fract_occupancy
 Dy  Dy1  1  0.25000  0.62825  0.37825  1
 Dy  Dy2  1  0.62175  0.37176  0.25000  1
 Dy  Dy3  1  0.75000  0.87176  0.12175  1
 Dy  Dy4  1  0.87825  0.12825  0.75000  1
 S  S1  1  0.99583  0.85534  0.49529  1
 S  S2  1  0.99529  0.35534  0.49583  1
 S  S3  1  0.50417  0.99945  0.85951  1
 S  S4  1  0.14049  0.14466  0.13995  1
 S  S5  1  0.35951  0.49945  0.00417  1
 S  S6  1  0.63995  0.64466  0.64049  1
 S  S7  1  0.50471  0.00054  0.36006  1
 S  S8  1  0.86006  0.50054  0.00471  1
 Yb  Yb1  1  0.12500  0.75000  0.87500  1
 Yb  Yb2  1  0.37500  0.25000  0.62500  1
