CIF file written using JARVIS-Tools package.
data_MgFe3P4O14
_symmetry_space_group_name_H-M  'P2_1/c'
_cell_length_a       7.2333
_cell_length_b       7.26437
_cell_length_c       9.74366
_cell_angle_alpha    90
_cell_angle_beta     111.19
_cell_angle_gamma    90

_symmetry_Int_Tables_number  14
_chemical_formula_structural  MgFe3P4O14
_chemical_formula_sum  Mg2Fe6P8O28
_cell_volume  477.3671929274226
_cell_formula_units_Z  2
loop_
  _symmetry_equiv_pos_site_id
 _symmetry_equiv_pos_as_xyz
 1  'x, y, z'
loop_
 _atom_site_type_symbol
 _atom_site_label
 _atom_site_symmetry_multiplicity
 _atom_site_fract_x
 _atom_site_fract_y
 _atom_site_fract_z
 _atom_site_fract_occupancy
 Fe  Fe1  1  0.82750  0.14869  0.48354  1
 Fe  Fe2  1  0.17250  0.64869  0.01646  1
 Fe  Fe3  1  0.17250  0.85131  0.51646  1
 Fe  Fe4  1  0.82750  0.35131  0.98354  1
 Fe  Fe5  1  0.00000  0.00000  0.00000  1
 Fe  Fe6  1  -0.00000  0.50000  0.50000  1
 Mg  Mg1  1  0.50000  0.00000  0.00000  1
 Mg  Mg2  1  0.50000  0.50000  0.50000  1
 O  O1  1  0.96160  0.78993  0.85390  1
 O  O2  1  0.65304  0.60278  0.15887  1
 O  O3  1  0.33414  0.88865  0.13426  1
 O  O4  1  0.37582  0.74079  0.89000  1
 O  O5  1  0.62418  0.24079  0.61000  1
 O  O6  1  0.62418  0.25921  0.11000  1
 O  O7  1  0.37582  0.75921  0.39000  1
 O  O8  1  0.66586  0.38865  0.36574  1
 O  O9  1  0.33414  0.61135  0.63426  1
 O  O10  1  0.97417  0.58298  0.11679  1
 O  O11  1  0.65304  0.89722  0.65887  1
 O  O12  1  0.20149  0.11325  0.89654  1
 O  O13  1  0.79851  0.61325  0.60346  1
 O  O14  1  0.79851  0.88675  0.10346  1
 O  O15  1  0.20149  0.38675  0.39654  1
 O  O16  1  0.66586  0.11135  0.86574  1
 O  O17  1  0.97417  0.91702  0.61679  1
 O  O18  1  0.03840  0.28993  0.64610  1
 O  O19  1  0.96160  0.71007  0.35390  1
 O  O20  1  0.02583  0.41702  0.88321  1
 O  O21  1  0.34696  0.39722  0.84113  1
 O  O22  1  0.65040  0.54563  0.84956  1
 O  O23  1  0.34960  0.04563  0.65044  1
 O  O24  1  0.02583  0.08298  0.38321  1
 O  O25  1  0.65040  0.95437  0.34956  1
 O  O26  1  0.34696  0.10278  0.34113  1
 O  O27  1  0.03840  0.21007  0.14610  1
 O  O28  1  0.34960  0.45437  0.15044  1
 P  P1  1  0.43290  0.91149  0.30460  1
 P  P2  1  0.56710  0.41149  0.19540  1
 P  P3  1  0.56710  0.08851  0.69540  1
 P  P4  1  0.85772  0.79585  0.68521  1
 P  P5  1  0.14228  0.20415  0.31479  1
 P  P6  1  0.85772  0.70415  0.18521  1
 P  P7  1  0.14228  0.29585  0.81479  1
 P  P8  1  0.43290  0.58851  0.80460  1
