CIF file written using JARVIS-Tools package.
data_TiCr2Te4
_symmetry_space_group_name_H-M  'C2/m'
_cell_length_a       3.95118
_cell_length_b       7.03599
_cell_length_c       7.40902
_cell_angle_alpha    117.662
_cell_angle_beta     105.465
_cell_angle_gamma    90

_symmetry_Int_Tables_number  12
_chemical_formula_structural  TiCr2Te4
_chemical_formula_sum  TiCr2Te4
_cell_volume  173.9681331465281
_cell_formula_units_Z  1
loop_
  _symmetry_equiv_pos_site_id
 _symmetry_equiv_pos_as_xyz
 1  'x, y, z'
loop_
 _atom_site_type_symbol
 _atom_site_label
 _atom_site_symmetry_multiplicity
 _atom_site_fract_x
 _atom_site_fract_y
 _atom_site_fract_z
 _atom_site_fract_occupancy
 Cr  Cr1  1  0.25738  0.27504  0.51476  1
 Cr  Cr2  1  0.74262  0.72496  0.48524  1
 Te  Te1  1  0.12204  0.45137  0.24408  1
 Te  Te2  1  0.87796  0.54863  0.75592  1
 Te  Te3  1  0.36785  0.03433  0.73570  1
 Te  Te4  1  0.63215  0.96567  0.26430  1
 Ti  Ti1  1  0.00000  0.00000  0.00000  1
