CIF file written using JARVIS-Tools package.
data_MnOF
_symmetry_space_group_name_H-M  'P2_1/c'
_cell_length_a       5.5528
_cell_length_b       4.60092
_cell_length_c       11.5337
_cell_angle_alpha    90
_cell_angle_beta     118.405
_cell_angle_gamma    90

_symmetry_Int_Tables_number  14
_chemical_formula_structural  MnOF
_chemical_formula_sum  Mn8O8F8
_cell_volume  259.18578931631015
_cell_formula_units_Z  8
loop_
  _symmetry_equiv_pos_site_id
 _symmetry_equiv_pos_as_xyz
 1  'x, y, z'
loop_
 _atom_site_type_symbol
 _atom_site_label
 _atom_site_symmetry_multiplicity
 _atom_site_fract_x
 _atom_site_fract_y
 _atom_site_fract_z
 _atom_site_fract_occupancy
 F  F1  1  0.64332  0.25635  0.53411  1
 F  F2  1  0.67679  0.19513  0.28991  1
 F  F3  1  0.64332  0.24365  0.03411  1
 F  F4  1  0.35668  0.75635  0.96589  1
 F  F5  1  0.32321  0.80487  0.71009  1
 F  F6  1  0.32321  0.69513  0.21009  1
 F  F7  1  0.35668  0.74365  0.46589  1
 F  F8  1  0.67679  0.30487  0.78991  1
 Mn  Mn1  1  0.47489  0.04435  0.62376  1
 Mn  Mn2  1  0.97575  0.53450  0.62699  1
 Mn  Mn3  1  0.47489  0.45565  0.12376  1
 Mn  Mn4  1  0.02425  0.46550  0.37301  1
 Mn  Mn5  1  0.52511  0.54435  0.87624  1
 Mn  Mn6  1  0.02425  0.03450  0.87301  1
 Mn  Mn7  1  0.97575  0.96550  0.12699  1
 Mn  Mn8  1  0.52511  0.95565  0.37624  1
 O  O1  1  0.17928  0.16788  0.29291  1
 O  O2  1  0.17928  0.33212  0.79291  1
 O  O3  1  0.83727  0.71258  0.45539  1
 O  O4  1  0.82072  0.66788  0.20709  1
 O  O5  1  0.82072  0.83212  0.70709  1
 O  O6  1  0.83727  0.78742  0.95539  1
 O  O7  1  0.16273  0.21258  0.04461  1
 O  O8  1  0.16273  0.28742  0.54461  1
