CIF file written using JARVIS-Tools package.
data_Cr2S5
_symmetry_space_group_name_H-M  'Pmmn'
_cell_length_a       4.17584
_cell_length_b       5.76248
_cell_length_c       13.6119
_cell_angle_alpha    89.9999
_cell_angle_beta     90
_cell_angle_gamma    90.0001

_symmetry_Int_Tables_number  59
_chemical_formula_structural  Cr2S5
_chemical_formula_sum  Cr4S0
_cell_volume  327.5455021227993
_cell_formula_units_Z  2
loop_
  _symmetry_equiv_pos_site_id
 _symmetry_equiv_pos_as_xyz
 1  'x, y, z'
loop_
 _atom_site_type_symbol
 _atom_site_label
 _atom_site_symmetry_multiplicity
 _atom_site_fract_x
 _atom_site_fract_y
 _atom_site_fract_z
 _atom_site_fract_occupancy
 Cr  Cr1  1  0.01857  0.12046  0.14890  1
 Cr  Cr2  1  0.51857  0.87967  0.35111  1
 Cr  Cr3  1  0.51856  0.87954  0.64890  1
 Cr  Cr4  1  0.01856  0.12033  0.85111  1
 S  S1  1  0.51857  0.97649  0.18342  1
 S  S2  1  0.01857  0.02370  0.31660  1
 S  S3  1  0.01856  0.02351  0.68342  1
 S  S4  1  0.51856  0.97629  0.81660  1
 S  S5  1  0.01858  0.46461  0.85265  1
 S  S6  1  0.51858  0.53526  0.64732  1
 S  S7  1  0.51858  0.53540  0.35265  1
 S  S8  1  0.51857  0.00214  0.50001  1
 S  S9  1  0.01857  -0.00214  0.00001  1
 S  S10  1  0.01858  0.46473  0.14732  1
