CIF file written using JARVIS-Tools package.
data_ZrIr
_symmetry_space_group_name_H-M  'P4/mmm'
_cell_length_a       3.63527
_cell_length_b       4.44246
_cell_length_c       4.44255
_cell_angle_alpha    90
_cell_angle_beta     90.0015
_cell_angle_gamma    90

_symmetry_Int_Tables_number  123
_chemical_formula_structural  ZrIr
_chemical_formula_sum  Zr2Ir2
_cell_volume  71.74494731767776
_cell_formula_units_Z  2
loop_
  _symmetry_equiv_pos_site_id
 _symmetry_equiv_pos_as_xyz
 1  'x, y, z'
loop_
 _atom_site_type_symbol
 _atom_site_label
 _atom_site_symmetry_multiplicity
 _atom_site_fract_x
 _atom_site_fract_y
 _atom_site_fract_z
 _atom_site_fract_occupancy
 Ir  Ir1  1  -0.00017  0.75000  0.25000  1
 Ir  Ir2  1  0.00017  0.25000  0.75000  1
 Zr  Zr1  1  0.49999  0.25000  0.24999  1
 Zr  Zr2  1  0.50001  0.75000  0.75001  1
