CIF file written using JARVIS-Tools package.
data_PtN2
_symmetry_space_group_name_H-M  'P6_3/mmc'
_cell_length_a       3.21668
_cell_length_b       3.21668
_cell_length_c       7.76408
_cell_angle_alpha    90
_cell_angle_beta     90
_cell_angle_gamma    120

_symmetry_Int_Tables_number  194
_chemical_formula_structural  PtN2
_chemical_formula_sum  Pt2N4
_cell_volume  69.57236299274771
_cell_formula_units_Z  2
loop_
  _symmetry_equiv_pos_site_id
 _symmetry_equiv_pos_as_xyz
 1  'x, y, z'
loop_
 _atom_site_type_symbol
 _atom_site_label
 _atom_site_symmetry_multiplicity
 _atom_site_fract_x
 _atom_site_fract_y
 _atom_site_fract_z
 _atom_site_fract_occupancy
 N  N1  1  0.00000  0.00000  0.42256  1
 N  N2  1  0.00000  0.00000  0.57744  1
 N  N3  1  0.00000  0.00000  0.92256  1
 N  N4  1  0.00000  0.00000  0.07744  1
 Pt  Pt1  1  0.66667  0.33333  0.25000  1
 Pt  Pt2  1  0.33333  0.66667  0.75000  1
