CIF file written using JARVIS-Tools package.
data_CeTeCl
_symmetry_space_group_name_H-M  'P4/nmm'
_cell_length_a       4.47227
_cell_length_b       4.47227
_cell_length_c       8.23489
_cell_angle_alpha    90
_cell_angle_beta     90
_cell_angle_gamma    90

_symmetry_Int_Tables_number  129
_chemical_formula_structural  CeTeCl
_chemical_formula_sum  Ce2Te2Cl2
_cell_volume  164.7077131544757
_cell_formula_units_Z  2
loop_
  _symmetry_equiv_pos_site_id
 _symmetry_equiv_pos_as_xyz
 1  'x, y, z'
loop_
 _atom_site_type_symbol
 _atom_site_label
 _atom_site_symmetry_multiplicity
 _atom_site_fract_x
 _atom_site_fract_y
 _atom_site_fract_z
 _atom_site_fract_occupancy
 Ce  Ce1  1  0.50000  0.00000  0.75873  1
 Ce  Ce2  1  0.00000  0.50000  0.24127  1
 Cl  Cl1  1  0.50000  0.50000  0.00000  1
 Cl  Cl2  1  0.00000  0.00000  0.00000  1
 Te  Te1  1  0.50000  0.00000  0.36211  1
 Te  Te2  1  0.00000  0.50000  0.63789  1
