CIF file written using JARVIS-Tools package.
data_Sr3Cr2S2O5
_symmetry_space_group_name_H-M  'I4/mmm'
_cell_length_a       3.95734
_cell_length_b       3.95734
_cell_length_c       11.51
_cell_angle_alpha    99.8988
_cell_angle_beta     99.8988
_cell_angle_gamma    90

_symmetry_Int_Tables_number  139
_chemical_formula_structural  Sr3Cr2S2O5
_chemical_formula_sum  Sr3Cr2S2O5
_cell_volume  174.84461431450245
_cell_formula_units_Z  1
loop_
  _symmetry_equiv_pos_site_id
 _symmetry_equiv_pos_as_xyz
 1  'x, y, z'
loop_
 _atom_site_type_symbol
 _atom_site_label
 _atom_site_symmetry_multiplicity
 _atom_site_fract_x
 _atom_site_fract_y
 _atom_site_fract_z
 _atom_site_fract_occupancy
 Cr  Cr1  1  0.08502  0.08502  0.17004  1
 Cr  Cr2  1  0.91498  0.91498  0.82996  1
 O  O1  1  0.08477  0.58477  0.16955  1
 O  O2  1  0.58477  0.08477  0.16955  1
 O  O3  1  0.91523  0.41523  0.83045  1
 O  O4  1  0.41523  0.91523  0.83045  1
 O  O5  1  0.00000  0.00000  0.00000  1
 S  S1  1  0.19347  0.19347  0.38694  1
 S  S2  1  0.80653  0.80653  0.61306  1
 Sr  Sr1  1  0.50000  0.50000  0.00000  1
 Sr  Sr2  1  0.66593  0.66593  0.33186  1
 Sr  Sr3  1  0.33407  0.33407  0.66814  1
