CIF file written using JARVIS-Tools package.
data_PrScSi
_symmetry_space_group_name_H-M  'I4/mmm'
_cell_length_a       4.31135
_cell_length_b       4.31135
_cell_length_c       8.52111
_cell_angle_alpha    104.654
_cell_angle_beta     104.654
_cell_angle_gamma    90

_symmetry_Int_Tables_number  139
_chemical_formula_structural  PrScSi
_chemical_formula_sum  Pr2Sc2Si2
_cell_volume  147.904423086148
_cell_formula_units_Z  2
loop_
  _symmetry_equiv_pos_site_id
 _symmetry_equiv_pos_as_xyz
 1  'x, y, z'
loop_
 _atom_site_type_symbol
 _atom_site_label
 _atom_site_symmetry_multiplicity
 _atom_site_fract_x
 _atom_site_fract_y
 _atom_site_fract_z
 _atom_site_fract_occupancy
 Pr  Pr1  1  0.32354  0.32354  0.64709  1
 Pr  Pr2  1  0.67646  0.67646  0.35291  1
 Sc  Sc1  1  0.00000  0.50000  0.00000  1
 Sc  Sc2  1  0.50000  0.00000  0.00000  1
 Si  Si1  1  0.12120  0.12120  0.24239  1
 Si  Si2  1  0.87880  0.87880  0.75761  1
