CIF file written using JARVIS-Tools package.
data_Dy2Zr2O7
_symmetry_space_group_name_H-M  'Pmma'
_cell_length_a       3.59436
_cell_length_b       7.49367
_cell_length_c       10.6152
_cell_angle_alpha    90
_cell_angle_beta     90
_cell_angle_gamma    90

_symmetry_Int_Tables_number  51
_chemical_formula_structural  Dy2Zr2O7
_chemical_formula_sum  Dy4Zr4O4
_cell_volume  285.9192712909315
_cell_formula_units_Z  2
loop_
  _symmetry_equiv_pos_site_id
 _symmetry_equiv_pos_as_xyz
 1  'x, y, z'
loop_
 _atom_site_type_symbol
 _atom_site_label
 _atom_site_symmetry_multiplicity
 _atom_site_fract_x
 _atom_site_fract_y
 _atom_site_fract_z
 _atom_site_fract_occupancy
 Dy  Dy1  1  0.50000  0.50000  0.50000  1
 Dy  Dy2  1  0.00000  0.25000  0.22481  1
 Dy  Dy3  1  0.50000  0.00000  0.50000  1
 Dy  Dy4  1  0.00000  0.75000  0.77519  1
 O  O1  1  0.50000  0.25000  0.62081  1
 O  O2  1  0.00000  0.45916  0.36939  1
 O  O3  1  0.00000  0.98035  0.11826  1
 O  O4  1  0.50000  0.25000  0.10915  1
 O  O5  1  0.00000  0.01965  0.88174  1
 O  O6  1  0.50000  0.75000  0.13312  1
 O  O7  1  0.00000  0.51965  0.11826  1
 O  O8  1  0.50000  0.75000  0.89085  1
 O  O9  1  0.00000  0.54084  0.63061  1
 O  O10  1  0.00000  0.48035  0.88174  1
 O  O11  1  0.00000  0.95916  0.63061  1
 O  O12  1  0.50000  0.75000  0.37919  1
 O  O13  1  0.00000  0.04084  0.36939  1
 O  O14  1  0.50000  0.25000  0.86688  1
 Zr  Zr1  1  0.50000  0.50000  0.00000  1
 Zr  Zr2  1  0.50000  0.00000  0.00000  1
 Zr  Zr3  1  0.00000  0.75000  0.24491  1
 Zr  Zr4  1  0.00000  0.25000  0.75509  1
