CIF file written using JARVIS-Tools package.
data_SmAs2Pd2
_symmetry_space_group_name_H-M  'I4/mmm'
_cell_length_a       4.26824
_cell_length_b       4.26824
_cell_length_c       6.0837
_cell_angle_alpha    110.536
_cell_angle_beta     110.536
_cell_angle_gamma    90

_symmetry_Int_Tables_number  139
_chemical_formula_structural  SmAs2Pd2
_chemical_formula_sum  SmAs2Pd2
_cell_volume  96.23183433460505
_cell_formula_units_Z  1
loop_
  _symmetry_equiv_pos_site_id
 _symmetry_equiv_pos_as_xyz
 1  'x, y, z'
loop_
 _atom_site_type_symbol
 _atom_site_label
 _atom_site_symmetry_multiplicity
 _atom_site_fract_x
 _atom_site_fract_y
 _atom_site_fract_z
 _atom_site_fract_occupancy
 As  As1  1  0.38152  0.38152  0.76305  1
 As  As2  1  0.61848  0.61848  0.23695  1
 Pd  Pd1  1  0.75000  0.25000  0.50000  1
 Pd  Pd2  1  0.25000  0.75000  0.50000  1
 Sm  Sm1  1  0.00000  0.00000  0.00000  1
