CIF file written using JARVIS-Tools package.
data_CaBe2P2O8
_symmetry_space_group_name_H-M  'P2_1/c'
_cell_length_a       7.84502
_cell_length_b       8.83944
_cell_length_c       8.31954
_cell_angle_alpha    90
_cell_angle_beta     90.4895
_cell_angle_gamma    90

_symmetry_Int_Tables_number  14
_chemical_formula_structural  CaBe2P2O8
_chemical_formula_sum  Ca4Be8P8O32
_cell_volume  576.9023695122524
_cell_formula_units_Z  4
loop_
  _symmetry_equiv_pos_site_id
 _symmetry_equiv_pos_as_xyz
 1  'x, y, z'
loop_
 _atom_site_type_symbol
 _atom_site_label
 _atom_site_symmetry_multiplicity
 _atom_site_fract_x
 _atom_site_fract_y
 _atom_site_fract_z
 _atom_site_fract_occupancy
 Be  Be1  1  0.42964  0.30458  0.44607  1
 Be  Be2  1  0.57036  0.69542  0.55393  1
 Be  Be3  1  0.42964  0.19542  0.94607  1
 Be  Be4  1  0.06994  0.57717  0.26502  1
 Be  Be5  1  0.57036  0.80458  0.05393  1
 Be  Be6  1  0.06994  0.92283  0.76502  1
 Be  Be7  1  0.93006  0.42283  0.73498  1
 Be  Be8  1  0.93006  0.07717  0.23498  1
 Ca  Ca1  1  0.24372  0.58628  0.88415  1
 Ca  Ca2  1  0.75628  0.41372  0.11585  1
 Ca  Ca3  1  0.75628  0.08628  0.61585  1
 Ca  Ca4  1  0.24372  0.91372  0.38415  1
 O  O1  1  0.93096  0.19041  0.08157  1
 O  O2  1  0.56365  0.86817  0.62695  1
 O  O3  1  0.49521  0.57552  0.68794  1
 O  O4  1  0.23950  0.15449  0.00118  1
 O  O5  1  0.50479  0.42448  0.31206  1
 O  O6  1  0.49521  0.92448  0.18794  1
 O  O7  1  0.06904  0.69041  0.41843  1
 O  O8  1  0.93096  0.30959  0.58157  1
 O  O9  1  0.74124  0.42260  0.81868  1
 O  O10  1  0.76050  0.84551  -0.00118  1
 O  O11  1  0.23950  0.34551  0.50118  1
 O  O12  1  0.56565  0.30742  0.59737  1
 O  O13  1  0.76050  0.65449  0.49882  1
 O  O14  1  0.00275  0.91057  0.19167  1
 O  O15  1  0.74124  0.07740  0.31868  1
 O  O16  1  0.25876  0.57740  0.18132  1
 O  O17  1  0.25876  0.92260  0.68132  1
 O  O18  1  0.06904  0.80959  0.91843  1
 O  O19  1  0.56565  0.19258  0.09737  1
 O  O20  1  0.43635  0.36817  0.87305  1
 O  O21  1  0.94246  0.86400  0.62029  1
 O  O22  1  0.43435  0.69258  0.40263  1
 O  O23  1  0.99725  0.08943  0.80833  1
 O  O24  1  0.00275  0.58943  0.69167  1
 O  O25  1  0.56365  0.63183  0.12695  1
 O  O26  1  0.99725  0.41057  0.30833  1
 O  O27  1  0.50479  0.07552  0.81206  1
 O  O28  1  0.94246  0.63600  0.12029  1
 O  O29  1  0.05754  0.13600  0.37971  1
 O  O30  1  0.05754  0.36400  0.87971  1
 O  O31  1  0.43635  0.13183  0.37305  1
 O  O32  1  0.43435  0.80742  0.90263  1
 P  P1  1  0.93862  0.80195  0.05694  1
 P  P2  1  0.93862  0.69805  0.55694  1
 P  P3  1  0.06138  0.19805  0.94306  1
 P  P4  1  0.06138  0.30195  0.44306  1
 P  P5  1  0.56100  0.41887  0.73934  1
 P  P6  1  0.43900  0.91887  0.76066  1
 P  P7  1  0.56100  0.08113  0.23934  1
 P  P8  1  0.43900  0.58113  0.26066  1
