CIF file written using JARVIS-Tools package.
data_Al6Ru
_symmetry_space_group_name_H-M  'Cmcm'
_cell_length_a       4.99722
_cell_length_b       4.99722
_cell_length_c       9.08475
_cell_angle_alpha    90
_cell_angle_beta     90
_cell_angle_gamma    97.3583

_symmetry_Int_Tables_number  63
_chemical_formula_structural  Al6Ru
_chemical_formula_sum  Al2Ru2
_cell_volume  224.9982044953732
_cell_formula_units_Z  2
loop_
  _symmetry_equiv_pos_site_id
 _symmetry_equiv_pos_as_xyz
 1  'x, y, z'
loop_
 _atom_site_type_symbol
 _atom_site_label
 _atom_site_symmetry_multiplicity
 _atom_site_fract_x
 _atom_site_fract_y
 _atom_site_fract_z
 _atom_site_fract_occupancy
 Al  Al1  1  0.31914  0.68086  0.00000  1
 Al  Al2  1  0.68086  0.31914  0.50000  1
 Al  Al3  1  0.68086  0.31914  0.00000  1
 Al  Al4  1  0.31914  0.68086  0.50000  1
 Al  Al5  1  0.13977  0.13977  0.10002  1
 Al  Al6  1  0.86023  0.86023  0.60002  1
 Al  Al7  1  0.13977  0.13977  0.39998  1
 Al  Al8  1  0.86023  0.86023  0.89998  1
 Al  Al9  1  0.61679  0.97653  0.25000  1
 Al  Al10  1  0.38321  0.02347  0.75000  1
 Al  Al11  1  0.97653  0.61679  0.25000  1
 Al  Al12  1  0.02347  0.38321  0.75000  1
 Ru  Ru1  1  0.46218  0.46218  0.25000  1
 Ru  Ru2  1  0.53782  0.53782  0.75000  1
