CIF file written using JARVIS-Tools package.
data_MoWSeS3
_symmetry_space_group_name_H-M  'P3m1'
_cell_length_a       3.22346
_cell_length_b       3.22345
_cell_length_c       33.5975
_cell_angle_alpha    90.0014
_cell_angle_beta     90
_cell_angle_gamma    120

_symmetry_Int_Tables_number  156
_chemical_formula_structural  MoWSeS3
_chemical_formula_sum  Mo2W2Se2S6
_cell_volume  302.3306892258844
_cell_formula_units_Z  2
loop_
  _symmetry_equiv_pos_site_id
 _symmetry_equiv_pos_as_xyz
 1  'x, y, z'
loop_
 _atom_site_type_symbol
 _atom_site_label
 _atom_site_symmetry_multiplicity
 _atom_site_fract_x
 _atom_site_fract_y
 _atom_site_fract_z
 _atom_site_fract_occupancy
 Mo  Mo1  1  0.33329  0.66658  0.09580  1
 Mo  Mo2  1  0.66667  0.33334  0.65932  1
 S  S1  1  0.33334  0.66667  0.32759  1
 S  S2  1  0.66661  0.33323  0.04951  1
 S  S3  1  0.66670  0.33339  0.42021  1
 S  S4  1  0.66664  0.33327  0.14212  1
 S  S5  1  0.66672  0.33343  0.51337  1
 S  S6  1  0.33333  0.66666  0.23444  1
 Se  Se1  1  0.33334  0.66669  0.71019  1
 Se  Se2  1  0.33333  0.66665  0.60839  1
 W  W1  1  0.33337  0.66675  0.46678  1
 W  W2  1  0.66667  0.33333  0.28102  1
