CIF file written using JARVIS-Tools package.
data_NpAl4
_symmetry_space_group_name_H-M  'Imma'
_cell_length_a       4.34418
_cell_length_b       6.0964
_cell_length_c       7.85246
_cell_angle_alpha    112.842
_cell_angle_beta     106.058
_cell_angle_gamma    90

_symmetry_Int_Tables_number  74
_chemical_formula_structural  NpAl4
_chemical_formula_sum  Np2Al8
_cell_volume  182.8184423577108
_cell_formula_units_Z  2
loop_
  _symmetry_equiv_pos_site_id
 _symmetry_equiv_pos_as_xyz
 1  'x, y, z'
loop_
 _atom_site_type_symbol
 _atom_site_label
 _atom_site_symmetry_multiplicity
 _atom_site_fract_x
 _atom_site_fract_y
 _atom_site_fract_z
 _atom_site_fract_occupancy
 Al  Al1  1  0.50000  0.50000  0.00000  1
 Al  Al2  1  0.50000  0.00000  -0.00000  1
 Al  Al3  1  0.10919  0.85919  0.21839  1
 Al  Al4  1  0.89081  0.14081  0.78161  1
 Al  Al5  1  0.69888  0.71043  0.39775  1
 Al  Al6  1  0.30112  0.28957  0.60225  1
 Al  Al7  1  0.30112  0.81268  0.60225  1
 Al  Al8  1  0.69888  0.18732  0.39775  1
 Np  Np1  1  0.89088  0.64088  0.78176  1
 Np  Np2  1  0.10912  0.35912  0.21824  1
