CIF file written using JARVIS-Tools package.
data_Al6Re
_symmetry_space_group_name_H-M  'Cmcm'
_cell_length_a       5.0688
_cell_length_b       5.0688
_cell_length_c       9.11258
_cell_angle_alpha    90
_cell_angle_beta     90
_cell_angle_gamma    97.9596

_symmetry_Int_Tables_number  63
_chemical_formula_structural  Al6Re
_chemical_formula_sum  Al2Re2
_cell_volume  231.87129184694984
_cell_formula_units_Z  2
loop_
  _symmetry_equiv_pos_site_id
 _symmetry_equiv_pos_as_xyz
 1  'x, y, z'
loop_
 _atom_site_type_symbol
 _atom_site_label
 _atom_site_symmetry_multiplicity
 _atom_site_fract_x
 _atom_site_fract_y
 _atom_site_fract_z
 _atom_site_fract_occupancy
 Al  Al1  1  0.32448  0.67552  0.00000  1
 Al  Al2  1  0.67552  0.32448  0.50000  1
 Al  Al3  1  0.67552  0.32448  0.00000  1
 Al  Al4  1  0.32448  0.67552  0.50000  1
 Al  Al5  1  0.12872  0.12872  0.60148  1
 Al  Al6  1  0.87128  0.87128  0.10148  1
 Al  Al7  1  0.12872  0.12872  0.89852  1
 Al  Al8  1  0.87128  0.87128  0.39852  1
 Al  Al9  1  0.39083  0.03107  0.25000  1
 Al  Al10  1  0.60917  0.96893  0.75000  1
 Al  Al11  1  0.03107  0.39083  0.25000  1
 Al  Al12  1  0.96893  0.60917  0.75000  1
 Re  Re1  1  0.54644  0.54644  0.25000  1
 Re  Re2  1  0.45356  0.45356  0.75000  1
