CIF file written using JARVIS-Tools package.
data_Pr2AlNO3
_symmetry_space_group_name_H-M  'I4mm'
_cell_length_a       3.75232
_cell_length_b       3.75232
_cell_length_c       6.87485
_cell_angle_alpha    105.837
_cell_angle_beta     105.837
_cell_angle_gamma    90

_symmetry_Int_Tables_number  107
_chemical_formula_structural  Pr2AlNO3
_chemical_formula_sum  Pr2AlNO3
_cell_volume  89.29770478917098
_cell_formula_units_Z  1
loop_
  _symmetry_equiv_pos_site_id
 _symmetry_equiv_pos_as_xyz
 1  'x, y, z'
loop_
 _atom_site_type_symbol
 _atom_site_label
 _atom_site_symmetry_multiplicity
 _atom_site_fract_x
 _atom_site_fract_y
 _atom_site_fract_z
 _atom_site_fract_occupancy
 Al  Al1  1  0.15783  0.15783  0.31567  1
 N  N1  1  0.99762  0.99762  0.99525  1
 O  O1  1  0.16981  0.66981  0.33962  1
 O  O2  1  0.66981  0.16981  0.33962  1
 O  O3  1  0.32890  0.32890  0.65780  1
 Pr  Pr1  1  0.52023  0.52023  0.04045  1
 Pr  Pr2  1  0.80849  0.80849  0.61699  1
