CIF file written using JARVIS-Tools package.
data_AlCr3B4
_symmetry_space_group_name_H-M  'Pmmm'
_cell_length_a       2.95047
_cell_length_b       2.93803
_cell_length_c       8.08056
_cell_angle_alpha    90
_cell_angle_beta     90
_cell_angle_gamma    90

_symmetry_Int_Tables_number  47
_chemical_formula_structural  AlCr3B4
_chemical_formula_sum  AlCr3B4
_cell_volume  70.04675479535022
_cell_formula_units_Z  1
loop_
  _symmetry_equiv_pos_site_id
 _symmetry_equiv_pos_as_xyz
 1  'x, y, z'
loop_
 _atom_site_type_symbol
 _atom_site_label
 _atom_site_symmetry_multiplicity
 _atom_site_fract_x
 _atom_site_fract_y
 _atom_site_fract_z
 _atom_site_fract_occupancy
 Al  Al1  1  0.50000  0.50000  0.50000  1
 B  B1  1  0.50000  0.00000  0.10781  1
 B  B2  1  0.50000  0.50000  0.22229  1
 B  B3  1  0.50000  0.00000  0.89219  1
 B  B4  1  0.50000  0.50000  0.77771  1
 Cr  Cr1  1  0.00000  0.00000  0.70229  1
 Cr  Cr2  1  0.00000  0.00000  0.29771  1
 Cr  Cr3  1  0.00000  0.50000  0.00000  1
