CIF file written using JARVIS-Tools package.
data_Li2MnF6
_symmetry_space_group_name_H-M  'I4/mmm'
_cell_length_a       6.15834
_cell_length_b       6.15834
_cell_length_c       6.04656
_cell_angle_alpha    90
_cell_angle_beta     90
_cell_angle_gamma    90

_symmetry_Int_Tables_number  139
_chemical_formula_structural  Li2MnF6
_chemical_formula_sum  Li4Mn2F2
_cell_volume  229.31662846168354
_cell_formula_units_Z  2
loop_
  _symmetry_equiv_pos_site_id
 _symmetry_equiv_pos_as_xyz
 1  'x, y, z'
loop_
 _atom_site_type_symbol
 _atom_site_label
 _atom_site_symmetry_multiplicity
 _atom_site_fract_x
 _atom_site_fract_y
 _atom_site_fract_z
 _atom_site_fract_occupancy
 F  F1  1  0.50045  0.69978  0.25001  1
 F  F2  1  0.19978  0.99955  0.25001  1
 F  F3  1  0.00045  0.80022  0.74999  1
 F  F4  1  0.80022  0.00045  0.25001  1
 F  F5  1  0.00000  0.50000  0.04466  1
 F  F6  1  0.00000  0.50000  0.45531  1
 F  F7  1  0.30022  0.49955  0.74999  1
 F  F8  1  0.69978  0.50045  0.74999  1
 F  F9  1  0.99955  0.19978  0.74999  1
 F  F10  1  0.50000  0.00000  0.95534  1
 F  F11  1  0.50000  0.00000  0.54469  1
 F  F12  1  0.49955  0.30022  0.25001  1
 Li  Li1  1  0.50000  0.50000  0.50000  1
 Li  Li2  1  0.50000  0.50000  0.00000  1
 Li  Li3  1  0.00000  0.00000  0.50000  1
 Li  Li4  1  0.00000  0.00000  0.00000  1
 Mn  Mn1  1  0.50000  0.00000  0.25001  1
 Mn  Mn2  1  0.00000  0.50000  0.74999  1
