CIF file written using JARVIS-Tools package.
data_Mg4As6Ir7
_symmetry_space_group_name_H-M  'Im-3m'
_cell_length_a       7.10406
_cell_length_b       7.10406
_cell_length_c       7.10406
_cell_angle_alpha    109.471
_cell_angle_beta     109.471
_cell_angle_gamma    109.471

_symmetry_Int_Tables_number  229
_chemical_formula_structural  Mg4As6Ir7
_chemical_formula_sum  Mg4As6Ir7
_cell_volume  275.9925972640806
_cell_formula_units_Z  1
loop_
  _symmetry_equiv_pos_site_id
 _symmetry_equiv_pos_as_xyz
 1  'x, y, z'
loop_
 _atom_site_type_symbol
 _atom_site_label
 _atom_site_symmetry_multiplicity
 _atom_site_fract_x
 _atom_site_fract_y
 _atom_site_fract_z
 _atom_site_fract_occupancy
 As  As1  1  0.31282  0.31282  -0.00000  1
 As  As2  1  -0.00000  0.31282  0.31282  1
 As  As3  1  0.31282  0.00000  0.31282  1
 As  As4  1  0.00000  0.68718  0.68718  1
 As  As5  1  0.68718  0.68718  0.00000  1
 As  As6  1  0.68718  0.00000  0.68718  1
 Ir  Ir1  1  0.25000  0.50000  0.75000  1
 Ir  Ir2  1  0.75000  0.25000  0.50000  1
 Ir  Ir3  1  0.50000  0.25000  0.75000  1
 Ir  Ir4  1  0.00000  0.00000  0.00000  1
 Ir  Ir5  1  0.25000  0.75000  0.50000  1
 Ir  Ir6  1  0.75000  0.50000  0.25000  1
 Ir  Ir7  1  0.50000  0.75000  0.25000  1
 Mg  Mg1  1  0.00000  0.00000  0.50000  1
 Mg  Mg2  1  -0.00000  0.50000  -0.00000  1
 Mg  Mg3  1  0.50000  0.00000  -0.00000  1
 Mg  Mg4  1  0.50000  0.50000  0.50000  1
