CIF file written using JARVIS-Tools package.
data_ZrNCl
_symmetry_space_group_name_H-M  'P-3m1'
_cell_length_a       3.4435
_cell_length_b       3.44365
_cell_length_c       11.1628
_cell_angle_alpha    89.9872
_cell_angle_beta     89.9866
_cell_angle_gamma    120.003

_symmetry_Int_Tables_number  164
_chemical_formula_structural  ZrNCl
_chemical_formula_sum  Zr2N2Cl2
_cell_volume  114.6326437412821
_cell_formula_units_Z  2
loop_
  _symmetry_equiv_pos_site_id
 _symmetry_equiv_pos_as_xyz
 1  'x, y, z'
loop_
 _atom_site_type_symbol
 _atom_site_label
 _atom_site_symmetry_multiplicity
 _atom_site_fract_x
 _atom_site_fract_y
 _atom_site_fract_z
 _atom_site_fract_occupancy
 Cl  Cl1  1  0.33339  0.66673  0.63724  1
 Cl  Cl2  1  0.66661  0.33327  0.36276  1
 N  N1  1  0.66643  0.33314  0.85967  1
 N  N2  1  0.33357  0.66686  0.14033  1
 Zr  Zr1  1  -0.00016  -0.00011  0.80368  1
 Zr  Zr2  1  0.00016  0.00011  0.19632  1
