CIF file written using JARVIS-Tools package.
data_Mg4Ta2O9
_symmetry_space_group_name_H-M  'P-3c1'
_cell_length_a       5.18994
_cell_length_b       5.18994
_cell_length_c       14.1233
_cell_angle_alpha    90
_cell_angle_beta     90
_cell_angle_gamma    120

_symmetry_Int_Tables_number  165
_chemical_formula_structural  Mg4Ta2O9
_chemical_formula_sum  Mg8Ta4O8
_cell_volume  329.452394066566
_cell_formula_units_Z  2
loop_
  _symmetry_equiv_pos_site_id
 _symmetry_equiv_pos_as_xyz
 1  'x, y, z'
loop_
 _atom_site_type_symbol
 _atom_site_label
 _atom_site_symmetry_multiplicity
 _atom_site_fract_x
 _atom_site_fract_y
 _atom_site_fract_z
 _atom_site_fract_occupancy
 Mg  Mg1  1  0.33333  0.66667  0.98363  1
 Mg  Mg2  1  0.66667  0.33333  0.51637  1
 Mg  Mg3  1  0.66667  0.33333  0.01637  1
 Mg  Mg4  1  0.33333  0.66667  0.48363  1
 Mg  Mg5  1  0.33333  0.66667  0.19088  1
 Mg  Mg6  1  0.66667  0.33333  0.30912  1
 Mg  Mg7  1  0.66667  0.33333  0.80912  1
 Mg  Mg8  1  0.33333  0.66667  0.69088  1
 O  O1  1  0.71069  0.71069  0.25000  1
 O  O2  1  0.68110  0.02841  0.41555  1
 O  O3  1  0.28931  0.28931  0.75000  1
 O  O4  1  -0.00000  0.71069  0.75000  1
 O  O5  1  0.28931  0.00000  0.25000  1
 O  O6  1  0.65268  0.68110  0.58445  1
 O  O7  1  0.00000  0.28931  0.25000  1
 O  O8  1  0.97159  0.65268  0.41555  1
 O  O9  1  0.71069  -0.00000  0.75000  1
 O  O10  1  0.02841  0.68110  0.08445  1
 O  O11  1  0.68110  0.65268  0.91555  1
 O  O12  1  0.65268  0.97159  0.08445  1
 O  O13  1  0.34732  0.02841  0.91555  1
 O  O14  1  0.34732  0.31890  0.41555  1
 O  O15  1  0.97159  0.31890  0.91555  1
 O  O16  1  0.02841  0.34732  0.58445  1
 O  O17  1  0.31890  0.34732  0.08445  1
 O  O18  1  0.31890  0.97159  0.58445  1
 Ta  Ta1  1  0.00000  0.00000  0.64254  1
 Ta  Ta2  1  0.00000  0.00000  0.85746  1
 Ta  Ta3  1  0.00000  0.00000  0.35746  1
 Ta  Ta4  1  0.00000  0.00000  0.14254  1
