CIF file written using JARVIS-Tools package.
data_CePaO4
_symmetry_space_group_name_H-M  'I4_1/amd'
_cell_length_a       5.49011
_cell_length_b       5.49007
_cell_length_c       6.69585
_cell_angle_alpha    114.196
_cell_angle_beta     114.197
_cell_angle_gamma    90.0066

_symmetry_Int_Tables_number  141
_chemical_formula_structural  CePaO4
_chemical_formula_sum  Ce2Pa2O8
_cell_volume  164.45274122745607
_cell_formula_units_Z  2
loop_
  _symmetry_equiv_pos_site_id
 _symmetry_equiv_pos_as_xyz
 1  'x, y, z'
loop_
 _atom_site_type_symbol
 _atom_site_label
 _atom_site_symmetry_multiplicity
 _atom_site_fract_x
 _atom_site_fract_y
 _atom_site_fract_z
 _atom_site_fract_occupancy
 Ce  Ce1  1  0.50000  0.50000  1.00000  1
 Ce  Ce2  1  0.25000  0.75000  0.50000  1
 O  O1  1  0.11207  0.62500  0.75001  1
 O  O2  1  0.63793  0.12500  0.75000  1
 O  O3  1  0.11207  0.12500  0.75000  1
 O  O4  1  0.37500  0.36207  0.25001  1
 O  O5  1  0.63793  0.62500  0.75000  1
 O  O6  1  0.87500  0.88793  0.25000  1
 O  O7  1  0.37500  0.88793  0.24999  1
 O  O8  1  0.87500  0.36207  0.25000  1
 Pa  Pa1  1  0.00000  -0.00000  0.00000  1
 Pa  Pa2  1  0.75000  0.25000  0.50000  1
