CIF file written using JARVIS-Tools package.
data_TiAg
_symmetry_space_group_name_H-M  'P4/nmm'
_cell_length_a       2.89938
_cell_length_b       2.89938
_cell_length_c       8.19251
_cell_angle_alpha    90
_cell_angle_beta     90
_cell_angle_gamma    90

_symmetry_Int_Tables_number  129
_chemical_formula_structural  TiAg
_chemical_formula_sum  Ti2Ag2
_cell_volume  68.86973157555369
_cell_formula_units_Z  2
loop_
  _symmetry_equiv_pos_site_id
 _symmetry_equiv_pos_as_xyz
 1  'x, y, z'
loop_
 _atom_site_type_symbol
 _atom_site_label
 _atom_site_symmetry_multiplicity
 _atom_site_fract_x
 _atom_site_fract_y
 _atom_site_fract_z
 _atom_site_fract_occupancy
 Ag  Ag1  1  0.50000  0.00000  0.37082  1
 Ag  Ag2  1  0.00000  0.50000  0.62918  1
 Ti  Ti1  1  0.50000  0.00000  0.88468  1
 Ti  Ti2  1  0.00000  0.50000  0.11532  1
