CIF file written using JARVIS-Tools package.
data_ZnH8N4Cl2
_symmetry_space_group_name_H-M  'C2/m'
_cell_length_a       5.99039
_cell_length_b       5.99039
_cell_length_c       4.13836
_cell_angle_alpha    77.9277
_cell_angle_beta     102.072
_cell_angle_gamma    97.1529

_symmetry_Int_Tables_number  12
_chemical_formula_structural  ZnH8N4Cl2
_chemical_formula_sum  ZnH8N4Cl2
_cell_volume  141.50050531643842
_cell_formula_units_Z  1
loop_
  _symmetry_equiv_pos_site_id
 _symmetry_equiv_pos_as_xyz
 1  'x, y, z'
loop_
 _atom_site_type_symbol
 _atom_site_label
 _atom_site_symmetry_multiplicity
 _atom_site_fract_x
 _atom_site_fract_y
 _atom_site_fract_z
 _atom_site_fract_occupancy
 Cl  Cl1  1  0.70873  0.29127  0.97820  1
 Cl  Cl2  1  0.29127  0.70873  0.02180  1
 H  H1  1  0.00335  0.32395  0.45205  1
 H  H2  1  0.67605  0.99665  0.45205  1
 H  H3  1  0.99665  0.67605  0.54795  1
 H  H4  1  0.32395  0.00335  0.54795  1
 H  H5  1  0.25537  0.36403  0.70924  1
 H  H6  1  0.63597  0.74463  0.70924  1
 H  H7  1  0.74463  0.63597  0.29076  1
 H  H8  1  0.36403  0.25537  0.29076  1
 N  N1  1  0.13998  0.24290  0.60658  1
 N  N2  1  0.75710  0.86002  0.60658  1
 N  N3  1  0.86002  0.75710  0.39342  1
 N  N4  1  0.24290  0.13998  0.39342  1
 Zn  Zn1  1  0.00000  0.00000  0.00000  1
