CIF file written using JARVIS-Tools package.
data_BaEr2F8
_symmetry_space_group_name_H-M  'C2/m'
_cell_length_a       4.25523
_cell_length_b       6.28478
_cell_length_c       6.28477
_cell_angle_alpha    112.878
_cell_angle_beta     95.2541
_cell_angle_gamma    95.2542

_symmetry_Int_Tables_number  12
_chemical_formula_structural  BaEr2F8
_chemical_formula_sum  BaEr2F8
_cell_volume  152.71376634295746
_cell_formula_units_Z  1
loop_
  _symmetry_equiv_pos_site_id
 _symmetry_equiv_pos_as_xyz
 1  'x, y, z'
loop_
 _atom_site_type_symbol
 _atom_site_label
 _atom_site_symmetry_multiplicity
 _atom_site_fract_x
 _atom_site_fract_y
 _atom_site_fract_z
 _atom_site_fract_occupancy
 Ba  Ba1  1  0.00000  0.00000  0.00000  1
 Er  Er1  1  0.50000  0.32427  0.67573  1
 Er  Er2  1  0.50000  0.67573  0.32427  1
 F  F1  1  0.00000  0.73879  0.26121  1
 F  F2  1  1.00000  0.26121  0.73879  1
 F  F3  1  0.22344  0.39373  0.39373  1
 F  F4  1  0.43691  0.67175  0.95267  1
 F  F5  1  0.56309  0.04733  0.32825  1
 F  F6  1  0.56309  0.32825  0.04733  1
 F  F7  1  0.43691  0.95267  0.67175  1
 F  F8  1  0.77656  0.60627  0.60627  1
