CIF file written using JARVIS-Tools package.
data_PrAlSi2
_symmetry_space_group_name_H-M  'P-3m1'
_cell_length_a       4.2063
_cell_length_b       4.2063
_cell_length_c       11.2274
_cell_angle_alpha    90
_cell_angle_beta     90
_cell_angle_gamma    120

_symmetry_Int_Tables_number  164
_chemical_formula_structural  PrAlSi2
_chemical_formula_sum  Pr2Al2Si4
_cell_volume  172.0324503055374
_cell_formula_units_Z  2
loop_
  _symmetry_equiv_pos_site_id
 _symmetry_equiv_pos_as_xyz
 1  'x, y, z'
loop_
 _atom_site_type_symbol
 _atom_site_label
 _atom_site_symmetry_multiplicity
 _atom_site_fract_x
 _atom_site_fract_y
 _atom_site_fract_z
 _atom_site_fract_occupancy
 Al  Al1  1  0.66667  0.33333  0.41459  1
 Al  Al2  1  0.33333  0.66667  0.58541  1
 Pr  Pr1  1  0.00000  0.00000  0.18220  1
 Pr  Pr2  1  0.00000  0.00000  0.81780  1
 Si  Si1  1  0.66667  0.33333  0.64397  1
 Si  Si2  1  0.33333  0.66667  0.99367  1
 Si  Si3  1  0.66667  0.33333  0.00633  1
 Si  Si4  1  0.33333  0.66667  0.35603  1
