CIF file written using JARVIS-Tools package.
data_MgTi2S4
_symmetry_space_group_name_H-M  'Fd-3m'
_cell_length_a       7.30911
_cell_length_b       7.30911
_cell_length_c       7.31029
_cell_angle_alpha    119.995
_cell_angle_beta     119.995
_cell_angle_gamma    90

_symmetry_Int_Tables_number  227
_chemical_formula_structural  MgTi2S4
_chemical_formula_sum  Mg2Ti4S8
_cell_volume  276.1966025899256
_cell_formula_units_Z  2
loop_
  _symmetry_equiv_pos_site_id
 _symmetry_equiv_pos_as_xyz
 1  'x, y, z'
loop_
 _atom_site_type_symbol
 _atom_site_label
 _atom_site_symmetry_multiplicity
 _atom_site_fract_x
 _atom_site_fract_y
 _atom_site_fract_z
 _atom_site_fract_occupancy
 Mg  Mg1  1  0.37500  0.62500  0.75000  1
 Mg  Mg2  1  0.62500  0.37500  0.25000  1
 S  S1  1  0.75909  0.77714  0.51818  1
 S  S2  1  0.75897  0.24091  0.98182  1
 S  S3  1  0.22286  0.24091  0.98182  1
 S  S4  1  0.24091  0.22286  0.48182  1
 S  S5  1  0.24091  0.75897  0.48182  1
 S  S6  1  0.24103  0.75909  0.01818  1
 S  S7  1  0.75909  0.24103  0.51818  1
 S  S8  1  0.77714  0.75909  0.01818  1
 Ti  Ti1  1  -0.00000  0.00000  0.50000  1
 Ti  Ti2  1  -0.00000  0.50000  0.00000  1
 Ti  Ti3  1  0.50000  0.00000  0.50000  1
 Ti  Ti4  1  0.00000  0.00000  0.00000  1
