CIF file written using JARVIS-Tools package.
data_MgAlPO5
_symmetry_space_group_name_H-M  'P2_1/c'
_cell_length_a       5.47525
_cell_length_b       10.4102
_cell_length_c       7.16386
_cell_angle_alpha    90
_cell_angle_beta     98.5438
_cell_angle_gamma    90

_symmetry_Int_Tables_number  14
_chemical_formula_structural  MgAlPO5
_chemical_formula_sum  Mg4Al4P4O20
_cell_volume  403.7959191050325
_cell_formula_units_Z  4
loop_
  _symmetry_equiv_pos_site_id
 _symmetry_equiv_pos_as_xyz
 1  'x, y, z'
loop_
 _atom_site_type_symbol
 _atom_site_label
 _atom_site_symmetry_multiplicity
 _atom_site_fract_x
 _atom_site_fract_y
 _atom_site_fract_z
 _atom_site_fract_occupancy
 Al  Al1  1  0.44146  0.82567  0.63981  1
 Al  Al2  1  0.05854  0.32567  0.36019  1
 Al  Al3  1  0.55854  0.17433  0.36019  1
 Al  Al4  1  0.94146  0.67433  0.63981  1
 Mg  Mg1  1  0.88488  0.85822  0.98462  1
 Mg  Mg2  1  0.61512  0.35822  0.01538  1
 Mg  Mg3  1  0.11512  0.14178  0.01538  1
 Mg  Mg4  1  0.38488  0.64178  0.98462  1
 O  O1  1  0.81066  0.04555  0.88996  1
 O  O2  1  0.56127  0.81497  0.08559  1
 O  O3  1  0.93873  0.31497  0.91441  1
 O  O4  1  0.43873  0.18503  0.91441  1
 O  O5  1  0.18934  0.95445  0.11004  1
 O  O6  1  0.61802  0.17662  0.60920  1
 O  O7  1  0.68934  0.54555  0.11004  1
 O  O8  1  0.10990  0.48561  0.28514  1
 O  O9  1  0.31066  0.45445  0.88996  1
 O  O10  1  0.06127  0.68503  0.08559  1
 O  O11  1  0.89010  0.51439  0.71486  1
 O  O12  1  0.24548  0.71779  0.73133  1
 O  O13  1  0.75452  0.28221  0.26867  1
 O  O14  1  0.25452  0.21779  0.26867  1
 O  O15  1  0.39010  0.98561  0.71486  1
 O  O16  1  0.38198  0.82338  0.39080  1
 O  O17  1  0.11802  0.32338  0.60920  1
 O  O18  1  0.60990  0.01439  0.28514  1
 O  O19  1  0.74548  0.78221  0.73133  1
 O  O20  1  0.88198  0.67662  0.39080  1
 P  P1  1  0.06575  0.40146  0.78150  1
 P  P2  1  0.43425  0.90146  0.21850  1
 P  P3  1  0.56575  0.09854  0.78150  1
 P  P4  1  0.93425  0.59854  0.21850  1
