CIF file written using JARVIS-Tools package.
data_Na2LiAu3
_symmetry_space_group_name_H-M  'P6_3/mmc'
_cell_length_a       5.62257
_cell_length_b       5.62257
_cell_length_c       8.52343
_cell_angle_alpha    90
_cell_angle_beta     90
_cell_angle_gamma    120

_symmetry_Int_Tables_number  194
_chemical_formula_structural  Na2LiAu3
_chemical_formula_sum  Na4Li2Au6
_cell_volume  233.35353314308367
_cell_formula_units_Z  2
loop_
  _symmetry_equiv_pos_site_id
 _symmetry_equiv_pos_as_xyz
 1  'x, y, z'
loop_
 _atom_site_type_symbol
 _atom_site_label
 _atom_site_symmetry_multiplicity
 _atom_site_fract_x
 _atom_site_fract_y
 _atom_site_fract_z
 _atom_site_fract_occupancy
 Au  Au1  1  0.33601  0.16800  0.75000  1
 Au  Au2  1  0.16800  0.33601  0.25000  1
 Au  Au3  1  0.16800  0.83200  0.25000  1
 Au  Au4  1  0.83200  0.16800  0.75000  1
 Au  Au5  1  0.83200  0.66399  0.75000  1
 Au  Au6  1  0.66399  0.83200  0.25000  1
 Li  Li1  1  0.00000  0.00000  0.00000  1
 Li  Li2  1  0.00000  0.00000  0.50000  1
 Na  Na1  1  0.66667  0.33333  0.06860  1
 Na  Na2  1  0.33333  0.66667  0.93140  1
 Na  Na3  1  0.33333  0.66667  0.56860  1
 Na  Na4  1  0.66667  0.33333  0.43140  1
