CIF file written using JARVIS-Tools package.
data_V3P2O8
_symmetry_space_group_name_H-M  'P2_1/c'
_cell_length_a       6.01214
_cell_length_b       4.80515
_cell_length_c       10.4868
_cell_angle_alpha    90
_cell_angle_beta     91.7087
_cell_angle_gamma    90

_symmetry_Int_Tables_number  14
_chemical_formula_structural  V3P2O8
_chemical_formula_sum  V6P4O6
_cell_volume  302.82096222441857
_cell_formula_units_Z  2
loop_
  _symmetry_equiv_pos_site_id
 _symmetry_equiv_pos_as_xyz
 1  'x, y, z'
loop_
 _atom_site_type_symbol
 _atom_site_label
 _atom_site_symmetry_multiplicity
 _atom_site_fract_x
 _atom_site_fract_y
 _atom_site_fract_z
 _atom_site_fract_occupancy
 O  O1  1  0.74451  0.18533  0.54334  1
 O  O2  1  0.05303  0.80667  0.67070  1
 O  O3  1  0.05303  0.69333  0.17070  1
 O  O4  1  0.94697  0.30667  0.82930  1
 O  O5  1  0.25549  0.81467  0.45666  1
 O  O6  1  0.26964  0.24337  0.60241  1
 O  O7  1  0.26964  0.25663  0.10241  1
 O  O8  1  0.25549  0.68533  0.95666  1
 O  O9  1  0.45935  0.73141  0.16168  1
 O  O10  1  0.54065  0.23141  0.33832  1
 O  O11  1  0.73036  0.74337  0.89759  1
 O  O12  1  0.73036  0.75663  0.39759  1
 O  O13  1  0.94697  0.19333  0.32930  1
 O  O14  1  0.74451  0.31467  0.04334  1
 O  O15  1  0.54065  0.26859  0.83832  1
 O  O16  1  0.45935  0.76859  0.66168  1
 P  P1  1  0.24879  0.57502  0.09548  1
 P  P2  1  0.24879  0.92498  0.59548  1
 P  P3  1  0.75121  0.42498  0.90452  1
 P  P4  1  0.75121  0.07502  0.40452  1
 V  V1  1  0.75438  0.51038  0.22542  1
 V  V2  1  0.75438  0.98962  0.72542  1
 V  V3  1  0.50000  0.00000  0.00000  1
 V  V4  1  0.50000  0.50000  0.50000  1
 V  V5  1  0.24562  0.01038  0.27458  1
 V  V6  1  0.24562  0.48962  0.77458  1
