CIF file written using JARVIS-Tools package.
data_Li5MnNi4O10
_symmetry_space_group_name_H-M  'P-1'
_cell_length_a       2.88816
_cell_length_b       6.45435
_cell_length_c       9.61411
_cell_angle_alpha    102.043
_cell_angle_beta     89.0492
_cell_angle_gamma    102.87

_symmetry_Int_Tables_number  2
_chemical_formula_structural  Li5MnNi4O10
_chemical_formula_sum  Li5MnNi4O0
_cell_volume  170.78663397119857
_cell_formula_units_Z  1
loop_
  _symmetry_equiv_pos_site_id
 _symmetry_equiv_pos_as_xyz
 1  'x, y, z'
loop_
 _atom_site_type_symbol
 _atom_site_label
 _atom_site_symmetry_multiplicity
 _atom_site_fract_x
 _atom_site_fract_y
 _atom_site_fract_z
 _atom_site_fract_occupancy
 Li  Li1  1  0.39927  0.80901  0.20203  1
 Li  Li2  1  0.19995  0.40000  0.60000  1
 Li  Li3  1  0.00078  0.99099  0.99797  1
 Li  Li4  1  0.79584  0.60511  0.40423  1
 Li  Li5  1  0.60409  0.19489  0.79577  1
 Mn  Mn1  1  0.70002  0.40000  0.10000  1
 Ni  Ni1  1  0.09139  0.20068  0.30124  1
 Ni  Ni2  1  0.30863  0.59932  0.89877  1
 Ni  Ni3  1  0.48898  0.99888  0.49980  1
 Ni  Ni4  1  0.91101  0.80112  0.70020  1
 O  O1  1  0.84012  0.67814  0.04809  1
 O  O2  1  0.92145  0.90908  0.36113  1
 O  O3  1  0.23934  0.49414  0.23437  1
 O  O4  1  0.05364  0.08093  0.64280  1
 O  O5  1  0.34632  0.71906  0.55720  1
 O  O6  1  0.47856  0.89092  0.83888  1
 O  O7  1  0.16071  0.30586  0.96564  1
 O  O8  1  0.55992  0.12187  0.15191  1
 O  O9  1  0.61970  0.27791  0.44440  1
 O  O10  1  0.78030  0.52209  0.75560  1
