CIF file written using JARVIS-Tools package.
data_Nd2Zr2O7
_symmetry_space_group_name_H-M  'Pmma'
_cell_length_a       3.65546
_cell_length_b       7.63268
_cell_length_c       10.9743
_cell_angle_alpha    90
_cell_angle_beta     90
_cell_angle_gamma    90

_symmetry_Int_Tables_number  51
_chemical_formula_structural  Nd2Zr2O7
_chemical_formula_sum  Nd4Zr4O4
_cell_volume  306.1934334242158
_cell_formula_units_Z  2
loop_
  _symmetry_equiv_pos_site_id
 _symmetry_equiv_pos_as_xyz
 1  'x, y, z'
loop_
 _atom_site_type_symbol
 _atom_site_label
 _atom_site_symmetry_multiplicity
 _atom_site_fract_x
 _atom_site_fract_y
 _atom_site_fract_z
 _atom_site_fract_occupancy
 Nd  Nd1  1  0.50000  0.50000  0.50000  1
 Nd  Nd2  1  0.00000  0.75000  0.77843  1
 Nd  Nd3  1  0.50000  0.00000  0.50000  1
 Nd  Nd4  1  0.00000  0.25000  0.22157  1
 O  O1  1  0.00000  0.46378  0.36538  1
 O  O2  1  0.50000  0.75000  0.13391  1
 O  O3  1  0.00000  0.97485  0.11381  1
 O  O4  1  0.00000  0.47485  0.88619  1
 O  O5  1  0.00000  0.02515  0.88619  1
 O  O6  1  0.00000  0.52515  0.11381  1
 O  O7  1  0.50000  0.25000  0.63038  1
 O  O8  1  0.00000  0.53622  0.63462  1
 O  O9  1  0.00000  0.03622  0.36538  1
 O  O10  1  0.50000  0.75000  0.90117  1
 O  O11  1  0.50000  0.75000  0.36962  1
 O  O12  1  0.50000  0.25000  0.09883  1
 O  O13  1  0.00000  0.96378  0.63462  1
 O  O14  1  0.50000  0.25000  0.86609  1
 Zr  Zr1  1  0.50000  0.50000  0.00000  1
 Zr  Zr2  1  0.50000  0.00000  0.00000  1
 Zr  Zr3  1  0.00000  0.75000  0.23889  1
 Zr  Zr4  1  0.00000  0.25000  0.76111  1
