CIF file written using JARVIS-Tools package.
data_Te2Mo3WSe4S2
_symmetry_space_group_name_H-M  'P3m1'
_cell_length_a       3.34581
_cell_length_b       3.3456
_cell_length_c       34.4778
_cell_angle_alpha    89.9791
_cell_angle_beta     90
_cell_angle_gamma    120.002

_symmetry_Int_Tables_number  156
_chemical_formula_structural  Te2Mo3WSe4S2
_chemical_formula_sum  Te2Mo3WSe4S2
_cell_volume  334.2230946327299
_cell_formula_units_Z  1
loop_
  _symmetry_equiv_pos_site_id
 _symmetry_equiv_pos_as_xyz
 1  'x, y, z'
loop_
 _atom_site_type_symbol
 _atom_site_label
 _atom_site_symmetry_multiplicity
 _atom_site_fract_x
 _atom_site_fract_y
 _atom_site_fract_z
 _atom_site_fract_occupancy
 Mo  Mo1  1  0.33313  0.66625  0.09166  1
 Mo  Mo2  1  0.66663  0.33326  0.28265  1
 Mo  Mo3  1  0.66683  0.33366  0.66206  1
 S  S1  1  0.66683  0.33366  0.42235  1
 S  S2  1  0.66667  0.33333  0.51083  1
 Se  Se1  1  0.33310  0.66620  0.33098  1
 Se  Se2  1  0.66645  0.33290  0.04335  1
 Se  Se3  1  0.66643  0.33285  0.14004  1
 Se  Se4  1  0.33353  0.66706  0.23428  1
 Te  Te1  1  0.33349  0.66697  0.71713  1
 Te  Te2  1  0.33351  0.66702  0.60682  1
 W  W1  1  0.33342  0.66684  0.46660  1
