CIF file written using JARVIS-Tools package.
data_NbCoTe2
_symmetry_space_group_name_H-M  'P2_1/c'
_cell_length_a       6.36299
_cell_length_b       7.83917
_cell_length_c       8.2677
_cell_angle_alpha    116.581
_cell_angle_beta     90
_cell_angle_gamma    90

_symmetry_Int_Tables_number  14
_chemical_formula_structural  NbCoTe2
_chemical_formula_sum  Nb4Co4Te8
_cell_volume  368.81036740527014
_cell_formula_units_Z  4
loop_
  _symmetry_equiv_pos_site_id
 _symmetry_equiv_pos_as_xyz
 1  'x, y, z'
loop_
 _atom_site_type_symbol
 _atom_site_label
 _atom_site_symmetry_multiplicity
 _atom_site_fract_x
 _atom_site_fract_y
 _atom_site_fract_z
 _atom_site_fract_occupancy
 Co  Co1  1  0.14560  0.05875  0.61173  1
 Co  Co2  1  0.64560  0.44125  0.38827  1
 Co  Co3  1  0.35440  0.55875  0.61173  1
 Co  Co4  1  0.85440  0.94125  0.38827  1
 Nb  Nb1  1  0.51617  0.80544  0.51370  1
 Nb  Nb2  1  0.48383  0.19456  0.48630  1
 Nb  Nb3  1  0.01617  0.69456  0.48630  1
 Nb  Nb4  1  0.98383  0.30544  0.51370  1
 Te  Te1  1  0.74454  0.63613  0.72750  1
 Te  Te2  1  0.25102  0.40836  0.81735  1
 Te  Te3  1  0.75102  0.09164  0.18265  1
 Te  Te4  1  0.24454  0.86387  0.27250  1
 Te  Te5  1  0.24898  0.90836  0.81735  1
 Te  Te6  1  0.74898  0.59164  0.18265  1
 Te  Te7  1  0.75546  0.13613  0.72750  1
 Te  Te8  1  0.25546  0.36387  0.27250  1
