CIF file written using JARVIS-Tools package.
data_SrHgPb
_symmetry_space_group_name_H-M  'P6_3mc'
_cell_length_a       5.08905
_cell_length_b       5.08952
_cell_length_c       8.23797
_cell_angle_alpha    90
_cell_angle_beta     90
_cell_angle_gamma    119.997

_symmetry_Int_Tables_number  186
_chemical_formula_structural  SrHgPb
_chemical_formula_sum  Sr2Hg2Pb2
_cell_volume  184.78980243101662
_cell_formula_units_Z  2
loop_
  _symmetry_equiv_pos_site_id
 _symmetry_equiv_pos_as_xyz
 1  'x, y, z'
loop_
 _atom_site_type_symbol
 _atom_site_label
 _atom_site_symmetry_multiplicity
 _atom_site_fract_x
 _atom_site_fract_y
 _atom_site_fract_z
 _atom_site_fract_occupancy
 Hg  Hg1  1  0.66664  0.33328  0.47478  1
 Hg  Hg2  1  0.33336  0.66672  0.97478  1
 Pb  Pb1  1  0.66668  0.33335  0.87949  1
 Pb  Pb2  1  0.33332  0.66665  0.37949  1
 Sr  Sr1  1  0.99996  0.99991  0.66573  1
 Sr  Sr2  1  0.00004  0.00009  0.16573  1
