CIF file written using JARVIS-Tools package.
data_TmAl4Ni
_symmetry_space_group_name_H-M  'Cmcm'
_cell_length_a       4.04106
_cell_length_b       6.65749
_cell_length_c       7.8969
_cell_angle_alpha    90
_cell_angle_beta     104.825
_cell_angle_gamma    90

_symmetry_Int_Tables_number  63
_chemical_formula_structural  TmAl4Ni
_chemical_formula_sum  Tm2Al8Ni2
_cell_volume  205.3807208876577
_cell_formula_units_Z  2
loop_
  _symmetry_equiv_pos_site_id
 _symmetry_equiv_pos_as_xyz
 1  'x, y, z'
loop_
 _atom_site_type_symbol
 _atom_site_label
 _atom_site_symmetry_multiplicity
 _atom_site_fract_x
 _atom_site_fract_y
 _atom_site_fract_z
 _atom_site_fract_occupancy
 Al  Al1  1  0.50000  0.00000  0.00000  1
 Al  Al2  1  0.50000  0.50000  0.00000  1
 Al  Al3  1  0.07485  0.25000  0.14969  1
 Al  Al4  1  0.92515  0.75000  0.85031  1
 Al  Al5  1  0.68771  0.05235  0.37542  1
 Al  Al6  1  0.31229  0.94765  0.62458  1
 Al  Al7  1  0.31229  0.55235  0.62458  1
 Al  Al8  1  0.68771  0.44765  0.37542  1
 Ni  Ni1  1  0.22729  0.25000  0.45458  1
 Ni  Ni2  1  0.77271  0.75000  0.54542  1
 Tm  Tm1  1  0.88087  0.25000  0.76173  1
 Tm  Tm2  1  0.11913  0.75000  0.23827  1
