CIF file written using JARVIS-Tools package.
data_Cr2HO4
_symmetry_space_group_name_H-M  'P2/m'
_cell_length_a       4.27011
_cell_length_b       2.94815
_cell_length_c       4.75001
_cell_angle_alpha    90
_cell_angle_beta     92.8634
_cell_angle_gamma    90

_symmetry_Int_Tables_number  10
_chemical_formula_structural  Cr2HO4
_chemical_formula_sum  Cr2HO4
_cell_volume  59.722741030434065
_cell_formula_units_Z  1
loop_
  _symmetry_equiv_pos_site_id
 _symmetry_equiv_pos_as_xyz
 1  'x, y, z'
loop_
 _atom_site_type_symbol
 _atom_site_label
 _atom_site_symmetry_multiplicity
 _atom_site_fract_x
 _atom_site_fract_y
 _atom_site_fract_z
 _atom_site_fract_occupancy
 Cr  Cr1  1  0.00000  0.00000  0.00000  1
 Cr  Cr2  1  0.50000  0.50000  0.50000  1
 H  H1  1  0.50000  0.50000  0.00000  1
 O  O1  1  0.26481  0.00000  0.33293  1
 O  O2  1  0.25834  0.50000  0.85338  1
 O  O3  1  0.74166  0.50000  0.14662  1
 O  O4  1  0.73519  0.00000  0.66707  1
