CIF file written using JARVIS-Tools package.
data_CeY3S6
_symmetry_space_group_name_H-M  'P2_1/m'
_cell_length_a       11.0522
_cell_length_b       3.96619
_cell_length_c       11.3315
_cell_angle_alpha    90
_cell_angle_beta     108.681
_cell_angle_gamma    90

_symmetry_Int_Tables_number  11
_chemical_formula_structural  CeY3S6
_chemical_formula_sum  Ce2Y6S2
_cell_volume  470.54844017933135
_cell_formula_units_Z  2
loop_
  _symmetry_equiv_pos_site_id
 _symmetry_equiv_pos_as_xyz
 1  'x, y, z'
loop_
 _atom_site_type_symbol
 _atom_site_label
 _atom_site_symmetry_multiplicity
 _atom_site_fract_x
 _atom_site_fract_y
 _atom_site_fract_z
 _atom_site_fract_occupancy
 Ce  Ce1  1  0.54861  0.75000  0.19405  1
 Ce  Ce2  1  0.45139  0.25000  0.80595  1
 S  S1  1  0.89469  0.75000  0.55955  1
 S  S2  1  0.41717  0.75000  0.59550  1
 S  S3  1  0.30633  0.75000  0.24979  1
 S  S4  1  0.69367  0.25000  0.75021  1
 S  S5  1  0.10531  0.25000  0.44045  1
 S  S6  1  0.01982  0.25000  0.88631  1
 S  S7  1  0.61662  0.75000  0.96336  1
 S  S8  1  0.38338  0.25000  0.03664  1
 S  S9  1  0.23865  0.75000  0.77283  1
 S  S10  1  0.76135  0.25000  0.22717  1
 S  S11  1  0.98018  0.75000  0.11369  1
 S  S12  1  0.58283  0.25000  0.40450  1
 Y  Y1  1  0.06173  0.25000  0.66705  1
 Y  Y2  1  0.93827  0.75000  0.33295  1
 Y  Y3  1  0.33928  0.25000  0.41477  1
 Y  Y4  1  0.66072  0.75000  0.58523  1
 Y  Y5  1  0.81994  0.25000  0.99860  1
 Y  Y6  1  0.18006  0.75000  0.00140  1
