CIF file written using JARVIS-Tools package.
data_NbTl3Se4
_symmetry_space_group_name_H-M  'I-43m'
_cell_length_a       6.8702
_cell_length_b       6.8702
_cell_length_c       6.8702
_cell_angle_alpha    109.471
_cell_angle_beta     109.471
_cell_angle_gamma    109.471

_symmetry_Int_Tables_number  217
_chemical_formula_structural  NbTl3Se4
_chemical_formula_sum  NbTl3Se4
_cell_volume  249.62442928602547
_cell_formula_units_Z  1
loop_
  _symmetry_equiv_pos_site_id
 _symmetry_equiv_pos_as_xyz
 1  'x, y, z'
loop_
 _atom_site_type_symbol
 _atom_site_label
 _atom_site_symmetry_multiplicity
 _atom_site_fract_x
 _atom_site_fract_y
 _atom_site_fract_z
 _atom_site_fract_occupancy
 Nb  Nb1  1  0.00000  0.00000  0.00000  1
 Se  Se1  1  0.64658  0.64658  0.64658  1
 Se  Se2  1  0.35342  -0.00000  -0.00000  1
 Se  Se3  1  -0.00000  0.35342  0.00000  1
 Se  Se4  1  0.00000  0.00000  0.35342  1
 Tl  Tl1  1  0.50000  0.50000  0.00000  1
 Tl  Tl2  1  0.50000  0.00000  0.50000  1
 Tl  Tl3  1  0.00000  0.50000  0.50000  1
