CIF file written using JARVIS-Tools package.
data_Te6Mo3WSe2
_symmetry_space_group_name_H-M  'P3m1'
_cell_length_a       3.51361
_cell_length_b       3.51362
_cell_length_c       39.2687
_cell_angle_alpha    89.9997
_cell_angle_beta     90
_cell_angle_gamma    120

_symmetry_Int_Tables_number  156
_chemical_formula_structural  Te6Mo3WSe2
_chemical_formula_sum  Te6Mo3WSe2
_cell_volume  419.84128993262465
_cell_formula_units_Z  1
loop_
  _symmetry_equiv_pos_site_id
 _symmetry_equiv_pos_as_xyz
 1  'x, y, z'
loop_
 _atom_site_type_symbol
 _atom_site_label
 _atom_site_symmetry_multiplicity
 _atom_site_fract_x
 _atom_site_fract_y
 _atom_site_fract_z
 _atom_site_fract_occupancy
 Mo  Mo1  1  0.33331  0.66662  0.09401  1
 Mo  Mo2  1  0.33331  0.66663  0.46962  1
 Mo  Mo3  1  0.66669  0.33338  0.28185  1
 Se  Se1  1  0.33336  0.66671  0.32295  1
 Se  Se2  1  0.33335  0.66670  0.24057  1
 Te  Te1  1  0.33336  0.66671  0.70417  1
 Te  Te2  1  0.66664  0.33328  0.04748  1
 Te  Te3  1  0.66664  0.33329  0.42288  1
 Te  Te4  1  0.66664  0.33329  0.14065  1
 Te  Te5  1  0.66665  0.33330  0.51629  1
 Te  Te6  1  0.33336  0.66671  0.61072  1
 W  W1  1  0.66669  0.33339  0.65756  1
