CIF file written using JARVIS-Tools package.
data_K2ZrSi3O9
_symmetry_space_group_name_H-M  'P6_3/m'
_cell_length_a       6.94666
_cell_length_b       6.94666
_cell_length_c       10.3308
_cell_angle_alpha    90
_cell_angle_beta     90
_cell_angle_gamma    120

_symmetry_Int_Tables_number  176
_chemical_formula_structural  K2ZrSi3O9
_chemical_formula_sum  K4Zr2Si6O8
_cell_volume  431.73578950791523
_cell_formula_units_Z  2
loop_
  _symmetry_equiv_pos_site_id
 _symmetry_equiv_pos_as_xyz
 1  'x, y, z'
loop_
 _atom_site_type_symbol
 _atom_site_label
 _atom_site_symmetry_multiplicity
 _atom_site_fract_x
 _atom_site_fract_y
 _atom_site_fract_z
 _atom_site_fract_occupancy
 K  K1  1  0.33333  0.66667  0.05417  1
 K  K2  1  0.66667  0.33333  0.55417  1
 K  K3  1  0.33333  0.66667  0.44583  1
 K  K4  1  0.66667  0.33333  0.94583  1
 O  O1  1  0.75844  0.01209  0.38366  1
 O  O2  1  0.74635  0.75844  0.88366  1
 O  O3  1  0.48146  0.08793  0.25000  1
 O  O4  1  0.98791  0.74635  0.38366  1
 O  O5  1  0.25365  0.24156  0.38366  1
 O  O6  1  0.24156  0.98791  0.88366  1
 O  O7  1  0.24156  0.98791  0.61634  1
 O  O8  1  0.01209  0.25365  0.88366  1
 O  O9  1  0.98791  0.74635  0.11634  1
 O  O10  1  0.74635  0.75844  0.61634  1
 O  O11  1  0.75844  0.01209  0.11634  1
 O  O12  1  0.91207  0.39353  0.25000  1
 O  O13  1  0.39353  0.48146  0.75000  1
 O  O14  1  0.25365  0.24156  0.11634  1
 O  O15  1  0.60647  0.51854  0.25000  1
 O  O16  1  0.01209  0.25365  0.61634  1
 O  O17  1  0.51854  0.91207  0.75000  1
 O  O18  1  0.08793  0.60647  0.75000  1
 Si  Si1  1  0.87888  0.61541  0.25000  1
 Si  Si2  1  0.26348  0.87888  0.75000  1
 Si  Si3  1  0.38459  0.26348  0.25000  1
 Si  Si4  1  0.12112  0.38459  0.75000  1
 Si  Si5  1  0.61541  0.73652  0.75000  1
 Si  Si6  1  0.73652  0.12112  0.25000  1
 Zr  Zr1  1  0.00000  0.00000  0.50000  1
 Zr  Zr2  1  0.00000  0.00000  0.00000  1
