CIF file written using JARVIS-Tools package.
data_TbCu2S2
_symmetry_space_group_name_H-M  'P-3m1'
_cell_length_a       3.95882
_cell_length_b       3.95882
_cell_length_c       6.38199
_cell_angle_alpha    89.9284
_cell_angle_beta     90.0716
_cell_angle_gamma    119.984

_symmetry_Int_Tables_number  164
_chemical_formula_structural  TbCu2S2
_chemical_formula_sum  TbCu2S2
_cell_volume  86.6342929878959
_cell_formula_units_Z  1
loop_
  _symmetry_equiv_pos_site_id
 _symmetry_equiv_pos_as_xyz
 1  'x, y, z'
loop_
 _atom_site_type_symbol
 _atom_site_label
 _atom_site_symmetry_multiplicity
 _atom_site_fract_x
 _atom_site_fract_y
 _atom_site_fract_z
 _atom_site_fract_occupancy
 Cu  Cu1  1  0.66615  0.33385  0.67211  1
 Cu  Cu2  1  0.33385  0.66615  0.32789  1
 S  S1  1  0.66706  0.33294  0.26878  1
 S  S2  1  0.33294  0.66706  0.73122  1
 Tb  Tb1  1  0.00000  0.00000  0.00000  1
