CIF file written using JARVIS-Tools package.
data_KTiS2
_symmetry_space_group_name_H-M  'R3m'
_cell_length_a       3.62009
_cell_length_b       3.62009
_cell_length_c       7.63626
_cell_angle_alpha    76.2885
_cell_angle_beta     76.2885
_cell_angle_gamma    59.9999

_symmetry_Int_Tables_number  160
_chemical_formula_structural  KTiS2
_chemical_formula_sum  KTiS2
_cell_volume  83.35702822485382
_cell_formula_units_Z  1
loop_
  _symmetry_equiv_pos_site_id
 _symmetry_equiv_pos_as_xyz
 1  'x, y, z'
loop_
 _atom_site_type_symbol
 _atom_site_label
 _atom_site_symmetry_multiplicity
 _atom_site_fract_x
 _atom_site_fract_y
 _atom_site_fract_z
 _atom_site_fract_occupancy
 K  K1  1  0.81802  0.81802  0.54594  1
 S  S1  1  0.38313  0.38313  0.85062  1
 S  S2  1  0.58996  0.58996  0.23012  1
 Ti  Ti1  1  0.98689  0.98689  0.03932  1
