CIF file written using JARVIS-Tools package.
data_NdSbTe
_symmetry_space_group_name_H-M  'P4/nmm'
_cell_length_a       4.36715
_cell_length_b       4.36715
_cell_length_c       9.50842
_cell_angle_alpha    90
_cell_angle_beta     90
_cell_angle_gamma    90

_symmetry_Int_Tables_number  129
_chemical_formula_structural  NdSbTe
_chemical_formula_sum  Nd2Sb2Te2
_cell_volume  181.34483159083197
_cell_formula_units_Z  2
loop_
  _symmetry_equiv_pos_site_id
 _symmetry_equiv_pos_as_xyz
 1  'x, y, z'
loop_
 _atom_site_type_symbol
 _atom_site_label
 _atom_site_symmetry_multiplicity
 _atom_site_fract_x
 _atom_site_fract_y
 _atom_site_fract_z
 _atom_site_fract_occupancy
 Nd  Nd1  1  0.50000  0.00000  0.72518  1
 Nd  Nd2  1  0.00000  0.50000  0.27482  1
 Sb  Sb1  1  0.50000  0.50000  0.00000  1
 Sb  Sb2  1  0.00000  0.00000  0.00000  1
 Te  Te1  1  0.50000  0.00000  0.37482  1
 Te  Te2  1  0.00000  0.50000  0.62518  1
