CIF file written using JARVIS-Tools package.
data_Sr3Co2Cu2S2O5
_symmetry_space_group_name_H-M  'I4/mmm'
_cell_length_a       3.8462
_cell_length_b       3.8462
_cell_length_c       13.671
_cell_angle_alpha    98.0866
_cell_angle_beta     98.0866
_cell_angle_gamma    90

_symmetry_Int_Tables_number  139
_chemical_formula_structural  Sr3Co2Cu2S2O5
_chemical_formula_sum  Sr3Co2Cu2S2O5
_cell_volume  198.19588502082445
_cell_formula_units_Z  1
loop_
  _symmetry_equiv_pos_site_id
 _symmetry_equiv_pos_as_xyz
 1  'x, y, z'
loop_
 _atom_site_type_symbol
 _atom_site_label
 _atom_site_symmetry_multiplicity
 _atom_site_fract_x
 _atom_site_fract_y
 _atom_site_fract_z
 _atom_site_fract_occupancy
 Co  Co1  1  0.06953  0.06953  0.13905  1
 Co  Co2  1  0.93047  0.93047  0.86095  1
 Cu  Cu1  1  0.25000  0.75000  0.50000  1
 Cu  Cu2  1  0.75000  0.25000  0.50000  1
 O  O1  1  0.07852  0.57852  0.15705  1
 O  O2  1  0.57852  0.07852  0.15705  1
 O  O3  1  0.92148  0.42148  0.84295  1
 O  O4  1  0.42148  0.92148  0.84295  1
 O  O5  1  0.00000  0.00000  0.00000  1
 S  S1  1  0.19564  0.19564  0.39127  1
 S  S2  1  0.80436  0.80436  0.60873  1
 Sr  Sr1  1  0.50000  0.50000  0.00000  1
 Sr  Sr2  1  0.63862  0.63862  0.27724  1
 Sr  Sr3  1  0.36138  0.36138  0.72276  1
