CIF file written using JARVIS-Tools package.
data_Ho2Si3Rh
_symmetry_space_group_name_H-M  'P6_3/mmc'
_cell_length_a       8.17625
_cell_length_b       8.17625
_cell_length_c       7.83664
_cell_angle_alpha    90
_cell_angle_beta     90
_cell_angle_gamma    120

_symmetry_Int_Tables_number  194
_chemical_formula_structural  Ho2Si3Rh
_chemical_formula_sum  Ho8Si2Rh4
_cell_volume  453.7002837259581
_cell_formula_units_Z  4
loop_
  _symmetry_equiv_pos_site_id
 _symmetry_equiv_pos_as_xyz
 1  'x, y, z'
loop_
 _atom_site_type_symbol
 _atom_site_label
 _atom_site_symmetry_multiplicity
 _atom_site_fract_x
 _atom_site_fract_y
 _atom_site_fract_z
 _atom_site_fract_occupancy
 Ho  Ho1  1  0.49157  0.50843  0.75000  1
 Ho  Ho2  1  0.01686  0.50843  0.75000  1
 Ho  Ho3  1  0.50843  0.01686  0.25000  1
 Ho  Ho4  1  0.50843  0.49157  0.25000  1
 Ho  Ho5  1  0.98314  0.49157  0.25000  1
 Ho  Ho6  1  0.49157  0.98314  0.75000  1
 Ho  Ho7  1  0.00000  0.00000  0.25000  1
 Ho  Ho8  1  0.00000  0.00000  0.75000  1
 Rh  Rh1  1  0.66667  0.33333  0.96733  1
 Rh  Rh2  1  0.33333  0.66667  0.46733  1
 Rh  Rh3  1  0.33333  0.66667  0.03267  1
 Rh  Rh4  1  0.66667  0.33333  0.53267  1
 Si  Si1  1  0.83306  0.66613  0.99981  1
 Si  Si2  1  0.16694  0.33387  0.00019  1
 Si  Si3  1  0.16694  0.83306  0.00019  1
 Si  Si4  1  0.16694  0.33387  0.49981  1
 Si  Si5  1  0.83306  0.16694  0.50019  1
 Si  Si6  1  0.83306  0.66613  0.50019  1
 Si  Si7  1  0.33387  0.16694  0.50019  1
 Si  Si8  1  0.66613  0.83306  0.00019  1
 Si  Si9  1  0.66613  0.83306  0.49981  1
 Si  Si10  1  0.33387  0.16694  0.99981  1
 Si  Si11  1  0.16694  0.83306  0.49981  1
 Si  Si12  1  0.83306  0.16694  0.99981  1
