CIF file written using JARVIS-Tools package.
data_SnMo6S8
_symmetry_space_group_name_H-M  'R-3'
_cell_length_a       6.57058
_cell_length_b       6.57058
_cell_length_c       6.57058
_cell_angle_alpha    89.4423
_cell_angle_beta     89.4424
_cell_angle_gamma    89.4424

_symmetry_Int_Tables_number  148
_chemical_formula_structural  SnMo6S8
_chemical_formula_sum  SnMo6S8
_cell_volume  283.62848831597023
_cell_formula_units_Z  1
loop_
  _symmetry_equiv_pos_site_id
 _symmetry_equiv_pos_as_xyz
 1  'x, y, z'
loop_
 _atom_site_type_symbol
 _atom_site_label
 _atom_site_symmetry_multiplicity
 _atom_site_fract_x
 _atom_site_fract_y
 _atom_site_fract_z
 _atom_site_fract_occupancy
 Mo  Mo1  1  0.22728  0.41679  0.56144  1
 Mo  Mo2  1  0.58321  0.43856  0.77272  1
 Mo  Mo3  1  0.43856  0.77272  0.58321  1
 Mo  Mo4  1  0.56144  0.22728  0.41679  1
 Mo  Mo5  1  0.41679  0.56144  0.22728  1
 Mo  Mo6  1  0.77272  0.58321  0.43856  1
 S  S1  1  0.75839  0.75839  0.75839  1
 S  S2  1  0.87455  0.25708  0.62037  1
 S  S3  1  0.25708  0.62037  0.87455  1
 S  S4  1  0.62037  0.87455  0.25708  1
 S  S5  1  0.12545  0.74292  0.37963  1
 S  S6  1  0.74292  0.37963  0.12545  1
 S  S7  1  0.24161  0.24161  0.24161  1
 S  S8  1  0.37963  0.12545  0.74292  1
 Sn  Sn1  1  0.00000  0.00000  0.00000  1
