CIF file written using JARVIS-Tools package.
data_MgCuO2
_symmetry_space_group_name_H-M  'P1'
_cell_length_a       3.13422
_cell_length_b       8.02045
_cell_length_c       8.08531
_cell_angle_alpha    105.545
_cell_angle_beta     100.855
_cell_angle_gamma    92.4853

_symmetry_Int_Tables_number  1
_chemical_formula_structural  MgCuO2
_chemical_formula_sum  Mg4Cu4O8
_cell_volume  191.36085830584886
_cell_formula_units_Z  4
loop_
  _symmetry_equiv_pos_site_id
 _symmetry_equiv_pos_as_xyz
 1  'x, y, z'
loop_
 _atom_site_type_symbol
 _atom_site_label
 _atom_site_symmetry_multiplicity
 _atom_site_fract_x
 _atom_site_fract_y
 _atom_site_fract_z
 _atom_site_fract_occupancy
 Cu  Cu1  1  0.36819  0.42497  0.25205  1
 Cu  Cu2  1  0.19738  0.82261  0.47754  1
 Cu  Cu3  1  0.81435  0.14677  0.51652  1
 Cu  Cu4  1  0.21653  0.47832  0.65374  1
 Mg  Mg1  1  0.62750  0.75268  0.14083  1
 Mg  Mg2  1  0.53380  0.22629  0.86255  1
 Mg  Mg3  1  0.96498  0.82830  0.78025  1
 Mg  Mg4  1  0.07279  0.09185  0.18148  1
 O  O1  1  0.73644  0.34615  0.69351  1
 O  O2  1  0.63308  0.23640  0.31886  1
 O  O3  1  0.39549  0.70565  0.64909  1
 O  O4  1  0.18588  0.64287  0.25814  1
 O  O5  1  0.11125  0.24594  0.02059  1
 O  O6  1  0.90984  0.95581  0.34427  1
 O  O7  1  0.08836  0.84748  0.02474  1
 O  O8  1  0.11557  0.02536  0.68368  1
