CIF file written using JARVIS-Tools package.
data_LiCaGaN2
_symmetry_space_group_name_H-M  'P2_1/c'
_cell_length_a       5.79449
_cell_length_b       6.93159
_cell_length_c       5.90759
_cell_angle_alpha    90
_cell_angle_beta     89.9552
_cell_angle_gamma    90

_symmetry_Int_Tables_number  14
_chemical_formula_structural  LiCaGaN2
_chemical_formula_sum  Li4Ca4Ga4N8
_cell_volume  237.27851617725048
_cell_formula_units_Z  4
loop_
  _symmetry_equiv_pos_site_id
 _symmetry_equiv_pos_as_xyz
 1  'x, y, z'
loop_
 _atom_site_type_symbol
 _atom_site_label
 _atom_site_symmetry_multiplicity
 _atom_site_fract_x
 _atom_site_fract_y
 _atom_site_fract_z
 _atom_site_fract_occupancy
 Ca  Ca1  1  0.02161  0.62700  0.24316  1
 Ca  Ca2  1  0.97839  0.37300  0.75684  1
 Ca  Ca3  1  0.02161  0.87300  0.74316  1
 Ca  Ca4  1  0.97839  0.12700  0.25684  1
 Ga  Ga1  1  0.62394  0.64047  0.58007  1
 Ga  Ga2  1  0.37606  0.35953  0.41993  1
 Ga  Ga3  1  0.37606  0.14047  0.91993  1
 Ga  Ga4  1  0.62394  0.85953  0.08007  1
 Li  Li1  1  0.63294  0.10518  0.58892  1
 Li  Li2  1  0.63294  0.39482  0.08892  1
 Li  Li3  1  0.36706  0.89482  0.41108  1
 Li  Li4  1  0.36706  0.60518  0.91108  1
 N  N1  1  0.27716  0.61199  0.57173  1
 N  N2  1  0.25995  0.13563  0.59566  1
 N  N3  1  0.74005  0.63563  0.90434  1
 N  N4  1  0.72284  0.11199  0.92827  1
 N  N5  1  0.74005  0.86437  0.40434  1
 N  N6  1  0.72284  0.38801  0.42827  1
 N  N7  1  0.27716  0.88801  0.07173  1
 N  N8  1  0.25995  0.36437  0.09566  1
