CIF file written using JARVIS-Tools package.
data_CeSi2Mo2C
_symmetry_space_group_name_H-M  'P4/mmm'
_cell_length_a       4.23197
_cell_length_b       4.23197
_cell_length_c       5.35432
_cell_angle_alpha    90
_cell_angle_beta     90
_cell_angle_gamma    90

_symmetry_Int_Tables_number  123
_chemical_formula_structural  CeSi2Mo2C
_chemical_formula_sum  CeSi2Mo2C
_cell_volume  95.89336489961178
_cell_formula_units_Z  1
loop_
  _symmetry_equiv_pos_site_id
 _symmetry_equiv_pos_as_xyz
 1  'x, y, z'
loop_
 _atom_site_type_symbol
 _atom_site_label
 _atom_site_symmetry_multiplicity
 _atom_site_fract_x
 _atom_site_fract_y
 _atom_site_fract_z
 _atom_site_fract_occupancy
 C  C1  1  0.00000  0.00000  0.00000  1
 Ce  Ce1  1  0.00000  0.00000  0.50000  1
 Mo  Mo1  1  0.50000  0.00000  0.00000  1
 Mo  Mo2  1  0.00000  0.50000  0.00000  1
 Si  Si1  1  0.50000  0.50000  0.71961  1
 Si  Si2  1  0.50000  0.50000  0.28039  1
