CIF file written using JARVIS-Tools package.
data_CaSnF6
_symmetry_space_group_name_H-M  'R-3'
_cell_length_a       5.93562
_cell_length_b       5.93562
_cell_length_c       5.93562
_cell_angle_alpha    53.3834
_cell_angle_beta     53.3834
_cell_angle_gamma    53.3834

_symmetry_Int_Tables_number  148
_chemical_formula_structural  CaSnF6
_chemical_formula_sum  CaSnF6
_cell_volume  124.96795966638348
_cell_formula_units_Z  1
loop_
  _symmetry_equiv_pos_site_id
 _symmetry_equiv_pos_as_xyz
 1  'x, y, z'
loop_
 _atom_site_type_symbol
 _atom_site_label
 _atom_site_symmetry_multiplicity
 _atom_site_fract_x
 _atom_site_fract_y
 _atom_site_fract_z
 _atom_site_fract_occupancy
 Ca  Ca1  1  0.00000  0.00000  0.00000  1
 F  F1  1  0.12536  0.73222  0.41076  1
 F  F2  1  0.73222  0.41076  0.12536  1
 F  F3  1  0.58924  0.87464  0.26778  1
 F  F4  1  0.26778  0.58924  0.87464  1
 F  F5  1  0.87464  0.26778  0.58924  1
 F  F6  1  0.41076  0.12536  0.73222  1
 Sn  Sn1  1  0.50000  0.50000  0.50000  1
