CIF file written using JARVIS-Tools package.
data_CeTlCd
_symmetry_space_group_name_H-M  'P6_3/mmc'
_cell_length_a       5.13492
_cell_length_b       5.13453
_cell_length_c       6.85101
_cell_angle_alpha    90
_cell_angle_beta     90
_cell_angle_gamma    120.002

_symmetry_Int_Tables_number  194
_chemical_formula_structural  CeTlCd
_chemical_formula_sum  Ce2Tl2Cd2
_cell_volume  156.42593336059286
_cell_formula_units_Z  2
loop_
  _symmetry_equiv_pos_site_id
 _symmetry_equiv_pos_as_xyz
 1  'x, y, z'
loop_
 _atom_site_type_symbol
 _atom_site_label
 _atom_site_symmetry_multiplicity
 _atom_site_fract_x
 _atom_site_fract_y
 _atom_site_fract_z
 _atom_site_fract_occupancy
 Cd  Cd1  1  0.33332  0.66665  0.25000  1
 Cd  Cd2  1  0.66668  0.33335  0.75000  1
 Ce  Ce1  1  0.00000  0.00000  0.50000  1
 Ce  Ce2  1  0.00000  0.00000  0.00000  1
 Tl  Tl1  1  0.33332  0.66664  0.75000  1
 Tl  Tl2  1  0.66668  0.33336  0.25000  1
