CIF file written using JARVIS-Tools package.
data_LiCaGe2
_symmetry_space_group_name_H-M  'Pnma'
_cell_length_a       3.93445
_cell_length_b       8.00194
_cell_length_c       10.6792
_cell_angle_alpha    90
_cell_angle_beta     90
_cell_angle_gamma    90

_symmetry_Int_Tables_number  62
_chemical_formula_structural  LiCaGe2
_chemical_formula_sum  Li4Ca4Ge8
_cell_volume  336.217374242051
_cell_formula_units_Z  4
loop_
  _symmetry_equiv_pos_site_id
 _symmetry_equiv_pos_as_xyz
 1  'x, y, z'
loop_
 _atom_site_type_symbol
 _atom_site_label
 _atom_site_symmetry_multiplicity
 _atom_site_fract_x
 _atom_site_fract_y
 _atom_site_fract_z
 _atom_site_fract_occupancy
 Ca  Ca1  1  0.75000  0.36760  0.36463  1
 Ca  Ca2  1  0.25000  0.13240  0.86463  1
 Ca  Ca3  1  0.25000  0.63240  0.63537  1
 Ca  Ca4  1  0.75000  0.86760  0.13537  1
 Ge  Ge1  1  0.25000  0.72647  0.93796  1
 Ge  Ge2  1  0.25000  0.65949  0.31934  1
 Ge  Ge3  1  0.75000  0.84051  0.81934  1
 Ge  Ge4  1  0.25000  0.15949  0.18066  1
 Ge  Ge5  1  0.75000  0.27353  0.06204  1
 Ge  Ge6  1  0.25000  0.22647  0.56204  1
 Ge  Ge7  1  0.75000  0.77353  0.43796  1
 Ge  Ge8  1  0.75000  0.34051  0.68066  1
 Li  Li1  1  0.25000  0.49163  0.11078  1
 Li  Li2  1  0.25000  0.99163  0.38922  1
 Li  Li3  1  0.75000  0.50837  0.88922  1
 Li  Li4  1  0.75000  0.00837  0.61078  1
