CIF file written using JARVIS-Tools package.
data_Ca2SiO4
_symmetry_space_group_name_H-M  'P-3m1'
_cell_length_a       5.59484
_cell_length_b       5.59484
_cell_length_c       6.78757
_cell_angle_alpha    90
_cell_angle_beta     90
_cell_angle_gamma    120

_symmetry_Int_Tables_number  164
_chemical_formula_structural  Ca2SiO4
_chemical_formula_sum  Ca4Si2O8
_cell_volume  184.00046166141368
_cell_formula_units_Z  2
loop_
  _symmetry_equiv_pos_site_id
 _symmetry_equiv_pos_as_xyz
 1  'x, y, z'
loop_
 _atom_site_type_symbol
 _atom_site_label
 _atom_site_symmetry_multiplicity
 _atom_site_fract_x
 _atom_site_fract_y
 _atom_site_fract_z
 _atom_site_fract_occupancy
 Ca  Ca1  1  0.33333  0.66667  0.65118  1
 Ca  Ca2  1  0.66667  0.33333  0.34882  1
 Ca  Ca3  1  0.00000  0.00000  0.50000  1
 Ca  Ca4  1  0.00000  0.00000  0.00000  1
 O  O1  1  0.33333  0.66667  0.95958  1
 O  O2  1  0.66667  0.33333  0.04042  1
 O  O3  1  0.17708  0.82292  0.29255  1
 O  O4  1  0.17708  0.35416  0.29255  1
 O  O5  1  0.64584  0.82292  0.29255  1
 O  O6  1  0.82292  0.17708  0.70745  1
 O  O7  1  0.82292  0.64584  0.70745  1
 O  O8  1  0.35416  0.17708  0.70745  1
 Si  Si1  1  0.33333  0.66667  0.19580  1
 Si  Si2  1  0.66667  0.33333  0.80420  1
