CIF file written using JARVIS-Tools package.
data_Mg2Pd
_symmetry_space_group_name_H-M  'Fd-3m'
_cell_length_a       8.54379
_cell_length_b       8.54379
_cell_length_c       8.54379
_cell_angle_alpha    60
_cell_angle_beta     60
_cell_angle_gamma    60

_symmetry_Int_Tables_number  227
_chemical_formula_structural  Mg2Pd
_chemical_formula_sum  Mg6Pd8
_cell_volume  440.9981293428462
_cell_formula_units_Z  8
loop_
  _symmetry_equiv_pos_site_id
 _symmetry_equiv_pos_as_xyz
 1  'x, y, z'
loop_
 _atom_site_type_symbol
 _atom_site_label
 _atom_site_symmetry_multiplicity
 _atom_site_fract_x
 _atom_site_fract_y
 _atom_site_fract_z
 _atom_site_fract_occupancy
 Mg  Mg1  1  0.82002  0.42998  0.42998  1
 Mg  Mg2  1  0.42998  0.42998  0.82002  1
 Mg  Mg3  1  0.57002  0.57002  0.17998  1
 Mg  Mg4  1  0.17998  0.17998  0.57002  1
 Mg  Mg5  1  0.57002  0.17998  0.17998  1
 Mg  Mg6  1  0.17998  0.57002  0.17998  1
 Mg  Mg7  1  0.42998  0.82002  0.42998  1
 Mg  Mg8  1  0.42998  0.82002  0.82002  1
 Mg  Mg9  1  0.57002  0.17998  0.57002  1
 Mg  Mg10  1  0.82002  0.42998  0.82002  1
 Mg  Mg11  1  0.17998  0.57002  0.57002  1
 Mg  Mg12  1  0.00000  0.50000  0.00000  1
 Mg  Mg13  1  0.50000  0.00000  -0.00000  1
 Mg  Mg14  1  0.00000  0.00000  0.50000  1
 Mg  Mg15  1  0.00000  0.00000  0.00000  1
 Mg  Mg16  1  0.82002  0.82002  0.42998  1
 Pd  Pd1  1  0.15529  0.78157  0.78157  1
 Pd  Pd2  1  0.78157  0.78157  0.15529  1
 Pd  Pd3  1  0.84471  0.21843  0.21843  1
 Pd  Pd4  1  0.21843  0.84471  0.21843  1
 Pd  Pd5  1  0.21843  0.21843  0.84471  1
 Pd  Pd6  1  0.78157  0.78157  0.78157  1
 Pd  Pd7  1  0.78157  0.15529  0.78157  1
 Pd  Pd8  1  0.21843  0.21843  0.21843  1
