CIF file written using JARVIS-Tools package.
data_HoGa
_symmetry_space_group_name_H-M  'Cmcm'
_cell_length_a       4.02078
_cell_length_b       4.29759
_cell_length_c       5.78971
_cell_angle_alpha    111.786
_cell_angle_beta     90
_cell_angle_gamma    90

_symmetry_Int_Tables_number  63
_chemical_formula_structural  HoGa
_chemical_formula_sum  Ho2Ga2
_cell_volume  92.89873812891499
_cell_formula_units_Z  2
loop_
  _symmetry_equiv_pos_site_id
 _symmetry_equiv_pos_as_xyz
 1  'x, y, z'
loop_
 _atom_site_type_symbol
 _atom_site_label
 _atom_site_symmetry_multiplicity
 _atom_site_fract_x
 _atom_site_fract_y
 _atom_site_fract_z
 _atom_site_fract_occupancy
 Ga  Ga1  1  0.25000  0.42178  0.84357  1
 Ga  Ga2  1  0.75000  0.57822  0.15643  1
 Ho  Ho1  1  0.25000  0.13925  0.27849  1
 Ho  Ho2  1  0.75000  0.86075  0.72151  1
