CIF file written using JARVIS-Tools package.
data_ScNiGe
_symmetry_space_group_name_H-M  'Pnma'
_cell_length_a       4.09347
_cell_length_b       6.47767
_cell_length_c       7.08153
_cell_angle_alpha    90
_cell_angle_beta     90
_cell_angle_gamma    90

_symmetry_Int_Tables_number  62
_chemical_formula_structural  ScNiGe
_chemical_formula_sum  Sc4Ni4Ge4
_cell_volume  187.77485898190108
_cell_formula_units_Z  4
loop_
  _symmetry_equiv_pos_site_id
 _symmetry_equiv_pos_as_xyz
 1  'x, y, z'
loop_
 _atom_site_type_symbol
 _atom_site_label
 _atom_site_symmetry_multiplicity
 _atom_site_fract_x
 _atom_site_fract_y
 _atom_site_fract_z
 _atom_site_fract_occupancy
 Ge  Ge1  1  0.75000  0.20578  0.59222  1
 Ge  Ge2  1  0.25000  0.79422  0.40778  1
 Ge  Ge3  1  0.75000  0.70578  0.90778  1
 Ge  Ge4  1  0.25000  0.29422  0.09222  1
 Ni  Ni1  1  0.75000  0.80945  0.57972  1
 Ni  Ni2  1  0.25000  0.19055  0.42028  1
 Ni  Ni3  1  0.75000  0.30945  0.92028  1
 Ni  Ni4  1  0.25000  0.69055  0.07972  1
 Sc  Sc1  1  0.75000  0.50529  0.29179  1
 Sc  Sc2  1  0.25000  0.49471  0.70821  1
 Sc  Sc3  1  0.75000  0.00529  0.20821  1
 Sc  Sc4  1  0.25000  0.99471  0.79179  1
