CIF file written using JARVIS-Tools package.
data_V6Ga5
_symmetry_space_group_name_H-M  'P6_3/mmc'
_cell_length_a       8.46688
_cell_length_b       8.46688
_cell_length_c       5.10917
_cell_angle_alpha    90
_cell_angle_beta     90
_cell_angle_gamma    120

_symmetry_Int_Tables_number  194
_chemical_formula_structural  V6Ga5
_chemical_formula_sum  V2Ga0
_cell_volume  317.19609940154976
_cell_formula_units_Z  2
loop_
  _symmetry_equiv_pos_site_id
 _symmetry_equiv_pos_as_xyz
 1  'x, y, z'
loop_
 _atom_site_type_symbol
 _atom_site_label
 _atom_site_symmetry_multiplicity
 _atom_site_fract_x
 _atom_site_fract_y
 _atom_site_fract_z
 _atom_site_fract_occupancy
 Ga  Ga1  1  0.33333  0.66667  0.25000  1
 Ga  Ga2  1  0.79748  0.20252  0.25000  1
 Ga  Ga3  1  0.00000  0.00000  0.50000  1
 Ga  Ga4  1  0.40504  0.20252  0.25000  1
 Ga  Ga5  1  0.20252  0.79748  0.75000  1
 Ga  Ga6  1  0.59496  0.79748  0.75000  1
 Ga  Ga7  1  0.79748  0.59496  0.25000  1
 Ga  Ga8  1  0.00000  0.00000  0.00000  1
 Ga  Ga9  1  0.66667  0.33333  0.75000  1
 Ga  Ga10  1  0.20252  0.40504  0.75000  1
 V  V1  1  0.84357  0.15643  0.75000  1
 V  V2  1  0.15643  0.84357  0.25000  1
 V  V3  1  0.15643  0.31286  0.25000  1
 V  V4  1  0.31286  0.15643  0.75000  1
 V  V5  1  0.50000  0.50000  0.50000  1
 V  V6  1  0.50000  0.50000  0.00000  1
 V  V7  1  0.00000  0.50000  0.50000  1
 V  V8  1  0.68714  0.84357  0.25000  1
 V  V9  1  0.50000  -0.00000  0.00000  1
 V  V10  1  0.50000  -0.00000  0.50000  1
 V  V11  1  0.00000  0.50000  0.00000  1
 V  V12  1  0.84357  0.68714  0.75000  1
