CIF file written using JARVIS-Tools package.
data_InAsPt5
_symmetry_space_group_name_H-M  'P4/mmm'
_cell_length_a       4.05542
_cell_length_b       4.05542
_cell_length_c       7.20677
_cell_angle_alpha    90
_cell_angle_beta     90
_cell_angle_gamma    90

_symmetry_Int_Tables_number  123
_chemical_formula_structural  InAsPt5
_chemical_formula_sum  InAsPt5
_cell_volume  118.52599695525801
_cell_formula_units_Z  1
loop_
  _symmetry_equiv_pos_site_id
 _symmetry_equiv_pos_as_xyz
 1  'x, y, z'
loop_
 _atom_site_type_symbol
 _atom_site_label
 _atom_site_symmetry_multiplicity
 _atom_site_fract_x
 _atom_site_fract_y
 _atom_site_fract_z
 _atom_site_fract_occupancy
 As  As1  1  0.00000  0.00000  0.50000  1
 In  In1  1  0.50000  0.50000  0.00000  1
 Pt  Pt1  1  0.00000  0.50000  0.28407  1
 Pt  Pt2  1  0.00000  0.50000  0.71593  1
 Pt  Pt3  1  0.50000  0.00000  0.28407  1
 Pt  Pt4  1  0.50000  0.00000  0.71593  1
 Pt  Pt5  1  0.00000  0.00000  0.00000  1
