CIF file written using JARVIS-Tools package.
data_TiAu2
_symmetry_space_group_name_H-M  'I4/mmm'
_cell_length_a       3.46055
_cell_length_b       3.46055
_cell_length_c       4.9387
_cell_angle_alpha    110.509
_cell_angle_beta     110.509
_cell_angle_gamma    90

_symmetry_Int_Tables_number  139
_chemical_formula_structural  TiAu2
_chemical_formula_sum  TiAu2
_cell_volume  51.37294207308497
_cell_formula_units_Z  1
loop_
  _symmetry_equiv_pos_site_id
 _symmetry_equiv_pos_as_xyz
 1  'x, y, z'
loop_
 _atom_site_type_symbol
 _atom_site_label
 _atom_site_symmetry_multiplicity
 _atom_site_fract_x
 _atom_site_fract_y
 _atom_site_fract_z
 _atom_site_fract_occupancy
 Au  Au1  1  0.66403  0.66403  0.32806  1
 Au  Au2  1  0.33597  0.33597  0.67194  1
 Ti  Ti1  1  0.00000  0.00000  0.00000  1
