CIF file written using JARVIS-Tools package.
data_Sm3CuGeSe7
_symmetry_space_group_name_H-M  'P6_3'
_cell_length_a       10.4846
_cell_length_b       10.4846
_cell_length_c       6.10668
_cell_angle_alpha    90
_cell_angle_beta     90
_cell_angle_gamma    120

_symmetry_Int_Tables_number  173
_chemical_formula_structural  Sm3CuGeSe7
_chemical_formula_sum  Sm6Cu2Ge2Se4
_cell_volume  581.3575249172151
_cell_formula_units_Z  2
loop_
  _symmetry_equiv_pos_site_id
 _symmetry_equiv_pos_as_xyz
 1  'x, y, z'
loop_
 _atom_site_type_symbol
 _atom_site_label
 _atom_site_symmetry_multiplicity
 _atom_site_fract_x
 _atom_site_fract_y
 _atom_site_fract_z
 _atom_site_fract_occupancy
 Cu  Cu1  1  0.00000  0.00000  0.71561  1
 Cu  Cu2  1  0.00000  0.00000  0.21561  1
 Ge  Ge1  1  0.33333  0.66667  0.83709  1
 Ge  Ge2  1  0.66667  0.33333  0.33709  1
 Se  Se1  1  0.57633  0.48215  0.49972  1
 Se  Se2  1  0.90106  0.73954  0.22931  1
 Se  Se3  1  0.09894  0.26046  0.72931  1
 Se  Se4  1  0.33333  0.66667  0.45134  1
 Se  Se5  1  0.48215  0.90581  0.99972  1
 Se  Se6  1  0.09419  0.57633  0.99972  1
 Se  Se7  1  0.16152  0.90106  0.72931  1
 Se  Se8  1  0.83848  0.09894  0.22931  1
 Se  Se9  1  0.73954  0.83848  0.72931  1
 Se  Se10  1  0.51785  0.09419  0.49972  1
 Se  Se11  1  0.26046  0.16152  0.22931  1
 Se  Se12  1  0.90581  0.42367  0.49972  1
 Se  Se13  1  0.66667  0.33333  0.95134  1
 Se  Se14  1  0.42367  0.51785  0.99972  1
 Sm  Sm1  1  0.77711  0.13317  0.75405  1
 Sm  Sm2  1  0.64394  0.77711  0.25405  1
 Sm  Sm3  1  0.86683  0.64394  0.75405  1
 Sm  Sm4  1  0.13317  0.35606  0.25405  1
 Sm  Sm5  1  0.22289  0.86683  0.25405  1
 Sm  Sm6  1  0.35606  0.22289  0.75405  1
