CIF file written using JARVIS-Tools package.
data_Na6Mg2C4SO16
_symmetry_space_group_name_H-M  'Fd-3'
_cell_length_a       9.84094
_cell_length_b       9.84093
_cell_length_c       9.84094
_cell_angle_alpha    60
_cell_angle_beta     60
_cell_angle_gamma    60

_symmetry_Int_Tables_number  203
_chemical_formula_structural  Na6Mg2C4SO16
_chemical_formula_sum  Na2Mg4C8S2O32
_cell_volume  673.8986197448895
_cell_formula_units_Z  2
loop_
  _symmetry_equiv_pos_site_id
 _symmetry_equiv_pos_as_xyz
 1  'x, y, z'
loop_
 _atom_site_type_symbol
 _atom_site_label
 _atom_site_symmetry_multiplicity
 _atom_site_fract_x
 _atom_site_fract_y
 _atom_site_fract_z
 _atom_site_fract_occupancy
 C  C1  1  0.28195  0.65416  0.28195  1
 C  C2  1  0.71805  0.71805  0.34584  1
 C  C3  1  0.28195  0.28195  0.28195  1
 C  C4  1  0.65416  0.28195  0.28195  1
 C  C5  1  0.28195  0.28195  0.65416  1
 C  C6  1  0.71805  0.71805  0.71805  1
 C  C7  1  0.34584  0.71805  0.71805  1
 C  C8  1  0.71805  0.34584  0.71805  1
 Mg  Mg1  1  0.50000  0.50000  0.00000  1
 Mg  Mg2  1  0.50000  0.00000  0.50000  1
 Mg  Mg3  1  0.00000  0.50000  0.50000  1
 Mg  Mg4  1  0.50000  0.50000  0.50000  1
 Na  Na1  1  0.90748  0.34252  0.34252  1
 Na  Na2  1  0.34252  0.34252  0.90748  1
 Na  Na3  1  0.90748  0.90748  0.34252  1
 Na  Na4  1  0.09252  0.65748  0.09252  1
 Na  Na5  1  0.09252  0.09252  0.65748  1
 Na  Na6  1  0.65748  0.09252  0.65748  1
 Na  Na7  1  0.65748  0.65748  0.09252  1
 Na  Na8  1  0.34252  0.90748  0.90748  1
 Na  Na9  1  0.90748  0.34252  0.90748  1
 Na  Na10  1  0.65748  0.09252  0.09252  1
 Na  Na11  1  0.34252  0.90748  0.34252  1
 Na  Na12  1  0.09252  0.65748  0.65748  1
 O  O1  1  0.60308  0.34442  0.86189  1
 O  O2  1  0.13811  0.65558  0.30939  1
 O  O3  1  0.86189  0.69061  0.60308  1
 O  O4  1  0.69061  0.60308  0.86189  1
 O  O5  1  0.39692  0.30939  0.65558  1
 O  O6  1  0.65558  0.13811  0.39692  1
 O  O7  1  0.30939  0.65558  0.39692  1
 O  O8  1  0.65558  0.30939  0.13811  1
 O  O9  1  0.13811  0.39692  0.65558  1
 O  O10  1  0.65558  0.39692  0.30939  1
 O  O11  1  0.39692  0.65558  0.13811  1
 O  O12  1  0.34442  0.69061  0.86189  1
 O  O13  1  0.13811  0.30939  0.39692  1
 O  O14  1  0.34442  0.60308  0.69061  1
 O  O15  1  0.30939  0.13811  0.65558  1
 O  O16  1  0.86189  0.60308  0.34442  1
 O  O17  1  0.06309  0.31074  0.06309  1
 O  O18  1  0.69061  0.34442  0.60308  1
 O  O19  1  0.30939  0.39692  0.13811  1
 O  O20  1  0.93691  0.93691  0.68926  1
 O  O21  1  0.60308  0.86189  0.69061  1
 O  O22  1  0.06309  0.06309  0.31074  1
 O  O23  1  0.69061  0.86189  0.34442  1
 O  O24  1  0.68926  0.93691  0.93691  1
 O  O25  1  0.93691  0.93691  0.93691  1
 O  O26  1  0.31074  0.06309  0.06309  1
 O  O27  1  0.06309  0.06309  0.06309  1
 O  O28  1  0.60308  0.69061  0.34442  1
 O  O29  1  0.34442  0.86189  0.60308  1
 O  O30  1  0.86189  0.34442  0.69061  1
 O  O31  1  0.93691  0.68926  0.93691  1
 O  O32  1  0.39692  0.13811  0.30939  1
 S  S1  1  0.12500  0.12500  0.12500  1
 S  S2  1  0.87500  0.87500  0.87500  1
