CIF file written using JARVIS-Tools package.
data_Na2ZrSi4O11
_symmetry_space_group_name_H-M  'C2/c'
_cell_length_a       7.55487
_cell_length_b       7.55487
_cell_length_c       8.62455
_cell_angle_alpha    82.2923
_cell_angle_beta     82.2923
_cell_angle_gamma    84.9752

_symmetry_Int_Tables_number  15
_chemical_formula_structural  Na2ZrSi4O11
_chemical_formula_sum  Na4Zr2Si8O22
_cell_volume  482.18478049604363
_cell_formula_units_Z  2
loop_
  _symmetry_equiv_pos_site_id
 _symmetry_equiv_pos_as_xyz
 1  'x, y, z'
loop_
 _atom_site_type_symbol
 _atom_site_label
 _atom_site_symmetry_multiplicity
 _atom_site_fract_x
 _atom_site_fract_y
 _atom_site_fract_z
 _atom_site_fract_occupancy
 Na  Na1  1  0.07353  0.92647  0.25000  1
 Na  Na2  1  0.92647  0.07353  0.75000  1
 Na  Na3  1  0.39132  0.60868  0.25000  1
 Na  Na4  1  0.60868  0.39132  0.75000  1
 O  O1  1  0.79527  0.62381  0.64833  1
 O  O2  1  0.37619  0.20473  0.85167  1
 O  O3  1  0.10883  0.37634  0.69700  1
 O  O4  1  0.62366  0.89117  0.80300  1
 O  O5  1  0.89117  0.62366  0.30300  1
 O  O6  1  0.24430  0.04364  0.49548  1
 O  O7  1  0.71590  0.17289  0.96551  1
 O  O8  1  0.62381  0.79527  0.14833  1
 O  O9  1  0.17289  0.71590  0.46551  1
 O  O10  1  0.28410  0.82711  0.03449  1
 O  O11  1  0.75429  0.47391  0.08207  1
 O  O12  1  0.52609  0.24571  0.41793  1
 O  O13  1  0.15995  0.84005  0.75000  1
 O  O14  1  0.37634  0.10883  0.19700  1
 O  O15  1  0.84005  0.15995  0.25000  1
 O  O16  1  0.04364  0.24430  0.99548  1
 O  O17  1  0.82711  0.28410  0.53449  1
 O  O18  1  0.47391  0.75429  0.58207  1
 O  O19  1  0.24571  0.52609  0.91793  1
 O  O20  1  0.75570  0.95636  0.50452  1
 O  O21  1  0.20473  0.37619  0.35167  1
 O  O22  1  0.95636  0.75570  0.00452  1
 Si  Si1  1  0.66353  0.80412  0.63947  1
 Si  Si2  1  0.83360  0.26640  0.07091  1
 Si  Si3  1  0.19588  0.33647  0.86053  1
 Si  Si4  1  0.26640  0.83360  0.57091  1
 Si  Si5  1  0.16640  0.73360  0.92909  1
 Si  Si6  1  0.73360  0.16640  0.42909  1
 Si  Si7  1  0.33647  0.19588  0.36053  1
 Si  Si8  1  0.80412  0.66353  0.13947  1
 Zr  Zr1  1  -0.00000  0.50000  0.50000  1
 Zr  Zr2  1  0.50000  -0.00000  0.00000  1
