CIF file written using JARVIS-Tools package.
data_BaZn2Sn2
_symmetry_space_group_name_H-M  'P4/nmm'
_cell_length_a       4.82271
_cell_length_b       4.82271
_cell_length_c       11.3106
_cell_angle_alpha    90
_cell_angle_beta     90
_cell_angle_gamma    90

_symmetry_Int_Tables_number  129
_chemical_formula_structural  BaZn2Sn2
_chemical_formula_sum  Ba2Zn4Sn4
_cell_volume  263.06862472439747
_cell_formula_units_Z  2
loop_
  _symmetry_equiv_pos_site_id
 _symmetry_equiv_pos_as_xyz
 1  'x, y, z'
loop_
 _atom_site_type_symbol
 _atom_site_label
 _atom_site_symmetry_multiplicity
 _atom_site_fract_x
 _atom_site_fract_y
 _atom_site_fract_z
 _atom_site_fract_occupancy
 Ba  Ba1  1  0.50000  0.00000  0.75942  1
 Ba  Ba2  1  0.00000  0.50000  0.24058  1
 Sn  Sn1  1  0.00000  0.50000  0.87329  1
 Sn  Sn2  1  0.50000  0.00000  0.12671  1
 Sn  Sn3  1  0.00000  0.00000  0.50000  1
 Sn  Sn4  1  0.50000  0.50000  0.50000  1
 Zn  Zn1  1  0.50000  0.00000  0.36467  1
 Zn  Zn2  1  0.00000  0.50000  0.63533  1
 Zn  Zn3  1  0.00000  0.00000  0.00000  1
 Zn  Zn4  1  0.50000  0.50000  0.00000  1
