CIF file written using JARVIS-Tools package.
data_TiPd2
_symmetry_space_group_name_H-M  'I4/mmm'
_cell_length_a       3.2713
_cell_length_b       3.2713
_cell_length_c       4.92031
_cell_angle_alpha    109.416
_cell_angle_beta     109.416
_cell_angle_gamma    90

_symmetry_Int_Tables_number  139
_chemical_formula_structural  TiPd2
_chemical_formula_sum  TiPd2
_cell_volume  46.47265088813648
_cell_formula_units_Z  1
loop_
  _symmetry_equiv_pos_site_id
 _symmetry_equiv_pos_as_xyz
 1  'x, y, z'
loop_
 _atom_site_type_symbol
 _atom_site_label
 _atom_site_symmetry_multiplicity
 _atom_site_fract_x
 _atom_site_fract_y
 _atom_site_fract_z
 _atom_site_fract_occupancy
 Pd  Pd1  1  0.65727  0.65727  0.31453  1
 Pd  Pd2  1  0.34273  0.34273  0.68547  1
 Ti  Ti1  1  0.00000  0.00000  0.00000  1
