CIF file written using JARVIS-Tools package.
data_LiNi2P3O10
_symmetry_space_group_name_H-M  'P2_1/m'
_cell_length_a       4.66617
_cell_length_b       8.18676
_cell_length_c       9.43046
_cell_angle_alpha    90
_cell_angle_beta     104.411
_cell_angle_gamma    90

_symmetry_Int_Tables_number  11
_chemical_formula_structural  LiNi2P3O10
_chemical_formula_sum  Li2Ni4P6O20
_cell_volume  348.91623244590085
_cell_formula_units_Z  2
loop_
  _symmetry_equiv_pos_site_id
 _symmetry_equiv_pos_as_xyz
 1  'x, y, z'
loop_
 _atom_site_type_symbol
 _atom_site_label
 _atom_site_symmetry_multiplicity
 _atom_site_fract_x
 _atom_site_fract_y
 _atom_site_fract_z
 _atom_site_fract_occupancy
 Li  Li1  1  0.00000  0.50000  0.00000  1
 Li  Li2  1  0.00000  0.00000  0.00000  1
 Ni  Ni1  1  0.95052  0.56521  0.67177  1
 Ni  Ni2  1  0.04948  0.06521  0.32823  1
 Ni  Ni3  1  0.04948  0.43479  0.32823  1
 Ni  Ni4  1  0.95052  0.93479  0.67177  1
 O  O1  1  0.32012  0.40606  0.14330  1
 O  O2  1  0.75440  0.09455  0.53680  1
 O  O3  1  0.14249  0.09457  0.81393  1
 O  O4  1  0.85751  0.59457  0.18607  1
 O  O5  1  0.24560  0.90545  0.46320  1
 O  O6  1  0.24560  0.59455  0.46320  1
 O  O7  1  0.85751  0.90543  0.18607  1
 O  O8  1  0.67988  0.59394  0.85670  1
 O  O9  1  0.72224  0.75000  0.56509  1
 O  O10  1  0.27776  0.25000  0.43491  1
 O  O11  1  0.75440  0.40545  0.53680  1
 O  O12  1  0.19632  0.75000  0.76073  1
 O  O13  1  0.51947  0.25000  0.70876  1
 O  O14  1  0.48053  0.75000  0.29124  1
 O  O15  1  0.67988  0.90606  0.85670  1
 O  O16  1  0.42927  0.75000  0.02757  1
 O  O17  1  0.57073  0.25000  0.97243  1
 O  O18  1  0.32012  0.09394  0.14330  1
 O  O19  1  0.80368  0.25000  0.23927  1
 O  O20  1  0.14249  0.40543  0.81393  1
 P  P1  1  0.32219  0.25000  0.82095  1
 P  P2  1  0.58400  0.25000  0.54907  1
 P  P3  1  0.41600  0.75000  0.45093  1
 P  P4  1  0.48528  0.25000  0.13451  1
 P  P5  1  0.67781  0.75000  0.17905  1
 P  P6  1  0.51472  0.75000  0.86549  1
