CIF file written using JARVIS-Tools package.
data_ZrTlCdF7
_symmetry_space_group_name_H-M  'Cmcm'
_cell_length_a       6.5611
_cell_length_b       6.5611
_cell_length_c       8.57841
_cell_angle_alpha    90
_cell_angle_beta     90
_cell_angle_gamma    116.633

_symmetry_Int_Tables_number  63
_chemical_formula_structural  ZrTlCdF7
_chemical_formula_sum  Zr2Tl2Cd2F4
_cell_volume  330.1027706809338
_cell_formula_units_Z  2
loop_
  _symmetry_equiv_pos_site_id
 _symmetry_equiv_pos_as_xyz
 1  'x, y, z'
loop_
 _atom_site_type_symbol
 _atom_site_label
 _atom_site_symmetry_multiplicity
 _atom_site_fract_x
 _atom_site_fract_y
 _atom_site_fract_z
 _atom_site_fract_occupancy
 Cd  Cd1  1  0.80765  0.19235  0.25000  1
 Cd  Cd2  1  0.19235  0.80765  0.75000  1
 F  F1  1  0.56419  0.84501  0.75000  1
 F  F2  1  0.79719  0.20281  0.98646  1
 F  F3  1  0.84501  0.56419  0.25000  1
 F  F4  1  0.43581  0.15499  0.25000  1
 F  F5  1  0.00922  0.99078  0.25000  1
 F  F6  1  0.79719  0.20281  0.51354  1
 F  F7  1  0.15499  0.43581  0.75000  1
 F  F8  1  0.82776  0.52576  0.75000  1
 F  F9  1  0.99078  0.00922  0.75000  1
 F  F10  1  0.20281  0.79719  0.01354  1
 F  F11  1  0.52576  0.82776  0.25000  1
 F  F12  1  0.20281  0.79719  0.48646  1
 F  F13  1  0.17224  0.47424  0.25000  1
 F  F14  1  0.47424  0.17224  0.75000  1
 Tl  Tl1  1  0.50000  0.50000  0.50000  1
 Tl  Tl2  1  0.50000  0.50000  0.00000  1
 Zr  Zr1  1  0.80755  0.19245  0.75000  1
 Zr  Zr2  1  0.19245  0.80755  0.25000  1
