CIF file written using JARVIS-Tools package.
data_AlH3O3
_symmetry_space_group_name_H-M  'P1'
_cell_length_a       8.79553
_cell_length_b       5.06689
_cell_length_c       9.35082
_cell_angle_alpha    89.0426
_cell_angle_beta     88.5843
_cell_angle_gamma    91.1465

_symmetry_Int_Tables_number  1
_chemical_formula_structural  AlH3O3
_chemical_formula_sum  Al8H24O24
_cell_volume  416.4565382501305
_cell_formula_units_Z  8
loop_
  _symmetry_equiv_pos_site_id
 _symmetry_equiv_pos_as_xyz
 1  'x, y, z'
loop_
 _atom_site_type_symbol
 _atom_site_label
 _atom_site_symmetry_multiplicity
 _atom_site_fract_x
 _atom_site_fract_y
 _atom_site_fract_z
 _atom_site_fract_occupancy
 Al  Al1  1  0.33205  0.00764  0.48770  1
 Al  Al2  1  0.66819  0.01129  0.50650  1
 Al  Al3  1  0.83919  0.52148  0.50725  1
 Al  Al4  1  0.16894  0.50355  0.48922  1
 Al  Al5  1  0.82890  0.96666  0.00938  1
 Al  Al6  1  0.15836  0.01771  0.98765  1
 Al  Al7  1  0.32977  0.52240  0.98475  1
 Al  Al8  1  0.66281  0.45996  0.00641  1
 H  H1  1  0.98877  0.18542  0.38035  1
 H  H2  1  0.48492  0.69621  0.37608  1
 H  H3  1  0.48264  0.33727  0.61551  1
 H  H4  1  0.19950  0.19623  0.69904  1
 H  H5  1  0.23376  0.80275  0.27418  1
 H  H6  1  0.30449  0.69496  0.69748  1
 H  H7  1  0.89159  0.14755  0.67961  1
 H  H8  1  0.61325  0.64981  0.69416  1
 H  H9  1  0.79153  0.79897  0.29852  1
 H  H10  1  0.02961  0.84332  0.61141  1
 H  H11  1  0.26419  0.29792  0.27818  1
 H  H12  1  0.59679  0.40124  0.36973  1
 H  H13  1  0.96428  0.32073  0.88584  1
 H  H14  1  0.81172  0.67355  0.79814  1
 H  H15  1  0.54152  0.82231  0.88403  1
 H  H16  1  0.69638  0.16860  0.79504  1
 H  H17  1  0.40178  0.96515  0.10089  1
 H  H18  1  0.38983  0.14942  0.81914  1
 H  H19  1  0.45936  0.34469  0.20341  1
 H  H20  1  0.10787  0.65014  0.81455  1
 H  H21  1  0.01351  0.84918  0.20960  1
 H  H22  1  0.60758  0.84591  0.18246  1
 H  H23  1  0.08070  0.42360  0.12240  1
 H  H24  1  0.78913  0.28373  0.21969  1
 O  O1  1  0.30182  0.22180  0.87009  1
 O  O2  1  0.19286  0.81880  0.37342  1
 O  O3  1  0.01059  0.65129  0.60954  1
 O  O4  1  -0.00212  0.37727  0.39091  1
 O  O5  1  0.50773  0.88529  0.38070  1
 O  O6  1  0.49084  0.14603  0.60364  1
 O  O7  1  0.17785  0.17760  0.59641  1
 O  O8  1  0.69359  0.32655  0.39482  1
 O  O9  1  0.32329  0.67966  0.59364  1
 O  O10  1  0.80812  0.21086  0.62122  1
 O  O11  1  0.82214  0.83654  0.39726  1
 O  O12  1  0.31508  0.84083  0.09281  1
 O  O13  1  0.00466  0.85448  0.10558  1
 O  O14  1  0.47869  0.34635  0.09989  1
 O  O15  1  0.51412  0.63170  0.88368  1
 O  O16  1  0.67038  0.14097  0.89758  1
 O  O17  1  0.17590  0.33464  0.09763  1
 O  O18  1  0.82388  0.64747  0.90140  1
 O  O19  1  0.80083  0.27276  0.11500  1
 O  O20  1  0.98415  0.12994  0.88485  1
 O  O21  1  0.19112  0.71879  0.87205  1
 O  O22  1  0.31846  0.32447  0.36934  1
 O  O23  1  0.68732  0.70539  0.61839  1
 O  O24  1  0.68820  0.76413  0.12524  1
