CIF file written using JARVIS-Tools package.
data_Be3Cd4Si3SO12
_symmetry_space_group_name_H-M  'P-43n'
_cell_length_a       8.53508
_cell_length_b       8.53508
_cell_length_c       8.53508
_cell_angle_alpha    90
_cell_angle_beta     90
_cell_angle_gamma    90

_symmetry_Int_Tables_number  218
_chemical_formula_structural  Be3Cd4Si3SO12
_chemical_formula_sum  Be6Cd8Si6S2O24
_cell_volume  621.7589697215034
_cell_formula_units_Z  2
loop_
  _symmetry_equiv_pos_site_id
 _symmetry_equiv_pos_as_xyz
 1  'x, y, z'
loop_
 _atom_site_type_symbol
 _atom_site_label
 _atom_site_symmetry_multiplicity
 _atom_site_fract_x
 _atom_site_fract_y
 _atom_site_fract_z
 _atom_site_fract_occupancy
 Be  Be1  1  0.25000  0.50000  0.00000  1
 Be  Be2  1  0.50000  0.00000  0.75000  1
 Be  Be3  1  0.50000  0.00000  0.25000  1
 Be  Be4  1  0.00000  0.25000  0.50000  1
 Be  Be5  1  0.00000  0.75000  0.50000  1
 Be  Be6  1  0.75000  0.50000  0.00000  1
 Cd  Cd1  1  0.16996  0.83004  0.83004  1
 Cd  Cd2  1  0.33004  0.66996  0.33004  1
 Cd  Cd3  1  0.66996  0.33004  0.33004  1
 Cd  Cd4  1  0.83004  0.83004  0.16996  1
 Cd  Cd5  1  0.83004  0.16996  0.83004  1
 Cd  Cd6  1  0.66996  0.66996  0.66996  1
 Cd  Cd7  1  0.16996  0.16996  0.16996  1
 Cd  Cd8  1  0.33004  0.33004  0.66996  1
 O  O1  1  0.14343  0.85628  0.57213  1
 O  O2  1  0.85657  0.14372  0.57213  1
 O  O3  1  0.85628  0.42787  0.85657  1
 O  O4  1  0.57213  0.14343  0.85628  1
 O  O5  1  0.14372  0.57213  0.85657  1
 O  O6  1  0.14372  0.42787  0.14343  1
 O  O7  1  0.64372  0.35657  0.07213  1
 O  O8  1  0.14343  0.14372  0.42787  1
 O  O9  1  0.85657  0.85628  0.42787  1
 O  O10  1  0.57213  0.85657  0.14372  1
 O  O11  1  0.42787  0.85657  0.85628  1
 O  O12  1  0.85628  0.57213  0.14343  1
 O  O13  1  0.92787  0.35628  0.35657  1
 O  O14  1  0.35628  0.35657  0.92787  1
 O  O15  1  0.35657  0.92787  0.35628  1
 O  O16  1  0.35628  0.64343  0.07213  1
 O  O17  1  0.92787  0.64372  0.64343  1
 O  O18  1  0.64343  0.92787  0.64372  1
 O  O19  1  0.07213  0.64372  0.35657  1
 O  O20  1  0.07213  0.35628  0.64343  1
 O  O21  1  0.35657  0.07213  0.64372  1
 O  O22  1  0.42787  0.14343  0.14372  1
 O  O23  1  0.64343  0.07213  0.35628  1
 O  O24  1  0.64372  0.64343  0.92787  1
 S  S1  1  0.50000  0.50000  0.50000  1
 S  S2  1  0.00000  0.00000  0.00000  1
 Si  Si1  1  0.75000  0.00000  0.50000  1
 Si  Si2  1  0.50000  0.75000  0.00000  1
 Si  Si3  1  0.50000  0.25000  0.00000  1
 Si  Si4  1  0.25000  0.00000  0.50000  1
 Si  Si5  1  0.00000  0.50000  0.75000  1
 Si  Si6  1  0.00000  0.50000  0.25000  1
