CIF file written using JARVIS-Tools package.
data_V2CrTe4
_symmetry_space_group_name_H-M  'C2/m'
_cell_length_a       3.95257
_cell_length_b       6.82732
_cell_length_c       7.35759
_cell_angle_alpha    115.724
_cell_angle_beta     105.581
_cell_angle_gamma    90

_symmetry_Int_Tables_number  12
_chemical_formula_structural  V2CrTe4
_chemical_formula_sum  V2CrTe4
_cell_volume  170.73572133590054
_cell_formula_units_Z  1
loop_
  _symmetry_equiv_pos_site_id
 _symmetry_equiv_pos_as_xyz
 1  'x, y, z'
loop_
 _atom_site_type_symbol
 _atom_site_label
 _atom_site_symmetry_multiplicity
 _atom_site_fract_x
 _atom_site_fract_y
 _atom_site_fract_z
 _atom_site_fract_occupancy
 Cr  Cr1  1  0.00000  0.00000  0.00000  1
 Te  Te1  1  0.11192  0.45256  0.22384  1
 Te  Te2  1  0.88808  0.54744  0.77616  1
 Te  Te3  1  0.36277  0.02218  0.72555  1
 Te  Te4  1  0.63723  0.97782  0.27445  1
 V  V1  1  0.25716  0.29690  0.51431  1
 V  V2  1  0.74284  0.70310  0.48569  1
