CIF file written using JARVIS-Tools package.
data_Sm3OsO7
_symmetry_space_group_name_H-M  'Cmcm'
_cell_length_a       6.55164
_cell_length_b       6.55164
_cell_length_c       7.51536
_cell_angle_alpha    90
_cell_angle_beta     90
_cell_angle_gamma    111.028

_symmetry_Int_Tables_number  63
_chemical_formula_structural  Sm3OsO7
_chemical_formula_sum  Sm6Os2O4
_cell_volume  301.10576215892473
_cell_formula_units_Z  2
loop_
  _symmetry_equiv_pos_site_id
 _symmetry_equiv_pos_as_xyz
 1  'x, y, z'
loop_
 _atom_site_type_symbol
 _atom_site_label
 _atom_site_symmetry_multiplicity
 _atom_site_fract_x
 _atom_site_fract_y
 _atom_site_fract_z
 _atom_site_fract_occupancy
 O  O1  1  0.81640  0.56276  0.03922  1
 O  O2  1  0.41567  0.41567  0.25000  1
 O  O3  1  0.10622  0.84214  0.75000  1
 O  O4  1  0.89378  0.15786  0.25000  1
 O  O5  1  0.84214  0.10622  0.75000  1
 O  O6  1  0.15786  0.89378  0.25000  1
 O  O7  1  0.18360  0.43724  0.96078  1
 O  O8  1  0.81640  0.56276  0.46078  1
 O  O9  1  0.43724  0.18360  0.96078  1
 O  O10  1  0.58433  0.58433  0.75000  1
 O  O11  1  0.18360  0.43724  0.53922  1
 O  O12  1  0.56276  0.81640  0.03922  1
 O  O13  1  0.43724  0.18360  0.53922  1
 O  O14  1  0.56276  0.81640  0.46078  1
 Os  Os1  1  0.50000  0.50000  0.00000  1
 Os  Os2  1  0.50000  0.50000  0.50000  1
 Sm  Sm1  1  0.00000  0.00000  0.00000  1
 Sm  Sm2  1  0.00000  0.00000  0.50000  1
 Sm  Sm3  1  0.92297  0.47455  0.75000  1
 Sm  Sm4  1  0.07703  0.52545  0.25000  1
 Sm  Sm5  1  0.47455  0.92297  0.75000  1
 Sm  Sm6  1  0.52545  0.07703  0.25000  1
