CIF file written using JARVIS-Tools package.
data_Y5Ge3
_symmetry_space_group_name_H-M  'P6_3/mcm'
_cell_length_a       8.48902
_cell_length_b       8.48902
_cell_length_c       6.41672
_cell_angle_alpha    90
_cell_angle_beta     90
_cell_angle_gamma    120

_symmetry_Int_Tables_number  193
_chemical_formula_structural  Y5Ge3
_chemical_formula_sum  Y0Ge6
_cell_volume  400.4597021576716
_cell_formula_units_Z  2
loop_
  _symmetry_equiv_pos_site_id
 _symmetry_equiv_pos_as_xyz
 1  'x, y, z'
loop_
 _atom_site_type_symbol
 _atom_site_label
 _atom_site_symmetry_multiplicity
 _atom_site_fract_x
 _atom_site_fract_y
 _atom_site_fract_z
 _atom_site_fract_occupancy
 Ge  Ge1  1  0.00000  0.39335  0.75000  1
 Ge  Ge2  1  0.60665  -0.00000  0.25000  1
 Ge  Ge3  1  0.39335  0.39335  0.25000  1
 Ge  Ge4  1  0.60665  0.60665  0.75000  1
 Ge  Ge5  1  0.39335  0.00000  0.75000  1
 Ge  Ge6  1  -0.00000  0.60665  0.25000  1
 Y  Y1  1  0.24246  0.24246  0.75000  1
 Y  Y2  1  0.75754  0.75754  0.25000  1
 Y  Y3  1  0.24246  -0.00000  0.25000  1
 Y  Y4  1  0.00000  0.75754  0.75000  1
 Y  Y5  1  0.75754  0.00000  0.75000  1
 Y  Y6  1  -0.00000  0.24246  0.25000  1
 Y  Y7  1  0.33333  0.66667  0.50000  1
 Y  Y8  1  0.66667  0.33333  0.00000  1
 Y  Y9  1  0.66667  0.33333  0.50000  1
 Y  Y10  1  0.33333  0.66667  0.00000  1
