CIF file written using JARVIS-Tools package.
data_Re2N
_symmetry_space_group_name_H-M  'P6_3/mmc'
_cell_length_a       2.86741
_cell_length_b       2.86741
_cell_length_c       9.91251
_cell_angle_alpha    90
_cell_angle_beta     90
_cell_angle_gamma    120

_symmetry_Int_Tables_number  194
_chemical_formula_structural  Re2N
_chemical_formula_sum  Re4N2
_cell_volume  70.58216887377554
_cell_formula_units_Z  2
loop_
  _symmetry_equiv_pos_site_id
 _symmetry_equiv_pos_as_xyz
 1  'x, y, z'
loop_
 _atom_site_type_symbol
 _atom_site_label
 _atom_site_symmetry_multiplicity
 _atom_site_fract_x
 _atom_site_fract_y
 _atom_site_fract_z
 _atom_site_fract_occupancy
 N  N1  1  0.33333  0.66667  0.75000  1
 N  N2  1  0.66667  0.33333  0.25000  1
 Re  Re1  1  0.33333  0.66667  0.39452  1
 Re  Re2  1  0.66667  0.33333  0.60548  1
 Re  Re3  1  0.66667  0.33333  0.89452  1
 Re  Re4  1  0.33333  0.66667  0.10548  1
