CIF file written using JARVIS-Tools package.
data_ErB4Rh
_symmetry_space_group_name_H-M  'Pbam'
_cell_length_a       3.56407
_cell_length_b       5.92908
_cell_length_c       11.4979
_cell_angle_alpha    90
_cell_angle_beta     90
_cell_angle_gamma    90

_symmetry_Int_Tables_number  55
_chemical_formula_structural  ErB4Rh
_chemical_formula_sum  Er4B6Rh4
_cell_volume  242.97039115680346
_cell_formula_units_Z  4
loop_
  _symmetry_equiv_pos_site_id
 _symmetry_equiv_pos_as_xyz
 1  'x, y, z'
loop_
 _atom_site_type_symbol
 _atom_site_label
 _atom_site_symmetry_multiplicity
 _atom_site_fract_x
 _atom_site_fract_y
 _atom_site_fract_z
 _atom_site_fract_occupancy
 B  B1  1  0.50000  0.02292  0.19290  1
 B  B2  1  0.50000  0.79149  0.68723  1
 B  B3  1  0.50000  0.20851  0.31277  1
 B  B4  1  0.50000  0.29149  0.81277  1
 B  B5  1  0.50000  0.38741  0.54711  1
 B  B6  1  0.50000  0.61259  0.45289  1
 B  B7  1  0.50000  0.88741  0.95289  1
 B  B8  1  0.50000  0.11259  0.04711  1
 B  B9  1  0.50000  0.47708  0.69290  1
 B  B10  1  0.50000  0.52292  0.30710  1
 B  B11  1  0.50000  0.97708  0.80710  1
 B  B12  1  0.50000  0.70851  0.18723  1
 B  B13  1  0.50000  0.63560  0.03037  1
 B  B14  1  0.50000  0.36440  0.96963  1
 B  B15  1  0.50000  0.13560  0.46963  1
 B  B16  1  0.50000  0.86440  0.53037  1
 Er  Er1  1  0.00000  0.13132  0.64875  1
 Er  Er2  1  0.00000  0.36868  0.14875  1
 Er  Er3  1  0.00000  0.63132  0.85125  1
 Er  Er4  1  0.00000  0.86868  0.35125  1
 Rh  Rh1  1  0.00000  0.64302  0.59530  1
 Rh  Rh2  1  0.00000  0.35698  0.40470  1
 Rh  Rh3  1  0.00000  0.14302  0.90470  1
 Rh  Rh4  1  0.00000  0.85698  0.09530  1
