CIF file written using JARVIS-Tools package.
data_Tc3N
_symmetry_space_group_name_H-M  'P-6m2'
_cell_length_a       2.81408
_cell_length_b       2.81408
_cell_length_c       7.07779
_cell_angle_alpha    90
_cell_angle_beta     90
_cell_angle_gamma    120

_symmetry_Int_Tables_number  187
_chemical_formula_structural  Tc3N
_chemical_formula_sum  Tc3N
_cell_volume  48.54029769467612
_cell_formula_units_Z  1
loop_
  _symmetry_equiv_pos_site_id
 _symmetry_equiv_pos_as_xyz
 1  'x, y, z'
loop_
 _atom_site_type_symbol
 _atom_site_label
 _atom_site_symmetry_multiplicity
 _atom_site_fract_x
 _atom_site_fract_y
 _atom_site_fract_z
 _atom_site_fract_occupancy
 N  N1  1  0.66667  0.33333  0.00000  1
 Tc  Tc1  1  0.66667  0.33333  0.50000  1
 Tc  Tc2  1  0.33333  0.66667  0.19652  1
 Tc  Tc3  1  0.33333  0.66667  0.80348  1
