CIF file written using JARVIS-Tools package.
data_MnH2O2
_symmetry_space_group_name_H-M  'C2/m'
_cell_length_a       2.99682
_cell_length_b       3.19746
_cell_length_c       4.49147
_cell_angle_alpha    89.9361
_cell_angle_beta     92.3503
_cell_angle_gamma    122.401

_symmetry_Int_Tables_number  12
_chemical_formula_structural  MnH2O2
_chemical_formula_sum  MnH2O2
_cell_volume  36.296203501375544
_cell_formula_units_Z  1
loop_
  _symmetry_equiv_pos_site_id
 _symmetry_equiv_pos_as_xyz
 1  'x, y, z'
loop_
 _atom_site_type_symbol
 _atom_site_label
 _atom_site_symmetry_multiplicity
 _atom_site_fract_x
 _atom_site_fract_y
 _atom_site_fract_z
 _atom_site_fract_occupancy
 H  H1  1  0.64951  0.24354  0.53353  1
 H  H2  1  0.37546  0.60602  0.42231  1
 Mn  Mn1  1  0.01251  0.92477  0.97793  1
 O  O1  1  0.68514  0.26086  0.75182  1
 O  O2  1  0.33990  0.58869  0.20402  1
