CIF file written using JARVIS-Tools package.
data_HfB4Ir3
_symmetry_space_group_name_H-M  'P6_3/m'
_cell_length_a       7.65414
_cell_length_b       7.65414
_cell_length_c       3.51884
_cell_angle_alpha    90
_cell_angle_beta     90
_cell_angle_gamma    120

_symmetry_Int_Tables_number  176
_chemical_formula_structural  HfB4Ir3
_chemical_formula_sum  Hf2B8Ir6
_cell_volume  178.53512754090676
_cell_formula_units_Z  2
loop_
  _symmetry_equiv_pos_site_id
 _symmetry_equiv_pos_as_xyz
 1  'x, y, z'
loop_
 _atom_site_type_symbol
 _atom_site_label
 _atom_site_symmetry_multiplicity
 _atom_site_fract_x
 _atom_site_fract_y
 _atom_site_fract_z
 _atom_site_fract_occupancy
 B  B1  1  0.00000  0.00000  0.50000  1
 B  B2  1  0.00000  0.00000  0.00000  1
 B  B3  1  0.05218  0.60426  0.75000  1
 B  B4  1  0.44792  0.05218  0.25000  1
 B  B5  1  0.94782  0.39574  0.25000  1
 B  B6  1  0.39574  0.44792  0.75000  1
 B  B7  1  0.55208  0.94782  0.75000  1
 B  B8  1  0.60426  0.55208  0.25000  1
 Hf  Hf1  1  0.66667  0.33333  0.75000  1
 Hf  Hf2  1  0.33333  0.66667  0.25000  1
 Ir  Ir1  1  0.92370  0.66491  0.25000  1
 Ir  Ir2  1  0.33509  0.25879  0.25000  1
 Ir  Ir3  1  0.25879  0.92370  0.75000  1
 Ir  Ir4  1  0.07630  0.33509  0.75000  1
 Ir  Ir5  1  0.66491  0.74121  0.75000  1
 Ir  Ir6  1  0.74121  0.07630  0.25000  1
