CIF file written using JARVIS-Tools package.
data_BaPd2O4
_symmetry_space_group_name_H-M  'I4_1/a'
_cell_length_a       6.85427
_cell_length_b       6.85427
_cell_length_c       6.85427
_cell_angle_alpha    125.089
_cell_angle_beta     125.089
_cell_angle_gamma    81.391

_symmetry_Int_Tables_number  88
_chemical_formula_structural  BaPd2O4
_chemical_formula_sum  Ba2Pd4O8
_cell_volume  207.60491329166058
_cell_formula_units_Z  2
loop_
  _symmetry_equiv_pos_site_id
 _symmetry_equiv_pos_as_xyz
 1  'x, y, z'
loop_
 _atom_site_type_symbol
 _atom_site_label
 _atom_site_symmetry_multiplicity
 _atom_site_fract_x
 _atom_site_fract_y
 _atom_site_fract_z
 _atom_site_fract_occupancy
 Ba  Ba1  1  0.37500  0.12500  0.25000  1
 Ba  Ba2  1  0.62500  0.87500  0.75000  1
 O  O1  1  0.98085  0.31909  0.13533  1
 O  O2  1  0.81909  0.18376  0.33823  1
 O  O3  1  0.34553  0.48085  0.16177  1
 O  O4  1  0.31624  0.15447  0.63533  1
 O  O5  1  0.68376  0.84553  0.36467  1
 O  O6  1  0.65447  0.51915  0.83823  1
 O  O7  1  0.18091  0.81624  0.66177  1
 O  O8  1  0.01915  0.68091  0.86467  1
 Pd  Pd1  1  0.50000  0.50000  0.00000  1
 Pd  Pd2  1  -0.00000  -0.00000  0.50000  1
 Pd  Pd3  1  0.00000  0.50000  0.00000  1
 Pd  Pd4  1  0.00000  0.50000  0.50000  1
