CIF file written using JARVIS-Tools package.
data_CaNi2S4
_symmetry_space_group_name_H-M  'I4_1/amd'
_cell_length_a       7.22438
_cell_length_b       7.22438
_cell_length_c       7.29284
_cell_angle_alpha    119.69
_cell_angle_beta     119.69
_cell_angle_gamma    90

_symmetry_Int_Tables_number  141
_chemical_formula_structural  CaNi2S4
_chemical_formula_sum  Ca2Ni4S8
_cell_volume  271.6453064492566
_cell_formula_units_Z  2
loop_
  _symmetry_equiv_pos_site_id
 _symmetry_equiv_pos_as_xyz
 1  'x, y, z'
loop_
 _atom_site_type_symbol
 _atom_site_label
 _atom_site_symmetry_multiplicity
 _atom_site_fract_x
 _atom_site_fract_y
 _atom_site_fract_z
 _atom_site_fract_occupancy
 Ca  Ca1  1  0.37500  0.62500  0.75000  1
 Ca  Ca2  1  0.62500  0.37500  0.25000  1
 Ni  Ni1  1  0.00000  -0.00000  0.50000  1
 Ni  Ni2  1  0.00000  0.50000  -0.00000  1
 Ni  Ni3  1  0.50000  -0.00000  0.50000  1
 Ni  Ni4  1  0.00000  0.00000  0.00000  1
 S  S1  1  0.77364  0.81555  0.54728  1
 S  S2  1  0.76827  0.22636  0.95272  1
 S  S3  1  0.18445  0.22636  0.95272  1
 S  S4  1  0.22636  0.18445  0.45272  1
 S  S5  1  0.22636  0.76827  0.45272  1
 S  S6  1  0.23173  0.77364  0.04728  1
 S  S7  1  0.77364  0.23173  0.54728  1
 S  S8  1  0.81555  0.77364  0.04728  1
