CIF file written using JARVIS-Tools package.
data_Li2MnF6
_symmetry_space_group_name_H-M  'P4_2/mnm'
_cell_length_a       4.58641
_cell_length_b       4.58641
_cell_length_c       8.80775
_cell_angle_alpha    90
_cell_angle_beta     90
_cell_angle_gamma    90

_symmetry_Int_Tables_number  136
_chemical_formula_structural  Li2MnF6
_chemical_formula_sum  Li4Mn2F2
_cell_volume  185.27220021613815
_cell_formula_units_Z  2
loop_
  _symmetry_equiv_pos_site_id
 _symmetry_equiv_pos_as_xyz
 1  'x, y, z'
loop_
 _atom_site_type_symbol
 _atom_site_label
 _atom_site_symmetry_multiplicity
 _atom_site_fract_x
 _atom_site_fract_y
 _atom_site_fract_z
 _atom_site_fract_occupancy
 F  F1  1  0.69159  0.69159  0.65291  1
 F  F2  1  0.19159  0.80841  0.15291  1
 F  F3  1  0.19159  0.80841  0.84709  1
 F  F4  1  0.80841  0.19159  0.15291  1
 F  F5  1  0.28272  0.28272  0.00000  1
 F  F6  1  0.21728  0.78272  0.50000  1
 F  F7  1  0.30841  0.30841  0.65291  1
 F  F8  1  0.69159  0.69159  0.34709  1
 F  F9  1  0.80841  0.19159  0.84709  1
 F  F10  1  0.71728  0.71728  0.00000  1
 F  F11  1  0.78272  0.21728  0.50000  1
 F  F12  1  0.30841  0.30841  0.34709  1
 Li  Li1  1  0.50000  0.50000  0.83713  1
 Li  Li2  1  0.50000  0.50000  0.16287  1
 Li  Li3  1  0.00000  0.00000  0.66287  1
 Li  Li4  1  0.00000  0.00000  0.33713  1
 Mn  Mn1  1  0.50000  0.50000  0.50000  1
 Mn  Mn2  1  0.00000  0.00000  0.00000  1
