CIF file written using JARVIS-Tools package.
data_Ho2NiB4O10
_symmetry_space_group_name_H-M  'P2_1/c'
_cell_length_a       4.58912
_cell_length_b       7.25571
_cell_length_c       9.29915
_cell_angle_alpha    90
_cell_angle_beta     90.6138
_cell_angle_gamma    90

_symmetry_Int_Tables_number  14
_chemical_formula_structural  Ho2NiB4O10
_chemical_formula_sum  Ho4Ni2B8O20
_cell_volume  309.61894322246724
_cell_formula_units_Z  2
loop_
  _symmetry_equiv_pos_site_id
 _symmetry_equiv_pos_as_xyz
 1  'x, y, z'
loop_
 _atom_site_type_symbol
 _atom_site_label
 _atom_site_symmetry_multiplicity
 _atom_site_fract_x
 _atom_site_fract_y
 _atom_site_fract_z
 _atom_site_fract_occupancy
 B  B1  1  0.45563  0.77116  0.57894  1
 B  B2  1  0.54437  0.22884  0.42106  1
 B  B3  1  0.54437  0.27116  0.92106  1
 B  B4  1  0.45563  0.72884  0.07894  1
 B  B5  1  0.47405  0.10000  0.16033  1
 B  B6  1  0.52595  0.60000  0.33967  1
 B  B7  1  0.52595  0.90000  0.83967  1
 B  B8  1  0.47405  0.40000  0.66033  1
 Ho  Ho1  1  0.00186  0.39192  0.16691  1
 Ho  Ho2  1  0.99814  0.60808  0.83309  1
 Ho  Ho3  1  0.00186  0.10808  0.66691  1
 Ho  Ho4  1  0.99814  0.89192  0.33309  1
 Ni  Ni1  1  0.00000  0.00000  0.00000  1
 Ni  Ni2  1  0.00000  0.50000  0.50000  1
 O  O1  1  0.36994  0.26858  0.55058  1
 O  O2  1  0.78835  0.41581  0.66330  1
 O  O3  1  0.21165  0.58419  0.33670  1
 O  O4  1  0.68337  0.41701  0.36967  1
 O  O5  1  0.31663  0.58299  0.63033  1
 O  O6  1  0.31663  0.91701  0.13033  1
 O  O7  1  0.78835  0.08419  0.16330  1
 O  O8  1  0.63006  0.76858  0.94942  1
 O  O9  1  0.68337  0.08299  0.86967  1
 O  O10  1  0.22059  0.88960  0.54489  1
 O  O11  1  0.35003  0.33553  0.80049  1
 O  O12  1  0.35003  0.16447  0.30049  1
 O  O13  1  0.64997  0.66447  0.19951  1
 O  O14  1  0.77941  0.11040  0.45511  1
 O  O15  1  0.22059  0.61040  0.04489  1
 O  O16  1  0.36994  0.23142  0.05058  1
 O  O17  1  0.77941  0.38960  0.95511  1
 O  O18  1  0.64997  0.83553  0.69951  1
 O  O19  1  0.63006  0.73142  0.44942  1
 O  O20  1  0.21165  0.91581  0.83670  1
