CIF file written using JARVIS-Tools package.
data_Pr2SiTeO4
_symmetry_space_group_name_H-M  'Pbcm'
_cell_length_a       6.40198
_cell_length_b       7.28661
_cell_length_c       11.3295
_cell_angle_alpha    90
_cell_angle_beta     90
_cell_angle_gamma    90

_symmetry_Int_Tables_number  57
_chemical_formula_structural  Pr2SiTeO4
_chemical_formula_sum  Pr8Si4Te4O6
_cell_volume  528.5088911786502
_cell_formula_units_Z  4
loop_
  _symmetry_equiv_pos_site_id
 _symmetry_equiv_pos_as_xyz
 1  'x, y, z'
loop_
 _atom_site_type_symbol
 _atom_site_label
 _atom_site_symmetry_multiplicity
 _atom_site_fract_x
 _atom_site_fract_y
 _atom_site_fract_z
 _atom_site_fract_occupancy
 O  O1  1  0.04795  0.76974  0.88517  1
 O  O2  1  0.04795  0.76974  0.61483  1
 O  O3  1  0.26741  0.42224  0.03581  1
 O  O4  1  0.26741  0.07776  0.96419  1
 O  O5  1  0.73259  0.92224  0.46419  1
 O  O6  1  0.73259  0.57776  0.53581  1
 O  O7  1  0.73259  0.57776  0.96419  1
 O  O8  1  0.26741  0.07776  0.53581  1
 O  O9  1  0.26741  0.42224  0.46419  1
 O  O10  1  0.04795  0.73026  0.11483  1
 O  O11  1  0.04795  0.73026  0.38517  1
 O  O12  1  0.95205  0.23026  0.38517  1
 O  O13  1  0.95205  0.26974  0.61483  1
 O  O14  1  0.95205  0.26974  0.88517  1
 O  O15  1  0.95205  0.23026  0.11483  1
 O  O16  1  0.73259  0.92224  0.03581  1
 Pr  Pr1  1  0.38877  0.75000  0.50000  1
 Pr  Pr2  1  0.11345  0.46135  0.25000  1
 Pr  Pr3  1  0.11345  0.03865  0.75000  1
 Pr  Pr4  1  0.88655  0.96135  0.25000  1
 Pr  Pr5  1  0.88655  0.53865  0.75000  1
 Pr  Pr6  1  0.61123  0.25000  0.00000  1
 Pr  Pr7  1  0.61123  0.25000  0.50000  1
 Pr  Pr8  1  0.38877  0.75000  0.00000  1
 Si  Si1  1  0.11280  0.25000  0.50000  1
 Si  Si2  1  0.88720  0.75000  0.50000  1
 Si  Si3  1  0.88720  0.75000  0.00000  1
 Si  Si4  1  0.11280  0.25000  0.00000  1
 Te  Te1  1  0.40115  0.07343  0.25000  1
 Te  Te2  1  0.40115  0.42657  0.75000  1
 Te  Te3  1  0.59885  0.92657  0.75000  1
 Te  Te4  1  0.59885  0.57343  0.25000  1
