CIF file written using JARVIS-Tools package.
data_YB4Rh
_symmetry_space_group_name_H-M  'Pbam'
_cell_length_a       3.58555
_cell_length_b       5.95788
_cell_length_c       11.5555
_cell_angle_alpha    90
_cell_angle_beta     90
_cell_angle_gamma    90

_symmetry_Int_Tables_number  55
_chemical_formula_structural  YB4Rh
_chemical_formula_sum  Y4B6Rh4
_cell_volume  246.8524468495887
_cell_formula_units_Z  4
loop_
  _symmetry_equiv_pos_site_id
 _symmetry_equiv_pos_as_xyz
 1  'x, y, z'
loop_
 _atom_site_type_symbol
 _atom_site_label
 _atom_site_symmetry_multiplicity
 _atom_site_fract_x
 _atom_site_fract_y
 _atom_site_fract_z
 _atom_site_fract_occupancy
 B  B1  1  0.50000  0.02330  0.19233  1
 B  B2  1  0.50000  0.86370  0.53065  1
 B  B3  1  0.50000  0.13630  0.46935  1
 B  B4  1  0.50000  0.36370  0.96935  1
 B  B5  1  0.50000  0.63630  0.03065  1
 B  B6  1  0.50000  0.20985  0.31310  1
 B  B7  1  0.50000  0.97670  0.80767  1
 B  B8  1  0.50000  0.52330  0.30767  1
 B  B9  1  0.50000  0.47670  0.69233  1
 B  B10  1  0.50000  0.11207  0.04669  1
 B  B11  1  0.50000  0.88793  0.95331  1
 B  B12  1  0.50000  0.61207  0.45331  1
 B  B13  1  0.50000  0.38793  0.54669  1
 B  B14  1  0.50000  0.79015  0.68690  1
 B  B15  1  0.50000  0.70985  0.18690  1
 B  B16  1  0.50000  0.29015  0.81310  1
 Rh  Rh1  1  0.00000  0.85765  0.09490  1
 Rh  Rh2  1  0.00000  0.14235  0.90510  1
 Rh  Rh3  1  0.00000  0.64235  0.59490  1
 Rh  Rh4  1  0.00000  0.35765  0.40510  1
 Y  Y1  1  0.00000  0.13103  0.64880  1
 Y  Y2  1  0.00000  0.86897  0.35120  1
 Y  Y3  1  0.00000  0.63103  0.85120  1
 Y  Y4  1  0.00000  0.36897  0.14880  1
