CIF file written using JARVIS-Tools package.
data_Mn2MoP12
_symmetry_space_group_name_H-M  'C2/c'
_cell_length_a       5.76801
_cell_length_b       8.55754
_cell_length_c       10.5787
_cell_angle_alpha    66.6965
_cell_angle_beta     74.1796
_cell_angle_gamma    70.305

_symmetry_Int_Tables_number  15
_chemical_formula_structural  Mn2MoP12
_chemical_formula_sum  Mn4Mo2P24
_cell_volume  445.61712126178423
_cell_formula_units_Z  2
loop_
  _symmetry_equiv_pos_site_id
 _symmetry_equiv_pos_as_xyz
 1  'x, y, z'
loop_
 _atom_site_type_symbol
 _atom_site_label
 _atom_site_symmetry_multiplicity
 _atom_site_fract_x
 _atom_site_fract_y
 _atom_site_fract_z
 _atom_site_fract_occupancy
 Mn  Mn1  1  0.62824  0.31555  0.04543  1
 Mn  Mn2  1  0.98922  0.18445  0.45457  1
 Mn  Mn3  1  0.37176  0.68445  0.95457  1
 Mn  Mn4  1  0.01078  0.81555  0.54543  1
 Mo  Mo1  1  0.69555  0.75000  0.25000  1
 Mo  Mo2  1  0.30445  0.25000  0.75000  1
 P  P1  1  0.02358  0.56466  0.74045  1
 P  P2  1  0.32869  0.93534  0.75955  1
 P  P3  1  0.97642  0.43534  0.25955  1
 P  P4  1  0.67131  0.06466  0.24045  1
 P  P5  1  0.40379  0.12125  0.42427  1
 P  P6  1  0.70065  0.04398  0.83322  1
 P  P7  1  0.07696  0.85964  0.07425  1
 P  P8  1  0.94931  0.37875  0.07573  1
 P  P9  1  0.59621  0.87875  0.57573  1
 P  P10  1  0.57785  0.45602  0.66678  1
 P  P11  1  0.01084  0.64036  0.42575  1
 P  P12  1  0.33170  0.22928  0.00337  1
 P  P13  1  0.05069  0.62125  0.92427  1
 P  P14  1  0.98916  0.35964  0.57425  1
 P  P15  1  0.43565  0.72928  0.50337  1
 P  P16  1  0.66830  0.77072  0.99663  1
 P  P17  1  0.35454  0.47926  0.16420  1
 P  P18  1  0.99801  0.02074  0.33580  1
 P  P19  1  0.64546  0.52074  0.83580  1
 P  P20  1  0.00199  0.97926  0.66420  1
 P  P21  1  0.42215  0.54398  0.33322  1
 P  P22  1  0.29935  0.95602  0.16678  1
 P  P23  1  0.92304  0.14036  0.92575  1
 P  P24  1  0.56435  0.27072  0.49663  1
