CIF file written using JARVIS-Tools package.
data_Si3Mo5
_symmetry_space_group_name_H-M  'I4/mcm'
_cell_length_a       4.93527
_cell_length_b       7.30007
_cell_length_c       7.30007
_cell_angle_alpha    83.4389
_cell_angle_beta     70.2432
_cell_angle_gamma    70.2432

_symmetry_Int_Tables_number  140
_chemical_formula_structural  Si3Mo5
_chemical_formula_sum  Si6Mo0
_cell_volume  232.9531798354338
_cell_formula_units_Z  2
loop_
  _symmetry_equiv_pos_site_id
 _symmetry_equiv_pos_as_xyz
 1  'x, y, z'
loop_
 _atom_site_type_symbol
 _atom_site_label
 _atom_site_symmetry_multiplicity
 _atom_site_fract_x
 _atom_site_fract_y
 _atom_site_fract_z
 _atom_site_fract_occupancy
 Mo  Mo1  1  0.27509  0.14819  0.30163  1
 Mo  Mo2  1  0.72491  0.85181  0.69837  1
 Mo  Mo3  1  0.42328  0.30163  0.85181  1
 Mo  Mo4  1  0.57672  0.69837  0.14819  1
 Mo  Mo5  1  0.92328  0.85181  0.30163  1
 Mo  Mo6  1  0.22491  0.69837  0.85181  1
 Mo  Mo7  1  0.77509  0.30163  0.14819  1
 Mo  Mo8  1  0.07672  0.14819  0.69837  1
 Mo  Mo9  1  0.75000  0.50000  0.50000  1
 Mo  Mo10  1  0.25000  0.50000  0.50000  1
 Si  Si1  1  0.83264  0.50000  0.83472  1
 Si  Si2  1  0.66736  0.16528  0.50000  1
 Si  Si3  1  0.33264  0.83472  0.50000  1
 Si  Si4  1  0.16736  0.50000  0.16528  1
 Si  Si5  1  0.75000  0.00000  -0.00000  1
 Si  Si6  1  0.25000  0.00000  -0.00000  1
