CIF file written using JARVIS-Tools package.
data_Zr3O
_symmetry_space_group_name_H-M  'R32'
_cell_length_a       10.9204
_cell_length_b       10.9204
_cell_length_c       10.9204
_cell_angle_alpha    30.0113
_cell_angle_beta     30.0113
_cell_angle_gamma    30.0113

_symmetry_Int_Tables_number  155
_chemical_formula_structural  Zr3O
_chemical_formula_sum  Zr2O4
_cell_volume  288.5940307976863
_cell_formula_units_Z  4
loop_
  _symmetry_equiv_pos_site_id
 _symmetry_equiv_pos_as_xyz
 1  'x, y, z'
loop_
 _atom_site_type_symbol
 _atom_site_label
 _atom_site_symmetry_multiplicity
 _atom_site_fract_x
 _atom_site_fract_y
 _atom_site_fract_z
 _atom_site_fract_occupancy
 O  O1  1  0.29153  0.29153  0.29153  1
 O  O2  1  0.12516  0.12516  0.12516  1
 O  O3  1  0.70847  0.70847  0.70847  1
 O  O4  1  0.87484  0.87484  0.87484  1
 Zr  Zr1  1  0.50000  0.84014  0.15986  1
 Zr  Zr2  1  0.15986  0.50000  0.84014  1
 Zr  Zr3  1  0.41528  0.07613  0.75773  1
 Zr  Zr4  1  -0.00000  0.34193  0.65807  1
 Zr  Zr5  1  0.34193  0.65807  0.00000  1
 Zr  Zr6  1  0.24227  0.92387  0.58472  1
 Zr  Zr7  1  0.65807  0.00000  0.34193  1
 Zr  Zr8  1  0.92387  0.58472  0.24227  1
 Zr  Zr9  1  0.75773  0.41528  0.07613  1
 Zr  Zr10  1  0.84014  0.15986  0.50000  1
 Zr  Zr11  1  0.58472  0.24227  0.92387  1
 Zr  Zr12  1  0.07613  0.75773  0.41528  1
