CIF file written using JARVIS-Tools package.
data_Te4MoW2S2
_symmetry_space_group_name_H-M  'P3m1'
_cell_length_a       3.4273
_cell_length_b       3.4273
_cell_length_c       30.2515
_cell_angle_alpha    90
_cell_angle_beta     90
_cell_angle_gamma    120

_symmetry_Int_Tables_number  156
_chemical_formula_structural  Te4MoW2S2
_chemical_formula_sum  Te4MoW2S2
_cell_volume  307.73849995861815
_cell_formula_units_Z  1
loop_
  _symmetry_equiv_pos_site_id
 _symmetry_equiv_pos_as_xyz
 1  'x, y, z'
loop_
 _atom_site_type_symbol
 _atom_site_label
 _atom_site_symmetry_multiplicity
 _atom_site_fract_x
 _atom_site_fract_y
 _atom_site_fract_z
 _atom_site_fract_occupancy
 Mo  Mo1  1  0.33333  0.66666  0.11295  1
 S  S1  1  0.66665  0.33330  0.52461  1
 S  S2  1  0.66665  0.33330  0.62367  1
 Te  Te1  1  0.33333  0.66667  0.41578  1
 Te  Te2  1  0.66666  0.33332  0.05134  1
 Te  Te3  1  0.66666  0.33333  0.17468  1
 Te  Te4  1  0.33333  0.66667  0.29185  1
 W  W1  1  0.33332  0.66663  0.57417  1
 W  W2  1  0.66667  0.33333  0.35380  1
