CIF file written using JARVIS-Tools package.
data_V2FeS4
_symmetry_space_group_name_H-M  'C2/m'
_cell_length_a       3.24776
_cell_length_b       5.77299
_cell_length_c       6.21084
_cell_angle_alpha    115.134
_cell_angle_beta     105.156
_cell_angle_gamma    90.002

_symmetry_Int_Tables_number  12
_chemical_formula_structural  V2FeS4
_chemical_formula_sum  V2FeS4
_cell_volume  100.93108187981797
_cell_formula_units_Z  1
loop_
  _symmetry_equiv_pos_site_id
 _symmetry_equiv_pos_as_xyz
 1  'x, y, z'
loop_
 _atom_site_type_symbol
 _atom_site_label
 _atom_site_symmetry_multiplicity
 _atom_site_fract_x
 _atom_site_fract_y
 _atom_site_fract_z
 _atom_site_fract_occupancy
 Fe  Fe1  1  0.00000  0.00000  0.00000  1
 S  S1  1  0.10299  0.43757  0.20601  1
 S  S2  1  0.89701  0.56243  0.79399  1
 S  S3  1  0.63268  0.97505  0.26538  1
 S  S4  1  0.36732  0.02495  0.73462  1
 V  V1  1  0.73963  0.68745  0.47927  1
 V  V2  1  0.26037  0.31255  0.52073  1
