CIF file written using JARVIS-Tools package.
data_Li2GeF6
_symmetry_space_group_name_H-M  'P321'
_cell_length_a       8.45298
_cell_length_b       8.45298
_cell_length_c       4.58751
_cell_angle_alpha    90
_cell_angle_beta     90
_cell_angle_gamma    120

_symmetry_Int_Tables_number  150
_chemical_formula_structural  Li2GeF6
_chemical_formula_sum  Li6Ge3F8
_cell_volume  283.87550724141727
_cell_formula_units_Z  3
loop_
  _symmetry_equiv_pos_site_id
 _symmetry_equiv_pos_as_xyz
 1  'x, y, z'
loop_
 _atom_site_type_symbol
 _atom_site_label
 _atom_site_symmetry_multiplicity
 _atom_site_fract_x
 _atom_site_fract_y
 _atom_site_fract_z
 _atom_site_fract_occupancy
 F  F1  1  0.42177  0.54873  0.26479  1
 F  F2  1  0.89016  0.79299  0.77609  1
 F  F3  1  0.20701  0.09718  0.77609  1
 F  F4  1  0.90282  0.10984  0.77609  1
 F  F5  1  0.23642  0.77715  0.71511  1
 F  F6  1  0.79299  0.89016  0.22391  1
 F  F7  1  0.22285  0.45927  0.71511  1
 F  F8  1  0.45927  0.22285  0.28489  1
 F  F9  1  0.54073  0.76358  0.71511  1
 F  F10  1  0.76358  0.54073  0.28489  1
 F  F11  1  0.57823  0.12697  0.73521  1
 F  F12  1  0.54873  0.42177  0.73521  1
 F  F13  1  0.77715  0.23642  0.28489  1
 F  F14  1  0.09718  0.20701  0.22391  1
 F  F15  1  0.12697  0.57823  0.26479  1
 F  F16  1  0.10984  0.90282  0.22391  1
 F  F17  1  0.87303  0.45127  0.73521  1
 F  F18  1  0.45127  0.87303  0.26479  1
 Ge  Ge1  1  0.33333  0.66667  0.49038  1
 Ge  Ge2  1  0.00000  0.00000  0.00000  1
 Ge  Ge3  1  0.66667  0.33333  0.50962  1
 Li  Li1  1  -0.00000  0.70187  0.50000  1
 Li  Li2  1  0.29813  0.29813  0.50000  1
 Li  Li3  1  0.36685  -0.00000  0.00000  1
 Li  Li4  1  0.63315  0.63315  0.00000  1
 Li  Li5  1  -0.00000  0.36685  0.00000  1
 Li  Li6  1  0.70187  -0.00000  0.50000  1
