CIF file written using JARVIS-Tools package.
data_Li2CaHfF8
_symmetry_space_group_name_H-M  'I-4'
_cell_length_a       5.10515
_cell_length_b       5.10513
_cell_length_c       6.39221
_cell_angle_alpha    113.533
_cell_angle_beta     113.533
_cell_angle_gamma    90.0039

_symmetry_Int_Tables_number  82
_chemical_formula_structural  Li2CaHfF8
_chemical_formula_sum  Li2CaHfF8
_cell_volume  137.49253478243966
_cell_formula_units_Z  1
loop_
  _symmetry_equiv_pos_site_id
 _symmetry_equiv_pos_as_xyz
 1  'x, y, z'
loop_
 _atom_site_type_symbol
 _atom_site_label
 _atom_site_symmetry_multiplicity
 _atom_site_fract_x
 _atom_site_fract_y
 _atom_site_fract_z
 _atom_site_fract_occupancy
 Ca  Ca1  1  0.00002  0.00001  0.00000  1
 F  F1  1  0.99520  0.39471  0.35998  1
 F  F2  1  0.73534  0.87590  0.17802  1
 F  F3  1  0.03472  0.00480  0.64001  1
 F  F4  1  0.60530  0.63521  0.64005  1
 F  F5  1  0.36478  0.96526  0.35996  1
 F  F6  1  0.69784  0.26462  0.82195  1
 F  F7  1  0.44269  0.30218  0.17805  1
 F  F8  1  0.12410  0.55730  0.82197  1
 Hf  Hf1  1  0.75000  0.25000  0.50000  1
 Li  Li1  1  0.25002  0.75000  0.50002  1
 Li  Li2  1  0.50000  0.50001  0.99999  1
