CIF file written using JARVIS-Tools package.
data_VCr2Te4
_symmetry_space_group_name_H-M  'C2/m'
_cell_length_a       4.00421
_cell_length_b       6.96389
_cell_length_c       7.2904
_cell_angle_alpha    117.332
_cell_angle_beta     105.939
_cell_angle_gamma    90

_symmetry_Int_Tables_number  12
_chemical_formula_structural  VCr2Te4
_chemical_formula_sum  VCr2Te4
_cell_volume  171.75133514299188
_cell_formula_units_Z  1
loop_
  _symmetry_equiv_pos_site_id
 _symmetry_equiv_pos_as_xyz
 1  'x, y, z'
loop_
 _atom_site_type_symbol
 _atom_site_label
 _atom_site_symmetry_multiplicity
 _atom_site_fract_x
 _atom_site_fract_y
 _atom_site_fract_z
 _atom_site_fract_occupancy
 Cr  Cr1  1  0.25853  0.27673  0.51706  1
 Cr  Cr2  1  0.74147  0.72327  0.48294  1
 Te  Te1  1  0.12023  0.45277  0.24045  1
 Te  Te2  1  0.87977  0.54723  0.75955  1
 Te  Te3  1  0.36928  0.03132  0.73855  1
 Te  Te4  1  0.63072  0.96868  0.26145  1
 V  V1  1  0.00000  0.00000  0.00000  1
