CIF file written using JARVIS-Tools package.
data_TiVO4
_symmetry_space_group_name_H-M  'Cmmm'
_cell_length_a       2.91589
_cell_length_b       4.61221
_cell_length_c       4.61221
_cell_angle_alpha    90.4649
_cell_angle_beta     90
_cell_angle_gamma    90

_symmetry_Int_Tables_number  65
_chemical_formula_structural  TiVO4
_chemical_formula_sum  TiVO4
_cell_volume  62.02613658894989
_cell_formula_units_Z  1
loop_
  _symmetry_equiv_pos_site_id
 _symmetry_equiv_pos_as_xyz
 1  'x, y, z'
loop_
 _atom_site_type_symbol
 _atom_site_label
 _atom_site_symmetry_multiplicity
 _atom_site_fract_x
 _atom_site_fract_y
 _atom_site_fract_z
 _atom_site_fract_occupancy
 O  O1  1  0.00000  0.30069  0.30069  1
 O  O2  1  0.50000  0.80637  0.19363  1
 O  O3  1  0.50000  0.19363  0.80637  1
 O  O4  1  0.00000  0.69931  0.69931  1
 Ti  Ti1  1  0.50000  0.50000  0.50000  1
 V  V1  1  0.00000  0.00000  0.00000  1
