CIF file written using JARVIS-Tools package.
data_H4CSN2
_symmetry_space_group_name_H-M  'Pmc2_1'
_cell_length_a       7.86845
_cell_length_b       6.36857
_cell_length_c       4.85154
_cell_angle_alpha    90
_cell_angle_beta     90
_cell_angle_gamma    90

_symmetry_Int_Tables_number  26
_chemical_formula_structural  H4CSN2
_chemical_formula_sum  H8C2S2N4
_cell_volume  243.1141658370728
_cell_formula_units_Z  2
loop_
  _symmetry_equiv_pos_site_id
 _symmetry_equiv_pos_as_xyz
 1  'x, y, z'
loop_
 _atom_site_type_symbol
 _atom_site_label
 _atom_site_symmetry_multiplicity
 _atom_site_fract_x
 _atom_site_fract_y
 _atom_site_fract_z
 _atom_site_fract_occupancy
 C  C1  1  0.54977  0.00000  0.85026  1
 C  C2  1  0.04977  0.00000  0.14974  1
 H  H1  1  0.69821  0.17750  0.11512  1
 H  H2  1  0.69821  0.82250  0.11512  1
 H  H3  1  0.19821  0.82250  0.88488  1
 H  H4  1  0.19821  0.17750  0.88488  1
 H  H5  1  0.56768  0.31624  0.87710  1
 H  H6  1  0.56768  0.68376  0.87710  1
 H  H7  1  0.06768  0.68376  0.12290  1
 H  H8  1  0.06768  0.31624  0.12290  1
 N  N1  1  0.61133  0.17957  -0.04373  1
 N  N2  1  0.61133  0.82043  -0.04373  1
 N  N3  1  0.11133  0.82043  0.04373  1
 N  N4  1  0.11133  0.17957  0.04373  1
 S  S1  1  0.40199  0.00000  0.59488  1
 S  S2  1  -0.09801  0.00000  0.40512  1
