CIF file written using JARVIS-Tools package.
data_Ga11NO15
_symmetry_space_group_name_H-M  'P1'
_cell_length_a       5.86377
_cell_length_b       5.96216
_cell_length_c       8.26993
_cell_angle_alpha    89.8223
_cell_angle_beta     88.1393
_cell_angle_gamma    89.8085

_symmetry_Int_Tables_number  1
_chemical_formula_structural  Ga11NO15
_chemical_formula_sum  GaNO5
_cell_volume  288.96720406913755
_cell_formula_units_Z  1
loop_
  _symmetry_equiv_pos_site_id
 _symmetry_equiv_pos_as_xyz
 1  'x, y, z'
loop_
 _atom_site_type_symbol
 _atom_site_label
 _atom_site_symmetry_multiplicity
 _atom_site_fract_x
 _atom_site_fract_y
 _atom_site_fract_z
 _atom_site_fract_occupancy
 Ga  Ga1  1  0.99965  0.25604  0.13026  1
 Ga  Ga2  1  0.52450  0.00877  0.99507  1
 Ga  Ga3  1  0.97710  0.49431  0.51435  1
 Ga  Ga4  1  0.74375  0.75730  0.25077  1
 Ga  Ga5  1  0.97672  0.00773  0.51539  1
 Ga  Ga6  1  0.47680  0.75132  0.63379  1
 Ga  Ga7  1  0.25139  0.24840  0.75026  1
 Ga  Ga8  1  0.52166  0.49643  0.98539  1
 Ga  Ga9  1  0.25563  0.75816  0.24995  1
 Ga  Ga10  1  0.50021  0.23788  0.36412  1
 Ga  Ga11  1  0.02155  0.74513  0.86721  1
 N  N1  1  0.50014  0.97612  0.23472  1
 O  O1  1  0.48457  0.00622  0.76290  1
 O  O2  1  0.99893  0.52656  0.26069  1
 O  O3  1  0.22069  0.74925  0.49262  1
 O  O4  1  0.00001  0.98574  0.25941  1
 O  O5  1  0.01769  0.00577  0.74359  1
 O  O6  1  0.76494  0.25192  0.48605  1
 O  O7  1  0.74958  0.74458  0.00094  1
 O  O8  1  0.74146  0.25673  0.00816  1
 O  O9  1  0.49979  0.51275  0.24078  1
 O  O10  1  0.01597  0.48853  0.74182  1
 O  O11  1  0.27124  0.73906  0.00764  1
 O  O12  1  0.26830  0.25420  0.99528  1
 O  O13  1  0.48480  0.49053  0.75542  1
 O  O14  1  0.75442  0.75088  0.49924  1
 O  O15  1  0.22851  0.24969  0.50419  1
