CIF file written using JARVIS-Tools package.
data_U2Cr3Si
_symmetry_space_group_name_H-M  'P6_3/mmc'
_cell_length_a       5.13424
_cell_length_b       5.13424
_cell_length_c       8.05399
_cell_angle_alpha    90
_cell_angle_beta     90
_cell_angle_gamma    120

_symmetry_Int_Tables_number  194
_chemical_formula_structural  U2Cr3Si
_chemical_formula_sum  U4Cr6Si2
_cell_volume  183.8631278441912
_cell_formula_units_Z  2
loop_
  _symmetry_equiv_pos_site_id
 _symmetry_equiv_pos_as_xyz
 1  'x, y, z'
loop_
 _atom_site_type_symbol
 _atom_site_label
 _atom_site_symmetry_multiplicity
 _atom_site_fract_x
 _atom_site_fract_y
 _atom_site_fract_z
 _atom_site_fract_occupancy
 Cr  Cr1  1  0.34619  0.17309  0.75000  1
 Cr  Cr2  1  0.82691  0.17309  0.75000  1
 Cr  Cr3  1  0.82691  0.65381  0.75000  1
 Cr  Cr4  1  0.17309  0.82691  0.25000  1
 Cr  Cr5  1  0.17309  0.34619  0.25000  1
 Cr  Cr6  1  0.65381  0.82691  0.25000  1
 Si  Si1  1  0.00000  0.00000  0.00000  1
 Si  Si2  1  0.00000  0.00000  0.50000  1
 U  U1  1  0.33333  0.66667  0.91396  1
 U  U2  1  0.66667  0.33333  0.41396  1
 U  U3  1  0.66667  0.33333  0.08604  1
 U  U4  1  0.33333  0.66667  0.58604  1
