CIF file written using JARVIS-Tools package.
data_N2O5
_symmetry_space_group_name_H-M  'P6_3/mmc'
_cell_length_a       5.43203
_cell_length_b       5.43202
_cell_length_c       6.39489
_cell_angle_alpha    90
_cell_angle_beta     90
_cell_angle_gamma    120

_symmetry_Int_Tables_number  194
_chemical_formula_structural  N2O5
_chemical_formula_sum  N4O0
_cell_volume  163.41358375466066
_cell_formula_units_Z  2
loop_
  _symmetry_equiv_pos_site_id
 _symmetry_equiv_pos_as_xyz
 1  'x, y, z'
loop_
 _atom_site_type_symbol
 _atom_site_label
 _atom_site_symmetry_multiplicity
 _atom_site_fract_x
 _atom_site_fract_y
 _atom_site_fract_z
 _atom_site_fract_occupancy
 N  N1  1  0.66667  0.33333  0.25000  1
 N  N2  1  0.00000  0.00000  0.75000  1
 N  N3  1  0.33333  0.66667  0.75000  1
 N  N4  1  0.00000  0.00000  0.25000  1
 O  O1  1  0.33333  0.66667  0.57176  1
 O  O2  1  0.66667  0.33333  0.42824  1
 O  O3  1  0.86502  0.73004  0.75000  1
 O  O4  1  0.66667  0.33333  0.07176  1
 O  O5  1  0.26996  0.13498  0.75000  1
 O  O6  1  0.13498  0.26996  0.25000  1
 O  O7  1  0.13498  0.86502  0.25000  1
 O  O8  1  0.86502  0.13498  0.75000  1
 O  O9  1  0.33333  0.66667  0.92824  1
 O  O10  1  0.73004  0.86502  0.25000  1
