CIF file written using JARVIS-Tools package.
data_K7NbS6O24
_symmetry_space_group_name_H-M  'R-3'
_cell_length_a       9.3091
_cell_length_b       9.3091
_cell_length_c       9.3091
_cell_angle_alpha    109.646
_cell_angle_beta     109.646
_cell_angle_gamma    109.646

_symmetry_Int_Tables_number  148
_chemical_formula_structural  K7NbS6O24
_chemical_formula_sum  K7NbS6O24
_cell_volume  616.971971136162
_cell_formula_units_Z  1
loop_
  _symmetry_equiv_pos_site_id
 _symmetry_equiv_pos_as_xyz
 1  'x, y, z'
loop_
 _atom_site_type_symbol
 _atom_site_label
 _atom_site_symmetry_multiplicity
 _atom_site_fract_x
 _atom_site_fract_y
 _atom_site_fract_z
 _atom_site_fract_occupancy
 K  K1  1  0.68323  0.83764  0.33924  1
 K  K2  1  0.33924  0.68323  0.83764  1
 K  K3  1  0.83764  0.33924  0.68323  1
 K  K4  1  0.31677  0.16236  0.66076  1
 K  K5  1  0.66076  0.31677  0.16236  1
 K  K6  1  0.16236  0.66076  0.31677  1
 K  K7  1  0.50000  0.50000  0.50000  1
 Nb  Nb1  1  0.00000  0.00000  0.00000  1
 O  O1  1  0.90853  0.16947  0.43250  1
 O  O2  1  0.16947  0.43250  0.90853  1
 O  O3  1  0.68987  0.01659  0.64088  1
 O  O4  1  0.01659  0.64088  0.68987  1
 O  O5  1  0.64088  0.68987  0.01659  1
 O  O6  1  0.31013  0.98341  0.35912  1
 O  O7  1  0.02696  0.10580  0.24039  1
 O  O8  1  0.35912  0.31013  0.98341  1
 O  O9  1  0.24039  0.02696  0.10580  1
 O  O10  1  0.43250  0.90853  0.16947  1
 O  O11  1  0.36253  0.53372  0.21660  1
 O  O12  1  0.21660  0.36253  0.53372  1
 O  O13  1  0.98341  0.35912  0.31013  1
 O  O14  1  0.83053  0.56750  0.09147  1
 O  O15  1  0.89420  0.75961  0.97304  1
 O  O16  1  0.53372  0.21660  0.36253  1
 O  O17  1  0.56750  0.09147  0.83053  1
 O  O18  1  0.63747  0.46628  0.78340  1
 O  O19  1  0.97304  0.89420  0.75961  1
 O  O20  1  0.75961  0.97304  0.89420  1
 O  O21  1  0.10580  0.24039  0.02696  1
 O  O22  1  0.46628  0.78340  0.63747  1
 O  O23  1  0.09147  0.83053  0.56750  1
 O  O24  1  0.78340  0.63747  0.46628  1
 S  S1  1  0.96711  0.74196  0.61328  1
 S  S2  1  0.61328  0.96711  0.74196  1
 S  S3  1  0.03289  0.25804  0.38672  1
 S  S4  1  0.25804  0.38672  0.03289  1
 S  S5  1  0.38672  0.03289  0.25804  1
 S  S6  1  0.74196  0.61328  0.96711  1
