CIF file written using JARVIS-Tools package.
data_Rb5SiAs3
_symmetry_space_group_name_H-M  'Pnma'
_cell_length_a       5.65249
_cell_length_b       14.1778
_cell_length_c       15.477
_cell_angle_alpha    90
_cell_angle_beta     90
_cell_angle_gamma    90

_symmetry_Int_Tables_number  62
_chemical_formula_structural  Rb5SiAs3
_chemical_formula_sum  Rb20Si4As2
_cell_volume  1240.3294009274184
_cell_formula_units_Z  4
loop_
  _symmetry_equiv_pos_site_id
 _symmetry_equiv_pos_as_xyz
 1  'x, y, z'
loop_
 _atom_site_type_symbol
 _atom_site_label
 _atom_site_symmetry_multiplicity
 _atom_site_fract_x
 _atom_site_fract_y
 _atom_site_fract_z
 _atom_site_fract_occupancy
 As  As1  1  0.25000  0.86408  0.19506  1
 As  As2  1  0.75000  0.63592  0.69506  1
 As  As3  1  0.75000  0.90186  0.59477  1
 As  As4  1  0.25000  0.09814  0.40523  1
 As  As5  1  0.75000  0.40186  0.90523  1
 As  As6  1  0.25000  0.59814  0.09477  1
 As  As7  1  0.75000  0.68439  0.43581  1
 As  As8  1  0.25000  0.31561  0.56419  1
 As  As9  1  0.75000  0.18439  0.06419  1
 As  As10  1  0.25000  0.81561  0.93581  1
 As  As11  1  0.75000  0.13592  0.80494  1
 As  As12  1  0.25000  0.36408  0.30494  1
 Rb  Rb1  1  0.25000  0.05626  0.65177  1
 Rb  Rb2  1  0.75000  0.44374  0.15177  1
 Rb  Rb3  1  0.25000  0.55626  0.84823  1
 Rb  Rb4  1  0.75000  0.94374  0.34823  1
 Rb  Rb5  1  0.75000  0.21628  0.28636  1
 Rb  Rb6  1  0.75000  0.43117  0.44161  1
 Rb  Rb7  1  0.25000  0.56883  0.55839  1
 Rb  Rb8  1  0.25000  0.06883  0.94161  1
 Rb  Rb9  1  0.75000  0.38621  0.68096  1
 Rb  Rb10  1  0.25000  0.61379  0.31904  1
 Rb  Rb11  1  0.75000  0.88621  0.81904  1
 Rb  Rb12  1  0.25000  0.11379  0.18096  1
 Rb  Rb13  1  0.75000  0.14788  0.54372  1
 Rb  Rb14  1  0.25000  0.85212  0.45628  1
 Rb  Rb15  1  0.75000  0.93117  0.05839  1
 Rb  Rb16  1  0.25000  0.35212  0.04372  1
 Rb  Rb17  1  0.75000  0.71628  0.21364  1
 Rb  Rb18  1  0.25000  0.28372  0.78636  1
 Rb  Rb19  1  0.25000  0.78372  0.71364  1
 Rb  Rb20  1  0.75000  0.64788  0.95628  1
 Si  Si1  1  0.25000  0.26063  0.42296  1
 Si  Si2  1  0.75000  0.73937  0.57704  1
 Si  Si3  1  0.25000  0.76063  0.07704  1
 Si  Si4  1  0.75000  0.23937  0.92296  1
