CIF file written using JARVIS-Tools package.
data_Sr3Ge2As4
_symmetry_space_group_name_H-M  'P2_1/c'
_cell_length_a       7.54285
_cell_length_b       18.6544
_cell_length_c       7.65344
_cell_angle_alpha    90
_cell_angle_beta     111.837
_cell_angle_gamma    90

_symmetry_Int_Tables_number  14
_chemical_formula_structural  Sr3Ge2As4
_chemical_formula_sum  Sr2Ge8As6
_cell_volume  999.6260378226126
_cell_formula_units_Z  4
loop_
  _symmetry_equiv_pos_site_id
 _symmetry_equiv_pos_as_xyz
 1  'x, y, z'
loop_
 _atom_site_type_symbol
 _atom_site_label
 _atom_site_symmetry_multiplicity
 _atom_site_fract_x
 _atom_site_fract_y
 _atom_site_fract_z
 _atom_site_fract_occupancy
 As  As1  1  0.77534  0.30280  0.49494  1
 As  As2  1  0.22466  0.69720  0.50506  1
 As  As3  1  0.27534  0.19720  0.49494  1
 As  As4  1  0.24313  0.93289  0.49887  1
 As  As5  1  0.25687  0.43289  0.50113  1
 As  As6  1  0.74313  0.56711  0.49887  1
 As  As7  1  0.75687  0.06711  0.50113  1
 As  As8  1  0.74920  0.44018  0.99368  1
 As  As9  1  0.24920  0.05982  0.99368  1
 As  As10  1  0.27954  0.31425  0.96291  1
 As  As11  1  0.22046  0.81425  0.03709  1
 As  As12  1  0.72046  0.68575  0.03709  1
 As  As13  1  0.77954  0.18575  0.96291  1
 As  As14  1  0.72466  0.80280  0.50506  1
 As  As15  1  0.25080  0.55982  0.00632  1
 As  As16  1  0.75080  0.94018  0.00632  1
 Ge  Ge1  1  0.47139  0.37235  0.78839  1
 Ge  Ge2  1  0.52861  0.62765  0.21161  1
 Ge  Ge3  1  0.02861  0.87235  0.21161  1
 Ge  Ge4  1  0.41552  0.74001  0.31489  1
 Ge  Ge5  1  0.08448  0.24001  0.68511  1
 Ge  Ge6  1  0.91552  0.75999  0.31489  1
 Ge  Ge7  1  0.58448  0.25999  0.68511  1
 Ge  Ge8  1  0.97139  0.12765  0.78839  1
 Sr  Sr1  1  0.48768  0.81544  0.78233  1
 Sr  Sr2  1  0.98768  0.68456  0.78233  1
 Sr  Sr3  1  0.51232  0.18456  0.21767  1
 Sr  Sr4  1  0.99724  0.43980  0.73914  1
 Sr  Sr5  1  0.50276  0.93980  0.26086  1
 Sr  Sr6  1  0.49724  0.06020  0.73914  1
 Sr  Sr7  1  0.51168  0.43787  0.25573  1
 Sr  Sr8  1  0.98832  0.93787  0.74427  1
 Sr  Sr9  1  0.48832  0.56213  0.74427  1
 Sr  Sr10  1  0.01168  0.06213  0.25573  1
 Sr  Sr11  1  0.00276  0.56020  0.26086  1
 Sr  Sr12  1  0.01232  0.31544  0.21767  1
