CIF file written using JARVIS-Tools package.
data_Ca2SiO4
_symmetry_space_group_name_H-M  'Cmcm'
_cell_length_a       5.76067
_cell_length_b       5.41645
_cell_length_c       7.03502
_cell_angle_alpha    90
_cell_angle_beta     90
_cell_angle_gamma    122.126

_symmetry_Int_Tables_number  63
_chemical_formula_structural  Ca2SiO4
_chemical_formula_sum  Ca4Si2O8
_cell_volume  185.8990203494172
_cell_formula_units_Z  2
loop_
  _symmetry_equiv_pos_site_id
 _symmetry_equiv_pos_as_xyz
 1  'x, y, z'
loop_
 _atom_site_type_symbol
 _atom_site_label
 _atom_site_symmetry_multiplicity
 _atom_site_fract_x
 _atom_site_fract_y
 _atom_site_fract_z
 _atom_site_fract_occupancy
 Ca  Ca1  1  0.67932  0.35865  0.33573  1
 Ca  Ca2  1  0.32068  0.64135  0.83573  1
 Ca  Ca3  1  -0.00001  -0.00002  0.08570  1
 Ca  Ca4  1  0.00001  0.00002  0.58570  1
 O  O1  1  0.75291  0.50583  0.02501  1
 O  O2  1  0.24709  0.49417  0.52501  1
 O  O3  1  0.75296  0.50591  0.64646  1
 O  O4  1  0.30924  0.07736  0.83570  1
 O  O5  1  0.76812  0.07736  0.83570  1
 O  O6  1  0.24704  0.49409  0.14646  1
 O  O7  1  0.69076  0.92264  0.33570  1
 O  O8  1  0.23188  0.92264  0.33570  1
 Si  Si1  1  0.64986  0.29971  0.83571  1
 Si  Si2  1  0.35014  0.70029  0.33571  1
