CIF file written using JARVIS-Tools package.
data_Nd3RuO7
_symmetry_space_group_name_H-M  'Cmcm'
_cell_length_a       6.62725
_cell_length_b       6.62725
_cell_length_c       7.54643
_cell_angle_alpha    90
_cell_angle_beta     90
_cell_angle_gamma    112.182

_symmetry_Int_Tables_number  63
_chemical_formula_structural  Nd3RuO7
_chemical_formula_sum  Nd6Ru2O4
_cell_volume  306.9130160250951
_cell_formula_units_Z  2
loop_
  _symmetry_equiv_pos_site_id
 _symmetry_equiv_pos_as_xyz
 1  'x, y, z'
loop_
 _atom_site_type_symbol
 _atom_site_label
 _atom_site_symmetry_multiplicity
 _atom_site_fract_x
 _atom_site_fract_y
 _atom_site_fract_z
 _atom_site_fract_occupancy
 Nd  Nd1  1  0.00000  0.00000  0.00000  1
 Nd  Nd2  1  0.53377  0.09095  0.25000  1
 Nd  Nd3  1  0.46623  0.90905  0.75000  1
 Nd  Nd4  1  0.09095  0.53377  0.25000  1
 Nd  Nd5  1  0.90905  0.46623  0.75000  1
 Nd  Nd6  1  0.00000  0.00000  0.50000  1
 O  O1  1  0.42869  0.42869  0.25000  1
 O  O2  1  0.10052  0.83892  0.75000  1
 O  O3  1  0.89948  0.16108  0.25000  1
 O  O4  1  0.83892  0.10052  0.75000  1
 O  O5  1  0.16108  0.89948  0.25000  1
 O  O6  1  0.18739  0.43867  0.96011  1
 O  O7  1  0.81261  0.56133  0.46011  1
 O  O8  1  0.81261  0.56133  0.03989  1
 O  O9  1  0.57131  0.57131  0.75000  1
 O  O10  1  0.56133  0.81261  0.46011  1
 O  O11  1  0.56133  0.81261  0.03989  1
 O  O12  1  0.43867  0.18739  0.53989  1
 O  O13  1  0.43867  0.18739  0.96011  1
 O  O14  1  0.18739  0.43867  0.53989  1
 Ru  Ru1  1  0.50000  0.50000  0.50000  1
 Ru  Ru2  1  0.50000  0.50000  0.00000  1
