CIF file written using JARVIS-Tools package.
data_Ce2CoSi3
_symmetry_space_group_name_H-M  'P6/mmm'
_cell_length_a       8.05338
_cell_length_b       8.05338
_cell_length_c       4.10304
_cell_angle_alpha    90
_cell_angle_beta     90
_cell_angle_gamma    120

_symmetry_Int_Tables_number  191
_chemical_formula_structural  Ce2CoSi3
_chemical_formula_sum  Ce4Co2Si6
_cell_volume  230.4583282588389
_cell_formula_units_Z  2
loop_
  _symmetry_equiv_pos_site_id
 _symmetry_equiv_pos_as_xyz
 1  'x, y, z'
loop_
 _atom_site_type_symbol
 _atom_site_label
 _atom_site_symmetry_multiplicity
 _atom_site_fract_x
 _atom_site_fract_y
 _atom_site_fract_z
 _atom_site_fract_occupancy
 Ce  Ce1  1  0.50000  0.50000  0.00000  1
 Ce  Ce2  1  0.50000  0.00000  0.00000  1
 Ce  Ce3  1  0.00000  0.50000  0.00000  1
 Ce  Ce4  1  0.00000  0.00000  0.00000  1
 Co  Co1  1  0.33333  0.66667  0.50000  1
 Co  Co2  1  0.66667  0.33333  0.50000  1
 Si  Si1  1  0.34089  0.17045  0.50000  1
 Si  Si2  1  0.17045  0.82955  0.50000  1
 Si  Si3  1  0.17045  0.34089  0.50000  1
 Si  Si4  1  0.65911  0.82955  0.50000  1
 Si  Si5  1  0.82955  0.17045  0.50000  1
 Si  Si6  1  0.82955  0.65911  0.50000  1
