CIF file written using JARVIS-Tools package.
data_YbGaGe
_symmetry_space_group_name_H-M  'P6_3/mmc'
_cell_length_a       4.21603
_cell_length_b       4.21603
_cell_length_c       16.4692
_cell_angle_alpha    90
_cell_angle_beta     90
_cell_angle_gamma    120

_symmetry_Int_Tables_number  194
_chemical_formula_structural  YbGaGe
_chemical_formula_sum  Yb4Ga4Ge4
_cell_volume  253.5202180289118
_cell_formula_units_Z  4
loop_
  _symmetry_equiv_pos_site_id
 _symmetry_equiv_pos_as_xyz
 1  'x, y, z'
loop_
 _atom_site_type_symbol
 _atom_site_label
 _atom_site_symmetry_multiplicity
 _atom_site_fract_x
 _atom_site_fract_y
 _atom_site_fract_z
 _atom_site_fract_occupancy
 Ga  Ga1  1  0.33333  0.66667  0.15816  1
 Ga  Ga2  1  0.33333  0.66667  0.34184  1
 Ga  Ga3  1  0.66667  0.33333  0.84184  1
 Ga  Ga4  1  0.66667  0.33333  0.65816  1
 Ge  Ge1  1  0.33333  0.66667  0.89079  1
 Ge  Ge2  1  0.33333  0.66667  0.60921  1
 Ge  Ge3  1  0.66667  0.33333  0.10921  1
 Ge  Ge4  1  0.66667  0.33333  0.39079  1
 Yb  Yb1  1  0.00000  0.00000  0.25000  1
 Yb  Yb2  1  0.00000  0.00000  0.75000  1
 Yb  Yb3  1  0.00000  0.00000  0.50000  1
 Yb  Yb4  1  0.00000  0.00000  0.00000  1
