CIF file written using JARVIS-Tools package.
data_Sr2CuO2F2
_symmetry_space_group_name_H-M  'I4/mmm'
_cell_length_a       3.99086
_cell_length_b       3.99086
_cell_length_c       7.01513
_cell_angle_alpha    106.526
_cell_angle_beta     106.526
_cell_angle_gamma    90

_symmetry_Int_Tables_number  139
_chemical_formula_structural  Sr2CuO2F2
_chemical_formula_sum  Sr2CuO2F2
_cell_volume  102.29116087305168
_cell_formula_units_Z  1
loop_
  _symmetry_equiv_pos_site_id
 _symmetry_equiv_pos_as_xyz
 1  'x, y, z'
loop_
 _atom_site_type_symbol
 _atom_site_label
 _atom_site_symmetry_multiplicity
 _atom_site_fract_x
 _atom_site_fract_y
 _atom_site_fract_z
 _atom_site_fract_occupancy
 Cu  Cu1  1  0.00000  0.00000  0.00000  1
 F  F1  1  0.25000  0.75000  0.50000  1
 F  F2  1  0.75000  0.25000  0.50000  1
 O  O1  1  0.00000  0.50000  0.00000  1
 O  O2  1  0.50000  0.00000  0.00000  1
 Sr  Sr1  1  0.36562  0.36562  0.73123  1
 Sr  Sr2  1  0.63438  0.63438  0.26877  1
