CIF file written using JARVIS-Tools package.
data_Tb2Si5Rh3
_symmetry_space_group_name_H-M  'C2/c'
_cell_length_a       5.74554
_cell_length_b       8.14212
_cell_length_c       8.14213
_cell_angle_alpha    93.0548
_cell_angle_beta     109.249
_cell_angle_gamma    109.249

_symmetry_Int_Tables_number  15
_chemical_formula_structural  Tb2Si5Rh3
_chemical_formula_sum  Tb4Si0Rh6
_cell_volume  333.84552958436996
_cell_formula_units_Z  2
loop_
  _symmetry_equiv_pos_site_id
 _symmetry_equiv_pos_as_xyz
 1  'x, y, z'
loop_
 _atom_site_type_symbol
 _atom_site_label
 _atom_site_symmetry_multiplicity
 _atom_site_fract_x
 _atom_site_fract_y
 _atom_site_fract_z
 _atom_site_fract_occupancy
 Rh  Rh1  1  0.37607  0.25782  0.53731  1
 Rh  Rh2  1  0.87607  0.53731  0.25782  1
 Rh  Rh3  1  0.62393  0.74218  0.46269  1
 Rh  Rh4  1  0.12393  0.46269  0.74218  1
 Rh  Rh5  1  0.75000  0.99788  0.00212  1
 Rh  Rh6  1  0.25000  0.00212  0.99788  1
 Si  Si1  1  0.75000  0.22477  0.77523  1
 Si  Si2  1  0.25000  0.77523  0.22477  1
 Si  Si3  1  0.33799  0.73511  0.94264  1
 Si  Si4  1  0.83799  0.94264  0.73511  1
 Si  Si5  1  0.66201  0.26489  0.05736  1
 Si  Si6  1  0.75000  0.48970  0.51030  1
 Si  Si7  1  0.16201  0.05736  0.26489  1
 Si  Si8  1  0.75000  0.78757  0.21243  1
 Si  Si9  1  0.25000  0.21243  0.78757  1
 Si  Si10  1  0.25000  0.51030  0.48970  1
 Tb  Tb1  1  0.76318  0.13369  0.40108  1
 Tb  Tb2  1  0.23682  0.86631  0.59892  1
 Tb  Tb3  1  0.26318  0.40108  0.13369  1
 Tb  Tb4  1  0.73682  0.59892  0.86631  1
