CIF file written using JARVIS-Tools package.
data_NiW2O8
_symmetry_space_group_name_H-M  'P2/c'
_cell_length_a       4.89676
_cell_length_b       5.63993
_cell_length_c       10.0644
_cell_angle_alpha    90
_cell_angle_beta     118.099
_cell_angle_gamma    90

_symmetry_Int_Tables_number  13
_chemical_formula_structural  NiW2O8
_chemical_formula_sum  Ni2W4O6
_cell_volume  245.19163342689248
_cell_formula_units_Z  2
loop_
  _symmetry_equiv_pos_site_id
 _symmetry_equiv_pos_as_xyz
 1  'x, y, z'
loop_
 _atom_site_type_symbol
 _atom_site_label
 _atom_site_symmetry_multiplicity
 _atom_site_fract_x
 _atom_site_fract_y
 _atom_site_fract_z
 _atom_site_fract_occupancy
 Ni  Ni1  1  -0.00000  0.66195  0.25000  1
 Ni  Ni2  1  -0.00000  0.33805  0.75000  1
 O  O1  1  0.56999  0.64514  0.13934  1
 O  O2  1  0.43001  0.64514  0.36066  1
 O  O3  1  0.43001  0.35486  0.86066  1
 O  O4  1  0.56999  0.35486  0.63934  1
 O  O5  1  0.44975  0.11277  0.38132  1
 O  O6  1  0.97189  0.10758  0.88887  1
 O  O7  1  0.02811  0.10758  0.61113  1
 O  O8  1  0.02811  0.89242  0.11113  1
 O  O9  1  0.01133  0.41917  0.12544  1
 O  O10  1  -0.01133  0.41917  0.37456  1
 O  O11  1  -0.01133  0.58083  0.87456  1
 O  O12  1  0.01133  0.58083  0.62544  1
 O  O13  1  0.55025  0.11277  0.11868  1
 O  O14  1  0.44975  0.88723  0.88132  1
 O  O15  1  0.97189  0.89242  0.38887  1
 O  O16  1  0.55025  0.88723  0.61868  1
 W  W1  1  0.74364  0.18839  0.01063  1
 W  W2  1  0.25636  0.18839  0.48937  1
 W  W3  1  0.25636  0.81161  0.98937  1
 W  W4  1  0.74364  0.81161  0.51063  1
