CIF file written using JARVIS-Tools package.
data_BH3
_symmetry_space_group_name_H-M  'P2_1/c'
_cell_length_a       4.23267
_cell_length_b       5.61904
_cell_length_c       6.23396
_cell_angle_alpha    90
_cell_angle_beta     90
_cell_angle_gamma    106.291

_symmetry_Int_Tables_number  14
_chemical_formula_structural  BH3
_chemical_formula_sum  B4H2
_cell_volume  142.3127251785609
_cell_formula_units_Z  4
loop_
  _symmetry_equiv_pos_site_id
 _symmetry_equiv_pos_as_xyz
 1  'x, y, z'
loop_
 _atom_site_type_symbol
 _atom_site_label
 _atom_site_symmetry_multiplicity
 _atom_site_fract_x
 _atom_site_fract_y
 _atom_site_fract_z
 _atom_site_fract_occupancy
 B  B1  1  0.50181  0.64862  0.45654  1
 B  B2  1  0.99819  0.85138  0.95654  1
 B  B3  1  0.49819  0.35138  0.54346  1
 B  B4  1  0.00181  0.14862  0.04346  1
 H  H1  1  0.28293  0.67296  0.34525  1
 H  H2  1  0.21707  0.82704  0.84525  1
 H  H3  1  0.71707  0.32704  0.65475  1
 H  H4  1  0.78293  0.17296  0.15475  1
 H  H5  1  0.72310  0.82330  0.50865  1
 H  H6  1  0.77690  0.67670  0.00865  1
 H  H7  1  0.27690  0.17670  0.49135  1
 H  H8  1  0.22310  0.32330  -0.00865  1
 H  H9  1  0.62567  0.47901  0.37074  1
 H  H10  1  0.87433  0.02099  0.87074  1
 H  H11  1  0.37433  0.52099  0.62926  1
 H  H12  1  0.12567  0.97901  0.12926  1
