CIF file written using JARVIS-Tools package.
data_TmCu2S2
_symmetry_space_group_name_H-M  'P-3m1'
_cell_length_a       3.96266
_cell_length_b       3.96265
_cell_length_c       6.20553
_cell_angle_alpha    89.9854
_cell_angle_beta     90.0146
_cell_angle_gamma    119.999

_symmetry_Int_Tables_number  164
_chemical_formula_structural  TmCu2S2
_chemical_formula_sum  TmCu2S2
_cell_volume  84.38896873234626
_cell_formula_units_Z  1
loop_
  _symmetry_equiv_pos_site_id
 _symmetry_equiv_pos_as_xyz
 1  'x, y, z'
loop_
 _atom_site_type_symbol
 _atom_site_label
 _atom_site_symmetry_multiplicity
 _atom_site_fract_x
 _atom_site_fract_y
 _atom_site_fract_z
 _atom_site_fract_occupancy
 Cu  Cu1  1  0.66658  0.33342  0.67177  1
 Cu  Cu2  1  0.33342  0.66658  0.32823  1
 S  S1  1  0.66672  0.33328  0.26149  1
 S  S2  1  0.33328  0.66672  0.73851  1
 Tm  Tm1  1  0.00000  0.00000  0.00000  1
