CIF file written using JARVIS-Tools package.
data_GeRu
_symmetry_space_group_name_H-M  'P2_13'
_cell_length_a       4.90993
_cell_length_b       4.90993
_cell_length_c       4.90993
_cell_angle_alpha    90
_cell_angle_beta     90
_cell_angle_gamma    90

_symmetry_Int_Tables_number  198
_chemical_formula_structural  GeRu
_chemical_formula_sum  Ge4Ru4
_cell_volume  118.36563082829763
_cell_formula_units_Z  4
loop_
  _symmetry_equiv_pos_site_id
 _symmetry_equiv_pos_as_xyz
 1  'x, y, z'
loop_
 _atom_site_type_symbol
 _atom_site_label
 _atom_site_symmetry_multiplicity
 _atom_site_fract_x
 _atom_site_fract_y
 _atom_site_fract_z
 _atom_site_fract_occupancy
 Ge  Ge1  1  0.08575  0.08575  0.08575  1
 Ge  Ge2  1  0.41425  0.91425  0.58575  1
 Ge  Ge3  1  0.91425  0.58575  0.41425  1
 Ge  Ge4  1  0.58575  0.41425  0.91425  1
 Ru  Ru1  1  0.37570  0.37570  0.37570  1
 Ru  Ru2  1  0.12430  0.62430  0.87570  1
 Ru  Ru3  1  0.62430  0.87570  0.12430  1
 Ru  Ru4  1  0.87570  0.12430  0.62430  1
