CIF file written using JARVIS-Tools package.
data_ZrRh
_symmetry_space_group_name_H-M  'Pm-3m'
_cell_length_a       3.29075
_cell_length_b       4.65833
_cell_length_c       4.65852
_cell_angle_alpha    90
_cell_angle_beta     90.0004
_cell_angle_gamma    90

_symmetry_Int_Tables_number  221
_chemical_formula_structural  ZrRh
_chemical_formula_sum  Zr2Rh2
_cell_volume  71.41246161548396
_cell_formula_units_Z  2
loop_
  _symmetry_equiv_pos_site_id
 _symmetry_equiv_pos_as_xyz
 1  'x, y, z'
loop_
 _atom_site_type_symbol
 _atom_site_label
 _atom_site_symmetry_multiplicity
 _atom_site_fract_x
 _atom_site_fract_y
 _atom_site_fract_z
 _atom_site_fract_occupancy
 Rh  Rh1  1  -0.00007  0.75000  0.25003  1
 Rh  Rh2  1  0.00007  0.25000  0.74997  1
 Zr  Zr1  1  0.50000  0.25000  0.25001  1
 Zr  Zr2  1  0.50000  0.75000  0.74999  1
