CIF file written using JARVIS-Tools package.
data_CaInAu
_symmetry_space_group_name_H-M  'Pnma'
_cell_length_a       4.62142
_cell_length_b       7.32833
_cell_length_c       8.54368
_cell_angle_alpha    90
_cell_angle_beta     90
_cell_angle_gamma    90

_symmetry_Int_Tables_number  62
_chemical_formula_structural  CaInAu
_chemical_formula_sum  Ca4In4Au4
_cell_volume  289.3515576030363
_cell_formula_units_Z  4
loop_
  _symmetry_equiv_pos_site_id
 _symmetry_equiv_pos_as_xyz
 1  'x, y, z'
loop_
 _atom_site_type_symbol
 _atom_site_label
 _atom_site_symmetry_multiplicity
 _atom_site_fract_x
 _atom_site_fract_y
 _atom_site_fract_z
 _atom_site_fract_occupancy
 Au  Au1  1  0.25000  0.76367  0.88023  1
 Au  Au2  1  0.25000  0.26367  0.61977  1
 Au  Au3  1  0.75000  0.73633  0.38023  1
 Au  Au4  1  0.75000  0.23633  0.11977  1
 Ca  Ca1  1  0.75000  0.97313  0.68550  1
 Ca  Ca2  1  0.25000  0.02687  0.31450  1
 Ca  Ca3  1  0.75000  0.47313  0.81450  1
 Ca  Ca4  1  0.25000  0.52687  0.18550  1
 In  In1  1  0.75000  0.34011  0.43713  1
 In  In2  1  0.25000  0.15989  0.93713  1
 In  In3  1  0.25000  0.65989  0.56287  1
 In  In4  1  0.75000  0.84011  0.06287  1
