CIF file written using JARVIS-Tools package.
data_Ca10P6SeO24
_symmetry_space_group_name_H-M  'P-3'
_cell_length_a       9.52727
_cell_length_b       9.52727
_cell_length_c       6.85359
_cell_angle_alpha    90
_cell_angle_beta     90
_cell_angle_gamma    120

_symmetry_Int_Tables_number  147
_chemical_formula_structural  Ca10P6SeO24
_chemical_formula_sum  Ca0P6SeO24
_cell_volume  538.7484719839355
_cell_formula_units_Z  1
loop_
  _symmetry_equiv_pos_site_id
 _symmetry_equiv_pos_as_xyz
 1  'x, y, z'
loop_
 _atom_site_type_symbol
 _atom_site_label
 _atom_site_symmetry_multiplicity
 _atom_site_fract_x
 _atom_site_fract_y
 _atom_site_fract_z
 _atom_site_fract_occupancy
 Ca  Ca1  1  0.24799  0.26230  0.75132  1
 Ca  Ca2  1  0.98570  0.24799  0.24868  1
 Ca  Ca3  1  0.26230  0.01430  0.24868  1
 Ca  Ca4  1  0.75201  0.73770  0.24868  1
 Ca  Ca5  1  0.01430  0.75201  0.75132  1
 Ca  Ca6  1  0.66667  0.33333  0.51164  1
 Ca  Ca7  1  0.33333  0.66667  0.48836  1
 Ca  Ca8  1  0.66667  0.33333  0.01993  1
 Ca  Ca9  1  0.33333  0.66667  0.98007  1
 Ca  Ca10  1  0.73770  0.98570  0.75132  1
 O  O1  1  0.41637  0.88506  0.19712  1
 O  O2  1  0.48336  0.32500  0.25471  1
 O  O3  1  0.46869  0.58363  0.19712  1
 O  O4  1  0.58363  0.11494  0.80288  1
 O  O5  1  0.88506  0.46869  0.80288  1
 O  O6  1  0.53131  0.41637  0.80288  1
 O  O7  1  0.15836  0.48336  0.74529  1
 O  O8  1  0.84164  0.51664  0.25471  1
 O  O9  1  0.09883  0.70816  0.44870  1
 O  O10  1  0.32500  0.84164  0.74529  1
 O  O11  1  0.93018  0.23538  0.90326  1
 O  O12  1  0.51664  0.67500  0.74529  1
 O  O13  1  0.67500  0.15836  0.25471  1
 O  O14  1  0.30520  0.06982  0.90326  1
 O  O15  1  0.90117  0.29184  0.55130  1
 O  O16  1  0.06982  0.76462  0.09674  1
 O  O17  1  0.69480  0.93018  0.09674  1
 O  O18  1  0.70816  0.60933  0.55130  1
 O  O19  1  0.11494  0.53131  0.19712  1
 O  O20  1  0.39067  0.09883  0.55130  1
 O  O21  1  0.29184  0.39067  0.44870  1
 O  O22  1  0.76462  0.69480  0.90326  1
 O  O23  1  0.23538  0.30520  0.09674  1
 O  O24  1  0.60933  0.90117  0.44870  1
 P  P1  1  0.39963  0.02826  0.75078  1
 P  P2  1  0.02826  0.62862  0.24922  1
 P  P3  1  0.37138  0.39963  0.24922  1
 P  P4  1  0.97174  0.37138  0.75078  1
 P  P5  1  0.62862  0.60037  0.75078  1
 P  P6  1  0.60037  0.97174  0.24922  1
 Se  Se1  1  0.00000  0.00000  0.50000  1
