CIF file written using JARVIS-Tools package.
data_DyNi4As2
_symmetry_space_group_name_H-M  'P4_2/mnm'
_cell_length_a       7.26751
_cell_length_b       7.26751
_cell_length_c       3.78528
_cell_angle_alpha    90
_cell_angle_beta     90
_cell_angle_gamma    90

_symmetry_Int_Tables_number  136
_chemical_formula_structural  DyNi4As2
_chemical_formula_sum  Dy2Ni8As4
_cell_volume  199.9262109727645
_cell_formula_units_Z  2
loop_
  _symmetry_equiv_pos_site_id
 _symmetry_equiv_pos_as_xyz
 1  'x, y, z'
loop_
 _atom_site_type_symbol
 _atom_site_label
 _atom_site_symmetry_multiplicity
 _atom_site_fract_x
 _atom_site_fract_y
 _atom_site_fract_z
 _atom_site_fract_occupancy
 As  As1  1  0.71782  0.71782  0.50000  1
 As  As2  1  0.28218  0.28218  0.50000  1
 As  As3  1  0.78218  0.21782  0.00000  1
 As  As4  1  0.21782  0.78218  0.00000  1
 Dy  Dy1  1  0.50000  0.50000  0.00000  1
 Dy  Dy2  1  0.00000  0.00000  0.50000  1
 Ni  Ni1  1  0.84641  0.41188  0.50000  1
 Ni  Ni2  1  0.91188  0.65359  0.00000  1
 Ni  Ni3  1  0.34641  0.08812  0.00000  1
 Ni  Ni4  1  0.58812  0.15359  0.50000  1
 Ni  Ni5  1  0.41188  0.84641  0.50000  1
 Ni  Ni6  1  0.08812  0.34641  0.00000  1
 Ni  Ni7  1  0.15359  0.58812  0.50000  1
 Ni  Ni8  1  0.65359  0.91188  0.00000  1
