CIF file written using JARVIS-Tools package.
data_Ca5Si2N6
_symmetry_space_group_name_H-M  'C2/m'
_cell_length_a       5.9008
_cell_length_b       5.9008
_cell_length_c       12.0175
_cell_angle_alpha    94.832
_cell_angle_beta     94.832
_cell_angle_gamma    115.995

_symmetry_Int_Tables_number  12
_chemical_formula_structural  Ca5Si2N6
_chemical_formula_sum  Ca0Si4N2
_cell_volume  371.32710703744397
_cell_formula_units_Z  2
loop_
  _symmetry_equiv_pos_site_id
 _symmetry_equiv_pos_as_xyz
 1  'x, y, z'
loop_
 _atom_site_type_symbol
 _atom_site_label
 _atom_site_symmetry_multiplicity
 _atom_site_fract_x
 _atom_site_fract_y
 _atom_site_fract_z
 _atom_site_fract_occupancy
 Ca  Ca1  1  0.72989  0.37937  0.26144  1
 Ca  Ca2  1  0.24120  0.75880  0.00000  1
 Ca  Ca3  1  0.18800  0.81200  0.50000  1
 Ca  Ca4  1  0.81200  0.18800  0.50000  1
 Ca  Ca5  1  0.91002  0.91002  0.79294  1
 Ca  Ca6  1  0.75880  0.24120  0.00000  1
 Ca  Ca7  1  0.62063  0.27011  0.73856  1
 Ca  Ca8  1  0.27011  0.62063  0.73856  1
 Ca  Ca9  1  0.37937  0.72989  0.26144  1
 Ca  Ca10  1  0.08998  0.08998  0.20706  1
 N  N1  1  0.61164  0.90634  0.63788  1
 N  N2  1  0.39018  0.39018  0.08516  1
 N  N3  1  0.34268  0.05258  0.87261  1
 N  N4  1  0.05258  0.34268  0.87261  1
 N  N5  1  0.65732  0.94742  0.12739  1
 N  N6  1  0.94742  0.65732  0.12739  1
 N  N7  1  0.90634  0.61164  0.63788  1
 N  N8  1  0.64371  0.64371  0.42514  1
 N  N9  1  0.09366  0.38836  0.36212  1
 N  N10  1  0.35629  0.35629  0.57486  1
 N  N11  1  0.60982  0.60982  0.91484  1
 N  N12  1  0.38836  0.09366  0.36212  1
 Si  Si1  1  0.65096  0.65096  0.57486  1
 Si  Si2  1  0.67659  0.67659  0.06883  1
 Si  Si3  1  0.32341  0.32341  0.93117  1
 Si  Si4  1  0.34904  0.34904  0.42514  1
