CIF file written using JARVIS-Tools package.
data_AuBr
_symmetry_space_group_name_H-M  'P4_2/ncm'
_cell_length_a       4.23671
_cell_length_b       4.23671
_cell_length_c       12.4607
_cell_angle_alpha    90
_cell_angle_beta     90
_cell_angle_gamma    90

_symmetry_Int_Tables_number  138
_chemical_formula_structural  AuBr
_chemical_formula_sum  Au4Br4
_cell_volume  223.66509829456922
_cell_formula_units_Z  4
loop_
  _symmetry_equiv_pos_site_id
 _symmetry_equiv_pos_as_xyz
 1  'x, y, z'
loop_
 _atom_site_type_symbol
 _atom_site_label
 _atom_site_symmetry_multiplicity
 _atom_site_fract_x
 _atom_site_fract_y
 _atom_site_fract_z
 _atom_site_fract_occupancy
 Au  Au1  1  0.00000  0.00000  0.00000  1
 Au  Au2  1  0.50000  0.00000  0.50000  1
 Au  Au3  1  0.00000  0.50000  0.50000  1
 Au  Au4  1  0.50000  0.50000  0.00000  1
 Br  Br1  1  0.25000  0.25000  0.16024  1
 Br  Br2  1  0.25000  0.25000  0.66024  1
 Br  Br3  1  0.75000  0.75000  0.33976  1
 Br  Br4  1  0.75000  0.75000  0.83976  1
