CIF file written using JARVIS-Tools package.
data_Tm2O3
_symmetry_space_group_name_H-M  'Ia-3'
_cell_length_a       9.04059
_cell_length_b       9.04059
_cell_length_c       9.04059
_cell_angle_alpha    109.471
_cell_angle_beta     109.471
_cell_angle_gamma    109.471

_symmetry_Int_Tables_number  206
_chemical_formula_structural  Tm2O3
_chemical_formula_sum  Tm6O24
_cell_volume  568.811605151087
_cell_formula_units_Z  8
loop_
  _symmetry_equiv_pos_site_id
 _symmetry_equiv_pos_as_xyz
 1  'x, y, z'
loop_
 _atom_site_type_symbol
 _atom_site_label
 _atom_site_symmetry_multiplicity
 _atom_site_fract_x
 _atom_site_fract_y
 _atom_site_fract_z
 _atom_site_fract_occupancy
 O  O1  1  0.27241  0.01164  0.04365  1
 O  O2  1  0.98836  0.95635  0.72759  1
 O  O3  1  0.26077  0.77241  0.72876  1
 O  O4  1  0.51164  0.23923  0.96799  1
 O  O5  1  0.95635  0.72759  0.98836  1
 O  O6  1  0.72876  0.26077  0.77241  1
 O  O7  1  0.23923  0.96799  0.51164  1
 O  O8  1  0.54365  0.53201  0.77124  1
 O  O9  1  0.27124  0.73923  0.22759  1
 O  O10  1  0.76077  0.03201  0.48836  1
 O  O11  1  0.77241  0.72876  0.26077  1
 O  O12  1  0.96799  0.51164  0.23923  1
 O  O13  1  0.46799  0.22876  0.45635  1
 O  O14  1  0.01164  0.04365  0.27241  1
 O  O15  1  0.73923  0.22759  0.27124  1
 O  O16  1  0.48836  0.76077  0.03201  1
 O  O17  1  0.04365  0.27241  0.01164  1
 O  O18  1  0.77124  0.54365  0.53201  1
 O  O19  1  0.53201  0.77124  0.54365  1
 O  O20  1  0.45635  0.46799  0.22876  1
 O  O21  1  0.22759  0.27124  0.73923  1
 O  O22  1  0.03201  0.48836  0.76077  1
 O  O23  1  0.22876  0.45635  0.46799  1
 O  O24  1  0.72759  0.98836  0.95635  1
 Tm  Tm1  1  0.50000  0.50000  0.50000  1
 Tm  Tm2  1  0.00000  0.00000  0.50000  1
 Tm  Tm3  1  0.50000  0.00000  -0.00000  1
 Tm  Tm4  1  0.00000  0.50000  -0.00000  1
 Tm  Tm5  1  0.25000  0.21707  0.96707  1
 Tm  Tm6  1  0.53293  0.75000  0.28293  1
 Tm  Tm7  1  0.28293  0.53293  0.75000  1
 Tm  Tm8  1  0.75000  0.28293  0.53293  1
 Tm  Tm9  1  0.75000  0.78293  0.03293  1
 Tm  Tm10  1  0.71707  0.46707  0.25000  1
 Tm  Tm11  1  0.46707  0.25000  0.71707  1
 Tm  Tm12  1  0.78293  0.03293  0.75000  1
 Tm  Tm13  1  0.21707  0.96707  0.25000  1
 Tm  Tm14  1  0.03293  0.75000  0.78293  1
 Tm  Tm15  1  0.96707  0.25000  0.21707  1
 Tm  Tm16  1  0.25000  0.71707  0.46707  1
