CIF file written using JARVIS-Tools package.
data_CaGeO3
_symmetry_space_group_name_H-M  'P-1'
_cell_length_a       7.35345
_cell_length_b       7.59095
_cell_length_c       8.20019
_cell_angle_alpha    103.46
_cell_angle_beta     94.466
_cell_angle_gamma    90.119

_symmetry_Int_Tables_number  2
_chemical_formula_structural  CaGeO3
_chemical_formula_sum  Ca6Ge6O8
_cell_volume  443.71167260746506
_cell_formula_units_Z  6
loop_
  _symmetry_equiv_pos_site_id
 _symmetry_equiv_pos_as_xyz
 1  'x, y, z'
loop_
 _atom_site_type_symbol
 _atom_site_label
 _atom_site_symmetry_multiplicity
 _atom_site_fract_x
 _atom_site_fract_y
 _atom_site_fract_z
 _atom_site_fract_occupancy
 Ca  Ca1  1  0.96964  0.24583  0.98630  1
 Ca  Ca2  1  0.03036  0.75417  0.01370  1
 Ca  Ca3  1  0.26160  0.92542  0.70861  1
 Ca  Ca4  1  0.73840  0.07458  0.29139  1
 Ca  Ca5  1  0.25905  0.42707  0.70900  1
 Ca  Ca6  1  0.74095  0.57293  0.29100  1
 Ge  Ge1  1  0.22427  0.60499  0.31877  1
 Ge  Ge2  1  0.22109  0.05734  0.32321  1
 Ge  Ge3  1  0.77891  0.94266  0.67679  1
 Ge  Ge4  1  0.44747  0.27289  0.09132  1
 Ge  Ge5  1  0.55253  0.72711  0.90868  1
 Ge  Ge6  1  0.77573  0.39501  0.68123  1
 O  O1  1  0.57924  0.87080  0.76120  1
 O  O2  1  0.74218  0.18062  0.73125  1
 O  O3  1  0.25782  0.81938  0.26875  1
 O  O4  1  0.02665  0.52231  0.18708  1
 O  O5  1  0.23018  0.62633  0.53382  1
 O  O6  1  0.77582  0.86206  0.45965  1
 O  O7  1  0.22418  0.13794  0.54035  1
 O  O8  1  0.76982  0.37367  0.46618  1
 O  O9  1  0.28766  0.22443  0.91672  1
 O  O10  1  0.57690  0.50173  0.77582  1
 O  O11  1  0.42310  0.49827  0.22418  1
 O  O12  1  0.68603  0.27030  0.09541  1
 O  O13  1  0.31397  0.72970  0.90459  1
 O  O14  1  0.42076  0.12920  0.23880  1
 O  O15  1  0.71234  0.77557  0.08328  1
 O  O16  1  0.02481  0.07472  0.19116  1
 O  O17  1  0.97519  0.92528  0.80884  1
 O  O18  1  0.97335  0.47769  0.81292  1
