CIF file written using JARVIS-Tools package.
data_AlInCl4
_symmetry_space_group_name_H-M  'Pnma'
_cell_length_a       7.02411
_cell_length_b       9.31927
_cell_length_c       10.5635
_cell_angle_alpha    90
_cell_angle_beta     90
_cell_angle_gamma    90

_symmetry_Int_Tables_number  62
_chemical_formula_structural  AlInCl4
_chemical_formula_sum  Al4In4Cl6
_cell_volume  691.4817858645889
_cell_formula_units_Z  4
loop_
  _symmetry_equiv_pos_site_id
 _symmetry_equiv_pos_as_xyz
 1  'x, y, z'
loop_
 _atom_site_type_symbol
 _atom_site_label
 _atom_site_symmetry_multiplicity
 _atom_site_fract_x
 _atom_site_fract_y
 _atom_site_fract_z
 _atom_site_fract_occupancy
 Al  Al1  1  0.75000  0.81229  0.56498  1
 Al  Al2  1  0.25000  0.31229  0.93502  1
 Al  Al3  1  0.25000  0.18771  0.43502  1
 Al  Al4  1  0.75000  0.68771  0.06498  1
 Cl  Cl1  1  0.00199  0.32512  0.43363  1
 Cl  Cl2  1  0.25000  0.06322  0.26276  1
 Cl  Cl3  1  0.49801  0.17488  0.93363  1
 Cl  Cl4  1  0.50199  0.67488  0.56637  1
 Cl  Cl5  1  0.50199  0.82512  0.06637  1
 Cl  Cl6  1  0.75000  0.56322  0.23724  1
 Cl  Cl7  1  0.75000  0.93678  0.73724  1
 Cl  Cl8  1  0.49801  0.32512  0.43363  1
 Cl  Cl9  1  0.75000  0.94432  0.39786  1
 Cl  Cl10  1  0.25000  0.44432  0.10214  1
 Cl  Cl11  1  -0.00199  0.82512  0.06637  1
 Cl  Cl12  1  0.75000  0.55568  0.89786  1
 Cl  Cl13  1  0.25000  0.05568  0.60214  1
 Cl  Cl14  1  -0.00199  0.67488  0.56637  1
 Cl  Cl15  1  0.00199  0.17488  0.93363  1
 Cl  Cl16  1  0.25000  0.43678  0.76276  1
 In  In1  1  0.25000  0.78305  0.80511  1
 In  In2  1  0.25000  0.71695  0.30511  1
 In  In3  1  0.75000  0.21695  0.19489  1
 In  In4  1  0.75000  0.28305  0.69489  1
