CIF file written using JARVIS-Tools package.
data_ThBr4
_symmetry_space_group_name_H-M  'I4_1/a'
_cell_length_a       8.36213
_cell_length_b       8.36213
_cell_length_c       8.36213
_cell_angle_alpha    132.378
_cell_angle_beta     132.378
_cell_angle_gamma    69.6324

_symmetry_Int_Tables_number  88
_chemical_formula_structural  ThBr4
_chemical_formula_sum  Th2Br8
_cell_volume  312.9731795735502
_cell_formula_units_Z  2
loop_
  _symmetry_equiv_pos_site_id
 _symmetry_equiv_pos_as_xyz
 1  'x, y, z'
loop_
 _atom_site_type_symbol
 _atom_site_label
 _atom_site_symmetry_multiplicity
 _atom_site_fract_x
 _atom_site_fract_y
 _atom_site_fract_z
 _atom_site_fract_occupancy
 Br  Br1  1  0.67610  0.53871  0.81344  1
 Br  Br2  1  0.36266  0.17610  0.63738  1
 Br  Br3  1  0.32390  0.46129  0.18656  1
 Br  Br4  1  0.96129  0.27472  0.13738  1
 Br  Br5  1  0.03871  0.72528  0.86262  1
 Br  Br6  1  0.77472  0.13734  0.31344  1
 Br  Br7  1  0.63734  0.82390  0.36262  1
 Br  Br8  1  0.22528  0.86266  0.68656  1
 Th  Th1  1  0.37500  0.12500  0.25000  1
 Th  Th2  1  0.62500  0.87500  0.75000  1
