CIF file written using JARVIS-Tools package.
data_Tb2Ba4Cd3S10
_symmetry_space_group_name_H-M  'Cmc2_1'
_cell_length_a       4.17304
_cell_length_b       9.29512
_cell_length_c       26.7374
_cell_angle_alpha    90
_cell_angle_beta     90
_cell_angle_gamma    102.972

_symmetry_Int_Tables_number  36
_chemical_formula_structural  Tb2Ba4Cd3S10
_chemical_formula_sum  Tb4Ba8Cd6S20
_cell_volume  1010.6482106831232
_cell_formula_units_Z  2
loop_
  _symmetry_equiv_pos_site_id
 _symmetry_equiv_pos_as_xyz
 1  'x, y, z'
loop_
 _atom_site_type_symbol
 _atom_site_label
 _atom_site_symmetry_multiplicity
 _atom_site_fract_x
 _atom_site_fract_y
 _atom_site_fract_z
 _atom_site_fract_occupancy
 Ba  Ba1  1  0.57535  0.15070  0.65599  1
 Ba  Ba2  1  0.16076  0.32153  0.39092  1
 Ba  Ba3  1  0.83924  0.67847  0.89092  1
 Ba  Ba4  1  0.16310  0.32621  0.11079  1
 Ba  Ba5  1  0.83690  0.67379  0.61079  1
 Ba  Ba6  1  0.59483  0.18967  0.83955  1
 Ba  Ba7  1  0.42465  0.84930  0.15599  1
 Ba  Ba8  1  0.40517  0.81033  0.33955  1
 Cd  Cd1  1  0.83768  0.67535  0.46144  1
 Cd  Cd2  1  0.16232  0.32465  0.96144  1
 Cd  Cd3  1  0.84451  0.68901  0.04381  1
 Cd  Cd4  1  0.15549  0.31099  0.54381  1
 Cd  Cd5  1  0.21724  0.43447  0.73259  1
 Cd  Cd6  1  0.78276  0.56553  0.23259  1
 S  S1  1  0.21248  0.42495  0.87663  1
 S  S2  1  0.78752  0.57505  0.37663  1
 S  S3  1  0.23142  0.46284  0.26816  1
 S  S4  1  0.76858  0.53716  0.76816  1
 S  S5  1  0.98968  0.97937  0.07049  1
 S  S6  1  0.34474  0.68947  0.51855  1
 S  S7  1  0.20732  0.41464  0.63166  1
 S  S8  1  0.92764  0.85527  0.24720  1
 S  S9  1  0.07236  0.14473  0.74720  1
 S  S10  1  0.79268  0.58536  0.13166  1
 S  S11  1  0.65526  0.31053  0.01855  1
 S  S12  1  0.01032  0.02063  0.57049  1
 S  S13  1  0.65034  0.30068  0.48870  1
 S  S14  1  0.40914  0.81828  0.68421  1
 S  S15  1  0.59086  0.18172  0.18421  1
 S  S16  1  0.42327  0.84655  0.82105  1
 S  S17  1  0.98343  0.96685  0.43219  1
 S  S18  1  0.57673  0.15345  0.32105  1
 S  S19  1  0.01657  0.03315  0.93219  1
 S  S20  1  0.34966  0.69932  0.98870  1
 Tb  Tb1  1  0.50390  0.00780  0.99943  1
 Tb  Tb2  1  0.92034  0.84067  0.75356  1
 Tb  Tb3  1  0.49610  0.99220  0.49943  1
 Tb  Tb4  1  0.07966  0.15933  0.25356  1
