CIF file written using JARVIS-Tools package.
data_AgClO2
_symmetry_space_group_name_H-M  'Pcca'
_cell_length_a       6.00044
_cell_length_b       6.10219
_cell_length_c       6.65625
_cell_angle_alpha    90
_cell_angle_beta     90
_cell_angle_gamma    90

_symmetry_Int_Tables_number  54
_chemical_formula_structural  AgClO2
_chemical_formula_sum  Ag4Cl4O8
_cell_volume  243.72418662048923
_cell_formula_units_Z  4
loop_
  _symmetry_equiv_pos_site_id
 _symmetry_equiv_pos_as_xyz
 1  'x, y, z'
loop_
 _atom_site_type_symbol
 _atom_site_label
 _atom_site_symmetry_multiplicity
 _atom_site_fract_x
 _atom_site_fract_y
 _atom_site_fract_z
 _atom_site_fract_occupancy
 Ag  Ag1  1  0.50000  0.25000  0.10422  1
 Ag  Ag2  1  0.00000  0.25000  0.89578  1
 Ag  Ag3  1  0.50000  0.75000  0.89578  1
 Ag  Ag4  1  0.00000  0.75000  0.10422  1
 Cl  Cl1  1  0.00000  0.75000  0.62162  1
 Cl  Cl2  1  0.00000  0.25000  0.37838  1
 Cl  Cl3  1  0.50000  0.75000  0.37838  1
 Cl  Cl4  1  0.50000  0.25000  0.62162  1
 O  O1  1  0.65393  0.39625  0.76550  1
 O  O2  1  0.15393  0.10375  0.23450  1
 O  O3  1  0.84607  0.39625  0.23450  1
 O  O4  1  0.34607  0.10375  0.76550  1
 O  O5  1  0.34607  0.60375  0.23450  1
 O  O6  1  0.65393  0.89625  0.23450  1
 O  O7  1  0.15393  0.60375  0.76550  1
 O  O8  1  0.84607  0.89625  0.76550  1
