CIF file written using JARVIS-Tools package.
data_Ti2CrTe4
_symmetry_space_group_name_H-M  'C2/m'
_cell_length_a       3.85399
_cell_length_b       6.86987
_cell_length_c       7.46207
_cell_angle_alpha    116.215
_cell_angle_beta     104.966
_cell_angle_gamma    90

_symmetry_Int_Tables_number  12
_chemical_formula_structural  Ti2CrTe4
_chemical_formula_sum  Ti2CrTe4
_cell_volume  169.7458341321966
_cell_formula_units_Z  1
loop_
  _symmetry_equiv_pos_site_id
 _symmetry_equiv_pos_as_xyz
 1  'x, y, z'
loop_
 _atom_site_type_symbol
 _atom_site_label
 _atom_site_symmetry_multiplicity
 _atom_site_fract_x
 _atom_site_fract_y
 _atom_site_fract_z
 _atom_site_fract_occupancy
 Cr  Cr1  1  0.00000  0.00000  0.00000  1
 Te  Te1  1  0.10956  0.44979  0.21912  1
 Te  Te2  1  0.89044  0.55021  0.78088  1
 Te  Te3  1  0.36758  0.03392  0.73515  1
 Te  Te4  1  0.63242  0.96608  0.26485  1
 Ti  Ti1  1  0.25190  0.29120  0.50380  1
 Ti  Ti2  1  0.74810  0.70880  0.49620  1
