CIF file written using JARVIS-Tools package.
data_SiO2
_symmetry_space_group_name_H-M  'R-3c'
_cell_length_a       6.56346
_cell_length_b       6.56346
_cell_length_c       6.56346
_cell_angle_alpha    113.358
_cell_angle_beta     113.358
_cell_angle_gamma    113.358

_symmetry_Int_Tables_number  167
_chemical_formula_structural  SiO2
_chemical_formula_sum  Si6O2
_cell_volume  179.6640411826359
_cell_formula_units_Z  6
loop_
  _symmetry_equiv_pos_site_id
 _symmetry_equiv_pos_as_xyz
 1  'x, y, z'
loop_
 _atom_site_type_symbol
 _atom_site_label
 _atom_site_symmetry_multiplicity
 _atom_site_fract_x
 _atom_site_fract_y
 _atom_site_fract_z
 _atom_site_fract_occupancy
 O  O1  1  0.62847  0.87153  0.75000  1
 O  O2  1  0.50000  0.50000  -0.00000  1
 O  O3  1  -0.00000  0.50000  0.50000  1
 O  O4  1  0.75000  0.62847  0.87153  1
 O  O5  1  0.50000  0.00000  0.00000  1
 O  O6  1  0.37153  0.12847  0.25000  1
 O  O7  1  0.12847  0.25000  0.37153  1
 O  O8  1  0.25000  0.37153  0.12847  1
 O  O9  1  0.00000  0.00000  0.50000  1
 O  O10  1  0.87153  0.75000  0.62847  1
 O  O11  1  -0.00000  0.50000  -0.00000  1
 O  O12  1  0.50000  0.00000  0.50000  1
 Si  Si1  1  0.57734  0.75000  0.92266  1
 Si  Si2  1  0.07734  0.42266  0.25000  1
 Si  Si3  1  0.42266  0.25000  0.07734  1
 Si  Si4  1  0.92266  0.57734  0.75000  1
 Si  Si5  1  0.75000  0.92266  0.57734  1
 Si  Si6  1  0.25000  0.07734  0.42266  1
