CIF file written using JARVIS-Tools package.
data_K2P3
_symmetry_space_group_name_H-M  'Fddd'
_cell_length_a       8.25183
_cell_length_b       8.40432
_cell_length_c       10.252
_cell_angle_alpha    78.6049
_cell_angle_beta     66.2686
_cell_angle_gamma    60.5984

_symmetry_Int_Tables_number  70
_chemical_formula_structural  K2P3
_chemical_formula_sum  K8P2
_cell_volume  567.0357265518468
_cell_formula_units_Z  4
loop_
  _symmetry_equiv_pos_site_id
 _symmetry_equiv_pos_as_xyz
 1  'x, y, z'
loop_
 _atom_site_type_symbol
 _atom_site_label
 _atom_site_symmetry_multiplicity
 _atom_site_fract_x
 _atom_site_fract_y
 _atom_site_fract_z
 _atom_site_fract_occupancy
 K  K1  1  0.24912  0.25000  0.50177  1
 K  K2  1  0.50088  0.25000  0.99823  1
 K  K3  1  0.99017  0.75000  0.01966  1
 K  K4  1  0.25983  0.75000  0.48034  1
 K  K5  1  0.74017  0.25000  0.51966  1
 K  K6  1  0.49912  0.75000  0.00177  1
 K  K7  1  0.75088  0.75000  0.49823  1
 K  K8  1  0.00983  0.25000  0.98034  1
 P  P1  1  0.42748  0.60078  0.75399  1
 P  P2  1  0.81853  0.89922  0.75399  1
 P  P3  1  0.27370  0.45260  0.75000  1
 P  P4  1  0.18147  0.10078  0.24601  1
 P  P5  1  0.02370  0.95260  0.25000  1
 P  P6  1  0.97174  0.60078  0.74601  1
 P  P7  1  0.71774  0.10078  0.25399  1
 P  P8  1  0.72630  0.54740  0.25000  1
 P  P9  1  0.97630  0.04740  0.75000  1
 P  P10  1  0.57252  0.39922  0.24601  1
 P  P11  1  0.28226  0.89922  0.74601  1
 P  P12  1  0.02826  0.39922  0.25399  1
