CIF file written using JARVIS-Tools package.
data_MgSnO2
_symmetry_space_group_name_H-M  'P-1'
_cell_length_a       3.32557
_cell_length_b       9.32622
_cell_length_c       8.86583
_cell_angle_alpha    75.3238
_cell_angle_beta     70.4753
_cell_angle_gamma    89.8907

_symmetry_Int_Tables_number  2
_chemical_formula_structural  MgSnO2
_chemical_formula_sum  Mg4Sn4O8
_cell_volume  249.67073057311939
_cell_formula_units_Z  4
loop_
  _symmetry_equiv_pos_site_id
 _symmetry_equiv_pos_as_xyz
 1  'x, y, z'
loop_
 _atom_site_type_symbol
 _atom_site_label
 _atom_site_symmetry_multiplicity
 _atom_site_fract_x
 _atom_site_fract_y
 _atom_site_fract_z
 _atom_site_fract_occupancy
 Mg  Mg1  1  0.40168  0.00639  0.35096  1
 Mg  Mg2  1  0.59433  0.97353  0.67726  1
 Mg  Mg3  1  0.20342  0.77865  0.12284  1
 Mg  Mg4  1  0.79263  0.20127  0.90536  1
 O  O1  1  0.21185  0.84364  0.58791  1
 O  O2  1  0.38390  0.30538  0.81087  1
 O  O3  1  0.61216  0.67454  0.21733  1
 O  O4  1  0.78417  0.13628  0.44029  1
 O  O5  1  0.02600  0.08083  0.74146  1
 O  O6  1  0.57806  0.18630  0.14421  1
 O  O7  1  0.97003  0.89909  0.28674  1
 O  O8  1  0.41797  0.79361  0.88399  1
 Sn  Sn1  1  0.35043  0.29124  0.57967  1
 Sn  Sn2  1  0.02629  0.31471  0.20530  1
 Sn  Sn3  1  0.96973  0.66520  0.82289  1
 Sn  Sn4  1  0.64564  0.68868  0.44853  1
