CIF file written using JARVIS-Tools package.
data_TmB4Rh
_symmetry_space_group_name_H-M  'Pbam'
_cell_length_a       3.55346
_cell_length_b       5.91812
_cell_length_c       11.4761
_cell_angle_alpha    90
_cell_angle_beta     90
_cell_angle_gamma    90

_symmetry_Int_Tables_number  55
_chemical_formula_structural  TmB4Rh
_chemical_formula_sum  Tm4B6Rh4
_cell_volume  241.33997842644587
_cell_formula_units_Z  4
loop_
  _symmetry_equiv_pos_site_id
 _symmetry_equiv_pos_as_xyz
 1  'x, y, z'
loop_
 _atom_site_type_symbol
 _atom_site_label
 _atom_site_symmetry_multiplicity
 _atom_site_fract_x
 _atom_site_fract_y
 _atom_site_fract_z
 _atom_site_fract_occupancy
 B  B1  1  0.50000  0.02277  0.19315  1
 B  B2  1  0.50000  0.86469  0.53021  1
 B  B3  1  0.50000  0.13531  0.46979  1
 B  B4  1  0.50000  0.36469  0.96979  1
 B  B5  1  0.50000  0.63531  0.03021  1
 B  B6  1  0.50000  0.20787  0.31267  1
 B  B7  1  0.50000  0.97723  0.80685  1
 B  B8  1  0.50000  0.52277  0.30685  1
 B  B9  1  0.50000  0.47723  0.69315  1
 B  B10  1  0.50000  0.11282  0.04730  1
 B  B11  1  0.50000  0.88718  0.95270  1
 B  B12  1  0.50000  0.61282  0.45270  1
 B  B13  1  0.50000  0.38718  0.54730  1
 B  B14  1  0.50000  0.79213  0.68733  1
 B  B15  1  0.50000  0.70787  0.18733  1
 B  B16  1  0.50000  0.29213  0.81267  1
 Rh  Rh1  1  0.00000  0.64325  0.59545  1
 Rh  Rh2  1  0.00000  0.35675  0.40455  1
 Rh  Rh3  1  0.00000  0.85675  0.09545  1
 Rh  Rh4  1  0.00000  0.14325  0.90455  1
 Tm  Tm1  1  0.00000  0.36851  0.14872  1
 Tm  Tm2  1  0.00000  0.63149  0.85128  1
 Tm  Tm3  1  0.00000  0.86851  0.35128  1
 Tm  Tm4  1  0.00000  0.13149  0.64872  1
