CIF file written using JARVIS-Tools package.
data_WCl6
_symmetry_space_group_name_H-M  'R-3'
_cell_length_a       6.58311
_cell_length_b       6.5831
_cell_length_c       6.5831
_cell_angle_alpha    54.9821
_cell_angle_beta     54.9821
_cell_angle_gamma    54.9821

_symmetry_Int_Tables_number  148
_chemical_formula_structural  WCl6
_chemical_formula_sum  WCl6
_cell_volume  178.17865590752572
_cell_formula_units_Z  1
loop_
  _symmetry_equiv_pos_site_id
 _symmetry_equiv_pos_as_xyz
 1  'x, y, z'
loop_
 _atom_site_type_symbol
 _atom_site_label
 _atom_site_symmetry_multiplicity
 _atom_site_fract_x
 _atom_site_fract_y
 _atom_site_fract_z
 _atom_site_fract_occupancy
 Cl  Cl1  1  0.38843  0.08314  0.76790  1
 Cl  Cl2  1  0.61157  0.91686  0.23210  1
 Cl  Cl3  1  0.08314  0.76790  0.38843  1
 Cl  Cl4  1  0.76790  0.38843  0.08314  1
 Cl  Cl5  1  0.91686  0.23210  0.61157  1
 Cl  Cl6  1  0.23210  0.61157  0.91686  1
 W  W1  1  0.00000  0.00000  0.00000  1
