CIF file written using JARVIS-Tools package.
data_AgBiP2Se6
_symmetry_space_group_name_H-M  'R-3'
_cell_length_a       13.8871
_cell_length_b       13.8871
_cell_length_c       13.8871
_cell_angle_alpha    28.03
_cell_angle_beta     28.03
_cell_angle_gamma    28.03

_symmetry_Int_Tables_number  148
_chemical_formula_structural  AgBiP2Se6
_chemical_formula_sum  Ag2Bi2P4Se2
_cell_volume  522.4064618030733
_cell_formula_units_Z  2
loop_
  _symmetry_equiv_pos_site_id
 _symmetry_equiv_pos_as_xyz
 1  'x, y, z'
loop_
 _atom_site_type_symbol
 _atom_site_label
 _atom_site_symmetry_multiplicity
 _atom_site_fract_x
 _atom_site_fract_y
 _atom_site_fract_z
 _atom_site_fract_occupancy
 Ag  Ag1  1  0.59574  0.59574  0.59574  1
 Ag  Ag2  1  0.40426  0.40426  0.40426  1
 Bi  Bi1  1  0.08815  0.08815  0.08815  1
 Bi  Bi2  1  0.91185  0.91185  0.91185  1
 P  P1  1  0.72204  0.72204  0.72204  1
 P  P2  1  0.77958  0.77958  0.77958  1
 P  P3  1  0.22042  0.22042  0.22042  1
 P  P4  1  0.27796  0.27796  0.27796  1
 Se  Se1  1  0.74902  0.50217  0.13235  1
 Se  Se2  1  0.86765  0.25098  0.49783  1
 Se  Se3  1  0.99377  0.62058  0.27288  1
 Se  Se4  1  0.37942  0.72712  0.00623  1
 Se  Se5  1  0.72712  0.00623  0.37942  1
 Se  Se6  1  0.27288  0.99377  0.62058  1
 Se  Se7  1  0.62058  0.27288  0.99377  1
 Se  Se8  1  0.50217  0.13235  0.74902  1
 Se  Se9  1  0.13235  0.74902  0.50217  1
 Se  Se10  1  0.49783  0.86765  0.25098  1
 Se  Se11  1  0.00623  0.37942  0.72712  1
 Se  Se12  1  0.25098  0.49783  0.86765  1
