CIF file written using JARVIS-Tools package.
data_Sr3ZnRhO6
_symmetry_space_group_name_H-M  'R-3c'
_cell_length_a       6.70408
_cell_length_b       6.70408
_cell_length_c       6.70408
_cell_angle_alpha    91.8739
_cell_angle_beta     91.8739
_cell_angle_gamma    91.8739

_symmetry_Int_Tables_number  167
_chemical_formula_structural  Sr3ZnRhO6
_chemical_formula_sum  Sr6Zn2Rh2O2
_cell_volume  300.81807928511216
_cell_formula_units_Z  2
loop_
  _symmetry_equiv_pos_site_id
 _symmetry_equiv_pos_as_xyz
 1  'x, y, z'
loop_
 _atom_site_type_symbol
 _atom_site_label
 _atom_site_symmetry_multiplicity
 _atom_site_fract_x
 _atom_site_fract_y
 _atom_site_fract_z
 _atom_site_fract_occupancy
 O  O1  1  0.09192  0.28564  0.95906  1
 O  O2  1  0.59192  0.45906  0.78564  1
 O  O3  1  0.45906  0.78564  0.59192  1
 O  O4  1  0.04094  0.90808  0.71436  1
 O  O5  1  0.90808  0.71436  0.04094  1
 O  O6  1  0.71436  0.04094  0.90808  1
 O  O7  1  0.21436  0.40808  0.54094  1
 O  O8  1  0.40808  0.54094  0.21436  1
 O  O9  1  0.54094  0.21436  0.40808  1
 O  O10  1  0.78564  0.59192  0.45906  1
 O  O11  1  0.28564  0.95906  0.09192  1
 O  O12  1  0.95906  0.09192  0.28564  1
 Rh  Rh1  1  0.00000  0.00000  0.00000  1
 Rh  Rh2  1  0.50000  0.50000  0.50000  1
 Sr  Sr1  1  0.25000  0.61531  0.88469  1
 Sr  Sr2  1  0.61531  0.88469  0.25000  1
 Sr  Sr3  1  0.11531  0.75000  0.38469  1
 Sr  Sr4  1  0.75000  0.38469  0.11531  1
 Sr  Sr5  1  0.38469  0.11531  0.75000  1
 Sr  Sr6  1  0.88469  0.25000  0.61531  1
 Zn  Zn1  1  0.25000  0.25000  0.25000  1
 Zn  Zn2  1  0.75000  0.75000  0.75000  1
