CIF file written using JARVIS-Tools package.
data_NaMg4As3O12
_symmetry_space_group_name_H-M  'I-42d'
_cell_length_a       6.87997
_cell_length_b       6.87997
_cell_length_c       10.8036
_cell_angle_alpha    108.567
_cell_angle_beta     108.567
_cell_angle_gamma    90

_symmetry_Int_Tables_number  122
_chemical_formula_structural  NaMg4As3O12
_chemical_formula_sum  Na2Mg8As6O24
_cell_volume  456.59708403874765
_cell_formula_units_Z  2
loop_
  _symmetry_equiv_pos_site_id
 _symmetry_equiv_pos_as_xyz
 1  'x, y, z'
loop_
 _atom_site_type_symbol
 _atom_site_label
 _atom_site_symmetry_multiplicity
 _atom_site_fract_x
 _atom_site_fract_y
 _atom_site_fract_z
 _atom_site_fract_occupancy
 As  As1  1  0.21860  0.12500  0.75000  1
 As  As2  1  0.75000  0.25000  0.50000  1
 As  As3  1  0.00000  0.00000  0.00000  1
 As  As4  1  0.37500  0.78140  0.25000  1
 As  As5  1  0.53140  0.62500  0.75000  1
 As  As6  1  0.87500  0.46860  0.25000  1
 Mg  Mg1  1  0.87500  0.88158  0.25000  1
 Mg  Mg2  1  0.37500  0.36842  0.25000  1
 Mg  Mg3  1  0.11842  0.62500  0.75000  1
 Mg  Mg4  1  0.52070  0.02070  0.04140  1
 Mg  Mg5  1  0.97930  0.47930  0.95860  1
 Mg  Mg6  1  0.22930  0.22930  0.45860  1
 Mg  Mg7  1  0.77070  0.77070  0.54140  1
 Mg  Mg8  1  0.63158  0.12500  0.75000  1
 Na  Na1  1  0.25000  0.75000  0.50000  1
 Na  Na2  1  0.50000  0.50000  0.00000  1
 O  O1  1  0.85554  0.56806  0.11813  1
 O  O2  1  0.64251  0.32179  0.19730  1
 O  O3  1  0.12449  0.35749  0.80270  1
 O  O4  1  0.67821  0.44521  0.80270  1
 O  O5  1  0.19521  0.92821  0.30270  1
 O  O6  1  0.10749  0.37449  0.30270  1
 O  O7  1  0.55479  0.87551  0.19730  1
 O  O8  1  0.07179  0.89251  0.69730  1
 O  O9  1  0.43194  0.73741  0.88187  1
 O  O10  1  0.83556  0.98647  0.08864  1
 O  O11  1  0.89784  0.16444  0.91136  1
 O  O12  1  0.89446  0.69992  0.38187  1
 O  O13  1  0.49692  0.26353  0.41136  1
 O  O14  1  0.91444  0.14784  0.41136  1
 O  O15  1  0.25308  0.10216  0.08864  1
 O  O16  1  0.85216  0.50308  0.58864  1
 O  O17  1  0.44992  0.14446  0.88187  1
 O  O18  1  0.73647  0.08556  0.58864  1
 O  O19  1  0.62551  0.80479  0.69730  1
 O  O20  1  0.26259  0.55008  0.11813  1
 O  O21  1  0.30008  0.51259  0.61813  1
 O  O22  1  0.31806  0.10554  0.61813  1
 O  O23  1  0.01353  0.74692  0.91136  1
 O  O24  1  0.48741  0.68194  0.38187  1
