CIF file written using JARVIS-Tools package.
data_TbGeAu
_symmetry_space_group_name_H-M  'P6_3mc'
_cell_length_a       4.46937
_cell_length_b       4.46937
_cell_length_c       7.35656
_cell_angle_alpha    90
_cell_angle_beta     90
_cell_angle_gamma    120

_symmetry_Int_Tables_number  186
_chemical_formula_structural  TbGeAu
_chemical_formula_sum  Tb2Ge2Au2
_cell_volume  127.26221346313626
_cell_formula_units_Z  2
loop_
  _symmetry_equiv_pos_site_id
 _symmetry_equiv_pos_as_xyz
 1  'x, y, z'
loop_
 _atom_site_type_symbol
 _atom_site_label
 _atom_site_symmetry_multiplicity
 _atom_site_fract_x
 _atom_site_fract_y
 _atom_site_fract_z
 _atom_site_fract_occupancy
 Au  Au1  1  0.66667  0.33333  0.46374  1
 Au  Au2  1  0.33333  0.66667  0.96374  1
 Ge  Ge1  1  0.66667  0.33333  0.04431  1
 Ge  Ge2  1  0.33333  0.66667  0.54431  1
 Tb  Tb1  1  0.00000  0.00000  0.25196  1
 Tb  Tb2  1  0.00000  0.00000  0.75196  1
