CIF file written using JARVIS-Tools package.
data_LuMnSi
_symmetry_space_group_name_H-M  'Pnma'
_cell_length_a       4.16186
_cell_length_b       6.82336
_cell_length_c       6.87653
_cell_angle_alpha    90
_cell_angle_beta     90
_cell_angle_gamma    90

_symmetry_Int_Tables_number  62
_chemical_formula_structural  LuMnSi
_chemical_formula_sum  Lu4Mn4Si4
_cell_volume  195.2788549189174
_cell_formula_units_Z  4
loop_
  _symmetry_equiv_pos_site_id
 _symmetry_equiv_pos_as_xyz
 1  'x, y, z'
loop_
 _atom_site_type_symbol
 _atom_site_label
 _atom_site_symmetry_multiplicity
 _atom_site_fract_x
 _atom_site_fract_y
 _atom_site_fract_z
 _atom_site_fract_occupancy
 Lu  Lu1  1  0.25000  0.48797  0.19073  1
 Lu  Lu2  1  0.75000  0.51203  0.80927  1
 Lu  Lu3  1  0.25000  -0.01203  0.30927  1
 Lu  Lu4  1  0.75000  0.01203  0.69073  1
 Mn  Mn1  1  0.75000  0.84706  0.06344  1
 Mn  Mn2  1  0.25000  0.15294  0.93656  1
 Mn  Mn3  1  0.75000  0.34706  0.43656  1
 Mn  Mn4  1  0.25000  0.65294  0.56344  1
 Si  Si1  1  0.25000  0.80230  0.89567  1
 Si  Si2  1  0.75000  0.19770  0.10433  1
 Si  Si3  1  0.25000  0.30230  0.60433  1
 Si  Si4  1  0.75000  0.69770  0.39567  1
