CIF file written using JARVIS-Tools package.
data_TiCr2Se4
_symmetry_space_group_name_H-M  'C2/m'
_cell_length_a       3.63764
_cell_length_b       6.46922
_cell_length_c       6.95249
_cell_angle_alpha    117.309
_cell_angle_beta     105.165
_cell_angle_gamma    90

_symmetry_Int_Tables_number  12
_chemical_formula_structural  TiCr2Se4
_chemical_formula_sum  TiCr2Se4
_cell_volume  138.931421751545
_cell_formula_units_Z  1
loop_
  _symmetry_equiv_pos_site_id
 _symmetry_equiv_pos_as_xyz
 1  'x, y, z'
loop_
 _atom_site_type_symbol
 _atom_site_label
 _atom_site_symmetry_multiplicity
 _atom_site_fract_x
 _atom_site_fract_y
 _atom_site_fract_z
 _atom_site_fract_occupancy
 Cr  Cr1  1  0.25901  0.27562  0.51801  1
 Cr  Cr2  1  0.74099  0.72438  0.48199  1
 Se  Se1  1  0.12391  0.45055  0.24783  1
 Se  Se2  1  0.87609  0.54945  0.75217  1
 Se  Se3  1  0.36763  0.03199  0.73526  1
 Se  Se4  1  0.63237  0.96801  0.26474  1
 Ti  Ti1  1  0.00000  0.00000  0.00000  1
