CIF file written using JARVIS-Tools package.
data_K2Li3GaO4
_symmetry_space_group_name_H-M  'P2_1/c'
_cell_length_a       5.54034
_cell_length_b       8.77881
_cell_length_c       10.9571
_cell_angle_alpha    90
_cell_angle_beta     111.389
_cell_angle_gamma    90

_symmetry_Int_Tables_number  14
_chemical_formula_structural  K2Li3GaO4
_chemical_formula_sum  K8Li2Ga4O6
_cell_volume  496.21853204414083
_cell_formula_units_Z  4
loop_
  _symmetry_equiv_pos_site_id
 _symmetry_equiv_pos_as_xyz
 1  'x, y, z'
loop_
 _atom_site_type_symbol
 _atom_site_label
 _atom_site_symmetry_multiplicity
 _atom_site_fract_x
 _atom_site_fract_y
 _atom_site_fract_z
 _atom_site_fract_occupancy
 Ga  Ga1  1  0.89875  0.78820  0.56305  1
 Ga  Ga2  1  0.10125  0.28820  0.93695  1
 Ga  Ga3  1  0.89875  0.71180  0.06305  1
 Ga  Ga4  1  0.10125  0.21180  0.43695  1
 K  K1  1  0.29698  0.99263  0.13896  1
 K  K2  1  0.70302  0.49263  0.36104  1
 K  K3  1  0.70302  0.00737  0.86104  1
 K  K4  1  0.29698  0.50737  0.63896  1
 K  K5  1  0.28030  0.72484  0.39205  1
 K  K6  1  0.71970  0.22484  0.10795  1
 K  K7  1  0.71970  0.27516  0.60795  1
 K  K8  1  0.28030  0.77516  0.89205  1
 Li  Li1  1  0.38177  0.26154  0.79907  1
 Li  Li2  1  0.61823  0.76154  0.70093  1
 Li  Li3  1  0.61823  0.73846  0.20093  1
 Li  Li4  1  0.90706  0.53644  0.79647  1
 Li  Li5  1  0.09294  0.03644  0.70353  1
 Li  Li6  1  0.62595  0.00888  0.42922  1
 Li  Li7  1  0.90706  0.96356  0.29647  1
 Li  Li8  1  0.09294  0.46356  0.20353  1
 Li  Li9  1  0.62595  0.49112  0.92922  1
 Li  Li10  1  0.37405  0.99112  0.57078  1
 Li  Li11  1  0.37405  0.50888  0.07078  1
 Li  Li12  1  0.38177  0.23846  0.29907  1
 O  O1  1  0.74262  0.95080  0.62352  1
 O  O2  1  0.74393  0.32256  0.85691  1
 O  O3  1  0.25607  0.82256  0.64309  1
 O  O4  1  0.74393  0.17744  0.35691  1
 O  O5  1  0.23366  0.18933  0.62058  1
 O  O6  1  0.76634  0.68933  0.87942  1
 O  O7  1  0.25607  0.67744  0.14309  1
 O  O8  1  0.74262  0.54920  0.12352  1
 O  O9  1  0.77998  0.60661  0.61445  1
 O  O10  1  0.77998  0.89339  0.11445  1
 O  O11  1  0.22002  0.39339  0.38555  1
 O  O12  1  0.25738  0.04920  0.37648  1
 O  O13  1  0.22002  0.10661  0.88555  1
 O  O14  1  0.76634  0.81067  0.37942  1
 O  O15  1  0.23366  0.31067  0.12058  1
 O  O16  1  0.25738  0.45080  0.87648  1
