CIF file written using JARVIS-Tools package.
data_Te3W2Se
_symmetry_space_group_name_H-M  'P3m1'
_cell_length_a       3.49938
_cell_length_b       3.49936
_cell_length_c       39.5724
_cell_angle_alpha    90.0003
_cell_angle_beta     90
_cell_angle_gamma    120

_symmetry_Int_Tables_number  156
_chemical_formula_structural  Te3W2Se
_chemical_formula_sum  Te6W4Se2
_cell_volume  419.6643680479807
_cell_formula_units_Z  2
loop_
  _symmetry_equiv_pos_site_id
 _symmetry_equiv_pos_as_xyz
 1  'x, y, z'
loop_
 _atom_site_type_symbol
 _atom_site_label
 _atom_site_symmetry_multiplicity
 _atom_site_fract_x
 _atom_site_fract_y
 _atom_site_fract_z
 _atom_site_fract_occupancy
 Se  Se1  1  0.33336  0.66671  0.32286  1
 Se  Se2  1  0.33335  0.66671  0.24074  1
 Te  Te1  1  0.33336  0.66672  0.70403  1
 Te  Te2  1  0.66663  0.33327  0.04745  1
 Te  Te3  1  0.66665  0.33330  0.42291  1
 Te  Te4  1  0.66665  0.33329  0.14066  1
 Te  Te5  1  0.66665  0.33330  0.51632  1
 Te  Te6  1  0.33336  0.66671  0.61087  1
 W  W1  1  0.33330  0.66660  0.09386  1
 W  W2  1  0.33333  0.66666  0.46965  1
 W  W3  1  0.66669  0.33338  0.28180  1
 W  W4  1  0.66668  0.33336  0.65761  1
