CIF file written using JARVIS-Tools package.
data_TlCuPSe3
_symmetry_space_group_name_H-M  'P2_1/c'
_cell_length_a       7.66196
_cell_length_b       8.65198
_cell_length_c       9.24735
_cell_angle_alpha    90
_cell_angle_beta     90
_cell_angle_gamma    90.3988

_symmetry_Int_Tables_number  14
_chemical_formula_structural  TlCuPSe3
_chemical_formula_sum  Tl4Cu4P4Se2
_cell_volume  613.0023996007137
_cell_formula_units_Z  4
loop_
  _symmetry_equiv_pos_site_id
 _symmetry_equiv_pos_as_xyz
 1  'x, y, z'
loop_
 _atom_site_type_symbol
 _atom_site_label
 _atom_site_symmetry_multiplicity
 _atom_site_fract_x
 _atom_site_fract_y
 _atom_site_fract_z
 _atom_site_fract_occupancy
 Cu  Cu1  1  0.81900  0.73138  0.83443  1
 Cu  Cu2  1  0.31900  0.23138  0.66557  1
 Cu  Cu3  1  0.68100  0.76862  0.33443  1
 Cu  Cu4  1  0.18100  0.26862  0.16557  1
 P  P1  1  0.00202  0.93031  0.10408  1
 P  P2  1  0.49798  0.56969  0.60408  1
 P  P3  1  0.50202  0.43031  0.39592  1
 P  P4  1  0.99798  0.06969  0.89592  1
 Se  Se1  1  0.74167  0.49775  0.72160  1
 Se  Se2  1  0.73783  0.50792  0.26988  1
 Se  Se3  1  0.23783  0.00792  0.23012  1
 Se  Se4  1  0.01688  0.68838  0.02872  1
 Se  Se5  1  0.24167  0.99775  0.77840  1
 Se  Se6  1  0.25833  0.50225  0.27840  1
 Se  Se7  1  0.51688  0.18838  0.47128  1
 Se  Se8  1  0.48312  0.81162  0.52872  1
 Se  Se9  1  0.76217  0.99208  0.76988  1
 Se  Se10  1  0.26217  0.49208  0.73012  1
 Se  Se11  1  0.75833  0.00225  0.22160  1
 Se  Se12  1  0.98312  0.31162  0.97128  1
 Tl  Tl1  1  0.04289  0.75443  0.52622  1
 Tl  Tl2  1  0.95711  0.24557  0.47378  1
 Tl  Tl3  1  0.54289  0.25443  0.97378  1
 Tl  Tl4  1  0.45711  0.74557  0.02622  1
