CIF file written using JARVIS-Tools package.
data_KAlF4
_symmetry_space_group_name_H-M  'P2_1/m'
_cell_length_a       6.44514
_cell_length_b       7.29031
_cell_length_c       7.38092
_cell_angle_alpha    90
_cell_angle_beta     106.707
_cell_angle_gamma    90

_symmetry_Int_Tables_number  11
_chemical_formula_structural  KAlF4
_chemical_formula_sum  K4Al4F6
_cell_volume  332.1674637009626
_cell_formula_units_Z  4
loop_
  _symmetry_equiv_pos_site_id
 _symmetry_equiv_pos_as_xyz
 1  'x, y, z'
loop_
 _atom_site_type_symbol
 _atom_site_label
 _atom_site_symmetry_multiplicity
 _atom_site_fract_x
 _atom_site_fract_y
 _atom_site_fract_z
 _atom_site_fract_occupancy
 Al  Al1  1  0.00000  0.50000  0.00000  1
 Al  Al2  1  0.00000  0.00000  0.00000  1
 Al  Al3  1  -0.00000  0.00000  0.50000  1
 Al  Al4  1  -0.00000  0.50000  0.50000  1
 F  F1  1  0.99713  0.03408  0.74929  1
 F  F2  1  0.04710  0.25000  0.47917  1
 F  F3  1  0.71587  0.03983  0.93472  1
 F  F4  1  0.71412  0.46528  0.42296  1
 F  F5  1  0.28413  0.53983  0.06528  1
 F  F6  1  0.94588  0.75000  0.95446  1
 F  F7  1  0.71587  0.46017  0.93472  1
 F  F8  1  0.00287  0.53408  0.25071  1
 F  F9  1  0.05412  0.25000  0.04554  1
 F  F10  1  0.95290  0.75000  0.52083  1
 F  F11  1  0.28588  0.96528  0.57704  1
 F  F12  1  0.28413  0.96017  0.06528  1
 F  F13  1  0.99713  0.46592  0.74929  1
 F  F14  1  0.00287  0.96592  0.25071  1
 F  F15  1  0.71412  0.03472  0.42296  1
 F  F16  1  0.28588  0.53472  0.57704  1
 K  K1  1  0.45006  0.75000  0.36345  1
 K  K2  1  0.46501  0.75000  0.86543  1
 K  K3  1  0.54994  0.25000  0.63655  1
 K  K4  1  0.53499  0.25000  0.13457  1
