CIF file written using JARVIS-Tools package.
data_Ca3ZnGe5O14
_symmetry_space_group_name_H-M  'P321'
_cell_length_a       5.12734
_cell_length_b       8.06372
_cell_length_c       8.0656
_cell_angle_alpha    119.992
_cell_angle_beta     90.0101
_cell_angle_gamma    90

_symmetry_Int_Tables_number  150
_chemical_formula_structural  Ca3ZnGe5O14
_chemical_formula_sum  Ca3ZnGe5O4
_cell_volume  288.82088559549504
_cell_formula_units_Z  1
loop_
  _symmetry_equiv_pos_site_id
 _symmetry_equiv_pos_as_xyz
 1  'x, y, z'
loop_
 _atom_site_type_symbol
 _atom_site_label
 _atom_site_symmetry_multiplicity
 _atom_site_fract_x
 _atom_site_fract_y
 _atom_site_fract_z
 _atom_site_fract_occupancy
 Ca  Ca1  1  0.00000  0.72964  -0.00000  1
 Ca  Ca2  1  -0.00003  0.89847  0.58446  1
 Ca  Ca3  1  0.00003  0.31400  0.41554  1
 Ge  Ge1  1  0.49983  0.55231  0.23843  1
 Ge  Ge2  1  0.50017  0.31388  0.76157  1
 Ge  Ge3  1  0.47724  0.64733  0.66670  1
 Ge  Ge4  1  0.52276  0.98062  0.33330  1
 Ge  Ge5  1  0.50000  0.07575  -0.00000  1
 O  O1  1  0.74159  0.39519  0.23179  1
 O  O2  1  0.25841  0.16340  0.76821  1
 O  O3  1  0.31167  0.63545  0.46331  1
 O  O4  1  0.31185  0.45566  0.67845  1
 O  O5  1  0.31184  0.85073  0.85824  1
 O  O6  1  0.68815  0.77722  0.32155  1
 O  O7  1  0.18496  0.98076  0.33341  1
 O  O8  1  0.25820  0.23269  0.15056  1
 O  O9  1  0.81504  0.64734  0.66659  1
 O  O10  1  0.68816  0.99248  0.14176  1
 O  O11  1  0.25820  0.54602  0.08141  1
 O  O12  1  0.74180  0.46461  0.91859  1
 O  O13  1  0.74180  0.08212  0.84944  1
 O  O14  1  0.68833  0.17214  0.53669  1
 Zn  Zn1  1  0.00000  0.31409  -0.00000  1
