CIF file written using JARVIS-Tools package.
data_SrCu
_symmetry_space_group_name_H-M  'P6_3/mmc'
_cell_length_a       4.33141
_cell_length_b       4.33141
_cell_length_c       15.2207
_cell_angle_alpha    90
_cell_angle_beta     90
_cell_angle_gamma    120

_symmetry_Int_Tables_number  194
_chemical_formula_structural  SrCu
_chemical_formula_sum  Sr4Cu4
_cell_volume  247.2999297428985
_cell_formula_units_Z  4
loop_
  _symmetry_equiv_pos_site_id
 _symmetry_equiv_pos_as_xyz
 1  'x, y, z'
loop_
 _atom_site_type_symbol
 _atom_site_label
 _atom_site_symmetry_multiplicity
 _atom_site_fract_x
 _atom_site_fract_y
 _atom_site_fract_z
 _atom_site_fract_occupancy
 Cu  Cu1  1  0.66667  0.33333  0.75000  1
 Cu  Cu2  1  0.33333  0.66667  0.25000  1
 Cu  Cu3  1  0.00000  0.00000  0.75000  1
 Cu  Cu4  1  0.00000  0.00000  0.25000  1
 Sr  Sr1  1  0.66667  0.33333  0.38035  1
 Sr  Sr2  1  0.33333  0.66667  0.61965  1
 Sr  Sr3  1  0.33333  0.66667  0.88035  1
 Sr  Sr4  1  0.66667  0.33333  0.11965  1
