CIF file written using JARVIS-Tools package.
data_Bi2Te5Pb2
_symmetry_space_group_name_H-M  'P-3m1'
_cell_length_a       4.50703
_cell_length_b       4.50704
_cell_length_c       18.4408
_cell_angle_alpha    90
_cell_angle_beta     90
_cell_angle_gamma    120

_symmetry_Int_Tables_number  164
_chemical_formula_structural  Bi2Te5Pb2
_chemical_formula_sum  Bi2Te5Pb2
_cell_volume  324.40884870163524
_cell_formula_units_Z  1
loop_
  _symmetry_equiv_pos_site_id
 _symmetry_equiv_pos_as_xyz
 1  'x, y, z'
loop_
 _atom_site_type_symbol
 _atom_site_label
 _atom_site_symmetry_multiplicity
 _atom_site_fract_x
 _atom_site_fract_y
 _atom_site_fract_z
 _atom_site_fract_occupancy
 Bi  Bi1  1  0.33333  0.66667  0.10883  1
 Bi  Bi2  1  0.66667  0.33333  0.89117  1
 Pb  Pb1  1  0.00000  0.00000  0.33817  1
 Pb  Pb2  1  0.00000  0.00000  0.66183  1
 Te  Te1  1  0.66667  0.33333  0.57492  1
 Te  Te2  1  0.66667  0.33333  0.20147  1
 Te  Te3  1  0.33333  0.66667  0.79853  1
 Te  Te4  1  0.00000  0.00000  0.00000  1
 Te  Te5  1  0.33333  0.66667  0.42508  1
