CIF file written using JARVIS-Tools package.
data_KUCuS3
_symmetry_space_group_name_H-M  'Cmcm'
_cell_length_a       3.92092
_cell_length_b       7.17321
_cell_length_c       10.1836
_cell_angle_alpha    90
_cell_angle_beta     90
_cell_angle_gamma    105.861

_symmetry_Int_Tables_number  63
_chemical_formula_structural  KUCuS3
_chemical_formula_sum  K2U2Cu2S6
_cell_volume  275.51391108495625
_cell_formula_units_Z  2
loop_
  _symmetry_equiv_pos_site_id
 _symmetry_equiv_pos_as_xyz
 1  'x, y, z'
loop_
 _atom_site_type_symbol
 _atom_site_label
 _atom_site_symmetry_multiplicity
 _atom_site_fract_x
 _atom_site_fract_y
 _atom_site_fract_z
 _atom_site_fract_occupancy
 Cu  Cu1  1  0.46405  0.92809  0.75000  1
 Cu  Cu2  1  0.53595  0.07191  0.25000  1
 K  K1  1  0.25757  0.51513  0.25000  1
 K  K2  1  0.74243  0.48487  0.75000  1
 S  S1  1  0.37291  0.74583  0.55912  1
 S  S2  1  0.62709  0.25417  0.44088  1
 S  S3  1  0.62709  0.25417  0.05912  1
 S  S4  1  0.06270  0.12539  0.75000  1
 S  S5  1  0.93730  0.87461  0.25000  1
 S  S6  1  0.37291  0.74583  0.94088  1
 U  U1  1  0.00000  0.00000  0.50000  1
 U  U2  1  0.00000  0.00000  0.00000  1
