CIF file written using JARVIS-Tools package.
data_Te4Mo3WSe4
_symmetry_space_group_name_H-M  'P3m1'
_cell_length_a       3.44598
_cell_length_b       3.44597
_cell_length_c       36.1664
_cell_angle_alpha    90.0103
_cell_angle_beta     89.9976
_cell_angle_gamma    120

_symmetry_Int_Tables_number  156
_chemical_formula_structural  Te4Mo3WSe4
_chemical_formula_sum  Te4Mo3WSe4
_cell_volume  371.93039836119027
_cell_formula_units_Z  1
loop_
  _symmetry_equiv_pos_site_id
 _symmetry_equiv_pos_as_xyz
 1  'x, y, z'
loop_
 _atom_site_type_symbol
 _atom_site_label
 _atom_site_symmetry_multiplicity
 _atom_site_fract_x
 _atom_site_fract_y
 _atom_site_fract_z
 _atom_site_fract_occupancy
 Mo  Mo1  1  0.33337  0.66675  0.09148  1
 Mo  Mo2  1  0.33334  0.66669  0.47047  1
 Mo  Mo3  1  0.66665  0.33326  0.66000  1
 Se  Se1  1  0.66666  0.33330  0.04633  1
 Se  Se2  1  0.66664  0.33326  0.42526  1
 Se  Se3  1  0.66674  0.33354  0.13671  1
 Se  Se4  1  0.66671  0.33347  0.51570  1
 Te  Te1  1  0.33336  0.66677  0.33261  1
 Te  Te2  1  0.33335  0.66672  0.71133  1
 Te  Te3  1  0.33327  0.66650  0.22931  1
 Te  Te4  1  0.33327  0.66646  0.60860  1
 W  W1  1  0.66664  0.33329  0.28096  1
