CIF file written using JARVIS-Tools package.
data_SmNi2Sn2
_symmetry_space_group_name_H-M  'I4/mmm'
_cell_length_a       4.40207
_cell_length_b       4.40208
_cell_length_c       6.08707
_cell_angle_alpha    111.198
_cell_angle_beta     111.198
_cell_angle_gamma    90

_symmetry_Int_Tables_number  139
_chemical_formula_structural  SmNi2Sn2
_chemical_formula_sum  SmNi2Sn2
_cell_volume  101.36734963674984
_cell_formula_units_Z  1
loop_
  _symmetry_equiv_pos_site_id
 _symmetry_equiv_pos_as_xyz
 1  'x, y, z'
loop_
 _atom_site_type_symbol
 _atom_site_label
 _atom_site_symmetry_multiplicity
 _atom_site_fract_x
 _atom_site_fract_y
 _atom_site_fract_z
 _atom_site_fract_occupancy
 Ni  Ni1  1  0.75000  0.25000  0.50000  1
 Ni  Ni2  1  0.25000  0.75000  0.50000  1
 Sm  Sm1  1  0.00000  0.00000  0.00000  1
 Sn  Sn1  1  0.36456  0.36456  0.72911  1
 Sn  Sn2  1  0.63544  0.63544  0.27089  1
