CIF file written using JARVIS-Tools package.
data_Pr3Co11B4
_symmetry_space_group_name_H-M  'P6/mmm'
_cell_length_a       5.14283
_cell_length_b       5.14283
_cell_length_c       9.76237
_cell_angle_alpha    90
_cell_angle_beta     90
_cell_angle_gamma    120

_symmetry_Int_Tables_number  191
_chemical_formula_structural  Pr3Co11B4
_chemical_formula_sum  Pr3CoB4
_cell_volume  223.60901828378138
_cell_formula_units_Z  1
loop_
  _symmetry_equiv_pos_site_id
 _symmetry_equiv_pos_as_xyz
 1  'x, y, z'
loop_
 _atom_site_type_symbol
 _atom_site_label
 _atom_site_symmetry_multiplicity
 _atom_site_fract_x
 _atom_site_fract_y
 _atom_site_fract_z
 _atom_site_fract_occupancy
 B  B1  1  0.33333  0.66667  0.65081  1
 B  B2  1  0.66667  0.33333  0.34919  1
 B  B3  1  0.33333  0.66667  0.34919  1
 B  B4  1  0.66667  0.33333  0.65081  1
 Co  Co1  1  0.50000  0.50000  0.50000  1
 Co  Co2  1  0.50000  -0.00000  0.50000  1
 Co  Co3  1  -0.00000  0.50000  0.79677  1
 Co  Co4  1  0.50000  0.50000  0.79677  1
 Co  Co5  1  0.50000  -0.00000  0.79677  1
 Co  Co6  1  -0.00000  0.50000  0.20323  1
 Co  Co7  1  0.50000  -0.00000  0.20323  1
 Co  Co8  1  0.33333  0.66667  0.00000  1
 Co  Co9  1  0.66667  0.33333  0.00000  1
 Co  Co10  1  -0.00000  0.50000  0.50000  1
 Co  Co11  1  0.50000  0.50000  0.20323  1
 Pr  Pr1  1  0.00000  0.00000  0.00000  1
 Pr  Pr2  1  0.00000  0.00000  0.65927  1
 Pr  Pr3  1  0.00000  0.00000  0.34073  1
