CIF file written using JARVIS-Tools package.
data_TbCl3
_symmetry_space_group_name_H-M  'P4_2/mnm'
_cell_length_a       6.35229
_cell_length_b       6.35229
_cell_length_c       11.602
_cell_angle_alpha    90
_cell_angle_beta     90
_cell_angle_gamma    90

_symmetry_Int_Tables_number  136
_chemical_formula_structural  TbCl3
_chemical_formula_sum  Tb4Cl2
_cell_volume  468.15841796857677
_cell_formula_units_Z  4
loop_
  _symmetry_equiv_pos_site_id
 _symmetry_equiv_pos_as_xyz
 1  'x, y, z'
loop_
 _atom_site_type_symbol
 _atom_site_label
 _atom_site_symmetry_multiplicity
 _atom_site_fract_x
 _atom_site_fract_y
 _atom_site_fract_z
 _atom_site_fract_occupancy
 Cl  Cl1  1  0.79591  0.20409  0.83649  1
 Cl  Cl2  1  0.19713  0.80287  0.50000  1
 Cl  Cl3  1  0.70409  0.70409  0.33649  1
 Cl  Cl4  1  0.80287  0.19713  0.50000  1
 Cl  Cl5  1  0.20409  0.79591  0.16351  1
 Cl  Cl6  1  0.29591  0.29591  0.66351  1
 Cl  Cl7  1  0.20409  0.79591  0.83649  1
 Cl  Cl8  1  0.79591  0.20409  0.16351  1
 Cl  Cl9  1  0.30287  0.30287  0.00000  1
 Cl  Cl10  1  0.29591  0.29591  0.33649  1
 Cl  Cl11  1  0.69713  0.69713  0.00000  1
 Cl  Cl12  1  0.70409  0.70409  0.66351  1
 Tb  Tb1  1  0.00000  0.00000  0.67167  1
 Tb  Tb2  1  0.00000  0.00000  0.32833  1
 Tb  Tb3  1  0.50000  0.50000  0.82833  1
 Tb  Tb4  1  0.50000  0.50000  0.17167  1
