CIF file written using JARVIS-Tools package.
data_CoPPd
_symmetry_space_group_name_H-M  'P4/nmm'
_cell_length_a       3.62198
_cell_length_b       3.62198
_cell_length_c       5.85819
_cell_angle_alpha    90
_cell_angle_beta     90
_cell_angle_gamma    90

_symmetry_Int_Tables_number  129
_chemical_formula_structural  CoPPd
_chemical_formula_sum  Co2P2Pd2
_cell_volume  76.851904252076
_cell_formula_units_Z  2
loop_
  _symmetry_equiv_pos_site_id
 _symmetry_equiv_pos_as_xyz
 1  'x, y, z'
loop_
 _atom_site_type_symbol
 _atom_site_label
 _atom_site_symmetry_multiplicity
 _atom_site_fract_x
 _atom_site_fract_y
 _atom_site_fract_z
 _atom_site_fract_occupancy
 Co  Co1  1  0.50000  0.50000  0.00000  1
 Co  Co2  1  0.00000  0.00000  0.00000  1
 P  P1  1  0.50000  0.00000  0.77944  1
 P  P2  1  0.00000  0.50000  0.22056  1
 Pd  Pd1  1  0.50000  0.00000  0.38027  1
 Pd  Pd2  1  0.00000  0.50000  0.61973  1
