CIF file written using JARVIS-Tools package.
data_AgSO4
_symmetry_space_group_name_H-M  'P-1'
_cell_length_a       4.79319
_cell_length_b       4.63373
_cell_length_c       8.37988
_cell_angle_alpha    83.1473
_cell_angle_beta     72.4283
_cell_angle_gamma    67.4079

_symmetry_Int_Tables_number  2
_chemical_formula_structural  AgSO4
_chemical_formula_sum  Ag2S2O8
_cell_volume  163.81856595945501
_cell_formula_units_Z  2
loop_
  _symmetry_equiv_pos_site_id
 _symmetry_equiv_pos_as_xyz
 1  'x, y, z'
loop_
 _atom_site_type_symbol
 _atom_site_label
 _atom_site_symmetry_multiplicity
 _atom_site_fract_x
 _atom_site_fract_y
 _atom_site_fract_z
 _atom_site_fract_occupancy
 Ag  Ag1  1  0.00000  0.00000  0.00000  1
 Ag  Ag2  1  0.50000  0.50000  0.50000  1
 O  O1  1  0.75657  0.75890  0.91351  1
 O  O2  1  0.07282  0.25726  0.76900  1
 O  O3  1  0.54633  0.58701  0.73939  1
 O  O4  1  0.00058  0.73118  0.60803  1
 O  O5  1  -0.00058  0.26882  0.39197  1
 O  O6  1  0.45367  0.41299  0.26061  1
 O  O7  1  0.92718  0.74274  0.23100  1
 O  O8  1  0.24343  0.24110  0.08649  1
 S  S1  1  0.84774  0.58287  0.75808  1
 S  S2  1  0.15226  0.41713  0.24192  1
