CIF file written using JARVIS-Tools package.
data_HfI4
_symmetry_space_group_name_H-M  'C2/c'
_cell_length_a       8.36665
_cell_length_b       8.36665
_cell_length_c       12.9298
_cell_angle_alpha    108.356
_cell_angle_beta     108.356
_cell_angle_gamma    90.0483

_symmetry_Int_Tables_number  15
_chemical_formula_structural  HfI4
_chemical_formula_sum  Hf4I6
_cell_volume  810.2934178449142
_cell_formula_units_Z  4
loop_
  _symmetry_equiv_pos_site_id
 _symmetry_equiv_pos_as_xyz
 1  'x, y, z'
loop_
 _atom_site_type_symbol
 _atom_site_label
 _atom_site_symmetry_multiplicity
 _atom_site_fract_x
 _atom_site_fract_y
 _atom_site_fract_z
 _atom_site_fract_occupancy
 Hf  Hf1  1  0.21761  0.93833  0.62479  1
 Hf  Hf2  1  0.93833  0.21761  0.12479  1
 Hf  Hf3  1  0.78239  0.06167  0.37521  1
 Hf  Hf4  1  0.06167  0.78239  0.87521  1
 I  I1  1  0.17944  0.94731  0.12035  1
 I  I2  1  0.70811  0.94317  0.12972  1
 I  I3  1  0.05683  0.29189  0.37028  1
 I  I4  1  0.18610  0.43505  0.13520  1
 I  I5  1  0.56495  0.81390  0.36480  1
 I  I6  1  0.94731  0.17944  0.62035  1
 I  I7  1  0.29189  0.05683  0.87028  1
 I  I8  1  0.81390  0.56495  0.86480  1
 I  I9  1  0.57960  0.31279  0.38457  1
 I  I10  1  0.43505  0.18610  0.63520  1
 I  I11  1  0.31279  0.57960  0.88457  1
 I  I12  1  0.68721  0.42040  0.11543  1
 I  I13  1  0.82056  0.05269  0.87965  1
 I  I14  1  0.42040  0.68721  0.61543  1
 I  I15  1  0.05269  0.82056  0.37965  1
 I  I16  1  0.94317  0.70811  0.62972  1
