CIF file written using JARVIS-Tools package.
data_DyGeRu
_symmetry_space_group_name_H-M  'Pnma'
_cell_length_a       4.43524
_cell_length_b       7.01511
_cell_length_c       7.22685
_cell_angle_alpha    90
_cell_angle_beta     90
_cell_angle_gamma    90

_symmetry_Int_Tables_number  62
_chemical_formula_structural  DyGeRu
_chemical_formula_sum  Dy4Ge4Ru4
_cell_volume  224.8537312184222
_cell_formula_units_Z  4
loop_
  _symmetry_equiv_pos_site_id
 _symmetry_equiv_pos_as_xyz
 1  'x, y, z'
loop_
 _atom_site_type_symbol
 _atom_site_label
 _atom_site_symmetry_multiplicity
 _atom_site_fract_x
 _atom_site_fract_y
 _atom_site_fract_z
 _atom_site_fract_occupancy
 Dy  Dy1  1  0.25000  0.98469  0.80841  1
 Dy  Dy2  1  0.75000  0.01531  0.19159  1
 Dy  Dy3  1  0.25000  0.48469  0.69159  1
 Dy  Dy4  1  0.75000  0.51531  0.30841  1
 Ge  Ge1  1  0.25000  0.29682  0.10618  1
 Ge  Ge2  1  0.75000  0.70318  0.89382  1
 Ge  Ge3  1  0.25000  0.79682  0.39382  1
 Ge  Ge4  1  0.75000  0.20318  0.60618  1
 Ru  Ru1  1  0.75000  0.84388  0.56385  1
 Ru  Ru2  1  0.25000  0.15612  0.43615  1
 Ru  Ru3  1  0.75000  0.34388  0.93615  1
 Ru  Ru4  1  0.25000  0.65612  0.06385  1
