CIF file written using JARVIS-Tools package.
data_Sb2TeSe2
_symmetry_space_group_name_H-M  'R-3m'
_cell_length_a       10.0753
_cell_length_b       10.0753
_cell_length_c       10.0753
_cell_angle_alpha    23.9234
_cell_angle_beta     23.9234
_cell_angle_gamma    23.9234

_symmetry_Int_Tables_number  166
_chemical_formula_structural  Sb2TeSe2
_chemical_formula_sum  Sb2TeSe2
_cell_volume  147.76843434640122
_cell_formula_units_Z  1
loop_
  _symmetry_equiv_pos_site_id
 _symmetry_equiv_pos_as_xyz
 1  'x, y, z'
loop_
 _atom_site_type_symbol
 _atom_site_label
 _atom_site_symmetry_multiplicity
 _atom_site_fract_x
 _atom_site_fract_y
 _atom_site_fract_z
 _atom_site_fract_occupancy
 Sb  Sb1  1  0.59565  0.59565  0.59565  1
 Sb  Sb2  1  0.40435  0.40435  0.40435  1
 Se  Se1  1  0.21086  0.21086  0.21086  1
 Se  Se2  1  0.78914  0.78914  0.78914  1
 Te  Te1  1  0.00000  0.00000  0.00000  1
