CIF file written using JARVIS-Tools package.
data_Ti2NiSe4
_symmetry_space_group_name_H-M  'C2/m'
_cell_length_a       3.5812
_cell_length_b       6.18126
_cell_length_c       6.89069
_cell_angle_alpha    116.285
_cell_angle_beta     105.062
_cell_angle_gamma    90

_symmetry_Int_Tables_number  12
_chemical_formula_structural  Ti2NiSe4
_chemical_formula_sum  Ti2NiSe4
_cell_volume  130.89254186633403
_cell_formula_units_Z  1
loop_
  _symmetry_equiv_pos_site_id
 _symmetry_equiv_pos_as_xyz
 1  'x, y, z'
loop_
 _atom_site_type_symbol
 _atom_site_label
 _atom_site_symmetry_multiplicity
 _atom_site_fract_x
 _atom_site_fract_y
 _atom_site_fract_z
 _atom_site_fract_occupancy
 Ni  Ni1  1  0.00000  0.00000  0.00000  1
 Se  Se1  1  0.11687  0.45280  0.23373  1
 Se  Se2  1  0.88313  0.54720  0.76627  1
 Se  Se3  1  0.37811  0.04498  0.75622  1
 Se  Se4  1  0.62189  0.95502  0.24378  1
 Ti  Ti1  1  0.25147  0.26255  0.50293  1
 Ti  Ti2  1  0.74853  0.73745  0.49707  1
