CIF file written using JARVIS-Tools package.
data_YCu2S2
_symmetry_space_group_name_H-M  'P-3m1'
_cell_length_a       3.95234
_cell_length_b       3.95235
_cell_length_c       6.40133
_cell_angle_alpha    89.9384
_cell_angle_beta     90.0616
_cell_angle_gamma    119.991

_symmetry_Int_Tables_number  164
_chemical_formula_structural  YCu2S2
_chemical_formula_sum  YCu2S2
_cell_volume  86.60650587648158
_cell_formula_units_Z  1
loop_
  _symmetry_equiv_pos_site_id
 _symmetry_equiv_pos_as_xyz
 1  'x, y, z'
loop_
 _atom_site_type_symbol
 _atom_site_label
 _atom_site_symmetry_multiplicity
 _atom_site_fract_x
 _atom_site_fract_y
 _atom_site_fract_z
 _atom_site_fract_occupancy
 Cu  Cu1  1  0.66623  0.33377  0.66895  1
 Cu  Cu2  1  0.33377  0.66623  0.33105  1
 S  S1  1  0.66697  0.33303  0.26738  1
 S  S2  1  0.33303  0.66697  0.73262  1
 Y  Y1  1  0.00000  0.00000  0.00000  1
