CIF file written using JARVIS-Tools package.
data_PmAl3
_symmetry_space_group_name_H-M  'P6_3/mmc'
_cell_length_a       6.48556
_cell_length_b       6.48556
_cell_length_c       4.61458
_cell_angle_alpha    90
_cell_angle_beta     90
_cell_angle_gamma    120

_symmetry_Int_Tables_number  194
_chemical_formula_structural  PmAl3
_chemical_formula_sum  Pm2Al6
_cell_volume  168.09628924899351
_cell_formula_units_Z  2
loop_
  _symmetry_equiv_pos_site_id
 _symmetry_equiv_pos_as_xyz
 1  'x, y, z'
loop_
 _atom_site_type_symbol
 _atom_site_label
 _atom_site_symmetry_multiplicity
 _atom_site_fract_x
 _atom_site_fract_y
 _atom_site_fract_z
 _atom_site_fract_occupancy
 Al  Al1  1  0.85712  0.14288  0.25000  1
 Al  Al2  1  0.85712  0.71423  0.25000  1
 Al  Al3  1  0.28577  0.14288  0.25000  1
 Al  Al4  1  0.14288  0.85712  0.75000  1
 Al  Al5  1  0.14288  0.28577  0.75000  1
 Al  Al6  1  0.71423  0.85712  0.75000  1
 Pm  Pm1  1  0.66667  0.33333  0.75000  1
 Pm  Pm2  1  0.33333  0.66667  0.25000  1
