CIF file written using JARVIS-Tools package.
data_Te4MoW3Se4
_symmetry_space_group_name_H-M  'Cm'
_cell_length_a       3.44585
_cell_length_b       3.44595
_cell_length_c       35.2051
_cell_angle_alpha    89.9984
_cell_angle_beta     90
_cell_angle_gamma    119.999

_symmetry_Int_Tables_number  8
_chemical_formula_structural  Te4MoW3Se4
_chemical_formula_sum  Te4MoW3Se4
_cell_volume  362.0309945716674
_cell_formula_units_Z  1
loop_
  _symmetry_equiv_pos_site_id
 _symmetry_equiv_pos_as_xyz
 1  'x, y, z'
loop_
 _atom_site_type_symbol
 _atom_site_label
 _atom_site_symmetry_multiplicity
 _atom_site_fract_x
 _atom_site_fract_y
 _atom_site_fract_z
 _atom_site_fract_occupancy
 Mo  Mo1  1  0.33137  0.66274  0.08282  1
 Se  Se1  1  0.66468  0.32936  0.03642  1
 Se  Se2  1  0.66913  0.33826  0.42686  1
 Se  Se3  1  0.66470  0.32941  0.12930  1
 Se  Se4  1  0.66899  0.33798  0.52014  1
 Te  Te1  1  0.33487  0.66975  0.33077  1
 Te  Te2  1  0.33142  0.66283  0.72186  1
 Te  Te3  1  0.33444  0.66889  0.22466  1
 Te  Te4  1  0.33175  0.66351  0.61582  1
 W  W1  1  0.33573  0.67147  0.47350  1
 W  W2  1  0.66799  0.33599  0.27772  1
 W  W3  1  0.66491  0.32982  0.66888  1
