CIF file written using JARVIS-Tools package.
data_Te2MoW2Se4
_symmetry_space_group_name_H-M  'Cm'
_cell_length_a       3.40195
_cell_length_b       3.40194
_cell_length_c       20.5049
_cell_angle_alpha    85.1854
_cell_angle_beta     90.0081
_cell_angle_gamma    120

_symmetry_Int_Tables_number  8
_chemical_formula_structural  Te2MoW2Se4
_chemical_formula_sum  Te2MoW2Se4
_cell_volume  204.54881088653354
_cell_formula_units_Z  1
loop_
  _symmetry_equiv_pos_site_id
 _symmetry_equiv_pos_as_xyz
 1  'x, y, z'
loop_
 _atom_site_type_symbol
 _atom_site_label
 _atom_site_symmetry_multiplicity
 _atom_site_fract_x
 _atom_site_fract_y
 _atom_site_fract_z
 _atom_site_fract_occupancy
 Mo  Mo1  1  0.44460  0.88842  0.01379  1
 Se  Se1  1  0.30328  0.60624  0.43429  1
 Se  Se2  1  0.58543  0.17196  0.59286  1
 Se  Se3  1  0.53092  0.06265  0.75495  1
 Se  Se4  1  0.35781  0.71558  0.27217  1
 Te  Te1  1  0.80885  0.61710  0.92187  1
 Te  Te2  1  0.74700  0.49304  0.10572  1
 W  W1  1  0.22484  0.45063  0.67392  1
 W  W2  1  0.66387  0.32756  0.35325  1
