CIF file written using JARVIS-Tools package.
data_PrP2Ru2
_symmetry_space_group_name_H-M  'I4/mmm'
_cell_length_a       4.05744
_cell_length_b       4.05743
_cell_length_c       6.03171
_cell_angle_alpha    109.654
_cell_angle_beta     109.654
_cell_angle_gamma    90

_symmetry_Int_Tables_number  139
_chemical_formula_structural  PrP2Ru2
_chemical_formula_sum  PrP2Ru2
_cell_volume  87.34594347512738
_cell_formula_units_Z  1
loop_
  _symmetry_equiv_pos_site_id
 _symmetry_equiv_pos_as_xyz
 1  'x, y, z'
loop_
 _atom_site_type_symbol
 _atom_site_label
 _atom_site_symmetry_multiplicity
 _atom_site_fract_x
 _atom_site_fract_y
 _atom_site_fract_z
 _atom_site_fract_occupancy
 P  P1  1  0.36071  0.36071  0.72142  1
 P  P2  1  0.63929  0.63929  0.27858  1
 Pr  Pr1  1  0.00000  0.00000  0.00000  1
 Ru  Ru1  1  0.25000  0.75000  0.50000  1
 Ru  Ru2  1  0.75000  0.25000  0.50000  1
