CIF file written using JARVIS-Tools package.
data_Sr3CrN3
_symmetry_space_group_name_H-M  'P6_3/m'
_cell_length_a       7.74054
_cell_length_b       7.74054
_cell_length_c       5.2436
_cell_angle_alpha    90
_cell_angle_beta     90
_cell_angle_gamma    120

_symmetry_Int_Tables_number  176
_chemical_formula_structural  Sr3CrN3
_chemical_formula_sum  Sr6Cr2N6
_cell_volume  272.0830846671862
_cell_formula_units_Z  2
loop_
  _symmetry_equiv_pos_site_id
 _symmetry_equiv_pos_as_xyz
 1  'x, y, z'
loop_
 _atom_site_type_symbol
 _atom_site_label
 _atom_site_symmetry_multiplicity
 _atom_site_fract_x
 _atom_site_fract_y
 _atom_site_fract_z
 _atom_site_fract_occupancy
 Cr  Cr1  1  0.33333  0.66667  0.25000  1
 Cr  Cr2  1  0.66667  0.33333  0.75000  1
 N  N1  1  0.88068  0.31465  0.75000  1
 N  N2  1  0.31465  0.43397  0.25000  1
 N  N3  1  0.56603  0.88068  0.25000  1
 N  N4  1  0.43397  0.11932  0.75000  1
 N  N5  1  0.68535  0.56603  0.75000  1
 N  N6  1  0.11932  0.68535  0.25000  1
 Sr  Sr1  1  0.91343  0.27076  0.25000  1
 Sr  Sr2  1  0.27076  0.35733  0.75000  1
 Sr  Sr3  1  0.64267  0.91343  0.75000  1
 Sr  Sr4  1  0.35733  0.08657  0.25000  1
 Sr  Sr5  1  0.72924  0.64267  0.25000  1
 Sr  Sr6  1  0.08657  0.72924  0.75000  1
