CIF file written using JARVIS-Tools package.
data_Mo3P
_symmetry_space_group_name_H-M  'I-42m'
_cell_length_a       4.85039
_cell_length_b       7.38239
_cell_length_c       7.38239
_cell_angle_alpha    83.8046
_cell_angle_beta     70.8215
_cell_angle_gamma    70.8216

_symmetry_Int_Tables_number  121
_chemical_formula_structural  Mo3P
_chemical_formula_sum  Mo2P4
_cell_volume  235.81733403361125
_cell_formula_units_Z  4
loop_
  _symmetry_equiv_pos_site_id
 _symmetry_equiv_pos_as_xyz
 1  'x, y, z'
loop_
 _atom_site_type_symbol
 _atom_site_label
 _atom_site_symmetry_multiplicity
 _atom_site_fract_x
 _atom_site_fract_y
 _atom_site_fract_z
 _atom_site_fract_occupancy
 Mo  Mo1  1  0.46769  0.00000  0.59802  1
 Mo  Mo2  1  0.93430  0.59802  -0.00000  1
 Mo  Mo3  1  0.53231  0.40198  -0.00000  1
 Mo  Mo4  1  0.06570  0.00000  0.40198  1
 Mo  Mo5  1  0.35434  0.64566  0.64566  1
 Mo  Mo6  1  0.00000  0.64566  0.35434  1
 Mo  Mo7  1  -0.00000  0.35434  0.64566  1
 Mo  Mo8  1  0.64566  0.35434  0.35434  1
 Mo  Mo9  1  0.67590  0.00000  0.18477  1
 Mo  Mo10  1  0.13933  0.18477  0.00000  1
 Mo  Mo11  1  0.32410  0.81523  -0.00000  1
 Mo  Mo12  1  0.86067  -0.00000  0.81523  1
 P  P1  1  0.20825  0.29175  0.29175  1
 P  P2  1  0.50000  0.29175  0.70825  1
 P  P3  1  0.50000  0.70825  0.29175  1
 P  P4  1  0.79175  0.70825  0.70825  1
