CIF file written using JARVIS-Tools package.
data_Mn2O3
_symmetry_space_group_name_H-M  'Cmcm'
_cell_length_a       2.97158
_cell_length_b       5.19546
_cell_length_c       14.7674
_cell_angle_alpha    90
_cell_angle_beta     90
_cell_angle_gamma    106.617

_symmetry_Int_Tables_number  63
_chemical_formula_structural  Mn2O3
_chemical_formula_sum  Mn8O2
_cell_volume  218.4690559746262
_cell_formula_units_Z  4
loop_
  _symmetry_equiv_pos_site_id
 _symmetry_equiv_pos_as_xyz
 1  'x, y, z'
loop_
 _atom_site_type_symbol
 _atom_site_label
 _atom_site_symmetry_multiplicity
 _atom_site_fract_x
 _atom_site_fract_y
 _atom_site_fract_z
 _atom_site_fract_occupancy
 Mn  Mn1  1  0.86431  0.72862  0.04938  1
 Mn  Mn2  1  0.13569  0.27138  0.95062  1
 Mn  Mn3  1  0.86431  0.72862  0.45062  1
 Mn  Mn4  1  0.13569  0.27138  0.54938  1
 Mn  Mn5  1  0.40484  0.80967  0.64077  1
 Mn  Mn6  1  0.59516  0.19033  0.35923  1
 Mn  Mn7  1  0.59516  0.19033  0.14077  1
 Mn  Mn8  1  0.40484  0.80967  0.85923  1
 O  O1  1  0.50000  0.00000  0.50000  1
 O  O2  1  0.32568  0.65135  0.75000  1
 O  O3  1  0.02590  0.05180  0.84644  1
 O  O4  1  0.97410  0.94820  0.15356  1
 O  O5  1  0.50000  0.00000  0.00000  1
 O  O6  1  0.21731  0.43462  0.42227  1
 O  O7  1  0.78269  0.56538  0.92227  1
 O  O8  1  0.21731  0.43462  0.07773  1
 O  O9  1  0.97410  0.94820  0.34644  1
 O  O10  1  0.78269  0.56538  0.57773  1
 O  O11  1  0.02590  0.05180  0.65356  1
 O  O12  1  0.67432  0.34865  0.25000  1
