CIF file written using JARVIS-Tools package.
data_CuTeO3
_symmetry_space_group_name_H-M  'P2_1/c'
_cell_length_a       5.07127
_cell_length_b       9.36805
_cell_length_c       7.59972
_cell_angle_alpha    90
_cell_angle_beta     128.362
_cell_angle_gamma    90

_symmetry_Int_Tables_number  14
_chemical_formula_structural  CuTeO3
_chemical_formula_sum  Cu4Te4O2
_cell_volume  283.0979268423868
_cell_formula_units_Z  4
loop_
  _symmetry_equiv_pos_site_id
 _symmetry_equiv_pos_as_xyz
 1  'x, y, z'
loop_
 _atom_site_type_symbol
 _atom_site_label
 _atom_site_symmetry_multiplicity
 _atom_site_fract_x
 _atom_site_fract_y
 _atom_site_fract_z
 _atom_site_fract_occupancy
 Cu  Cu1  1  0.61742  0.48717  0.35609  1
 Cu  Cu2  1  0.61742  0.01283  0.85609  1
 Cu  Cu3  1  0.38258  0.51283  0.64391  1
 Cu  Cu4  1  0.38258  0.98717  0.14391  1
 O  O1  1  0.41246  0.86498  0.35794  1
 O  O2  1  0.41246  0.63502  0.85794  1
 O  O3  1  0.84688  0.65102  0.34643  1
 O  O4  1  0.67532  0.89359  0.09025  1
 O  O5  1  0.32468  0.39359  0.40975  1
 O  O6  1  0.84688  0.84898  0.84643  1
 O  O7  1  0.58754  0.36498  0.14206  1
 O  O8  1  0.32468  0.10641  0.90975  1
 O  O9  1  0.15312  0.15102  0.15357  1
 O  O10  1  0.67532  0.60641  0.59025  1
 O  O11  1  0.58754  0.13502  0.64206  1
 O  O12  1  0.15312  0.34898  0.65357  1
 Te  Te1  1  0.85297  0.70744  0.09308  1
 Te  Te2  1  0.14703  0.29256  0.90692  1
 Te  Te3  1  0.14703  0.20744  0.40692  1
 Te  Te4  1  0.85297  0.79256  0.59308  1
