CIF file written using JARVIS-Tools package.
data_SrPIr
_symmetry_space_group_name_H-M  'P2_13'
_cell_length_a       6.37561
_cell_length_b       6.37561
_cell_length_c       6.37561
_cell_angle_alpha    90
_cell_angle_beta     90
_cell_angle_gamma    90

_symmetry_Int_Tables_number  198
_chemical_formula_structural  SrPIr
_chemical_formula_sum  Sr4P4Ir4
_cell_volume  259.1580762820338
_cell_formula_units_Z  4
loop_
  _symmetry_equiv_pos_site_id
 _symmetry_equiv_pos_as_xyz
 1  'x, y, z'
loop_
 _atom_site_type_symbol
 _atom_site_label
 _atom_site_symmetry_multiplicity
 _atom_site_fract_x
 _atom_site_fract_y
 _atom_site_fract_z
 _atom_site_fract_occupancy
 Ir  Ir1  1  0.59017  0.90983  0.09017  1
 Ir  Ir2  1  0.09017  0.59017  0.90983  1
 Ir  Ir3  1  0.40983  0.40983  0.40983  1
 Ir  Ir4  1  0.90983  0.09017  0.59017  1
 P  P1  1  0.16285  0.33715  0.66285  1
 P  P2  1  0.66285  0.16285  0.33715  1
 P  P3  1  0.33715  0.66285  0.16285  1
 P  P4  1  0.83715  0.83715  0.83715  1
 Sr  Sr1  1  0.61911  0.38089  0.88089  1
 Sr  Sr2  1  0.38089  0.88089  0.61911  1
 Sr  Sr3  1  0.11911  0.11911  0.11911  1
 Sr  Sr4  1  0.88089  0.61911  0.38089  1
