CIF file written using JARVIS-Tools package.
data_RbUAgS3
_symmetry_space_group_name_H-M  'Cmcm'
_cell_length_a       4.04959
_cell_length_b       7.53283
_cell_length_c       10.4103
_cell_angle_alpha    90
_cell_angle_beta     90
_cell_angle_gamma    105.593

_symmetry_Int_Tables_number  63
_chemical_formula_structural  RbUAgS3
_chemical_formula_sum  Rb2U2Ag2S6
_cell_volume  305.87742215538054
_cell_formula_units_Z  2
loop_
  _symmetry_equiv_pos_site_id
 _symmetry_equiv_pos_as_xyz
 1  'x, y, z'
loop_
 _atom_site_type_symbol
 _atom_site_label
 _atom_site_symmetry_multiplicity
 _atom_site_fract_x
 _atom_site_fract_y
 _atom_site_fract_z
 _atom_site_fract_occupancy
 Ag  Ag1  1  0.55063  0.10127  0.75000  1
 Ag  Ag2  1  0.44937  0.89873  0.25000  1
 Rb  Rb1  1  0.73946  0.47892  0.25000  1
 Rb  Rb2  1  0.26054  0.52108  0.75000  1
 S  S1  1  0.37655  0.75310  0.03540  1
 S  S2  1  0.62345  0.24690  0.96460  1
 S  S3  1  0.62345  0.24690  0.53540  1
 S  S4  1  0.05826  0.11652  0.25000  1
 S  S5  1  0.94174  0.88348  0.75000  1
 S  S6  1  0.37655  0.75310  0.46460  1
 U  U1  1  0.00000  0.00000  0.00000  1
 U  U2  1  0.00000  0.00000  0.50000  1
