CIF file written using JARVIS-Tools package.
data_Li15Ge4
_symmetry_space_group_name_H-M  'I-43d'
_cell_length_a       9.20027
_cell_length_b       9.20027
_cell_length_c       9.20028
_cell_angle_alpha    109.471
_cell_angle_beta     109.471
_cell_angle_gamma    109.471

_symmetry_Int_Tables_number  220
_chemical_formula_structural  Li15Ge4
_chemical_formula_sum  Li30Ge8
_cell_volume  599.488471077869
_cell_formula_units_Z  2
loop_
  _symmetry_equiv_pos_site_id
 _symmetry_equiv_pos_as_xyz
 1  'x, y, z'
loop_
 _atom_site_type_symbol
 _atom_site_label
 _atom_site_symmetry_multiplicity
 _atom_site_fract_x
 _atom_site_fract_y
 _atom_site_fract_z
 _atom_site_fract_occupancy
 Ge  Ge1  1  0.41576  0.41576  0.41576  1
 Ge  Ge2  1  0.58424  0.50000  -0.00000  1
 Ge  Ge3  1  0.91576  0.91576  0.91576  1
 Ge  Ge4  1  0.08424  0.50000  -0.00000  1
 Ge  Ge5  1  0.00000  0.58424  0.50000  1
 Ge  Ge6  1  0.00000  0.08424  0.50000  1
 Ge  Ge7  1  0.50000  0.00000  0.58424  1
 Ge  Ge8  1  0.50000  0.00000  0.08424  1
 Li  Li1  1  0.19012  0.41396  0.52909  1
 Li  Li2  1  0.62500  0.37500  0.25000  1
 Li  Li3  1  0.61513  0.77616  0.58604  1
 Li  Li4  1  0.12500  0.75000  0.87500  1
 Li  Li5  1  0.37500  0.25000  0.62500  1
 Li  Li6  1  0.25000  0.62500  0.37500  1
 Li  Li7  1  0.77616  0.58604  0.61513  1
 Li  Li8  1  0.38487  0.66102  0.97091  1
 Li  Li9  1  0.58604  0.61513  0.77616  1
 Li  Li10  1  0.11513  0.08604  0.27616  1
 Li  Li11  1  0.87500  0.12500  0.75000  1
 Li  Li12  1  0.88487  0.47091  0.16102  1
 Li  Li13  1  0.75000  0.87500  0.12500  1
 Li  Li14  1  0.30988  0.83898  0.22384  1
 Li  Li15  1  0.08604  0.27616  0.11513  1
 Li  Li16  1  0.27616  0.11513  0.08604  1
 Li  Li17  1  0.97091  0.38487  0.66102  1
 Li  Li18  1  0.41396  0.52909  0.19012  1
 Li  Li19  1  0.22384  0.30988  0.83898  1
 Li  Li20  1  0.66102  0.97091  0.38487  1
 Li  Li21  1  0.52909  0.19012  0.41396  1
 Li  Li22  1  0.83898  0.22384  0.30988  1
 Li  Li23  1  0.69012  0.02909  0.91396  1
 Li  Li24  1  0.80988  0.72384  0.33898  1
 Li  Li25  1  0.47091  0.16102  0.88487  1
 Li  Li26  1  0.16102  0.88487  0.47091  1
 Li  Li27  1  0.91396  0.69012  0.02909  1
 Li  Li28  1  0.72384  0.33898  0.80988  1
 Li  Li29  1  0.02909  0.91396  0.69012  1
 Li  Li30  1  0.33898  0.80988  0.72384  1
