CIF file written using JARVIS-Tools package.
data_SmFeB4
_symmetry_space_group_name_H-M  'Pbam'
_cell_length_a       3.46229
_cell_length_b       5.95561
_cell_length_c       11.5247
_cell_angle_alpha    90
_cell_angle_beta     90
_cell_angle_gamma    90

_symmetry_Int_Tables_number  55
_chemical_formula_structural  SmFeB4
_chemical_formula_sum  Sm4Fe4B6
_cell_volume  237.63876442796396
_cell_formula_units_Z  4
loop_
  _symmetry_equiv_pos_site_id
 _symmetry_equiv_pos_as_xyz
 1  'x, y, z'
loop_
 _atom_site_type_symbol
 _atom_site_label
 _atom_site_symmetry_multiplicity
 _atom_site_fract_x
 _atom_site_fract_y
 _atom_site_fract_z
 _atom_site_fract_occupancy
 B  B1  1  0.50000  0.77859  0.18232  1
 B  B2  1  0.50000  0.02424  0.68838  1
 B  B3  1  0.50000  0.97576  0.31162  1
 B  B4  1  0.50000  0.52424  0.81162  1
 B  B5  1  0.50000  0.85829  0.03217  1
 B  B6  1  0.50000  0.11024  0.54512  1
 B  B7  1  0.50000  0.88976  0.45488  1
 B  B8  1  0.50000  0.47576  0.18838  1
 B  B9  1  0.50000  0.38976  0.04512  1
 B  B10  1  0.50000  0.27859  0.31768  1
 B  B11  1  0.50000  0.72141  0.68232  1
 B  B12  1  0.50000  0.14171  0.96783  1
 B  B13  1  0.50000  0.22141  0.81768  1
 B  B14  1  0.50000  0.35829  0.46783  1
 B  B15  1  0.50000  0.64171  0.53217  1
 B  B16  1  0.50000  0.61024  0.95488  1
 Fe  Fe1  1  0.00000  0.13165  0.41239  1
 Fe  Fe2  1  0.00000  0.86835  0.58761  1
 Fe  Fe3  1  0.00000  0.63165  0.08761  1
 Fe  Fe4  1  0.00000  0.36835  0.91239  1
 Sm  Sm1  1  0.00000  0.12523  0.15063  1
 Sm  Sm2  1  0.00000  0.87477  0.84937  1
 Sm  Sm3  1  0.00000  0.62523  0.34937  1
 Sm  Sm4  1  0.00000  0.37477  0.65063  1
