CIF file written using JARVIS-Tools package.
data_Te2MoW2Se2S2
_symmetry_space_group_name_H-M  'Cm'
_cell_length_a       3.35461
_cell_length_b       3.35445
_cell_length_c       26.4355
_cell_angle_alpha    90.0668
_cell_angle_beta     90
_cell_angle_gamma    120.001

_symmetry_Int_Tables_number  8
_chemical_formula_structural  Te2MoW2Se2S2
_chemical_formula_sum  Te2MoW2Se2S2
_cell_volume  257.61710030759923
_cell_formula_units_Z  1
loop_
  _symmetry_equiv_pos_site_id
 _symmetry_equiv_pos_as_xyz
 1  'x, y, z'
loop_
 _atom_site_type_symbol
 _atom_site_label
 _atom_site_symmetry_multiplicity
 _atom_site_fract_x
 _atom_site_fract_y
 _atom_site_fract_z
 _atom_site_fract_occupancy
 Mo  Mo1  1  0.33207  0.66415  0.10324  1
 S  S1  1  0.33431  0.66862  0.39942  1
 S  S2  1  0.33387  0.66773  0.28426  1
 Se  Se1  1  0.66457  0.32915  0.04034  1
 Se  Se2  1  0.66622  0.33243  0.16620  1
 Te  Te1  1  0.66696  0.33392  0.52365  1
 Te  Te2  1  0.66729  0.33458  0.66801  1
 W  W1  1  0.33379  0.66758  0.59591  1
 W  W2  1  0.66752  0.33504  0.34182  1
