CIF file written using JARVIS-Tools package.
data_USiSe
_symmetry_space_group_name_H-M  'I4/mmm'
_cell_length_a       3.89055
_cell_length_b       3.89055
_cell_length_c       8.81594
_cell_angle_alpha    102.748
_cell_angle_beta     102.748
_cell_angle_gamma    90

_symmetry_Int_Tables_number  139
_chemical_formula_structural  USiSe
_chemical_formula_sum  U2Si2Se2
_cell_volume  126.77810310145954
_cell_formula_units_Z  2
loop_
  _symmetry_equiv_pos_site_id
 _symmetry_equiv_pos_as_xyz
 1  'x, y, z'
loop_
 _atom_site_type_symbol
 _atom_site_label
 _atom_site_symmetry_multiplicity
 _atom_site_fract_x
 _atom_site_fract_y
 _atom_site_fract_z
 _atom_site_fract_occupancy
 Se  Se1  1  0.31462  0.31462  0.62923  1
 Se  Se2  1  0.68538  0.68538  0.37077  1
 Si  Si1  1  0.00000  0.50000  0.00000  1
 Si  Si2  1  0.50000  0.00000  0.00000  1
 U  U1  1  0.13142  0.13142  0.26283  1
 U  U2  1  0.86858  0.86858  0.73717  1
