CIF file written using JARVIS-Tools package.
data_Sm9Ga4
_symmetry_space_group_name_H-M  'I4/m'
_cell_length_a       5.04469
_cell_length_b       8.75638
_cell_length_c       8.75639
_cell_angle_alpha    85.2403
_cell_angle_beta     73.2583
_cell_angle_gamma    73.2583

_symmetry_Int_Tables_number  87
_chemical_formula_structural  Sm9Ga4
_chemical_formula_sum  Sm9Ga4
_cell_volume  354.7025348356054
_cell_formula_units_Z  1
loop_
  _symmetry_equiv_pos_site_id
 _symmetry_equiv_pos_as_xyz
 1  'x, y, z'
loop_
 _atom_site_type_symbol
 _atom_site_label
 _atom_site_symmetry_multiplicity
 _atom_site_fract_x
 _atom_site_fract_y
 _atom_site_fract_z
 _atom_site_fract_occupancy
 Ga  Ga1  1  0.38839  0.88010  0.34313  1
 Ga  Ga2  1  0.73151  0.65687  0.88010  1
 Ga  Ga3  1  0.26849  0.34313  0.11990  1
 Ga  Ga4  1  0.61161  0.11990  0.65687  1
 Sm  Sm1  1  0.50000  0.00000  -0.00000  1
 Sm  Sm2  1  0.12247  0.28327  0.47179  1
 Sm  Sm3  1  0.59426  0.52821  0.28327  1
 Sm  Sm4  1  0.40574  0.47179  0.71673  1
 Sm  Sm5  1  0.87753  0.71673  0.52821  1
 Sm  Sm6  1  0.18637  0.92202  0.70525  1
 Sm  Sm7  1  0.89161  0.29475  0.92202  1
 Sm  Sm8  1  0.10839  0.70525  0.07798  1
 Sm  Sm9  1  0.81363  0.07798  0.29475  1
