CIF file written using JARVIS-Tools package.
data_CaMn4O6
_symmetry_space_group_name_H-M  'Cmcm'
_cell_length_a       3.11024
_cell_length_b       5.29923
_cell_length_c       15.2804
_cell_angle_alpha    90
_cell_angle_beta     90
_cell_angle_gamma    107.065

_symmetry_Int_Tables_number  63
_chemical_formula_structural  CaMn4O6
_chemical_formula_sum  Ca2Mn8O2
_cell_volume  240.76014963471633
_cell_formula_units_Z  2
loop_
  _symmetry_equiv_pos_site_id
 _symmetry_equiv_pos_as_xyz
 1  'x, y, z'
loop_
 _atom_site_type_symbol
 _atom_site_label
 _atom_site_symmetry_multiplicity
 _atom_site_fract_x
 _atom_site_fract_y
 _atom_site_fract_z
 _atom_site_fract_occupancy
 Ca  Ca1  1  0.66355  0.32711  0.75000  1
 Ca  Ca2  1  0.33645  0.67289  0.25000  1
 Mn  Mn1  1  0.86261  0.72523  0.04272  1
 Mn  Mn2  1  0.40945  0.81890  0.63417  1
 Mn  Mn3  1  0.13739  0.27477  0.95728  1
 Mn  Mn4  1  0.59055  0.18110  0.36583  1
 Mn  Mn5  1  0.86261  0.72523  0.45728  1
 Mn  Mn6  1  0.13739  0.27477  0.54272  1
 Mn  Mn7  1  0.59055  0.18110  0.13417  1
 Mn  Mn8  1  0.40945  0.81890  0.86583  1
 O  O1  1  0.33068  0.66136  0.75000  1
 O  O2  1  0.50000  0.00000  0.00000  1
 O  O3  1  0.05038  0.10076  0.84609  1
 O  O4  1  0.94962  0.89924  0.15392  1
 O  O5  1  0.50000  0.00000  0.50000  1
 O  O6  1  0.78031  0.56061  0.57760  1
 O  O7  1  0.78031  0.56061  0.92240  1
 O  O8  1  0.21969  0.43939  0.07760  1
 O  O9  1  0.21969  0.43939  0.42240  1
 O  O10  1  0.94962  0.89924  0.34608  1
 O  O11  1  0.05038  0.10076  0.65392  1
 O  O12  1  0.66932  0.33864  0.25000  1
