CIF file written using JARVIS-Tools package.
data_SrSnPt
_symmetry_space_group_name_H-M  'Pnma'
_cell_length_a       4.76026
_cell_length_b       7.67494
_cell_length_c       8.11636
_cell_angle_alpha    90
_cell_angle_beta     90
_cell_angle_gamma    90

_symmetry_Int_Tables_number  62
_chemical_formula_structural  SrSnPt
_chemical_formula_sum  Sr4Sn4Pt4
_cell_volume  296.52881676722205
_cell_formula_units_Z  4
loop_
  _symmetry_equiv_pos_site_id
 _symmetry_equiv_pos_as_xyz
 1  'x, y, z'
loop_
 _atom_site_type_symbol
 _atom_site_label
 _atom_site_symmetry_multiplicity
 _atom_site_fract_x
 _atom_site_fract_y
 _atom_site_fract_z
 _atom_site_fract_occupancy
 Pt  Pt1  1  0.25000  0.79594  0.89588  1
 Pt  Pt2  1  0.25000  0.29594  0.60412  1
 Pt  Pt3  1  0.75000  0.70406  0.39588  1
 Pt  Pt4  1  0.75000  0.20406  0.10412  1
 Sn  Sn1  1  0.75000  0.33457  0.42405  1
 Sn  Sn2  1  0.25000  0.16543  0.92405  1
 Sn  Sn3  1  0.25000  0.66543  0.57595  1
 Sn  Sn4  1  0.75000  0.83457  0.07595  1
 Sr  Sr1  1  0.75000  0.98094  0.68531  1
 Sr  Sr2  1  0.25000  0.01906  0.31469  1
 Sr  Sr3  1  0.75000  0.48094  0.81469  1
 Sr  Sr4  1  0.25000  0.51906  0.18531  1
