CIF file written using JARVIS-Tools package.
data_PdN
_symmetry_space_group_name_H-M  'P6_3mc'
_cell_length_a       3.2013
_cell_length_b       3.20078
_cell_length_c       5.90133
_cell_angle_alpha    90
_cell_angle_beta     90
_cell_angle_gamma    120.005

_symmetry_Int_Tables_number  186
_chemical_formula_structural  PdN
_chemical_formula_sum  Pd2N2
_cell_volume  52.36477066337499
_cell_formula_units_Z  2
loop_
  _symmetry_equiv_pos_site_id
 _symmetry_equiv_pos_as_xyz
 1  'x, y, z'
loop_
 _atom_site_type_symbol
 _atom_site_label
 _atom_site_symmetry_multiplicity
 _atom_site_fract_x
 _atom_site_fract_y
 _atom_site_fract_z
 _atom_site_fract_occupancy
 N  N1  1  0.66669  0.33339  0.86479  1
 N  N2  1  0.33331  0.66661  0.36479  1
 Pd  Pd1  1  0.66667  0.33333  0.50721  1
 Pd  Pd2  1  0.33333  0.66667  0.00721  1
