CIF file written using JARVIS-Tools package.
data_SmCoGe
_symmetry_space_group_name_H-M  'Pnma'
_cell_length_a       4.35269
_cell_length_b       6.94626
_cell_length_c       7.1646
_cell_angle_alpha    90
_cell_angle_beta     90
_cell_angle_gamma    90

_symmetry_Int_Tables_number  62
_chemical_formula_structural  SmCoGe
_chemical_formula_sum  Sm4Co4Ge4
_cell_volume  216.62098143518637
_cell_formula_units_Z  4
loop_
  _symmetry_equiv_pos_site_id
 _symmetry_equiv_pos_as_xyz
 1  'x, y, z'
loop_
 _atom_site_type_symbol
 _atom_site_label
 _atom_site_symmetry_multiplicity
 _atom_site_fract_x
 _atom_site_fract_y
 _atom_site_fract_z
 _atom_site_fract_occupancy
 Co  Co1  1  0.75000  0.56919  0.35520  1
 Co  Co2  1  0.75000  0.93081  0.85520  1
 Co  Co3  1  0.25000  0.06919  0.14480  1
 Co  Co4  1  0.25000  0.43081  0.64480  1
 Ge  Ge1  1  0.75000  0.60692  0.69453  1
 Ge  Ge2  1  0.75000  0.89308  0.19453  1
 Ge  Ge3  1  0.25000  0.10692  0.80547  1
 Ge  Ge4  1  0.25000  0.39308  0.30547  1
 Sm  Sm1  1  0.25000  0.68673  0.97681  1
 Sm  Sm2  1  0.75000  0.31327  0.02319  1
 Sm  Sm3  1  0.75000  0.18673  0.52319  1
 Sm  Sm4  1  0.25000  0.81327  0.47681  1
