CIF file written using JARVIS-Tools package.
data_Li3AlN2
_symmetry_space_group_name_H-M  'Ia-3'
_cell_length_a       8.18725
_cell_length_b       8.18725
_cell_length_c       8.18725
_cell_angle_alpha    109.471
_cell_angle_beta     109.471
_cell_angle_gamma    109.471

_symmetry_Int_Tables_number  206
_chemical_formula_structural  Li3AlN2
_chemical_formula_sum  Li24Al8N6
_cell_volume  422.4661739378938
_cell_formula_units_Z  8
loop_
  _symmetry_equiv_pos_site_id
 _symmetry_equiv_pos_as_xyz
 1  'x, y, z'
loop_
 _atom_site_type_symbol
 _atom_site_label
 _atom_site_symmetry_multiplicity
 _atom_site_fract_x
 _atom_site_fract_y
 _atom_site_fract_z
 _atom_site_fract_occupancy
 Al  Al1  1  0.50000  0.00000  0.73171  1
 Al  Al2  1  0.73171  0.50000  -0.00000  1
 Al  Al3  1  0.00000  0.26829  0.50000  1
 Al  Al4  1  0.50000  0.00000  0.26829  1
 Al  Al5  1  0.26829  0.50000  0.00000  1
 Al  Al6  1  0.76829  0.76829  0.76829  1
 Al  Al7  1  -0.00000  0.73171  0.50000  1
 Al  Al8  1  0.23171  0.23171  0.23171  1
 Li  Li1  1  0.98839  0.46018  0.22516  1
 Li  Li2  1  0.76323  0.27484  0.73502  1
 Li  Li3  1  0.27484  0.73502  0.76323  1
 Li  Li4  1  0.46018  0.22516  0.98839  1
 Li  Li5  1  0.02821  0.76498  0.03982  1
 Li  Li6  1  0.76498  0.03982  0.02821  1
 Li  Li7  1  0.22516  0.98839  0.46018  1
 Li  Li8  1  0.47179  0.51161  0.73677  1
 Li  Li9  1  0.51161  0.73677  0.47179  1
 Li  Li10  1  0.73502  0.76323  0.27484  1
 Li  Li11  1  0.73677  0.47179  0.51161  1
 Li  Li12  1  0.96018  0.97179  0.23502  1
 Li  Li13  1  0.72516  0.26498  0.23677  1
 Li  Li14  1  0.53982  0.77484  0.01161  1
 Li  Li15  1  0.48839  0.26323  0.52821  1
 Li  Li16  1  0.77484  0.01161  0.53982  1
 Li  Li17  1  0.52821  0.48839  0.26323  1
 Li  Li18  1  0.23677  0.72516  0.26498  1
 Li  Li19  1  0.23502  0.96018  0.97179  1
 Li  Li20  1  0.26498  0.23677  0.72516  1
 Li  Li21  1  0.01161  0.53982  0.77484  1
 Li  Li22  1  0.97179  0.23502  0.96018  1
 Li  Li23  1  0.03982  0.02821  0.76498  1
 Li  Li24  1  0.26323  0.52821  0.48839  1
 N  N1  1  0.25000  0.96870  0.71870  1
 N  N2  1  0.75000  0.53130  0.78130  1
 N  N3  1  0.78130  0.75000  0.53130  1
 N  N4  1  0.53130  0.78130  0.75000  1
 N  N5  1  0.71870  0.25000  0.96870  1
 N  N6  1  0.21870  0.25000  0.46870  1
 N  N7  1  0.00000  0.00000  0.00000  1
 N  N8  1  0.46870  0.21870  0.25000  1
 N  N9  1  0.25000  0.46870  0.21870  1
 N  N10  1  0.50000  0.50000  -0.00000  1
 N  N11  1  0.50000  0.00000  0.50000  1
 N  N12  1  -0.00000  0.50000  0.50000  1
 N  N13  1  0.96870  0.71870  0.25000  1
 N  N14  1  0.75000  0.03130  0.28130  1
 N  N15  1  0.03130  0.28130  0.75000  1
 N  N16  1  0.28130  0.75000  0.03130  1
