data_image0
_chemical_formula_structural       Mn2O6Sn2
_chemical_formula_sum              "Mn2 O6 Sn2"
_cell_length_a       5.72762
_cell_length_b       5.72762
_cell_length_c       5.72762
_cell_angle_alpha    56.249
_cell_angle_beta     56.249
_cell_angle_gamma    56.249

_space_group_name_H-M_alt    "P 1"
_space_group_IT_number       1

loop_
  _space_group_symop_operation_xyz
  'x, y, z'

loop_
  _atom_site_type_symbol
  _atom_site_label
  _atom_site_symmetry_multiplicity
  _atom_site_fract_x
  _atom_site_fract_y
  _atom_site_fract_z
  _atom_site_occupancy
  Mn  Mn1       1.0  0.36200  0.36200  0.36200  1.0000
  Mn  Mn2       1.0  0.63800  0.63800  0.63800  1.0000
  O   O1        1.0  0.76900  0.44500  0.04470  1.0000
  O   O2        1.0  0.55500  0.95500  0.23100  1.0000
  O   O3        1.0  0.04470  0.76900  0.44500  1.0000
  O   O4        1.0  0.95500  0.23100  0.55500  1.0000
  O   O5        1.0  0.44500  0.04470  0.76900  1.0000
  O   O6        1.0  0.23100  0.55500  0.95500  1.0000
  Sn  Sn1       1.0  0.15000  0.15000  0.15000  1.0000
  Sn  Sn2       1.0  0.85000  0.85000  0.85000  1.0000
