CIF file written using JARVIS-Tools package.
data_Sr5As3O12F
_symmetry_space_group_name_H-M  'P6_3/m'
_cell_length_a       10.0728
_cell_length_b       10.0728
_cell_length_c       7.45882
_cell_angle_alpha    90
_cell_angle_beta     90
_cell_angle_gamma    120

_symmetry_Int_Tables_number  176
_chemical_formula_structural  Sr5As3O12F
_chemical_formula_sum  Sr0As6O24F2
_cell_volume  655.3954483733121
_cell_formula_units_Z  2
loop_
  _symmetry_equiv_pos_site_id
 _symmetry_equiv_pos_as_xyz
 1  'x, y, z'
loop_
 _atom_site_type_symbol
 _atom_site_label
 _atom_site_symmetry_multiplicity
 _atom_site_fract_x
 _atom_site_fract_y
 _atom_site_fract_z
 _atom_site_fract_occupancy
 As  As1  1  0.03054  0.63115  0.25000  1
 As  As2  1  0.60060  0.96946  0.25000  1
 As  As3  1  0.63115  0.60060  0.75000  1
 As  As4  1  0.96946  0.36885  0.75000  1
 As  As5  1  0.36885  0.39940  0.25000  1
 As  As6  1  0.39940  0.03054  0.75000  1
 F  F1  1  0.00000  0.00000  0.75000  1
 F  F2  1  0.00000  0.00000  0.25000  1
 O  O1  1  0.65647  0.90709  0.06554  1
 O  O2  1  0.65647  0.90709  0.43446  1
 O  O3  1  0.74938  0.65647  0.56554  1
 O  O4  1  0.87458  0.47160  0.75000  1
 O  O5  1  0.09291  0.74938  0.06554  1
 O  O6  1  0.34353  0.09291  0.56554  1
 O  O7  1  0.47160  0.59703  0.25000  1
 O  O8  1  0.68006  0.16528  0.25000  1
 O  O9  1  0.90709  0.25062  0.93446  1
 O  O10  1  0.74938  0.65647  0.93446  1
 O  O11  1  0.25062  0.34353  0.06554  1
 O  O12  1  0.12542  0.52840  0.25000  1
 O  O13  1  0.25062  0.34353  0.43446  1
 O  O14  1  0.40297  0.87458  0.25000  1
 O  O15  1  0.90709  0.25062  0.56554  1
 O  O16  1  0.31994  0.83472  0.75000  1
 O  O17  1  0.16528  0.48522  0.75000  1
 O  O18  1  0.48522  0.31994  0.25000  1
 O  O19  1  0.51478  0.68006  0.75000  1
 O  O20  1  0.09291  0.74938  0.43446  1
 O  O21  1  0.59703  0.12542  0.75000  1
 O  O22  1  0.52840  0.40297  0.75000  1
 O  O23  1  0.34353  0.09291  0.93446  1
 O  O24  1  0.83472  0.51478  0.25000  1
 Sr  Sr1  1  0.01020  0.76060  0.75000  1
 Sr  Sr2  1  0.76060  0.75040  0.25000  1
 Sr  Sr3  1  0.98980  0.23940  0.25000  1
 Sr  Sr4  1  0.24960  0.01020  0.25000  1
 Sr  Sr5  1  0.66667  0.33333  0.00048  1
 Sr  Sr6  1  0.33333  0.66667  0.50048  1
 Sr  Sr7  1  0.66667  0.33333  0.49952  1
 Sr  Sr8  1  0.33333  0.66667  0.99952  1
 Sr  Sr9  1  0.23940  0.24960  0.75000  1
 Sr  Sr10  1  0.75040  0.98980  0.75000  1
