CIF file written using JARVIS-Tools package.
data_TbSb2
_symmetry_space_group_name_H-M  'C222'
_cell_length_a       3.41996
_cell_length_b       3.5799
_cell_length_c       8.34715
_cell_angle_alpha    90
_cell_angle_beta     90
_cell_angle_gamma    118.533

_symmetry_Int_Tables_number  21
_chemical_formula_structural  TbSb2
_chemical_formula_sum  TbSb2
_cell_volume  89.78281165608378
_cell_formula_units_Z  1
loop_
  _symmetry_equiv_pos_site_id
 _symmetry_equiv_pos_as_xyz
 1  'x, y, z'
loop_
 _atom_site_type_symbol
 _atom_site_label
 _atom_site_symmetry_multiplicity
 _atom_site_fract_x
 _atom_site_fract_y
 _atom_site_fract_z
 _atom_site_fract_occupancy
 Sb  Sb1  1  0.00000  0.50000  0.69739  1
 Sb  Sb2  1  0.50000  0.50000  0.30261  1
 Tb  Tb1  1  0.00000  0.00000  0.00000  1
