data_image0
_chemical_formula_structural       Cs2Pd3Se4
_chemical_formula_sum              "Cs2 Pd3 Se4"
_cell_length_a       6.49148
_cell_length_b       6.49148
_cell_length_c       7.86031
_cell_angle_alpha    102.245
_cell_angle_beta     102.245
_cell_angle_gamma    119.102

_space_group_name_H-M_alt    "P 1"
_space_group_IT_number       1

loop_
  _space_group_symop_operation_xyz
  'x, y, z'

loop_
  _atom_site_type_symbol
  _atom_site_label
  _atom_site_symmetry_multiplicity
  _atom_site_fract_x
  _atom_site_fract_y
  _atom_site_fract_z
  _atom_site_occupancy
  Cs  Cs1       1.0  0.65500  0.65500  0.31000  1.0000
  Cs  Cs2       1.0  0.34500  0.34500  0.69000  1.0000
  Pd  Pd1       1.0  0.50000  0.00000  0.00000  1.0000
  Pd  Pd2       1.0  0.00000  0.00000  0.00000  1.0000
  Pd  Pd3       1.0  0.00000  0.50000  0.00000  1.0000
  Se  Se1       1.0  0.94600  0.28200  0.22800  1.0000
  Se  Se2       1.0  0.28200  0.94600  0.22800  1.0000
  Se  Se3       1.0  0.71800  0.05430  0.77200  1.0000
  Se  Se4       1.0  0.05430  0.71800  0.77200  1.0000
