CIF file written using JARVIS-Tools package.
data_NiF3
_symmetry_space_group_name_H-M  'R-3'
_cell_length_a       5.15472
_cell_length_b       5.15471
_cell_length_c       5.15471
_cell_angle_alpha    55.0746
_cell_angle_beta     55.0746
_cell_angle_gamma    55.0746

_symmetry_Int_Tables_number  148
_chemical_formula_structural  NiF3
_chemical_formula_sum  Ni2F6
_cell_volume  85.75427713977338
_cell_formula_units_Z  2
loop_
  _symmetry_equiv_pos_site_id
 _symmetry_equiv_pos_as_xyz
 1  'x, y, z'
loop_
 _atom_site_type_symbol
 _atom_site_label
 _atom_site_symmetry_multiplicity
 _atom_site_fract_x
 _atom_site_fract_y
 _atom_site_fract_z
 _atom_site_fract_occupancy
 F  F1  1  0.61079  0.24408  0.89882  1
 F  F2  1  0.89882  0.61079  0.24408  1
 F  F3  1  0.24408  0.89882  0.61079  1
 F  F4  1  0.38921  0.75592  0.10118  1
 F  F5  1  0.10118  0.38921  0.75592  1
 F  F6  1  0.75592  0.10118  0.38921  1
 Ni  Ni1  1  0.00000  0.00000  0.00000  1
 Ni  Ni2  1  0.50000  0.50000  0.50000  1
