CIF file written using JARVIS-Tools package.
data_Na3AlF6
_symmetry_space_group_name_H-M  'Immm'
_cell_length_a       5.68725
_cell_length_b       5.62186
_cell_length_c       5.62186
_cell_angle_alpha    59.1834
_cell_angle_beta     59.6145
_cell_angle_gamma    59.6144

_symmetry_Int_Tables_number  71
_chemical_formula_structural  Na3AlF6
_chemical_formula_sum  Na3AlF6
_cell_volume  125.5659608919635
_cell_formula_units_Z  1
loop_
  _symmetry_equiv_pos_site_id
 _symmetry_equiv_pos_as_xyz
 1  'x, y, z'
loop_
 _atom_site_type_symbol
 _atom_site_label
 _atom_site_symmetry_multiplicity
 _atom_site_fract_x
 _atom_site_fract_y
 _atom_site_fract_z
 _atom_site_fract_occupancy
 Al  Al1  1  0.00000  0.00000  0.00000  1
 F  F1  1  0.77626  0.76688  0.23312  1
 F  F2  1  0.77626  0.23312  0.76688  1
 F  F3  1  0.22374  0.76688  0.23312  1
 F  F4  1  0.22374  0.23312  0.76688  1
 F  F5  1  0.22829  0.77171  0.77171  1
 F  F6  1  0.77171  0.22829  0.22829  1
 Na  Na1  1  0.23325  0.26675  0.26675  1
 Na  Na2  1  0.76675  0.73325  0.73325  1
 Na  Na3  1  0.50000  0.50000  0.50000  1
