CIF file written using JARVIS-Tools package.
data_KAlTe2
_symmetry_space_group_name_H-M  'C2/c'
_cell_length_a       8.39776
_cell_length_b       8.39776
_cell_length_c       16.4675
_cell_angle_alpha    97.2988
_cell_angle_beta     97.2988
_cell_angle_gamma    90.0018

_symmetry_Int_Tables_number  15
_chemical_formula_structural  KAlTe2
_chemical_formula_sum  K8Al8Te6
_cell_volume  1142.4274056452268
_cell_formula_units_Z  8
loop_
  _symmetry_equiv_pos_site_id
 _symmetry_equiv_pos_as_xyz
 1  'x, y, z'
loop_
 _atom_site_type_symbol
 _atom_site_label
 _atom_site_symmetry_multiplicity
 _atom_site_fract_x
 _atom_site_fract_y
 _atom_site_fract_z
 _atom_site_fract_occupancy
 Al  Al1  1  0.91191  0.28971  0.65905  1
 Al  Al2  1  0.28971  0.91191  0.15905  1
 Al  Al3  1  0.08809  0.71029  0.34095  1
 Al  Al4  1  0.41736  0.28990  0.65989  1
 Al  Al5  1  0.71010  0.58264  0.84011  1
 Al  Al6  1  0.58264  0.71010  0.34011  1
 Al  Al7  1  0.28990  0.41736  0.15989  1
 Al  Al8  1  0.71029  0.08809  0.84095  1
 K  K1  1  0.78042  0.65486  0.11838  1
 K  K2  1  0.77976  0.15221  0.11173  1
 K  K3  1  0.84779  0.22024  0.38827  1
 K  K4  1  0.65486  0.78042  0.61838  1
 K  K5  1  0.21958  0.34514  0.88162  1
 K  K6  1  0.34514  0.21958  0.38162  1
 K  K7  1  0.22024  0.84779  0.88827  1
 K  K8  1  0.15221  0.77976  0.61173  1
 Te  Te1  1  0.57298  0.42702  0.25000  1
 Te  Te2  1  0.26417  0.63877  0.05900  1
 Te  Te3  1  0.36123  0.73583  0.44100  1
 Te  Te4  1  0.73583  0.36123  0.94100  1
 Te  Te5  1  0.63877  0.26417  0.55900  1
 Te  Te6  1  0.57254  0.94741  0.24943  1
 Te  Te7  1  0.05259  0.42746  0.25057  1
 Te  Te8  1  0.26414  0.14100  0.06137  1
 Te  Te9  1  0.85900  0.73586  0.43863  1
 Te  Te10  1  0.14100  0.26414  0.56137  1
 Te  Te11  1  0.73586  0.85900  0.93863  1
 Te  Te12  1  0.05277  0.94723  0.25000  1
 Te  Te13  1  0.94723  0.05277  0.75000  1
 Te  Te14  1  0.94741  0.57254  0.74943  1
 Te  Te15  1  0.42746  0.05259  0.75057  1
 Te  Te16  1  0.42702  0.57298  0.75000  1
