CIF file written using JARVIS-Tools package.
data_Nd2CuGe2O8
_symmetry_space_group_name_H-M  'Cm'
_cell_length_a       5.19948
_cell_length_b       8.44342
_cell_length_c       9.18252
_cell_angle_alpha    117.154
_cell_angle_beta     106.12
_cell_angle_gamma    90.6814

_symmetry_Int_Tables_number  8
_chemical_formula_structural  Nd2CuGe2O8
_chemical_formula_sum  Nd4Cu2Ge4O6
_cell_volume  340.03028821755686
_cell_formula_units_Z  2
loop_
  _symmetry_equiv_pos_site_id
 _symmetry_equiv_pos_as_xyz
 1  'x, y, z'
loop_
 _atom_site_type_symbol
 _atom_site_label
 _atom_site_symmetry_multiplicity
 _atom_site_fract_x
 _atom_site_fract_y
 _atom_site_fract_z
 _atom_site_fract_occupancy
 Cu  Cu1  1  0.77111  0.76086  0.58669  1
 Cu  Cu2  1  0.18440  0.17416  0.41330  1
 Ge  Ge1  1  0.00479  0.00082  -0.00000  1
 Ge  Ge2  1  0.19331  0.72697  0.42113  1
 Ge  Ge3  1  0.92228  0.50400  0.00000  1
 Ge  Ge4  1  0.77219  0.30584  0.57887  1
 Nd  Nd1  1  0.34895  0.63848  0.75847  1
 Nd  Nd2  1  0.34062  0.13699  0.75992  1
 Nd  Nd3  1  0.58070  0.37707  0.24009  1
 Nd  Nd4  1  0.59048  0.88001  0.24153  1
 O  O1  1  0.04423  0.41095  0.81507  1
 O  O2  1  0.93867  0.10861  0.51727  1
 O  O3  1  0.71664  0.33397  0.00000  1
 O  O4  1  0.91947  0.46327  0.53343  1
 O  O5  1  0.21379  0.17093  -0.00000  1
 O  O6  1  0.49575  0.18559  0.34823  1
 O  O7  1  0.71615  0.66997  0.00000  1
 O  O8  1  0.82509  0.67738  0.34345  1
 O  O9  1  0.14753  0.83736  0.65177  1
 O  O10  1  0.22916  0.59588  0.18493  1
 O  O11  1  0.38604  0.92984  0.46657  1
 O  O12  1  0.70393  0.90243  0.81254  1
 O  O13  1  0.89137  0.08988  0.18745  1
 O  O14  1  0.22310  0.83804  -0.00000  1
 O  O15  1  0.48163  0.33393  0.65655  1
 O  O16  1  0.42141  0.59135  0.48274  1
