CIF file written using JARVIS-Tools package.
data_Ce3Zr5O16
_symmetry_space_group_name_H-M  'C222'
_cell_length_a       7.45678
_cell_length_b       7.45726
_cell_length_c       5.31724
_cell_angle_alpha    90
_cell_angle_beta     90
_cell_angle_gamma    90.6665

_symmetry_Int_Tables_number  21
_chemical_formula_structural  Ce3Zr5O16
_chemical_formula_sum  Ce3Zr5O6
_cell_volume  295.6562226808783
_cell_formula_units_Z  1
loop_
  _symmetry_equiv_pos_site_id
 _symmetry_equiv_pos_as_xyz
 1  'x, y, z'
loop_
 _atom_site_type_symbol
 _atom_site_label
 _atom_site_symmetry_multiplicity
 _atom_site_fract_x
 _atom_site_fract_y
 _atom_site_fract_z
 _atom_site_fract_occupancy
 Ce  Ce1  1  0.00593  0.99407  0.99999  1
 Ce  Ce2  1  0.75000  0.25000  0.50002  1
 Ce  Ce3  1  0.49407  0.50593  0.99999  1
 O  O1  1  0.23214  0.01061  0.30386  1
 O  O2  1  0.99405  0.27016  0.22211  1
 O  O3  1  0.02146  0.23921  0.72376  1
 O  O4  1  0.51061  0.73211  0.69611  1
 O  O5  1  0.26786  0.48939  0.30386  1
 O  O6  1  0.02662  0.72819  0.21412  1
 O  O7  1  0.27183  0.97336  0.78586  1
 O  O8  1  0.22817  0.52664  0.78586  1
 O  O9  1  0.76078  0.97855  0.27625  1
 O  O10  1  0.47854  0.26079  0.72376  1
 O  O11  1  0.98939  0.76789  0.69611  1
 O  O12  1  0.72982  0.00596  0.77791  1
 O  O13  1  0.73922  0.52145  0.27625  1
 O  O14  1  0.47338  0.77181  0.21412  1
 O  O15  1  0.50595  0.22984  0.22211  1
 O  O16  1  0.77018  0.49404  0.77791  1
 Zr  Zr1  1  0.75000  0.75000  0.50172  1
 Zr  Zr2  1  0.50095  0.00096  0.00003  1
 Zr  Zr3  1  0.25000  0.75000  0.50001  1
 Zr  Zr4  1  0.99905  0.49904  0.00003  1
 Zr  Zr5  1  0.25000  0.25000  0.49825  1
