CIF file written using JARVIS-Tools package.
data_MgSb4O8
_symmetry_space_group_name_H-M  'P1'
_cell_length_a       3.25359
_cell_length_b       7.03443
_cell_length_c       10.3502
_cell_angle_alpha    61.3479
_cell_angle_beta     71.5076
_cell_angle_gamma    69.673

_symmetry_Int_Tables_number  1
_chemical_formula_structural  MgSb4O8
_chemical_formula_sum  MgSb4O8
_cell_volume  191.64096611149503
_cell_formula_units_Z  1
loop_
  _symmetry_equiv_pos_site_id
 _symmetry_equiv_pos_as_xyz
 1  'x, y, z'
loop_
 _atom_site_type_symbol
 _atom_site_label
 _atom_site_symmetry_multiplicity
 _atom_site_fract_x
 _atom_site_fract_y
 _atom_site_fract_z
 _atom_site_fract_occupancy
 Mg  Mg1  1  0.24186  0.14482  0.19844  1
 O  O1  1  0.81011  0.67521  0.72071  1
 O  O2  1  0.52108  0.28119  0.80249  1
 O  O3  1  0.49670  0.75597  0.24984  1
 O  O4  1  0.21889  0.37685  0.28870  1
 O  O5  1  0.14960  0.04942  0.60127  1
 O  O6  1  0.87717  0.10360  0.08808  1
 O  O7  1  0.88051  0.01056  0.40666  1
 O  O8  1  0.18521  0.46207  -0.00738  1
 Sb  Sb1  1  0.60102  0.26650  0.47764  1
 Sb  Sb2  1  0.13664  0.71957  0.13262  1
 Sb  Sb3  1  0.86182  0.37172  0.89274  1
 Sb  Sb4  1  0.39755  0.77315  0.55696  1
