CIF file written using JARVIS-Tools package.
data_BaAl2Ge2
_symmetry_space_group_name_H-M  'Pnma'
_cell_length_a       4.315
_cell_length_b       10.2887
_cell_length_c       11.08
_cell_angle_alpha    90
_cell_angle_beta     90
_cell_angle_gamma    90

_symmetry_Int_Tables_number  62
_chemical_formula_structural  BaAl2Ge2
_chemical_formula_sum  Ba4Al8Ge8
_cell_volume  491.90365643251613
_cell_formula_units_Z  4
loop_
  _symmetry_equiv_pos_site_id
 _symmetry_equiv_pos_as_xyz
 1  'x, y, z'
loop_
 _atom_site_type_symbol
 _atom_site_label
 _atom_site_symmetry_multiplicity
 _atom_site_fract_x
 _atom_site_fract_y
 _atom_site_fract_z
 _atom_site_fract_occupancy
 Al  Al1  1  0.75000  0.89893  0.54720  1
 Al  Al2  1  0.75000  0.39893  0.95280  1
 Al  Al3  1  0.25000  0.04254  0.88134  1
 Al  Al4  1  0.75000  0.45746  0.38134  1
 Al  Al5  1  0.25000  0.10107  0.45280  1
 Al  Al6  1  0.75000  0.95746  0.11866  1
 Al  Al7  1  0.25000  0.60107  0.04720  1
 Al  Al8  1  0.25000  0.54254  0.61866  1
 Ba  Ba1  1  0.75000  0.25170  0.67532  1
 Ba  Ba2  1  0.25000  0.74830  0.32468  1
 Ba  Ba3  1  0.75000  0.75170  0.82468  1
 Ba  Ba4  1  0.25000  0.24830  0.17532  1
 Ge  Ge1  1  0.25000  0.85382  0.04016  1
 Ge  Ge2  1  0.25000  0.97552  0.65674  1
 Ge  Ge3  1  0.25000  0.35382  0.45984  1
 Ge  Ge4  1  0.75000  0.64618  0.54016  1
 Ge  Ge5  1  0.25000  0.47552  0.84326  1
 Ge  Ge6  1  0.75000  0.52448  0.15674  1
 Ge  Ge7  1  0.75000  0.02448  0.34326  1
 Ge  Ge8  1  0.75000  0.14618  0.95984  1
