CIF file written using JARVIS-Tools package.
data_Te2Mo3WSe4S2
_symmetry_space_group_name_H-M  'P3m1'
_cell_length_a       3.35047
_cell_length_b       3.35049
_cell_length_c       36.0583
_cell_angle_alpha    89.9996
_cell_angle_beta     90.0004
_cell_angle_gamma    120

_symmetry_Int_Tables_number  156
_chemical_formula_structural  Te2Mo3WSe4S2
_chemical_formula_sum  Te2Mo3WSe4S2
_cell_volume  350.54946492141363
_cell_formula_units_Z  1
loop_
  _symmetry_equiv_pos_site_id
 _symmetry_equiv_pos_as_xyz
 1  'x, y, z'
loop_
 _atom_site_type_symbol
 _atom_site_label
 _atom_site_symmetry_multiplicity
 _atom_site_fract_x
 _atom_site_fract_y
 _atom_site_fract_z
 _atom_site_fract_occupancy
 Mo  Mo1  1  0.33333  0.66667  0.09941  1
 Mo  Mo2  1  0.66668  0.33336  0.27488  1
 Mo  Mo3  1  0.66664  0.33329  0.66082  1
 S  S1  1  0.66666  0.33335  0.05735  1
 S  S2  1  0.66666  0.33332  0.14149  1
 Se  Se1  1  0.33336  0.66669  0.32106  1
 Se  Se2  1  0.33332  0.66662  0.70696  1
 Se  Se3  1  0.33334  0.66670  0.22867  1
 Se  Se4  1  0.33331  0.66664  0.61459  1
 Te  Te1  1  0.66667  0.33335  0.41485  1
 Te  Te2  1  0.66668  0.33333  0.52082  1
 W  W1  1  0.33334  0.66668  0.46785  1
