CIF file written using JARVIS-Tools package.
data_DyAlZn
_symmetry_space_group_name_H-M  'P6_3/mmc'
_cell_length_a       4.47257
_cell_length_b       4.47254
_cell_length_c       7.15756
_cell_angle_alpha    90
_cell_angle_beta     90
_cell_angle_gamma    120

_symmetry_Int_Tables_number  194
_chemical_formula_structural  DyAlZn
_chemical_formula_sum  Dy2Al2Zn2
_cell_volume  123.99542762612673
_cell_formula_units_Z  2
loop_
  _symmetry_equiv_pos_site_id
 _symmetry_equiv_pos_as_xyz
 1  'x, y, z'
loop_
 _atom_site_type_symbol
 _atom_site_label
 _atom_site_symmetry_multiplicity
 _atom_site_fract_x
 _atom_site_fract_y
 _atom_site_fract_z
 _atom_site_fract_occupancy
 Al  Al1  1  0.33335  0.66669  0.25000  1
 Al  Al2  1  0.66665  0.33331  0.75000  1
 Dy  Dy1  1  0.00000  0.00000  0.50000  1
 Dy  Dy2  1  0.00000  0.00000  0.00000  1
 Zn  Zn1  1  0.33334  0.66668  0.75000  1
 Zn  Zn2  1  0.66666  0.33332  0.25000  1
