CIF file written using JARVIS-Tools package.
data_LiLuF4
_symmetry_space_group_name_H-M  'C2/c'
_cell_length_a       5.0991
_cell_length_b       5.10214
_cell_length_c       6.35583
_cell_angle_alpha    113.633
_cell_angle_beta     113.619
_cell_angle_gamma    90.0654

_symmetry_Int_Tables_number  15
_chemical_formula_structural  LiLuF4
_chemical_formula_sum  Li2Lu2F8
_cell_volume  136.19596972859847
_cell_formula_units_Z  2
loop_
  _symmetry_equiv_pos_site_id
 _symmetry_equiv_pos_as_xyz
 1  'x, y, z'
loop_
 _atom_site_type_symbol
 _atom_site_label
 _atom_site_symmetry_multiplicity
 _atom_site_fract_x
 _atom_site_fract_y
 _atom_site_fract_z
 _atom_site_fract_occupancy
 F  F1  1  0.17295  0.03860  0.41231  1
 F  F2  1  0.87421  0.67294  0.91241  1
 F  F3  1  0.53819  0.23946  0.91243  1
 F  F4  1  0.82705  0.96140  0.58769  1
 F  F5  1  0.46181  0.76054  0.08757  1
 F  F6  1  0.12579  0.32706  0.08759  1
 F  F7  1  0.26063  0.62629  0.58769  1
 F  F8  1  0.73937  0.37371  0.41231  1
 Li  Li1  1  0.62527  0.87529  0.75060  1
 Li  Li2  1  0.37473  0.12471  0.24940  1
 Lu  Lu1  1  0.87504  0.62506  0.25011  1
 Lu  Lu2  1  0.12496  0.37494  0.74989  1
