CIF file written using JARVIS-Tools package.
data_NdAl4Co
_symmetry_space_group_name_H-M  'Pmma'
_cell_length_a       4.03842
_cell_length_b       6.90047
_cell_length_c       7.70154
_cell_angle_alpha    90
_cell_angle_beta     90
_cell_angle_gamma    90

_symmetry_Int_Tables_number  51
_chemical_formula_structural  NdAl4Co
_chemical_formula_sum  Nd2Al8Co2
_cell_volume  214.61861674210388
_cell_formula_units_Z  2
loop_
  _symmetry_equiv_pos_site_id
 _symmetry_equiv_pos_as_xyz
 1  'x, y, z'
loop_
 _atom_site_type_symbol
 _atom_site_label
 _atom_site_symmetry_multiplicity
 _atom_site_fract_x
 _atom_site_fract_y
 _atom_site_fract_z
 _atom_site_fract_occupancy
 Al  Al1  1  0.00000  0.00000  0.50000  1
 Al  Al2  1  0.00000  0.00000  0.00000  1
 Al  Al3  1  0.50000  0.04254  0.75000  1
 Al  Al4  1  0.50000  0.95746  0.25000  1
 Al  Al5  1  0.50000  0.30158  0.07057  1
 Al  Al6  1  0.50000  0.69842  0.92943  1
 Al  Al7  1  0.50000  0.30158  0.42943  1
 Al  Al8  1  0.50000  0.69842  0.57057  1
 Co  Co1  1  0.00000  0.81689  0.75000  1
 Co  Co2  1  0.00000  0.18311  0.25000  1
 Nd  Nd1  1  0.00000  0.38320  0.75000  1
 Nd  Nd2  1  0.00000  0.61680  0.25000  1
