CIF file written using JARVIS-Tools package.
data_Nb4CoP
_symmetry_space_group_name_H-M  'P4/mcc'
_cell_length_a       6.15455
_cell_length_b       6.15455
_cell_length_c       5.04534
_cell_angle_alpha    90
_cell_angle_beta     90
_cell_angle_gamma    90

_symmetry_Int_Tables_number  124
_chemical_formula_structural  Nb4CoP
_chemical_formula_sum  Nb8Co2P2
_cell_volume  191.10945379173924
_cell_formula_units_Z  2
loop_
  _symmetry_equiv_pos_site_id
 _symmetry_equiv_pos_as_xyz
 1  'x, y, z'
loop_
 _atom_site_type_symbol
 _atom_site_label
 _atom_site_symmetry_multiplicity
 _atom_site_fract_x
 _atom_site_fract_y
 _atom_site_fract_z
 _atom_site_fract_occupancy
 Co  Co1  1  0.00000  0.00000  0.75000  1
 Co  Co2  1  0.00000  0.00000  0.25000  1
 Nb  Nb1  1  0.33467  0.15741  0.50000  1
 Nb  Nb2  1  0.66533  0.84259  0.50000  1
 Nb  Nb3  1  0.15741  0.66533  0.50000  1
 Nb  Nb4  1  0.84259  0.33467  0.50000  1
 Nb  Nb5  1  0.33467  0.84259  0.00000  1
 Nb  Nb6  1  0.84259  0.66533  0.00000  1
 Nb  Nb7  1  0.15741  0.33467  0.00000  1
 Nb  Nb8  1  0.66533  0.15741  0.00000  1
 P  P1  1  0.50000  0.50000  0.75000  1
 P  P2  1  0.50000  0.50000  0.25000  1
