CIF file written using JARVIS-Tools package.
data_TiCu
_symmetry_space_group_name_H-M  'P4/nmm'
_cell_length_a       3.11859
_cell_length_b       3.11859
_cell_length_c       5.90927
_cell_angle_alpha    90
_cell_angle_beta     90
_cell_angle_gamma    90

_symmetry_Int_Tables_number  129
_chemical_formula_structural  TiCu
_chemical_formula_sum  Ti2Cu2
_cell_volume  57.47135362331192
_cell_formula_units_Z  2
loop_
  _symmetry_equiv_pos_site_id
 _symmetry_equiv_pos_as_xyz
 1  'x, y, z'
loop_
 _atom_site_type_symbol
 _atom_site_label
 _atom_site_symmetry_multiplicity
 _atom_site_fract_x
 _atom_site_fract_y
 _atom_site_fract_z
 _atom_site_fract_occupancy
 Cu  Cu1  1  0.50000  0.00000  0.88870  1
 Cu  Cu2  1  0.00000  0.50000  0.11130  1
 Ti  Ti1  1  0.50000  0.00000  0.35654  1
 Ti  Ti2  1  0.00000  0.50000  0.64346  1
