CIF file written using JARVIS-Tools package.
data_PrZnIn
_symmetry_space_group_name_H-M  'P6_3/mmc'
_cell_length_a       4.74113
_cell_length_b       4.74104
_cell_length_c       7.71385
_cell_angle_alpha    90
_cell_angle_beta     90
_cell_angle_gamma    120.001

_symmetry_Int_Tables_number  194
_chemical_formula_structural  PrZnIn
_chemical_formula_sum  Pr2Zn2In2
_cell_volume  150.16014491922476
_cell_formula_units_Z  2
loop_
  _symmetry_equiv_pos_site_id
 _symmetry_equiv_pos_as_xyz
 1  'x, y, z'
loop_
 _atom_site_type_symbol
 _atom_site_label
 _atom_site_symmetry_multiplicity
 _atom_site_fract_x
 _atom_site_fract_y
 _atom_site_fract_z
 _atom_site_fract_occupancy
 In  In1  1  0.33335  0.66671  0.25000  1
 In  In2  1  0.66665  0.33329  0.75000  1
 Pr  Pr1  1  0.00000  0.00000  0.50000  1
 Pr  Pr2  1  0.00000  0.00000  0.00000  1
 Zn  Zn1  1  0.33331  0.66662  0.75000  1
 Zn  Zn2  1  0.66669  0.33338  0.25000  1
