CIF file written using JARVIS-Tools package.
data_Ta3PbS6
_symmetry_space_group_name_H-M  'P6_3/mcm'
_cell_length_a       5.8175
_cell_length_b       5.8175
_cell_length_c       14.9653
_cell_angle_alpha    90
_cell_angle_beta     90
_cell_angle_gamma    120

_symmetry_Int_Tables_number  193
_chemical_formula_structural  Ta3PbS6
_chemical_formula_sum  Ta6Pb2S2
_cell_volume  438.62132232716317
_cell_formula_units_Z  2
loop_
  _symmetry_equiv_pos_site_id
 _symmetry_equiv_pos_as_xyz
 1  'x, y, z'
loop_
 _atom_site_type_symbol
 _atom_site_label
 _atom_site_symmetry_multiplicity
 _atom_site_fract_x
 _atom_site_fract_y
 _atom_site_fract_z
 _atom_site_fract_occupancy
 Pb  Pb1  1  0.00000  0.00000  0.00000  1
 Pb  Pb2  1  0.00000  0.00000  0.50000  1
 S  S1  1  0.66270  -0.00000  0.35440  1
 S  S2  1  0.00000  0.33730  0.64560  1
 S  S3  1  0.00000  0.33730  0.85440  1
 S  S4  1  0.33730  0.00000  0.64560  1
 S  S5  1  0.66270  -0.00000  0.14560  1
 S  S6  1  0.66270  0.66270  0.64560  1
 S  S7  1  -0.00000  0.66270  0.14560  1
 S  S8  1  0.33730  0.33730  0.14560  1
 S  S9  1  -0.00000  0.66270  0.35440  1
 S  S10  1  0.33730  0.00000  0.85440  1
 S  S11  1  0.66270  0.66270  0.85440  1
 S  S12  1  0.33730  0.33730  0.35440  1
 Ta  Ta1  1  0.33333  0.66667  0.25000  1
 Ta  Ta2  1  0.66667  0.33333  0.75000  1
 Ta  Ta3  1  0.66667  0.33333  0.25000  1
 Ta  Ta4  1  0.33333  0.66667  0.75000  1
 Ta  Ta5  1  0.00000  0.00000  0.25000  1
 Ta  Ta6  1  0.00000  0.00000  0.75000  1
