CIF file written using JARVIS-Tools package.
data_CaAl2SiO6
_symmetry_space_group_name_H-M  'Cc'
_cell_length_a       5.3075
_cell_length_b       6.51111
_cell_length_c       6.51111
_cell_angle_alpha    83.6367
_cell_angle_beta     78.3766
_cell_angle_gamma    78.3766

_symmetry_Int_Tables_number  9
_chemical_formula_structural  CaAl2SiO6
_chemical_formula_sum  Ca2Al4Si2O2
_cell_volume  215.2960940236458
_cell_formula_units_Z  2
loop_
  _symmetry_equiv_pos_site_id
 _symmetry_equiv_pos_as_xyz
 1  'x, y, z'
loop_
 _atom_site_type_symbol
 _atom_site_label
 _atom_site_symmetry_multiplicity
 _atom_site_fract_x
 _atom_site_fract_y
 _atom_site_fract_z
 _atom_site_fract_occupancy
 Al  Al1  1  0.21055  0.80915  0.61246  1
 Al  Al2  1  0.71055  0.61246  0.80915  1
 Al  Al3  1  0.26108  0.91086  0.08885  1
 Al  Al4  1  0.76108  0.08885  0.91086  1
 Ca  Ca1  1  0.24008  0.32126  0.69357  1
 Ca  Ca2  1  0.74008  0.69357  0.32126  1
 O  O1  1  0.12364  0.97553  0.82749  1
 O  O2  1  0.82295  0.35822  0.91423  1
 O  O3  1  0.97226  0.66103  0.60702  1
 O  O4  1  0.37460  0.20059  0.02008  1
 O  O5  1  0.32295  0.91423  0.35822  1
 O  O6  1  0.51299  0.35837  0.33339  1
 O  O7  1  0.01299  0.33339  0.35837  1
 O  O8  1  0.70010  0.11005  0.62655  1
 O  O9  1  0.20010  0.62655  0.11005  1
 O  O10  1  0.62364  0.82749  0.97553  1
 O  O11  1  0.87460  0.02008  0.20059  1
 O  O12  1  0.47226  0.60702  0.66103  1
 Si  Si1  1  0.78176  0.18875  0.38254  1
 Si  Si2  1  0.28176  0.38254  0.18875  1
