CIF file written using JARVIS-Tools package.
data_HgH12Cl2O14
_symmetry_space_group_name_H-M  'P-3m1'
_cell_length_a       7.91174
_cell_length_b       7.91169
_cell_length_c       5.4034
_cell_angle_alpha    90.0007
_cell_angle_beta     90
_cell_angle_gamma    120.001

_symmetry_Int_Tables_number  164
_chemical_formula_structural  HgH12Cl2O14
_chemical_formula_sum  HgH2Cl2O4
_cell_volume  292.9117545136372
_cell_formula_units_Z  1
loop_
  _symmetry_equiv_pos_site_id
 _symmetry_equiv_pos_as_xyz
 1  'x, y, z'
loop_
 _atom_site_type_symbol
 _atom_site_label
 _atom_site_symmetry_multiplicity
 _atom_site_fract_x
 _atom_site_fract_y
 _atom_site_fract_z
 _atom_site_fract_occupancy
 Cl  Cl1  1  0.66667  0.33333  0.81170  1
 Cl  Cl2  1  0.33333  0.66667  0.18830  1
 H  H1  1  0.35601  0.27853  0.26515  1
 H  H2  1  0.92252  0.64399  0.26515  1
 H  H3  1  0.72147  0.07749  0.26514  1
 H  H4  1  0.35601  0.07748  0.26515  1
 H  H5  1  0.72147  0.64398  0.26514  1
 H  H6  1  0.92252  0.27854  0.26515  1
 H  H7  1  0.64399  0.72147  0.73485  1
 H  H8  1  0.07748  0.35601  0.73485  1
 H  H9  1  0.27853  0.92251  0.73486  1
 H  H10  1  0.64399  0.92252  0.73485  1
 H  H11  1  0.27853  0.35602  0.73486  1
 H  H12  1  0.07748  0.72146  0.73485  1
 Hg  Hg1  1  0.00000  0.00000  0.00000  1
 O  O1  1  0.66667  0.33333  0.08046  1
 O  O2  1  0.27249  0.13624  0.27393  1
 O  O3  1  0.86376  0.72751  0.27393  1
 O  O4  1  0.86376  0.13625  0.27394  1
 O  O5  1  0.72751  0.86376  0.72607  1
 O  O6  1  0.13624  0.27249  0.72607  1
 O  O7  1  0.13624  0.86375  0.72606  1
 O  O8  1  0.86732  0.43366  0.72013  1
 O  O9  1  0.56634  0.13267  0.72013  1
 O  O10  1  0.56634  0.43366  0.72014  1
 O  O11  1  0.13268  0.56634  0.27987  1
 O  O12  1  0.43366  0.86733  0.27987  1
 O  O13  1  0.43366  0.56634  0.27986  1
 O  O14  1  0.33333  0.66667  0.91954  1
