CIF file written using JARVIS-Tools package.
data_Te2MoWSe2
_symmetry_space_group_name_H-M  'P3m1'
_cell_length_a       3.44411
_cell_length_b       3.44412
_cell_length_c       36.6912
_cell_angle_alpha    90.0007
_cell_angle_beta     90
_cell_angle_gamma    120

_symmetry_Int_Tables_number  156
_chemical_formula_structural  Te2MoWSe2
_chemical_formula_sum  Te4Mo2W2Se4
_cell_volume  376.9181134361766
_cell_formula_units_Z  2
loop_
  _symmetry_equiv_pos_site_id
 _symmetry_equiv_pos_as_xyz
 1  'x, y, z'
loop_
 _atom_site_type_symbol
 _atom_site_label
 _atom_site_symmetry_multiplicity
 _atom_site_fract_x
 _atom_site_fract_y
 _atom_site_fract_z
 _atom_site_fract_occupancy
 Mo  Mo1  1  0.33332  0.66664  0.09487  1
 Mo  Mo2  1  0.66668  0.33336  0.65694  1
 Se  Se1  1  0.66665  0.33329  0.05036  1
 Se  Se2  1  0.66664  0.33328  0.42458  1
 Se  Se3  1  0.66666  0.33332  0.13948  1
 Se  Se4  1  0.66667  0.33335  0.51412  1
 Te  Te1  1  0.33334  0.66669  0.33267  1
 Te  Te2  1  0.33334  0.66667  0.70755  1
 Te  Te3  1  0.33333  0.66667  0.23082  1
 Te  Te4  1  0.33336  0.66672  0.60626  1
 W  W1  1  0.33333  0.66666  0.46935  1
 W  W2  1  0.66667  0.33335  0.28175  1
