CIF file written using JARVIS-Tools package.
data_Ti2VTe4
_symmetry_space_group_name_H-M  'C2/m'
_cell_length_a       3.86751
_cell_length_b       6.90423
_cell_length_c       7.45559
_cell_angle_alpha    116.668
_cell_angle_beta     105.033
_cell_angle_gamma    90

_symmetry_Int_Tables_number  12
_chemical_formula_structural  Ti2VTe4
_chemical_formula_sum  Ti2VTe4
_cell_volume  170.2448080815534
_cell_formula_units_Z  1
loop_
  _symmetry_equiv_pos_site_id
 _symmetry_equiv_pos_as_xyz
 1  'x, y, z'
loop_
 _atom_site_type_symbol
 _atom_site_label
 _atom_site_symmetry_multiplicity
 _atom_site_fract_x
 _atom_site_fract_y
 _atom_site_fract_z
 _atom_site_fract_occupancy
 Te  Te1  1  0.10913  0.44941  0.21827  1
 Te  Te2  1  0.89087  0.55059  0.78173  1
 Te  Te3  1  0.36800  0.03498  0.73599  1
 Te  Te4  1  0.63200  0.96502  0.26401  1
 Ti  Ti1  1  0.25107  0.29148  0.50215  1
 Ti  Ti2  1  0.74893  0.70852  0.49785  1
 V  V1  1  0.00000  0.00000  0.00000  1
