CIF file written using JARVIS-Tools package.
data_Ho7FeI12
_symmetry_space_group_name_H-M  'R-3'
_cell_length_a       9.52331
_cell_length_b       9.52332
_cell_length_c       9.52331
_cell_angle_alpha    106.889
_cell_angle_beta     106.89
_cell_angle_gamma    106.89

_symmetry_Int_Tables_number  148
_chemical_formula_structural  Ho7FeI12
_chemical_formula_sum  Ho7FeI2
_cell_volume  721.4566823559976
_cell_formula_units_Z  1
loop_
  _symmetry_equiv_pos_site_id
 _symmetry_equiv_pos_as_xyz
 1  'x, y, z'
loop_
 _atom_site_type_symbol
 _atom_site_label
 _atom_site_symmetry_multiplicity
 _atom_site_fract_x
 _atom_site_fract_y
 _atom_site_fract_z
 _atom_site_fract_occupancy
 Fe  Fe1  1  0.50000  0.50000  0.50000  1
 Ho  Ho1  1  0.20859  0.47672  0.40735  1
 Ho  Ho2  1  0.59265  0.79141  0.52328  1
 Ho  Ho3  1  0.52328  0.59265  0.79141  1
 Ho  Ho4  1  0.40735  0.20859  0.47672  1
 Ho  Ho5  1  0.00000  0.00000  0.00000  1
 Ho  Ho6  1  0.47672  0.40735  0.20859  1
 Ho  Ho7  1  0.79141  0.52328  0.59265  1
 I  I1  1  0.34268  0.03111  0.11075  1
 I  I2  1  0.03111  0.11075  0.34268  1
 I  I3  1  0.11075  0.34268  0.03111  1
 I  I4  1  0.73128  0.17801  0.57368  1
 I  I5  1  0.26872  0.82199  0.42632  1
 I  I6  1  0.17801  0.57368  0.73128  1
 I  I7  1  0.42632  0.26872  0.82199  1
 I  I8  1  0.88925  0.65732  0.96889  1
 I  I9  1  0.82199  0.42632  0.26872  1
 I  I10  1  0.57368  0.73128  0.17801  1
 I  I11  1  0.96889  0.88925  0.65732  1
 I  I12  1  0.65732  0.96889  0.88925  1
