CIF file written using JARVIS-Tools package.
data_CaAl2SiO6
_symmetry_space_group_name_H-M  'C2'
_cell_length_a       5.31879
_cell_length_b       6.50213
_cell_length_c       6.50213
_cell_angle_alpha    83.8134
_cell_angle_beta     78.401
_cell_angle_gamma    78.401

_symmetry_Int_Tables_number  5
_chemical_formula_structural  CaAl2SiO6
_chemical_formula_sum  Ca2Al4Si2O2
_cell_volume  215.24409271045837
_cell_formula_units_Z  2
loop_
  _symmetry_equiv_pos_site_id
 _symmetry_equiv_pos_as_xyz
 1  'x, y, z'
loop_
 _atom_site_type_symbol
 _atom_site_label
 _atom_site_symmetry_multiplicity
 _atom_site_fract_x
 _atom_site_fract_y
 _atom_site_fract_z
 _atom_site_fract_occupancy
 Al  Al1  1  0.21381  0.81394  0.61517  1
 Al  Al2  1  0.28619  0.38483  0.18606  1
 Al  Al3  1  0.25000  0.91124  0.08876  1
 Al  Al4  1  0.75000  0.08979  0.91021  1
 Ca  Ca1  1  0.25000  0.31180  0.68820  1
 Ca  Ca2  1  0.75000  0.68840  0.31160  1
 O  O1  1  0.11280  0.98706  0.82110  1
 O  O2  1  0.80711  0.37351  0.90365  1
 O  O3  1  0.97300  0.65854  0.62715  1
 O  O4  1  0.38720  0.17890  0.01294  1
 O  O5  1  0.32450  0.89951  0.35673  1
 O  O6  1  0.52700  0.37285  0.34146  1
 O  O7  1  0.01444  0.32778  0.38119  1
 O  O8  1  0.69289  0.09635  0.62649  1
 O  O9  1  0.17550  0.64327  0.10049  1
 O  O10  1  0.63230  0.80482  0.96899  1
 O  O11  1  0.86770  0.03101  0.19518  1
 O  O12  1  0.48556  0.61881  0.67222  1
 Si  Si1  1  0.71792  0.61294  0.80536  1
 Si  Si2  1  0.78208  0.19464  0.38706  1
