CIF file written using JARVIS-Tools package.
data_YSiRh
_symmetry_space_group_name_H-M  'Pnma'
_cell_length_a       4.25231
_cell_length_b       6.91329
_cell_length_c       7.42598
_cell_angle_alpha    90
_cell_angle_beta     90
_cell_angle_gamma    90

_symmetry_Int_Tables_number  62
_chemical_formula_structural  YSiRh
_chemical_formula_sum  Y4Si4Rh4
_cell_volume  218.30485445096735
_cell_formula_units_Z  4
loop_
  _symmetry_equiv_pos_site_id
 _symmetry_equiv_pos_as_xyz
 1  'x, y, z'
loop_
 _atom_site_type_symbol
 _atom_site_label
 _atom_site_symmetry_multiplicity
 _atom_site_fract_x
 _atom_site_fract_y
 _atom_site_fract_z
 _atom_site_fract_occupancy
 Rh  Rh1  1  0.25000  0.65586  0.07076  1
 Rh  Rh2  1  0.25000  0.15586  0.42924  1
 Rh  Rh3  1  0.75000  0.84414  0.57076  1
 Rh  Rh4  1  0.75000  0.34414  0.92924  1
 Si  Si1  1  0.25000  0.29645  0.10275  1
 Si  Si2  1  0.25000  0.79645  0.39725  1
 Si  Si3  1  0.75000  0.70355  0.89725  1
 Si  Si4  1  0.75000  0.20355  0.60275  1
 Y  Y1  1  0.75000  0.50045  0.30995  1
 Y  Y2  1  0.25000  -0.00045  0.80995  1
 Y  Y3  1  0.75000  0.00045  0.19005  1
 Y  Y4  1  0.25000  0.49955  0.69005  1
