CIF file written using JARVIS-Tools package.
data_SrB4O7
_symmetry_space_group_name_H-M  'Pmn2_1'
_cell_length_a       4.25976
_cell_length_b       4.44996
_cell_length_c       10.7728
_cell_angle_alpha    90
_cell_angle_beta     90
_cell_angle_gamma    90

_symmetry_Int_Tables_number  31
_chemical_formula_structural  SrB4O7
_chemical_formula_sum  Sr2B8O4
_cell_volume  204.2062134300728
_cell_formula_units_Z  2
loop_
  _symmetry_equiv_pos_site_id
 _symmetry_equiv_pos_as_xyz
 1  'x, y, z'
loop_
 _atom_site_type_symbol
 _atom_site_label
 _atom_site_symmetry_multiplicity
 _atom_site_fract_x
 _atom_site_fract_y
 _atom_site_fract_z
 _atom_site_fract_occupancy
 B  B1  1  0.00639  0.32162  0.75097  1
 B  B2  1  0.50639  0.67838  0.74903  1
 B  B3  1  0.03032  0.82604  0.62151  1
 B  B4  1  0.53032  0.17396  0.87849  1
 B  B5  1  0.53032  0.17396  0.12151  1
 B  B6  1  0.03032  0.82604  0.37849  1
 B  B7  1  0.50639  0.67838  0.25097  1
 B  B8  1  0.00639  0.32162  0.24903  1
 O  O1  1  0.92514  0.72666  0.50000  1
 O  O2  1  0.95910  0.14324  0.64116  1
 O  O3  1  0.86693  0.22585  0.86435  1
 O  O4  1  0.36693  0.77415  0.36435  1
 O  O5  1  0.36693  0.77415  0.63565  1
 O  O6  1  0.36339  0.36765  0.22250  1
 O  O7  1  0.86693  0.22585  0.13565  1
 O  O8  1  0.45910  0.85676  0.85884  1
 O  O9  1  0.36339  0.36765  0.77750  1
 O  O10  1  0.45910  0.85676  0.14116  1
 O  O11  1  0.95910  0.14324  0.35884  1
 O  O12  1  0.86339  0.63235  0.27750  1
 O  O13  1  0.42514  0.27334  0.00000  1
 O  O14  1  0.86339  0.63235  0.72250  1
 Sr  Sr1  1  0.00059  0.71109  0.00000  1
 Sr  Sr2  1  0.50059  0.28891  0.50000  1
