CIF file written using JARVIS-Tools package.
data_Te2MoW2Se4
_symmetry_space_group_name_H-M  'P3m1'
_cell_length_a       3.40535
_cell_length_b       3.40538
_cell_length_c       29.155
_cell_angle_alpha    90.0099
_cell_angle_beta     90
_cell_angle_gamma    120

_symmetry_Int_Tables_number  156
_chemical_formula_structural  Te2MoW2Se4
_chemical_formula_sum  Te2MoW2Se4
_cell_volume  292.8011358179016
_cell_formula_units_Z  1
loop_
  _symmetry_equiv_pos_site_id
 _symmetry_equiv_pos_as_xyz
 1  'x, y, z'
loop_
 _atom_site_type_symbol
 _atom_site_label
 _atom_site_symmetry_multiplicity
 _atom_site_fract_x
 _atom_site_fract_y
 _atom_site_fract_z
 _atom_site_fract_occupancy
 Mo  Mo1  1  0.33310  0.66621  0.11012  1
 Se  Se1  1  0.66639  0.33277  0.05368  1
 Se  Se2  1  0.66666  0.33333  0.52738  1
 Se  Se3  1  0.66650  0.33299  0.16667  1
 Se  Se4  1  0.66680  0.33360  0.64087  1
 Te  Te1  1  0.33353  0.66706  0.41131  1
 Te  Te2  1  0.33341  0.66683  0.28200  1
 W  W1  1  0.33340  0.66680  0.58417  1
 W  W2  1  0.66681  0.33361  0.34666  1
