CIF file written using JARVIS-Tools package.
data_SrAlSiH
_symmetry_space_group_name_H-M  'P3m1'
_cell_length_a       4.2359
_cell_length_b       4.2359
_cell_length_c       4.96058
_cell_angle_alpha    90
_cell_angle_beta     90
_cell_angle_gamma    120

_symmetry_Int_Tables_number  156
_chemical_formula_structural  SrAlSiH
_chemical_formula_sum  SrAlSiH
_cell_volume  77.0822100012532
_cell_formula_units_Z  1
loop_
  _symmetry_equiv_pos_site_id
 _symmetry_equiv_pos_as_xyz
 1  'x, y, z'
loop_
 _atom_site_type_symbol
 _atom_site_label
 _atom_site_symmetry_multiplicity
 _atom_site_fract_x
 _atom_site_fract_y
 _atom_site_fract_z
 _atom_site_fract_occupancy
 Al  Al1  1  0.66667  0.33333  0.45958  1
 H  H1  1  0.66667  0.33333  0.10564  1
 Si  Si1  1  0.33333  0.66667  0.55691  1
 Sr  Sr1  1  0.00000  0.00000  0.00087  1
