CIF file written using JARVIS-Tools package.
data_Nb2Tl4S11
_symmetry_space_group_name_H-M  'P-1'
_cell_length_a       7.87526
_cell_length_b       8.91352
_cell_length_c       13.3348
_cell_angle_alpha    107.702
_cell_angle_beta     88.9537
_cell_angle_gamma    94.039

_symmetry_Int_Tables_number  2
_chemical_formula_structural  Nb2Tl4S11
_chemical_formula_sum  Nb4Tl8S22
_cell_volume  889.509474213893
_cell_formula_units_Z  2
loop_
  _symmetry_equiv_pos_site_id
 _symmetry_equiv_pos_as_xyz
 1  'x, y, z'
loop_
 _atom_site_type_symbol
 _atom_site_label
 _atom_site_symmetry_multiplicity
 _atom_site_fract_x
 _atom_site_fract_y
 _atom_site_fract_z
 _atom_site_fract_occupancy
 Nb  Nb1  1  0.11918  0.63508  0.30420  1
 Nb  Nb2  1  0.88082  0.36492  0.69580  1
 Nb  Nb3  1  0.33358  0.89489  0.18987  1
 Nb  Nb4  1  0.66642  0.10511  0.81013  1
 S  S1  1  0.72940  0.03672  0.95770  1
 S  S2  1  0.36143  0.14590  0.33510  1
 S  S3  1  0.04151  0.34774  0.24379  1
 S  S4  1  0.39776  0.56266  0.34882  1
 S  S5  1  0.88521  0.48561  0.18598  1
 S  S6  1  0.11479  0.51439  0.81402  1
 S  S7  1  0.58988  0.07816  0.25526  1
 S  S8  1  0.27060  0.96328  0.04230  1
 S  S9  1  0.39265  0.80455  0.37072  1
 S  S10  1  0.60735  0.19545  0.62928  1
 S  S11  1  0.98929  0.70959  0.46794  1
 S  S12  1  0.01071  0.29041  0.53206  1
 S  S13  1  0.95849  0.65226  0.75621  1
 S  S14  1  0.52932  0.68378  0.11788  1
 S  S15  1  0.72613  0.39864  0.89051  1
 S  S16  1  0.60224  0.43734  0.65118  1
 S  S17  1  0.27387  0.60136  0.10949  1
 S  S18  1  0.96597  0.12926  0.74665  1
 S  S19  1  0.03403  0.87074  0.25335  1
 S  S20  1  0.63857  0.85410  0.66490  1
 S  S21  1  0.47068  0.31622  0.88212  1
 S  S22  1  0.41012  0.92184  0.74474  1
 Tl  Tl1  1  0.50204  0.28312  0.11670  1
 Tl  Tl2  1  0.24926  0.57849  0.58124  1
 Tl  Tl3  1  0.75074  0.42151  0.41876  1
 Tl  Tl4  1  0.49796  0.71688  0.88330  1
 Tl  Tl5  1  0.06430  0.23853  0.97735  1
 Tl  Tl6  1  0.22147  0.03201  0.57112  1
 Tl  Tl7  1  0.77853  0.96799  0.42888  1
 Tl  Tl8  1  0.93570  0.76147  0.02265  1
