CIF file written using JARVIS-Tools package.
data_DyB2Rh3
_symmetry_space_group_name_H-M  'P6/mmm'
_cell_length_a       3.15369
_cell_length_b       5.39864
_cell_length_c       5.3986
_cell_angle_alpha    59.9998
_cell_angle_beta     89.9991
_cell_angle_gamma    89.9982

_symmetry_Int_Tables_number  191
_chemical_formula_structural  DyB2Rh3
_chemical_formula_sum  DyB2Rh3
_cell_volume  79.60011797310003
_cell_formula_units_Z  1
loop_
  _symmetry_equiv_pos_site_id
 _symmetry_equiv_pos_as_xyz
 1  'x, y, z'
loop_
 _atom_site_type_symbol
 _atom_site_label
 _atom_site_symmetry_multiplicity
 _atom_site_fract_x
 _atom_site_fract_y
 _atom_site_fract_z
 _atom_site_fract_occupancy
 B  B1  1  0.50000  0.16667  0.66665  1
 B  B2  1  0.50000  0.83333  0.33335  1
 Dy  Dy1  1  0.50000  0.50000  0.00000  1
 Rh  Rh1  1  0.00000  0.00000  0.50000  1
 Rh  Rh2  1  -0.00000  0.50000  0.50000  1
 Rh  Rh3  1  0.00000  0.00000  0.00000  1
