CIF file written using JARVIS-Tools package.
data_SmZnRh
_symmetry_space_group_name_H-M  'Pnma'
_cell_length_a       4.09588
_cell_length_b       7.02884
_cell_length_c       8.17726
_cell_angle_alpha    90
_cell_angle_beta     90
_cell_angle_gamma    90

_symmetry_Int_Tables_number  62
_chemical_formula_structural  SmZnRh
_chemical_formula_sum  Sm4Zn4Rh4
_cell_volume  235.41776128621362
_cell_formula_units_Z  4
loop_
  _symmetry_equiv_pos_site_id
 _symmetry_equiv_pos_as_xyz
 1  'x, y, z'
loop_
 _atom_site_type_symbol
 _atom_site_label
 _atom_site_symmetry_multiplicity
 _atom_site_fract_x
 _atom_site_fract_y
 _atom_site_fract_z
 _atom_site_fract_occupancy
 Rh  Rh1  1  0.75000  0.74290  0.38045  1
 Rh  Rh2  1  0.25000  0.25710  0.61955  1
 Rh  Rh3  1  0.75000  0.24290  0.11955  1
 Rh  Rh4  1  0.25000  0.75710  0.88045  1
 Sm  Sm1  1  0.25000  0.53740  0.18646  1
 Sm  Sm2  1  0.75000  0.46260  0.81354  1
 Sm  Sm3  1  0.25000  0.03740  0.31354  1
 Sm  Sm4  1  0.75000  0.96260  0.68646  1
 Zn  Zn1  1  0.25000  0.13935  0.93510  1
 Zn  Zn2  1  0.75000  0.86065  0.06490  1
 Zn  Zn3  1  0.25000  0.63935  0.56490  1
 Zn  Zn4  1  0.75000  0.36065  0.43510  1
