CIF file written using JARVIS-Tools package.
data_CaNi4O6
_symmetry_space_group_name_H-M  'Cmcm'
_cell_length_a       3.02749
_cell_length_b       5.06488
_cell_length_c       14.7099
_cell_angle_alpha    90
_cell_angle_beta     90
_cell_angle_gamma    107.39

_symmetry_Int_Tables_number  63
_chemical_formula_structural  CaNi4O6
_chemical_formula_sum  Ca2Ni8O2
_cell_volume  215.25005765334117
_cell_formula_units_Z  2
loop_
  _symmetry_equiv_pos_site_id
 _symmetry_equiv_pos_as_xyz
 1  'x, y, z'
loop_
 _atom_site_type_symbol
 _atom_site_label
 _atom_site_symmetry_multiplicity
 _atom_site_fract_x
 _atom_site_fract_y
 _atom_site_fract_z
 _atom_site_fract_occupancy
 Ca  Ca1  1  0.65966  0.31932  0.75000  1
 Ca  Ca2  1  0.34034  0.68068  0.25000  1
 Ni  Ni1  1  0.86260  0.72521  0.04109  1
 Ni  Ni2  1  0.41089  0.82177  0.63274  1
 Ni  Ni3  1  0.13739  0.27479  0.95891  1
 Ni  Ni4  1  0.58911  0.17823  0.36726  1
 Ni  Ni5  1  0.86260  0.72521  0.45891  1
 Ni  Ni6  1  0.13739  0.27479  0.54109  1
 Ni  Ni7  1  0.58911  0.17823  0.13274  1
 Ni  Ni8  1  0.41089  0.82177  0.86726  1
 O  O1  1  0.33214  0.66429  0.75000  1
 O  O2  1  0.50000  0.00000  0.00000  1
 O  O3  1  0.04214  0.08427  0.84893  1
 O  O4  1  0.95786  0.91573  0.15107  1
 O  O5  1  0.50000  0.00000  0.50000  1
 O  O6  1  0.77623  0.55246  0.57764  1
 O  O7  1  0.77623  0.55246  0.92236  1
 O  O8  1  0.22377  0.44755  0.07764  1
 O  O9  1  0.22377  0.44755  0.42236  1
 O  O10  1  0.95786  0.91573  0.34893  1
 O  O11  1  0.04214  0.08427  0.65107  1
 O  O12  1  0.66785  0.33571  0.25000  1
