CIF file written using JARVIS-Tools package.
data_NiAgSe2
_symmetry_space_group_name_H-M  'R3m'
_cell_length_a       3.62128
_cell_length_b       3.62128
_cell_length_c       7.25988
_cell_angle_alpha    75.5578
_cell_angle_beta     75.5577
_cell_angle_gamma    60

_symmetry_Int_Tables_number  160
_chemical_formula_structural  NiAgSe2
_chemical_formula_sum  NiAgSe2
_cell_volume  78.95586520326431
_cell_formula_units_Z  1
loop_
  _symmetry_equiv_pos_site_id
 _symmetry_equiv_pos_as_xyz
 1  'x, y, z'
loop_
 _atom_site_type_symbol
 _atom_site_label
 _atom_site_symmetry_multiplicity
 _atom_site_fract_x
 _atom_site_fract_y
 _atom_site_fract_z
 _atom_site_fract_occupancy
 Ag  Ag1  1  0.14966  0.14966  0.55102  1
 Ni  Ni1  1  0.99651  0.99651  0.01049  1
 Se  Se1  1  0.27126  0.27126  0.18623  1
 Se  Se2  1  0.72658  0.72658  0.82026  1
