CIF file written using JARVIS-Tools package.
data_CuSe2
_symmetry_space_group_name_H-M  'Pnnm'
_cell_length_a       3.79963
_cell_length_b       5.06869
_cell_length_c       6.25258
_cell_angle_alpha    90
_cell_angle_beta     90
_cell_angle_gamma    90

_symmetry_Int_Tables_number  58
_chemical_formula_structural  CuSe2
_chemical_formula_sum  Cu2Se4
_cell_volume  120.41916708103442
_cell_formula_units_Z  2
loop_
  _symmetry_equiv_pos_site_id
 _symmetry_equiv_pos_as_xyz
 1  'x, y, z'
loop_
 _atom_site_type_symbol
 _atom_site_label
 _atom_site_symmetry_multiplicity
 _atom_site_fract_x
 _atom_site_fract_y
 _atom_site_fract_z
 _atom_site_fract_occupancy
 Cu  Cu1  1  0.00000  0.00000  0.00000  1
 Cu  Cu2  1  0.50000  0.50000  0.50000  1
 Se  Se1  1  0.00000  0.18653  0.38500  1
 Se  Se2  1  0.00000  0.81347  0.61500  1
 Se  Se3  1  0.50000  0.68653  0.11500  1
 Se  Se4  1  0.50000  0.31347  0.88500  1
