CIF file written using JARVIS-Tools package.
data_Ni2O3
_symmetry_space_group_name_H-M  'Cmcm'
_cell_length_a       2.88849
_cell_length_b       4.95678
_cell_length_c       14.3907
_cell_angle_alpha    90
_cell_angle_beta     90
_cell_angle_gamma    106.94

_symmetry_Int_Tables_number  63
_chemical_formula_structural  Ni2O3
_chemical_formula_sum  Ni8O2
_cell_volume  197.10104096000035
_cell_formula_units_Z  4
loop_
  _symmetry_equiv_pos_site_id
 _symmetry_equiv_pos_as_xyz
 1  'x, y, z'
loop_
 _atom_site_type_symbol
 _atom_site_label
 _atom_site_symmetry_multiplicity
 _atom_site_fract_x
 _atom_site_fract_y
 _atom_site_fract_z
 _atom_site_fract_occupancy
 Ni  Ni1  1  0.86373  0.72746  0.04709  1
 Ni  Ni2  1  0.13627  0.27254  0.95291  1
 Ni  Ni3  1  0.86373  0.72746  0.45291  1
 Ni  Ni4  1  0.13627  0.27254  0.54709  1
 Ni  Ni5  1  0.41145  0.82290  0.64124  1
 Ni  Ni6  1  0.58855  0.17710  0.35876  1
 Ni  Ni7  1  0.58855  0.17710  0.14124  1
 Ni  Ni8  1  0.41145  0.82290  0.85876  1
 O  O1  1  0.50000  0.00000  0.50000  1
 O  O2  1  0.32545  0.65090  0.75000  1
 O  O3  1  0.03594  0.07189  0.84474  1
 O  O4  1  0.96406  0.92811  0.15526  1
 O  O5  1  0.50000  0.00000  0.00000  1
 O  O6  1  0.22078  0.44156  0.42431  1
 O  O7  1  0.77922  0.55844  0.92431  1
 O  O8  1  0.22078  0.44156  0.07569  1
 O  O9  1  0.96406  0.92811  0.34474  1
 O  O10  1  0.77922  0.55844  0.57569  1
 O  O11  1  0.03594  0.07189  0.65526  1
 O  O12  1  0.67455  0.34910  0.25000  1
