CIF file written using JARVIS-Tools package.
data_RbUCuS3
_symmetry_space_group_name_H-M  'Cmcm'
_cell_length_a       3.9367
_cell_length_b       7.49312
_cell_length_c       10.2041
_cell_angle_alpha    90
_cell_angle_beta     90
_cell_angle_gamma    105.23

_symmetry_Int_Tables_number  63
_chemical_formula_structural  RbUCuS3
_chemical_formula_sum  Rb2U2Cu2S6
_cell_volume  290.4313961108353
_cell_formula_units_Z  2
loop_
  _symmetry_equiv_pos_site_id
 _symmetry_equiv_pos_as_xyz
 1  'x, y, z'
loop_
 _atom_site_type_symbol
 _atom_site_label
 _atom_site_symmetry_multiplicity
 _atom_site_fract_x
 _atom_site_fract_y
 _atom_site_fract_z
 _atom_site_fract_occupancy
 Cu  Cu1  1  0.46320  0.92640  0.75000  1
 Cu  Cu2  1  0.53680  0.07360  0.25000  1
 Rb  Rb1  1  0.25925  0.51851  0.25000  1
 Rb  Rb2  1  0.74075  0.48149  0.75000  1
 S  S1  1  0.37845  0.75691  0.55697  1
 S  S2  1  0.62155  0.24309  0.44303  1
 S  S3  1  0.62155  0.24309  0.05697  1
 S  S4  1  0.05729  0.11459  0.75000  1
 S  S5  1  0.94271  0.88541  0.25000  1
 S  S6  1  0.37845  0.75691  0.94303  1
 U  U1  1  0.00000  0.00000  0.50000  1
 U  U2  1  0.00000  0.00000  0.00000  1
