CIF file written using JARVIS-Tools package.
data_Nb5Ga4
_symmetry_space_group_name_H-M  'P6_3/mcm'
_cell_length_a       8.00369
_cell_length_b       8.00369
_cell_length_c       5.46344
_cell_angle_alpha    90
_cell_angle_beta     90
_cell_angle_gamma    120

_symmetry_Int_Tables_number  193
_chemical_formula_structural  Nb5Ga4
_chemical_formula_sum  Nb0Ga8
_cell_volume  303.0937918902429
_cell_formula_units_Z  2
loop_
  _symmetry_equiv_pos_site_id
 _symmetry_equiv_pos_as_xyz
 1  'x, y, z'
loop_
 _atom_site_type_symbol
 _atom_site_label
 _atom_site_symmetry_multiplicity
 _atom_site_fract_x
 _atom_site_fract_y
 _atom_site_fract_z
 _atom_site_fract_occupancy
 Ga  Ga1  1  0.38347  -0.00000  0.25000  1
 Ga  Ga2  1  0.61653  0.61653  0.25000  1
 Ga  Ga3  1  -0.00000  0.38347  0.25000  1
 Ga  Ga4  1  0.61653  0.00000  0.75000  1
 Ga  Ga5  1  0.00000  0.00000  0.50000  1
 Ga  Ga6  1  0.00000  0.00000  0.00000  1
 Ga  Ga7  1  0.00000  0.61653  0.75000  1
 Ga  Ga8  1  0.38347  0.38347  0.75000  1
 Nb  Nb1  1  0.28088  -0.00000  0.75000  1
 Nb  Nb2  1  0.66667  0.33333  0.00000  1
 Nb  Nb3  1  0.66667  0.33333  0.50000  1
 Nb  Nb4  1  -0.00000  0.28088  0.75000  1
 Nb  Nb5  1  0.00000  0.71912  0.25000  1
 Nb  Nb6  1  0.28088  0.28088  0.25000  1
 Nb  Nb7  1  0.71912  0.71912  0.75000  1
 Nb  Nb8  1  0.71912  0.00000  0.25000  1
 Nb  Nb9  1  0.33333  0.66667  0.00000  1
 Nb  Nb10  1  0.33333  0.66667  0.50000  1
