CIF file written using JARVIS-Tools package.
data_ErGePd2
_symmetry_space_group_name_H-M  'Pnma'
_cell_length_a       5.57563
_cell_length_b       7.12021
_cell_length_c       7.32156
_cell_angle_alpha    90
_cell_angle_beta     90
_cell_angle_gamma    90

_symmetry_Int_Tables_number  62
_chemical_formula_structural  ErGePd2
_chemical_formula_sum  Er4Ge4Pd8
_cell_volume  290.66329321016406
_cell_formula_units_Z  4
loop_
  _symmetry_equiv_pos_site_id
 _symmetry_equiv_pos_as_xyz
 1  'x, y, z'
loop_
 _atom_site_type_symbol
 _atom_site_label
 _atom_site_symmetry_multiplicity
 _atom_site_fract_x
 _atom_site_fract_y
 _atom_site_fract_z
 _atom_site_fract_occupancy
 Er  Er1  1  0.14544  0.75000  0.52839  1
 Er  Er2  1  0.64544  0.25000  0.97161  1
 Er  Er3  1  0.85456  0.25000  0.47161  1
 Er  Er4  1  0.35456  0.75000  0.02839  1
 Ge  Ge1  1  0.85522  0.75000  0.88332  1
 Ge  Ge2  1  0.35522  0.25000  0.61668  1
 Ge  Ge3  1  0.14478  0.25000  0.11668  1
 Ge  Ge4  1  0.64478  0.75000  0.38332  1
 Pd  Pd1  1  0.91561  0.94990  0.18676  1
 Pd  Pd2  1  0.41561  0.05010  0.31324  1
 Pd  Pd3  1  0.08439  0.44990  0.81324  1
 Pd  Pd4  1  0.58439  0.55010  0.68676  1
 Pd  Pd5  1  0.08439  0.05010  0.81324  1
 Pd  Pd6  1  0.58439  0.94990  0.68676  1
 Pd  Pd7  1  0.91561  0.55010  0.18676  1
 Pd  Pd8  1  0.41561  0.44990  0.31324  1
