CIF file written using JARVIS-Tools package.
data_CaTiGeO5
_symmetry_space_group_name_H-M  'P2_1/c'
_cell_length_a       6.70066
_cell_length_b       8.96268
_cell_length_c       7.19739
_cell_angle_alpha    90
_cell_angle_beta     113.704
_cell_angle_gamma    90

_symmetry_Int_Tables_number  14
_chemical_formula_structural  CaTiGeO5
_chemical_formula_sum  Ca4Ti4Ge4O20
_cell_volume  395.7803464568647
_cell_formula_units_Z  4
loop_
  _symmetry_equiv_pos_site_id
 _symmetry_equiv_pos_as_xyz
 1  'x, y, z'
loop_
 _atom_site_type_symbol
 _atom_site_label
 _atom_site_symmetry_multiplicity
 _atom_site_fract_x
 _atom_site_fract_y
 _atom_site_fract_z
 _atom_site_fract_occupancy
 Ca  Ca1  1  0.74989  0.42379  0.75404  1
 Ca  Ca2  1  0.25011  0.92379  0.74596  1
 Ca  Ca3  1  0.25011  0.57621  0.24596  1
 Ca  Ca4  1  0.74989  0.07621  0.25404  1
 Ge  Ge1  1  0.24908  0.93174  0.24845  1
 Ge  Ge2  1  0.75092  0.43174  0.25155  1
 Ge  Ge3  1  0.75092  0.06826  0.75155  1
 Ge  Ge4  1  0.24908  0.56826  0.74845  1
 O  O1  1  0.85717  0.54226  0.10717  1
 O  O2  1  0.05920  0.80673  0.07517  1
 O  O3  1  0.85717  0.95774  0.60717  1
 O  O4  1  0.14283  0.45774  0.89283  1
 O  O5  1  0.35750  0.04126  0.10522  1
 O  O6  1  0.64250  0.54126  0.39478  1
 O  O7  1  0.64250  0.95874  0.89478  1
 O  O8  1  0.35750  0.45874  0.60522  1
 O  O9  1  0.14283  0.04226  0.39283  1
 O  O10  1  0.43877  0.69296  0.92285  1
 O  O11  1  0.94080  0.19327  0.92483  1
 O  O12  1  0.24946  0.18215  0.74949  1
 O  O13  1  0.75054  0.81785  0.25051  1
 O  O14  1  0.75054  0.68215  0.75051  1
 O  O15  1  0.94080  0.30673  0.42483  1
 O  O16  1  0.56123  0.30704  0.07715  1
 O  O17  1  0.43877  0.80704  0.42285  1
 O  O18  1  0.05920  0.69327  0.57517  1
 O  O19  1  0.24946  0.31785  0.24949  1
 O  O20  1  0.56123  0.19296  0.57715  1
 Ti  Ti1  1  0.25061  0.25252  0.49087  1
 Ti  Ti2  1  0.74939  0.75252  0.00913  1
 Ti  Ti3  1  0.74939  0.74748  0.50913  1
 Ti  Ti4  1  0.25061  0.24748  0.99087  1
