CIF file written using JARVIS-Tools package.
data_HoZnRh
_symmetry_space_group_name_H-M  'Pnma'
_cell_length_a       4.00052
_cell_length_b       6.9062
_cell_length_c       8.09662
_cell_angle_alpha    90
_cell_angle_beta     90
_cell_angle_gamma    90

_symmetry_Int_Tables_number  62
_chemical_formula_structural  HoZnRh
_chemical_formula_sum  Ho4Zn4Rh4
_cell_volume  223.69646150976465
_cell_formula_units_Z  4
loop_
  _symmetry_equiv_pos_site_id
 _symmetry_equiv_pos_as_xyz
 1  'x, y, z'
loop_
 _atom_site_type_symbol
 _atom_site_label
 _atom_site_symmetry_multiplicity
 _atom_site_fract_x
 _atom_site_fract_y
 _atom_site_fract_z
 _atom_site_fract_occupancy
 Ho  Ho1  1  0.25000  0.54069  0.18349  1
 Ho  Ho2  1  0.75000  0.45931  0.81651  1
 Ho  Ho3  1  0.25000  0.04069  0.31651  1
 Ho  Ho4  1  0.75000  0.95931  0.68349  1
 Rh  Rh1  1  0.75000  0.74767  0.37668  1
 Rh  Rh2  1  0.25000  0.25233  0.62332  1
 Rh  Rh3  1  0.75000  0.24767  0.12332  1
 Rh  Rh4  1  0.25000  0.75233  0.87668  1
 Zn  Zn1  1  0.25000  0.13620  0.93578  1
 Zn  Zn2  1  0.75000  0.86380  0.06422  1
 Zn  Zn3  1  0.25000  0.63620  0.56422  1
 Zn  Zn4  1  0.75000  0.36380  0.43578  1
