CIF file written using JARVIS-Tools package.
data_SrNi2P2H4O10
_symmetry_space_group_name_H-M  'C2/m'
_cell_length_a       5.39895
_cell_length_b       5.39895
_cell_length_c       7.42218
_cell_angle_alpha    109.79
_cell_angle_beta     70.2096
_cell_angle_gamma    112.202

_symmetry_Int_Tables_number  12
_chemical_formula_structural  SrNi2P2H4O10
_chemical_formula_sum  SrNi2P2H4O0
_cell_volume  182.88321341369976
_cell_formula_units_Z  1
loop_
  _symmetry_equiv_pos_site_id
 _symmetry_equiv_pos_as_xyz
 1  'x, y, z'
loop_
 _atom_site_type_symbol
 _atom_site_label
 _atom_site_symmetry_multiplicity
 _atom_site_fract_x
 _atom_site_fract_y
 _atom_site_fract_z
 _atom_site_fract_occupancy
 H  H1  1  0.25528  0.74472  0.20746  1
 H  H2  1  0.07384  0.92616  0.36587  1
 H  H3  1  0.92616  0.07384  0.63413  1
 H  H4  1  0.74472  0.25528  0.79254  1
 Ni  Ni1  1  0.50000  -0.00000  0.50000  1
 Ni  Ni2  1  1.00000  0.50000  0.50000  1
 O  O1  1  0.29934  0.70066  0.66173  1
 O  O2  1  0.30725  0.26568  0.72734  1
 O  O3  1  0.29647  0.70353  0.99670  1
 O  O4  1  0.26568  0.30725  0.27266  1
 O  O5  1  0.70353  0.29647  0.00330  1
 O  O6  1  0.70066  0.29934  0.33827  1
 O  O7  1  0.73432  0.69275  0.72734  1
 O  O8  1  0.81474  0.18526  0.63899  1
 O  O9  1  0.69275  0.73432  0.27266  1
 O  O10  1  0.18526  0.81474  0.36101  1
 P  P1  1  0.41360  0.58640  0.77745  1
 P  P2  1  0.58640  0.41360  0.22255  1
 Sr  Sr1  1  0.00000  0.00000  0.00000  1
