CIF file written using JARVIS-Tools package.
data_ZrIn2
_symmetry_space_group_name_H-M  'I4_1/amd'
_cell_length_a       4.41979
_cell_length_b       4.41979
_cell_length_c       14.1558
_cell_angle_alpha    98.9813
_cell_angle_beta     98.9813
_cell_angle_gamma    90

_symmetry_Int_Tables_number  141
_chemical_formula_structural  ZrIn2
_chemical_formula_sum  Zr4In8
_cell_volume  269.7036524965577
_cell_formula_units_Z  4
loop_
  _symmetry_equiv_pos_site_id
 _symmetry_equiv_pos_as_xyz
 1  'x, y, z'
loop_
 _atom_site_type_symbol
 _atom_site_label
 _atom_site_symmetry_multiplicity
 _atom_site_fract_x
 _atom_site_fract_y
 _atom_site_fract_z
 _atom_site_fract_occupancy
 In  In1  1  0.87557  0.12557  0.25114  1
 In  In2  1  0.62557  0.37557  0.75114  1
 In  In3  1  0.12443  0.87443  0.74886  1
 In  In4  1  0.37443  0.62443  0.24886  1
 In  In5  1  0.03679  0.28679  0.57357  1
 In  In6  1  0.78679  0.53679  0.07357  1
 In  In7  1  0.96321  0.71321  0.42643  1
 In  In8  1  0.21321  0.46321  0.92643  1
 Zr  Zr1  1  0.70193  0.95193  0.90387  1
 Zr  Zr2  1  0.45193  0.20193  0.40387  1
 Zr  Zr3  1  0.29807  0.04807  0.09613  1
 Zr  Zr4  1  0.54807  0.79807  0.59613  1
