CIF file written using JARVIS-Tools package.
data_CaMn4S8
_symmetry_space_group_name_H-M  'R-3m'
_cell_length_a       7.57682
_cell_length_b       7.57682
_cell_length_c       7.57681
_cell_angle_alpha    52.5971
_cell_angle_beta     52.5972
_cell_angle_gamma    52.5971

_symmetry_Int_Tables_number  166
_chemical_formula_structural  CaMn4S8
_chemical_formula_sum  CaMn4S8
_cell_volume  254.13489334558082
_cell_formula_units_Z  1
loop_
  _symmetry_equiv_pos_site_id
 _symmetry_equiv_pos_as_xyz
 1  'x, y, z'
loop_
 _atom_site_type_symbol
 _atom_site_label
 _atom_site_symmetry_multiplicity
 _atom_site_fract_x
 _atom_site_fract_y
 _atom_site_fract_z
 _atom_site_fract_occupancy
 Ca  Ca1  1  0.50000  0.50000  0.50000  1
 Mn  Mn1  1  0.50000  1.00000  0.50000  1
 Mn  Mn2  1  1.00000  0.50000  0.50000  1
 Mn  Mn3  1  0.50000  0.50000  -0.00000  1
 Mn  Mn4  1  0.00000  0.00000  0.00000  1
 S  S1  1  0.76846  0.26190  0.76846  1
 S  S2  1  0.23154  0.23154  0.73810  1
 S  S3  1  0.23154  0.73810  0.23154  1
 S  S4  1  0.73810  0.23154  0.23154  1
 S  S5  1  0.26566  0.26566  0.26566  1
 S  S6  1  0.73434  0.73434  0.73434  1
 S  S7  1  0.26190  0.76846  0.76846  1
 S  S8  1  0.76846  0.76846  0.26190  1
