CIF file written using JARVIS-Tools package.
data_SrBe13
_symmetry_space_group_name_H-M  'Fm-3c'
_cell_length_a       7.35409
_cell_length_b       7.35409
_cell_length_c       7.3541
_cell_angle_alpha    60
_cell_angle_beta     60
_cell_angle_gamma    60

_symmetry_Int_Tables_number  226
_chemical_formula_structural  SrBe13
_chemical_formula_sum  Sr2Be26
_cell_volume  281.23732873894164
_cell_formula_units_Z  2
loop_
  _symmetry_equiv_pos_site_id
 _symmetry_equiv_pos_as_xyz
 1  'x, y, z'
loop_
 _atom_site_type_symbol
 _atom_site_label
 _atom_site_symmetry_multiplicity
 _atom_site_fract_x
 _atom_site_fract_y
 _atom_site_fract_z
 _atom_site_fract_occupancy
 Be  Be1  1  0.06560  0.93440  0.71471  1
 Be  Be2  1  0.50000  0.50000  0.50000  1
 Be  Be3  1  0.28529  0.93440  0.06560  1
 Be  Be4  1  0.56560  0.43440  0.78529  1
 Be  Be5  1  0.78529  0.21471  0.56560  1
 Be  Be6  1  0.56560  0.78529  0.21471  1
 Be  Be7  1  0.43440  0.21471  0.78529  1
 Be  Be8  1  0.43440  0.78529  0.56560  1
 Be  Be9  1  0.78529  0.43440  0.21471  1
 Be  Be10  1  0.06560  0.28529  0.93440  1
 Be  Be11  1  0.93440  0.06560  0.28529  1
 Be  Be12  1  0.71471  0.28529  0.06560  1
 Be  Be13  1  0.00000  0.00000  0.00000  1
 Be  Be14  1  0.71471  0.93440  0.28529  1
 Be  Be15  1  0.28529  0.06560  0.71471  1
 Be  Be16  1  0.28529  0.71471  0.93440  1
 Be  Be17  1  0.78529  0.56560  0.43440  1
 Be  Be18  1  0.21471  0.78529  0.43440  1
 Be  Be19  1  0.21471  0.56560  0.78529  1
 Be  Be20  1  0.56560  0.21471  0.43440  1
 Be  Be21  1  0.43440  0.56560  0.21471  1
 Be  Be22  1  0.21471  0.43440  0.56560  1
 Be  Be23  1  0.06560  0.71471  0.28529  1
 Be  Be24  1  0.71471  0.06560  0.93440  1
 Be  Be25  1  0.93440  0.28529  0.71471  1
 Be  Be26  1  0.93440  0.71471  0.06560  1
 Sr  Sr1  1  0.25000  0.25000  0.25000  1
 Sr  Sr2  1  0.75000  0.75000  0.75000  1
