CIF file written using JARVIS-Tools package.
data_Tb3KF10
_symmetry_space_group_name_H-M  'Fm-3m'
_cell_length_a       8.23816
_cell_length_b       8.23815
_cell_length_c       8.23815
_cell_angle_alpha    60
_cell_angle_beta     60
_cell_angle_gamma    60

_symmetry_Int_Tables_number  225
_chemical_formula_structural  Tb3KF10
_chemical_formula_sum  Tb6K2F20
_cell_volume  395.3436431486213
_cell_formula_units_Z  2
loop_
  _symmetry_equiv_pos_site_id
 _symmetry_equiv_pos_as_xyz
 1  'x, y, z'
loop_
 _atom_site_type_symbol
 _atom_site_label
 _atom_site_symmetry_multiplicity
 _atom_site_fract_x
 _atom_site_fract_y
 _atom_site_fract_z
 _atom_site_fract_occupancy
 F  F1  1  0.16760  0.50000  0.83240  1
 F  F2  1  0.11216  0.11216  0.66353  1
 F  F3  1  0.11216  0.66353  0.11216  1
 F  F4  1  0.66353  0.11216  0.11216  1
 F  F5  1  0.88784  0.33647  0.88784  1
 F  F6  1  0.33647  0.88784  0.88784  1
 F  F7  1  0.88784  0.88784  0.33647  1
 F  F8  1  0.11216  0.11216  0.11216  1
 F  F9  1  0.16760  0.50000  0.50000  1
 F  F10  1  0.50000  0.50000  0.16760  1
 F  F11  1  0.16760  0.83240  0.50000  1
 F  F12  1  0.50000  0.16760  0.83240  1
 F  F13  1  0.88784  0.88784  0.88784  1
 F  F14  1  0.50000  0.16760  0.50000  1
 F  F15  1  0.83240  0.16760  0.50000  1
 F  F16  1  0.50000  0.83240  0.50000  1
 F  F17  1  0.83240  0.50000  0.16760  1
 F  F18  1  0.50000  0.50000  0.83240  1
 F  F19  1  0.83240  0.50000  0.50000  1
 F  F20  1  0.50000  0.83240  0.16760  1
 K  K1  1  0.25000  0.25000  0.25000  1
 K  K2  1  0.75000  0.75000  0.75000  1
 Tb  Tb1  1  0.23977  0.76023  0.23977  1
 Tb  Tb2  1  0.76023  0.23977  0.76023  1
 Tb  Tb3  1  0.23977  0.23977  0.76023  1
 Tb  Tb4  1  0.76023  0.76023  0.23977  1
 Tb  Tb5  1  0.76023  0.23977  0.23977  1
 Tb  Tb6  1  0.23977  0.76023  0.76023  1
