CIF file written using JARVIS-Tools package.
data_Ca2InPd2
_symmetry_space_group_name_H-M  'C2/c'
_cell_length_a       5.70209
_cell_length_b       5.84767
_cell_length_c       8.18138
_cell_angle_alpha    103.245
_cell_angle_beta     90
_cell_angle_gamma    119.18

_symmetry_Int_Tables_number  15
_chemical_formula_structural  Ca2InPd2
_chemical_formula_sum  Ca4In2Pd4
_cell_volume  229.83309378200892
_cell_formula_units_Z  2
loop_
  _symmetry_equiv_pos_site_id
 _symmetry_equiv_pos_as_xyz
 1  'x, y, z'
loop_
 _atom_site_type_symbol
 _atom_site_label
 _atom_site_symmetry_multiplicity
 _atom_site_fract_x
 _atom_site_fract_y
 _atom_site_fract_z
 _atom_site_fract_occupancy
 Ca  Ca1  1  0.20174  0.70203  0.35036  1
 Ca  Ca2  1  0.49971  0.29797  0.14964  1
 Ca  Ca3  1  0.79826  0.29797  0.64964  1
 Ca  Ca4  1  0.50029  0.70203  0.85036  1
 In  In1  1  0.83791  0.00000  0.25000  1
 In  In2  1  0.16209  -0.00000  0.75000  1
 Pd  Pd1  1  0.99634  0.26913  0.00231  1
 Pd  Pd2  1  0.72721  0.73087  0.49769  1
 Pd  Pd3  1  0.00366  0.73087  0.99769  1
 Pd  Pd4  1  0.27279  0.26913  0.50231  1
