CIF file written using JARVIS-Tools package.
data_Hf2CuGe4
_symmetry_space_group_name_H-M  'Cmcm'
_cell_length_a       3.79134
_cell_length_b       3.80771
_cell_length_c       16.7831
_cell_angle_alpha    96.5136
_cell_angle_beta     90
_cell_angle_gamma    90

_symmetry_Int_Tables_number  63
_chemical_formula_structural  Hf2CuGe4
_chemical_formula_sum  Hf4Cu2Ge8
_cell_volume  240.7229510277629
_cell_formula_units_Z  2
loop_
  _symmetry_equiv_pos_site_id
 _symmetry_equiv_pos_as_xyz
 1  'x, y, z'
loop_
 _atom_site_type_symbol
 _atom_site_label
 _atom_site_symmetry_multiplicity
 _atom_site_fract_x
 _atom_site_fract_y
 _atom_site_fract_z
 _atom_site_fract_occupancy
 Cu  Cu1  1  0.75000  0.74993  0.49987  1
 Cu  Cu2  1  0.25000  0.25007  0.50013  1
 Ge  Ge1  1  0.25000  0.11319  0.22638  1
 Ge  Ge2  1  0.75000  0.88681  0.77362  1
 Ge  Ge3  1  0.25000  0.79882  0.59765  1
 Ge  Ge4  1  0.75000  0.20118  0.40235  1
 Ge  Ge5  1  0.75000  0.47224  0.94448  1
 Ge  Ge6  1  0.25000  0.52776  0.05552  1
 Ge  Ge7  1  0.75000  0.61302  0.22603  1
 Ge  Ge8  1  0.25000  0.38698  0.77397  1
 Hf  Hf1  1  0.25000  0.67767  0.35534  1
 Hf  Hf2  1  0.75000  0.32233  0.64466  1
 Hf  Hf3  1  0.25000  0.95231  0.90461  1
 Hf  Hf4  1  0.75000  0.04769  0.09539  1
