CIF file written using JARVIS-Tools package.
data_Sn5S4Cl2
_symmetry_space_group_name_H-M  'P-1'
_cell_length_a       7.30177
_cell_length_b       9.14724
_cell_length_c       10.7186
_cell_angle_alpha    66.5701
_cell_angle_beta     71.331
_cell_angle_gamma    66.9336

_symmetry_Int_Tables_number  2
_chemical_formula_structural  Sn5S4Cl2
_chemical_formula_sum  Sn0S8Cl4
_cell_volume  592.8041494146427
_cell_formula_units_Z  2
loop_
  _symmetry_equiv_pos_site_id
 _symmetry_equiv_pos_as_xyz
 1  'x, y, z'
loop_
 _atom_site_type_symbol
 _atom_site_label
 _atom_site_symmetry_multiplicity
 _atom_site_fract_x
 _atom_site_fract_y
 _atom_site_fract_z
 _atom_site_fract_occupancy
 Cl  Cl1  1  0.24632  0.45030  0.55383  1
 Cl  Cl2  1  0.26132  0.94733  0.05261  1
 Cl  Cl3  1  0.75368  0.54970  0.44617  1
 Cl  Cl4  1  0.73868  0.05267  0.94739  1
 S  S1  1  0.96845  0.34786  0.96020  1
 S  S2  1  0.77546  0.12666  0.58304  1
 S  S3  1  0.66703  0.03511  0.32099  1
 S  S4  1  0.50709  0.52288  0.19591  1
 S  S5  1  0.49291  0.47712  0.80409  1
 S  S6  1  0.22454  0.87334  0.41696  1
 S  S7  1  0.33297  0.96489  0.67901  1
 S  S8  1  0.03155  0.65214  0.03980  1
 Sn  Sn1  1  0.57140  0.79009  0.24421  1
 Sn  Sn2  1  0.89043  0.28230  0.75879  1
 Sn  Sn3  1  0.10957  0.71770  0.24121  1
 Sn  Sn4  1  0.72785  0.64537  0.94602  1
 Sn  Sn5  1  0.73410  0.85412  0.57614  1
 Sn  Sn6  1  0.27215  0.35463  0.05398  1
 Sn  Sn7  1  0.26590  0.14588  0.42386  1
 Sn  Sn8  1  0.81869  0.26663  0.29974  1
 Sn  Sn9  1  0.42860  0.20991  0.75579  1
 Sn  Sn10  1  0.18131  0.73337  0.70026  1
