CIF file written using JARVIS-Tools package.
data_Rb2ZrF6
_symmetry_space_group_name_H-M  'P-3m1'
_cell_length_a       6.14147
_cell_length_b       6.14147
_cell_length_c       4.76722
_cell_angle_alpha    90
_cell_angle_beta     90
_cell_angle_gamma    120

_symmetry_Int_Tables_number  164
_chemical_formula_structural  Rb2ZrF6
_chemical_formula_sum  Rb2ZrF6
_cell_volume  155.7185983818138
_cell_formula_units_Z  1
loop_
  _symmetry_equiv_pos_site_id
 _symmetry_equiv_pos_as_xyz
 1  'x, y, z'
loop_
 _atom_site_type_symbol
 _atom_site_label
 _atom_site_symmetry_multiplicity
 _atom_site_fract_x
 _atom_site_fract_y
 _atom_site_fract_z
 _atom_site_fract_occupancy
 F  F1  1  0.83989  0.67978  0.23232  1
 F  F2  1  0.83989  0.16011  0.23232  1
 F  F3  1  0.32022  0.16011  0.23232  1
 F  F4  1  0.16011  0.32022  0.76768  1
 F  F5  1  0.16011  0.83989  0.76768  1
 F  F6  1  0.67978  0.83989  0.76768  1
 Rb  Rb1  1  0.33333  0.66667  0.29965  1
 Rb  Rb2  1  0.66667  0.33333  0.70035  1
 Zr  Zr1  1  0.00000  0.00000  0.00000  1
