CIF file written using JARVIS-Tools package.
data_ErMnO3
_symmetry_space_group_name_H-M  'P6_3cm'
_cell_length_a       5.81734
_cell_length_b       5.81734
_cell_length_c       11.8824
_cell_angle_alpha    90
_cell_angle_beta     90
_cell_angle_gamma    120

_symmetry_Int_Tables_number  185
_chemical_formula_structural  ErMnO3
_chemical_formula_sum  Er6Mn6O8
_cell_volume  348.2437326308444
_cell_formula_units_Z  6
loop_
  _symmetry_equiv_pos_site_id
 _symmetry_equiv_pos_as_xyz
 1  'x, y, z'
loop_
 _atom_site_type_symbol
 _atom_site_label
 _atom_site_symmetry_multiplicity
 _atom_site_fract_x
 _atom_site_fract_y
 _atom_site_fract_z
 _atom_site_fract_occupancy
 Er  Er1  1  0.66667  0.33333  0.77242  1
 Er  Er2  1  0.33333  0.66667  0.27242  1
 Er  Er3  1  0.66667  0.33333  0.27242  1
 Er  Er4  1  0.33333  0.66667  0.77242  1
 Er  Er5  1  0.00000  0.00000  0.22083  1
 Er  Er6  1  0.00000  0.00000  0.72083  1
 Mn  Mn1  1  0.66386  -0.00000  0.00220  1
 Mn  Mn2  1  0.00000  0.33614  0.50220  1
 Mn  Mn3  1  0.33614  0.33614  0.00220  1
 Mn  Mn4  1  0.66386  0.66386  0.50220  1
 Mn  Mn5  1  -0.00000  0.66386  0.00220  1
 Mn  Mn6  1  0.33614  0.00000  0.50220  1
 O  O1  1  0.00000  0.63334  0.16257  1
 O  O2  1  0.66667  0.33333  0.98674  1
 O  O3  1  0.33333  0.66667  0.48674  1
 O  O4  1  0.29904  0.29904  0.84087  1
 O  O5  1  0.33333  0.66667  0.98674  1
 O  O6  1  0.00000  0.00000  0.02194  1
 O  O7  1  0.00000  0.00000  0.52194  1
 O  O8  1  0.66667  0.33333  0.48674  1
 O  O9  1  0.29904  0.00000  0.34087  1
 O  O10  1  0.36666  0.36666  0.16257  1
 O  O11  1  -0.00000  0.36666  0.66257  1
 O  O12  1  -0.00000  0.70096  0.84087  1
 O  O13  1  0.70096  0.70096  0.34087  1
 O  O14  1  0.63334  0.63334  0.66257  1
 O  O15  1  0.70096  -0.00000  0.84087  1
 O  O16  1  0.63334  0.00000  0.16257  1
 O  O17  1  0.36666  -0.00000  0.66257  1
 O  O18  1  0.00000  0.29904  0.34087  1
