CIF file written using JARVIS-Tools package.
data_Ce5Zr3O16
_symmetry_space_group_name_H-M  'C222'
_cell_length_a       7.57969
_cell_length_b       7.57969
_cell_length_c       5.38434
_cell_angle_alpha    90
_cell_angle_beta     90
_cell_angle_gamma    89.4213

_symmetry_Int_Tables_number  21
_chemical_formula_structural  Ce5Zr3O16
_chemical_formula_sum  Ce5Zr3O6
_cell_volume  309.32295499321987
_cell_formula_units_Z  1
loop_
  _symmetry_equiv_pos_site_id
 _symmetry_equiv_pos_as_xyz
 1  'x, y, z'
loop_
 _atom_site_type_symbol
 _atom_site_label
 _atom_site_symmetry_multiplicity
 _atom_site_fract_x
 _atom_site_fract_y
 _atom_site_fract_z
 _atom_site_fract_occupancy
 Ce  Ce1  1  0.00000  0.50000  0.99115  1
 Ce  Ce2  1  0.24286  0.75714  0.50000  1
 Ce  Ce3  1  0.50000  0.00000  0.00885  1
 Ce  Ce4  1  0.75714  0.24286  0.50000  1
 Ce  Ce5  1  0.50000  0.50000  0.00000  1
 O  O1  1  0.25218  0.02626  0.28987  1
 O  O2  1  0.97804  0.23470  0.20361  1
 O  O3  1  0.02626  0.25218  0.71013  1
 O  O4  1  0.52327  0.75952  0.72920  1
 O  O5  1  0.24048  0.47673  0.27080  1
 O  O6  1  0.02196  0.76530  0.20361  1
 O  O7  1  0.23470  0.97804  0.79639  1
 O  O8  1  0.25493  0.51534  0.76072  1
 O  O9  1  0.47673  0.24048  0.72920  1
 O  O10  1  0.51534  0.25493  0.23928  1
 O  O11  1  0.97374  0.74782  0.71013  1
 O  O12  1  0.76530  0.02196  0.79639  1
 O  O13  1  0.75952  0.52327  0.27080  1
 O  O14  1  0.48466  0.74507  0.23928  1
 O  O15  1  0.74782  0.97374  0.28987  1
 O  O16  1  0.74507  0.48466  0.76072  1
 Zr  Zr1  1  0.74430  0.74430  0.50000  1
 Zr  Zr2  1  0.25570  0.25570  0.50000  1
 Zr  Zr3  1  0.00000  0.00000  0.00000  1
