CIF file written using JARVIS-Tools package.
data_Al5Co2
_symmetry_space_group_name_H-M  'P6_3/mmc'
_cell_length_a       7.69571
_cell_length_b       7.69571
_cell_length_c       7.5977
_cell_angle_alpha    90
_cell_angle_beta     90
_cell_angle_gamma    120

_symmetry_Int_Tables_number  194
_chemical_formula_structural  Al5Co2
_chemical_formula_sum  Al20Co8
_cell_volume  389.68142255612565
_cell_formula_units_Z  4
loop_
  _symmetry_equiv_pos_site_id
 _symmetry_equiv_pos_as_xyz
 1  'x, y, z'
loop_
 _atom_site_type_symbol
 _atom_site_label
 _atom_site_symmetry_multiplicity
 _atom_site_fract_x
 _atom_site_fract_y
 _atom_site_fract_z
 _atom_site_fract_occupancy
 Al  Al1  1  0.00000  0.00000  0.00000  1
 Al  Al2  1  0.06365  0.53182  0.25000  1
 Al  Al3  1  0.53182  0.06365  0.75000  1
 Al  Al4  1  0.46818  0.53182  0.25000  1
 Al  Al5  1  0.00000  0.00000  0.50000  1
 Al  Al6  1  0.93635  0.46818  0.75000  1
 Al  Al7  1  0.53182  0.46818  0.75000  1
 Al  Al8  1  0.80572  0.19428  0.43989  1
 Al  Al9  1  0.19428  0.38857  0.93989  1
 Al  Al10  1  0.80572  0.61143  0.06011  1
 Al  Al11  1  0.46818  0.93635  0.25000  1
 Al  Al12  1  0.61143  0.80572  0.93989  1
 Al  Al13  1  0.38857  0.19428  0.43989  1
 Al  Al14  1  0.19428  0.38857  0.56011  1
 Al  Al15  1  0.61143  0.80572  0.56011  1
 Al  Al16  1  0.38857  0.19428  0.06011  1
 Al  Al17  1  0.19428  0.80572  0.56011  1
 Al  Al18  1  0.80572  0.19428  0.06011  1
 Al  Al19  1  0.19428  0.80572  0.93989  1
 Al  Al20  1  0.80572  0.61143  0.43989  1
 Co  Co1  1  0.74277  0.87138  0.25000  1
 Co  Co2  1  0.12862  0.87138  0.25000  1
 Co  Co3  1  0.33333  0.66667  0.75000  1
 Co  Co4  1  0.66667  0.33333  0.25000  1
 Co  Co5  1  0.12862  0.25723  0.25000  1
 Co  Co6  1  0.87138  0.12862  0.75000  1
 Co  Co7  1  0.25723  0.12862  0.75000  1
 Co  Co8  1  0.87138  0.74277  0.75000  1
