CIF file written using JARVIS-Tools package.
data_Pa3P4
_symmetry_space_group_name_H-M  'I-43d'
_cell_length_a       7.20072
_cell_length_b       7.20072
_cell_length_c       7.20071
_cell_angle_alpha    109.471
_cell_angle_beta     109.471
_cell_angle_gamma    109.471

_symmetry_Int_Tables_number  220
_chemical_formula_structural  Pa3P4
_chemical_formula_sum  Pa6P8
_cell_volume  287.4118456134416
_cell_formula_units_Z  2
loop_
  _symmetry_equiv_pos_site_id
 _symmetry_equiv_pos_as_xyz
 1  'x, y, z'
loop_
 _atom_site_type_symbol
 _atom_site_label
 _atom_site_symmetry_multiplicity
 _atom_site_fract_x
 _atom_site_fract_y
 _atom_site_fract_z
 _atom_site_fract_occupancy
 P  P1  1  0.65804  0.65804  0.65804  1
 P  P2  1  0.00000  0.84196  0.50000  1
 P  P3  1  0.84196  0.50000  -0.00000  1
 P  P4  1  0.00000  0.34196  0.50000  1
 P  P5  1  0.50000  -0.00000  0.84196  1
 P  P6  1  0.50000  -0.00000  0.34196  1
 P  P7  1  0.34196  0.50000  -0.00000  1
 P  P8  1  0.15804  0.15804  0.15804  1
 Pa  Pa1  1  0.12500  0.75000  0.87500  1
 Pa  Pa2  1  0.62500  0.37500  0.25000  1
 Pa  Pa3  1  0.37500  0.25000  0.62500  1
 Pa  Pa4  1  0.75000  0.87500  0.12500  1
 Pa  Pa5  1  0.25000  0.62500  0.37500  1
 Pa  Pa6  1  0.87500  0.12500  0.75000  1
