CIF file written using JARVIS-Tools package.
data_H5NO
_symmetry_space_group_name_H-M  'P2_12_12_1'
_cell_length_a       4.35389
_cell_length_b       5.64109
_cell_length_c       9.35897
_cell_angle_alpha    90
_cell_angle_beta     90
_cell_angle_gamma    90

_symmetry_Int_Tables_number  19
_chemical_formula_structural  H5NO
_chemical_formula_sum  H20N4O4
_cell_volume  229.8627010995445
_cell_formula_units_Z  4
loop_
  _symmetry_equiv_pos_site_id
 _symmetry_equiv_pos_as_xyz
 1  'x, y, z'
loop_
 _atom_site_type_symbol
 _atom_site_label
 _atom_site_symmetry_multiplicity
 _atom_site_fract_x
 _atom_site_fract_y
 _atom_site_fract_z
 _atom_site_fract_occupancy
 H  H1  1  0.74166  0.70605  0.33083  1
 H  H2  1  0.75834  0.29395  0.83083  1
 H  H3  1  0.45965  0.63405  0.86745  1
 H  H4  1  0.95347  0.26959  0.98074  1
 H  H5  1  0.54653  0.73041  0.48074  1
 H  H6  1  0.04035  0.36595  0.36745  1
 H  H7  1  0.74295  0.37329  0.59237  1
 H  H8  1  0.08212  0.61938  0.87094  1
 H  H9  1  0.75705  0.62671  0.09237  1
 H  H10  1  0.24295  0.12671  0.40763  1
 H  H11  1  0.41788  0.38062  0.37094  1
 H  H12  1  0.24166  0.79395  0.66917  1
 H  H13  1  0.04653  0.76959  0.51926  1
 H  H14  1  0.95965  0.86595  0.13255  1
 H  H15  1  0.58212  0.88062  0.12906  1
 H  H16  1  0.45347  0.23041  0.01926  1
 H  H17  1  0.25705  0.87329  0.90763  1
 H  H18  1  0.54035  0.13405  0.63255  1
 H  H19  1  0.91788  0.11938  0.62906  1
 H  H20  1  0.25834  0.20605  0.16917  1
 N  N1  1  0.76363  0.77350  0.15744  1
 N  N2  1  0.73637  0.22650  0.65744  1
 N  N3  1  0.26363  0.72650  0.84256  1
 N  N4  1  0.23637  0.27350  0.34256  1
 O  O1  1  0.76759  0.34585  0.93650  1
 O  O2  1  0.23241  0.84585  0.56350  1
 O  O3  1  0.73241  0.65415  0.43650  1
 O  O4  1  0.26759  0.15415  0.06350  1
