CIF file written using JARVIS-Tools package.
data_UNi4P2
_symmetry_space_group_name_H-M  'P4_2/mnm'
_cell_length_a       7.04291
_cell_length_b       7.04291
_cell_length_c       3.6839
_cell_angle_alpha    90
_cell_angle_beta     90
_cell_angle_gamma    90

_symmetry_Int_Tables_number  136
_chemical_formula_structural  UNi4P2
_chemical_formula_sum  U2Ni8P4
_cell_volume  182.73108164471446
_cell_formula_units_Z  2
loop_
  _symmetry_equiv_pos_site_id
 _symmetry_equiv_pos_as_xyz
 1  'x, y, z'
loop_
 _atom_site_type_symbol
 _atom_site_label
 _atom_site_symmetry_multiplicity
 _atom_site_fract_x
 _atom_site_fract_y
 _atom_site_fract_z
 _atom_site_fract_occupancy
 Ni  Ni1  1  0.58960  0.16071  0.50000  1
 Ni  Ni2  1  0.41040  0.83929  0.50000  1
 Ni  Ni3  1  0.16071  0.58960  0.50000  1
 Ni  Ni4  1  0.83929  0.41040  0.50000  1
 Ni  Ni5  1  0.08960  0.33929  0.00000  1
 Ni  Ni6  1  0.91040  0.66071  0.00000  1
 Ni  Ni7  1  0.66071  0.91040  0.00000  1
 Ni  Ni8  1  0.33929  0.08960  0.00000  1
 P  P1  1  0.21833  0.78167  0.00000  1
 P  P2  1  0.28167  0.28167  0.50000  1
 P  P3  1  0.71833  0.71833  0.50000  1
 P  P4  1  0.78167  0.21833  0.00000  1
 U  U1  1  0.50000  0.50000  0.00000  1
 U  U2  1  0.00000  0.00000  0.50000  1
