CIF file written using JARVIS-Tools package.
data_Yb2Be2Si2NiO10
_symmetry_space_group_name_H-M  'P2_1/c'
_cell_length_a       4.58177
_cell_length_b       7.46036
_cell_length_c       10.0572
_cell_angle_alpha    90
_cell_angle_beta     89.3747
_cell_angle_gamma    90

_symmetry_Int_Tables_number  14
_chemical_formula_structural  Yb2Be2Si2NiO10
_chemical_formula_sum  Yb4Be4Si4Ni2O20
_cell_volume  343.7523244694441
_cell_formula_units_Z  2
loop_
  _symmetry_equiv_pos_site_id
 _symmetry_equiv_pos_as_xyz
 1  'x, y, z'
loop_
 _atom_site_type_symbol
 _atom_site_label
 _atom_site_symmetry_multiplicity
 _atom_site_fract_x
 _atom_site_fract_y
 _atom_site_fract_z
 _atom_site_fract_occupancy
 Be  Be1  1  0.44724  0.91176  0.84567  1
 Be  Be2  1  0.55276  0.08824  0.15433  1
 Be  Be3  1  0.44724  0.58824  0.34567  1
 Be  Be4  1  0.55276  0.41176  0.65433  1
 Ni  Ni1  1  0.00000  0.00000  0.00000  1
 Ni  Ni2  1  -0.00000  0.50000  0.50000  1
 O  O1  1  0.27976  0.69650  0.46937  1
 O  O2  1  0.79150  0.58629  0.34986  1
 O  O3  1  0.72507  0.60442  0.62728  1
 O  O4  1  0.20850  0.08629  0.15014  1
 O  O5  1  0.20850  0.41371  0.65014  1
 O  O6  1  0.68004  0.16945  0.28838  1
 O  O7  1  0.74611  0.92284  0.52498  1
 O  O8  1  0.27493  0.10442  0.87272  1
 O  O9  1  0.68004  0.33055  0.78838  1
 O  O10  1  0.72507  0.89558  0.12728  1
 O  O11  1  0.27493  0.39558  0.37272  1
 O  O12  1  0.31996  0.66945  0.21162  1
 O  O13  1  0.74611  0.57716  0.02498  1
 O  O14  1  0.31996  0.83055  0.71162  1
 O  O15  1  0.72024  0.30350  0.53063  1
 O  O16  1  0.27976  0.80350  0.96937  1
 O  O17  1  0.79150  0.91371  0.84986  1
 O  O18  1  0.72024  0.19650  0.03063  1
 O  O19  1  0.25389  0.42284  0.97502  1
 O  O20  1  0.25389  0.07716  0.47502  1
 Si  Si1  1  0.51483  0.71952  0.08068  1
 Si  Si2  1  0.48517  0.21952  0.41932  1
 Si  Si3  1  0.48517  0.28048  0.91932  1
 Si  Si4  1  0.51483  0.78048  0.58068  1
 Yb  Yb1  1  0.99687  0.10538  0.67054  1
 Yb  Yb2  1  0.00313  0.60538  0.82946  1
 Yb  Yb3  1  0.00313  0.89462  0.32946  1
 Yb  Yb4  1  0.99687  0.39462  0.17054  1
