CIF file written using JARVIS-Tools package.
data_ReC2
_symmetry_space_group_name_H-M  'P6_3/mmc'
_cell_length_a       2.88403
_cell_length_b       2.88403
_cell_length_c       8.13389
_cell_angle_alpha    90
_cell_angle_beta     90
_cell_angle_gamma    120

_symmetry_Int_Tables_number  194
_chemical_formula_structural  ReC2
_chemical_formula_sum  Re2C4
_cell_volume  58.59072140360945
_cell_formula_units_Z  2
loop_
  _symmetry_equiv_pos_site_id
 _symmetry_equiv_pos_as_xyz
 1  'x, y, z'
loop_
 _atom_site_type_symbol
 _atom_site_label
 _atom_site_symmetry_multiplicity
 _atom_site_fract_x
 _atom_site_fract_y
 _atom_site_fract_z
 _atom_site_fract_occupancy
 C  C1  1  0.00000  0.00000  0.41543  1
 C  C2  1  0.00000  0.00000  0.58457  1
 C  C3  1  0.00000  0.00000  0.91543  1
 C  C4  1  0.00000  0.00000  0.08457  1
 Re  Re1  1  0.66667  0.33333  0.25000  1
 Re  Re2  1  0.33333  0.66667  0.75000  1
