CIF file written using JARVIS-Tools package.
data_Fe2B
_symmetry_space_group_name_H-M  'I4/mcm'
_cell_length_a       4.14175
_cell_length_b       4.14175
_cell_length_c       4.14174
_cell_angle_alpha    105.049
_cell_angle_beta     105.049
_cell_angle_gamma    118.732

_symmetry_Int_Tables_number  140
_chemical_formula_structural  Fe2B
_chemical_formula_sum  Fe4B2
_cell_volume  53.60561325483385
_cell_formula_units_Z  2
loop_
  _symmetry_equiv_pos_site_id
 _symmetry_equiv_pos_as_xyz
 1  'x, y, z'
loop_
 _atom_site_type_symbol
 _atom_site_label
 _atom_site_symmetry_multiplicity
 _atom_site_fract_x
 _atom_site_fract_y
 _atom_site_fract_z
 _atom_site_fract_occupancy
 B  B1  1  0.75000  0.75000  0.00000  1
 B  B2  1  0.25000  0.25000  -0.00000  1
 Fe  Fe1  1  0.16585  0.66585  0.83170  1
 Fe  Fe2  1  0.33415  0.16585  0.50000  1
 Fe  Fe3  1  0.83415  0.33415  0.16830  1
 Fe  Fe4  1  0.66585  0.83415  0.50000  1
