CIF file written using JARVIS-Tools package.
data_ScAg2
_symmetry_space_group_name_H-M  'I4/mmm'
_cell_length_a       3.55292
_cell_length_b       3.55292
_cell_length_c       5.10059
_cell_angle_alpha    110.382
_cell_angle_beta     110.382
_cell_angle_gamma    90

_symmetry_Int_Tables_number  139
_chemical_formula_structural  ScAg2
_chemical_formula_sum  ScAg2
_cell_volume  56.03408635973944
_cell_formula_units_Z  1
loop_
  _symmetry_equiv_pos_site_id
 _symmetry_equiv_pos_as_xyz
 1  'x, y, z'
loop_
 _atom_site_type_symbol
 _atom_site_label
 _atom_site_symmetry_multiplicity
 _atom_site_fract_x
 _atom_site_fract_y
 _atom_site_fract_z
 _atom_site_fract_occupancy
 Ag  Ag1  1  0.66597  0.66597  0.33195  1
 Ag  Ag2  1  0.33403  0.33403  0.66805  1
 Sc  Sc1  1  0.00000  0.00000  0.00000  1
