CIF file written using JARVIS-Tools package.
data_HoZn2
_symmetry_space_group_name_H-M  'Imma'
_cell_length_a       4.44199
_cell_length_b       5.61629
_cell_length_c       5.6163
_cell_angle_alpha    77.1694
_cell_angle_beta     66.7057
_cell_angle_gamma    66.7056

_symmetry_Int_Tables_number  74
_chemical_formula_structural  HoZn2
_chemical_formula_sum  Ho2Zn4
_cell_volume  117.842379136245
_cell_formula_units_Z  2
loop_
  _symmetry_equiv_pos_site_id
 _symmetry_equiv_pos_as_xyz
 1  'x, y, z'
loop_
 _atom_site_type_symbol
 _atom_site_label
 _atom_site_symmetry_multiplicity
 _atom_site_fract_x
 _atom_site_fract_y
 _atom_site_fract_z
 _atom_site_fract_occupancy
 Ho  Ho1  1  0.52483  0.72517  0.22517  1
 Ho  Ho2  1  0.47517  0.27483  0.77483  1
 Zn  Zn1  1  0.83395  0.70326  0.62884  1
 Zn  Zn2  1  0.16605  0.29674  0.37116  1
 Zn  Zn3  1  0.83395  0.12884  0.20326  1
 Zn  Zn4  1  0.16605  0.87116  0.79674  1
