CIF file written using JARVIS-Tools package.
data_TbF3
_symmetry_space_group_name_H-M  'Pnma'
_cell_length_a       4.37992
_cell_length_b       6.4734
_cell_length_c       6.92169
_cell_angle_alpha    90
_cell_angle_beta     90
_cell_angle_gamma    90

_symmetry_Int_Tables_number  62
_chemical_formula_structural  TbF3
_chemical_formula_sum  Tb4F2
_cell_volume  196.25045258110933
_cell_formula_units_Z  4
loop_
  _symmetry_equiv_pos_site_id
 _symmetry_equiv_pos_as_xyz
 1  'x, y, z'
loop_
 _atom_site_type_symbol
 _atom_site_label
 _atom_site_symmetry_multiplicity
 _atom_site_fract_x
 _atom_site_fract_y
 _atom_site_fract_z
 _atom_site_fract_occupancy
 F  F1  1  0.38409  0.16572  0.43694  1
 F  F2  1  0.88409  0.33428  0.56306  1
 F  F3  1  0.11591  0.66572  0.06306  1
 F  F4  1  0.61591  0.83428  0.93694  1
 F  F5  1  0.58321  0.52082  0.25000  1
 F  F6  1  0.08321  0.97918  0.75000  1
 F  F7  1  0.91679  0.02082  0.25000  1
 F  F8  1  0.41679  0.47918  0.75000  1
 F  F9  1  0.38409  0.16572  0.06306  1
 F  F10  1  0.88409  0.33428  0.93694  1
 F  F11  1  0.11591  0.66572  0.43694  1
 F  F12  1  0.61591  0.83428  0.56306  1
 Tb  Tb1  1  0.93531  0.63071  0.75000  1
 Tb  Tb2  1  0.43531  0.86929  0.25000  1
 Tb  Tb3  1  0.56469  0.13071  0.75000  1
 Tb  Tb4  1  0.06469  0.36929  0.25000  1
