CIF file written using JARVIS-Tools package.
data_DyB2C
_symmetry_space_group_name_H-M  'P4_2/mbc'
_cell_length_a       6.78394
_cell_length_b       6.78394
_cell_length_c       7.49119
_cell_angle_alpha    90
_cell_angle_beta     90
_cell_angle_gamma    90

_symmetry_Int_Tables_number  135
_chemical_formula_structural  DyB2C
_chemical_formula_sum  Dy8B6C8
_cell_volume  344.75787435495954
_cell_formula_units_Z  8
loop_
  _symmetry_equiv_pos_site_id
 _symmetry_equiv_pos_as_xyz
 1  'x, y, z'
loop_
 _atom_site_type_symbol
 _atom_site_label
 _atom_site_symmetry_multiplicity
 _atom_site_fract_x
 _atom_site_fract_y
 _atom_site_fract_z
 _atom_site_fract_occupancy
 B  B1  1  0.09692  0.59472  0.00000  1
 B  B2  1  0.65221  0.46555  0.00000  1
 B  B3  1  0.03445  0.84779  0.50000  1
 B  B4  1  0.96555  0.15221  0.50000  1
 B  B5  1  0.46555  0.34779  0.50000  1
 B  B6  1  0.53445  0.65221  0.50000  1
 B  B7  1  0.40528  0.09692  0.50000  1
 B  B8  1  0.59472  0.90308  0.50000  1
 B  B9  1  0.59692  0.90528  0.00000  1
 B  B10  1  0.40308  0.09472  0.00000  1
 B  B11  1  0.90308  0.40528  0.00000  1
 B  B12  1  0.09472  0.59692  0.50000  1
 B  B13  1  0.90528  0.40308  0.50000  1
 B  B14  1  0.15221  0.03445  0.00000  1
 B  B15  1  0.34779  0.53445  0.00000  1
 B  B16  1  0.84779  0.96555  0.00000  1
 C  C1  1  0.17733  0.04059  0.50000  1
 C  C2  1  0.67733  0.45941  0.50000  1
 C  C3  1  0.32267  0.54059  0.50000  1
 C  C4  1  0.95941  0.17733  0.00000  1
 C  C5  1  0.04059  0.82267  0.00000  1
 C  C6  1  0.54059  0.67733  0.00000  1
 C  C7  1  0.45941  0.32267  0.00000  1
 C  C8  1  0.82267  0.95941  0.50000  1
 Dy  Dy1  1  0.30935  0.80935  0.25000  1
 Dy  Dy2  1  0.19065  0.30935  0.75000  1
 Dy  Dy3  1  0.80935  0.69065  0.75000  1
 Dy  Dy4  1  0.69065  0.19065  0.25000  1
 Dy  Dy5  1  0.69065  0.19065  0.75000  1
 Dy  Dy6  1  0.80935  0.69065  0.25000  1
 Dy  Dy7  1  0.19065  0.30935  0.25000  1
 Dy  Dy8  1  0.30935  0.80935  0.75000  1
