CIF file written using JARVIS-Tools package.
data_ErGeRh
_symmetry_space_group_name_H-M  'Pnma'
_cell_length_a       4.28786
_cell_length_b       6.85274
_cell_length_c       7.53659
_cell_angle_alpha    90
_cell_angle_beta     90
_cell_angle_gamma    90

_symmetry_Int_Tables_number  62
_chemical_formula_structural  ErGeRh
_chemical_formula_sum  Er4Ge4Rh4
_cell_volume  221.4521080582368
_cell_formula_units_Z  4
loop_
  _symmetry_equiv_pos_site_id
 _symmetry_equiv_pos_as_xyz
 1  'x, y, z'
loop_
 _atom_site_type_symbol
 _atom_site_label
 _atom_site_symmetry_multiplicity
 _atom_site_fract_x
 _atom_site_fract_y
 _atom_site_fract_z
 _atom_site_fract_occupancy
 Er  Er1  1  0.25000  0.50319  0.69630  1
 Er  Er2  1  0.75000  0.49681  0.30370  1
 Er  Er3  1  0.25000  0.00319  0.80370  1
 Er  Er4  1  0.75000  0.99681  0.19630  1
 Ge  Ge1  1  0.25000  0.28617  0.10488  1
 Ge  Ge2  1  0.75000  0.71383  0.89512  1
 Ge  Ge3  1  0.25000  0.78617  0.39512  1
 Ge  Ge4  1  0.75000  0.21383  0.60488  1
 Rh  Rh1  1  0.75000  0.84123  0.56887  1
 Rh  Rh2  1  0.25000  0.15877  0.43113  1
 Rh  Rh3  1  0.75000  0.34123  0.93113  1
 Rh  Rh4  1  0.25000  0.65877  0.06887  1
