CIF file written using JARVIS-Tools package.
data_K2Hg3Ge2S8
_symmetry_space_group_name_H-M  'Aea2'
_cell_length_a       6.41679
_cell_length_b       6.4168
_cell_length_c       19.3685
_cell_angle_alpha    90
_cell_angle_beta     90
_cell_angle_gamma    99.6526

_symmetry_Int_Tables_number  41
_chemical_formula_structural  K2Hg3Ge2S8
_chemical_formula_sum  K4Hg6Ge4S6
_cell_volume  786.2113431676127
_cell_formula_units_Z  2
loop_
  _symmetry_equiv_pos_site_id
 _symmetry_equiv_pos_as_xyz
 1  'x, y, z'
loop_
 _atom_site_type_symbol
 _atom_site_label
 _atom_site_symmetry_multiplicity
 _atom_site_fract_x
 _atom_site_fract_y
 _atom_site_fract_z
 _atom_site_fract_occupancy
 Ge  Ge1  1  0.55403  0.12411  0.63273  1
 Ge  Ge2  1  0.62411  0.05403  0.13273  1
 Ge  Ge3  1  0.05403  0.62411  0.86727  1
 Ge  Ge4  1  0.12411  0.55403  0.36727  1
 Hg  Hg1  1  0.48656  0.48656  0.50000  1
 Hg  Hg2  1  0.11725  0.19970  0.74378  1
 Hg  Hg3  1  0.19970  0.11725  0.25622  1
 Hg  Hg4  1  0.61725  0.69970  0.75622  1
 Hg  Hg5  1  0.69970  0.61725  0.24378  1
 Hg  Hg6  1  0.98656  0.98656  0.00000  1
 K  K1  1  0.04930  0.63521  0.61846  1
 K  K2  1  0.13521  0.54930  0.11846  1
 K  K3  1  0.54930  0.13521  0.88154  1
 K  K4  1  0.63521  0.04930  0.38154  1
 S  S1  1  0.59389  0.78085  0.63205  1
 S  S2  1  0.28085  0.09389  0.13205  1
 S  S3  1  0.09389  0.28085  0.86795  1
 S  S4  1  0.66496  0.71201  0.12162  1
 S  S5  1  0.71201  0.66496  0.87838  1
 S  S6  1  0.16496  0.21201  0.37838  1
 S  S7  1  0.21201  0.16496  0.62162  1
 S  S8  1  0.27603  0.69617  0.27294  1
 S  S9  1  0.22264  0.75399  0.96556  1
 S  S10  1  0.25399  0.72264  0.46556  1
 S  S11  1  0.72264  0.25399  0.53444  1
 S  S12  1  0.77603  0.19617  0.22706  1
 S  S13  1  0.78085  0.59389  0.36795  1
 S  S14  1  0.19617  0.77603  0.77294  1
 S  S15  1  0.75399  0.22264  0.03444  1
 S  S16  1  0.69617  0.27603  0.72706  1
