CIF file written using JARVIS-Tools package.
data_NdF3
_symmetry_space_group_name_H-M  'P6_3/mcm'
_cell_length_a       7.05517
_cell_length_b       7.05517
_cell_length_c       7.0606
_cell_angle_alpha    90
_cell_angle_beta     90
_cell_angle_gamma    120

_symmetry_Int_Tables_number  193
_chemical_formula_structural  NdF3
_chemical_formula_sum  Nd6F8
_cell_volume  304.359706945206
_cell_formula_units_Z  6
loop_
  _symmetry_equiv_pos_site_id
 _symmetry_equiv_pos_as_xyz
 1  'x, y, z'
loop_
 _atom_site_type_symbol
 _atom_site_label
 _atom_site_symmetry_multiplicity
 _atom_site_fract_x
 _atom_site_fract_y
 _atom_site_fract_z
 _atom_site_fract_occupancy
 F  F1  1  0.65655  0.65655  0.91560  1
 F  F2  1  0.00000  0.00000  0.50000  1
 F  F3  1  0.00000  0.00000  0.00000  1
 F  F4  1  0.33333  0.66667  0.25000  1
 F  F5  1  0.66667  0.33333  0.75000  1
 F  F6  1  0.66667  0.33333  0.25000  1
 F  F7  1  0.65655  0.00000  0.08440  1
 F  F8  1  0.34345  -0.00000  0.91560  1
 F  F9  1  0.33333  0.66667  0.75000  1
 F  F10  1  0.00000  0.65655  0.41560  1
 F  F11  1  -0.00000  0.34345  0.91560  1
 F  F12  1  0.34345  0.34345  0.08440  1
 F  F13  1  0.34345  -0.00000  0.58440  1
 F  F14  1  0.65655  0.65655  0.58440  1
 F  F15  1  0.65655  0.00000  0.41560  1
 F  F16  1  -0.00000  0.34345  0.58440  1
 F  F17  1  0.00000  0.65655  0.08440  1
 F  F18  1  0.34345  0.34345  0.41560  1
 Nd  Nd1  1  0.32731  0.32731  0.75000  1
 Nd  Nd2  1  0.00000  0.32731  0.25000  1
 Nd  Nd3  1  0.32731  0.00000  0.25000  1
 Nd  Nd4  1  0.67269  -0.00000  0.75000  1
 Nd  Nd5  1  -0.00000  0.67269  0.75000  1
 Nd  Nd6  1  0.67269  0.67269  0.25000  1
