CIF file written using JARVIS-Tools package.
data_YAsPt
_symmetry_space_group_name_H-M  'P6_3/mmc'
_cell_length_a       4.30581
_cell_length_b       4.30581
_cell_length_c       15.2635
_cell_angle_alpha    90
_cell_angle_beta     90
_cell_angle_gamma    120

_symmetry_Int_Tables_number  194
_chemical_formula_structural  YAsPt
_chemical_formula_sum  Y4As4Pt4
_cell_volume  245.0721143924824
_cell_formula_units_Z  4
loop_
  _symmetry_equiv_pos_site_id
 _symmetry_equiv_pos_as_xyz
 1  'x, y, z'
loop_
 _atom_site_type_symbol
 _atom_site_label
 _atom_site_symmetry_multiplicity
 _atom_site_fract_x
 _atom_site_fract_y
 _atom_site_fract_z
 _atom_site_fract_occupancy
 As  As1  1  0.33333  0.66667  0.88439  1
 As  As2  1  0.66667  0.33333  0.38439  1
 As  As3  1  0.66667  0.33333  0.11561  1
 As  As4  1  0.33333  0.66667  0.61561  1
 Pt  Pt1  1  0.33333  0.66667  0.36369  1
 Pt  Pt2  1  0.66667  0.33333  0.86369  1
 Pt  Pt3  1  0.66667  0.33333  0.63631  1
 Pt  Pt4  1  0.33333  0.66667  0.13631  1
 Y  Y1  1  0.00000  0.00000  0.00000  1
 Y  Y2  1  0.00000  0.00000  0.50000  1
 Y  Y3  1  0.00000  0.00000  0.25000  1
 Y  Y4  1  0.00000  0.00000  0.75000  1
