CIF file written using JARVIS-Tools package.
data_Ce3ZrO8
_symmetry_space_group_name_H-M  'C2/c'
_cell_length_a       7.62424
_cell_length_b       7.62424
_cell_length_c       5.41019
_cell_angle_alpha    90.5708
_cell_angle_beta     90.5708
_cell_angle_gamma    90.4882

_symmetry_Int_Tables_number  15
_chemical_formula_structural  Ce3ZrO8
_chemical_formula_sum  Ce6Zr2O6
_cell_volume  314.4460923218373
_cell_formula_units_Z  2
loop_
  _symmetry_equiv_pos_site_id
 _symmetry_equiv_pos_as_xyz
 1  'x, y, z'
loop_
 _atom_site_type_symbol
 _atom_site_label
 _atom_site_symmetry_multiplicity
 _atom_site_fract_x
 _atom_site_fract_y
 _atom_site_fract_z
 _atom_site_fract_occupancy
 Ce  Ce1  1  0.00725  0.00322  0.00920  1
 Ce  Ce2  1  0.00074  0.49926  0.00000  1
 Ce  Ce3  1  0.25322  0.75725  0.50920  1
 Ce  Ce4  1  0.74275  0.24678  0.49080  1
 Ce  Ce5  1  0.49678  0.49275  0.99080  1
 Ce  Ce6  1  0.74926  0.75074  0.50000  1
 O  O1  1  0.23974  0.02024  0.30344  1
 O  O2  1  0.99397  0.25877  0.23991  1
 O  O3  1  0.01866  0.23808  0.72721  1
 O  O4  1  0.50877  0.74397  0.73991  1
 O  O5  1  0.26192  0.48134  0.27279  1
 O  O6  1  0.01070  0.74427  0.24682  1
 O  O7  1  0.27024  0.98974  0.80344  1
 O  O8  1  0.24123  0.50603  0.76009  1
 O  O9  1  0.47976  0.26026  0.69656  1
 O  O10  1  0.51026  0.22976  0.19656  1
 O  O11  1  0.99427  0.76070  0.74682  1
 O  O12  1  0.73133  0.01192  0.77279  1
 O  O13  1  0.73930  0.50573  0.25318  1
 O  O14  1  0.48808  0.76867  0.22721  1
 O  O15  1  0.75603  0.99123  0.26009  1
 O  O16  1  0.75573  0.48930  0.75318  1
 Zr  Zr1  1  0.50772  0.99228  0.00000  1
 Zr  Zr2  1  0.24228  0.25772  0.50000  1
