CIF file written using JARVIS-Tools package.
data_Yb2CdSe4
_symmetry_space_group_name_H-M  'Fd-3m'
_cell_length_a       8.31914
_cell_length_b       8.31915
_cell_length_c       8.31915
_cell_angle_alpha    60
_cell_angle_beta     60
_cell_angle_gamma    60

_symmetry_Int_Tables_number  227
_chemical_formula_structural  Yb2CdSe4
_chemical_formula_sum  Yb4Cd2Se8
_cell_volume  407.11945013966437
_cell_formula_units_Z  2
loop_
  _symmetry_equiv_pos_site_id
 _symmetry_equiv_pos_as_xyz
 1  'x, y, z'
loop_
 _atom_site_type_symbol
 _atom_site_label
 _atom_site_symmetry_multiplicity
 _atom_site_fract_x
 _atom_site_fract_y
 _atom_site_fract_z
 _atom_site_fract_occupancy
 Cd  Cd1  1  0.87500  0.87500  0.87500  1
 Cd  Cd2  1  0.12500  0.12500  0.12500  1
 Se  Se1  1  0.74511  0.74511  0.74511  1
 Se  Se2  1  0.25489  0.25489  0.73533  1
 Se  Se3  1  0.25489  0.73533  0.25489  1
 Se  Se4  1  0.73533  0.25489  0.25489  1
 Se  Se5  1  0.74511  0.26467  0.74511  1
 Se  Se6  1  0.26467  0.74511  0.74511  1
 Se  Se7  1  0.25489  0.25489  0.25489  1
 Se  Se8  1  0.74511  0.74511  0.26467  1
 Yb  Yb1  1  0.50000  0.50000  0.00000  1
 Yb  Yb2  1  0.50000  0.50000  0.50000  1
 Yb  Yb3  1  -0.00000  0.50000  0.50000  1
 Yb  Yb4  1  0.50000  0.00000  0.50000  1
