CIF file written using JARVIS-Tools package.
data_Cr4InCuSe8
_symmetry_space_group_name_H-M  'F-43m'
_cell_length_a       7.31424
_cell_length_b       7.31424
_cell_length_c       7.31424
_cell_angle_alpha    60
_cell_angle_beta     60
_cell_angle_gamma    60

_symmetry_Int_Tables_number  216
_chemical_formula_structural  Cr4InCuSe8
_chemical_formula_sum  Cr4InCuSe8
_cell_volume  276.689088861433
_cell_formula_units_Z  1
loop_
  _symmetry_equiv_pos_site_id
 _symmetry_equiv_pos_as_xyz
 1  'x, y, z'
loop_
 _atom_site_type_symbol
 _atom_site_label
 _atom_site_symmetry_multiplicity
 _atom_site_fract_x
 _atom_site_fract_y
 _atom_site_fract_z
 _atom_site_fract_occupancy
 Cr  Cr1  1  0.19287  0.60238  0.60238  1
 Cr  Cr2  1  0.60238  0.60238  0.19287  1
 Cr  Cr3  1  0.60238  0.19287  0.60238  1
 Cr  Cr4  1  0.60238  0.60238  0.60238  1
 Cu  Cu1  1  0.25000  0.25000  0.25000  1
 In  In1  1  0.00000  0.00000  0.00000  1
 Se  Se1  1  0.37732  0.37732  0.37732  1
 Se  Se2  1  0.85659  0.43024  0.85659  1
 Se  Se3  1  0.85659  0.85659  0.43024  1
 Se  Se4  1  0.85659  0.85659  0.85659  1
 Se  Se5  1  0.86805  0.37732  0.37732  1
 Se  Se6  1  0.37732  0.86805  0.37732  1
 Se  Se7  1  0.43024  0.85659  0.85659  1
 Se  Se8  1  0.37732  0.37732  0.86805  1
