CIF file written using JARVIS-Tools package.
data_MnSe2O5
_symmetry_space_group_name_H-M  'Pbcn'
_cell_length_a       5.86362
_cell_length_b       6.93594
_cell_length_c       9.90116
_cell_angle_alpha    90
_cell_angle_beta     90
_cell_angle_gamma    90

_symmetry_Int_Tables_number  60
_chemical_formula_structural  MnSe2O5
_chemical_formula_sum  Mn4Se8O20
_cell_volume  402.6773461652769
_cell_formula_units_Z  4
loop_
  _symmetry_equiv_pos_site_id
 _symmetry_equiv_pos_as_xyz
 1  'x, y, z'
loop_
 _atom_site_type_symbol
 _atom_site_label
 _atom_site_symmetry_multiplicity
 _atom_site_fract_x
 _atom_site_fract_y
 _atom_site_fract_z
 _atom_site_fract_occupancy
 Mn  Mn1  1  0.25000  0.00000  0.05741  1
 Mn  Mn2  1  0.75000  0.50000  0.44259  1
 Mn  Mn3  1  0.75000  0.00000  0.94259  1
 Mn  Mn4  1  0.25000  0.50000  0.55741  1
 O  O1  1  0.14855  0.31562  0.69361  1
 O  O2  1  0.85145  0.81562  0.80639  1
 O  O3  1  0.25000  0.50000  0.93269  1
 O  O4  1  0.85145  0.68438  0.30639  1
 O  O5  1  0.35145  0.81562  0.19361  1
 O  O6  1  0.64855  0.31562  0.30639  1
 O  O7  1  0.04829  0.36032  0.42417  1
 O  O8  1  0.04829  0.13968  0.92417  1
 O  O9  1  0.75000  0.00000  0.56731  1
 O  O10  1  0.75000  0.50000  0.06731  1
 O  O11  1  0.25000  0.00000  0.43269  1
 O  O12  1  0.14855  0.18438  0.19361  1
 O  O13  1  0.54829  0.13968  0.07583  1
 O  O14  1  0.45171  0.63968  0.42417  1
 O  O15  1  0.35145  0.68438  0.69361  1
 O  O16  1  0.95171  0.63968  0.57583  1
 O  O17  1  0.45171  0.86032  0.92417  1
 O  O18  1  0.64855  0.18438  0.80639  1
 O  O19  1  0.95171  0.86032  0.07583  1
 O  O20  1  0.54829  0.36032  0.57583  1
 Se  Se1  1  0.48928  0.63232  0.84418  1
 Se  Se2  1  0.01072  0.36768  0.84418  1
 Se  Se3  1  0.51072  0.13232  0.65582  1
 Se  Se4  1  0.98928  0.86768  0.65582  1
 Se  Se5  1  0.01072  0.13232  0.34418  1
 Se  Se6  1  0.98928  0.63232  0.15582  1
 Se  Se7  1  0.48928  0.86768  0.34418  1
 Se  Se8  1  0.51072  0.36768  0.15582  1
