CIF file written using JARVIS-Tools package.
data_CeGaGe
_symmetry_space_group_name_H-M  'I4_1md'
_cell_length_a       4.23695
_cell_length_b       4.23695
_cell_length_c       7.94161
_cell_angle_alpha    105.471
_cell_angle_beta     105.471
_cell_angle_gamma    90

_symmetry_Int_Tables_number  109
_chemical_formula_structural  CeGaGe
_chemical_formula_sum  Ce2Ga2Ge2
_cell_volume  132.0316353548001
_cell_formula_units_Z  2
loop_
  _symmetry_equiv_pos_site_id
 _symmetry_equiv_pos_as_xyz
 1  'x, y, z'
loop_
 _atom_site_type_symbol
 _atom_site_label
 _atom_site_symmetry_multiplicity
 _atom_site_fract_x
 _atom_site_fract_y
 _atom_site_fract_z
 _atom_site_fract_occupancy
 Ce  Ce1  1  0.58242  0.58242  0.16485  1
 Ce  Ce2  1  0.83242  0.33242  0.66485  1
 Ga  Ga1  1  0.16531  0.16531  0.33063  1
 Ga  Ga2  1  0.41531  0.91531  0.83063  1
 Ge  Ge1  1  0.99926  0.99926  0.99852  1
 Ge  Ge2  1  0.24926  0.74926  0.49852  1
