CIF file written using JARVIS-Tools package.
data_Nb5Si4Cu4
_symmetry_space_group_name_H-M  'I4/m'
_cell_length_a       3.62855
_cell_length_b       7.49452
_cell_length_c       7.49451
_cell_angle_alpha    86.6404
_cell_angle_beta     75.9906
_cell_angle_gamma    75.9906

_symmetry_Int_Tables_number  87
_chemical_formula_structural  Nb5Si4Cu4
_chemical_formula_sum  Nb5Si4Cu4
_cell_volume  191.86378644575962
_cell_formula_units_Z  1
loop_
  _symmetry_equiv_pos_site_id
 _symmetry_equiv_pos_as_xyz
 1  'x, y, z'
loop_
 _atom_site_type_symbol
 _atom_site_label
 _atom_site_symmetry_multiplicity
 _atom_site_fract_x
 _atom_site_fract_y
 _atom_site_fract_z
 _atom_site_fract_occupancy
 Cu  Cu1  1  0.91740  0.68595  0.47925  1
 Cu  Cu2  1  0.08260  0.31405  0.52075  1
 Cu  Cu3  1  0.60335  0.47925  0.31405  1
 Cu  Cu4  1  0.39665  0.52075  0.68595  1
 Nb  Nb1  1  0.50000  0.00000  -0.00000  1
 Nb  Nb2  1  0.80461  0.06675  0.32403  1
 Nb  Nb3  1  0.12864  0.67597  0.06675  1
 Nb  Nb4  1  0.87136  0.32403  0.93325  1
 Nb  Nb5  1  0.19539  0.93325  0.67597  1
 Si  Si1  1  0.55987  0.19284  0.68742  1
 Si  Si2  1  0.24729  0.31258  0.19284  1
 Si  Si3  1  0.75271  0.68742  0.80716  1
 Si  Si4  1  0.44013  0.80716  0.31258  1
