CIF file written using JARVIS-Tools package.
data_Tb2InPd2
_symmetry_space_group_name_H-M  'P4/mbm'
_cell_length_a       7.74208
_cell_length_b       7.74208
_cell_length_c       3.70103
_cell_angle_alpha    90
_cell_angle_beta     90
_cell_angle_gamma    90

_symmetry_Int_Tables_number  127
_chemical_formula_structural  Tb2InPd2
_chemical_formula_sum  Tb4In2Pd4
_cell_volume  221.83896502091278
_cell_formula_units_Z  2
loop_
  _symmetry_equiv_pos_site_id
 _symmetry_equiv_pos_as_xyz
 1  'x, y, z'
loop_
 _atom_site_type_symbol
 _atom_site_label
 _atom_site_symmetry_multiplicity
 _atom_site_fract_x
 _atom_site_fract_y
 _atom_site_fract_z
 _atom_site_fract_occupancy
 In  In1  1  0.00000  0.00000  0.00000  1
 In  In2  1  0.50000  0.50000  0.00000  1
 Pd  Pd1  1  0.37195  0.12805  0.00000  1
 Pd  Pd2  1  0.87195  0.37195  0.00000  1
 Pd  Pd3  1  0.12805  0.62805  0.00000  1
 Pd  Pd4  1  0.62805  0.87195  0.00000  1
 Tb  Tb1  1  0.32691  0.82691  0.50000  1
 Tb  Tb2  1  0.82691  0.67309  0.50000  1
 Tb  Tb3  1  0.17309  0.32691  0.50000  1
 Tb  Tb4  1  0.67309  0.17309  0.50000  1
