CIF file written using JARVIS-Tools package.
data_TeH6O6
_symmetry_space_group_name_H-M  'I4/m'
_cell_length_a       5.36069
_cell_length_b       6.19512
_cell_length_c       6.19512
_cell_angle_alpha    51.2723
_cell_angle_beta     64.3639
_cell_angle_gamma    64.3639

_symmetry_Int_Tables_number  87
_chemical_formula_structural  TeH6O6
_chemical_formula_sum  TeH6O6
_cell_volume  140.81431631104545
_cell_formula_units_Z  1
loop_
  _symmetry_equiv_pos_site_id
 _symmetry_equiv_pos_as_xyz
 1  'x, y, z'
loop_
 _atom_site_type_symbol
 _atom_site_label
 _atom_site_symmetry_multiplicity
 _atom_site_fract_x
 _atom_site_fract_y
 _atom_site_fract_z
 _atom_site_fract_occupancy
 H  H1  1  0.28917  0.71083  0.71083  1
 H  H2  1  0.41105  0.22235  0.77765  1
 H  H3  1  0.22235  0.58895  0.41105  1
 H  H4  1  0.71083  0.28917  0.28917  1
 H  H5  1  0.58895  0.77765  0.22235  1
 H  H6  1  0.77765  0.41105  0.58895  1
 O  O1  1  0.19079  0.80921  0.80921  1
 O  O2  1  0.23205  0.27871  0.72129  1
 O  O3  1  0.27871  0.76795  0.23205  1
 O  O4  1  0.80921  0.19079  0.19079  1
 O  O5  1  0.76795  0.72129  0.27871  1
 O  O6  1  0.72129  0.23205  0.76795  1
 Te  Te1  1  0.00000  0.00000  0.00000  1
