CIF file written using JARVIS-Tools package.
data_ReN2
_symmetry_space_group_name_H-M  'P4/mbm'
_cell_length_a       4.40396
_cell_length_b       4.40396
_cell_length_c       2.66975
_cell_angle_alpha    90
_cell_angle_beta     90
_cell_angle_gamma    90

_symmetry_Int_Tables_number  127
_chemical_formula_structural  ReN2
_chemical_formula_sum  Re2N4
_cell_volume  51.77947972272252
_cell_formula_units_Z  2
loop_
  _symmetry_equiv_pos_site_id
 _symmetry_equiv_pos_as_xyz
 1  'x, y, z'
loop_
 _atom_site_type_symbol
 _atom_site_label
 _atom_site_symmetry_multiplicity
 _atom_site_fract_x
 _atom_site_fract_y
 _atom_site_fract_z
 _atom_site_fract_occupancy
 N  N1  1  0.11436  0.61436  0.00000  1
 N  N2  1  0.88564  0.38564  0.00000  1
 N  N3  1  0.61436  0.88564  0.00000  1
 N  N4  1  0.38564  0.11436  0.00000  1
 Re  Re1  1  0.50000  0.50000  0.50000  1
 Re  Re2  1  0.00000  0.00000  0.50000  1
