CIF file written using JARVIS-Tools package.
data_Si3Rh5
_symmetry_space_group_name_H-M  'Pbam'
_cell_length_a       3.89052
_cell_length_b       5.40943
_cell_length_c       10.3924
_cell_angle_alpha    90
_cell_angle_beta     90
_cell_angle_gamma    90

_symmetry_Int_Tables_number  55
_chemical_formula_structural  Si3Rh5
_chemical_formula_sum  Si6Rh0
_cell_volume  218.71317399865595
_cell_formula_units_Z  2
loop_
  _symmetry_equiv_pos_site_id
 _symmetry_equiv_pos_as_xyz
 1  'x, y, z'
loop_
 _atom_site_type_symbol
 _atom_site_label
 _atom_site_symmetry_multiplicity
 _atom_site_fract_x
 _atom_site_fract_y
 _atom_site_fract_z
 _atom_site_fract_occupancy
 Rh  Rh1  1  0.50000  0.33578  0.39174  1
 Rh  Rh2  1  0.50000  0.66422  0.60826  1
 Rh  Rh3  1  0.50000  0.83578  0.10826  1
 Rh  Rh4  1  0.50000  0.16422  0.89174  1
 Rh  Rh5  1  0.00000  0.33661  0.71170  1
 Rh  Rh6  1  0.00000  0.66339  0.28830  1
 Rh  Rh7  1  0.00000  0.83661  0.78830  1
 Rh  Rh8  1  0.00000  0.16339  0.21170  1
 Rh  Rh9  1  0.00000  0.50000  0.00000  1
 Rh  Rh10  1  0.00000  0.00000  0.50000  1
 Si  Si1  1  0.50000  0.08972  0.65630  1
 Si  Si2  1  0.50000  0.91028  0.34370  1
 Si  Si3  1  0.50000  0.58972  0.84370  1
 Si  Si4  1  0.50000  0.41028  0.15630  1
 Si  Si5  1  0.00000  0.50000  0.50000  1
 Si  Si6  1  0.00000  0.00000  0.00000  1
