CIF file written using JARVIS-Tools package.
data_ErInNi4
_symmetry_space_group_name_H-M  'F-43m'
_cell_length_a       4.96223
_cell_length_b       4.96223
_cell_length_c       4.96223
_cell_angle_alpha    60
_cell_angle_beta     60
_cell_angle_gamma    60

_symmetry_Int_Tables_number  216
_chemical_formula_structural  ErInNi4
_chemical_formula_sum  ErInNi4
_cell_volume  86.40056235445564
_cell_formula_units_Z  1
loop_
  _symmetry_equiv_pos_site_id
 _symmetry_equiv_pos_as_xyz
 1  'x, y, z'
loop_
 _atom_site_type_symbol
 _atom_site_label
 _atom_site_symmetry_multiplicity
 _atom_site_fract_x
 _atom_site_fract_y
 _atom_site_fract_z
 _atom_site_fract_occupancy
 Er  Er1  1  0.75000  0.75000  0.75000  1
 In  In1  1  0.00000  0.00000  0.00000  1
 Ni  Ni1  1  0.37431  0.37431  0.37431  1
 Ni  Ni2  1  0.87707  0.37431  0.37431  1
 Ni  Ni3  1  0.37431  0.87707  0.37431  1
 Ni  Ni4  1  0.37431  0.37431  0.87707  1
