CIF file written using JARVIS-Tools package.
data_Ti2CoSe4
_symmetry_space_group_name_H-M  'C2/m'
_cell_length_a       3.57989
_cell_length_b       6.15972
_cell_length_c       6.82402
_cell_angle_alpha    116.363
_cell_angle_beta     105.207
_cell_angle_gamma    90

_symmetry_Int_Tables_number  12
_chemical_formula_structural  Ti2CoSe4
_chemical_formula_sum  Ti2CoSe4
_cell_volume  128.92119557392255
_cell_formula_units_Z  1
loop_
  _symmetry_equiv_pos_site_id
 _symmetry_equiv_pos_as_xyz
 1  'x, y, z'
loop_
 _atom_site_type_symbol
 _atom_site_label
 _atom_site_symmetry_multiplicity
 _atom_site_fract_x
 _atom_site_fract_y
 _atom_site_fract_z
 _atom_site_fract_occupancy
 Co  Co1  1  0.00000  0.00000  0.00000  1
 Se  Se1  1  0.11417  0.44990  0.22834  1
 Se  Se2  1  0.88583  0.55010  0.77166  1
 Se  Se3  1  0.38009  0.04504  0.76019  1
 Se  Se4  1  0.61991  0.95496  0.23981  1
 Ti  Ti1  1  0.25214  0.26512  0.50428  1
 Ti  Ti2  1  0.74786  0.73488  0.49572  1
