CIF file written using JARVIS-Tools package.
data_Ti2B
_symmetry_space_group_name_H-M  'I4/mcm'
_cell_length_a       4.77287
_cell_length_b       4.64492
_cell_length_c       4.64492
_cell_angle_alpha    74.6946
_cell_angle_beta     59.0845
_cell_angle_gamma    59.0845

_symmetry_Int_Tables_number  140
_chemical_formula_structural  Ti2B
_chemical_formula_sum  Ti4B2
_cell_volume  75.79436512809636
_cell_formula_units_Z  2
loop_
  _symmetry_equiv_pos_site_id
 _symmetry_equiv_pos_as_xyz
 1  'x, y, z'
loop_
 _atom_site_type_symbol
 _atom_site_label
 _atom_site_symmetry_multiplicity
 _atom_site_fract_x
 _atom_site_fract_y
 _atom_site_fract_z
 _atom_site_fract_occupancy
 B  B1  1  0.25000  0.00000  0.00000  1
 B  B2  1  0.75000  0.00000  0.00000  1
 Ti  Ti1  1  0.16501  0.50000  0.16997  1
 Ti  Ti2  1  0.83499  0.50000  0.83003  1
 Ti  Ti3  1  0.33499  0.83003  0.50000  1
 Ti  Ti4  1  0.66501  0.16997  0.50000  1
