CIF file written using JARVIS-Tools package.
data_ZnN2F4
_symmetry_space_group_name_H-M  'I4/mmm'
_cell_length_a       3.89681
_cell_length_b       3.89681
_cell_length_c       7.72651
_cell_angle_alpha    104.606
_cell_angle_beta     104.606
_cell_angle_gamma    90

_symmetry_Int_Tables_number  139
_chemical_formula_structural  ZnN2F4
_chemical_formula_sum  ZnN2F4
_cell_volume  109.61343712240229
_cell_formula_units_Z  1
loop_
  _symmetry_equiv_pos_site_id
 _symmetry_equiv_pos_as_xyz
 1  'x, y, z'
loop_
 _atom_site_type_symbol
 _atom_site_label
 _atom_site_symmetry_multiplicity
 _atom_site_fract_x
 _atom_site_fract_y
 _atom_site_fract_z
 _atom_site_fract_occupancy
 F  F1  1  0.24548  0.24548  0.49097  1
 F  F2  1  0.75452  0.75452  0.50903  1
 F  F3  1  0.00000  0.50000  0.00000  1
 F  F4  1  0.50000  0.00000  0.00000  1
 N  N1  1  0.33907  0.33907  0.67813  1
 N  N2  1  0.66093  0.66093  0.32187  1
 Zn  Zn1  1  0.00000  0.00000  0.00000  1
