CIF file written using JARVIS-Tools package.
data_Mn3Mo3C
_symmetry_space_group_name_H-M  'Fd-3m'
_cell_length_a       7.84781
_cell_length_b       7.84781
_cell_length_c       7.84781
_cell_angle_alpha    60
_cell_angle_beta     60
_cell_angle_gamma    60

_symmetry_Int_Tables_number  227
_chemical_formula_structural  Mn3Mo3C
_chemical_formula_sum  Mn2Mo2C4
_cell_volume  341.76744396392127
_cell_formula_units_Z  4
loop_
  _symmetry_equiv_pos_site_id
 _symmetry_equiv_pos_as_xyz
 1  'x, y, z'
loop_
 _atom_site_type_symbol
 _atom_site_label
 _atom_site_symmetry_multiplicity
 _atom_site_fract_x
 _atom_site_fract_y
 _atom_site_fract_z
 _atom_site_fract_occupancy
 C  C1  1  -0.00000  0.50000  -0.00000  1
 C  C2  1  0.50000  0.00000  -0.00000  1
 C  C3  1  0.00000  0.00000  0.00000  1
 C  C4  1  0.00000  0.00000  0.50000  1
 Mn  Mn1  1  0.70312  0.70312  0.70312  1
 Mn  Mn2  1  0.50000  0.00000  0.50000  1
 Mn  Mn3  1  0.29688  0.29688  0.60937  1
 Mn  Mn4  1  0.60937  0.29688  0.29688  1
 Mn  Mn5  1  0.50000  0.50000  -0.00000  1
 Mn  Mn6  1  0.39063  0.70312  0.70312  1
 Mn  Mn7  1  0.70312  0.70312  0.39063  1
 Mn  Mn8  1  0.29688  0.29688  0.29688  1
 Mn  Mn9  1  0.29688  0.60937  0.29688  1
 Mn  Mn10  1  -0.00000  0.50000  0.50000  1
 Mn  Mn11  1  0.50000  0.50000  0.50000  1
 Mn  Mn12  1  0.70312  0.39063  0.70312  1
 Mo  Mo1  1  0.07280  0.67720  0.07280  1
 Mo  Mo2  1  0.67720  0.07280  0.07280  1
 Mo  Mo3  1  0.92720  0.32280  0.92720  1
 Mo  Mo4  1  0.32280  0.92720  0.32280  1
 Mo  Mo5  1  0.07280  0.07280  0.67720  1
 Mo  Mo6  1  0.67720  0.07280  0.67720  1
 Mo  Mo7  1  0.92720  0.92720  0.32280  1
 Mo  Mo8  1  0.92720  0.32280  0.32280  1
 Mo  Mo9  1  0.32280  0.92720  0.92720  1
 Mo  Mo10  1  0.67720  0.67720  0.07280  1
 Mo  Mo11  1  0.32280  0.32280  0.92720  1
 Mo  Mo12  1  0.07280  0.67720  0.67720  1
