CIF file written using JARVIS-Tools package.
data_Rb2TiSi3O9
_symmetry_space_group_name_H-M  'P6_3/m'
_cell_length_a       6.9304
_cell_length_b       6.9304
_cell_length_c       10.0841
_cell_angle_alpha    90
_cell_angle_beta     90
_cell_angle_gamma    120

_symmetry_Int_Tables_number  176
_chemical_formula_structural  Rb2TiSi3O9
_chemical_formula_sum  Rb4Ti2Si6O8
_cell_volume  419.45249197275024
_cell_formula_units_Z  2
loop_
  _symmetry_equiv_pos_site_id
 _symmetry_equiv_pos_as_xyz
 1  'x, y, z'
loop_
 _atom_site_type_symbol
 _atom_site_label
 _atom_site_symmetry_multiplicity
 _atom_site_fract_x
 _atom_site_fract_y
 _atom_site_fract_z
 _atom_site_fract_occupancy
 O  O1  1  0.49349  0.41038  0.25000  1
 O  O2  1  0.03008  0.78470  0.61271  1
 O  O3  1  0.78470  0.75462  0.11271  1
 O  O4  1  0.08310  0.49349  0.75000  1
 O  O5  1  0.75462  0.96992  0.61271  1
 O  O6  1  0.21530  0.24538  0.61271  1
 O  O7  1  0.96992  0.21530  0.11271  1
 O  O8  1  0.96992  0.21530  0.38729  1
 O  O9  1  0.24538  0.03008  0.11271  1
 O  O10  1  0.75462  0.96992  0.88729  1
 O  O11  1  0.78470  0.75462  0.38729  1
 O  O12  1  0.03008  0.78470  0.88729  1
 O  O13  1  0.41038  0.91690  0.75000  1
 O  O14  1  0.91690  0.50651  0.25000  1
 O  O15  1  0.58962  0.08310  0.25000  1
 O  O16  1  0.50651  0.58962  0.75000  1
 O  O17  1  0.24538  0.03008  0.38729  1
 O  O18  1  0.21530  0.24538  0.88729  1
 Rb  Rb1  1  0.66667  0.33333  0.94154  1
 Rb  Rb2  1  0.33333  0.66667  0.44154  1
 Rb  Rb3  1  0.33333  0.66667  0.05846  1
 Rb  Rb4  1  0.66667  0.33333  0.55846  1
 Si  Si1  1  0.62296  0.86571  0.75000  1
 Si  Si2  1  0.86571  0.24275  0.25000  1
 Si  Si3  1  0.24275  0.37704  0.75000  1
 Si  Si4  1  0.37704  0.13429  0.25000  1
 Si  Si5  1  0.75725  0.62296  0.25000  1
 Si  Si6  1  0.13429  0.75725  0.75000  1
 Ti  Ti1  1  0.00000  0.00000  0.00000  1
 Ti  Ti2  1  0.00000  0.00000  0.50000  1
