CIF file written using JARVIS-Tools package.
data_NdGeRh
_symmetry_space_group_name_H-M  'Pnma'
_cell_length_a       4.47055
_cell_length_b       7.20666
_cell_length_c       7.5208
_cell_angle_alpha    90
_cell_angle_beta     90
_cell_angle_gamma    90

_symmetry_Int_Tables_number  62
_chemical_formula_structural  NdGeRh
_chemical_formula_sum  Nd4Ge4Rh4
_cell_volume  242.30309061110734
_cell_formula_units_Z  4
loop_
  _symmetry_equiv_pos_site_id
 _symmetry_equiv_pos_as_xyz
 1  'x, y, z'
loop_
 _atom_site_type_symbol
 _atom_site_label
 _atom_site_symmetry_multiplicity
 _atom_site_fract_x
 _atom_site_fract_y
 _atom_site_fract_z
 _atom_site_fract_occupancy
 Ge  Ge1  1  0.25000  0.30076  0.09879  1
 Ge  Ge2  1  0.75000  0.69924  0.90121  1
 Ge  Ge3  1  0.25000  0.80076  0.40121  1
 Ge  Ge4  1  0.75000  0.19924  0.59879  1
 Nd  Nd1  1  0.25000  0.48975  0.69126  1
 Nd  Nd2  1  0.75000  0.51025  0.30874  1
 Nd  Nd3  1  0.25000  0.98975  0.80874  1
 Nd  Nd4  1  0.75000  0.01025  0.19126  1
 Rh  Rh1  1  0.75000  0.83949  0.57631  1
 Rh  Rh2  1  0.25000  0.16051  0.42369  1
 Rh  Rh3  1  0.75000  0.33949  0.92369  1
 Rh  Rh4  1  0.25000  0.66051  0.07631  1
