CIF file written using JARVIS-Tools package.
data_MoO3
_symmetry_space_group_name_H-M  'Pnma'
_cell_length_a       3.71185
_cell_length_b       3.92201
_cell_length_c       14.075
_cell_angle_alpha    90
_cell_angle_beta     90
_cell_angle_gamma    90

_symmetry_Int_Tables_number  62
_chemical_formula_structural  MoO3
_chemical_formula_sum  Mo4O2
_cell_volume  204.90375737274894
_cell_formula_units_Z  4
loop_
  _symmetry_equiv_pos_site_id
 _symmetry_equiv_pos_as_xyz
 1  'x, y, z'
loop_
 _atom_site_type_symbol
 _atom_site_label
 _atom_site_symmetry_multiplicity
 _atom_site_fract_x
 _atom_site_fract_y
 _atom_site_fract_z
 _atom_site_fract_occupancy
 Mo  Mo1  1  0.25000  0.42620  0.60365  1
 Mo  Mo2  1  0.75000  0.57380  0.39635  1
 Mo  Mo3  1  0.75000  0.92620  0.89635  1
 Mo  Mo4  1  0.25000  0.07380  0.10365  1
 O  O1  1  0.25000  0.46638  0.72238  1
 O  O2  1  0.75000  0.53362  0.27763  1
 O  O3  1  0.75000  0.96638  0.77763  1
 O  O4  1  0.25000  0.03362  0.22238  1
 O  O5  1  0.25000  0.49996  0.43410  1
 O  O6  1  0.75000  0.50004  0.56590  1
 O  O7  1  0.75000  -0.00004  0.06590  1
 O  O8  1  0.25000  0.00004  0.93410  1
 O  O9  1  0.25000  0.98149  0.58793  1
 O  O10  1  0.75000  0.48149  0.91207  1
 O  O11  1  0.75000  0.01851  0.41207  1
 O  O12  1  0.25000  0.51851  0.08793  1
