CIF file written using JARVIS-Tools package.
data_Sm3Si6N11
_symmetry_space_group_name_H-M  'P4bm'
_cell_length_a       10.0591
_cell_length_b       10.0591
_cell_length_c       4.88724
_cell_angle_alpha    90
_cell_angle_beta     90
_cell_angle_gamma    90

_symmetry_Int_Tables_number  100
_chemical_formula_structural  Sm3Si6N11
_chemical_formula_sum  Sm6Si2N22
_cell_volume  494.51444759384054
_cell_formula_units_Z  2
loop_
  _symmetry_equiv_pos_site_id
 _symmetry_equiv_pos_as_xyz
 1  'x, y, z'
loop_
 _atom_site_type_symbol
 _atom_site_label
 _atom_site_symmetry_multiplicity
 _atom_site_fract_x
 _atom_site_fract_y
 _atom_site_fract_z
 _atom_site_fract_occupancy
 N  N1  1  0.08000  0.81963  0.64912  1
 N  N2  1  0.31963  0.58000  0.64912  1
 N  N3  1  0.42000  0.31963  0.64912  1
 N  N4  1  0.58000  0.68037  0.64912  1
 N  N5  1  0.07749  0.22640  0.17764  1
 N  N6  1  0.22640  0.92251  0.17764  1
 N  N7  1  0.92251  0.77360  0.17764  1
 N  N8  1  0.00000  0.50000  0.07706  1
 N  N9  1  0.68037  0.42000  0.64912  1
 N  N10  1  0.42251  0.72640  0.17764  1
 N  N11  1  0.72640  0.57749  0.17764  1
 N  N12  1  0.65218  0.15218  0.69549  1
 N  N13  1  0.15218  0.34782  0.69549  1
 N  N14  1  0.84782  0.65218  0.69549  1
 N  N15  1  0.34782  0.84782  0.69549  1
 N  N16  1  0.92000  0.18037  0.64912  1
 N  N17  1  0.50000  0.00000  0.07706  1
 N  N18  1  0.27360  0.42251  0.17764  1
 N  N19  1  0.18037  0.08000  0.64912  1
 N  N20  1  0.81963  0.92000  0.64912  1
 N  N21  1  0.77360  0.07749  0.17764  1
 N  N22  1  0.57749  0.27360  0.17764  1
 Si  Si1  1  0.07889  0.20897  0.53187  1
 Si  Si2  1  0.20897  0.92111  0.53187  1
 Si  Si3  1  0.79103  0.07889  0.53187  1
 Si  Si4  1  0.42111  0.70897  0.53187  1
 Si  Si5  1  0.57889  0.29103  0.53187  1
 Si  Si6  1  0.92111  0.79103  0.53187  1
 Si  Si7  1  0.61804  0.11804  0.04298  1
 Si  Si8  1  0.11804  0.38196  0.04298  1
 Si  Si9  1  0.88196  0.61804  0.04298  1
 Si  Si10  1  0.38196  0.88196  0.04298  1
 Si  Si11  1  0.29103  0.42111  0.53187  1
 Si  Si12  1  0.70897  0.57889  0.53187  1
 Sm  Sm1  1  0.18210  0.68210  0.99850  1
 Sm  Sm2  1  0.68210  0.81790  0.99850  1
 Sm  Sm3  1  0.31790  0.18210  0.99850  1
 Sm  Sm4  1  0.81790  0.31790  0.99850  1
 Sm  Sm5  1  0.00000  0.00000  0.98300  1
 Sm  Sm6  1  0.50000  0.50000  0.98300  1
