CIF file written using JARVIS-Tools package.
data_TbB2C
_symmetry_space_group_name_H-M  'P4_2/mbc'
_cell_length_a       6.79625
_cell_length_b       6.79625
_cell_length_c       7.56166
_cell_angle_alpha    90
_cell_angle_beta     90
_cell_angle_gamma    90

_symmetry_Int_Tables_number  135
_chemical_formula_structural  TbB2C
_chemical_formula_sum  Tb8B6C8
_cell_volume  349.26556502288213
_cell_formula_units_Z  8
loop_
  _symmetry_equiv_pos_site_id
 _symmetry_equiv_pos_as_xyz
 1  'x, y, z'
loop_
 _atom_site_type_symbol
 _atom_site_label
 _atom_site_symmetry_multiplicity
 _atom_site_fract_x
 _atom_site_fract_y
 _atom_site_fract_z
 _atom_site_fract_occupancy
 B  B1  1  0.09694  0.59507  0.00000  1
 B  B2  1  0.65193  0.46547  0.00000  1
 B  B3  1  0.03453  0.84807  0.50000  1
 B  B4  1  0.96547  0.15193  0.50000  1
 B  B5  1  0.46547  0.34807  0.50000  1
 B  B6  1  0.53453  0.65193  0.50000  1
 B  B7  1  0.40493  0.09694  0.50000  1
 B  B8  1  0.59507  0.90306  0.50000  1
 B  B9  1  0.59694  0.90493  0.00000  1
 B  B10  1  0.40306  0.09507  0.00000  1
 B  B11  1  0.90306  0.40493  0.00000  1
 B  B12  1  0.09507  0.59694  0.50000  1
 B  B13  1  0.90493  0.40306  0.50000  1
 B  B14  1  0.15193  0.03453  0.00000  1
 B  B15  1  0.34807  0.53453  0.00000  1
 B  B16  1  0.84807  0.96547  0.00000  1
 C  C1  1  0.17724  0.04069  0.50000  1
 C  C2  1  0.67724  0.45931  0.50000  1
 C  C3  1  0.32276  0.54069  0.50000  1
 C  C4  1  0.95931  0.17724  0.00000  1
 C  C5  1  0.04069  0.82276  0.00000  1
 C  C6  1  0.54069  0.67724  0.00000  1
 C  C7  1  0.45931  0.32276  0.00000  1
 C  C8  1  0.82276  0.95931  0.50000  1
 Tb  Tb1  1  0.30947  0.80947  0.25000  1
 Tb  Tb2  1  0.19053  0.30947  0.75000  1
 Tb  Tb3  1  0.80947  0.69053  0.75000  1
 Tb  Tb4  1  0.69053  0.19053  0.25000  1
 Tb  Tb5  1  0.69053  0.19053  0.75000  1
 Tb  Tb6  1  0.80947  0.69053  0.25000  1
 Tb  Tb7  1  0.19053  0.30947  0.25000  1
 Tb  Tb8  1  0.30947  0.80947  0.75000  1
