CIF file written using JARVIS-Tools package.
data_Y2TiO5
_symmetry_space_group_name_H-M  'Pnma'
_cell_length_a       3.70091
_cell_length_b       10.3841
_cell_length_c       11.2966
_cell_angle_alpha    90
_cell_angle_beta     90
_cell_angle_gamma    90

_symmetry_Int_Tables_number  62
_chemical_formula_structural  Y2TiO5
_chemical_formula_sum  Y8Ti4O20
_cell_volume  434.13379136862324
_cell_formula_units_Z  4
loop_
  _symmetry_equiv_pos_site_id
 _symmetry_equiv_pos_as_xyz
 1  'x, y, z'
loop_
 _atom_site_type_symbol
 _atom_site_label
 _atom_site_symmetry_multiplicity
 _atom_site_fract_x
 _atom_site_fract_y
 _atom_site_fract_z
 _atom_site_fract_occupancy
 O  O1  1  0.25000  0.99437  0.60538  1
 O  O2  1  0.25000  0.76512  0.88428  1
 O  O3  1  0.75000  0.23488  0.11572  1
 O  O4  1  0.25000  0.26512  0.61572  1
 O  O5  1  0.75000  0.27515  0.45604  1
 O  O6  1  0.25000  0.00426  0.15315  1
 O  O7  1  0.75000  0.99574  0.84685  1
 O  O8  1  0.25000  0.50426  0.34685  1
 O  O9  1  0.75000  0.49574  0.65315  1
 O  O10  1  0.75000  0.73488  0.38428  1
 O  O11  1  0.75000  0.24528  0.76994  1
 O  O12  1  0.75000  0.74528  0.73006  1
 O  O13  1  0.75000  0.50563  0.10538  1
 O  O14  1  0.25000  0.49437  0.89462  1
 O  O15  1  0.75000  0.00563  0.39462  1
 O  O16  1  0.25000  0.72485  0.54396  1
 O  O17  1  0.75000  0.77515  0.04396  1
 O  O18  1  0.25000  0.22485  0.95604  1
 O  O19  1  0.25000  0.25472  0.26994  1
 O  O20  1  0.25000  0.75472  0.23006  1
 Ti  Ti1  1  0.75000  0.32755  0.61822  1
 Ti  Ti2  1  0.25000  0.67245  0.38178  1
 Ti  Ti3  1  0.25000  0.17245  0.11822  1
 Ti  Ti4  1  0.75000  0.82755  0.88178  1
 Y  Y1  1  0.75000  0.88353  0.22357  1
 Y  Y2  1  0.25000  0.11647  0.77643  1
 Y  Y3  1  0.75000  0.38353  0.27643  1
 Y  Y4  1  0.25000  0.61647  0.72357  1
 Y  Y5  1  0.75000  0.86404  0.55664  1
 Y  Y6  1  0.25000  0.13596  0.44336  1
 Y  Y7  1  0.75000  0.36404  0.94336  1
 Y  Y8  1  0.25000  0.63596  0.05664  1
