CIF file written using JARVIS-Tools package.
data_Cd4SF6
_symmetry_space_group_name_H-M  'R-3m'
_cell_length_a       3.87488
_cell_length_b       3.8749
_cell_length_c       12.731
_cell_angle_alpha    81.2436
_cell_angle_beta     81.2466
_cell_angle_gamma    60.0002

_symmetry_Int_Tables_number  166
_chemical_formula_structural  Cd4SF6
_chemical_formula_sum  Cd4SF6
_cell_volume  162.96715039526038
_cell_formula_units_Z  1
loop_
  _symmetry_equiv_pos_site_id
 _symmetry_equiv_pos_as_xyz
 1  'x, y, z'
loop_
 _atom_site_type_symbol
 _atom_site_label
 _atom_site_symmetry_multiplicity
 _atom_site_fract_x
 _atom_site_fract_y
 _atom_site_fract_z
 _atom_site_fract_occupancy
 Cd  Cd1  1  0.20817  0.20818  0.37548  1
 Cd  Cd2  1  0.79183  0.79182  0.62452  1
 Cd  Cd3  1  0.62563  0.62562  0.12312  1
 Cd  Cd4  1  0.37437  0.37438  0.87688  1
 F  F1  1  0.14576  0.14577  0.56270  1
 F  F2  1  0.85424  0.85423  0.43730  1
 F  F3  1  0.43722  0.43721  0.68836  1
 F  F4  1  0.56278  0.56279  0.31164  1
 F  F5  1  0.72993  0.72994  0.81020  1
 F  F6  1  0.27007  0.27006  0.18980  1
 S  S1  1  0.00000  0.00000  0.00000  1
