CIF file written using JARVIS-Tools package.
data_InAs
_symmetry_space_group_name_H-M  'Pa-3'
_cell_length_a       7.54825
_cell_length_b       7.54825
_cell_length_c       7.54825
_cell_angle_alpha    90
_cell_angle_beta     90
_cell_angle_gamma    90

_symmetry_Int_Tables_number  205
_chemical_formula_structural  InAs
_chemical_formula_sum  In8As8
_cell_volume  430.0691023293306
_cell_formula_units_Z  8
loop_
  _symmetry_equiv_pos_site_id
 _symmetry_equiv_pos_as_xyz
 1  'x, y, z'
loop_
 _atom_site_type_symbol
 _atom_site_label
 _atom_site_symmetry_multiplicity
 _atom_site_fract_x
 _atom_site_fract_y
 _atom_site_fract_z
 _atom_site_fract_occupancy
 As  As1  1  0.13804  0.36196  0.63804  1
 As  As2  1  0.36196  0.63804  0.13804  1
 As  As3  1  0.63804  0.13804  0.36196  1
 As  As4  1  0.86196  0.86196  0.86196  1
 As  As5  1  0.86196  0.63804  0.36196  1
 As  As6  1  0.63804  0.36196  0.86196  1
 As  As7  1  0.36196  0.86196  0.63804  1
 As  As8  1  0.13804  0.13804  0.13804  1
 In  In1  1  0.34095  0.15905  0.84095  1
 In  In2  1  0.15905  0.84095  0.34095  1
 In  In3  1  0.84095  0.34095  0.15905  1
 In  In4  1  0.65905  0.65905  0.65905  1
 In  In5  1  0.65905  0.84095  0.15905  1
 In  In6  1  0.84095  0.15905  0.65905  1
 In  In7  1  0.15905  0.65905  0.84095  1
 In  In8  1  0.34095  0.34095  0.34095  1
