CIF file written using JARVIS-Tools package.
data_Ti3NiS6
_symmetry_space_group_name_H-M  'R-3'
_cell_length_a       6.59352
_cell_length_b       6.59352
_cell_length_c       6.59351
_cell_angle_alpha    52.9616
_cell_angle_beta     52.9615
_cell_angle_gamma    52.9615

_symmetry_Int_Tables_number  148
_chemical_formula_structural  Ti3NiS6
_chemical_formula_sum  Ti3NiS6
_cell_volume  169.24893769893822
_cell_formula_units_Z  1
loop_
  _symmetry_equiv_pos_site_id
 _symmetry_equiv_pos_as_xyz
 1  'x, y, z'
loop_
 _atom_site_type_symbol
 _atom_site_label
 _atom_site_symmetry_multiplicity
 _atom_site_fract_x
 _atom_site_fract_y
 _atom_site_fract_z
 _atom_site_fract_occupancy
 Ni  Ni1  1  0.50000  0.50000  0.50000  1
 S  S1  1  0.08883  0.75125  0.41648  1
 S  S2  1  0.75125  0.41648  0.08883  1
 S  S3  1  0.41648  0.08883  0.75125  1
 S  S4  1  0.91117  0.24875  0.58352  1
 S  S5  1  0.58352  0.91117  0.24875  1
 S  S6  1  0.24875  0.58352  0.91117  1
 Ti  Ti1  1  0.67062  0.67062  0.67062  1
 Ti  Ti2  1  0.32938  0.32938  0.32938  1
 Ti  Ti3  1  0.00000  0.00000  0.00000  1
