CIF file written using JARVIS-Tools package.
data_TiV2Te4
_symmetry_space_group_name_H-M  'C2/m'
_cell_length_a       4.01907
_cell_length_b       7.05155
_cell_length_c       7.26388
_cell_angle_alpha    119.215
_cell_angle_beta     106.06
_cell_angle_gamma    90

_symmetry_Int_Tables_number  12
_chemical_formula_structural  TiV2Te4
_chemical_formula_sum  TiV2Te4
_cell_volume  170.4115441102075
_cell_formula_units_Z  1
loop_
  _symmetry_equiv_pos_site_id
 _symmetry_equiv_pos_as_xyz
 1  'x, y, z'
loop_
 _atom_site_type_symbol
 _atom_site_label
 _atom_site_symmetry_multiplicity
 _atom_site_fract_x
 _atom_site_fract_y
 _atom_site_fract_z
 _atom_site_fract_occupancy
 Te  Te1  1  0.11764  0.45911  0.23529  1
 Te  Te2  1  0.88236  0.54089  0.76471  1
 Te  Te3  1  0.36851  0.04168  0.73702  1
 Te  Te4  1  0.63149  0.95832  0.26298  1
 Ti  Ti1  1  0.00000  0.00000  0.00000  1
 V  V1  1  0.24552  0.26921  0.49103  1
 V  V2  1  0.75448  0.73079  0.50897  1
