CIF file written using JARVIS-Tools package.
data_Mg4Nb2O9
_symmetry_space_group_name_H-M  'P-3c1'
_cell_length_a       5.20652
_cell_length_b       5.20652
_cell_length_c       14.1392
_cell_angle_alpha    90
_cell_angle_beta     90
_cell_angle_gamma    120

_symmetry_Int_Tables_number  165
_chemical_formula_structural  Mg4Nb2O9
_chemical_formula_sum  Mg8Nb4O8
_cell_volume  331.9335854077572
_cell_formula_units_Z  2
loop_
  _symmetry_equiv_pos_site_id
 _symmetry_equiv_pos_as_xyz
 1  'x, y, z'
loop_
 _atom_site_type_symbol
 _atom_site_label
 _atom_site_symmetry_multiplicity
 _atom_site_fract_x
 _atom_site_fract_y
 _atom_site_fract_z
 _atom_site_fract_occupancy
 Mg  Mg1  1  0.33333  0.66667  0.51646  1
 Mg  Mg2  1  0.66667  0.33333  0.98354  1
 Mg  Mg3  1  0.66667  0.33333  0.48354  1
 Mg  Mg4  1  0.33333  0.66667  0.01646  1
 Mg  Mg5  1  0.33333  0.66667  0.30817  1
 Mg  Mg6  1  0.66667  0.33333  0.19183  1
 Mg  Mg7  1  0.66667  0.33333  0.69183  1
 Mg  Mg8  1  0.33333  0.66667  0.80817  1
 Nb  Nb1  1  0.00000  0.00000  0.35832  1
 Nb  Nb2  1  0.00000  0.00000  0.14168  1
 Nb  Nb3  1  0.00000  0.00000  0.64168  1
 Nb  Nb4  1  0.00000  0.00000  0.85832  1
 O  O1  1  0.32098  0.34951  0.91585  1
 O  O2  1  0.65049  0.97148  0.91585  1
 O  O3  1  0.29147  -0.00000  0.75000  1
 O  O4  1  0.34951  0.32098  0.58415  1
 O  O5  1  0.97148  0.65049  0.58415  1
 O  O6  1  0.67902  0.02852  0.58415  1
 O  O7  1  0.67902  0.65049  0.08415  1
 O  O8  1  0.02852  0.67902  0.91585  1
 O  O9  1  0.70853  0.00000  0.25000  1
 O  O10  1  0.65049  0.67902  0.41585  1
 O  O11  1  0.02852  0.34951  0.41585  1
 O  O12  1  0.32098  0.97148  0.41585  1
 O  O13  1  0.29147  0.29147  0.25000  1
 O  O14  1  0.34951  0.02852  0.08415  1
 O  O15  1  0.00000  0.70853  0.25000  1
 O  O16  1  0.70853  0.70853  0.75000  1
 O  O17  1  0.97148  0.32098  0.08415  1
 O  O18  1  -0.00000  0.29147  0.75000  1
