CIF file written using JARVIS-Tools package.
data_PrSnRu
_symmetry_space_group_name_H-M  'Pnma'
_cell_length_a       4.88563
_cell_length_b       7.40338
_cell_length_c       7.67218
_cell_angle_alpha    90
_cell_angle_beta     90
_cell_angle_gamma    90

_symmetry_Int_Tables_number  62
_chemical_formula_structural  PrSnRu
_chemical_formula_sum  Pr4Sn4Ru4
_cell_volume  277.5039426599911
_cell_formula_units_Z  4
loop_
  _symmetry_equiv_pos_site_id
 _symmetry_equiv_pos_as_xyz
 1  'x, y, z'
loop_
 _atom_site_type_symbol
 _atom_site_label
 _atom_site_symmetry_multiplicity
 _atom_site_fract_x
 _atom_site_fract_y
 _atom_site_fract_z
 _atom_site_fract_occupancy
 Pr  Pr1  1  0.25000  0.81009  0.46839  1
 Pr  Pr2  1  0.75000  0.18991  0.53161  1
 Pr  Pr3  1  0.75000  0.31009  0.03161  1
 Pr  Pr4  1  0.25000  0.68991  0.96839  1
 Ru  Ru1  1  0.75000  0.55799  0.34771  1
 Ru  Ru2  1  0.75000  0.94201  0.84771  1
 Ru  Ru3  1  0.25000  0.05799  0.15229  1
 Ru  Ru4  1  0.25000  0.44201  0.65229  1
 Sn  Sn1  1  0.75000  0.61114  0.69587  1
 Sn  Sn2  1  0.75000  0.88886  0.19587  1
 Sn  Sn3  1  0.25000  0.11114  0.80413  1
 Sn  Sn4  1  0.25000  0.38886  0.30413  1
