CIF file written using JARVIS-Tools package.
data_Na5OsO6
_symmetry_space_group_name_H-M  'C2/m'
_cell_length_a       5.59175
_cell_length_b       5.63796
_cell_length_c       5.63796
_cell_angle_alpha    119.576
_cell_angle_beta     100.177
_cell_angle_gamma    100.177

_symmetry_Int_Tables_number  12
_chemical_formula_structural  Na5OsO6
_chemical_formula_sum  Na5OsO6
_cell_volume  144.73989105839982
_cell_formula_units_Z  1
loop_
  _symmetry_equiv_pos_site_id
 _symmetry_equiv_pos_as_xyz
 1  'x, y, z'
loop_
 _atom_site_type_symbol
 _atom_site_label
 _atom_site_symmetry_multiplicity
 _atom_site_fract_x
 _atom_site_fract_y
 _atom_site_fract_z
 _atom_site_fract_occupancy
 Na  Na1  1  -0.00000  0.66650  0.33350  1
 Na  Na2  1  0.50000  0.17504  0.82496  1
 Na  Na3  1  0.50000  0.50000  0.50000  1
 Na  Na4  1  0.00000  0.33350  0.66650  1
 Na  Na5  1  0.50000  0.82496  0.17504  1
 O  O1  1  0.20805  0.79520  0.79520  1
 O  O2  1  0.79195  0.20480  0.20480  1
 O  O3  1  0.21651  0.07148  0.35281  1
 O  O4  1  0.78349  0.64719  0.92852  1
 O  O5  1  0.78349  0.92852  0.64719  1
 O  O6  1  0.21651  0.35281  0.07148  1
 Os  Os1  1  0.00000  0.00000  0.00000  1
