CIF file written using JARVIS-Tools package.
data_BC5
_symmetry_space_group_name_H-M  'P3m1'
_cell_length_a       2.55361
_cell_length_b       2.55361
_cell_length_c       6.39195
_cell_angle_alpha    90
_cell_angle_beta     90
_cell_angle_gamma    120

_symmetry_Int_Tables_number  156
_chemical_formula_structural  BC5
_chemical_formula_sum  BC5
_cell_volume  36.09727700253484
_cell_formula_units_Z  1
loop_
  _symmetry_equiv_pos_site_id
 _symmetry_equiv_pos_as_xyz
 1  'x, y, z'
loop_
 _atom_site_type_symbol
 _atom_site_label
 _atom_site_symmetry_multiplicity
 _atom_site_fract_x
 _atom_site_fract_y
 _atom_site_fract_z
 _atom_site_fract_occupancy
 B  B1  1  0.00000  0.00000  0.99290  1
 C  C1  1  0.00000  0.00000  0.74047  1
 C  C2  1  0.33333  0.66667  0.66119  1
 C  C3  1  0.66667  0.33333  0.33545  1
 C  C4  1  0.33333  0.66667  0.41842  1
 C  C5  1  0.66667  0.33333  0.10056  1
