CIF file written using JARVIS-Tools package.
data_ZrCl4
_symmetry_space_group_name_H-M  'P2/c'
_cell_length_a       6.23319
_cell_length_b       6.30846
_cell_length_c       7.36607
_cell_angle_alpha    90
_cell_angle_beta     90
_cell_angle_gamma    109.026

_symmetry_Int_Tables_number  13
_chemical_formula_structural  ZrCl4
_chemical_formula_sum  Zr2Cl8
_cell_volume  273.82392502827156
_cell_formula_units_Z  2
loop_
  _symmetry_equiv_pos_site_id
 _symmetry_equiv_pos_as_xyz
 1  'x, y, z'
loop_
 _atom_site_type_symbol
 _atom_site_label
 _atom_site_symmetry_multiplicity
 _atom_site_fract_x
 _atom_site_fract_y
 _atom_site_fract_z
 _atom_site_fract_occupancy
 Cl  Cl1  1  0.01378  0.74199  0.36898  1
 Cl  Cl2  1  0.49716  0.23151  0.89056  1
 Cl  Cl3  1  0.50284  0.76849  0.10944  1
 Cl  Cl4  1  0.98622  0.25801  0.63102  1
 Cl  Cl5  1  0.00284  0.76849  0.89056  1
 Cl  Cl6  1  0.51378  0.74199  0.63102  1
 Cl  Cl7  1  0.48622  0.25801  0.36898  1
 Cl  Cl8  1  0.99716  0.23151  0.10944  1
 Zr  Zr1  1  0.75000  -0.00000  0.83223  1
 Zr  Zr2  1  0.25000  0.00000  0.16777  1
