CIF file written using JARVIS-Tools package.
data_MoWSeS3
_symmetry_space_group_name_H-M  'P3m1'
_cell_length_a       3.22541
_cell_length_b       3.22535
_cell_length_c       33.0713
_cell_angle_alpha    90.0011
_cell_angle_beta     90.0001
_cell_angle_gamma    120.002

_symmetry_Int_Tables_number  156
_chemical_formula_structural  MoWSeS3
_chemical_formula_sum  Mo2W2Se2S6
_cell_volume  297.94258909352686
_cell_formula_units_Z  2
loop_
  _symmetry_equiv_pos_site_id
 _symmetry_equiv_pos_as_xyz
 1  'x, y, z'
loop_
 _atom_site_type_symbol
 _atom_site_label
 _atom_site_symmetry_multiplicity
 _atom_site_fract_x
 _atom_site_fract_y
 _atom_site_fract_z
 _atom_site_fract_occupancy
 Mo  Mo1  1  0.33326  0.66656  0.09189  1
 Mo  Mo2  1  0.33324  0.66643  0.46822  1
 S  S1  1  0.33341  0.66676  0.32758  1
 S  S2  1  0.66659  0.33321  0.04486  1
 S  S3  1  0.66652  0.33297  0.42117  1
 S  S4  1  0.66662  0.33328  0.13895  1
 S  S5  1  0.66667  0.33329  0.51530  1
 S  S6  1  0.33352  0.66699  0.23294  1
 Se  Se1  1  0.33331  0.66669  0.71456  1
 Se  Se2  1  0.33336  0.66681  0.61047  1
 W  W1  1  0.66681  0.33357  0.28027  1
 W  W2  1  0.66668  0.33344  0.66254  1
