CIF file written using JARVIS-Tools package.
data_Sr5As3
_symmetry_space_group_name_H-M  'P6_3/mcm'
_cell_length_a       9.00944
_cell_length_b       9.00944
_cell_length_c       7.21132
_cell_angle_alpha    90
_cell_angle_beta     90
_cell_angle_gamma    120

_symmetry_Int_Tables_number  193
_chemical_formula_structural  Sr5As3
_chemical_formula_sum  Sr0As6
_cell_volume  506.92205524830575
_cell_formula_units_Z  2
loop_
  _symmetry_equiv_pos_site_id
 _symmetry_equiv_pos_as_xyz
 1  'x, y, z'
loop_
 _atom_site_type_symbol
 _atom_site_label
 _atom_site_symmetry_multiplicity
 _atom_site_fract_x
 _atom_site_fract_y
 _atom_site_fract_z
 _atom_site_fract_occupancy
 As  As1  1  0.60920  -0.00000  0.75000  1
 As  As2  1  0.60920  0.60920  0.25000  1
 As  As3  1  0.00000  0.39080  0.25000  1
 As  As4  1  -0.00000  0.60920  0.75000  1
 As  As5  1  0.39080  0.39080  0.75000  1
 As  As6  1  0.39080  0.00000  0.25000  1
 Sr  Sr1  1  0.00000  0.25640  0.75000  1
 Sr  Sr2  1  -0.00000  0.74360  0.25000  1
 Sr  Sr3  1  0.25640  0.25640  0.25000  1
 Sr  Sr4  1  0.25640  0.00000  0.75000  1
 Sr  Sr5  1  0.74360  0.74360  0.75000  1
 Sr  Sr6  1  0.74360  -0.00000  0.25000  1
 Sr  Sr7  1  0.33333  0.66667  0.50000  1
 Sr  Sr8  1  0.66667  0.33333  0.00000  1
 Sr  Sr9  1  0.66667  0.33333  0.50000  1
 Sr  Sr10  1  0.33333  0.66667  0.00000  1
