CIF file written using JARVIS-Tools package.
data_CeZrO4
_symmetry_space_group_name_H-M  'P4/nbm'
_cell_length_a       5.28315
_cell_length_b       5.36128
_cell_length_c       5.3614
_cell_angle_alpha    90
_cell_angle_beta     90
_cell_angle_gamma    90

_symmetry_Int_Tables_number  125
_chemical_formula_structural  CeZrO4
_chemical_formula_sum  Ce2Zr2O8
_cell_volume  151.85876298993648
_cell_formula_units_Z  2
loop_
  _symmetry_equiv_pos_site_id
 _symmetry_equiv_pos_as_xyz
 1  'x, y, z'
loop_
 _atom_site_type_symbol
 _atom_site_label
 _atom_site_symmetry_multiplicity
 _atom_site_fract_x
 _atom_site_fract_y
 _atom_site_fract_z
 _atom_site_fract_occupancy
 Ce  Ce1  1  0.00000  0.00000  0.00000  1
 Ce  Ce2  1  0.00000  0.50000  0.50000  1
 O  O1  1  0.74372  0.78602  0.71399  1
 O  O2  1  0.74372  0.28602  0.78601  1
 O  O3  1  0.74372  0.21398  0.28601  1
 O  O4  1  0.74372  0.71398  0.21399  1
 O  O5  1  0.25628  0.21398  0.71399  1
 O  O6  1  0.25628  0.71398  0.78601  1
 O  O7  1  0.25628  0.78602  0.28601  1
 O  O8  1  0.25628  0.28602  0.21399  1
 Zr  Zr1  1  0.50000  0.00000  0.50000  1
 Zr  Zr2  1  0.50000  0.50000  0.00000  1
