CIF file written using JARVIS-Tools package.
data_LaP12Ru4
_symmetry_space_group_name_H-M  'Im-3'
_cell_length_a       7.05858
_cell_length_b       7.05857
_cell_length_c       7.05857
_cell_angle_alpha    109.471
_cell_angle_beta     109.471
_cell_angle_gamma    109.471

_symmetry_Int_Tables_number  204
_chemical_formula_structural  LaP12Ru4
_chemical_formula_sum  LaP2Ru4
_cell_volume  270.7251845914687
_cell_formula_units_Z  1
loop_
  _symmetry_equiv_pos_site_id
 _symmetry_equiv_pos_as_xyz
 1  'x, y, z'
loop_
 _atom_site_type_symbol
 _atom_site_label
 _atom_site_symmetry_multiplicity
 _atom_site_fract_x
 _atom_site_fract_y
 _atom_site_fract_z
 _atom_site_fract_occupancy
 La  La1  1  0.00000  0.00000  0.00000  1
 P  P1  1  0.85589  0.64253  0.49842  1
 P  P2  1  0.50158  0.14411  0.35747  1
 P  P3  1  0.21336  0.85589  0.35747  1
 P  P4  1  0.78664  0.14411  0.64253  1
 P  P5  1  0.35747  0.50158  0.14411  1
 P  P6  1  0.14411  0.35747  0.50158  1
 P  P7  1  0.14411  0.64253  0.78664  1
 P  P8  1  0.35747  0.21336  0.85589  1
 P  P9  1  0.64253  0.78664  0.14411  1
 P  P10  1  0.85589  0.35747  0.21336  1
 P  P11  1  0.64253  0.49842  0.85589  1
 P  P12  1  0.49842  0.85589  0.64253  1
 Ru  Ru1  1  0.00000  0.00000  0.50000  1
 Ru  Ru2  1  0.50000  0.50000  0.50000  1
 Ru  Ru3  1  0.50000  0.00000  -0.00000  1
 Ru  Ru4  1  -0.00000  0.50000  0.00000  1
