CIF file written using JARVIS-Tools package.
data_Hf3Rh5
_symmetry_space_group_name_H-M  'Pbam'
_cell_length_a       4.27577
_cell_length_b       5.60454
_cell_length_c       10.901
_cell_angle_alpha    90
_cell_angle_beta     90
_cell_angle_gamma    90

_symmetry_Int_Tables_number  55
_chemical_formula_structural  Hf3Rh5
_chemical_formula_sum  Hf6Rh0
_cell_volume  261.2279458260368
_cell_formula_units_Z  2
loop_
  _symmetry_equiv_pos_site_id
 _symmetry_equiv_pos_as_xyz
 1  'x, y, z'
loop_
 _atom_site_type_symbol
 _atom_site_label
 _atom_site_symmetry_multiplicity
 _atom_site_fract_x
 _atom_site_fract_y
 _atom_site_fract_z
 _atom_site_fract_occupancy
 Hf  Hf1  1  0.50000  0.15730  0.64589  1
 Hf  Hf2  1  0.50000  0.84270  0.35411  1
 Hf  Hf3  1  0.50000  0.65730  0.85411  1
 Hf  Hf4  1  0.50000  0.34270  0.14589  1
 Hf  Hf5  1  0.00000  0.50000  0.50000  1
 Hf  Hf6  1  0.00000  0.00000  0.00000  1
 Rh  Rh1  1  0.50000  0.18465  0.89296  1
 Rh  Rh2  1  0.50000  0.81535  0.10704  1
 Rh  Rh3  1  0.50000  0.68465  0.60704  1
 Rh  Rh4  1  0.50000  0.31535  0.39296  1
 Rh  Rh5  1  0.00000  0.40151  0.74209  1
 Rh  Rh6  1  0.00000  0.59849  0.25791  1
 Rh  Rh7  1  0.00000  0.00000  0.50000  1
 Rh  Rh8  1  0.00000  0.50000  0.00000  1
 Rh  Rh9  1  0.00000  0.09849  0.24209  1
 Rh  Rh10  1  0.00000  0.90151  0.75791  1
