CIF file written using JARVIS-Tools package.
data_ZnSb4O8
_symmetry_space_group_name_H-M  'Cm'
_cell_length_a       3.28203
_cell_length_b       7.80006
_cell_length_c       10.5146
_cell_angle_alpha    57.3419
_cell_angle_beta     62.1335
_cell_angle_gamma    65.154

_symmetry_Int_Tables_number  8
_chemical_formula_structural  ZnSb4O8
_chemical_formula_sum  ZnSb4O8
_cell_volume  195.17276864316193
_cell_formula_units_Z  1
loop_
  _symmetry_equiv_pos_site_id
 _symmetry_equiv_pos_as_xyz
 1  'x, y, z'
loop_
 _atom_site_type_symbol
 _atom_site_label
 _atom_site_symmetry_multiplicity
 _atom_site_fract_x
 _atom_site_fract_y
 _atom_site_fract_z
 _atom_site_fract_occupancy
 O  O1  1  0.79379  0.68832  0.72897  1
 O  O2  1  0.58254  0.34038  0.76813  1
 O  O3  1  0.46396  0.74937  0.24155  1
 O  O4  1  0.21077  0.39132  0.31559  1
 O  O5  1  0.10543  0.03967  0.62051  1
 O  O6  1  0.88941  0.09645  0.05972  1
 O  O7  1  0.93163  0.03378  0.40660  1
 O  O8  1  0.12576  0.43371  0.01086  1
 Sb  Sb1  1  0.56776  0.25858  0.49982  1
 Sb  Sb2  1  0.19084  0.68191  0.13498  1
 Sb  Sb3  1  0.86449  0.38494  0.88400  1
 Sb  Sb4  1  0.44129  0.80256  0.55429  1
 Zn  Zn1  1  0.21047  0.08965  0.18378  1
