CIF file written using JARVIS-Tools package.
data_NaNd2IrO6
_symmetry_space_group_name_H-M  'P2_1/c'
_cell_length_a       5.52052
_cell_length_b       5.98822
_cell_length_c       9.60572
_cell_angle_alpha    90
_cell_angle_beta     124.092
_cell_angle_gamma    90

_symmetry_Int_Tables_number  14
_chemical_formula_structural  NaNd2IrO6
_chemical_formula_sum  Na2Nd4Ir2O2
_cell_volume  262.9722822229986
_cell_formula_units_Z  2
loop_
  _symmetry_equiv_pos_site_id
 _symmetry_equiv_pos_as_xyz
 1  'x, y, z'
loop_
 _atom_site_type_symbol
 _atom_site_label
 _atom_site_symmetry_multiplicity
 _atom_site_fract_x
 _atom_site_fract_y
 _atom_site_fract_z
 _atom_site_fract_occupancy
 Ir  Ir1  1  0.50000  0.50000  -0.00000  1
 Ir  Ir2  1  0.50000  0.00000  0.50000  1
 Na  Na1  1  -0.00000  0.50000  0.50000  1
 Na  Na2  1  0.00000  0.00000  0.00000  1
 Nd  Nd1  1  0.77520  0.07606  0.25259  1
 Nd  Nd2  1  0.22480  0.57606  0.24741  1
 Nd  Nd3  1  0.77520  0.42394  0.75259  1
 Nd  Nd4  1  0.22480  0.92394  0.74741  1
 O  O1  1  0.72919  0.71567  0.56558  1
 O  O2  1  0.14967  0.67537  0.94754  1
 O  O3  1  0.27081  0.28433  0.43442  1
 O  O4  1  0.72919  0.78433  0.06558  1
 O  O5  1  0.27081  0.21567  0.93442  1
 O  O6  1  0.85033  0.32463  0.05246  1
 O  O7  1  0.38478  0.95373  0.26550  1
 O  O8  1  0.61522  0.45373  0.23450  1
 O  O9  1  0.61522  0.04627  0.73450  1
 O  O10  1  0.14967  0.82463  0.44754  1
 O  O11  1  0.38478  0.54627  0.76550  1
 O  O12  1  0.85033  0.17537  0.55246  1
