CIF file written using JARVIS-Tools package.
data_Li2V2S5
_symmetry_space_group_name_H-M  'C2/c'
_cell_length_a       5.85468
_cell_length_b       5.85468
_cell_length_c       11.5809
_cell_angle_alpha    69.332
_cell_angle_beta     110.668
_cell_angle_gamma    116.042

_symmetry_Int_Tables_number  15
_chemical_formula_structural  Li2V2S5
_chemical_formula_sum  Li4V4S0
_cell_volume  324.31877246192875
_cell_formula_units_Z  2
loop_
  _symmetry_equiv_pos_site_id
 _symmetry_equiv_pos_as_xyz
 1  'x, y, z'
loop_
 _atom_site_type_symbol
 _atom_site_label
 _atom_site_symmetry_multiplicity
 _atom_site_fract_x
 _atom_site_fract_y
 _atom_site_fract_z
 _atom_site_fract_occupancy
 Li  Li1  1  0.18568  0.56558  0.68085  1
 Li  Li2  1  0.43442  0.81432  0.18085  1
 Li  Li3  1  0.56558  0.18568  0.81915  1
 Li  Li4  1  0.81432  0.43442  0.31915  1
 S  S1  1  0.70397  0.29747  0.53372  1
 S  S2  1  0.29603  0.70253  0.46628  1
 S  S3  1  0.02473  0.19399  0.85739  1
 S  S4  1  0.29747  0.70397  0.96628  1
 S  S5  1  0.19399  0.02473  0.64261  1
 S  S6  1  0.80601  0.97527  0.35739  1
 S  S7  1  0.97527  0.80601  0.14261  1
 S  S8  1  0.66080  0.66080  0.75000  1
 S  S9  1  0.33920  0.33920  0.25000  1
 S  S10  1  0.70253  0.29603  0.03372  1
 V  V1  1  0.24052  0.05955  0.44714  1
 V  V2  1  0.05955  0.24052  0.05286  1
 V  V3  1  0.94045  0.75948  0.94714  1
 V  V4  1  0.75948  0.94045  0.55286  1
