CIF file written using JARVIS-Tools package.
data_LuAg2
_symmetry_space_group_name_H-M  'I4/mmm'
_cell_length_a       3.65345
_cell_length_b       3.65345
_cell_length_c       5.21092
_cell_angle_alpha    110.521
_cell_angle_beta     110.521
_cell_angle_gamma    90

_symmetry_Int_Tables_number  139
_chemical_formula_structural  LuAg2
_chemical_formula_sum  LuAg2
_cell_volume  60.40453055504141
_cell_formula_units_Z  1
loop_
  _symmetry_equiv_pos_site_id
 _symmetry_equiv_pos_as_xyz
 1  'x, y, z'
loop_
 _atom_site_type_symbol
 _atom_site_label
 _atom_site_symmetry_multiplicity
 _atom_site_fract_x
 _atom_site_fract_y
 _atom_site_fract_z
 _atom_site_fract_occupancy
 Ag  Ag1  1  0.66758  0.66758  0.33517  1
 Ag  Ag2  1  0.33242  0.33242  0.66483  1
 Lu  Lu1  1  0.00000  0.00000  0.00000  1
