CIF file written using JARVIS-Tools package.
data_Sr3MgRhO6
_symmetry_space_group_name_H-M  'R-3c'
_cell_length_a       6.69368
_cell_length_b       6.69368
_cell_length_c       6.69368
_cell_angle_alpha    92.5958
_cell_angle_beta     92.5958
_cell_angle_gamma    92.5958

_symmetry_Int_Tables_number  167
_chemical_formula_structural  Sr3MgRhO6
_chemical_formula_sum  Sr6Mg2Rh2O2
_cell_volume  298.9610732695407
_cell_formula_units_Z  2
loop_
  _symmetry_equiv_pos_site_id
 _symmetry_equiv_pos_as_xyz
 1  'x, y, z'
loop_
 _atom_site_type_symbol
 _atom_site_label
 _atom_site_symmetry_multiplicity
 _atom_site_fract_x
 _atom_site_fract_y
 _atom_site_fract_z
 _atom_site_fract_occupancy
 Mg  Mg1  1  0.75000  0.75000  0.75000  1
 Mg  Mg2  1  0.25000  0.25000  0.25000  1
 O  O1  1  0.09344  0.28752  0.96323  1
 O  O2  1  0.59344  0.46323  0.78752  1
 O  O3  1  0.46323  0.78752  0.59344  1
 O  O4  1  0.03677  0.90656  0.71248  1
 O  O5  1  0.90656  0.71248  0.03677  1
 O  O6  1  0.71248  0.03677  0.90656  1
 O  O7  1  0.21248  0.40656  0.53677  1
 O  O8  1  0.40656  0.53677  0.21248  1
 O  O9  1  0.53677  0.21248  0.40656  1
 O  O10  1  0.28752  0.96323  0.09344  1
 O  O11  1  0.96323  0.09344  0.28752  1
 O  O12  1  0.78752  0.59344  0.46323  1
 Rh  Rh1  1  0.00000  0.00000  0.00000  1
 Rh  Rh2  1  0.50000  0.50000  0.50000  1
 Sr  Sr1  1  0.25000  0.61663  0.88337  1
 Sr  Sr2  1  0.61663  0.88337  0.25000  1
 Sr  Sr3  1  0.11663  0.75000  0.38337  1
 Sr  Sr4  1  0.75000  0.38337  0.11663  1
 Sr  Sr5  1  0.38337  0.11663  0.75000  1
 Sr  Sr6  1  0.88337  0.25000  0.61663  1
