CIF file written using JARVIS-Tools package.
data_TbFe4P12
_symmetry_space_group_name_H-M  'Im-3'
_cell_length_a       6.78233
_cell_length_b       6.78233
_cell_length_c       6.78233
_cell_angle_alpha    109.471
_cell_angle_beta     109.471
_cell_angle_gamma    109.471

_symmetry_Int_Tables_number  204
_chemical_formula_structural  TbFe4P12
_chemical_formula_sum  TbFe4P2
_cell_volume  240.1674506309118
_cell_formula_units_Z  1
loop_
  _symmetry_equiv_pos_site_id
 _symmetry_equiv_pos_as_xyz
 1  'x, y, z'
loop_
 _atom_site_type_symbol
 _atom_site_label
 _atom_site_symmetry_multiplicity
 _atom_site_fract_x
 _atom_site_fract_y
 _atom_site_fract_z
 _atom_site_fract_occupancy
 Fe  Fe1  1  0.00000  0.50000  0.00000  1
 Fe  Fe2  1  0.00000  0.00000  0.50000  1
 Fe  Fe3  1  0.50000  0.00000  0.00000  1
 Fe  Fe4  1  0.50000  0.50000  0.50000  1
 P  P1  1  0.49885  0.84980  0.64905  1
 P  P2  1  0.20075  0.84980  0.35095  1
 P  P3  1  0.79925  0.15020  0.64905  1
 P  P4  1  0.15020  0.35095  0.50115  1
 P  P5  1  0.35095  0.50115  0.15020  1
 P  P6  1  0.50115  0.15020  0.35095  1
 P  P7  1  0.84980  0.64905  0.49885  1
 P  P8  1  0.35095  0.20075  0.84980  1
 P  P9  1  0.64905  0.79925  0.15020  1
 P  P10  1  0.84980  0.35095  0.20075  1
 P  P11  1  0.64905  0.49885  0.84980  1
 P  P12  1  0.15020  0.64905  0.79925  1
 Tb  Tb1  1  0.00000  0.00000  0.00000  1
