CIF file written using JARVIS-Tools package.
data_ErB4Rh4
_symmetry_space_group_name_H-M  'P4_2/nmc'
_cell_length_a       5.32012
_cell_length_b       5.32012
_cell_length_c       7.45092
_cell_angle_alpha    90
_cell_angle_beta     90
_cell_angle_gamma    90

_symmetry_Int_Tables_number  137
_chemical_formula_structural  ErB4Rh4
_chemical_formula_sum  Er2B8Rh8
_cell_volume  210.88816621235793
_cell_formula_units_Z  2
loop_
  _symmetry_equiv_pos_site_id
 _symmetry_equiv_pos_as_xyz
 1  'x, y, z'
loop_
 _atom_site_type_symbol
 _atom_site_label
 _atom_site_symmetry_multiplicity
 _atom_site_fract_x
 _atom_site_fract_y
 _atom_site_fract_z
 _atom_site_fract_occupancy
 B  B1  1  0.66791  0.00000  0.64751  1
 B  B2  1  0.83209  0.50000  0.85249  1
 B  B3  1  0.50000  0.83209  0.14751  1
 B  B4  1  0.00000  0.33209  0.35249  1
 B  B5  1  0.16791  0.50000  0.85249  1
 B  B6  1  0.00000  0.66791  0.35249  1
 B  B7  1  0.50000  0.16791  0.14751  1
 B  B8  1  0.33209  0.00000  0.64751  1
 Er  Er1  1  0.00000  0.00000  0.00000  1
 Er  Er2  1  0.50000  0.50000  0.50000  1
 Rh  Rh1  1  0.00000  0.75152  0.64640  1
 Rh  Rh2  1  0.24848  0.00000  0.35360  1
 Rh  Rh3  1  0.75152  0.00000  0.35360  1
 Rh  Rh4  1  0.50000  0.25152  0.85360  1
 Rh  Rh5  1  0.74848  0.50000  0.14640  1
 Rh  Rh6  1  0.25152  0.50000  0.14640  1
 Rh  Rh7  1  0.00000  0.24848  0.64640  1
 Rh  Rh8  1  0.50000  0.74848  0.85360  1
