CIF file written using JARVIS-Tools package.
data_Cd2FeC6N6
_symmetry_space_group_name_H-M  'P-31m'
_cell_length_a       6.32312
_cell_length_b       6.32312
_cell_length_c       6.37701
_cell_angle_alpha    90
_cell_angle_beta     90
_cell_angle_gamma    120

_symmetry_Int_Tables_number  162
_chemical_formula_structural  Cd2FeC6N6
_chemical_formula_sum  Cd2FeC6N6
_cell_volume  220.80527191573992
_cell_formula_units_Z  1
loop_
  _symmetry_equiv_pos_site_id
 _symmetry_equiv_pos_as_xyz
 1  'x, y, z'
loop_
 _atom_site_type_symbol
 _atom_site_label
 _atom_site_symmetry_multiplicity
 _atom_site_fract_x
 _atom_site_fract_y
 _atom_site_fract_z
 _atom_site_fract_occupancy
 C  C1  1  0.23647  -0.00008  0.17567  1
 C  C2  1  0.76346  0.76353  0.17567  1
 C  C3  1  0.76353  0.00008  0.82433  1
 C  C4  1  0.00008  0.23654  0.17567  1
 C  C5  1  0.23654  0.23647  0.82433  1
 C  C6  1  -0.00008  0.76346  0.82433  1
 Cd  Cd1  1  0.33333  0.66667  0.50014  1
 Cd  Cd2  1  0.66667  0.33333  0.49986  1
 Fe  Fe1  1  0.00000  0.00000  0.00000  1
 N  N1  1  0.37796  0.99991  0.29676  1
 N  N2  1  0.62195  0.62204  0.29676  1
 N  N3  1  0.00009  0.37805  0.29676  1
 N  N4  1  0.99991  0.62195  0.70324  1
 N  N5  1  0.37805  0.37796  0.70324  1
 N  N6  1  0.62204  0.00009  0.70324  1
