CIF file written using JARVIS-Tools package.
data_PaC2
_symmetry_space_group_name_H-M  'I4/mmm'
_cell_length_a       3.62239
_cell_length_b       3.62239
_cell_length_c       3.99593
_cell_angle_alpha    116.953
_cell_angle_beta     116.953
_cell_angle_gamma    90

_symmetry_Int_Tables_number  139
_chemical_formula_structural  PaC2
_chemical_formula_sum  PaC2
_cell_volume  40.24459692170956
_cell_formula_units_Z  1
loop_
  _symmetry_equiv_pos_site_id
 _symmetry_equiv_pos_as_xyz
 1  'x, y, z'
loop_
 _atom_site_type_symbol
 _atom_site_label
 _atom_site_symmetry_multiplicity
 _atom_site_fract_x
 _atom_site_fract_y
 _atom_site_fract_z
 _atom_site_fract_occupancy
 C  C1  1  0.61068  0.61068  0.22136  1
 C  C2  1  0.38932  0.38932  0.77864  1
 Pa  Pa1  1  0.00000  0.00000  0.00000  1
