CIF file written using JARVIS-Tools package.
data_NbS2
_symmetry_space_group_name_H-M  'Amm2'
_cell_length_a       3.16287
_cell_length_b       3.36205
_cell_length_c       5.86841
_cell_angle_alpha    90.0151
_cell_angle_beta     105.628
_cell_angle_gamma    90.0012

_symmetry_Int_Tables_number  38
_chemical_formula_structural  NbS2
_chemical_formula_sum  NbS2
_cell_volume  60.09603480263142
_cell_formula_units_Z  1
loop_
  _symmetry_equiv_pos_site_id
 _symmetry_equiv_pos_as_xyz
 1  'x, y, z'
loop_
 _atom_site_type_symbol
 _atom_site_label
 _atom_site_symmetry_multiplicity
 _atom_site_fract_x
 _atom_site_fract_y
 _atom_site_fract_z
 _atom_site_fract_occupancy
 Nb  Nb1  1  0.02219  0.17160  0.04342  1
 S  S1  1  0.36233  0.17155  0.72345  1
 S  S2  1  0.62217  0.67167  0.24337  1
