CIF file written using JARVIS-Tools package.
data_PrBS3
_symmetry_space_group_name_H-M  'Pna2_1'
_cell_length_a       6.02442
_cell_length_b       7.61929
_cell_length_c       8.98275
_cell_angle_alpha    90
_cell_angle_beta     90
_cell_angle_gamma    90

_symmetry_Int_Tables_number  33
_chemical_formula_structural  PrBS3
_chemical_formula_sum  Pr4B4S2
_cell_volume  412.324654616964
_cell_formula_units_Z  4
loop_
  _symmetry_equiv_pos_site_id
 _symmetry_equiv_pos_as_xyz
 1  'x, y, z'
loop_
 _atom_site_type_symbol
 _atom_site_label
 _atom_site_symmetry_multiplicity
 _atom_site_fract_x
 _atom_site_fract_y
 _atom_site_fract_z
 _atom_site_fract_occupancy
 B  B1  1  0.40397  0.14594  0.60464  1
 B  B2  1  0.59603  0.85406  0.10464  1
 B  B3  1  0.90397  0.35406  0.10464  1
 B  B4  1  0.09603  0.64594  0.60464  1
 Pr  Pr1  1  0.92896  0.11355  0.43329  1
 Pr  Pr2  1  0.07104  0.88645  0.93329  1
 Pr  Pr3  1  0.42896  0.38645  0.93329  1
 Pr  Pr4  1  0.57104  0.61355  0.43329  1
 S  S1  1  0.16378  0.17399  0.72599  1
 S  S2  1  0.90493  0.49915  0.94550  1
 S  S3  1  0.66378  0.32601  0.22599  1
 S  S4  1  0.33622  0.67399  0.72599  1
 S  S5  1  0.83622  0.82601  0.22599  1
 S  S6  1  0.40493  0.00085  0.44550  1
 S  S7  1  0.36499  0.70380  0.13641  1
 S  S8  1  0.63501  0.29620  0.63641  1
 S  S9  1  0.86499  0.79620  0.63641  1
 S  S10  1  0.59507  0.99915  0.94550  1
 S  S11  1  0.13501  0.20380  0.13641  1
 S  S12  1  0.09507  0.50085  0.44550  1
