CIF file written using JARVIS-Tools package.
data_MoWSe2S2
_symmetry_space_group_name_H-M  'C2/m'
_cell_length_a       3.25887
_cell_length_b       3.25876
_cell_length_c       32.7552
_cell_angle_alpha    90.0619
_cell_angle_beta     90
_cell_angle_gamma    120.001

_symmetry_Int_Tables_number  12
_chemical_formula_structural  MoWSe2S2
_chemical_formula_sum  Mo2W2Se4S4
_cell_volume  301.2480560204262
_cell_formula_units_Z  2
loop_
  _symmetry_equiv_pos_site_id
 _symmetry_equiv_pos_as_xyz
 1  'x, y, z'
loop_
 _atom_site_type_symbol
 _atom_site_label
 _atom_site_symmetry_multiplicity
 _atom_site_fract_x
 _atom_site_fract_y
 _atom_site_fract_z
 _atom_site_fract_occupancy
 Mo  Mo1  1  0.33190  0.66380  0.47004  1
 Mo  Mo2  1  0.66810  0.33620  0.28142  1
 S  S1  1  0.33504  0.67009  0.32859  1
 S  S2  1  0.66496  0.32991  0.42287  1
 S  S3  1  0.66544  0.33087  0.51723  1
 S  S4  1  0.33456  0.66913  0.23422  1
 Se  Se1  1  0.33408  0.66815  0.71815  1
 Se  Se2  1  0.66592  0.33185  0.03331  1
 Se  Se3  1  0.66688  0.33376  0.13754  1
 Se  Se4  1  0.33312  0.66624  0.61391  1
 W  W1  1  0.33301  0.66602  0.08540  1
 W  W2  1  0.66699  0.33398  0.66606  1
