CIF file written using JARVIS-Tools package.
data_Ho2Mg
_symmetry_space_group_name_H-M  'Cmcm'
_cell_length_a       3.58567
_cell_length_b       8.74324
_cell_length_c       5.40888
_cell_angle_alpha    90
_cell_angle_beta     90
_cell_angle_gamma    78.1673

_symmetry_Int_Tables_number  63
_chemical_formula_structural  Ho2Mg
_chemical_formula_sum  Ho4Mg2
_cell_volume  165.96716516294964
_cell_formula_units_Z  2
loop_
  _symmetry_equiv_pos_site_id
 _symmetry_equiv_pos_as_xyz
 1  'x, y, z'
loop_
 _atom_site_type_symbol
 _atom_site_label
 _atom_site_symmetry_multiplicity
 _atom_site_fract_x
 _atom_site_fract_y
 _atom_site_fract_z
 _atom_site_fract_occupancy
 Ho  Ho1  1  0.98543  0.02915  0.00000  1
 Ho  Ho2  1  0.66239  0.67522  0.00000  1
 Ho  Ho3  1  0.79235  0.41530  0.50000  1
 Ho  Ho4  1  0.11539  0.76922  0.50000  1
 Mg  Mg1  1  0.32505  0.34990  0.00000  1
 Mg  Mg2  1  0.45273  0.09454  0.50000  1
