CIF file written using JARVIS-Tools package.
data_HfRe2
_symmetry_space_group_name_H-M  'P6_3/mmc'
_cell_length_a       5.27747
_cell_length_b       5.27747
_cell_length_c       8.64678
_cell_angle_alpha    90
_cell_angle_beta     90
_cell_angle_gamma    120

_symmetry_Int_Tables_number  194
_chemical_formula_structural  HfRe2
_chemical_formula_sum  Hf4Re8
_cell_volume  208.5623465740067
_cell_formula_units_Z  4
loop_
  _symmetry_equiv_pos_site_id
 _symmetry_equiv_pos_as_xyz
 1  'x, y, z'
loop_
 _atom_site_type_symbol
 _atom_site_label
 _atom_site_symmetry_multiplicity
 _atom_site_fract_x
 _atom_site_fract_y
 _atom_site_fract_z
 _atom_site_fract_occupancy
 Hf  Hf1  1  0.33333  0.66667  0.93779  1
 Hf  Hf2  1  0.66667  0.33333  0.43779  1
 Hf  Hf3  1  0.66667  0.33333  0.06221  1
 Hf  Hf4  1  0.33333  0.66667  0.56221  1
 Re  Re1  1  0.00000  0.00000  0.00000  1
 Re  Re2  1  0.00000  0.00000  0.50000  1
 Re  Re3  1  0.82800  0.17200  0.75000  1
 Re  Re4  1  0.17200  0.34400  0.25000  1
 Re  Re5  1  0.65600  0.82800  0.25000  1
 Re  Re6  1  0.34400  0.17200  0.75000  1
 Re  Re7  1  0.82800  0.65600  0.75000  1
 Re  Re8  1  0.17200  0.82800  0.25000  1
