CIF file written using JARVIS-Tools package.
data_Ba3P2S8
_symmetry_space_group_name_H-M  'P-3m1'
_cell_length_a       6.66037
_cell_length_b       6.66038
_cell_length_c       8.73016
_cell_angle_alpha    89.997
_cell_angle_beta     90.0029
_cell_angle_gamma    120

_symmetry_Int_Tables_number  164
_chemical_formula_structural  Ba3P2S8
_chemical_formula_sum  Ba3P2S8
_cell_volume  335.3900289184705
_cell_formula_units_Z  1
loop_
  _symmetry_equiv_pos_site_id
 _symmetry_equiv_pos_as_xyz
 1  'x, y, z'
loop_
 _atom_site_type_symbol
 _atom_site_label
 _atom_site_symmetry_multiplicity
 _atom_site_fract_x
 _atom_site_fract_y
 _atom_site_fract_z
 _atom_site_fract_occupancy
 Ba  Ba1  1  0.33332  0.66668  0.36925  1
 Ba  Ba2  1  0.66668  0.33332  0.63075  1
 Ba  Ba3  1  0.00000  0.00000  0.00000  1
 P  P1  1  0.66665  0.33335  0.21693  1
 P  P2  1  0.33335  0.66665  0.78307  1
 S  S1  1  0.83120  0.66244  0.30825  1
 S  S2  1  0.16880  0.33756  0.69175  1
 S  S3  1  0.66244  0.83120  0.69175  1
 S  S4  1  0.33336  0.66664  0.01484  1
 S  S5  1  0.66664  0.33336  0.98516  1
 S  S6  1  0.33756  0.16880  0.30825  1
 S  S7  1  0.83120  0.16880  0.30825  1
 S  S8  1  0.16880  0.83120  0.69175  1
