CIF file written using JARVIS-Tools package.
data_LuB2C
_symmetry_space_group_name_H-M  'P4_2/mbc'
_cell_length_a       6.72318
_cell_length_b       6.72318
_cell_length_c       7.1909
_cell_angle_alpha    90
_cell_angle_beta     90
_cell_angle_gamma    90

_symmetry_Int_Tables_number  135
_chemical_formula_structural  LuB2C
_chemical_formula_sum  Lu8B6C8
_cell_volume  325.0368751756678
_cell_formula_units_Z  8
loop_
  _symmetry_equiv_pos_site_id
 _symmetry_equiv_pos_as_xyz
 1  'x, y, z'
loop_
 _atom_site_type_symbol
 _atom_site_label
 _atom_site_symmetry_multiplicity
 _atom_site_fract_x
 _atom_site_fract_y
 _atom_site_fract_z
 _atom_site_fract_occupancy
 B  B1  1  0.09671  0.59300  0.00000  1
 B  B2  1  0.65348  0.46600  0.00000  1
 B  B3  1  0.03400  0.84652  0.50000  1
 B  B4  1  0.96600  0.15348  0.50000  1
 B  B5  1  0.46600  0.34652  0.50000  1
 B  B6  1  0.53400  0.65348  0.50000  1
 B  B7  1  0.40700  0.09671  0.50000  1
 B  B8  1  0.59300  0.90329  0.50000  1
 B  B9  1  0.59671  0.90700  0.00000  1
 B  B10  1  0.40329  0.09300  0.00000  1
 B  B11  1  0.90329  0.40700  0.00000  1
 B  B12  1  0.09300  0.59671  0.50000  1
 B  B13  1  0.90700  0.40329  0.50000  1
 B  B14  1  0.15348  0.03400  0.00000  1
 B  B15  1  0.34652  0.53400  0.00000  1
 B  B16  1  0.84652  0.96600  0.00000  1
 C  C1  1  0.17789  0.04004  0.50000  1
 C  C2  1  0.67789  0.45996  0.50000  1
 C  C3  1  0.32211  0.54004  0.50000  1
 C  C4  1  0.95996  0.17789  0.00000  1
 C  C5  1  0.04004  0.82211  0.00000  1
 C  C6  1  0.54004  0.67789  0.00000  1
 C  C7  1  0.45996  0.32211  0.00000  1
 C  C8  1  0.82211  0.95996  0.50000  1
 Lu  Lu1  1  0.30858  0.80858  0.25000  1
 Lu  Lu2  1  0.19142  0.30858  0.75000  1
 Lu  Lu3  1  0.80858  0.69142  0.75000  1
 Lu  Lu4  1  0.69142  0.19142  0.25000  1
 Lu  Lu5  1  0.69142  0.19142  0.75000  1
 Lu  Lu6  1  0.80858  0.69142  0.25000  1
 Lu  Lu7  1  0.19142  0.30858  0.25000  1
 Lu  Lu8  1  0.30858  0.80858  0.75000  1
