CIF file written using JARVIS-Tools package.
data_Mn3W3C
_symmetry_space_group_name_H-M  'Fd-3m'
_cell_length_a       7.86266
_cell_length_b       7.86266
_cell_length_c       7.86266
_cell_angle_alpha    60
_cell_angle_beta     60
_cell_angle_gamma    60

_symmetry_Int_Tables_number  227
_chemical_formula_structural  Mn3W3C
_chemical_formula_sum  Mn2W2C4
_cell_volume  343.71113926023924
_cell_formula_units_Z  4
loop_
  _symmetry_equiv_pos_site_id
 _symmetry_equiv_pos_as_xyz
 1  'x, y, z'
loop_
 _atom_site_type_symbol
 _atom_site_label
 _atom_site_symmetry_multiplicity
 _atom_site_fract_x
 _atom_site_fract_y
 _atom_site_fract_z
 _atom_site_fract_occupancy
 C  C1  1  -0.00000  0.50000  0.00000  1
 C  C2  1  0.50000  0.00000  0.00000  1
 C  C3  1  0.00000  0.00000  0.00000  1
 C  C4  1  0.00000  0.00000  0.50000  1
 Mn  Mn1  1  0.70295  0.70295  0.70295  1
 Mn  Mn2  1  0.50000  0.00000  0.50000  1
 Mn  Mn3  1  0.29705  0.29705  0.60886  1
 Mn  Mn4  1  0.60886  0.29705  0.29705  1
 Mn  Mn5  1  0.50000  0.50000  0.00000  1
 Mn  Mn6  1  0.39114  0.70295  0.70295  1
 Mn  Mn7  1  0.70295  0.70295  0.39114  1
 Mn  Mn8  1  0.29705  0.29705  0.29705  1
 Mn  Mn9  1  0.29705  0.60886  0.29705  1
 Mn  Mn10  1  -0.00000  0.50000  0.50000  1
 Mn  Mn11  1  0.50000  0.50000  0.50000  1
 Mn  Mn12  1  0.70295  0.39114  0.70295  1
 W  W1  1  0.07362  0.67638  0.07362  1
 W  W2  1  0.67638  0.07362  0.07362  1
 W  W3  1  0.92638  0.32362  0.92638  1
 W  W4  1  0.32362  0.92638  0.32362  1
 W  W5  1  0.07362  0.07362  0.67638  1
 W  W6  1  0.67638  0.07362  0.67638  1
 W  W7  1  0.92638  0.92638  0.32362  1
 W  W8  1  0.92638  0.32362  0.32362  1
 W  W9  1  0.32362  0.92638  0.92638  1
 W  W10  1  0.67638  0.67638  0.07362  1
 W  W11  1  0.32362  0.32362  0.92638  1
 W  W12  1  0.07362  0.67638  0.67638  1
