CIF file written using JARVIS-Tools package.
data_TiCoSi
_symmetry_space_group_name_H-M  'Pnma'
_cell_length_a       3.72413
_cell_length_b       6.13462
_cell_length_c       6.89002
_cell_angle_alpha    90
_cell_angle_beta     90
_cell_angle_gamma    90

_symmetry_Int_Tables_number  62
_chemical_formula_structural  TiCoSi
_chemical_formula_sum  Ti4Co4Si4
_cell_volume  157.41009815263544
_cell_formula_units_Z  4
loop_
  _symmetry_equiv_pos_site_id
 _symmetry_equiv_pos_as_xyz
 1  'x, y, z'
loop_
 _atom_site_type_symbol
 _atom_site_label
 _atom_site_symmetry_multiplicity
 _atom_site_fract_x
 _atom_site_fract_y
 _atom_site_fract_z
 _atom_site_fract_occupancy
 Co  Co1  1  0.25000  0.64559  0.06669  1
 Co  Co2  1  0.75000  0.35441  0.93331  1
 Co  Co3  1  0.25000  0.14559  0.43331  1
 Co  Co4  1  0.75000  0.85441  0.56669  1
 Si  Si1  1  0.75000  0.72750  0.88774  1
 Si  Si2  1  0.25000  0.77250  0.38774  1
 Si  Si3  1  0.75000  0.22750  0.61226  1
 Si  Si4  1  0.25000  0.27250  0.11226  1
 Ti  Ti1  1  0.25000  0.01421  0.80723  1
 Ti  Ti2  1  0.75000  0.48579  0.30723  1
 Ti  Ti3  1  0.25000  0.51421  0.69277  1
 Ti  Ti4  1  0.75000  0.98579  0.19277  1
