CIF file written using JARVIS-Tools package.
data_NiAs2
_symmetry_space_group_name_H-M  'Pa-3'
_cell_length_a       5.82092
_cell_length_b       5.82092
_cell_length_c       5.82092
_cell_angle_alpha    90
_cell_angle_beta     90
_cell_angle_gamma    90

_symmetry_Int_Tables_number  205
_chemical_formula_structural  NiAs2
_chemical_formula_sum  Ni4As8
_cell_volume  197.23131368965957
_cell_formula_units_Z  4
loop_
  _symmetry_equiv_pos_site_id
 _symmetry_equiv_pos_as_xyz
 1  'x, y, z'
loop_
 _atom_site_type_symbol
 _atom_site_label
 _atom_site_symmetry_multiplicity
 _atom_site_fract_x
 _atom_site_fract_y
 _atom_site_fract_z
 _atom_site_fract_occupancy
 As  As1  1  0.37716  0.37716  0.37716  1
 As  As2  1  0.12284  0.62284  0.87716  1
 As  As3  1  0.87716  0.12284  0.62284  1
 As  As4  1  0.62284  0.87716  0.12284  1
 As  As5  1  0.62284  0.62284  0.62284  1
 As  As6  1  0.87716  0.37716  0.12284  1
 As  As7  1  0.12284  0.87716  0.37716  1
 As  As8  1  0.37716  0.12284  0.87716  1
 Ni  Ni1  1  0.00000  0.00000  0.00000  1
 Ni  Ni2  1  0.50000  0.00000  0.50000  1
 Ni  Ni3  1  0.50000  0.50000  0.00000  1
 Ni  Ni4  1  0.00000  0.50000  0.50000  1
