CIF file written using JARVIS-Tools package.
data_Li8PrO6
_symmetry_space_group_name_H-M  'R-3'
_cell_length_a       6.48482
_cell_length_b       6.48481
_cell_length_c       6.48482
_cell_angle_alpha    51.7391
_cell_angle_beta     51.7392
_cell_angle_gamma    51.7392

_symmetry_Int_Tables_number  148
_chemical_formula_structural  Li8PrO6
_chemical_formula_sum  Li8PrO6
_cell_volume  155.3525647318125
_cell_formula_units_Z  1
loop_
  _symmetry_equiv_pos_site_id
 _symmetry_equiv_pos_as_xyz
 1  'x, y, z'
loop_
 _atom_site_type_symbol
 _atom_site_label
 _atom_site_symmetry_multiplicity
 _atom_site_fract_x
 _atom_site_fract_y
 _atom_site_fract_z
 _atom_site_fract_occupancy
 Li  Li1  1  0.37483  0.37483  0.37483  1
 Li  Li2  1  0.49932  0.90501  0.22069  1
 Li  Li3  1  0.22069  0.49932  0.90501  1
 Li  Li4  1  0.90501  0.22069  0.49932  1
 Li  Li5  1  0.50068  0.09499  0.77931  1
 Li  Li6  1  0.77931  0.50068  0.09499  1
 Li  Li7  1  0.62517  0.62517  0.62517  1
 Li  Li8  1  0.09499  0.77931  0.50068  1
 O  O1  1  0.24513  0.88486  0.59759  1
 O  O2  1  0.11514  0.40241  0.75487  1
 O  O3  1  0.75487  0.11514  0.40241  1
 O  O4  1  0.59759  0.24513  0.88486  1
 O  O5  1  0.88486  0.59759  0.24513  1
 O  O6  1  0.40241  0.75487  0.11514  1
 Pr  Pr1  1  0.00000  0.00000  0.00000  1
