CIF file written using JARVIS-Tools package.
data_ScS2
_symmetry_space_group_name_H-M  'P4_2/mnm'
_cell_length_a       6.02788
_cell_length_b       6.02788
_cell_length_c       3.7529
_cell_angle_alpha    90
_cell_angle_beta     90
_cell_angle_gamma    90

_symmetry_Int_Tables_number  136
_chemical_formula_structural  ScS2
_chemical_formula_sum  Sc2S4
_cell_volume  136.36298262574107
_cell_formula_units_Z  2
loop_
  _symmetry_equiv_pos_site_id
 _symmetry_equiv_pos_as_xyz
 1  'x, y, z'
loop_
 _atom_site_type_symbol
 _atom_site_label
 _atom_site_symmetry_multiplicity
 _atom_site_fract_x
 _atom_site_fract_y
 _atom_site_fract_z
 _atom_site_fract_occupancy
 S  S1  1  0.29670  0.29670  0.00000  1
 S  S2  1  0.70330  0.70330  0.00000  1
 S  S3  1  0.20330  0.79670  0.50000  1
 S  S4  1  0.79670  0.20330  0.50000  1
 Sc  Sc1  1  0.00000  0.00000  0.00000  1
 Sc  Sc2  1  0.50000  0.50000  0.50000  1
