CIF file written using JARVIS-Tools package.
data_SrP3
_symmetry_space_group_name_H-M  'C2/m'
_cell_length_a       6.85306
_cell_length_b       6.85306
_cell_length_c       8.61309
_cell_angle_alpha    78.7115
_cell_angle_beta     78.7115
_cell_angle_gamma    65.8422

_symmetry_Int_Tables_number  12
_chemical_formula_structural  SrP3
_chemical_formula_sum  Sr4P2
_cell_volume  358.9074741741863
_cell_formula_units_Z  4
loop_
  _symmetry_equiv_pos_site_id
 _symmetry_equiv_pos_as_xyz
 1  'x, y, z'
loop_
 _atom_site_type_symbol
 _atom_site_label
 _atom_site_symmetry_multiplicity
 _atom_site_fract_x
 _atom_site_fract_y
 _atom_site_fract_z
 _atom_site_fract_occupancy
 P  P1  1  0.35997  0.83766  0.97740  1
 P  P2  1  0.09462  0.60514  0.48762  1
 P  P3  1  0.32499  0.32499  0.16160  1
 P  P4  1  0.39486  0.90538  0.51238  1
 P  P5  1  0.41893  0.41893  0.36517  1
 P  P6  1  0.67501  0.67501  0.83840  1
 P  P7  1  0.60514  0.09462  0.48762  1
 P  P8  1  0.58107  0.58107  0.63483  1
 P  P9  1  0.64003  0.16234  0.02260  1
 P  P10  1  0.90538  0.39486  0.51238  1
 P  P11  1  0.83766  0.35997  0.97740  1
 P  P12  1  0.16234  0.64003  0.02260  1
 Sr  Sr1  1  0.04204  0.04204  0.25938  1
 Sr  Sr2  1  0.70704  0.70704  0.22515  1
 Sr  Sr3  1  0.29296  0.29296  0.77485  1
 Sr  Sr4  1  0.95796  0.95796  0.74062  1
