CIF file written using JARVIS-Tools package.
data_Rb3TaS4
_symmetry_space_group_name_H-M  'Pnma'
_cell_length_a       9.59549
_cell_length_b       9.64907
_cell_length_c       10.9944
_cell_angle_alpha    90
_cell_angle_beta     90
_cell_angle_gamma    90

_symmetry_Int_Tables_number  62
_chemical_formula_structural  Rb3TaS4
_chemical_formula_sum  Rb2Ta4S6
_cell_volume  1017.947975569485
_cell_formula_units_Z  4
loop_
  _symmetry_equiv_pos_site_id
 _symmetry_equiv_pos_as_xyz
 1  'x, y, z'
loop_
 _atom_site_type_symbol
 _atom_site_label
 _atom_site_symmetry_multiplicity
 _atom_site_fract_x
 _atom_site_fract_y
 _atom_site_fract_z
 _atom_site_fract_occupancy
 Rb  Rb1  1  0.05121  0.29018  0.54227  1
 Rb  Rb2  1  0.35775  0.58393  0.75000  1
 Rb  Rb3  1  0.55121  0.20982  0.95773  1
 Rb  Rb4  1  0.94879  0.70982  0.04227  1
 Rb  Rb5  1  0.05121  0.29018  0.95773  1
 Rb  Rb6  1  0.55121  0.20982  0.54227  1
 Rb  Rb7  1  0.44879  0.79018  0.45773  1
 Rb  Rb8  1  0.94879  0.70982  0.45773  1
 Rb  Rb9  1  0.64225  0.41607  0.25000  1
 Rb  Rb10  1  0.14225  0.08393  0.25000  1
 Rb  Rb11  1  0.85775  0.91607  0.75000  1
 Rb  Rb12  1  0.44879  0.79018  0.04227  1
 S  S1  1  -0.00208  0.42128  0.25000  1
 S  S2  1  0.33301  0.44942  0.07777  1
 S  S3  1  0.30070  0.25105  0.75000  1
 S  S4  1  0.80070  0.24895  0.75000  1
 S  S5  1  0.19930  0.75105  0.25000  1
 S  S6  1  0.69930  0.74895  0.25000  1
 S  S7  1  0.00208  0.57872  0.75000  1
 S  S8  1  0.49792  0.07872  0.25000  1
 S  S9  1  0.83301  0.05058  0.07777  1
 S  S10  1  0.66699  0.55058  0.57777  1
 S  S11  1  0.66699  0.55058  0.92223  1
 S  S12  1  0.16699  0.94942  0.57777  1
 S  S13  1  0.16699  0.94942  0.92223  1
 S  S14  1  0.83301  0.05058  0.42223  1
 S  S15  1  0.50208  0.92128  0.75000  1
 S  S16  1  0.33301  0.44942  0.42223  1
 Ta  Ta1  1  0.28231  0.01518  0.75000  1
 Ta  Ta2  1  0.71769  0.98482  0.25000  1
 Ta  Ta3  1  0.21769  0.51518  0.25000  1
 Ta  Ta4  1  0.78231  0.48482  0.75000  1
