CIF file written using JARVIS-Tools package.
data_CaGa2S4
_symmetry_space_group_name_H-M  'Fddd'
_cell_length_a       11.7704
_cell_length_b       11.7704
_cell_length_c       11.7613
_cell_angle_alpha    105.591
_cell_angle_beta     105.591
_cell_angle_gamma    117.573

_symmetry_Int_Tables_number  70
_chemical_formula_structural  CaGa2S4
_chemical_formula_sum  Ca8Ga6S32
_cell_volume  1234.9358390098514
_cell_formula_units_Z  8
loop_
  _symmetry_equiv_pos_site_id
 _symmetry_equiv_pos_as_xyz
 1  'x, y, z'
loop_
 _atom_site_type_symbol
 _atom_site_label
 _atom_site_symmetry_multiplicity
 _atom_site_fract_x
 _atom_site_fract_y
 _atom_site_fract_z
 _atom_site_fract_occupancy
 Ca  Ca1  1  0.87500  0.12500  0.25000  1
 Ca  Ca2  1  0.12500  0.87500  0.75000  1
 Ca  Ca3  1  0.37500  0.62500  0.25000  1
 Ca  Ca4  1  0.62500  0.37500  0.75000  1
 Ca  Ca5  1  0.62271  0.87271  0.74542  1
 Ca  Ca6  1  0.12729  0.37729  0.75458  1
 Ca  Ca7  1  0.37729  0.12729  0.25458  1
 Ca  Ca8  1  0.87271  0.62271  0.24542  1
 Ga  Ga1  1  0.86423  0.38747  0.50117  1
 Ga  Ga2  1  0.96783  0.35865  0.99966  1
 Ga  Ga3  1  0.13694  0.11370  0.50117  1
 Ga  Ga4  1  0.61253  0.13577  0.99883  1
 Ga  Ga5  1  0.13577  0.61253  0.49883  1
 Ga  Ga6  1  0.86306  0.88630  0.49883  1
 Ga  Ga7  1  0.38747  0.86423  0.00117  1
 Ga  Ga8  1  0.11370  0.13694  0.00117  1
 Ga  Ga9  1  0.64100  0.53182  0.49966  1
 Ga  Ga10  1  0.35865  0.96783  0.49966  1
 Ga  Ga11  1  0.46818  0.35900  0.00034  1
 Ga  Ga12  1  0.64135  0.03217  0.50034  1
 Ga  Ga13  1  0.35900  0.46818  0.50034  1
 Ga  Ga14  1  0.53182  0.64100  0.99966  1
 Ga  Ga15  1  0.88630  0.86306  0.99883  1
 Ga  Ga16  1  0.03217  0.64135  0.00034  1
 S  S1  1  0.58734  0.08767  0.17228  1
 S  S2  1  0.84052  0.65349  0.99733  1
 S  S3  1  0.34651  0.15948  0.50267  1
 S  S4  1  0.65681  0.34384  0.99733  1
 S  S5  1  0.58551  0.08518  0.67336  1
 S  S6  1  0.41182  0.41215  0.82664  1
 S  S7  1  0.58818  0.58785  0.17336  1
 S  S8  1  0.58785  0.58818  0.67336  1
 S  S9  1  0.41449  0.91482  0.32664  1
 S  S10  1  0.08518  0.58551  0.17336  1
 S  S11  1  0.41215  0.41182  0.32664  1
 S  S12  1  0.91233  0.41266  0.32772  1
 S  S13  1  0.34319  0.65616  0.00267  1
 S  S14  1  0.91482  0.41449  0.82664  1
 S  S15  1  0.65349  0.84052  0.49733  1
 S  S16  1  0.91506  0.91539  0.82772  1
 S  S17  1  0.15948  0.34651  0.00267  1
 S  S18  1  0.31802  0.15183  0.00250  1
 S  S19  1  0.14933  0.81551  0.49750  1
 S  S20  1  0.84817  0.68198  0.49750  1
 S  S21  1  0.18449  0.85067  0.00250  1
 S  S22  1  0.68198  0.84817  0.99750  1
 S  S23  1  0.85067  0.18449  0.50250  1
 S  S24  1  0.15183  0.31802  0.50250  1
 S  S25  1  0.08494  0.08461  0.17228  1
 S  S26  1  0.81551  0.14933  0.99750  1
 S  S27  1  0.65616  0.34319  0.50267  1
 S  S28  1  0.41266  0.91233  0.82772  1
 S  S29  1  0.08461  0.08494  0.67228  1
 S  S30  1  0.08767  0.58734  0.67228  1
 S  S31  1  0.34384  0.65681  0.49733  1
 S  S32  1  0.91539  0.91506  0.32772  1
