CIF file written using JARVIS-Tools package.
data_Er3Ni7B2
_symmetry_space_group_name_H-M  'P6_3/mmc'
_cell_length_a       5.04188
_cell_length_b       5.04188
_cell_length_c       14.2702
_cell_angle_alpha    90
_cell_angle_beta     90
_cell_angle_gamma    120

_symmetry_Int_Tables_number  194
_chemical_formula_structural  Er3Ni7B2
_chemical_formula_sum  Er6Ni4B4
_cell_volume  314.156709712977
_cell_formula_units_Z  2
loop_
  _symmetry_equiv_pos_site_id
 _symmetry_equiv_pos_as_xyz
 1  'x, y, z'
loop_
 _atom_site_type_symbol
 _atom_site_label
 _atom_site_symmetry_multiplicity
 _atom_site_fract_x
 _atom_site_fract_y
 _atom_site_fract_z
 _atom_site_fract_occupancy
 B  B1  1  0.00000  0.00000  0.75000  1
 B  B2  1  0.33333  0.66667  0.75000  1
 B  B3  1  0.00000  0.00000  0.25000  1
 B  B4  1  0.66667  0.33333  0.25000  1
 Er  Er1  1  0.66667  0.33333  0.75000  1
 Er  Er2  1  0.66667  0.33333  0.53255  1
 Er  Er3  1  0.33333  0.66667  0.03255  1
 Er  Er4  1  0.33333  0.66667  0.46745  1
 Er  Er5  1  0.66667  0.33333  0.96745  1
 Er  Er6  1  0.33333  0.66667  0.25000  1
 Ni  Ni1  1  0.16585  0.83415  0.64813  1
 Ni  Ni2  1  0.83415  0.16585  0.35187  1
 Ni  Ni3  1  0.66831  0.83415  0.64813  1
 Ni  Ni4  1  0.16585  0.33169  0.64813  1
 Ni  Ni5  1  0.00000  0.00000  0.00000  1
 Ni  Ni6  1  0.16585  0.33169  0.85187  1
 Ni  Ni7  1  0.33169  0.16585  0.35187  1
 Ni  Ni8  1  0.16585  0.83415  0.85187  1
 Ni  Ni9  1  0.83415  0.66831  0.14813  1
 Ni  Ni10  1  0.33169  0.16585  0.14813  1
 Ni  Ni11  1  0.83415  0.66831  0.35187  1
 Ni  Ni12  1  0.83415  0.16585  0.14813  1
 Ni  Ni13  1  0.00000  0.00000  0.50000  1
 Ni  Ni14  1  0.66831  0.83415  0.85187  1
