CIF file written using JARVIS-Tools package.
data_Lu2C3N6
_symmetry_space_group_name_H-M  'R-3c'
_cell_length_a       10.5236
_cell_length_b       10.5236
_cell_length_c       10.5236
_cell_angle_alpha    34.3653
_cell_angle_beta     34.3653
_cell_angle_gamma    34.3652

_symmetry_Int_Tables_number  167
_chemical_formula_structural  Lu2C3N6
_chemical_formula_sum  Lu4C6N2
_cell_volume  331.201196179718
_cell_formula_units_Z  2
loop_
  _symmetry_equiv_pos_site_id
 _symmetry_equiv_pos_as_xyz
 1  'x, y, z'
loop_
 _atom_site_type_symbol
 _atom_site_label
 _atom_site_symmetry_multiplicity
 _atom_site_fract_x
 _atom_site_fract_y
 _atom_site_fract_z
 _atom_site_fract_occupancy
 C  C1  1  0.44994  0.05006  0.75000  1
 C  C2  1  0.55006  0.94994  0.25000  1
 C  C3  1  0.94994  0.25000  0.55006  1
 C  C4  1  0.25000  0.55006  0.94994  1
 C  C5  1  0.75000  0.44994  0.05006  1
 C  C6  1  0.05006  0.75000  0.44994  1
 Lu  Lu1  1  0.66453  0.66453  0.66453  1
 Lu  Lu2  1  0.83547  0.83547  0.83547  1
 Lu  Lu3  1  0.33547  0.33547  0.33547  1
 Lu  Lu4  1  0.16453  0.16453  0.16453  1
 N  N1  1  0.85804  0.45902  0.05132  1
 N  N2  1  0.95902  0.35804  0.55132  1
 N  N3  1  0.45902  0.05132  0.85804  1
 N  N4  1  0.54098  0.94868  0.14196  1
 N  N5  1  0.05132  0.85804  0.45902  1
 N  N6  1  0.35804  0.55132  0.95902  1
 N  N7  1  0.04098  0.64196  0.44868  1
 N  N8  1  0.55132  0.95902  0.35804  1
 N  N9  1  0.94868  0.14196  0.54098  1
 N  N10  1  0.44868  0.04098  0.64196  1
 N  N11  1  0.64196  0.44868  0.04098  1
 N  N12  1  0.14196  0.54098  0.94868  1
