CIF file written using JARVIS-Tools package.
data_CoH2O2
_symmetry_space_group_name_H-M  'P-3m1'
_cell_length_a       3.13978
_cell_length_b       3.14074
_cell_length_c       4.37813
_cell_angle_alpha    90
_cell_angle_beta     90.0183
_cell_angle_gamma    120.01

_symmetry_Int_Tables_number  164
_chemical_formula_structural  CoH2O2
_chemical_formula_sum  CoH2O2
_cell_volume  37.38570381398421
_cell_formula_units_Z  1
loop_
  _symmetry_equiv_pos_site_id
 _symmetry_equiv_pos_as_xyz
 1  'x, y, z'
loop_
 _atom_site_type_symbol
 _atom_site_label
 _atom_site_symmetry_multiplicity
 _atom_site_fract_x
 _atom_site_fract_y
 _atom_site_fract_z
 _atom_site_fract_occupancy
 Co  Co1  1  -0.00000  0.93723  0.00000  1
 H  H1  1  0.66638  0.27037  0.56170  1
 H  H2  1  0.33362  0.60399  0.43830  1
 O  O1  1  0.66655  0.27051  0.78668  1
 O  O2  1  0.33345  0.60396  0.21332  1
