CIF file written using JARVIS-Tools package.
data_Be3Cd4Si3TeO12
_symmetry_space_group_name_H-M  'P-43n'
_cell_length_a       8.65901
_cell_length_b       8.65901
_cell_length_c       8.65901
_cell_angle_alpha    90
_cell_angle_beta     90
_cell_angle_gamma    90

_symmetry_Int_Tables_number  218
_chemical_formula_structural  Be3Cd4Si3TeO12
_chemical_formula_sum  Be6Cd8Si6Te2O24
_cell_volume  649.2388160125079
_cell_formula_units_Z  2
loop_
  _symmetry_equiv_pos_site_id
 _symmetry_equiv_pos_as_xyz
 1  'x, y, z'
loop_
 _atom_site_type_symbol
 _atom_site_label
 _atom_site_symmetry_multiplicity
 _atom_site_fract_x
 _atom_site_fract_y
 _atom_site_fract_z
 _atom_site_fract_occupancy
 Be  Be1  1  0.25000  0.50000  0.00000  1
 Be  Be2  1  0.50000  0.00000  0.75000  1
 Be  Be3  1  0.50000  0.00000  0.25000  1
 Be  Be4  1  0.00000  0.25000  0.50000  1
 Be  Be5  1  0.00000  0.75000  0.50000  1
 Be  Be6  1  0.75000  0.50000  0.00000  1
 Cd  Cd1  1  0.68407  0.31593  0.31593  1
 Cd  Cd2  1  0.18407  0.18407  0.18407  1
 Cd  Cd3  1  0.31593  0.68407  0.31593  1
 Cd  Cd4  1  0.31593  0.31593  0.68407  1
 Cd  Cd5  1  0.81593  0.81593  0.18407  1
 Cd  Cd6  1  0.18407  0.81593  0.81593  1
 Cd  Cd7  1  0.81593  0.18407  0.81593  1
 Cd  Cd8  1  0.68407  0.68407  0.68407  1
 O  O1  1  0.14574  0.85413  0.56371  1
 O  O2  1  0.85426  0.14587  0.56371  1
 O  O3  1  0.85413  0.43629  0.85426  1
 O  O4  1  0.56371  0.14574  0.85413  1
 O  O5  1  0.14587  0.56371  0.85426  1
 O  O6  1  0.14587  0.43629  0.14574  1
 O  O7  1  0.64587  0.35426  0.06371  1
 O  O8  1  0.14574  0.14587  0.43629  1
 O  O9  1  0.85426  0.85413  0.43629  1
 O  O10  1  0.56371  0.85426  0.14587  1
 O  O11  1  0.43629  0.85426  0.85413  1
 O  O12  1  0.85413  0.56371  0.14574  1
 O  O13  1  0.93629  0.35413  0.35426  1
 O  O14  1  0.35413  0.35426  0.93629  1
 O  O15  1  0.35426  0.93629  0.35413  1
 O  O16  1  0.35413  0.64574  0.06371  1
 O  O17  1  0.93629  0.64587  0.64574  1
 O  O18  1  0.64574  0.93629  0.64587  1
 O  O19  1  0.06371  0.64587  0.35426  1
 O  O20  1  0.06371  0.35413  0.64574  1
 O  O21  1  0.35426  0.06371  0.64587  1
 O  O22  1  0.43629  0.14574  0.14587  1
 O  O23  1  0.64574  0.06371  0.35413  1
 O  O24  1  0.64587  0.64574  0.93629  1
 Si  Si1  1  0.75000  0.00000  0.50000  1
 Si  Si2  1  0.50000  0.75000  0.00000  1
 Si  Si3  1  0.50000  0.25000  0.00000  1
 Si  Si4  1  0.00000  0.50000  0.25000  1
 Si  Si5  1  0.25000  0.00000  0.50000  1
 Si  Si6  1  0.00000  0.50000  0.75000  1
 Te  Te1  1  0.50000  0.50000  0.50000  1
 Te  Te2  1  0.00000  0.00000  0.00000  1
