CIF file written using JARVIS-Tools package.
data_Lu5SbPd2
_symmetry_space_group_name_H-M  'I4/mcm'
_cell_length_a       7.56969
_cell_length_b       7.56969
_cell_length_c       8.51643
_cell_angle_alpha    116.386
_cell_angle_beta     116.386
_cell_angle_gamma    90

_symmetry_Int_Tables_number  140
_chemical_formula_structural  Lu5SbPd2
_chemical_formula_sum  Lu0Sb2Pd4
_cell_volume  379.5660765206166
_cell_formula_units_Z  2
loop_
  _symmetry_equiv_pos_site_id
 _symmetry_equiv_pos_as_xyz
 1  'x, y, z'
loop_
 _atom_site_type_symbol
 _atom_site_label
 _atom_site_symmetry_multiplicity
 _atom_site_fract_x
 _atom_site_fract_y
 _atom_site_fract_z
 _atom_site_fract_occupancy
 Lu  Lu1  1  0.20252  0.01183  0.71435  1
 Lu  Lu2  1  0.01183  0.51183  0.71435  1
 Lu  Lu3  1  0.70252  0.20252  0.71435  1
 Lu  Lu4  1  0.98817  0.48817  0.28565  1
 Lu  Lu5  1  0.51183  0.70252  0.71435  1
 Lu  Lu6  1  0.79748  0.98817  0.28565  1
 Lu  Lu7  1  0.48817  0.29748  0.28565  1
 Lu  Lu8  1  0.29748  0.79748  0.28565  1
 Lu  Lu9  1  0.50000  0.50000  0.00000  1
 Lu  Lu10  1  0.00000  0.00000  0.00000  1
 Pd  Pd1  1  0.36104  0.86104  0.00000  1
 Pd  Pd2  1  0.13896  0.36104  0.00000  1
 Pd  Pd3  1  0.63896  0.13896  -0.00000  1
 Pd  Pd4  1  0.86104  0.63896  -0.00000  1
 Sb  Sb1  1  0.25000  0.25000  0.50000  1
 Sb  Sb2  1  0.75000  0.75000  0.50000  1
