CIF file written using JARVIS-Tools package.
data_KAuS2O8
_symmetry_space_group_name_H-M  'C2/c'
_cell_length_a       6.61722
_cell_length_b       6.61723
_cell_length_c       9.1517
_cell_angle_alpha    96.6914
_cell_angle_beta     107.652
_cell_angle_gamma    114.801

_symmetry_Int_Tables_number  15
_chemical_formula_structural  KAuS2O8
_chemical_formula_sum  K2Au2S4O6
_cell_volume  332.6015420948514
_cell_formula_units_Z  2
loop_
  _symmetry_equiv_pos_site_id
 _symmetry_equiv_pos_as_xyz
 1  'x, y, z'
loop_
 _atom_site_type_symbol
 _atom_site_label
 _atom_site_symmetry_multiplicity
 _atom_site_fract_x
 _atom_site_fract_y
 _atom_site_fract_z
 _atom_site_fract_occupancy
 Au  Au1  1  0.00000  0.50000  0.50000  1
 Au  Au2  1  0.50000  0.50000  -0.00000  1
 K  K1  1  0.21984  0.96984  0.25000  1
 K  K2  1  0.78016  0.03016  0.75000  1
 O  O1  1  0.46681  0.44368  0.32231  1
 O  O2  1  0.71750  0.73003  0.21837  1
 O  O3  1  0.93964  0.16718  0.08290  1
 O  O4  1  0.41572  0.14327  0.58290  1
 O  O5  1  0.06036  0.83282  0.91710  1
 O  O6  1  0.58428  0.85673  0.41710  1
 O  O7  1  0.88671  0.74148  0.49595  1
 O  O8  1  0.25447  0.60924  0.99595  1
 O  O9  1  0.98834  0.50087  0.71837  1
 O  O10  1  0.01166  0.49913  0.28163  1
 O  O11  1  0.28250  0.26997  0.78163  1
 O  O12  1  0.53319  0.55632  0.67769  1
 O  O13  1  0.37864  0.85550  0.82231  1
 O  O14  1  0.62136  0.14450  0.17769  1
 O  O15  1  0.74553  0.39076  0.00405  1
 O  O16  1  0.11329  0.25852  0.50405  1
 S  S1  1  0.17915  0.71935  0.86248  1
 S  S2  1  0.35687  0.31668  0.63752  1
 S  S3  1  0.64313  0.68332  0.36248  1
 S  S4  1  0.82085  0.28065  0.13752  1
