CIF file written using JARVIS-Tools package.
data_Cu2SiS3
_symmetry_space_group_name_H-M  'P31m'
_cell_length_a       6.37524
_cell_length_b       6.37524
_cell_length_c       6.17553
_cell_angle_alpha    90
_cell_angle_beta     90
_cell_angle_gamma    120

_symmetry_Int_Tables_number  157
_chemical_formula_structural  Cu2SiS3
_chemical_formula_sum  Cu4Si2S6
_cell_volume  217.36894883329947
_cell_formula_units_Z  2
loop_
  _symmetry_equiv_pos_site_id
 _symmetry_equiv_pos_as_xyz
 1  'x, y, z'
loop_
 _atom_site_type_symbol
 _atom_site_label
 _atom_site_symmetry_multiplicity
 _atom_site_fract_x
 _atom_site_fract_y
 _atom_site_fract_z
 _atom_site_fract_occupancy
 Cu  Cu1  1  0.33171  0.00000  0.37846  1
 Cu  Cu2  1  0.00000  0.00000  0.85346  1
 Cu  Cu3  1  0.66829  0.66829  0.37846  1
 Cu  Cu4  1  0.00000  0.33171  0.37846  1
 S  S1  1  0.35505  -0.00000  0.00741  1
 S  S2  1  -0.00000  0.35505  0.00741  1
 S  S3  1  0.33333  0.66667  0.51953  1
 S  S4  1  0.64495  0.64495  0.00741  1
 S  S5  1  0.00000  0.00000  0.49078  1
 S  S6  1  0.66667  0.33333  0.51953  1
 Si  Si1  1  0.66667  0.33333  0.85454  1
 Si  Si2  1  0.33333  0.66667  0.85454  1
