CIF file written using JARVIS-Tools package.
data_ReN2
_symmetry_space_group_name_H-M  'P2_1/m'
_cell_length_a       4.24562
_cell_length_b       2.89271
_cell_length_c       5.11183
_cell_angle_alpha    90
_cell_angle_beta     113.068
_cell_angle_gamma    90

_symmetry_Int_Tables_number  11
_chemical_formula_structural  ReN2
_chemical_formula_sum  Re2N4
_cell_volume  57.760373635348806
_cell_formula_units_Z  2
loop_
  _symmetry_equiv_pos_site_id
 _symmetry_equiv_pos_as_xyz
 1  'x, y, z'
loop_
 _atom_site_type_symbol
 _atom_site_label
 _atom_site_symmetry_multiplicity
 _atom_site_fract_x
 _atom_site_fract_y
 _atom_site_fract_z
 _atom_site_fract_occupancy
 N  N1  1  0.65585  0.75000  0.29558  1
 N  N2  1  0.34415  0.25000  0.70442  1
 N  N3  1  0.88950  0.75000  0.17065  1
 N  N4  1  0.11050  0.25000  0.82935  1
 Re  Re1  1  0.29396  0.25000  0.28302  1
 Re  Re2  1  0.70604  0.75000  0.71698  1
