CIF file written using JARVIS-Tools package.
data_Zr4In5Co2
_symmetry_space_group_name_H-M  'P2/m'
_cell_length_a       7.53735
_cell_length_b       3.30171
_cell_length_c       9.07424
_cell_angle_alpha    90
_cell_angle_beta     94.8304
_cell_angle_gamma    90

_symmetry_Int_Tables_number  10
_chemical_formula_structural  Zr4In5Co2
_chemical_formula_sum  Zr4In5Co2
_cell_volume  225.02058325781186
_cell_formula_units_Z  1
loop_
  _symmetry_equiv_pos_site_id
 _symmetry_equiv_pos_as_xyz
 1  'x, y, z'
loop_
 _atom_site_type_symbol
 _atom_site_label
 _atom_site_symmetry_multiplicity
 _atom_site_fract_x
 _atom_site_fract_y
 _atom_site_fract_z
 _atom_site_fract_occupancy
 Co  Co1  1  0.07748  0.00000  0.63318  1
 Co  Co2  1  0.92252  0.00000  0.36682  1
 In  In1  1  0.53919  0.00000  0.33313  1
 In  In2  1  0.15602  0.00000  0.14078  1
 In  In3  1  0.50000  0.00000  -0.00000  1
 In  In4  1  0.84398  0.00000  0.85922  1
 In  In5  1  0.46081  0.00000  0.66687  1
 Zr  Zr1  1  0.79894  0.50000  0.56118  1
 Zr  Zr2  1  0.18408  0.50000  0.83979  1
 Zr  Zr3  1  0.20106  0.50000  0.43882  1
 Zr  Zr4  1  0.81592  0.50000  0.16021  1
