CIF file written using JARVIS-Tools package.
data_Tl6TeO12
_symmetry_space_group_name_H-M  'R-3'
_cell_length_a       6.51702
_cell_length_b       6.51701
_cell_length_c       6.51702
_cell_angle_alpha    97.807
_cell_angle_beta     97.807
_cell_angle_gamma    97.807

_symmetry_Int_Tables_number  148
_chemical_formula_structural  Tl6TeO12
_chemical_formula_sum  Tl6TeO2
_cell_volume  268.30312809487606
_cell_formula_units_Z  1
loop_
  _symmetry_equiv_pos_site_id
 _symmetry_equiv_pos_as_xyz
 1  'x, y, z'
loop_
 _atom_site_type_symbol
 _atom_site_label
 _atom_site_symmetry_multiplicity
 _atom_site_fract_x
 _atom_site_fract_y
 _atom_site_fract_z
 _atom_site_fract_occupancy
 O  O1  1  0.42260  0.17484  0.60051  1
 O  O2  1  0.17484  0.60051  0.42260  1
 O  O3  1  0.60051  0.42260  0.17484  1
 O  O4  1  0.57740  0.82516  0.39949  1
 O  O5  1  0.82516  0.39949  0.57740  1
 O  O6  1  0.39949  0.57740  0.82516  1
 O  O7  1  0.03312  0.92840  0.70410  1
 O  O8  1  0.29590  0.96688  0.07160  1
 O  O9  1  0.07160  0.29590  0.96688  1
 O  O10  1  0.96688  0.07160  0.29590  1
 O  O11  1  0.92840  0.70410  0.03312  1
 O  O12  1  0.70410  0.03312  0.92840  1
 Te  Te1  1  0.00000  0.00000  0.00000  1
 Tl  Tl1  1  0.60667  0.13562  0.30417  1
 Tl  Tl2  1  0.69583  0.39333  0.86438  1
 Tl  Tl3  1  0.39333  0.86438  0.69583  1
 Tl  Tl4  1  0.86438  0.69583  0.39333  1
 Tl  Tl5  1  0.30417  0.60667  0.13562  1
 Tl  Tl6  1  0.13562  0.30417  0.60667  1
