CIF file written using JARVIS-Tools package.
data_RbBe3ZnF9
_symmetry_space_group_name_H-M  'P-6c2'
_cell_length_a       6.73391
_cell_length_b       6.73391
_cell_length_c       9.76243
_cell_angle_alpha    90
_cell_angle_beta     90
_cell_angle_gamma    120

_symmetry_Int_Tables_number  188
_chemical_formula_structural  RbBe3ZnF9
_chemical_formula_sum  Rb2Be6Zn2F8
_cell_volume  383.3745270178636
_cell_formula_units_Z  2
loop_
  _symmetry_equiv_pos_site_id
 _symmetry_equiv_pos_as_xyz
 1  'x, y, z'
loop_
 _atom_site_type_symbol
 _atom_site_label
 _atom_site_symmetry_multiplicity
 _atom_site_fract_x
 _atom_site_fract_y
 _atom_site_fract_z
 _atom_site_fract_occupancy
 Be  Be1  1  0.21238  0.27702  0.75000  1
 Be  Be2  1  0.21238  0.93535  0.25000  1
 Be  Be3  1  0.72298  0.78762  0.25000  1
 Be  Be4  1  0.06465  0.27702  0.25000  1
 Be  Be5  1  0.06465  0.78762  0.75000  1
 Be  Be6  1  0.72298  0.93535  0.75000  1
 F  F1  1  0.08476  0.67035  0.61868  1
 F  F2  1  0.08476  0.41441  0.38132  1
 F  F3  1  0.58559  0.67035  0.38132  1
 F  F4  1  0.32965  0.91524  0.38132  1
 F  F5  1  0.58559  0.67035  0.11868  1
 F  F6  1  0.24211  0.05511  0.75000  1
 F  F7  1  0.94489  0.18700  0.75000  1
 F  F8  1  0.81300  0.75789  0.75000  1
 F  F9  1  0.32965  0.41441  0.61868  1
 F  F10  1  0.94489  0.75789  0.25000  1
 F  F11  1  0.32965  0.91524  0.11868  1
 F  F12  1  0.32965  0.41441  0.88132  1
 F  F13  1  0.58559  0.91524  0.61868  1
 F  F14  1  0.81300  0.05511  0.25000  1
 F  F15  1  0.08476  0.67035  0.88132  1
 F  F16  1  0.58559  0.91524  0.88132  1
 F  F17  1  0.08476  0.41441  0.11868  1
 F  F18  1  0.24211  0.18700  0.25000  1
 Rb  Rb1  1  0.66667  0.33333  0.00000  1
 Rb  Rb2  1  0.66667  0.33333  0.50000  1
 Zn  Zn1  1  0.33333  0.66667  0.50000  1
 Zn  Zn2  1  0.33333  0.66667  0.00000  1
