CIF file written using JARVIS-Tools package.
data_Ta3B2
_symmetry_space_group_name_H-M  'P4/mbm'
_cell_length_a       6.20786
_cell_length_b       6.20786
_cell_length_c       3.30517
_cell_angle_alpha    90
_cell_angle_beta     90
_cell_angle_gamma    90

_symmetry_Int_Tables_number  127
_chemical_formula_structural  Ta3B2
_chemical_formula_sum  Ta6B4
_cell_volume  127.37272305606476
_cell_formula_units_Z  2
loop_
  _symmetry_equiv_pos_site_id
 _symmetry_equiv_pos_as_xyz
 1  'x, y, z'
loop_
 _atom_site_type_symbol
 _atom_site_label
 _atom_site_symmetry_multiplicity
 _atom_site_fract_x
 _atom_site_fract_y
 _atom_site_fract_z
 _atom_site_fract_occupancy
 B  B1  1  0.10696  0.60696  0.00000  1
 B  B2  1  0.60696  0.89304  0.00000  1
 B  B3  1  0.39304  0.10696  0.00000  1
 B  B4  1  0.89304  0.39304  0.00000  1
 Ta  Ta1  1  0.00000  0.00000  0.00000  1
 Ta  Ta2  1  0.50000  0.50000  0.00000  1
 Ta  Ta3  1  0.32206  0.82206  0.50000  1
 Ta  Ta4  1  0.82206  0.67794  0.50000  1
 Ta  Ta5  1  0.17794  0.32206  0.50000  1
 Ta  Ta6  1  0.67794  0.17794  0.50000  1
