CIF file written using JARVIS-Tools package.
data_Sr3ScB3O9
_symmetry_space_group_name_H-M  'R-3'
_cell_length_a       7.66442
_cell_length_b       7.66442
_cell_length_c       7.66442
_cell_angle_alpha    104.935
_cell_angle_beta     104.935
_cell_angle_gamma    104.935

_symmetry_Int_Tables_number  148
_chemical_formula_structural  Sr3ScB3O9
_chemical_formula_sum  Sr6Sc2B6O8
_cell_volume  394.1770649519489
_cell_formula_units_Z  2
loop_
  _symmetry_equiv_pos_site_id
 _symmetry_equiv_pos_as_xyz
 1  'x, y, z'
loop_
 _atom_site_type_symbol
 _atom_site_label
 _atom_site_symmetry_multiplicity
 _atom_site_fract_x
 _atom_site_fract_y
 _atom_site_fract_z
 _atom_site_fract_occupancy
 B  B1  1  0.03986  0.29051  0.36949  1
 B  B2  1  0.96014  0.70949  0.63051  1
 B  B3  1  0.63051  0.96014  0.70949  1
 B  B4  1  0.70949  0.63051  0.96014  1
 B  B5  1  0.36949  0.03986  0.29051  1
 B  B6  1  0.29051  0.36949  0.03986  1
 O  O1  1  0.78505  0.56693  0.50815  1
 O  O2  1  0.56693  0.50815  0.78505  1
 O  O3  1  0.26121  0.17279  0.98470  1
 O  O4  1  0.49185  0.21495  0.43307  1
 O  O5  1  0.17279  0.98470  0.26121  1
 O  O6  1  0.43307  0.49185  0.21495  1
 O  O7  1  0.07982  0.80823  0.55582  1
 O  O8  1  0.80823  0.55582  0.07982  1
 O  O9  1  0.55582  0.07982  0.80823  1
 O  O10  1  0.44418  0.92018  0.19177  1
 O  O11  1  0.01530  0.73879  0.82721  1
 O  O12  1  0.19177  0.44418  0.92018  1
 O  O13  1  0.21495  0.43307  0.49185  1
 O  O14  1  0.73879  0.82721  0.01530  1
 O  O15  1  0.98470  0.26121  0.17279  1
 O  O16  1  0.50815  0.78505  0.56693  1
 O  O17  1  0.92018  0.19177  0.44418  1
 O  O18  1  0.82721  0.01530  0.73879  1
 Sc  Sc1  1  0.00000  0.00000  0.00000  1
 Sc  Sc2  1  0.50000  0.50000  0.50000  1
 Sr  Sr1  1  0.83800  0.34905  0.73927  1
 Sr  Sr2  1  0.26073  0.16200  0.65095  1
 Sr  Sr3  1  0.16200  0.65095  0.26073  1
 Sr  Sr4  1  0.65095  0.26073  0.16200  1
 Sr  Sr5  1  0.73927  0.83800  0.34905  1
 Sr  Sr6  1  0.34905  0.73927  0.83800  1
