CIF file written using JARVIS-Tools package.
data_TlPPd5
_symmetry_space_group_name_H-M  'P4/mmm'
_cell_length_a       3.9985
_cell_length_b       3.9985
_cell_length_c       7.13172
_cell_angle_alpha    90
_cell_angle_beta     90
_cell_angle_gamma    90

_symmetry_Int_Tables_number  123
_chemical_formula_structural  TlPPd5
_chemical_formula_sum  TlPPd5
_cell_volume  114.02217780118848
_cell_formula_units_Z  1
loop_
  _symmetry_equiv_pos_site_id
 _symmetry_equiv_pos_as_xyz
 1  'x, y, z'
loop_
 _atom_site_type_symbol
 _atom_site_label
 _atom_site_symmetry_multiplicity
 _atom_site_fract_x
 _atom_site_fract_y
 _atom_site_fract_z
 _atom_site_fract_occupancy
 P  P1  1  0.00000  0.00000  0.50000  1
 Pd  Pd1  1  0.00000  0.50000  0.30277  1
 Pd  Pd2  1  0.00000  0.50000  0.69723  1
 Pd  Pd3  1  0.50000  0.00000  0.30277  1
 Pd  Pd4  1  0.50000  0.00000  0.69723  1
 Pd  Pd5  1  0.00000  0.00000  0.00000  1
 Tl  Tl1  1  0.50000  0.50000  0.00000  1
