CIF file written using JARVIS-Tools package.
data_Ti3In4
_symmetry_space_group_name_H-M  'P4/mbm'
_cell_length_a       9.95638
_cell_length_b       9.95638
_cell_length_c       2.98337
_cell_angle_alpha    90
_cell_angle_beta     90
_cell_angle_gamma    90

_symmetry_Int_Tables_number  127
_chemical_formula_structural  Ti3In4
_chemical_formula_sum  Ti6In8
_cell_volume  295.74020523666434
_cell_formula_units_Z  2
loop_
  _symmetry_equiv_pos_site_id
 _symmetry_equiv_pos_as_xyz
 1  'x, y, z'
loop_
 _atom_site_type_symbol
 _atom_site_label
 _atom_site_symmetry_multiplicity
 _atom_site_fract_x
 _atom_site_fract_y
 _atom_site_fract_z
 _atom_site_fract_occupancy
 In  In1  1  0.21173  0.06055  0.00000  1
 In  In2  1  0.06055  0.78827  0.00000  1
 In  In3  1  0.93945  0.21173  0.00000  1
 In  In4  1  0.78827  0.93945  0.00000  1
 In  In5  1  0.28827  0.56055  0.00000  1
 In  In6  1  0.71173  0.43945  0.00000  1
 In  In7  1  0.56055  0.71173  0.00000  1
 In  In8  1  0.43945  0.28827  0.00000  1
 Ti  Ti1  1  0.50000  0.00000  0.00000  1
 Ti  Ti2  1  0.00000  0.50000  0.00000  1
 Ti  Ti3  1  0.67486  0.17486  0.50000  1
 Ti  Ti4  1  0.17486  0.32514  0.50000  1
 Ti  Ti5  1  0.82514  0.67486  0.50000  1
 Ti  Ti6  1  0.32514  0.82514  0.50000  1
