CIF file written using JARVIS-Tools package.
data_Ho2Ge2Os
_symmetry_space_group_name_H-M  'C2/m'
_cell_length_a       4.2823
_cell_length_b       5.7735
_cell_length_c       9.19823
_cell_angle_alpha    81.2537
_cell_angle_beta     76.5393
_cell_angle_gamma    68.2314

_symmetry_Int_Tables_number  12
_chemical_formula_structural  Ho2Ge2Os
_chemical_formula_sum  Ho4Ge4Os2
_cell_volume  204.85243514250791
_cell_formula_units_Z  2
loop_
  _symmetry_equiv_pos_site_id
 _symmetry_equiv_pos_as_xyz
 1  'x, y, z'
loop_
 _atom_site_type_symbol
 _atom_site_label
 _atom_site_symmetry_multiplicity
 _atom_site_fract_x
 _atom_site_fract_y
 _atom_site_fract_z
 _atom_site_fract_occupancy
 Ge  Ge1  1  0.48344  0.15602  0.87709  1
 Ge  Ge2  1  0.35798  0.72294  0.56110  1
 Ge  Ge3  1  0.51656  0.84398  0.12291  1
 Ge  Ge4  1  0.64202  0.27706  0.43890  1
 Ho  Ho1  1  0.81641  0.25155  0.11564  1
 Ho  Ho2  1  0.00386  0.66715  0.32513  1
 Ho  Ho3  1  0.18359  0.74845  0.88436  1
 Ho  Ho4  1  0.99614  0.33285  0.67487  1
 Os  Os1  1  0.72912  0.90649  0.63527  1
 Os  Os2  1  0.27088  0.09351  0.36473  1
