CIF file written using JARVIS-Tools package.
data_NaPr2IrO6
_symmetry_space_group_name_H-M  'P2_1/c'
_cell_length_a       5.55194
_cell_length_b       6.00703
_cell_length_c       9.66777
_cell_angle_alpha    90
_cell_angle_beta     124.197
_cell_angle_gamma    90

_symmetry_Int_Tables_number  14
_chemical_formula_structural  NaPr2IrO6
_chemical_formula_sum  Na2Pr4Ir2O2
_cell_volume  266.68281613585486
_cell_formula_units_Z  2
loop_
  _symmetry_equiv_pos_site_id
 _symmetry_equiv_pos_as_xyz
 1  'x, y, z'
loop_
 _atom_site_type_symbol
 _atom_site_label
 _atom_site_symmetry_multiplicity
 _atom_site_fract_x
 _atom_site_fract_y
 _atom_site_fract_z
 _atom_site_fract_occupancy
 Ir  Ir1  1  0.50000  0.00000  0.50000  1
 Ir  Ir2  1  0.50000  0.50000  0.00000  1
 Na  Na1  1  -0.00000  0.50000  0.50000  1
 Na  Na2  1  0.00000  0.00000  0.00000  1
 O  O1  1  0.72849  0.71676  0.56294  1
 O  O2  1  0.15305  0.67635  0.94904  1
 O  O3  1  0.27151  0.28324  0.43706  1
 O  O4  1  0.72849  0.78324  0.06294  1
 O  O5  1  0.27151  0.21676  0.93706  1
 O  O6  1  0.37951  0.54280  0.76548  1
 O  O7  1  0.37951  0.95720  0.26548  1
 O  O8  1  0.84695  0.32365  0.05096  1
 O  O9  1  0.62049  0.04280  0.73452  1
 O  O10  1  0.15305  0.82365  0.44904  1
 O  O11  1  0.62049  0.45720  0.23452  1
 O  O12  1  0.84695  0.17635  0.55096  1
 Pr  Pr1  1  0.22626  0.57447  0.24777  1
 Pr  Pr2  1  0.22626  0.92553  0.74777  1
 Pr  Pr3  1  0.77374  0.07447  0.25223  1
 Pr  Pr4  1  0.77374  0.42553  0.75223  1
