CIF file written using JARVIS-Tools package.
data_Fe2N
_symmetry_space_group_name_H-M  'Pbcn'
_cell_length_a       4.33356
_cell_length_b       4.73625
_cell_length_c       5.44804
_cell_angle_alpha    90
_cell_angle_beta     90
_cell_angle_gamma    90

_symmetry_Int_Tables_number  60
_chemical_formula_structural  Fe2N
_chemical_formula_sum  Fe8N4
_cell_volume  111.82012727456673
_cell_formula_units_Z  4
loop_
  _symmetry_equiv_pos_site_id
 _symmetry_equiv_pos_as_xyz
 1  'x, y, z'
loop_
 _atom_site_type_symbol
 _atom_site_label
 _atom_site_symmetry_multiplicity
 _atom_site_fract_x
 _atom_site_fract_y
 _atom_site_fract_z
 _atom_site_fract_occupancy
 Fe  Fe1  1  0.25118  0.08468  0.87555  1
 Fe  Fe2  1  0.75118  0.91532  0.62445  1
 Fe  Fe3  1  0.24882  0.58468  0.62445  1
 Fe  Fe4  1  0.74882  0.41532  0.87555  1
 Fe  Fe5  1  0.25118  0.58468  0.12445  1
 Fe  Fe6  1  0.75118  0.41532  0.37555  1
 Fe  Fe7  1  0.24882  0.08468  0.37555  1
 Fe  Fe8  1  0.74882  0.91532  0.12445  1
 N  N1  1  0.50000  0.75000  0.86387  1
 N  N2  1  0.00000  0.25000  0.63613  1
 N  N3  1  0.50000  0.25000  0.13613  1
 N  N4  1  0.00000  0.75000  0.36387  1
