CIF file written using JARVIS-Tools package.
data_ReN2
_symmetry_space_group_name_H-M  'Pc'
_cell_length_a       2.92386
_cell_length_b       4.80924
_cell_length_c       5.61987
_cell_angle_alpha    90
_cell_angle_beta     120.74
_cell_angle_gamma    90

_symmetry_Int_Tables_number  7
_chemical_formula_structural  ReN2
_chemical_formula_sum  Re2N4
_cell_volume  67.92064899743617
_cell_formula_units_Z  2
loop_
  _symmetry_equiv_pos_site_id
 _symmetry_equiv_pos_as_xyz
 1  'x, y, z'
loop_
 _atom_site_type_symbol
 _atom_site_label
 _atom_site_symmetry_multiplicity
 _atom_site_fract_x
 _atom_site_fract_y
 _atom_site_fract_z
 _atom_site_fract_occupancy
 N  N1  1  0.91651  0.95857  0.20419  1
 N  N2  1  0.91651  0.04143  0.70419  1
 N  N3  1  0.49265  0.45534  0.29440  1
 N  N4  1  0.49265  0.54466  0.79440  1
 Re  Re1  1  0.12083  0.75055  0.99041  1
 Re  Re2  1  0.12083  0.24945  0.49041  1
