CIF file written using JARVIS-Tools package.
data_Mn3Al9Si
_symmetry_space_group_name_H-M  'P6_3/mmc'
_cell_length_a       7.49736
_cell_length_b       7.49736
_cell_length_c       7.67947
_cell_angle_alpha    90
_cell_angle_beta     90
_cell_angle_gamma    120

_symmetry_Int_Tables_number  194
_chemical_formula_structural  Mn3Al9Si
_chemical_formula_sum  Mn6Al8Si2
_cell_volume  373.83356718469565
_cell_formula_units_Z  2
loop_
  _symmetry_equiv_pos_site_id
 _symmetry_equiv_pos_as_xyz
 1  'x, y, z'
loop_
 _atom_site_type_symbol
 _atom_site_label
 _atom_site_symmetry_multiplicity
 _atom_site_fract_x
 _atom_site_fract_y
 _atom_site_fract_z
 _atom_site_fract_occupancy
 Al  Al1  1  0.54207  0.08413  0.75000  1
 Al  Al2  1  0.45793  0.91587  0.25000  1
 Al  Al3  1  0.80158  0.60316  0.06453  1
 Al  Al4  1  0.45793  0.54207  0.25000  1
 Al  Al5  1  0.60316  0.80158  0.56453  1
 Al  Al6  1  0.19842  0.39684  0.93547  1
 Al  Al7  1  0.08413  0.54207  0.25000  1
 Al  Al8  1  0.39684  0.19842  0.43547  1
 Al  Al9  1  0.60316  0.80158  0.93547  1
 Al  Al10  1  0.19842  0.80158  0.93547  1
 Al  Al11  1  0.80158  0.60316  0.43547  1
 Al  Al12  1  0.19842  0.39684  0.56453  1
 Al  Al13  1  0.19842  0.80158  0.56453  1
 Al  Al14  1  0.80158  0.19842  0.06453  1
 Al  Al15  1  0.80158  0.19842  0.43547  1
 Al  Al16  1  0.91587  0.45793  0.75000  1
 Al  Al17  1  0.54207  0.45793  0.75000  1
 Al  Al18  1  0.39684  0.19842  0.06453  1
 Mn  Mn1  1  0.75687  0.87843  0.25000  1
 Mn  Mn2  1  0.12157  0.24313  0.25000  1
 Mn  Mn3  1  0.87843  0.12157  0.75000  1
 Mn  Mn4  1  0.24313  0.12157  0.75000  1
 Mn  Mn5  1  0.87843  0.75687  0.75000  1
 Mn  Mn6  1  0.12157  0.87843  0.25000  1
 Si  Si1  1  0.00000  0.00000  0.00000  1
 Si  Si2  1  0.00000  0.00000  0.50000  1
