CIF file written using JARVIS-Tools package.
data_Na3FeS3
_symmetry_space_group_name_H-M  'P2_1/c'
_cell_length_a       7.06096
_cell_length_b       6.83283
_cell_length_c       14.2173
_cell_angle_alpha    90
_cell_angle_beta     118.892
_cell_angle_gamma    90

_symmetry_Int_Tables_number  14
_chemical_formula_structural  Na3FeS3
_chemical_formula_sum  Na2Fe4S2
_cell_volume  600.5572113338185
_cell_formula_units_Z  4
loop_
  _symmetry_equiv_pos_site_id
 _symmetry_equiv_pos_as_xyz
 1  'x, y, z'
loop_
 _atom_site_type_symbol
 _atom_site_label
 _atom_site_symmetry_multiplicity
 _atom_site_fract_x
 _atom_site_fract_y
 _atom_site_fract_z
 _atom_site_fract_occupancy
 Fe  Fe1  1  0.50067  0.12438  0.92420  1
 Fe  Fe2  1  0.49933  0.62438  0.57580  1
 Fe  Fe3  1  0.50067  0.37562  0.42420  1
 Fe  Fe4  1  0.49933  0.87562  0.07580  1
 Na  Na1  1  0.87416  0.98235  0.59178  1
 Na  Na2  1  0.50625  0.50813  0.78027  1
 Na  Na3  1  0.12584  0.48235  0.90822  1
 Na  Na4  1  0.49375  0.00813  0.71973  1
 Na  Na5  1  0.04362  0.52003  0.38441  1
 Na  Na6  1  0.50625  0.99187  0.28027  1
 Na  Na7  1  0.95638  0.02003  0.11559  1
 Na  Na8  1  0.12584  0.01765  0.40822  1
 Na  Na9  1  0.49375  0.49187  0.21973  1
 Na  Na10  1  0.95638  0.47997  0.61559  1
 Na  Na11  1  0.04362  0.97997  0.88441  1
 Na  Na12  1  0.87416  0.51765  0.09178  1
 S  S1  1  0.20279  0.28222  0.27530  1
 S  S2  1  0.49173  0.29198  0.57495  1
 S  S3  1  0.79721  0.78222  0.22470  1
 S  S4  1  0.79753  0.24333  0.92634  1
 S  S5  1  0.49173  0.20802  0.07495  1
 S  S6  1  0.50827  0.79198  0.92505  1
 S  S7  1  0.79721  0.71778  0.72470  1
 S  S8  1  0.20279  0.21778  0.77530  1
 S  S9  1  0.20247  0.75667  0.07366  1
 S  S10  1  0.79753  0.25667  0.42634  1
 S  S11  1  0.50827  0.70802  0.42505  1
 S  S12  1  0.20247  0.74333  0.57366  1
