CIF file written using JARVIS-Tools package.
data_CrCdTe2
_symmetry_space_group_name_H-M  'P-4m2'
_cell_length_a       4.54214
_cell_length_b       4.54214
_cell_length_c       6.35796
_cell_angle_alpha    90
_cell_angle_beta     90
_cell_angle_gamma    90

_symmetry_Int_Tables_number  115
_chemical_formula_structural  CrCdTe2
_chemical_formula_sum  CrCdTe2
_cell_volume  131.171511306374
_cell_formula_units_Z  1
loop_
  _symmetry_equiv_pos_site_id
 _symmetry_equiv_pos_as_xyz
 1  'x, y, z'
loop_
 _atom_site_type_symbol
 _atom_site_label
 _atom_site_symmetry_multiplicity
 _atom_site_fract_x
 _atom_site_fract_y
 _atom_site_fract_z
 _atom_site_fract_occupancy
 Cd  Cd1  1  0.50000  0.50000  0.50000  1
 Cr  Cr1  1  0.00000  0.00000  0.00000  1
 Te  Te1  1  0.50000  0.00000  0.77155  1
 Te  Te2  1  0.00000  0.50000  0.22845  1
