CIF file written using JARVIS-Tools package.
data_K2Li14Zr3O14
_symmetry_space_group_name_H-M  'Immm'
_cell_length_a       7.26995
_cell_length_b       7.79089
_cell_length_c       8.22072
_cell_angle_alpha    118.285
_cell_angle_beta     116.243
_cell_angle_gamma    90

_symmetry_Int_Tables_number  71
_chemical_formula_structural  K2Li14Zr3O14
_chemical_formula_sum  K2Li4Zr3O4
_cell_volume  354.5856124097283
_cell_formula_units_Z  1
loop_
  _symmetry_equiv_pos_site_id
 _symmetry_equiv_pos_as_xyz
 1  'x, y, z'
loop_
 _atom_site_type_symbol
 _atom_site_label
 _atom_site_symmetry_multiplicity
 _atom_site_fract_x
 _atom_site_fract_y
 _atom_site_fract_z
 _atom_site_fract_occupancy
 K  K1  1  0.76409  0.50000  0.00000  1
 K  K2  1  0.23591  0.50000  -0.00000  1
 Li  Li1  1  0.22922  0.58762  0.45845  1
 Li  Li2  1  0.77078  0.41238  0.54155  1
 Li  Li3  1  0.86251  0.97613  0.27051  1
 Li  Li4  1  0.59200  0.02387  0.72949  1
 Li  Li5  1  0.13749  0.02387  0.72949  1
 Li  Li6  1  0.50000  0.84573  0.00000  1
 Li  Li7  1  0.40800  0.29438  0.27051  1
 Li  Li8  1  0.13749  0.70562  0.72949  1
 Li  Li9  1  0.22922  0.87083  0.45845  1
 Li  Li10  1  0.77078  0.12917  0.54155  1
 Li  Li11  1  0.59200  0.70562  0.72949  1
 Li  Li12  1  0.86251  0.29438  0.27051  1
 Li  Li13  1  0.40800  0.97613  0.27051  1
 Li  Li14  1  0.50000  0.15427  -0.00000  1
 O  O1  1  0.28847  -0.00000  -0.00000  1
 O  O2  1  0.87223  0.05344  0.74446  1
 O  O3  1  0.62851  0.41888  0.25702  1
 O  O4  1  0.12777  0.94656  0.25554  1
 O  O5  1  0.12777  0.30898  0.25554  1
 O  O6  1  0.87223  0.69102  0.74446  1
 O  O7  1  0.71153  0.00000  0.00000  1
 O  O8  1  0.62851  0.83813  0.25702  1
 O  O9  1  0.96757  0.25434  0.50869  1
 O  O10  1  0.54112  0.25434  0.50869  1
 O  O11  1  0.03243  0.74566  0.49131  1
 O  O12  1  0.37149  0.16187  0.74298  1
 O  O13  1  0.37149  0.58112  0.74298  1
 O  O14  1  0.45888  0.74566  0.49131  1
 Zr  Zr1  1  0.27247  0.27247  0.54494  1
 Zr  Zr2  1  0.72753  0.72753  0.45506  1
 Zr  Zr3  1  0.00000  0.00000  0.00000  1
