CIF file written using JARVIS-Tools package.
data_Er3Al2Ni6
_symmetry_space_group_name_H-M  'Im-3m'
_cell_length_a       7.6772
_cell_length_b       7.6772
_cell_length_c       7.6772
_cell_angle_alpha    109.471
_cell_angle_beta     109.471
_cell_angle_gamma    109.471

_symmetry_Int_Tables_number  229
_chemical_formula_structural  Er3Al2Ni6
_chemical_formula_sum  Er6Al4Ni2
_cell_volume  348.32611911306765
_cell_formula_units_Z  2
loop_
  _symmetry_equiv_pos_site_id
 _symmetry_equiv_pos_as_xyz
 1  'x, y, z'
loop_
 _atom_site_type_symbol
 _atom_site_label
 _atom_site_symmetry_multiplicity
 _atom_site_fract_x
 _atom_site_fract_y
 _atom_site_fract_z
 _atom_site_fract_occupancy
 Al  Al1  1  0.50000  0.50000  0.50000  1
 Al  Al2  1  0.00000  0.00000  0.50000  1
 Al  Al3  1  -0.00000  0.50000  0.00000  1
 Al  Al4  1  0.50000  0.00000  0.00000  1
 Er  Er1  1  0.29374  -0.00000  0.29374  1
 Er  Er2  1  0.70626  0.70626  0.00000  1
 Er  Er3  1  0.29374  0.29374  -0.00000  1
 Er  Er4  1  0.00000  0.70626  0.70626  1
 Er  Er5  1  -0.00000  0.29374  0.29374  1
 Er  Er6  1  0.70626  0.00000  0.70626  1
 Ni  Ni1  1  0.33437  0.66563  0.00000  1
 Ni  Ni2  1  -0.00000  0.33437  0.66563  1
 Ni  Ni3  1  0.66563  0.33437  -0.00000  1
 Ni  Ni4  1  0.00000  0.66563  0.33437  1
 Ni  Ni5  1  0.66563  0.33126  0.66563  1
 Ni  Ni6  1  0.66563  0.00000  0.33437  1
 Ni  Ni7  1  0.66874  0.33437  0.33437  1
 Ni  Ni8  1  0.33437  0.33437  0.66874  1
 Ni  Ni9  1  0.33437  -0.00000  0.66563  1
 Ni  Ni10  1  0.33437  0.66874  0.33437  1
 Ni  Ni11  1  0.66563  0.66563  0.33126  1
 Ni  Ni12  1  0.33126  0.66563  0.66563  1
