CIF file written using JARVIS-Tools package.
data_CSO
_symmetry_space_group_name_H-M  'R3m'
_cell_length_a       5.21603
_cell_length_b       3.98887
_cell_length_c       3.98867
_cell_angle_alpha    98.2727
_cell_angle_beta     130.833
_cell_angle_gamma    77.2853

_symmetry_Int_Tables_number  160
_chemical_formula_structural  CSO
_chemical_formula_sum  CSO
_cell_volume  61.25092335115421
_cell_formula_units_Z  1
loop_
  _symmetry_equiv_pos_site_id
 _symmetry_equiv_pos_as_xyz
 1  'x, y, z'
loop_
 _atom_site_type_symbol
 _atom_site_label
 _atom_site_symmetry_multiplicity
 _atom_site_fract_x
 _atom_site_fract_y
 _atom_site_fract_z
 _atom_site_fract_occupancy
 C  C1  1  0.41946  0.24947  0.00057  1
 O  O1  1  0.21779  0.45085  0.00056  1
 S  S1  1  0.68630  0.98296  0.00058  1
