CIF file written using JARVIS-Tools package.
data_NdSnPd
_symmetry_space_group_name_H-M  'Pnma'
_cell_length_a       4.72029
_cell_length_b       7.49622
_cell_length_c       8.02389
_cell_angle_alpha    90
_cell_angle_beta     90
_cell_angle_gamma    90

_symmetry_Int_Tables_number  62
_chemical_formula_structural  NdSnPd
_chemical_formula_sum  Nd4Sn4Pd4
_cell_volume  283.9201723354201
_cell_formula_units_Z  4
loop_
  _symmetry_equiv_pos_site_id
 _symmetry_equiv_pos_as_xyz
 1  'x, y, z'
loop_
 _atom_site_type_symbol
 _atom_site_label
 _atom_site_symmetry_multiplicity
 _atom_site_fract_x
 _atom_site_fract_y
 _atom_site_fract_z
 _atom_site_fract_occupancy
 Nd  Nd1  1  0.25000  0.48874  0.70280  1
 Nd  Nd2  1  0.75000  0.51126  0.29720  1
 Nd  Nd3  1  0.25000  0.98874  0.79720  1
 Nd  Nd4  1  0.75000  0.01126  0.20280  1
 Pd  Pd1  1  0.75000  0.29843  0.91609  1
 Pd  Pd2  1  0.25000  0.20157  0.41609  1
 Pd  Pd3  1  0.75000  0.79843  0.58391  1
 Pd  Pd4  1  0.25000  0.70157  0.08391  1
 Sn  Sn1  1  0.25000  0.80972  0.41220  1
 Sn  Sn2  1  0.75000  0.69028  0.91220  1
 Sn  Sn3  1  0.25000  0.30972  0.08780  1
 Sn  Sn4  1  0.75000  0.19028  0.58780  1
