CIF file written using JARVIS-Tools package.
data_Lu2Co3Si5
_symmetry_space_group_name_H-M  'C2/c'
_cell_length_a       5.45555
_cell_length_b       7.78838
_cell_length_c       7.78837
_cell_angle_alpha    93.4818
_cell_angle_beta     109.061
_cell_angle_gamma    109.061

_symmetry_Int_Tables_number  15
_chemical_formula_structural  Lu2Co3Si5
_chemical_formula_sum  Lu4Co6Si0
_cell_volume  290.3989519260696
_cell_formula_units_Z  2
loop_
  _symmetry_equiv_pos_site_id
 _symmetry_equiv_pos_as_xyz
 1  'x, y, z'
loop_
 _atom_site_type_symbol
 _atom_site_label
 _atom_site_symmetry_multiplicity
 _atom_site_fract_x
 _atom_site_fract_y
 _atom_site_fract_z
 _atom_site_fract_occupancy
 Co  Co1  1  0.75000  0.99637  0.00363  1
 Co  Co2  1  0.62601  0.73961  0.46083  1
 Co  Co3  1  0.12601  0.46083  0.73961  1
 Co  Co4  1  0.37399  0.26039  0.53917  1
 Co  Co5  1  0.87399  0.53917  0.26039  1
 Co  Co6  1  0.25000  0.00363  0.99637  1
 Lu  Lu1  1  0.23366  0.87033  0.59440  1
 Lu  Lu2  1  0.73366  0.59440  0.87033  1
 Lu  Lu3  1  0.76634  0.12967  0.40560  1
 Lu  Lu4  1  0.26634  0.40560  0.12967  1
 Si  Si1  1  0.83205  0.93215  0.73702  1
 Si  Si2  1  0.25000  0.77157  0.22843  1
 Si  Si3  1  0.66795  0.26298  0.06785  1
 Si  Si4  1  0.16795  0.06785  0.26298  1
 Si  Si5  1  0.75000  0.78651  0.21349  1
 Si  Si6  1  0.25000  0.21349  0.78651  1
 Si  Si7  1  0.75000  0.48873  0.51127  1
 Si  Si8  1  0.25000  0.51127  0.48873  1
 Si  Si9  1  0.75000  0.22843  0.77157  1
 Si  Si10  1  0.33205  0.73702  0.93215  1
