CIF file written using JARVIS-Tools package.
data_Na2CoP2O7
_symmetry_space_group_name_H-M  'P-42_1m'
_cell_length_a       7.81143
_cell_length_b       7.81143
_cell_length_c       5.04684
_cell_angle_alpha    90
_cell_angle_beta     90
_cell_angle_gamma    90

_symmetry_Int_Tables_number  113
_chemical_formula_structural  Na2CoP2O7
_chemical_formula_sum  Na4Co2P4O4
_cell_volume  307.9504995334627
_cell_formula_units_Z  2
loop_
  _symmetry_equiv_pos_site_id
 _symmetry_equiv_pos_as_xyz
 1  'x, y, z'
loop_
 _atom_site_type_symbol
 _atom_site_label
 _atom_site_symmetry_multiplicity
 _atom_site_fract_x
 _atom_site_fract_y
 _atom_site_fract_z
 _atom_site_fract_occupancy
 Co  Co1  1  0.50000  0.50000  0.00000  1
 Co  Co2  1  0.00000  0.00000  0.00000  1
 Na  Na1  1  0.83259  0.66741  0.49401  1
 Na  Na2  1  0.66741  0.16741  0.50599  1
 Na  Na3  1  0.16741  0.33259  0.49401  1
 Na  Na4  1  0.33259  0.83259  0.50599  1
 O  O1  1  0.00000  0.50000  0.81508  1
 O  O2  1  0.41998  0.30545  0.21108  1
 O  O3  1  0.64011  0.85989  0.77483  1
 O  O4  1  0.85989  0.35989  0.22517  1
 O  O5  1  0.35989  0.14011  0.77483  1
 O  O6  1  0.50000  0.00000  0.18492  1
 O  O7  1  0.30545  0.58002  0.78892  1
 O  O8  1  0.19455  0.08002  0.21108  1
 O  O9  1  0.58002  0.69455  0.21108  1
 O  O10  1  0.80545  0.91998  0.21108  1
 O  O11  1  0.14011  0.64011  0.22517  1
 O  O12  1  0.91998  0.19455  0.78892  1
 O  O13  1  0.69455  0.41998  0.78892  1
 O  O14  1  0.08002  0.80545  0.78892  1
 P  P1  1  0.13904  0.63904  0.92730  1
 P  P2  1  0.36096  0.13904  0.07270  1
 P  P3  1  0.86096  0.36096  0.92730  1
 P  P4  1  0.63904  0.86096  0.07270  1
