CIF file written using JARVIS-Tools package.
data_Sc2InNi2
_symmetry_space_group_name_H-M  'P4/mbm'
_cell_length_a       7.1694
_cell_length_b       7.1694
_cell_length_c       3.31986
_cell_angle_alpha    90
_cell_angle_beta     90
_cell_angle_gamma    90

_symmetry_Int_Tables_number  127
_chemical_formula_structural  Sc2InNi2
_chemical_formula_sum  Sc4In2Ni4
_cell_volume  170.64190930191455
_cell_formula_units_Z  2
loop_
  _symmetry_equiv_pos_site_id
 _symmetry_equiv_pos_as_xyz
 1  'x, y, z'
loop_
 _atom_site_type_symbol
 _atom_site_label
 _atom_site_symmetry_multiplicity
 _atom_site_fract_x
 _atom_site_fract_y
 _atom_site_fract_z
 _atom_site_fract_occupancy
 In  In1  1  0.00000  0.00000  0.00000  1
 In  In2  1  0.50000  0.50000  0.00000  1
 Ni  Ni1  1  0.87618  0.37618  0.00000  1
 Ni  Ni2  1  0.37618  0.12382  0.00000  1
 Ni  Ni3  1  0.62382  0.87618  0.00000  1
 Ni  Ni4  1  0.12382  0.62382  0.00000  1
 Sc  Sc1  1  0.67001  0.17001  0.50000  1
 Sc  Sc2  1  0.17001  0.32999  0.50000  1
 Sc  Sc3  1  0.82999  0.67001  0.50000  1
 Sc  Sc4  1  0.32999  0.82999  0.50000  1
