CIF file written using JARVIS-Tools package.
data_Nb2Co12P7
_symmetry_space_group_name_H-M  'P-6'
_cell_length_a       8.86472
_cell_length_b       8.86472
_cell_length_c       3.53648
_cell_angle_alpha    90
_cell_angle_beta     90
_cell_angle_gamma    120

_symmetry_Int_Tables_number  174
_chemical_formula_structural  Nb2Co12P7
_chemical_formula_sum  Nb2Co2P7
_cell_volume  240.6752033919809
_cell_formula_units_Z  1
loop_
  _symmetry_equiv_pos_site_id
 _symmetry_equiv_pos_as_xyz
 1  'x, y, z'
loop_
 _atom_site_type_symbol
 _atom_site_label
 _atom_site_symmetry_multiplicity
 _atom_site_fract_x
 _atom_site_fract_y
 _atom_site_fract_z
 _atom_site_fract_occupancy
 Co  Co1  1  0.11818  0.83630  0.00000  1
 Co  Co2  1  0.21564  0.08870  0.50000  1
 Co  Co3  1  0.71811  0.88182  0.00000  1
 Co  Co4  1  0.38955  0.44081  0.50000  1
 Co  Co5  1  0.93436  0.37576  0.00000  1
 Co  Co6  1  0.62424  0.55860  0.00000  1
 Co  Co7  1  0.87306  0.78436  0.50000  1
 Co  Co8  1  0.44140  0.06564  0.00000  1
 Co  Co9  1  0.91130  0.12694  0.50000  1
 Co  Co10  1  0.05126  0.61045  0.50000  1
 Co  Co11  1  0.16370  0.28189  0.00000  1
 Co  Co12  1  0.55919  0.94874  0.50000  1
 Nb  Nb1  1  0.66667  0.33333  0.50000  1
 Nb  Nb2  1  0.33333  0.66667  0.00000  1
 P  P1  1  0.11900  0.40631  0.50000  1
 P  P2  1  0.00000  0.00000  0.00000  1
 P  P3  1  0.28732  0.88100  0.50000  1
 P  P4  1  0.87923  0.58921  0.00000  1
 P  P5  1  0.41079  0.29002  0.00000  1
 P  P6  1  0.70998  0.12077  0.00000  1
 P  P7  1  0.59369  0.71268  0.50000  1
