CIF file written using JARVIS-Tools package.
data_NaNbO3
_symmetry_space_group_name_H-M  'Pbcm'
_cell_length_a       5.55906
_cell_length_b       5.64184
_cell_length_c       15.6489
_cell_angle_alpha    90
_cell_angle_beta     90
_cell_angle_gamma    90

_symmetry_Int_Tables_number  57
_chemical_formula_structural  NaNbO3
_chemical_formula_sum  Na8Nb8O24
_cell_volume  490.8024122126223
_cell_formula_units_Z  8
loop_
  _symmetry_equiv_pos_site_id
 _symmetry_equiv_pos_as_xyz
 1  'x, y, z'
loop_
 _atom_site_type_symbol
 _atom_site_label
 _atom_site_symmetry_multiplicity
 _atom_site_fract_x
 _atom_site_fract_y
 _atom_site_fract_z
 _atom_site_fract_occupancy
 Na  Na1  1  0.25736  0.25000  0.00000  1
 Na  Na2  1  0.74264  0.75000  0.50000  1
 Na  Na3  1  0.74264  0.75000  0.00000  1
 Na  Na4  1  0.25736  0.25000  0.50000  1
 Na  Na5  1  0.25949  0.20380  0.25000  1
 Na  Na6  1  0.25949  0.29620  0.75000  1
 Na  Na7  1  0.74051  0.70380  0.25000  1
 Na  Na8  1  0.74051  0.79620  0.75000  1
 Nb  Nb1  1  0.75601  0.27414  0.62527  1
 Nb  Nb2  1  0.24399  0.72586  0.12527  1
 Nb  Nb3  1  0.75601  0.22586  0.37473  1
 Nb  Nb4  1  0.24399  0.77414  0.87473  1
 Nb  Nb5  1  0.75601  0.27414  0.87473  1
 Nb  Nb6  1  0.24399  0.77414  0.62527  1
 Nb  Nb7  1  0.24399  0.72586  0.37473  1
 Nb  Nb8  1  0.75601  0.22586  0.12527  1
 O  O1  1  0.45585  0.03687  0.64433  1
 O  O2  1  0.04400  0.04667  0.39340  1
 O  O3  1  0.04400  0.45333  0.60660  1
 O  O4  1  0.95600  0.54667  0.10660  1
 O  O5  1  0.82471  0.27718  0.25000  1
 O  O6  1  0.95600  0.95333  0.60660  1
 O  O7  1  0.95600  0.54667  0.39340  1
 O  O8  1  0.04400  0.45333  0.89340  1
 O  O9  1  0.04400  0.04667  0.10660  1
 O  O10  1  0.45585  0.46313  0.35567  1
 O  O11  1  0.95600  0.95333  0.89340  1
 O  O12  1  0.67757  0.25000  0.50000  1
 O  O13  1  0.54415  0.96313  0.35567  1
 O  O14  1  0.45585  0.03687  0.85567  1
 O  O15  1  0.45585  0.46313  0.14433  1
 O  O16  1  0.67757  0.25000  0.00000  1
 O  O17  1  0.32243  0.75000  0.50000  1
 O  O18  1  0.32243  0.75000  0.00000  1
 O  O19  1  0.54415  0.96313  0.14433  1
 O  O20  1  0.17529  0.77718  0.25000  1
 O  O21  1  0.17529  0.72282  0.75000  1
 O  O22  1  0.54415  0.53687  0.64433  1
 O  O23  1  0.54415  0.53687  0.85567  1
 O  O24  1  0.82471  0.22282  0.75000  1
