CIF file written using JARVIS-Tools package.
data_UAl8Cr4
_symmetry_space_group_name_H-M  'I4/mmm'
_cell_length_a       5.01824
_cell_length_b       6.77885
_cell_length_c       6.77885
_cell_angle_alpha    82.1255
_cell_angle_beta     68.2757
_cell_angle_gamma    68.2758

_symmetry_Int_Tables_number  139
_chemical_formula_structural  UAl8Cr4
_chemical_formula_sum  UAl8Cr4
_cell_volume  199.00881884157135
_cell_formula_units_Z  1
loop_
  _symmetry_equiv_pos_site_id
 _symmetry_equiv_pos_as_xyz
 1  'x, y, z'
loop_
 _atom_site_type_symbol
 _atom_site_label
 _atom_site_symmetry_multiplicity
 _atom_site_fract_x
 _atom_site_fract_y
 _atom_site_fract_z
 _atom_site_fract_occupancy
 Al  Al1  1  0.34147  0.65853  0.65853  1
 Al  Al2  1  0.00000  0.34147  0.65853  1
 Al  Al3  1  -0.00000  0.65853  0.34147  1
 Al  Al4  1  0.65853  0.34147  0.34147  1
 Al  Al5  1  0.28207  0.21793  0.21793  1
 Al  Al6  1  0.50000  0.78207  0.21793  1
 Al  Al7  1  0.50000  0.21793  0.78207  1
 Al  Al8  1  0.71793  0.78207  0.78207  1
 Cr  Cr1  1  0.50000  0.00000  0.50000  1
 Cr  Cr2  1  0.00000  0.50000  -0.00000  1
 Cr  Cr3  1  0.50000  0.50000  -0.00000  1
 Cr  Cr4  1  -0.00000  0.00000  0.50000  1
 U  U1  1  0.00000  0.00000  0.00000  1
