CIF file written using JARVIS-Tools package.
data_IrN2
_symmetry_space_group_name_H-M  'Cmcm'
_cell_length_a       2.74461
_cell_length_b       3.3086
_cell_length_c       7.43496
_cell_angle_alpha    90
_cell_angle_beta     90
_cell_angle_gamma    114.505

_symmetry_Int_Tables_number  63
_chemical_formula_structural  IrN2
_chemical_formula_sum  Ir2N4
_cell_volume  61.434203188629105
_cell_formula_units_Z  2
loop_
  _symmetry_equiv_pos_site_id
 _symmetry_equiv_pos_as_xyz
 1  'x, y, z'
loop_
 _atom_site_type_symbol
 _atom_site_label
 _atom_site_symmetry_multiplicity
 _atom_site_fract_x
 _atom_site_fract_y
 _atom_site_fract_z
 _atom_site_fract_occupancy
 Ir  Ir1  1  0.72857  0.45713  0.25000  1
 Ir  Ir2  1  0.27143  0.54287  0.75000  1
 N  N1  1  1.00218  1.00436  0.41498  1
 N  N2  1  -0.00218  -0.00436  0.58502  1
 N  N3  1  -0.00218  -0.00436  0.91498  1
 N  N4  1  1.00218  1.00436  0.08502  1
