CIF file written using JARVIS-Tools package.
data_Pm2MgSn
_symmetry_space_group_name_H-M  'Fm-3m'
_cell_length_a       5.39044
_cell_length_b       5.39044
_cell_length_c       5.39044
_cell_angle_alpha    60.0049
_cell_angle_beta     60.0049
_cell_angle_gamma    60.0049

_symmetry_Int_Tables_number  225
_chemical_formula_structural  Pm2MgSn
_chemical_formula_sum  Pm2MgSn
_cell_volume  110.76638305149417
_cell_formula_units_Z  1
loop_
  _symmetry_equiv_pos_site_id
 _symmetry_equiv_pos_as_xyz
 1  'x, y, z'
loop_
 _atom_site_type_symbol
 _atom_site_label
 _atom_site_symmetry_multiplicity
 _atom_site_fract_x
 _atom_site_fract_y
 _atom_site_fract_z
 _atom_site_fract_occupancy
 Mg  Mg1  1  0.24999  0.24999  0.24999  1
 Pm  Pm1  1  0.00001  0.00001  0.00001  1
 Pm  Pm2  1  0.49999  0.49999  0.49999  1
 Sn  Sn1  1  0.75001  0.75001  0.75001  1
