CIF file written using JARVIS-Tools package.
data_CaAl2S4
_symmetry_space_group_name_H-M  'Fddd'
_cell_length_a       11.7199
_cell_length_b       11.7199
_cell_length_c       11.7361
_cell_angle_alpha    105.501
_cell_angle_beta     105.501
_cell_angle_gamma    117.693

_symmetry_Int_Tables_number  70
_chemical_formula_structural  CaAl2S4
_chemical_formula_sum  Ca8Al6S32
_cell_volume  1222.135864812312
_cell_formula_units_Z  8
loop_
  _symmetry_equiv_pos_site_id
 _symmetry_equiv_pos_as_xyz
 1  'x, y, z'
loop_
 _atom_site_type_symbol
 _atom_site_label
 _atom_site_symmetry_multiplicity
 _atom_site_fract_x
 _atom_site_fract_y
 _atom_site_fract_z
 _atom_site_fract_occupancy
 Al  Al1  1  0.11239  0.13522  0.00110  1
 Al  Al2  1  0.38871  0.86588  0.00110  1
 Al  Al3  1  0.46956  0.36152  0.00020  1
 Al  Al4  1  0.86478  0.88761  0.49890  1
 Al  Al5  1  0.13412  0.61129  0.49890  1
 Al  Al6  1  0.61129  0.13412  0.99890  1
 Al  Al7  1  0.13522  0.11239  0.50110  1
 Al  Al8  1  0.86588  0.38871  0.50110  1
 Al  Al9  1  0.53044  0.63848  0.99980  1
 Al  Al10  1  0.63868  0.03064  0.50020  1
 Al  Al11  1  0.36152  0.46956  0.50020  1
 Al  Al12  1  0.96936  0.36132  0.99980  1
 Al  Al13  1  0.88761  0.86478  0.99890  1
 Al  Al14  1  0.36132  0.96936  0.49980  1
 Al  Al15  1  0.63848  0.53044  0.49980  1
 Al  Al16  1  0.03064  0.63868  0.00020  1
 Ca  Ca1  1  0.87500  0.12500  0.25000  1
 Ca  Ca2  1  0.87298  0.62298  0.24595  1
 Ca  Ca3  1  0.37702  0.12702  0.25405  1
 Ca  Ca4  1  0.12702  0.37702  0.75405  1
 Ca  Ca5  1  0.62298  0.87298  0.74595  1
 Ca  Ca6  1  0.62500  0.37500  0.75000  1
 Ca  Ca7  1  0.37500  0.62500  0.25000  1
 Ca  Ca8  1  0.12500  0.87500  0.75000  1
 S  S1  1  0.18548  0.84606  0.00183  1
 S  S2  1  0.68365  0.84423  0.99817  1
 S  S3  1  0.84606  0.18548  0.50183  1
 S  S4  1  0.15577  0.31635  0.50183  1
 S  S5  1  0.41520  0.91545  0.32884  1
 S  S6  1  0.81452  0.15394  0.99817  1
 S  S7  1  0.91586  0.91647  0.83008  1
 S  S8  1  0.58578  0.08639  0.16992  1
 S  S9  1  0.08639  0.58578  0.66992  1
 S  S10  1  0.41422  0.91361  0.83008  1
 S  S11  1  0.08353  0.08414  0.66992  1
 S  S12  1  0.41364  0.41338  0.32884  1
 S  S13  1  0.84423  0.68365  0.49817  1
 S  S14  1  0.08414  0.08353  0.16992  1
 S  S15  1  0.15394  0.81452  0.49817  1
 S  S16  1  0.65252  0.34077  0.99779  1
 S  S17  1  0.08455  0.58480  0.17116  1
 S  S18  1  0.58662  0.58636  0.17116  1
 S  S19  1  0.58636  0.58662  0.67116  1
 S  S20  1  0.65923  0.34748  0.50221  1
 S  S21  1  0.15473  0.34299  0.00221  1
 S  S22  1  0.34077  0.65252  0.49779  1
 S  S23  1  0.34748  0.65923  0.00221  1
 S  S24  1  0.84527  0.65701  0.99779  1
 S  S25  1  0.65701  0.84527  0.49779  1
 S  S26  1  0.34299  0.15473  0.50221  1
 S  S27  1  0.91361  0.41422  0.33008  1
 S  S28  1  0.58480  0.08455  0.67116  1
 S  S29  1  0.41338  0.41364  0.82884  1
 S  S30  1  0.91545  0.41520  0.82884  1
 S  S31  1  0.31635  0.15577  0.00183  1
 S  S32  1  0.91647  0.91586  0.33008  1
