CIF file written using JARVIS-Tools package.
data_PrSb2O6
_symmetry_space_group_name_H-M  'Pmn2_1'
_cell_length_a       5.57335
_cell_length_b       8.04098
_cell_length_c       5.81887
_cell_angle_alpha    90
_cell_angle_beta     89.9998
_cell_angle_gamma    90

_symmetry_Int_Tables_number  31
_chemical_formula_structural  PrSb2O6
_chemical_formula_sum  Pr2Sb4O2
_cell_volume  260.7738812103683
_cell_formula_units_Z  2
loop_
  _symmetry_equiv_pos_site_id
 _symmetry_equiv_pos_as_xyz
 1  'x, y, z'
loop_
 _atom_site_type_symbol
 _atom_site_label
 _atom_site_symmetry_multiplicity
 _atom_site_fract_x
 _atom_site_fract_y
 _atom_site_fract_z
 _atom_site_fract_occupancy
 O  O1  1  0.30347  0.80022  0.69516  1
 O  O2  1  0.90316  -0.00000  0.51981  1
 O  O3  1  0.80348  0.69979  0.80483  1
 O  O4  1  0.21926  0.21583  0.22291  1
 O  O5  1  0.71928  0.28417  0.27711  1
 O  O6  1  0.80348  0.30021  0.80483  1
 O  O7  1  0.56719  -0.00000  0.01872  1
 O  O8  1  0.40316  0.50000  0.98019  1
 O  O9  1  0.06720  0.50000  0.48127  1
 O  O10  1  0.30347  0.19978  0.69516  1
 O  O11  1  0.21926  0.78417  0.22291  1
 O  O12  1  0.71928  0.71583  0.27711  1
 Pr  Pr1  1  0.48312  0.00000  0.43069  1
 Pr  Pr2  1  0.98312  0.50000  0.06931  1
 Sb  Sb1  1  0.49528  0.75117  0.98466  1
 Sb  Sb2  1  0.49528  0.24883  0.98466  1
 Sb  Sb3  1  0.99529  0.25117  0.51533  1
 Sb  Sb4  1  0.99529  0.74883  0.51533  1
