CIF file written using JARVIS-Tools package.
data_BaCaGa4O8
_symmetry_space_group_name_H-M  'Imm2'
_cell_length_a       5.21326
_cell_length_b       6.73304
_cell_length_c       6.73303
_cell_angle_alpha    75.8046
_cell_angle_beta     67.2234
_cell_angle_gamma    67.2233

_symmetry_Int_Tables_number  44
_chemical_formula_structural  BaCaGa4O8
_chemical_formula_sum  BaCaGa4O8
_cell_volume  199.6473350769464
_cell_formula_units_Z  1
loop_
  _symmetry_equiv_pos_site_id
 _symmetry_equiv_pos_as_xyz
 1  'x, y, z'
loop_
 _atom_site_type_symbol
 _atom_site_label
 _atom_site_symmetry_multiplicity
 _atom_site_fract_x
 _atom_site_fract_y
 _atom_site_fract_z
 _atom_site_fract_occupancy
 Ba  Ba1  1  0.98633  0.00000  -0.00000  1
 Ca  Ca1  1  0.06888  0.50000  0.50000  1
 Ga  Ga1  1  0.37308  0.45826  0.87665  1
 Ga  Ga2  1  0.70799  0.12335  0.54174  1
 Ga  Ga3  1  0.70799  0.54174  0.12335  1
 Ga  Ga4  1  0.37308  0.87665  0.45826  1
 O  O1  1  0.73486  0.86784  0.46043  1
 O  O2  1  0.06314  0.13216  0.53957  1
 O  O3  1  0.42660  0.18938  0.81062  1
 O  O4  1  0.42660  0.81062  0.18938  1
 O  O5  1  0.06314  0.53957  0.13216  1
 O  O6  1  0.73486  0.46043  0.86784  1
 O  O7  1  0.58146  0.32551  0.32551  1
 O  O8  1  0.23249  0.67449  0.67449  1
