CIF file written using JARVIS-Tools package.
data_CrAgTe2
_symmetry_space_group_name_H-M  'R3m'
_cell_length_a       4.0811
_cell_length_b       4.08109
_cell_length_c       7.64925
_cell_angle_alpha    74.5282
_cell_angle_beta     74.5282
_cell_angle_gamma    60

_symmetry_Int_Tables_number  160
_chemical_formula_structural  CrAgTe2
_chemical_formula_sum  CrAgTe2
_cell_volume  104.96725793099213
_cell_formula_units_Z  1
loop_
  _symmetry_equiv_pos_site_id
 _symmetry_equiv_pos_as_xyz
 1  'x, y, z'
loop_
 _atom_site_type_symbol
 _atom_site_label
 _atom_site_symmetry_multiplicity
 _atom_site_fract_x
 _atom_site_fract_y
 _atom_site_fract_z
 _atom_site_fract_occupancy
 Ag  Ag1  1  0.14385  0.14385  0.56845  1
 Cr  Cr1  1  0.99848  0.99848  0.00455  1
 Te  Te1  1  0.26737  0.26737  0.19790  1
 Te  Te2  1  0.73430  0.73430  0.79709  1
