CIF file written using JARVIS-Tools package.
data_CuH12I4N4
_symmetry_space_group_name_H-M  'C2/m'
_cell_length_a       8.26259
_cell_length_b       8.26259
_cell_length_c       6.59836
_cell_angle_alpha    58.5294
_cell_angle_beta     121.471
_cell_angle_gamma    116.03

_symmetry_Int_Tables_number  12
_chemical_formula_structural  CuH12I4N4
_chemical_formula_sum  CuH2I4N4
_cell_volume  319.02037241955446
_cell_formula_units_Z  1
loop_
  _symmetry_equiv_pos_site_id
 _symmetry_equiv_pos_as_xyz
 1  'x, y, z'
loop_
 _atom_site_type_symbol
 _atom_site_label
 _atom_site_symmetry_multiplicity
 _atom_site_fract_x
 _atom_site_fract_y
 _atom_site_fract_z
 _atom_site_fract_occupancy
 Cu  Cu1  1  0.50000  0.50000  0.00000  1
 H  H1  1  0.44433  0.12380  0.14885  1
 H  H2  1  0.76363  0.49516  0.89503  1
 H  H3  1  0.23637  0.50484  0.10497  1
 H  H4  1  0.49516  0.76363  0.10497  1
 H  H5  1  0.87620  0.55567  0.14885  1
 H  H6  1  0.50484  0.23637  0.89503  1
 H  H7  1  0.12380  0.44433  0.85115  1
 H  H8  1  0.55567  0.87620  0.85115  1
 H  H9  1  0.79137  0.71932  0.85499  1
 H  H10  1  0.20863  0.28068  0.14501  1
 H  H11  1  0.71932  0.79137  0.14501  1
 H  H12  1  0.28068  0.20863  0.85499  1
 I  I1  1  0.90738  0.09262  0.53530  1
 I  I2  1  0.09262  0.90738  0.46470  1
 I  I3  1  0.69929  0.30071  0.61987  1
 I  I4  1  0.30071  0.69929  0.38013  1
 N  N1  1  0.42530  0.23843  0.97271  1
 N  N2  1  0.23843  0.42530  0.02729  1
 N  N3  1  0.76157  0.57470  0.97271  1
 N  N4  1  0.57470  0.76157  0.02729  1
