CIF file written using JARVIS-Tools package.
data_ZrB
_symmetry_space_group_name_H-M  'P-6m2'
_cell_length_a       3.59607
_cell_length_b       3.59618
_cell_length_c       5.3013
_cell_angle_alpha    90
_cell_angle_beta     90
_cell_angle_gamma    119.999

_symmetry_Int_Tables_number  187
_chemical_formula_structural  ZrB
_chemical_formula_sum  Zr2B2
_cell_volume  59.37269368834691
_cell_formula_units_Z  2
loop_
  _symmetry_equiv_pos_site_id
 _symmetry_equiv_pos_as_xyz
 1  'x, y, z'
loop_
 _atom_site_type_symbol
 _atom_site_label
 _atom_site_symmetry_multiplicity
 _atom_site_fract_x
 _atom_site_fract_y
 _atom_site_fract_z
 _atom_site_fract_occupancy
 B  B1  1  0.35469  0.70939  0.25305  1
 B  B2  1  0.35470  0.70940  0.75775  1
 Zr  Zr1  1  0.02138  0.04276  0.00540  1
 Zr  Zr2  1  0.68803  0.37605  0.50540  1
