CIF file written using JARVIS-Tools package.
data_KRuO4
_symmetry_space_group_name_H-M  'I4_1/a'
_cell_length_a       5.62606
_cell_length_b       5.62607
_cell_length_c       7.4896
_cell_angle_alpha    112.061
_cell_angle_beta     112.061
_cell_angle_gamma    89.9999

_symmetry_Int_Tables_number  88
_chemical_formula_structural  KRuO4
_chemical_formula_sum  K2Ru2O8
_cell_volume  200.85785990992392
_cell_formula_units_Z  2
loop_
  _symmetry_equiv_pos_site_id
 _symmetry_equiv_pos_as_xyz
 1  'x, y, z'
loop_
 _atom_site_type_symbol
 _atom_site_label
 _atom_site_symmetry_multiplicity
 _atom_site_fract_x
 _atom_site_fract_y
 _atom_site_fract_z
 _atom_site_fract_occupancy
 K  K1  1  0.62500  0.87500  0.25000  1
 K  K2  1  0.37500  0.12500  0.75000  1
 O  O1  1  0.27399  0.41637  0.09491  1
 O  O2  1  0.67854  0.77399  0.59491  1
 O  O3  1  0.91637  0.32092  0.59491  1
 O  O4  1  0.82092  0.17854  0.09491  1
 O  O5  1  0.17908  0.82146  0.90509  1
 O  O6  1  0.08363  0.67908  0.40509  1
 O  O7  1  0.32146  0.22601  0.40509  1
 O  O8  1  0.72601  0.58363  0.90509  1
 Ru  Ru1  1  0.12500  0.37500  0.25000  1
 Ru  Ru2  1  0.87500  0.62500  0.75000  1
