CIF file written using JARVIS-Tools package.
data_CaB2Ir2
_symmetry_space_group_name_H-M  'Fddd'
_cell_length_a       5.52339
_cell_length_b       5.52339
_cell_length_c       6.14907
_cell_angle_alpha    105.128
_cell_angle_beta     105.128
_cell_angle_gamma    114.767

_symmetry_Int_Tables_number  70
_chemical_formula_structural  CaB2Ir2
_chemical_formula_sum  Ca2B4Ir4
_cell_volume  149.0433456609154
_cell_formula_units_Z  2
loop_
  _symmetry_equiv_pos_site_id
 _symmetry_equiv_pos_as_xyz
 1  'x, y, z'
loop_
 _atom_site_type_symbol
 _atom_site_label
 _atom_site_symmetry_multiplicity
 _atom_site_fract_x
 _atom_site_fract_y
 _atom_site_fract_z
 _atom_site_fract_occupancy
 B  B1  1  0.55290  0.44710  0.25000  1
 B  B2  1  0.80290  0.19710  0.75000  1
 B  B3  1  0.19710  0.80290  0.25000  1
 B  B4  1  0.44710  0.55290  0.75000  1
 Ca  Ca1  1  0.87500  0.12500  0.25000  1
 Ca  Ca2  1  0.12500  0.87500  0.75000  1
 Ir  Ir1  1  0.50543  0.75543  0.51087  1
 Ir  Ir2  1  0.75543  0.50543  0.01087  1
 Ir  Ir3  1  0.49457  0.24457  0.48913  1
 Ir  Ir4  1  0.24457  0.49457  0.98913  1
