CIF file written using JARVIS-Tools package.
data_BaNi12B6
_symmetry_space_group_name_H-M  'R-3m'
_cell_length_a       6.14133
_cell_length_b       6.14134
_cell_length_c       6.14133
_cell_angle_alpha    104.621
_cell_angle_beta     104.621
_cell_angle_gamma    104.621

_symmetry_Int_Tables_number  166
_chemical_formula_structural  BaNi12B6
_chemical_formula_sum  BaNi2B6
_cell_volume  204.13169771584649
_cell_formula_units_Z  1
loop_
  _symmetry_equiv_pos_site_id
 _symmetry_equiv_pos_as_xyz
 1  'x, y, z'
loop_
 _atom_site_type_symbol
 _atom_site_label
 _atom_site_symmetry_multiplicity
 _atom_site_fract_x
 _atom_site_fract_y
 _atom_site_fract_z
 _atom_site_fract_occupancy
 B  B1  1  0.76951  0.76951  0.35400  1
 B  B2  1  0.23049  0.23049  0.64600  1
 B  B3  1  0.23049  0.64600  0.23049  1
 B  B4  1  0.76951  0.35400  0.76951  1
 B  B5  1  0.35400  0.76951  0.76951  1
 B  B6  1  0.64600  0.23049  0.23049  1
 Ba  Ba1  1  0.00000  0.00000  0.00000  1
 Ni  Ni1  1  0.81204  0.53344  0.53344  1
 Ni  Ni2  1  0.13232  0.86768  0.50000  1
 Ni  Ni3  1  0.53344  0.53344  0.81204  1
 Ni  Ni4  1  0.46656  0.18796  0.46656  1
 Ni  Ni5  1  0.50000  0.13232  0.86768  1
 Ni  Ni6  1  0.86768  0.50000  0.13232  1
 Ni  Ni7  1  0.13232  0.50000  0.86768  1
 Ni  Ni8  1  0.50000  0.86768  0.13232  1
 Ni  Ni9  1  0.86768  0.13232  0.50000  1
 Ni  Ni10  1  0.46656  0.46656  0.18796  1
 Ni  Ni11  1  0.53344  0.81204  0.53344  1
 Ni  Ni12  1  0.18796  0.46656  0.46656  1
