CIF file written using JARVIS-Tools package.
data_CeZr3O8
_symmetry_space_group_name_H-M  'C2/c'
_cell_length_a       7.3897
_cell_length_b       7.39006
_cell_length_c       5.27691
_cell_angle_alpha    89.0923
_cell_angle_beta     90.905
_cell_angle_gamma    89.6097

_symmetry_Int_Tables_number  15
_chemical_formula_structural  CeZr3O8
_chemical_formula_sum  Ce2Zr6O6
_cell_volume  288.0949416144151
_cell_formula_units_Z  2
loop_
  _symmetry_equiv_pos_site_id
 _symmetry_equiv_pos_as_xyz
 1  'x, y, z'
loop_
 _atom_site_type_symbol
 _atom_site_label
 _atom_site_symmetry_multiplicity
 _atom_site_fract_x
 _atom_site_fract_y
 _atom_site_fract_z
 _atom_site_fract_occupancy
 Ce  Ce1  1  0.99527  0.99527  -0.00000  1
 Ce  Ce2  1  0.25473  0.25473  0.50000  1
 O  O1  1  0.24755  0.98050  0.27456  1
 O  O2  1  0.00245  0.26950  0.22544  1
 O  O3  1  0.98050  0.24755  0.72544  1
 O  O4  1  0.48962  0.72124  0.68955  1
 O  O5  1  0.27039  0.52204  0.27425  1
 O  O6  1  0.97960  0.72796  0.22575  1
 O  O7  1  0.26950  0.00245  0.77456  1
 O  O8  1  0.24170  0.49308  0.79179  1
 O  O9  1  0.75692  0.00831  0.29180  1
 O  O10  1  0.49308  0.24170  0.20821  1
 O  O11  1  0.52205  0.27040  0.72576  1
 O  O12  1  0.72795  0.97960  0.77424  1
 O  O13  1  0.72124  0.48962  0.31045  1
 O  O14  1  0.52876  0.76038  0.18955  1
 O  O15  1  0.00831  0.75692  0.70821  1
 O  O16  1  0.76038  0.52876  0.81045  1
 Zr  Zr1  1  0.74258  0.74258  0.50000  1
 Zr  Zr2  1  0.50742  0.50742  -0.00000  1
 Zr  Zr3  1  0.74748  0.24524  0.49740  1
 Zr  Zr4  1  0.50252  0.00476  0.00260  1
 Zr  Zr5  1  0.24524  0.74748  0.50259  1
 Zr  Zr6  1  0.00476  0.50252  0.99741  1
