CIF file written using JARVIS-Tools package.
data_Na2Mg5P4O16
_symmetry_space_group_name_H-M  'P-1'
_cell_length_a       5.18845
_cell_length_b       7.95282
_cell_length_c       8.13843
_cell_angle_alpha    110.435
_cell_angle_beta     90.4328
_cell_angle_gamma    101.968

_symmetry_Int_Tables_number  2
_chemical_formula_structural  Na2Mg5P4O16
_chemical_formula_sum  Na2Mg5P4O6
_cell_volume  306.66887983639316
_cell_formula_units_Z  1
loop_
  _symmetry_equiv_pos_site_id
 _symmetry_equiv_pos_as_xyz
 1  'x, y, z'
loop_
 _atom_site_type_symbol
 _atom_site_label
 _atom_site_symmetry_multiplicity
 _atom_site_fract_x
 _atom_site_fract_y
 _atom_site_fract_z
 _atom_site_fract_occupancy
 Mg  Mg1  1  0.09294  0.25480  0.78104  1
 Mg  Mg2  1  0.63745  0.40671  0.67201  1
 Mg  Mg3  1  0.90706  0.74520  0.21896  1
 Mg  Mg4  1  0.00000  0.00000  0.00000  1
 Mg  Mg5  1  0.36255  0.59329  0.32799  1
 Na  Na1  1  0.43775  0.96614  0.70327  1
 Na  Na2  1  0.56225  0.03386  0.29673  1
 O  O1  1  0.25902  0.83036  0.91266  1
 O  O2  1  0.32730  0.18432  0.56284  1
 O  O3  1  0.88476  0.24480  0.53086  1
 O  O4  1  0.68246  0.78254  0.03040  1
 O  O5  1  0.93059  0.97145  0.73390  1
 O  O6  1  0.06941  0.02855  0.26610  1
 O  O7  1  0.31754  0.21746  0.96960  1
 O  O8  1  0.74098  0.16964  0.08734  1
 O  O9  1  0.24253  0.67367  0.13317  1
 O  O10  1  0.65763  0.49376  0.17668  1
 O  O11  1  0.75747  0.32633  0.86683  1
 O  O12  1  0.67270  0.81568  0.43716  1
 O  O13  1  0.11524  0.75520  0.46914  1
 O  O14  1  0.26492  0.36984  0.37649  1
 O  O15  1  0.34237  0.50624  0.82332  1
 O  O16  1  0.73508  0.63016  0.62351  1
 P  P1  1  0.13146  0.21149  0.42955  1
 P  P2  1  0.86854  0.78851  0.57045  1
 P  P3  1  0.61829  0.30197  0.03070  1
 P  P4  1  0.38171  0.69803  0.96930  1
