CIF file written using JARVIS-Tools package.
data_TaAsO4
_symmetry_space_group_name_H-M  'Cmc2_1'
_cell_length_a       3.91654
_cell_length_b       7.54373
_cell_length_c       5.58577
_cell_angle_alpha    90
_cell_angle_beta     90
_cell_angle_gamma    105.046

_symmetry_Int_Tables_number  36
_chemical_formula_structural  TaAsO4
_chemical_formula_sum  Ta2As2O8
_cell_volume  159.37602333443144
_cell_formula_units_Z  2
loop_
  _symmetry_equiv_pos_site_id
 _symmetry_equiv_pos_as_xyz
 1  'x, y, z'
loop_
 _atom_site_type_symbol
 _atom_site_label
 _atom_site_symmetry_multiplicity
 _atom_site_fract_x
 _atom_site_fract_y
 _atom_site_fract_z
 _atom_site_fract_occupancy
 As  As1  1  0.17701  0.35401  0.29751  1
 As  As2  1  0.82299  0.64599  0.79751  1
 O  O1  1  0.10726  0.21452  0.62500  1
 O  O2  1  0.29343  0.58686  0.39650  1
 O  O3  1  0.32962  0.65924  0.90323  1
 O  O4  1  0.48003  0.96005  0.48913  1
 O  O5  1  0.51997  0.03995  0.98913  1
 O  O6  1  0.67038  0.34076  0.40323  1
 O  O7  1  0.70657  0.41314  0.89650  1
 O  O8  1  0.89274  0.78548  0.12500  1
 Ta  Ta1  1  0.40847  0.81694  0.20383  1
 Ta  Ta2  1  0.59153  0.18306  0.70383  1
