CIF file written using JARVIS-Tools package.
data_NdBiO4
_symmetry_space_group_name_H-M  'C2/c'
_cell_length_a       7.06505
_cell_length_b       7.06505
_cell_length_c       6.83581
_cell_angle_alpha    131.489
_cell_angle_beta     134.424
_cell_angle_gamma    71.4434

_symmetry_Int_Tables_number  15
_chemical_formula_structural  NdBiO4
_chemical_formula_sum  Nd2Bi2O8
_cell_volume  175.65902997840783
_cell_formula_units_Z  2
loop_
  _symmetry_equiv_pos_site_id
 _symmetry_equiv_pos_as_xyz
 1  'x, y, z'
loop_
 _atom_site_type_symbol
 _atom_site_label
 _atom_site_symmetry_multiplicity
 _atom_site_fract_x
 _atom_site_fract_y
 _atom_site_fract_z
 _atom_site_fract_occupancy
 Bi  Bi1  1  0.85057  0.60057  0.25000  1
 Bi  Bi2  1  0.14943  0.39943  0.75000  1
 Nd  Nd1  1  0.38529  0.13529  0.25000  1
 Nd  Nd2  1  0.61471  0.86471  0.75000  1
 O  O1  1  0.71694  0.54837  0.82933  1
 O  O2  1  0.78096  0.11239  0.32933  1
 O  O3  1  0.46316  0.23259  0.74941  1
 O  O4  1  0.01682  0.28625  0.24941  1
 O  O5  1  0.98318  0.71375  0.75059  1
 O  O6  1  0.53684  0.76741  0.25059  1
 O  O7  1  0.21904  0.88761  0.67067  1
 O  O8  1  0.28306  0.45163  0.17067  1
