CIF file written using JARVIS-Tools package.
data_VAgP2Se6
_symmetry_space_group_name_H-M  'C2'
_cell_length_a       6.39821
_cell_length_b       6.4117
_cell_length_c       6.99517
_cell_angle_alpha    81.5304
_cell_angle_beta     72.8311
_cell_angle_gamma    60.0695

_symmetry_Int_Tables_number  5
_chemical_formula_structural  VAgP2Se6
_chemical_formula_sum  VAgP2Se6
_cell_volume  237.61122901312646
_cell_formula_units_Z  1
loop_
  _symmetry_equiv_pos_site_id
 _symmetry_equiv_pos_as_xyz
 1  'x, y, z'
loop_
 _atom_site_type_symbol
 _atom_site_label
 _atom_site_symmetry_multiplicity
 _atom_site_fract_x
 _atom_site_fract_y
 _atom_site_fract_z
 _atom_site_fract_occupancy
 Ag  Ag1  1  0.66586  0.66829  -0.00000  1
 P  P1  1  0.04991  0.00582  0.83329  1
 P  P2  1  0.94428  0.00582  0.16671  1
 Se  Se1  1  0.95291  0.65281  0.25957  1
 Se  Se2  1  0.39428  0.65281  0.74043  1
 Se  Se3  1  0.11546  0.32396  0.74662  1
 Se  Se4  1  0.56059  0.32396  0.25338  1
 Se  Se5  1  0.23390  0.04375  0.25248  1
 Se  Se6  1  0.72235  0.04375  0.74752  1
 V  V1  1  0.32707  0.34585  0.00000  1
