CIF file written using JARVIS-Tools package.
data_Li2CrFeO4
_symmetry_space_group_name_H-M  'C2'
_cell_length_a       4.96776
_cell_length_b       6.45331
_cell_length_c       6.45359
_cell_angle_alpha    83.0897
_cell_angle_beta     82.6312
_cell_angle_gamma    82.6376

_symmetry_Int_Tables_number  5
_chemical_formula_structural  Li2CrFeO4
_chemical_formula_sum  Li6Cr3Fe3O2
_cell_volume  202.35366709511777
_cell_formula_units_Z  3
loop_
  _symmetry_equiv_pos_site_id
 _symmetry_equiv_pos_as_xyz
 1  'x, y, z'
loop_
 _atom_site_type_symbol
 _atom_site_label
 _atom_site_symmetry_multiplicity
 _atom_site_fract_x
 _atom_site_fract_y
 _atom_site_fract_z
 _atom_site_fract_occupancy
 Cr  Cr1  1  0.25002  0.92105  0.57894  1
 Cr  Cr2  1  0.25001  0.58391  0.91607  1
 Cr  Cr3  1  0.75001  0.41374  0.08628  1
 Fe  Fe1  1  0.75004  0.75382  0.74618  1
 Fe  Fe2  1  0.24983  0.24648  0.25350  1
 Fe  Fe3  1  0.75013  0.08130  0.41872  1
 Li  Li1  1  0.49830  0.16391  0.83446  1
 Li  Li2  1  0.50694  0.83614  0.16177  1
 Li  Li3  1  0.99305  0.33824  0.66392  1
 Li  Li4  1  0.00058  -0.00046  0.00320  1
 Li  Li5  1  0.49939  0.49676  0.50044  1
 Li  Li6  1  0.00171  0.66554  0.33609  1
 O  O1  1  0.12174  0.30087  0.97144  1
 O  O2  1  0.62306  0.80464  0.46702  1
 O  O3  1  0.37911  0.86603  0.86198  1
 O  O4  1  0.38405  0.19883  0.52996  1
 O  O5  1  0.61987  0.13349  0.14227  1
 O  O6  1  0.87991  0.35790  0.36662  1
 O  O7  1  0.62313  0.47102  0.80256  1
 O  O8  1  0.87704  0.03300  0.69545  1
 O  O9  1  0.12097  0.63799  0.63396  1
 O  O10  1  0.37820  0.52846  0.19911  1
 O  O11  1  0.87689  0.69747  0.02898  1
 O  O12  1  0.11605  0.96988  0.30111  1
