CIF file written using JARVIS-Tools package.
data_Te4MoW3S4
_symmetry_space_group_name_H-M  'P3m1'
_cell_length_a       3.38231
_cell_length_b       3.38226
_cell_length_c       37.8121
_cell_angle_alpha    90.0001
_cell_angle_beta     90
_cell_angle_gamma    120.001

_symmetry_Int_Tables_number  156
_chemical_formula_structural  Te4MoW3S4
_chemical_formula_sum  Te4MoW3S4
_cell_volume  374.61010760732046
_cell_formula_units_Z  1
loop_
  _symmetry_equiv_pos_site_id
 _symmetry_equiv_pos_as_xyz
 1  'x, y, z'
loop_
 _atom_site_type_symbol
 _atom_site_label
 _atom_site_symmetry_multiplicity
 _atom_site_fract_x
 _atom_site_fract_y
 _atom_site_fract_z
 _atom_site_fract_occupancy
 Mo  Mo1  1  0.66668  0.33336  0.28178  1
 S  S1  1  0.33336  0.66672  0.32191  1
 S  S2  1  0.66665  0.33330  0.42935  1
 S  S3  1  0.66665  0.33330  0.50994  1
 S  S4  1  0.33336  0.66671  0.24166  1
 Te  Te1  1  0.33336  0.66671  0.70757  1
 Te  Te2  1  0.66664  0.33329  0.04388  1
 Te  Te3  1  0.66664  0.33329  0.14448  1
 Te  Te4  1  0.33335  0.66671  0.60705  1
 W  W1  1  0.33331  0.66661  0.09410  1
 W  W2  1  0.33331  0.66662  0.46965  1
 W  W3  1  0.66669  0.33338  0.65739  1
