CIF file written using JARVIS-Tools package.
data_KSmSe2
_symmetry_space_group_name_H-M  'R-3m'
_cell_length_a       4.26893
_cell_length_b       4.26893
_cell_length_c       7.97955
_cell_angle_alpha    74.4849
_cell_angle_beta     74.4848
_cell_angle_gamma    59.9999

_symmetry_Int_Tables_number  166
_chemical_formula_structural  KSmSe2
_chemical_formula_sum  KSmSe2
_cell_volume  119.77738728411543
_cell_formula_units_Z  1
loop_
  _symmetry_equiv_pos_site_id
 _symmetry_equiv_pos_as_xyz
 1  'x, y, z'
loop_
 _atom_site_type_symbol
 _atom_site_label
 _atom_site_symmetry_multiplicity
 _atom_site_fract_x
 _atom_site_fract_y
 _atom_site_fract_z
 _atom_site_fract_occupancy
 K  K1  1  0.00000  0.00000  0.00000  1
 Se  Se1  1  0.76264  0.76264  0.71208  1
 Se  Se2  1  0.23736  0.23736  0.28792  1
 Sm  Sm1  1  0.50000  0.50000  0.50000  1
