CIF file written using JARVIS-Tools package.
data_Te2Au
_symmetry_space_group_name_H-M  'Pma2'
_cell_length_a       4.4577
_cell_length_b       8.92383
_cell_length_c       16.8913
_cell_angle_alpha    90
_cell_angle_beta     90
_cell_angle_gamma    90

_symmetry_Int_Tables_number  28
_chemical_formula_structural  Te2Au
_chemical_formula_sum  Te6Au8
_cell_volume  671.9335860601843
_cell_formula_units_Z  8
loop_
  _symmetry_equiv_pos_site_id
 _symmetry_equiv_pos_as_xyz
 1  'x, y, z'
loop_
 _atom_site_type_symbol
 _atom_site_label
 _atom_site_symmetry_multiplicity
 _atom_site_fract_x
 _atom_site_fract_y
 _atom_site_fract_z
 _atom_site_fract_occupancy
 Au  Au1  1  0.96081  0.00000  0.00000  1
 Au  Au2  1  0.00927  0.32822  0.75000  1
 Au  Au3  1  0.49274  0.33288  0.12606  1
 Au  Au4  1  0.49274  0.66712  0.87394  1
 Au  Au5  1  0.49274  0.66712  0.62606  1
 Au  Au6  1  0.49274  0.33288  0.37394  1
 Au  Au7  1  0.96081  0.00000  0.50000  1
 Au  Au8  1  0.00927  0.67178  0.25000  1
 Te  Te1  1  0.51343  0.64006  0.12938  1
 Te  Te2  1  0.45459  0.97241  0.61901  1
 Te  Te3  1  0.45459  0.97241  0.88099  1
 Te  Te4  1  0.45459  0.02759  0.11901  1
 Te  Te5  1  0.45459  0.02759  0.38099  1
 Te  Te6  1  0.51343  0.35994  0.87062  1
 Te  Te7  1  0.09442  0.62985  0.75000  1
 Te  Te8  1  0.01191  0.97696  0.25000  1
 Te  Te9  1  0.01191  0.02304  0.75000  1
 Te  Te10  1  0.09442  0.37015  0.25000  1
 Te  Te11  1  0.91604  0.69547  0.99304  1
 Te  Te12  1  0.91604  0.30453  0.00696  1
 Te  Te13  1  0.91604  0.30453  0.49304  1
 Te  Te14  1  0.91604  0.69547  0.50696  1
 Te  Te15  1  0.51343  0.35994  0.62938  1
 Te  Te16  1  0.51343  0.64006  0.37062  1
