CIF file written using JARVIS-Tools package.
data_SrGa2S4
_symmetry_space_group_name_H-M  'Fddd'
_cell_length_a       12.0066
_cell_length_b       12.0066
_cell_length_c       12.1235
_cell_angle_alpha    105.083
_cell_angle_beta     105.083
_cell_angle_gamma    118.327

_symmetry_Int_Tables_number  70
_chemical_formula_structural  SrGa2S4
_chemical_formula_sum  Sr8Ga6S32
_cell_volume  1325.4661894557512
_cell_formula_units_Z  8
loop_
  _symmetry_equiv_pos_site_id
 _symmetry_equiv_pos_as_xyz
 1  'x, y, z'
loop_
 _atom_site_type_symbol
 _atom_site_label
 _atom_site_symmetry_multiplicity
 _atom_site_fract_x
 _atom_site_fract_y
 _atom_site_fract_z
 _atom_site_fract_occupancy
 Ga  Ga1  1  0.96756  0.35970  0.99963  1
 Ga  Ga2  1  0.03244  0.64030  0.00037  1
 Ga  Ga3  1  0.63994  0.53207  0.49963  1
 Ga  Ga4  1  0.35970  0.96756  0.49963  1
 Ga  Ga5  1  0.46793  0.36006  0.00037  1
 Ga  Ga6  1  0.36006  0.46793  0.50037  1
 Ga  Ga7  1  0.86313  0.88814  0.49896  1
 Ga  Ga8  1  0.38919  0.86418  0.00104  1
 Ga  Ga9  1  0.13582  0.61081  0.49896  1
 Ga  Ga10  1  0.11186  0.13687  0.00104  1
 Ga  Ga11  1  0.53207  0.63994  0.99963  1
 Ga  Ga12  1  0.61081  0.13582  0.99896  1
 Ga  Ga13  1  0.86418  0.38919  0.50104  1
 Ga  Ga14  1  0.88814  0.86313  0.99896  1
 Ga  Ga15  1  0.13687  0.11186  0.50104  1
 Ga  Ga16  1  0.64030  0.03244  0.50037  1
 S  S1  1  0.65022  0.33945  0.99783  1
 S  S2  1  0.34162  0.15239  0.50217  1
 S  S3  1  0.84761  0.65838  0.99783  1
 S  S4  1  0.58216  0.08225  0.66650  1
 S  S5  1  0.58378  0.08448  0.16588  1
 S  S6  1  0.34978  0.66055  0.00217  1
 S  S7  1  0.65838  0.84761  0.49783  1
 S  S8  1  0.33945  0.65022  0.49783  1
 S  S9  1  0.91790  0.91860  0.83412  1
 S  S10  1  0.15239  0.34162  0.00217  1
 S  S11  1  0.91775  0.41784  0.83350  1
 S  S12  1  0.58434  0.58426  0.66650  1
 S  S13  1  0.41784  0.91775  0.33350  1
 S  S14  1  0.58426  0.58434  0.16650  1
 S  S15  1  0.08225  0.58216  0.16650  1
 S  S16  1  0.41566  0.41574  0.33350  1
 S  S17  1  0.91552  0.41622  0.33412  1
 S  S18  1  0.41574  0.41566  0.83350  1
 S  S19  1  0.31459  0.15675  0.00216  1
 S  S20  1  0.91860  0.91790  0.33412  1
 S  S21  1  0.84325  0.68541  0.49784  1
 S  S22  1  0.08448  0.58378  0.66588  1
 S  S23  1  0.15459  0.81243  0.49784  1
 S  S24  1  0.41622  0.91552  0.83412  1
 S  S25  1  0.66055  0.34978  0.50217  1
 S  S26  1  0.81243  0.15459  0.99784  1
 S  S27  1  0.08140  0.08210  0.66588  1
 S  S28  1  0.15675  0.31459  0.50216  1
 S  S29  1  0.84541  0.18757  0.50216  1
 S  S30  1  0.68541  0.84325  0.99784  1
 S  S31  1  0.18757  0.84541  0.00216  1
 S  S32  1  0.08210  0.08140  0.16588  1
 Sr  Sr1  1  0.62306  0.87306  0.74613  1
 Sr  Sr2  1  0.37500  0.62500  0.25000  1
 Sr  Sr3  1  0.62500  0.37500  0.75000  1
 Sr  Sr4  1  0.12500  0.87500  0.75000  1
 Sr  Sr5  1  0.12694  0.37694  0.75387  1
 Sr  Sr6  1  0.37694  0.12694  0.25387  1
 Sr  Sr7  1  0.87306  0.62306  0.24613  1
 Sr  Sr8  1  0.87500  0.12500  0.25000  1
