CIF file written using JARVIS-Tools package.
data_Sr2InPd2
_symmetry_space_group_name_H-M  'C2/c'
_cell_length_a       6.02178
_cell_length_b       6.07648
_cell_length_c       8.36531
_cell_angle_alpha    102.215
_cell_angle_beta     90
_cell_angle_gamma    119.703

_symmetry_Int_Tables_number  15
_chemical_formula_structural  Sr2InPd2
_chemical_formula_sum  Sr4In2Pd4
_cell_volume  257.8709021235541
_cell_formula_units_Z  2
loop_
  _symmetry_equiv_pos_site_id
 _symmetry_equiv_pos_as_xyz
 1  'x, y, z'
loop_
 _atom_site_type_symbol
 _atom_site_label
 _atom_site_symmetry_multiplicity
 _atom_site_fract_x
 _atom_site_fract_y
 _atom_site_fract_z
 _atom_site_fract_occupancy
 In  In1  1  0.85855  0.00000  0.25000  1
 In  In2  1  0.14145  -0.00000  0.75000  1
 Pd  Pd1  1  0.99825  0.27123  0.00248  1
 Pd  Pd2  1  0.72702  0.72877  0.49752  1
 Pd  Pd3  1  0.00175  0.72877  0.99752  1
 Pd  Pd4  1  0.27298  0.27123  0.50248  1
 Sr  Sr1  1  0.20914  0.70414  0.35260  1
 Sr  Sr2  1  0.50500  0.29586  0.14740  1
 Sr  Sr3  1  0.79086  0.29586  0.64740  1
 Sr  Sr4  1  0.49500  0.70414  0.85260  1
