CIF file written using JARVIS-Tools package.
data_Na15Pb4
_symmetry_space_group_name_H-M  'I-43d'
_cell_length_a       11.4339
_cell_length_b       11.4339
_cell_length_c       11.4339
_cell_angle_alpha    109.471
_cell_angle_beta     109.471
_cell_angle_gamma    109.471

_symmetry_Int_Tables_number  220
_chemical_formula_structural  Na15Pb4
_chemical_formula_sum  Na30Pb8
_cell_volume  1150.690348420021
_cell_formula_units_Z  2
loop_
  _symmetry_equiv_pos_site_id
 _symmetry_equiv_pos_as_xyz
 1  'x, y, z'
loop_
 _atom_site_type_symbol
 _atom_site_label
 _atom_site_symmetry_multiplicity
 _atom_site_fract_x
 _atom_site_fract_y
 _atom_site_fract_z
 _atom_site_fract_occupancy
 Na  Na1  1  0.25000  0.62500  0.37500  1
 Na  Na2  1  0.91655  0.69186  0.02995  1
 Na  Na3  1  0.69186  0.02995  0.91655  1
 Na  Na4  1  0.80814  0.72468  0.33808  1
 Na  Na5  1  0.72468  0.33808  0.80814  1
 Na  Na6  1  0.47005  0.16192  0.88660  1
 Na  Na7  1  0.16192  0.88660  0.47005  1
 Na  Na8  1  0.62500  0.37500  0.25000  1
 Na  Na9  1  0.11340  0.08345  0.27532  1
 Na  Na10  1  0.75000  0.87500  0.12500  1
 Na  Na11  1  0.52995  0.19186  0.41655  1
 Na  Na12  1  0.87500  0.12500  0.75000  1
 Na  Na13  1  0.37500  0.25000  0.62500  1
 Na  Na14  1  0.83808  0.22468  0.30814  1
 Na  Na15  1  0.97005  0.38660  0.66192  1
 Na  Na16  1  0.12500  0.75000  0.87500  1
 Na  Na17  1  0.22468  0.30814  0.83808  1
 Na  Na18  1  0.88660  0.47005  0.16192  1
 Na  Na19  1  0.02995  0.91655  0.69186  1
 Na  Na20  1  0.33808  0.80814  0.72468  1
 Na  Na21  1  0.66192  0.97005  0.38660  1
 Na  Na22  1  0.77532  0.58345  0.61340  1
 Na  Na23  1  0.58345  0.61340  0.77532  1
 Na  Na24  1  0.61340  0.77532  0.58345  1
 Na  Na25  1  0.19186  0.41655  0.52995  1
 Na  Na26  1  0.30814  0.83808  0.22468  1
 Na  Na27  1  0.08345  0.27532  0.11340  1
 Na  Na28  1  0.27532  0.11340  0.08345  1
 Na  Na29  1  0.41655  0.52995  0.19186  1
 Na  Na30  1  0.38660  0.66192  0.97005  1
 Pb  Pb1  1  0.50000  -0.00000  0.08427  1
 Pb  Pb2  1  0.08427  0.50000  0.00000  1
 Pb  Pb3  1  0.41573  0.41573  0.41573  1
 Pb  Pb4  1  0.58427  0.50000  0.00000  1
 Pb  Pb5  1  0.00000  0.58427  0.50000  1
 Pb  Pb6  1  0.50000  -0.00000  0.58427  1
 Pb  Pb7  1  0.00000  0.08427  0.50000  1
 Pb  Pb8  1  0.91573  0.91573  0.91573  1
