CIF file written using JARVIS-Tools package.
data_SrAl2S4
_symmetry_space_group_name_H-M  'Fddd'
_cell_length_a       11.9535
_cell_length_b       11.9535
_cell_length_c       12.0947
_cell_angle_alpha    104.958
_cell_angle_beta     104.958
_cell_angle_gamma    118.534

_symmetry_Int_Tables_number  70
_chemical_formula_structural  SrAl2S4
_chemical_formula_sum  Sr8Al6S32
_cell_volume  1310.3585484927548
_cell_formula_units_Z  8
loop_
  _symmetry_equiv_pos_site_id
 _symmetry_equiv_pos_as_xyz
 1  'x, y, z'
loop_
 _atom_site_type_symbol
 _atom_site_label
 _atom_site_symmetry_multiplicity
 _atom_site_fract_x
 _atom_site_fract_y
 _atom_site_fract_z
 _atom_site_fract_occupancy
 Al  Al1  1  0.13532  0.11017  0.50091  1
 Al  Al2  1  0.86468  0.88983  0.49909  1
 Al  Al3  1  0.13442  0.60927  0.49909  1
 Al  Al4  1  0.11017  0.13532  0.00091  1
 Al  Al5  1  0.60927  0.13442  0.99909  1
 Al  Al6  1  0.86558  0.39073  0.50091  1
 Al  Al7  1  0.03127  0.63772  0.00022  1
 Al  Al8  1  0.63750  0.53104  0.49978  1
 Al  Al9  1  0.36228  0.96873  0.49978  1
 Al  Al10  1  0.88983  0.86468  0.99909  1
 Al  Al11  1  0.46896  0.36250  0.00022  1
 Al  Al12  1  0.96873  0.36228  0.99978  1
 Al  Al13  1  0.63772  0.03127  0.50022  1
 Al  Al14  1  0.53104  0.63750  0.99978  1
 Al  Al15  1  0.36250  0.46896  0.50022  1
 Al  Al16  1  0.39073  0.86558  0.00091  1
 S  S1  1  0.16060  0.31241  0.50156  1
 S  S2  1  0.84096  0.18915  0.50156  1
 S  S3  1  0.68759  0.83940  0.99844  1
 S  S4  1  0.41846  0.91839  0.33554  1
 S  S5  1  0.18915  0.84096  0.00156  1
 S  S6  1  0.83940  0.68759  0.49844  1
 S  S7  1  0.15904  0.81085  0.49844  1
 S  S8  1  0.31241  0.16060  0.00156  1
 S  S9  1  0.64555  0.33657  0.99833  1
 S  S10  1  0.08161  0.58154  0.16446  1
 S  S11  1  0.08131  0.08055  0.16370  1
 S  S12  1  0.58239  0.08315  0.16370  1
 S  S13  1  0.08315  0.58239  0.66370  1
 S  S14  1  0.91869  0.91945  0.83630  1
 S  S15  1  0.41761  0.91685  0.83630  1
 S  S16  1  0.08055  0.08131  0.66370  1
 S  S17  1  0.41708  0.41715  0.33554  1
 S  S18  1  0.81085  0.15904  0.99844  1
 S  S19  1  0.58285  0.58292  0.16446  1
 S  S20  1  0.91945  0.91869  0.33630  1
 S  S21  1  0.66343  0.35445  0.50167  1
 S  S22  1  0.91839  0.41846  0.83554  1
 S  S23  1  0.58292  0.58285  0.66446  1
 S  S24  1  0.58154  0.08161  0.66446  1
 S  S25  1  0.91685  0.41761  0.33630  1
 S  S26  1  0.33824  0.14723  0.50167  1
 S  S27  1  0.41715  0.41708  0.83554  1
 S  S28  1  0.85277  0.66176  0.99833  1
 S  S29  1  0.35445  0.66343  0.00167  1
 S  S30  1  0.33657  0.64555  0.49833  1
 S  S31  1  0.14723  0.33824  0.00167  1
 S  S32  1  0.66176  0.85277  0.49833  1
 Sr  Sr1  1  0.12500  0.87500  0.75000  1
 Sr  Sr2  1  0.87341  0.62341  0.24682  1
 Sr  Sr3  1  0.37659  0.12659  0.25318  1
 Sr  Sr4  1  0.12659  0.37659  0.75318  1
 Sr  Sr5  1  0.62341  0.87341  0.74682  1
 Sr  Sr6  1  0.62500  0.37500  0.75000  1
 Sr  Sr7  1  0.37500  0.62500  0.25000  1
 Sr  Sr8  1  0.87500  0.12500  0.25000  1
