CIF file written using JARVIS-Tools package.
data_Cd5S4Cl2
_symmetry_space_group_name_H-M  'Cm'
_cell_length_a       4.2578
_cell_length_b       7.51198
_cell_length_c       9.75452
_cell_angle_alpha    99.6402
_cell_angle_beta     90
_cell_angle_gamma    106.463

_symmetry_Int_Tables_number  8
_chemical_formula_structural  Cd5S4Cl2
_chemical_formula_sum  Cd5S4Cl2
_cell_volume  294.60500404859414
_cell_formula_units_Z  1
loop_
  _symmetry_equiv_pos_site_id
 _symmetry_equiv_pos_as_xyz
 1  'x, y, z'
loop_
 _atom_site_type_symbol
 _atom_site_label
 _atom_site_symmetry_multiplicity
 _atom_site_fract_x
 _atom_site_fract_y
 _atom_site_fract_z
 _atom_site_fract_occupancy
 Cd  Cd1  1  0.55539  0.11078  0.92462  1
 Cd  Cd2  1  0.83010  0.66020  0.98861  1
 Cd  Cd3  1  0.85685  0.71370  0.61544  1
 Cd  Cd4  1  0.45143  0.90286  0.33143  1
 Cd  Cd5  1  0.18211  0.36422  0.27291  1
 Cl  Cl1  1  0.68948  0.37895  0.78069  1
 Cl  Cl2  1  0.02688  0.05377  0.47180  1
 S  S1  1  0.96313  0.92626  0.84892  1
 S  S2  1  0.59295  0.18589  0.19034  1
 S  S3  1  0.31632  0.63265  0.11945  1
 S  S4  1  0.31344  0.62687  0.48746  1
