CIF file written using JARVIS-Tools package.
data_MoW2Se2S4
_symmetry_space_group_name_H-M  'Cm'
_cell_length_a       3.23594
_cell_length_b       3.23589
_cell_length_c       19.6673
_cell_angle_alpha    90.0383
_cell_angle_beta     90.0324
_cell_angle_gamma    120

_symmetry_Int_Tables_number  8
_chemical_formula_structural  MoW2Se2S4
_chemical_formula_sum  MoW2Se2S4
_cell_volume  178.3473107344608
_cell_formula_units_Z  1
loop_
  _symmetry_equiv_pos_site_id
 _symmetry_equiv_pos_as_xyz
 1  'x, y, z'
loop_
 _atom_site_type_symbol
 _atom_site_label
 _atom_site_symmetry_multiplicity
 _atom_site_fract_x
 _atom_site_fract_y
 _atom_site_fract_z
 _atom_site_fract_occupancy
 Mo  Mo1  1  0.66595  0.33163  0.34316  1
 S  S1  1  0.33317  0.66555  0.42213  1
 S  S2  1  0.66505  0.33219  -0.05245  1
 S  S3  1  0.66620  0.33339  0.10625  1
 S  S4  1  0.33205  0.66437  0.26423  1
 Se  Se1  1  0.66777  0.33485  0.58356  1
 Se  Se2  1  0.66905  0.33623  0.75818  1
 W  W1  1  0.33229  0.66612  0.02689  1
 W  W2  1  0.33507  0.66886  0.67087  1
