CIF file written using JARVIS-Tools package.
data_CrNiF6
_symmetry_space_group_name_H-M  'R-3'
_cell_length_a       5.25082
_cell_length_b       5.25082
_cell_length_c       5.25082
_cell_angle_alpha    55.2303
_cell_angle_beta     55.2303
_cell_angle_gamma    55.2303

_symmetry_Int_Tables_number  148
_chemical_formula_structural  CrNiF6
_chemical_formula_sum  CrNiF6
_cell_volume  91.0189837758023
_cell_formula_units_Z  1
loop_
  _symmetry_equiv_pos_site_id
 _symmetry_equiv_pos_as_xyz
 1  'x, y, z'
loop_
 _atom_site_type_symbol
 _atom_site_label
 _atom_site_symmetry_multiplicity
 _atom_site_fract_x
 _atom_site_fract_y
 _atom_site_fract_z
 _atom_site_fract_occupancy
 Cr  Cr1  1  0.50000  0.50000  0.50000  1
 F  F1  1  0.11824  0.39866  0.74086  1
 F  F2  1  0.39866  0.74086  0.11824  1
 F  F3  1  0.74086  0.11824  0.39866  1
 F  F4  1  0.25914  0.88176  0.60134  1
 F  F5  1  0.60134  0.25914  0.88176  1
 F  F6  1  0.88176  0.60134  0.25914  1
 Ni  Ni1  1  0.00000  0.00000  0.00000  1
