CIF file written using JARVIS-Tools package.
data_Hf4Al3
_symmetry_space_group_name_H-M  'P6/mmm'
_cell_length_a       5.35284
_cell_length_b       5.35284
_cell_length_c       5.40358
_cell_angle_alpha    90
_cell_angle_beta     90
_cell_angle_gamma    120

_symmetry_Int_Tables_number  191
_chemical_formula_structural  Hf4Al3
_chemical_formula_sum  Hf4Al3
_cell_volume  134.08541303636557
_cell_formula_units_Z  1
loop_
  _symmetry_equiv_pos_site_id
 _symmetry_equiv_pos_as_xyz
 1  'x, y, z'
loop_
 _atom_site_type_symbol
 _atom_site_label
 _atom_site_symmetry_multiplicity
 _atom_site_fract_x
 _atom_site_fract_y
 _atom_site_fract_z
 _atom_site_fract_occupancy
 Al  Al1  1  0.50000  -0.00000  0.00000  1
 Al  Al2  1  0.00000  0.50000  0.00000  1
 Al  Al3  1  0.50000  0.50000  0.00000  1
 Hf  Hf1  1  0.00000  0.00000  0.25945  1
 Hf  Hf2  1  0.00000  0.00000  0.74055  1
 Hf  Hf3  1  0.33333  0.66667  0.50000  1
 Hf  Hf4  1  0.66667  0.33333  0.50000  1
