CIF file written using JARVIS-Tools package.
data_PmCu2Sn
_symmetry_space_group_name_H-M  'Fm-3m'
_cell_length_a       4.7725
_cell_length_b       4.7725
_cell_length_c       4.7725
_cell_angle_alpha    60.0186
_cell_angle_beta     60.0186
_cell_angle_gamma    60.0186

_symmetry_Int_Tables_number  225
_chemical_formula_structural  PmCu2Sn
_chemical_formula_sum  PmCu2Sn
_cell_volume  76.89674206785418
_cell_formula_units_Z  1
loop_
  _symmetry_equiv_pos_site_id
 _symmetry_equiv_pos_as_xyz
 1  'x, y, z'
loop_
 _atom_site_type_symbol
 _atom_site_label
 _atom_site_symmetry_multiplicity
 _atom_site_fract_x
 _atom_site_fract_y
 _atom_site_fract_z
 _atom_site_fract_occupancy
 Cu  Cu1  1  0.50005  0.50005  0.50005  1
 Cu  Cu2  1  0.99995  0.99995  0.99995  1
 Pm  Pm1  1  0.25000  0.25000  0.25000  1
 Sn  Sn1  1  0.75000  0.75000  0.75000  1
