CIF file written using JARVIS-Tools package.
data_KLi6IrO6
_symmetry_space_group_name_H-M  'R-3m'
_cell_length_a       5.29471
_cell_length_b       5.29472
_cell_length_c       5.29472
_cell_angle_alpha    101.241
_cell_angle_beta     101.241
_cell_angle_gamma    101.241

_symmetry_Int_Tables_number  166
_chemical_formula_structural  KLi6IrO6
_chemical_formula_sum  KLi6IrO6
_cell_volume  138.54312086313385
_cell_formula_units_Z  1
loop_
  _symmetry_equiv_pos_site_id
 _symmetry_equiv_pos_as_xyz
 1  'x, y, z'
loop_
 _atom_site_type_symbol
 _atom_site_label
 _atom_site_symmetry_multiplicity
 _atom_site_fract_x
 _atom_site_fract_y
 _atom_site_fract_z
 _atom_site_fract_occupancy
 Ir  Ir1  1  0.00000  0.00000  0.00000  1
 K  K1  1  0.50000  0.50000  0.50000  1
 Li  Li1  1  0.33957  -0.00000  0.66043  1
 Li  Li2  1  0.00000  0.66043  0.33957  1
 Li  Li3  1  0.33957  0.66043  -0.00000  1
 Li  Li4  1  -0.00000  0.33957  0.66043  1
 Li  Li5  1  0.66043  0.00000  0.33957  1
 Li  Li6  1  0.66043  0.33957  0.00000  1
 O  O1  1  0.72454  0.08144  0.72454  1
 O  O2  1  0.72454  0.72454  0.08144  1
 O  O3  1  0.27546  0.91856  0.27546  1
 O  O4  1  0.27546  0.27546  0.91856  1
 O  O5  1  0.91856  0.27546  0.27546  1
 O  O6  1  0.08144  0.72454  0.72454  1
