CIF file written using JARVIS-Tools package.
data_HgN3
_symmetry_space_group_name_H-M  'P2_1/c'
_cell_length_a       3.59061
_cell_length_b       6.04802
_cell_length_c       12.6692
_cell_angle_alpha    90
_cell_angle_beta     90
_cell_angle_gamma    103.787

_symmetry_Int_Tables_number  14
_chemical_formula_structural  HgN3
_chemical_formula_sum  Hg4N2
_cell_volume  267.19971758769026
_cell_formula_units_Z  4
loop_
  _symmetry_equiv_pos_site_id
 _symmetry_equiv_pos_as_xyz
 1  'x, y, z'
loop_
 _atom_site_type_symbol
 _atom_site_label
 _atom_site_symmetry_multiplicity
 _atom_site_fract_x
 _atom_site_fract_y
 _atom_site_fract_z
 _atom_site_fract_occupancy
 Hg  Hg1  1  0.89352  0.79683  0.53909  1
 Hg  Hg2  1  0.39352  0.29683  0.96091  1
 Hg  Hg3  1  0.10648  0.20317  0.46091  1
 Hg  Hg4  1  0.60648  0.70317  0.03909  1
 N  N1  1  0.69641  0.44872  0.60172  1
 N  N2  1  0.20606  0.59207  0.31042  1
 N  N3  1  0.80359  0.05128  0.10172  1
 N  N4  1  0.61720  0.14179  0.27281  1
 N  N5  1  0.88280  0.35821  0.77281  1
 N  N6  1  0.11720  0.64179  0.22719  1
 N  N7  1  0.29394  0.90793  0.81042  1
 N  N8  1  0.70606  0.09207  0.18958  1
 N  N9  1  0.30359  0.55128  0.39828  1
 N  N10  1  0.38280  0.85821  0.72719  1
 N  N11  1  0.79394  0.40793  0.68958  1
 N  N12  1  0.19641  0.94872  0.89828  1
