CIF file written using JARVIS-Tools package.
data_MnH2SO4
_symmetry_space_group_name_H-M  'P2_1/c'
_cell_length_a       4.85451
_cell_length_b       5.9594
_cell_length_c       11.8509
_cell_angle_alpha    90
_cell_angle_beta     90
_cell_angle_gamma    94.1918

_symmetry_Int_Tables_number  14
_chemical_formula_structural  MnH2SO4
_chemical_formula_sum  Mn4H8S4O6
_cell_volume  341.9306476614955
_cell_formula_units_Z  4
loop_
  _symmetry_equiv_pos_site_id
 _symmetry_equiv_pos_as_xyz
 1  'x, y, z'
loop_
 _atom_site_type_symbol
 _atom_site_label
 _atom_site_symmetry_multiplicity
 _atom_site_fract_x
 _atom_site_fract_y
 _atom_site_fract_z
 _atom_site_fract_occupancy
 H  H1  1  0.10968  0.91484  0.60665  1
 H  H2  1  0.02755  0.25682  0.48311  1
 H  H3  1  0.39032  0.58516  0.10665  1
 H  H4  1  0.89032  0.08516  0.39335  1
 H  H5  1  0.97245  0.74318  0.51689  1
 H  H6  1  0.52755  0.75682  0.01689  1
 H  H7  1  0.60968  0.41484  0.89335  1
 H  H8  1  0.47245  0.24318  0.98311  1
 Mn  Mn1  1  0.63167  0.79572  0.72124  1
 Mn  Mn2  1  0.13167  0.29572  0.77876  1
 Mn  Mn3  1  0.36833  0.20428  0.27876  1
 Mn  Mn4  1  0.86833  0.70428  0.22124  1
 O  O1  1  0.37417  0.78915  0.87232  1
 O  O2  1  0.45116  0.47380  0.67625  1
 O  O3  1  0.04884  0.02620  0.17625  1
 O  O4  1  0.54884  0.52620  0.32375  1
 O  O5  1  0.95116  0.97380  0.82375  1
 O  O6  1  0.92492  0.57324  0.84313  1
 O  O7  1  0.57508  0.92676  0.34313  1
 O  O8  1  0.07508  0.42676  0.15687  1
 O  O9  1  0.12583  0.71085  0.37232  1
 O  O10  1  0.42492  0.07324  0.65687  1
 O  O11  1  0.94906  0.80560  0.59333  1
 O  O12  1  0.55094  0.69440  0.09333  1
 O  O13  1  0.05094  0.19440  0.40667  1
 O  O14  1  0.44906  0.30560  0.90667  1
 O  O15  1  0.62583  0.21085  0.12768  1
 O  O16  1  0.87417  0.28915  0.62768  1
 S  S1  1  0.43148  0.71148  0.40093  1
 S  S2  1  0.93148  0.21148  0.09907  1
 S  S3  1  0.56852  0.28852  0.59907  1
 S  S4  1  0.06852  0.78852  0.90093  1
