CIF file written using JARVIS-Tools package.
data_DyNiO3
_symmetry_space_group_name_H-M  'Pnma'
_cell_length_a       5.18775
_cell_length_b       5.56893
_cell_length_c       9.00832
_cell_angle_alpha    90
_cell_angle_beta     125.159
_cell_angle_gamma    90

_symmetry_Int_Tables_number  62
_chemical_formula_structural  DyNiO3
_chemical_formula_sum  Dy4Ni4O2
_cell_volume  212.7708211615206
_cell_formula_units_Z  4
loop_
  _symmetry_equiv_pos_site_id
 _symmetry_equiv_pos_as_xyz
 1  'x, y, z'
loop_
 _atom_site_type_symbol
 _atom_site_label
 _atom_site_symmetry_multiplicity
 _atom_site_fract_x
 _atom_site_fract_y
 _atom_site_fract_z
 _atom_site_fract_occupancy
 Dy  Dy1  1  0.22956  0.57639  0.75000  1
 Dy  Dy2  1  0.77044  0.07639  0.75000  1
 Dy  Dy3  1  0.77044  0.42361  0.25000  1
 Dy  Dy4  1  0.22956  0.92361  0.25000  1
 Ni  Ni1  1  0.00000  0.50000  0.00000  1
 Ni  Ni2  1  0.00000  0.00000  0.50000  1
 Ni  Ni3  1  0.50000  0.50000  0.50000  1
 Ni  Ni4  1  0.50000  0.00000  -0.00000  1
 O  O1  1  0.14446  0.69807  0.45080  1
 O  O2  1  0.35043  0.97181  0.75000  1
 O  O3  1  0.85554  0.30193  0.54920  1
 O  O4  1  0.14446  0.80193  0.95080  1
 O  O5  1  0.85554  0.19807  0.04920  1
 O  O6  1  0.35043  0.52819  0.25000  1
 O  O7  1  0.25715  0.19807  0.45080  1
 O  O8  1  0.74285  0.69807  0.04920  1
 O  O9  1  0.74285  0.80193  0.54920  1
 O  O10  1  0.64957  0.02819  0.25000  1
 O  O11  1  0.25715  0.30193  0.95080  1
 O  O12  1  0.64957  0.47181  0.75000  1
