CIF file written using JARVIS-Tools package.
data_Fe3Se4
_symmetry_space_group_name_H-M  'P-3m1'
_cell_length_a       3.5272
_cell_length_b       3.52699
_cell_length_c       11.1243
_cell_angle_alpha    89.9905
_cell_angle_beta     90
_cell_angle_gamma    120.002

_symmetry_Int_Tables_number  164
_chemical_formula_structural  Fe3Se4
_chemical_formula_sum  Fe3Se4
_cell_volume  119.8476120234951
_cell_formula_units_Z  1
loop_
  _symmetry_equiv_pos_site_id
 _symmetry_equiv_pos_as_xyz
 1  'x, y, z'
loop_
 _atom_site_type_symbol
 _atom_site_label
 _atom_site_symmetry_multiplicity
 _atom_site_fract_x
 _atom_site_fract_y
 _atom_site_fract_z
 _atom_site_fract_occupancy
 Fe  Fe1  1  0.00007  0.00013  0.23721  1
 Fe  Fe2  1  0.00000  0.00000  0.50000  1
 Fe  Fe3  1  -0.00007  -0.00013  0.76279  1
 Se  Se1  1  0.33338  0.66676  0.36613  1
 Se  Se2  1  0.66662  0.33324  0.63387  1
 Se  Se3  1  0.66673  0.33346  0.12490  1
 Se  Se4  1  0.33327  0.66654  0.87510  1
