CIF file written using JARVIS-Tools package.
data_RuN2
_symmetry_space_group_name_H-M  'P4/mbm'
_cell_length_a       4.40732
_cell_length_b       4.40732
_cell_length_c       2.66882
_cell_angle_alpha    90
_cell_angle_beta     90
_cell_angle_gamma    90

_symmetry_Int_Tables_number  127
_chemical_formula_structural  RuN2
_chemical_formula_sum  Ru2N4
_cell_volume  51.84041408016174
_cell_formula_units_Z  2
loop_
  _symmetry_equiv_pos_site_id
 _symmetry_equiv_pos_as_xyz
 1  'x, y, z'
loop_
 _atom_site_type_symbol
 _atom_site_label
 _atom_site_symmetry_multiplicity
 _atom_site_fract_x
 _atom_site_fract_y
 _atom_site_fract_z
 _atom_site_fract_occupancy
 N  N1  1  0.89349  0.39349  0.50000  1
 N  N2  1  0.10651  0.60651  0.50000  1
 N  N3  1  0.39349  0.10651  0.50000  1
 N  N4  1  0.60651  0.89349  0.50000  1
 Ru  Ru1  1  0.50000  0.50000  0.00000  1
 Ru  Ru2  1  0.00000  0.00000  0.00000  1
