CIF file written using JARVIS-Tools package.
data_CaIn4Pd
_symmetry_space_group_name_H-M  'Cmcm'
_cell_length_a       4.53248
_cell_length_b       7.60684
_cell_length_c       8.72554
_cell_angle_alpha    90
_cell_angle_beta     105.054
_cell_angle_gamma    90

_symmetry_Int_Tables_number  63
_chemical_formula_structural  CaIn4Pd
_chemical_formula_sum  Ca2In8Pd2
_cell_volume  290.51391216113524
_cell_formula_units_Z  2
loop_
  _symmetry_equiv_pos_site_id
 _symmetry_equiv_pos_as_xyz
 1  'x, y, z'
loop_
 _atom_site_type_symbol
 _atom_site_label
 _atom_site_symmetry_multiplicity
 _atom_site_fract_x
 _atom_site_fract_y
 _atom_site_fract_z
 _atom_site_fract_occupancy
 Ca  Ca1  1  0.87055  0.25000  0.74110  1
 Ca  Ca2  1  0.12945  0.75000  0.25890  1
 In  In1  1  0.68214  0.04733  0.36428  1
 In  In2  1  0.31786  0.95267  0.63572  1
 In  In3  1  0.31786  0.54733  0.63572  1
 In  In4  1  0.68214  0.45267  0.36428  1
 In  In5  1  0.06311  0.25000  0.12622  1
 In  In6  1  0.93689  0.75000  0.87378  1
 In  In7  1  0.50000  0.00000  0.00000  1
 In  In8  1  0.50000  0.50000  0.00000  1
 Pd  Pd1  1  0.22499  0.25000  0.44998  1
 Pd  Pd2  1  0.77501  0.75000  0.55002  1
