CIF file written using JARVIS-Tools package.
data_LiSn4Ir
_symmetry_space_group_name_H-M  'I4/mcm'
_cell_length_a       6.69419
_cell_length_b       6.69419
_cell_length_c       7.4594
_cell_angle_alpha    116.661
_cell_angle_beta     116.661
_cell_angle_gamma    90

_symmetry_Int_Tables_number  140
_chemical_formula_structural  LiSn4Ir
_chemical_formula_sum  Li2Sn8Ir2
_cell_volume  258.3473240511685
_cell_formula_units_Z  2
loop_
  _symmetry_equiv_pos_site_id
 _symmetry_equiv_pos_as_xyz
 1  'x, y, z'
loop_
 _atom_site_type_symbol
 _atom_site_label
 _atom_site_symmetry_multiplicity
 _atom_site_fract_x
 _atom_site_fract_y
 _atom_site_fract_z
 _atom_site_fract_occupancy
 Ir  Ir1  1  0.75000  0.75000  0.50000  1
 Ir  Ir2  1  0.25000  0.25000  0.50000  1
 Li  Li1  1  0.50000  0.50000  -0.00000  1
 Li  Li2  1  0.00000  0.00000  0.00000  1
 Sn  Sn1  1  0.52345  0.70666  0.73011  1
 Sn  Sn2  1  0.02345  0.52345  0.73011  1
 Sn  Sn3  1  0.70666  0.20666  0.73011  1
 Sn  Sn4  1  0.29334  0.79334  0.26989  1
 Sn  Sn5  1  0.97655  0.47655  0.26989  1
 Sn  Sn6  1  0.47655  0.29334  0.26989  1
 Sn  Sn7  1  0.79334  0.97655  0.26989  1
 Sn  Sn8  1  0.20666  0.02345  0.73011  1
