CIF file written using JARVIS-Tools package.
data_AlBiSeCl4
_symmetry_space_group_name_H-M  'I-4'
_cell_length_a       10.16
_cell_length_b       10.16
_cell_length_c       10.16
_cell_angle_alpha    107.46
_cell_angle_beta     107.46
_cell_angle_gamma    113.573

_symmetry_Int_Tables_number  82
_chemical_formula_structural  AlBiSeCl4
_chemical_formula_sum  Al4Bi4Se4Cl6
_cell_volume  804.220917198985
_cell_formula_units_Z  4
loop_
  _symmetry_equiv_pos_site_id
 _symmetry_equiv_pos_as_xyz
 1  'x, y, z'
loop_
 _atom_site_type_symbol
 _atom_site_label
 _atom_site_symmetry_multiplicity
 _atom_site_fract_x
 _atom_site_fract_y
 _atom_site_fract_z
 _atom_site_fract_occupancy
 Al  Al1  1  0.14558  0.02061  0.73079  1
 Al  Al2  1  0.97939  0.71018  0.12496  1
 Al  Al3  1  0.28982  0.41478  0.26921  1
 Al  Al4  1  0.58521  0.85442  0.87504  1
 Bi  Bi1  1  0.78789  0.19007  0.72127  1
 Bi  Bi2  1  0.46880  0.06662  0.27873  1
 Bi  Bi3  1  0.80993  0.53120  0.59782  1
 Bi  Bi4  1  0.93339  0.21211  0.40218  1
 Cl  Cl1  1  0.22303  0.80588  0.30927  1
 Cl  Cl2  1  0.92235  0.96700  0.74549  1
 Cl  Cl3  1  0.19010  0.40944  0.04908  1
 Cl  Cl4  1  0.49661  0.91376  0.69073  1
 Cl  Cl5  1  0.22152  0.17687  0.25451  1
 Cl  Cl6  1  0.59056  0.63964  0.78066  1
 Cl  Cl7  1  0.08624  0.77697  0.58285  1
 Cl  Cl8  1  0.18901  0.17200  0.61772  1
 Cl  Cl9  1  0.85899  0.80991  0.21934  1
 Cl  Cl10  1  0.55428  0.57129  0.38227  1
 Cl  Cl11  1  0.36036  0.14101  0.95092  1
 Cl  Cl12  1  0.03300  0.77848  0.95535  1
 Cl  Cl13  1  0.82313  0.07765  0.04465  1
 Cl  Cl14  1  0.19412  0.50339  0.41715  1
 Cl  Cl15  1  0.82800  0.44572  0.01701  1
 Cl  Cl16  1  0.42871  0.81099  0.98300  1
 Se  Se1  1  0.55919  0.26453  0.59208  1
 Se  Se2  1  0.03289  0.44081  0.70534  1
 Se  Se3  1  0.67246  0.96711  0.40792  1
 Se  Se4  1  0.73547  0.32754  0.29466  1
