CIF file written using JARVIS-Tools package.
data_CaV3P4O14
_symmetry_space_group_name_H-M  'P2_1/c'
_cell_length_a       7.47885
_cell_length_b       7.73709
_cell_length_c       9.51191
_cell_angle_alpha    90
_cell_angle_beta     111.646
_cell_angle_gamma    90

_symmetry_Int_Tables_number  14
_chemical_formula_structural  CaV3P4O14
_chemical_formula_sum  Ca2V6P8O28
_cell_volume  511.58880330277816
_cell_formula_units_Z  2
loop_
  _symmetry_equiv_pos_site_id
 _symmetry_equiv_pos_as_xyz
 1  'x, y, z'
loop_
 _atom_site_type_symbol
 _atom_site_label
 _atom_site_symmetry_multiplicity
 _atom_site_fract_x
 _atom_site_fract_y
 _atom_site_fract_z
 _atom_site_fract_occupancy
 Ca  Ca1  1  0.50000  0.00000  -0.00000  1
 Ca  Ca2  1  0.50000  0.50000  0.50000  1
 O  O1  1  0.03460  0.42079  0.88953  1
 O  O2  1  0.96540  0.92079  0.61047  1
 O  O3  1  0.67379  0.88011  0.67788  1
 O  O4  1  0.98942  0.78351  0.85951  1
 O  O5  1  0.67379  0.61989  0.17788  1
 O  O6  1  0.27382  0.88114  0.12932  1
 O  O7  1  0.38518  0.69283  0.91072  1
 O  O8  1  0.61482  0.19283  0.58928  1
 O  O9  1  0.61482  0.30717  0.08928  1
 O  O10  1  0.38518  0.80717  0.41072  1
 O  O11  1  0.72618  0.11886  0.87068  1
 O  O12  1  0.27382  0.61886  0.62932  1
 O  O13  1  0.96540  0.57921  0.11047  1
 O  O14  1  0.72618  0.38114  0.37068  1
 O  O15  1  0.17877  0.12405  0.89600  1
 O  O16  1  0.82123  0.62405  0.60400  1
 O  O17  1  0.82123  0.87595  0.10400  1
 O  O18  1  0.17877  0.37595  0.39600  1
 O  O19  1  0.98942  0.71649  0.35951  1
 O  O20  1  0.01058  0.21649  0.14049  1
 O  O21  1  0.01058  0.28351  0.64049  1
 O  O22  1  0.60376  0.97436  0.29678  1
 O  O23  1  0.32621  0.11989  0.32212  1
 O  O24  1  0.32621  0.38011  0.82212  1
 O  O25  1  0.03460  0.07921  0.38953  1
 O  O26  1  0.39624  0.02564  0.70322  1
 O  O27  1  0.60376  0.52564  0.79678  1
 O  O28  1  0.39624  0.47436  0.20322  1
 P  P1  1  0.87456  0.70518  0.18935  1
 P  P2  1  0.87456  0.79482  0.68935  1
 P  P3  1  0.12544  0.29482  0.81065  1
 P  P4  1  0.59645  0.43342  0.20596  1
 P  P5  1  0.40355  0.93342  0.29404  1
 P  P6  1  0.40355  0.56658  0.79404  1
 P  P7  1  0.59645  0.06658  0.70596  1
 P  P8  1  0.12544  0.20518  0.31065  1
 V  V1  1  -0.00000  0.50000  0.50000  1
 V  V2  1  0.00000  0.00000  0.00000  1
 V  V3  1  0.81158  0.37221  0.97381  1
 V  V4  1  0.18842  0.87221  0.52619  1
 V  V5  1  0.18842  0.62779  0.02619  1
 V  V6  1  0.81158  0.12779  0.47381  1
