CIF file written using JARVIS-Tools package.
data_Li4WO5
_symmetry_space_group_name_H-M  'I4'
_cell_length_a       4.12716
_cell_length_b       5.08885
_cell_length_c       5.08875
_cell_angle_alpha    80.5345
_cell_angle_beta     113.924
_cell_angle_gamma    113.924

_symmetry_Int_Tables_number  79
_chemical_formula_structural  Li4WO5
_chemical_formula_sum  Li4WO5
_cell_volume  89.30078936600832
_cell_formula_units_Z  1
loop_
  _symmetry_equiv_pos_site_id
 _symmetry_equiv_pos_as_xyz
 1  'x, y, z'
loop_
 _atom_site_type_symbol
 _atom_site_label
 _atom_site_symmetry_multiplicity
 _atom_site_fract_x
 _atom_site_fract_y
 _atom_site_fract_z
 _atom_site_fract_occupancy
 Li  Li1  1  0.81486  0.41555  0.21830  1
 Li  Li2  1  0.59772  0.78298  0.41658  1
 Li  Li3  1  0.39945  0.21720  0.58582  1
 Li  Li4  1  0.18237  0.58478  0.78409  1
 O  O1  1  0.28609  0.36349  0.18903  1
 O  O2  1  0.09829  0.81236  0.36455  1
 O  O3  1  0.92276  0.18796  0.63789  1
 O  O4  1  0.73496  0.63683  0.81342  1
 O  O5  1  0.50756  0.00016  0.00122  1
 W  W1  1  0.95929  0.00016  0.00122  1
