CIF file written using JARVIS-Tools package.
data_Li3V4O8
_symmetry_space_group_name_H-M  'R-3m'
_cell_length_a       5.9669
_cell_length_b       5.76962
_cell_length_c       5.76963
_cell_angle_alpha    60
_cell_angle_beta     61.0878
_cell_angle_gamma    61.0878

_symmetry_Int_Tables_number  166
_chemical_formula_structural  Li3V4O8
_chemical_formula_sum  Li3V4O8
_cell_volume  142.71781196307077
_cell_formula_units_Z  1
loop_
  _symmetry_equiv_pos_site_id
 _symmetry_equiv_pos_as_xyz
 1  'x, y, z'
loop_
 _atom_site_type_symbol
 _atom_site_label
 _atom_site_symmetry_multiplicity
 _atom_site_fract_x
 _atom_site_fract_y
 _atom_site_fract_z
 _atom_site_fract_occupancy
 Li  Li1  1  0.06969  0.14344  0.14344  1
 Li  Li2  1  0.50000  -0.00000  0.00000  1
 Li  Li3  1  0.93031  0.85656  0.85656  1
 O  O1  1  0.26359  0.25247  0.25247  1
 O  O2  1  0.26359  0.25247  0.73146  1
 O  O3  1  0.26359  0.73146  0.25247  1
 O  O4  1  0.70744  0.26419  0.26419  1
 O  O5  1  0.29256  0.73581  0.73581  1
 O  O6  1  0.73641  0.74753  0.26854  1
 O  O7  1  0.73641  0.26854  0.74753  1
 O  O8  1  0.73641  0.74753  0.74753  1
 V  V1  1  0.50000  -0.00000  0.50000  1
 V  V2  1  0.50000  0.50000  0.50000  1
 V  V3  1  0.50000  0.50000  0.00000  1
 V  V4  1  -0.00000  0.50000  0.50000  1
