CIF file written using JARVIS-Tools package.
data_Si2N2O
_symmetry_space_group_name_H-M  'I4_1/amd'
_cell_length_a       5.49913
_cell_length_b       5.49913
_cell_length_c       12.32
_cell_angle_alpha    102.896
_cell_angle_beta     102.896
_cell_angle_gamma    90

_symmetry_Int_Tables_number  141
_chemical_formula_structural  Si2N2O
_chemical_formula_sum  Si6N6O8
_cell_volume  353.5192369678643
_cell_formula_units_Z  8
loop_
  _symmetry_equiv_pos_site_id
 _symmetry_equiv_pos_as_xyz
 1  'x, y, z'
loop_
 _atom_site_type_symbol
 _atom_site_label
 _atom_site_symmetry_multiplicity
 _atom_site_fract_x
 _atom_site_fract_y
 _atom_site_fract_z
 _atom_site_fract_occupancy
 N  N1  1  0.39948  0.41280  0.82560  1
 N  N2  1  0.73637  0.74940  0.49879  1
 N  N3  1  0.24940  0.76243  0.99879  1
 N  N4  1  0.08720  0.57388  0.67440  1
 N  N5  1  0.26243  0.74940  0.49879  1
 N  N6  1  0.75060  0.76363  0.00121  1
 N  N7  1  0.91280  0.89948  0.32560  1
 N  N8  1  0.91280  0.42612  0.32560  1
 N  N9  1  0.07388  0.58720  0.17440  1
 N  N10  1  0.60052  0.58720  0.17440  1
 N  N11  1  0.75060  0.23757  0.00121  1
 N  N12  1  0.08720  0.10052  0.67440  1
 N  N13  1  0.92612  0.41280  0.82560  1
 N  N14  1  0.73757  0.25060  0.50121  1
 N  N15  1  0.24940  0.23637  0.99879  1
 N  N16  1  0.26363  0.25060  0.50121  1
 O  O1  1  0.57653  0.54146  0.65307  1
 O  O2  1  0.95854  0.92347  0.84693  1
 O  O3  1  0.42347  0.45854  0.34693  1
 O  O4  1  0.42347  0.88839  0.34693  1
 O  O5  1  0.61161  0.07653  0.15307  1
 O  O6  1  0.57653  0.11161  0.65307  1
 O  O7  1  0.38839  0.92347  0.84693  1
 O  O8  1  0.04146  0.07653  0.15307  1
 Si  Si1  1  0.50000  0.50000  0.50000  1
 Si  Si2  1  0.50000  0.00000  0.50000  1
 Si  Si3  1  0.50000  0.00000  -0.00000  1
 Si  Si4  1  0.95611  0.20611  0.41222  1
 Si  Si5  1  0.70611  0.45611  0.91222  1
 Si  Si6  1  0.04389  0.79389  0.58778  1
 Si  Si7  1  0.29389  0.54389  0.08778  1
 Si  Si8  1  0.33189  0.33210  0.66421  1
 Si  Si9  1  0.83210  0.33232  0.16421  1
 Si  Si10  1  0.16768  0.66790  0.33579  1
 Si  Si11  1  0.66811  0.66790  0.33579  1
 Si  Si12  1  0.16790  0.66768  0.83579  1
 Si  Si13  1  0.16790  0.16811  0.83579  1
 Si  Si14  1  0.83232  0.33210  0.66421  1
 Si  Si15  1  0.83210  0.83189  0.16421  1
 Si  Si16  1  0.00000  0.00000  0.00000  1
