CIF file written using JARVIS-Tools package.
data_Ti2Cu3Te3O16
_symmetry_space_group_name_H-M  'Cm'
_cell_length_a       5.95092
_cell_length_b       6.33347
_cell_length_c       9.10261
_cell_angle_alpha    92.6485
_cell_angle_beta     90.0046
_cell_angle_gamma    118.021

_symmetry_Int_Tables_number  8
_chemical_formula_structural  Ti2Cu3Te3O16
_chemical_formula_sum  Ti2Cu3Te3O6
_cell_volume  302.4432682013376
_cell_formula_units_Z  1
loop_
  _symmetry_equiv_pos_site_id
 _symmetry_equiv_pos_as_xyz
 1  'x, y, z'
loop_
 _atom_site_type_symbol
 _atom_site_label
 _atom_site_symmetry_multiplicity
 _atom_site_fract_x
 _atom_site_fract_y
 _atom_site_fract_z
 _atom_site_fract_occupancy
 Cu  Cu1  1  0.67649  0.85392  0.19327  1
 Cu  Cu2  1  0.17753  0.85394  0.19325  1
 Cu  Cu3  1  0.81577  0.63160  0.70316  1
 O  O1  1  0.94063  0.44445  0.82234  1
 O  O2  1  0.66267  0.82339  0.61485  1
 O  O3  1  0.47445  0.94882  0.33286  1
 O  O4  1  0.32807  0.65607  0.10946  1
 O  O5  1  0.51631  0.03261  0.85007  1
 O  O6  1  0.01277  0.02552  0.84153  1
 O  O7  1  0.16067  0.82338  0.61484  1
 O  O8  1  0.01770  0.03530  0.29175  1
 O  O9  1  0.04369  0.50617  0.36641  1
 O  O10  1  0.84592  0.69179  0.08435  1
 O  O11  1  0.37536  0.24330  0.09577  1
 O  O12  1  0.46250  0.50617  0.36645  1
 O  O13  1  0.50379  0.44444  0.82234  1
 O  O14  1  0.61461  0.22927  0.58725  1
 O  O15  1  0.86799  0.24329  0.09575  1
 O  O16  1  0.13017  0.26039  0.59962  1
 Te  Te1  1  0.31796  0.13674  0.71783  1
 Te  Te2  1  0.81876  0.13676  0.71784  1
 Te  Te3  1  0.17881  0.35756  0.22058  1
 Ti  Ti1  1  0.69603  0.39205  0.00801  1
 Ti  Ti2  1  0.36152  0.72307  0.46614  1
