CIF file written using JARVIS-Tools package.
data_V4SiSb2
_symmetry_space_group_name_H-M  'I4/mcm'
_cell_length_a       4.70391
_cell_length_b       7.37055
_cell_length_c       7.37055
_cell_angle_alpha    84.1557
_cell_angle_beta     71.3915
_cell_angle_gamma    71.3914

_symmetry_Int_Tables_number  140
_chemical_formula_structural  V4SiSb2
_chemical_formula_sum  V8Si2Sb4
_cell_volume  229.5195542539301
_cell_formula_units_Z  2
loop_
  _symmetry_equiv_pos_site_id
 _symmetry_equiv_pos_as_xyz
 1  'x, y, z'
loop_
 _atom_site_type_symbol
 _atom_site_label
 _atom_site_symmetry_multiplicity
 _atom_site_fract_x
 _atom_site_fract_y
 _atom_site_fract_z
 _atom_site_fract_occupancy
 Sb  Sb1  1  0.14148  0.50000  0.21704  1
 Sb  Sb2  1  0.35852  0.78296  0.50000  1
 Sb  Sb3  1  0.64148  0.21704  0.50000  1
 Sb  Sb4  1  0.85852  0.50000  0.78296  1
 Si  Si1  1  0.25000  0.00000  -0.00000  1
 Si  Si2  1  0.75000  0.00000  -0.00000  1
 V  V1  1  0.20572  0.70913  0.87943  1
 V  V2  1  0.91485  0.87943  0.29087  1
 V  V3  1  0.29428  0.12057  0.29087  1
 V  V4  1  0.70572  0.87943  0.70913  1
 V  V5  1  0.41485  0.29087  0.87943  1
 V  V6  1  0.58515  0.70913  0.12057  1
 V  V7  1  0.08515  0.12057  0.70913  1
 V  V8  1  0.79428  0.29087  0.12057  1
