CIF file written using JARVIS-Tools package.
data_Mo2WSe2S4
_symmetry_space_group_name_H-M  'P-6m2'
_cell_length_a       3.23577
_cell_length_b       3.23578
_cell_length_c       27.8312
_cell_angle_alpha    90
_cell_angle_beta     90
_cell_angle_gamma    120

_symmetry_Int_Tables_number  187
_chemical_formula_structural  Mo2WSe2S4
_chemical_formula_sum  Mo2WSe2S4
_cell_volume  252.36003938750807
_cell_formula_units_Z  1
loop_
  _symmetry_equiv_pos_site_id
 _symmetry_equiv_pos_as_xyz
 1  'x, y, z'
loop_
 _atom_site_type_symbol
 _atom_site_label
 _atom_site_symmetry_multiplicity
 _atom_site_fract_x
 _atom_site_fract_y
 _atom_site_fract_z
 _atom_site_fract_occupancy
 Mo  Mo1  1  0.33338  0.66676  0.11552  1
 Mo  Mo2  1  0.33338  0.66676  0.57844  1
 S  S1  1  0.66670  0.33339  0.05978  1
 S  S2  1  0.66672  0.33345  0.52264  1
 S  S3  1  0.66672  0.33345  0.17133  1
 S  S4  1  0.66670  0.33339  0.63418  1
 Se  Se1  1  0.33322  0.66645  0.40868  1
 Se  Se2  1  0.33322  0.66645  0.28529  1
 W  W1  1  0.66656  0.33312  0.34698  1
