CIF file written using JARVIS-Tools package.
data_NdBrO2
_symmetry_space_group_name_H-M  'P2_1/m'
_cell_length_a       5.06481
_cell_length_b       4.4145
_cell_length_c       6.70568
_cell_angle_alpha    90
_cell_angle_beta     106.124
_cell_angle_gamma    90

_symmetry_Int_Tables_number  11
_chemical_formula_structural  NdBrO2
_chemical_formula_sum  Nd2Br2O4
_cell_volume  144.03184374207166
_cell_formula_units_Z  2
loop_
  _symmetry_equiv_pos_site_id
 _symmetry_equiv_pos_as_xyz
 1  'x, y, z'
loop_
 _atom_site_type_symbol
 _atom_site_label
 _atom_site_symmetry_multiplicity
 _atom_site_fract_x
 _atom_site_fract_y
 _atom_site_fract_z
 _atom_site_fract_occupancy
 Br  Br1  1  0.22396  0.25000  0.90106  1
 Br  Br2  1  0.77604  0.75000  0.09894  1
 Nd  Nd1  1  0.19378  0.25000  0.34252  1
 Nd  Nd2  1  0.80622  0.75000  0.65748  1
 O  O1  1  0.75383  0.25000  0.45519  1
 O  O2  1  0.24617  0.75000  0.54481  1
 O  O3  1  0.61256  0.25000  0.62633  1
 O  O4  1  0.38744  0.75000  0.37367  1
