CIF file written using JARVIS-Tools package.
data_Fe5SnO8
_symmetry_space_group_name_H-M  'R-3m'
_cell_length_a       6.18042
_cell_length_b       6.02554
_cell_length_c       6.02554
_cell_angle_alpha    60
_cell_angle_beta     60.8256
_cell_angle_gamma    60.8256

_symmetry_Int_Tables_number  166
_chemical_formula_structural  Fe5SnO8
_chemical_formula_sum  Fe5SnO8
_cell_volume  160.6213643271642
_cell_formula_units_Z  1
loop_
  _symmetry_equiv_pos_site_id
 _symmetry_equiv_pos_as_xyz
 1  'x, y, z'
loop_
 _atom_site_type_symbol
 _atom_site_label
 _atom_site_symmetry_multiplicity
 _atom_site_fract_x
 _atom_site_fract_y
 _atom_site_fract_z
 _atom_site_fract_occupancy
 Fe  Fe1  1  0.01426  0.99525  0.99525  1
 Fe  Fe2  1  0.23574  0.25475  0.25475  1
 Fe  Fe3  1  0.62500  0.12500  0.62500  1
 Fe  Fe4  1  0.62500  0.62500  0.12500  1
 Fe  Fe5  1  0.62500  0.62500  0.62500  1
 O  O1  1  0.37760  0.38306  0.38306  1
 O  O2  1  0.37760  0.38306  0.85628  1
 O  O3  1  0.37760  0.85628  0.38306  1
 O  O4  1  0.85492  0.38169  0.38169  1
 O  O5  1  0.39508  0.86831  0.86831  1
 O  O6  1  0.87240  0.39372  0.86694  1
 O  O7  1  0.87240  0.86694  0.39372  1
 O  O8  1  0.87240  0.86694  0.86694  1
 Sn  Sn1  1  0.12500  0.62500  0.62500  1
