CIF file written using JARVIS-Tools package.
data_NaNiF3
_symmetry_space_group_name_H-M  'Pnma'
_cell_length_a       5.34657
_cell_length_b       5.57662
_cell_length_c       7.68663
_cell_angle_alpha    90
_cell_angle_beta     90
_cell_angle_gamma    90

_symmetry_Int_Tables_number  62
_chemical_formula_structural  NaNiF3
_chemical_formula_sum  Na4Ni4F2
_cell_volume  229.18272011177152
_cell_formula_units_Z  4
loop_
  _symmetry_equiv_pos_site_id
 _symmetry_equiv_pos_as_xyz
 1  'x, y, z'
loop_
 _atom_site_type_symbol
 _atom_site_label
 _atom_site_symmetry_multiplicity
 _atom_site_fract_x
 _atom_site_fract_y
 _atom_site_fract_z
 _atom_site_fract_occupancy
 F  F1  1  0.11048  0.46151  0.25000  1
 F  F2  1  0.69296  0.30195  0.44309  1
 F  F3  1  0.38952  0.96151  0.25000  1
 F  F4  1  0.80704  0.80195  0.05691  1
 F  F5  1  0.30704  0.69805  0.94309  1
 F  F6  1  0.19296  0.19805  0.55691  1
 F  F7  1  0.80704  0.80195  0.44309  1
 F  F8  1  0.19296  0.19805  0.94309  1
 F  F9  1  0.69296  0.30195  0.05691  1
 F  F10  1  0.88952  0.53849  0.75000  1
 F  F11  1  0.61048  0.03849  0.75000  1
 F  F12  1  0.30704  0.69805  0.55691  1
 Na  Na1  1  0.98147  0.06420  0.25000  1
 Na  Na2  1  0.48147  0.43580  0.75000  1
 Na  Na3  1  0.51853  0.56420  0.25000  1
 Na  Na4  1  0.01853  0.93580  0.75000  1
 Ni  Ni1  1  0.50000  0.00000  0.00000  1
 Ni  Ni2  1  0.00000  0.50000  0.00000  1
 Ni  Ni3  1  0.00000  0.50000  0.50000  1
 Ni  Ni4  1  0.50000  0.00000  0.50000  1
