data_image0
_chemical_formula_structural       Ce2CuGe6
_chemical_formula_sum              "Ce2 Cu1 Ge6"
_cell_length_a       4.1956
_cell_length_b       4.14219
_cell_length_c       11.2391
_cell_angle_alpha    79.3811
_cell_angle_beta     90
_cell_angle_gamma    90

_space_group_name_H-M_alt    "P 1"
_space_group_IT_number       1

loop_
  _space_group_symop_operation_xyz
  'x, y, z'

loop_
  _atom_site_type_symbol
  _atom_site_label
  _atom_site_symmetry_multiplicity
  _atom_site_fract_x
  _atom_site_fract_y
  _atom_site_fract_z
  _atom_site_occupancy
  Ce  Ce1       1.0  0.00000  0.99700  0.00567  1.0000
  Ce  Ce2       1.0  0.00000  0.33000  0.34100  1.0000
  Cu  Cu1       1.0  0.50000  0.77400  0.45300  1.0000
  Ge  Ge1       1.0  0.50000  0.45000  0.10100  1.0000
  Ge  Ge2       1.0  0.50000  0.88200  0.23600  1.0000
  Ge  Ge3       1.0  0.00000  0.71600  0.56800  1.0000
  Ge  Ge4       1.0  0.50000  0.21500  0.56900  1.0000
  Ge  Ge5       1.0  0.00000  0.60300  0.79300  1.0000
  Ge  Ge6       1.0  0.50000  0.10300  0.79500  1.0000
