CIF file written using JARVIS-Tools package.
data_TbLi8O6
_symmetry_space_group_name_H-M  'R-3'
_cell_length_a       6.25672
_cell_length_b       6.25671
_cell_length_c       6.25671
_cell_angle_alpha    52.9599
_cell_angle_beta     52.96
_cell_angle_gamma    52.9599

_symmetry_Int_Tables_number  148
_chemical_formula_structural  TbLi8O6
_chemical_formula_sum  TbLi8O6
_cell_volume  144.6087704667206
_cell_formula_units_Z  1
loop_
  _symmetry_equiv_pos_site_id
 _symmetry_equiv_pos_as_xyz
 1  'x, y, z'
loop_
 _atom_site_type_symbol
 _atom_site_label
 _atom_site_symmetry_multiplicity
 _atom_site_fract_x
 _atom_site_fract_y
 _atom_site_fract_z
 _atom_site_fract_occupancy
 Li  Li1  1  0.35585  0.35585  0.35585  1
 Li  Li2  1  0.50619  0.89809  0.22587  1
 Li  Li3  1  0.22587  0.50619  0.89809  1
 Li  Li4  1  0.89809  0.22587  0.50619  1
 Li  Li5  1  0.49381  0.10191  0.77413  1
 Li  Li6  1  0.77413  0.49381  0.10191  1
 Li  Li7  1  0.64415  0.64415  0.64415  1
 Li  Li8  1  0.10191  0.77413  0.49381  1
 O  O1  1  0.24437  0.89717  0.59920  1
 O  O2  1  0.10283  0.40080  0.75563  1
 O  O3  1  0.75563  0.10283  0.40080  1
 O  O4  1  0.59920  0.24437  0.89717  1
 O  O5  1  0.89717  0.59920  0.24437  1
 O  O6  1  0.40080  0.75563  0.10283  1
 Tb  Tb1  1  0.00000  0.00000  0.00000  1
