CIF file written using JARVIS-Tools package.
data_ZnB2C8N8
_symmetry_space_group_name_H-M  'P-3m1'
_cell_length_a       7.4988
_cell_length_b       7.4988
_cell_length_c       5.89801
_cell_angle_alpha    90
_cell_angle_beta     90
_cell_angle_gamma    120

_symmetry_Int_Tables_number  164
_chemical_formula_structural  ZnB2C8N8
_chemical_formula_sum  ZnB2C8N8
_cell_volume  287.22350005820647
_cell_formula_units_Z  1
loop_
  _symmetry_equiv_pos_site_id
 _symmetry_equiv_pos_as_xyz
 1  'x, y, z'
loop_
 _atom_site_type_symbol
 _atom_site_label
 _atom_site_symmetry_multiplicity
 _atom_site_fract_x
 _atom_site_fract_y
 _atom_site_fract_z
 _atom_site_fract_occupancy
 B  B1  1  0.66667  0.33333  0.13170  1
 B  B2  1  0.33333  0.66667  0.86830  1
 C  C1  1  0.66667  0.33333  0.86339  1
 C  C2  1  0.33333  0.66667  0.13661  1
 C  C3  1  0.21850  0.43701  0.77586  1
 C  C4  1  0.56299  0.78150  0.77586  1
 C  C5  1  0.21850  0.78150  0.77586  1
 C  C6  1  0.43701  0.21850  0.22414  1
 C  C7  1  0.78150  0.21850  0.22414  1
 C  C8  1  0.78150  0.56299  0.22414  1
 N  N1  1  0.33333  0.66667  0.33349  1
 N  N2  1  0.13508  0.86492  0.70700  1
 N  N3  1  0.72984  0.86492  0.70700  1
 N  N4  1  0.86492  0.72984  0.29300  1
 N  N5  1  0.66667  0.33333  0.66651  1
 N  N6  1  0.86492  0.13508  0.29300  1
 N  N7  1  0.13508  0.27016  0.70700  1
 N  N8  1  0.27016  0.13508  0.29300  1
 Zn  Zn1  1  0.00000  0.00000  0.50000  1
