CIF file written using JARVIS-Tools package.
data_TeMoWSe3
_symmetry_space_group_name_H-M  'P3m1'
_cell_length_a       3.38651
_cell_length_b       3.3865
_cell_length_c       36.1284
_cell_angle_alpha    90.0004
_cell_angle_beta     89.9999
_cell_angle_gamma    120

_symmetry_Int_Tables_number  156
_chemical_formula_structural  TeMoWSe3
_chemical_formula_sum  Te2Mo2W2Se6
_cell_volume  358.82581251215186
_cell_formula_units_Z  2
loop_
  _symmetry_equiv_pos_site_id
 _symmetry_equiv_pos_as_xyz
 1  'x, y, z'
loop_
 _atom_site_type_symbol
 _atom_site_label
 _atom_site_symmetry_multiplicity
 _atom_site_fract_x
 _atom_site_fract_y
 _atom_site_fract_z
 _atom_site_fract_occupancy
 Mo  Mo1  1  0.33333  0.66664  0.09113  1
 Mo  Mo2  1  0.33334  0.66669  0.47408  1
 Se  Se1  1  0.33334  0.66669  0.70105  1
 Se  Se2  1  0.66666  0.33329  0.04542  1
 Se  Se3  1  0.66668  0.33336  0.42828  1
 Se  Se4  1  0.66667  0.33332  0.13694  1
 Se  Se5  1  0.66668  0.33336  0.51984  1
 Se  Se6  1  0.33333  0.66668  0.60912  1
 Te  Te1  1  0.33332  0.66665  0.33499  1
 Te  Te2  1  0.33333  0.66666  0.23019  1
 W  W1  1  0.66666  0.33332  0.28259  1
 W  W2  1  0.66667  0.33335  0.65511  1
