CIF file written using JARVIS-Tools package.
data_TmGeRu
_symmetry_space_group_name_H-M  'Pnma'
_cell_length_a       4.3835
_cell_length_b       6.92517
_cell_length_c       7.22684
_cell_angle_alpha    90
_cell_angle_beta     90
_cell_angle_gamma    90

_symmetry_Int_Tables_number  62
_chemical_formula_structural  TmGeRu
_chemical_formula_sum  Tm4Ge4Ru4
_cell_volume  219.38137801759862
_cell_formula_units_Z  4
loop_
  _symmetry_equiv_pos_site_id
 _symmetry_equiv_pos_as_xyz
 1  'x, y, z'
loop_
 _atom_site_type_symbol
 _atom_site_label
 _atom_site_symmetry_multiplicity
 _atom_site_fract_x
 _atom_site_fract_y
 _atom_site_fract_z
 _atom_site_fract_occupancy
 Ge  Ge1  1  0.25000  0.29377  0.10712  1
 Ge  Ge2  1  0.75000  0.70623  0.89288  1
 Ge  Ge3  1  0.25000  0.79377  0.39288  1
 Ge  Ge4  1  0.75000  0.20623  0.60712  1
 Ru  Ru1  1  0.75000  0.84240  0.56222  1
 Ru  Ru2  1  0.25000  0.15760  0.43778  1
 Ru  Ru3  1  0.75000  0.34240  0.93778  1
 Ru  Ru4  1  0.25000  0.65760  0.06222  1
 Tm  Tm1  1  0.25000  0.98826  0.80737  1
 Tm  Tm2  1  0.75000  0.01174  0.19263  1
 Tm  Tm3  1  0.25000  0.48826  0.69263  1
 Tm  Tm4  1  0.75000  0.51174  0.30737  1
