CIF file written using JARVIS-Tools package.
data_Sb2Pb2O7
_symmetry_space_group_name_H-M  'Fd-3m'
_cell_length_a       7.57601
_cell_length_b       7.57604
_cell_length_c       7.57604
_cell_angle_alpha    60.0002
_cell_angle_beta     60.0001
_cell_angle_gamma    60

_symmetry_Int_Tables_number  227
_chemical_formula_structural  Sb2Pb2O7
_chemical_formula_sum  Sb4Pb4O4
_cell_volume  307.4756712416221
_cell_formula_units_Z  2
loop_
  _symmetry_equiv_pos_site_id
 _symmetry_equiv_pos_as_xyz
 1  'x, y, z'
loop_
 _atom_site_type_symbol
 _atom_site_label
 _atom_site_symmetry_multiplicity
 _atom_site_fract_x
 _atom_site_fract_y
 _atom_site_fract_z
 _atom_site_fract_occupancy
 O  O1  1  0.90107  0.90107  0.34893  1
 O  O2  1  0.65107  0.09893  0.65107  1
 O  O3  1  0.34893  0.34893  0.90107  1
 O  O4  1  0.90107  0.34893  0.90107  1
 O  O5  1  0.09893  0.65107  0.09893  1
 O  O6  1  0.09893  0.65107  0.65107  1
 O  O7  1  0.09893  0.09893  0.65107  1
 O  O8  1  0.12500  0.12500  0.12500  1
 O  O9  1  0.65107  0.65107  0.09893  1
 O  O10  1  0.34893  0.90107  0.90107  1
 O  O11  1  0.65107  0.09893  0.09893  1
 O  O12  1  0.87500  0.87500  0.87500  1
 O  O13  1  0.90107  0.34893  0.34893  1
 O  O14  1  0.34893  0.90107  0.34893  1
 Pb  Pb1  1  0.50000  0.00000  0.50000  1
 Pb  Pb2  1  0.50000  0.50000  0.00000  1
 Pb  Pb3  1  1.00000  0.50000  0.50000  1
 Pb  Pb4  1  0.50000  0.50000  0.50000  1
 Sb  Sb1  1  0.50000  0.00000  0.00000  1
 Sb  Sb2  1  0.00000  0.50000  -0.00000  1
 Sb  Sb3  1  0.00000  -0.00000  0.00000  1
 Sb  Sb4  1  0.00000  0.00000  0.50000  1
