CIF file written using JARVIS-Tools package.
data_PRu2
_symmetry_space_group_name_H-M  'Pnma'
_cell_length_a       3.906
_cell_length_b       5.91462
_cell_length_c       7.00948
_cell_angle_alpha    90
_cell_angle_beta     90
_cell_angle_gamma    90

_symmetry_Int_Tables_number  62
_chemical_formula_structural  PRu2
_chemical_formula_sum  P4Ru8
_cell_volume  161.93620907662458
_cell_formula_units_Z  4
loop_
  _symmetry_equiv_pos_site_id
 _symmetry_equiv_pos_as_xyz
 1  'x, y, z'
loop_
 _atom_site_type_symbol
 _atom_site_label
 _atom_site_symmetry_multiplicity
 _atom_site_fract_x
 _atom_site_fract_y
 _atom_site_fract_z
 _atom_site_fract_occupancy
 P  P1  1  0.25000  0.74912  0.61041  1
 P  P2  1  0.75000  0.25088  0.38959  1
 P  P3  1  0.25000  0.24912  0.88959  1
 P  P4  1  0.75000  0.75088  0.11041  1
 Ru  Ru1  1  0.75000  0.01622  0.65334  1
 Ru  Ru2  1  0.25000  0.98378  0.34666  1
 Ru  Ru3  1  0.75000  0.51622  0.84666  1
 Ru  Ru4  1  0.25000  0.48378  0.15334  1
 Ru  Ru5  1  0.25000  0.36095  0.57782  1
 Ru  Ru6  1  0.75000  0.63905  0.42218  1
 Ru  Ru7  1  0.25000  0.86095  0.92218  1
 Ru  Ru8  1  0.75000  0.13905  0.07782  1
