CIF file written using JARVIS-Tools package.
data_Cr2NiSe4
_symmetry_space_group_name_H-M  'C2/m'
_cell_length_a       3.61231
_cell_length_b       6.27698
_cell_length_c       6.6156
_cell_angle_alpha    116.602
_cell_angle_beta     105.844
_cell_angle_gamma    90

_symmetry_Int_Tables_number  12
_chemical_formula_structural  Cr2NiSe4
_chemical_formula_sum  Cr2NiSe4
_cell_volume  127.71968903583655
_cell_formula_units_Z  1
loop_
  _symmetry_equiv_pos_site_id
 _symmetry_equiv_pos_as_xyz
 1  'x, y, z'
loop_
 _atom_site_type_symbol
 _atom_site_label
 _atom_site_symmetry_multiplicity
 _atom_site_fract_x
 _atom_site_fract_y
 _atom_site_fract_z
 _atom_site_fract_occupancy
 Cr  Cr1  1  0.25914  0.27952  0.51828  1
 Cr  Cr2  1  0.74086  0.72048  0.48172  1
 Ni  Ni1  1  0.00000  0.00000  0.00000  1
 Se  Se1  1  0.11698  0.45036  0.23395  1
 Se  Se2  1  0.88302  0.54964  0.76605  1
 Se  Se3  1  0.36806  0.02632  0.73612  1
 Se  Se4  1  0.63194  0.97368  0.26388  1
