CIF file written using JARVIS-Tools package.
data_B3C10N3
_symmetry_space_group_name_H-M  'Pmma'
_cell_length_a       5.01076
_cell_length_b       6.6753
_cell_length_c       8.66431
_cell_angle_alpha    90
_cell_angle_beta     90
_cell_angle_gamma    90

_symmetry_Int_Tables_number  51
_chemical_formula_structural  B3C10N3
_chemical_formula_sum  B6C20N6
_cell_volume  289.80663169681185
_cell_formula_units_Z  2
loop_
  _symmetry_equiv_pos_site_id
 _symmetry_equiv_pos_as_xyz
 1  'x, y, z'
loop_
 _atom_site_type_symbol
 _atom_site_label
 _atom_site_symmetry_multiplicity
 _atom_site_fract_x
 _atom_site_fract_y
 _atom_site_fract_z
 _atom_site_fract_occupancy
 B  B1  1  0.50000  0.25000  0.34360  1
 B  B2  1  0.50000  0.75000  0.65640  1
 B  B3  1  0.50000  0.75000  0.99562  1
 B  B4  1  0.00000  0.25000  0.50736  1
 B  B5  1  0.50000  0.25000  0.00438  1
 B  B6  1  0.00000  0.75000  0.49264  1
 C  C1  1  0.74519  0.75000  0.40468  1
 C  C2  1  0.00000  0.25000  0.00360  1
 C  C3  1  0.75908  0.75000  0.91109  1
 C  C4  1  0.75902  0.75000  0.74730  1
 C  C5  1  0.00000  0.75000  0.99640  1
 C  C6  1  0.24098  0.25000  0.25270  1
 C  C7  1  0.00000  0.25000  0.33352  1
 C  C8  1  0.00000  0.25000  0.83679  1
 C  C9  1  0.24092  0.75000  0.91109  1
 C  C10  1  0.74519  0.25000  0.59532  1
 C  C11  1  0.25481  0.25000  0.59532  1
 C  C12  1  0.25481  0.75000  0.40468  1
 C  C13  1  0.50000  0.75000  0.16401  1
 C  C14  1  0.24092  0.25000  0.08891  1
 C  C15  1  0.00000  0.75000  0.66648  1
 C  C16  1  0.24098  0.75000  0.74730  1
 C  C17  1  0.50000  0.25000  0.83599  1
 C  C18  1  0.75902  0.25000  0.25270  1
 C  C19  1  0.00000  0.75000  0.16321  1
 C  C20  1  0.75908  0.25000  0.08891  1
 N  N1  1  0.74863  0.75000  0.24585  1
 N  N2  1  0.50000  0.75000  0.48161  1
 N  N3  1  0.50000  0.25000  0.51839  1
 N  N4  1  0.25137  0.25000  0.75415  1
 N  N5  1  0.25137  0.75000  0.24585  1
 N  N6  1  0.74863  0.25000  0.75415  1
