CIF file written using JARVIS-Tools package.
data_ZrN
_symmetry_space_group_name_H-M  'P6_3/mmc'
_cell_length_a       3.1948
_cell_length_b       3.19478
_cell_length_c       5.51417
_cell_angle_alpha    89.9981
_cell_angle_beta     90
_cell_angle_gamma    120

_symmetry_Int_Tables_number  194
_chemical_formula_structural  ZrN
_chemical_formula_sum  Zr2N2
_cell_volume  48.7409500229605
_cell_formula_units_Z  2
loop_
  _symmetry_equiv_pos_site_id
 _symmetry_equiv_pos_as_xyz
 1  'x, y, z'
loop_
 _atom_site_type_symbol
 _atom_site_label
 _atom_site_symmetry_multiplicity
 _atom_site_fract_x
 _atom_site_fract_y
 _atom_site_fract_z
 _atom_site_fract_occupancy
 N  N1  1  0.35470  0.70940  0.25540  1
 N  N2  1  0.35470  0.70940  0.75540  1
 Zr  Zr1  1  0.02137  0.04274  0.00539  1
 Zr  Zr2  1  0.68803  0.37606  0.50540  1
