CIF file written using JARVIS-Tools package.
data_TaSe2
_symmetry_space_group_name_H-M  'P-6m2'
_cell_length_a       3.47373
_cell_length_b       3.47372
_cell_length_c       25.8433
_cell_angle_alpha    90
_cell_angle_beta     90
_cell_angle_gamma    120

_symmetry_Int_Tables_number  187
_chemical_formula_structural  TaSe2
_chemical_formula_sum  Ta4Se8
_cell_volume  270.0655838360843
_cell_formula_units_Z  4
loop_
  _symmetry_equiv_pos_site_id
 _symmetry_equiv_pos_as_xyz
 1  'x, y, z'
loop_
 _atom_site_type_symbol
 _atom_site_label
 _atom_site_symmetry_multiplicity
 _atom_site_fract_x
 _atom_site_fract_y
 _atom_site_fract_z
 _atom_site_fract_occupancy
 Se  Se1  1  0.00000  0.00000  0.31607  1
 Se  Se2  1  0.00000  0.00000  0.68393  1
 Se  Se3  1  0.33333  0.66667  0.43509  1
 Se  Se4  1  0.33333  0.66667  0.56491  1
 Se  Se5  1  0.00000  0.00000  0.18626  1
 Se  Se6  1  0.66667  0.33333  0.93506  1
 Se  Se7  1  0.00000  0.00000  0.81374  1
 Se  Se8  1  0.66667  0.33333  0.06494  1
 Ta  Ta1  1  0.66667  0.33333  0.25133  1
 Ta  Ta2  1  0.66667  0.33333  0.74867  1
 Ta  Ta3  1  0.33333  0.66667  0.00000  1
 Ta  Ta4  1  0.66667  0.33333  0.50000  1
