CIF file written using JARVIS-Tools package.
data_MnGaRu2
_symmetry_space_group_name_H-M  'Fm-3m'
_cell_length_a       4.23463
_cell_length_b       4.23467
_cell_length_c       4.23469
_cell_angle_alpha    59.9985
_cell_angle_beta     59.9994
_cell_angle_gamma    60.0003

_symmetry_Int_Tables_number  225
_chemical_formula_structural  MnGaRu2
_chemical_formula_sum  MnGaRu2
_cell_volume  53.6953830075271
_cell_formula_units_Z  1
loop_
  _symmetry_equiv_pos_site_id
 _symmetry_equiv_pos_as_xyz
 1  'x, y, z'
loop_
 _atom_site_type_symbol
 _atom_site_label
 _atom_site_symmetry_multiplicity
 _atom_site_fract_x
 _atom_site_fract_y
 _atom_site_fract_z
 _atom_site_fract_occupancy
 Ga  Ga1  1  0.25001  0.24999  0.25000  1
 Mn  Mn1  1  0.75000  0.75002  0.74999  1
 Ru  Ru1  1  1.00000  1.00000  1.00000  1
 Ru  Ru2  1  0.50000  0.50000  0.50001  1
