CIF file written using JARVIS-Tools package.
data_TcB2
_symmetry_space_group_name_H-M  'P6_3/mmc'
_cell_length_a       2.90326
_cell_length_b       2.90326
_cell_length_c       7.47799
_cell_angle_alpha    90
_cell_angle_beta     90
_cell_angle_gamma    120

_symmetry_Int_Tables_number  194
_chemical_formula_structural  TcB2
_chemical_formula_sum  Tc2B4
_cell_volume  54.58688776992174
_cell_formula_units_Z  2
loop_
  _symmetry_equiv_pos_site_id
 _symmetry_equiv_pos_as_xyz
 1  'x, y, z'
loop_
 _atom_site_type_symbol
 _atom_site_label
 _atom_site_symmetry_multiplicity
 _atom_site_fract_x
 _atom_site_fract_y
 _atom_site_fract_z
 _atom_site_fract_occupancy
 B  B1  1  0.33333  0.66667  0.04722  1
 B  B2  1  0.66667  0.33333  0.95278  1
 B  B3  1  0.66667  0.33333  0.54722  1
 B  B4  1  0.33333  0.66667  0.45278  1
 Tc  Tc1  1  0.33333  0.66667  0.75000  1
 Tc  Tc2  1  0.66667  0.33333  0.25000  1
