CIF file written using JARVIS-Tools package.
data_Te2MoWS2
_symmetry_space_group_name_H-M  'P3m1'
_cell_length_a       3.3624
_cell_length_b       3.36239
_cell_length_c       39.7027
_cell_angle_alpha    89.9987
_cell_angle_beta     90
_cell_angle_gamma    120

_symmetry_Int_Tables_number  156
_chemical_formula_structural  Te2MoWS2
_chemical_formula_sum  Te4Mo2W2S4
_cell_volume  388.7298756575773
_cell_formula_units_Z  2
loop_
  _symmetry_equiv_pos_site_id
 _symmetry_equiv_pos_as_xyz
 1  'x, y, z'
loop_
 _atom_site_type_symbol
 _atom_site_label
 _atom_site_symmetry_multiplicity
 _atom_site_fract_x
 _atom_site_fract_y
 _atom_site_fract_z
 _atom_site_fract_occupancy
 Mo  Mo1  1  0.33326  0.66652  0.09219  1
 Mo  Mo2  1  0.66674  0.33348  0.28335  1
 S  S1  1  0.33335  0.66670  0.69565  1
 S  S2  1  0.66665  0.33331  0.43159  1
 S  S3  1  0.66665  0.33329  0.50808  1
 S  S4  1  0.33336  0.66671  0.61925  1
 Te  Te1  1  0.33340  0.66680  0.33106  1
 Te  Te2  1  0.66661  0.33323  0.04468  1
 Te  Te3  1  0.66658  0.33315  0.13983  1
 Te  Te4  1  0.33340  0.66681  0.23568  1
 W  W1  1  0.33331  0.66663  0.46987  1
 W  W2  1  0.66668  0.33337  0.65752  1
