CIF file written using JARVIS-Tools package.
data_ZrMnP
_symmetry_space_group_name_H-M  'Pnma'
_cell_length_a       3.80839
_cell_length_b       6.27919
_cell_length_c       7.22266
_cell_angle_alpha    90
_cell_angle_beta     90
_cell_angle_gamma    90

_symmetry_Int_Tables_number  62
_chemical_formula_structural  ZrMnP
_chemical_formula_sum  Zr4Mn4P4
_cell_volume  172.7195520513
_cell_formula_units_Z  4
loop_
  _symmetry_equiv_pos_site_id
 _symmetry_equiv_pos_as_xyz
 1  'x, y, z'
loop_
 _atom_site_type_symbol
 _atom_site_label
 _atom_site_symmetry_multiplicity
 _atom_site_fract_x
 _atom_site_fract_y
 _atom_site_fract_z
 _atom_site_fract_occupancy
 Mn  Mn1  1  0.75000  0.34860  0.93824  1
 Mn  Mn2  1  0.25000  0.15140  0.43824  1
 Mn  Mn3  1  0.75000  0.84860  0.56176  1
 Mn  Mn4  1  0.25000  0.65140  0.06176  1
 P  P1  1  0.25000  0.28580  0.11636  1
 P  P2  1  0.25000  0.78580  0.38364  1
 P  P3  1  0.75000  0.71420  0.88364  1
 P  P4  1  0.75000  0.21420  0.61636  1
 Zr  Zr1  1  0.25000  0.51636  0.68431  1
 Zr  Zr2  1  0.25000  0.01636  0.81569  1
 Zr  Zr3  1  0.75000  0.98364  0.18431  1
 Zr  Zr4  1  0.75000  0.48364  0.31569  1
