CIF file written using JARVIS-Tools package.
data_TaFeP
_symmetry_space_group_name_H-M  'Pnma'
_cell_length_a       3.59865
_cell_length_b       6.13476
_cell_length_c       6.952
_cell_angle_alpha    90
_cell_angle_beta     90
_cell_angle_gamma    90

_symmetry_Int_Tables_number  62
_chemical_formula_structural  TaFeP
_chemical_formula_sum  Ta4Fe4P4
_cell_volume  153.47805100870087
_cell_formula_units_Z  4
loop_
  _symmetry_equiv_pos_site_id
 _symmetry_equiv_pos_as_xyz
 1  'x, y, z'
loop_
 _atom_site_type_symbol
 _atom_site_label
 _atom_site_symmetry_multiplicity
 _atom_site_fract_x
 _atom_site_fract_y
 _atom_site_fract_z
 _atom_site_fract_occupancy
 Fe  Fe1  1  0.75000  0.35788  0.93653  1
 Fe  Fe2  1  0.25000  0.14212  0.43653  1
 Fe  Fe3  1  0.75000  0.85788  0.56347  1
 Fe  Fe4  1  0.25000  0.64212  0.06347  1
 P  P1  1  0.25000  0.77700  0.38076  1
 P  P2  1  0.25000  0.27700  0.11924  1
 P  P3  1  0.75000  0.22300  0.61924  1
 P  P4  1  0.75000  0.72300  0.88076  1
 Ta  Ta1  1  0.25000  0.52202  0.67624  1
 Ta  Ta2  1  0.25000  0.02202  0.82376  1
 Ta  Ta3  1  0.75000  0.97798  0.17624  1
 Ta  Ta4  1  0.75000  0.47798  0.32376  1
