CIF file written using JARVIS-Tools package.
data_Te2MoWSeS
_symmetry_space_group_name_H-M  'P3m1'
_cell_length_a       3.40129
_cell_length_b       3.40128
_cell_length_c       36.5568
_cell_angle_alpha    90
_cell_angle_beta     90
_cell_angle_gamma    120

_symmetry_Int_Tables_number  156
_chemical_formula_structural  Te2MoWSeS
_chemical_formula_sum  Te4Mo2W2Se2S2
_cell_volume  366.2554189571832
_cell_formula_units_Z  2
loop_
  _symmetry_equiv_pos_site_id
 _symmetry_equiv_pos_as_xyz
 1  'x, y, z'
loop_
 _atom_site_type_symbol
 _atom_site_label
 _atom_site_symmetry_multiplicity
 _atom_site_fract_x
 _atom_site_fract_y
 _atom_site_fract_z
 _atom_site_fract_occupancy
 Mo  Mo1  1  0.33337  0.66673  0.08775  1
 Mo  Mo2  1  0.66667  0.33335  0.28787  1
 S  S1  1  0.33336  0.66672  0.69128  1
 S  S2  1  0.33336  0.66671  0.60876  1
 Se  Se1  1  0.66659  0.33319  0.43192  1
 Se  Se2  1  0.66661  0.33322  0.52254  1
 Te  Te1  1  0.33333  0.66667  0.33924  1
 Te  Te2  1  0.66670  0.33340  0.03648  1
 Te  Te3  1  0.66670  0.33340  0.13914  1
 Te  Te4  1  0.33335  0.66670  0.23651  1
 W  W1  1  0.33327  0.66654  0.47723  1
 W  W2  1  0.66669  0.33338  0.65003  1
