CIF file written using JARVIS-Tools package.
data_Te2MoWSe2
_symmetry_space_group_name_H-M  'P3m1'
_cell_length_a       3.4408
_cell_length_b       3.44076
_cell_length_c       35.7512
_cell_angle_alpha    90.0003
_cell_angle_beta     90
_cell_angle_gamma    120

_symmetry_Int_Tables_number  156
_chemical_formula_structural  Te2MoWSe2
_chemical_formula_sum  Te4Mo2W2Se4
_cell_volume  366.55105456588024
_cell_formula_units_Z  2
loop_
  _symmetry_equiv_pos_site_id
 _symmetry_equiv_pos_as_xyz
 1  'x, y, z'
loop_
 _atom_site_type_symbol
 _atom_site_label
 _atom_site_symmetry_multiplicity
 _atom_site_fract_x
 _atom_site_fract_y
 _atom_site_fract_z
 _atom_site_fract_occupancy
 Mo  Mo1  1  0.33360  0.66720  0.08162  1
 Mo  Mo2  1  0.66678  0.33357  0.28479  1
 Se  Se1  1  0.33301  0.66602  0.70519  1
 Se  Se2  1  0.66660  0.33321  0.43127  1
 Se  Se3  1  0.66656  0.33312  0.52316  1
 Se  Se4  1  0.33307  0.66615  0.61333  1
 Te  Te1  1  0.33342  0.66684  0.33680  1
 Te  Te2  1  0.66694  0.33389  0.02966  1
 Te  Te3  1  0.66691  0.33381  0.13368  1
 Te  Te4  1  0.33349  0.66699  0.23275  1
 W  W1  1  0.33324  0.66649  0.47723  1
 W  W2  1  0.66636  0.33272  0.65929  1
