CIF file written using JARVIS-Tools package.
data_RuBr3
_symmetry_space_group_name_H-M  'P6_3/mcm'
_cell_length_a       5.88576
_cell_length_b       6.45183
_cell_length_c       11.1742
_cell_angle_alpha    90
_cell_angle_beta     90
_cell_angle_gamma    90

_symmetry_Int_Tables_number  193
_chemical_formula_structural  RuBr3
_chemical_formula_sum  Ru4Br2
_cell_volume  424.3280720698922
_cell_formula_units_Z  4
loop_
  _symmetry_equiv_pos_site_id
 _symmetry_equiv_pos_as_xyz
 1  'x, y, z'
loop_
 _atom_site_type_symbol
 _atom_site_label
 _atom_site_symmetry_multiplicity
 _atom_site_fract_x
 _atom_site_fract_y
 _atom_site_fract_z
 _atom_site_fract_occupancy
 Br  Br1  1  0.00000  0.93410  0.50000  1
 Br  Br2  1  0.50000  0.06590  0.00000  1
 Br  Br3  1  0.50000  0.56596  0.50000  1
 Br  Br4  1  0.00000  0.43404  0.00000  1
 Br  Br5  1  0.00000  0.40798  0.34202  1
 Br  Br6  1  0.50000  0.59202  0.15798  1
 Br  Br7  1  0.00000  0.40798  0.65798  1
 Br  Br8  1  0.50000  0.59202  0.84202  1
 Br  Br9  1  0.00000  0.90793  0.15797  1
 Br  Br10  1  0.50000  0.09207  0.34203  1
 Br  Br11  1  0.00000  0.90793  0.84203  1
 Br  Br12  1  0.50000  0.09207  0.65797  1
 Ru  Ru1  1  0.75000  0.25003  0.50000  1
 Ru  Ru2  1  0.25000  0.74997  0.00000  1
 Ru  Ru3  1  0.25000  0.25003  0.50000  1
 Ru  Ru4  1  0.75000  0.74997  0.00000  1
