CIF file written using JARVIS-Tools package.
data_YbH2
_symmetry_space_group_name_H-M  'Pnma'
_cell_length_a       3.50237
_cell_length_b       5.75831
_cell_length_c       6.67172
_cell_angle_alpha    90
_cell_angle_beta     90
_cell_angle_gamma    90

_symmetry_Int_Tables_number  62
_chemical_formula_structural  YbH2
_chemical_formula_sum  Yb4H8
_cell_volume  134.55361431638474
_cell_formula_units_Z  4
loop_
  _symmetry_equiv_pos_site_id
 _symmetry_equiv_pos_as_xyz
 1  'x, y, z'
loop_
 _atom_site_type_symbol
 _atom_site_label
 _atom_site_symmetry_multiplicity
 _atom_site_fract_x
 _atom_site_fract_y
 _atom_site_fract_z
 _atom_site_fract_occupancy
 H  H1  1  0.75000  0.14599  0.07130  1
 H  H2  1  0.25000  0.47243  0.17937  1
 H  H3  1  0.25000  0.97243  0.32063  1
 H  H4  1  0.75000  0.64599  0.42870  1
 H  H5  1  0.25000  0.35401  0.57130  1
 H  H6  1  0.75000  0.02757  0.67937  1
 H  H7  1  0.75000  0.52757  0.82063  1
 H  H8  1  0.25000  0.85401  0.92870  1
 Yb  Yb1  1  0.75000  0.76090  0.11319  1
 Yb  Yb2  1  0.75000  0.26090  0.38681  1
 Yb  Yb3  1  0.25000  0.73910  0.61319  1
 Yb  Yb4  1  0.25000  0.23910  0.88681  1
