CIF file written using JARVIS-Tools package.
data_ReN2
_symmetry_space_group_name_H-M  'P6_3/mmc'
_cell_length_a       2.94092
_cell_length_b       2.94092
_cell_length_c       7.75276
_cell_angle_alpha    90
_cell_angle_beta     90
_cell_angle_gamma    120

_symmetry_Int_Tables_number  194
_chemical_formula_structural  ReN2
_chemical_formula_sum  Re2N4
_cell_volume  58.0700905769447
_cell_formula_units_Z  2
loop_
  _symmetry_equiv_pos_site_id
 _symmetry_equiv_pos_as_xyz
 1  'x, y, z'
loop_
 _atom_site_type_symbol
 _atom_site_label
 _atom_site_symmetry_multiplicity
 _atom_site_fract_x
 _atom_site_fract_y
 _atom_site_fract_z
 _atom_site_fract_occupancy
 N  N1  1  0.00000  0.00000  0.41323  1
 N  N2  1  0.00000  0.00000  0.58677  1
 N  N3  1  0.00000  0.00000  0.91323  1
 N  N4  1  0.00000  0.00000  0.08677  1
 Re  Re1  1  0.66667  0.33333  0.25000  1
 Re  Re2  1  0.33333  0.66667  0.75000  1
