CIF file written using JARVIS-Tools package.
data_VSn2
_symmetry_space_group_name_H-M  'Fddd'
_cell_length_a       5.50194
_cell_length_b       5.50194
_cell_length_c       9.78595
_cell_angle_alpha    98.1745
_cell_angle_beta     98.1745
_cell_angle_gamma    119.617

_symmetry_Int_Tables_number  70
_chemical_formula_structural  VSn2
_chemical_formula_sum  V4Sn8
_cell_volume  247.02255520308313
_cell_formula_units_Z  4
loop_
  _symmetry_equiv_pos_site_id
 _symmetry_equiv_pos_as_xyz
 1  'x, y, z'
loop_
 _atom_site_type_symbol
 _atom_site_label
 _atom_site_symmetry_multiplicity
 _atom_site_fract_x
 _atom_site_fract_y
 _atom_site_fract_z
 _atom_site_fract_occupancy
 Sn  Sn1  1  0.95886  0.04114  0.75000  1
 Sn  Sn2  1  0.29114  0.70886  0.75000  1
 Sn  Sn3  1  0.04114  0.95886  0.25000  1
 Sn  Sn4  1  0.70886  0.29114  0.25000  1
 Sn  Sn5  1  0.54102  0.29102  0.58204  1
 Sn  Sn6  1  0.70898  0.45898  0.91796  1
 Sn  Sn7  1  0.45898  0.70898  0.41796  1
 Sn  Sn8  1  0.29102  0.54102  0.08204  1
 V  V1  1  0.25252  0.00252  0.00504  1
 V  V2  1  0.99748  0.74748  0.49496  1
 V  V3  1  0.74748  0.99748  0.99496  1
 V  V4  1  0.00252  0.25252  0.50504  1
