CIF file written using JARVIS-Tools package.
data_KHgF3
_symmetry_space_group_name_H-M  'Pm-3m'
_cell_length_a       6.4532
_cell_length_b       6.45504
_cell_length_c       9.12893
_cell_angle_alpha    90
_cell_angle_beta     90
_cell_angle_gamma    90

_symmetry_Int_Tables_number  221
_chemical_formula_structural  KHgF3
_chemical_formula_sum  K4Hg4F2
_cell_volume  380.27155369949224
_cell_formula_units_Z  4
loop_
  _symmetry_equiv_pos_site_id
 _symmetry_equiv_pos_as_xyz
 1  'x, y, z'
loop_
 _atom_site_type_symbol
 _atom_site_label
 _atom_site_symmetry_multiplicity
 _atom_site_fract_x
 _atom_site_fract_y
 _atom_site_fract_z
 _atom_site_fract_occupancy
 F  F1  1  0.50000  0.00000  0.25000  1
 F  F2  1  0.25000  0.75000  0.00000  1
 F  F3  1  0.75000  0.25000  0.50000  1
 F  F4  1  0.25000  0.25000  0.00000  1
 F  F5  1  0.25000  0.25000  0.50000  1
 F  F6  1  0.75000  0.25000  0.00000  1
 F  F7  1  0.25000  0.75000  0.50000  1
 F  F8  1  0.75000  0.75000  0.00000  1
 F  F9  1  0.75000  0.75000  0.50000  1
 F  F10  1  0.50000  0.00000  0.75000  1
 F  F11  1  0.00000  0.50000  0.25000  1
 F  F12  1  0.00000  0.50000  0.75000  1
 Hg  Hg1  1  0.50000  0.00000  0.00000  1
 Hg  Hg2  1  0.00000  0.50000  0.00000  1
 Hg  Hg3  1  0.50000  0.00000  0.50000  1
 Hg  Hg4  1  0.00000  0.50000  0.50000  1
 K  K1  1  0.00000  0.00000  0.75000  1
 K  K2  1  0.50000  0.50000  0.75000  1
 K  K3  1  0.50000  0.50000  0.25000  1
 K  K4  1  0.00000  0.00000  0.25000  1
