CIF file written using JARVIS-Tools package.
data_Zn3In2S6
_symmetry_space_group_name_H-M  'P3m1'
_cell_length_a       3.89924
_cell_length_b       3.89924
_cell_length_c       18.4047
_cell_angle_alpha    90
_cell_angle_beta     90
_cell_angle_gamma    120

_symmetry_Int_Tables_number  156
_chemical_formula_structural  Zn3In2S6
_chemical_formula_sum  Zn3In2S6
_cell_volume  242.33719963063427
_cell_formula_units_Z  1
loop_
  _symmetry_equiv_pos_site_id
 _symmetry_equiv_pos_as_xyz
 1  'x, y, z'
loop_
 _atom_site_type_symbol
 _atom_site_label
 _atom_site_symmetry_multiplicity
 _atom_site_fract_x
 _atom_site_fract_y
 _atom_site_fract_z
 _atom_site_fract_occupancy
 In  In1  1  0.66667  0.33333  0.42613  1
 In  In2  1  0.33333  0.66667  0.03795  1
 S  S1  1  0.33333  0.66667  0.83772  1
 S  S2  1  0.00000  0.00000  0.66599  1
 S  S3  1  0.33333  0.66667  0.17624  1
 S  S4  1  0.00000  0.00000  0.34589  1
 S  S5  1  0.00000  0.00000  0.98160  1
 S  S6  1  0.33333  0.66667  0.49846  1
 Zn  Zn1  1  0.00000  0.00000  0.79993  1
 Zn  Zn2  1  0.33333  0.66667  0.63199  1
 Zn  Zn3  1  0.00000  0.00000  0.22251  1
