CIF file written using JARVIS-Tools package.
data_BPO4
_symmetry_space_group_name_H-M  'P3_121'
_cell_length_a       4.49385
_cell_length_b       4.49385
_cell_length_c       9.9958
_cell_angle_alpha    90
_cell_angle_beta     90
_cell_angle_gamma    120

_symmetry_Int_Tables_number  152
_chemical_formula_structural  BPO4
_chemical_formula_sum  B3P3O2
_cell_volume  174.81814271174431
_cell_formula_units_Z  3
loop_
  _symmetry_equiv_pos_site_id
 _symmetry_equiv_pos_as_xyz
 1  'x, y, z'
loop_
 _atom_site_type_symbol
 _atom_site_label
 _atom_site_symmetry_multiplicity
 _atom_site_fract_x
 _atom_site_fract_y
 _atom_site_fract_z
 _atom_site_fract_occupancy
 B  B1  1  0.46487  -0.00000  0.33333  1
 B  B2  1  -0.00000  0.46487  0.66667  1
 B  B3  1  0.53513  0.53513  0.00000  1
 O  O1  1  0.72797  0.13454  0.71841  1
 O  O2  1  0.28325  0.40498  0.10999  1
 O  O3  1  0.71675  0.12173  0.22334  1
 O  O4  1  0.40657  0.27203  0.38508  1
 O  O5  1  0.59502  0.87827  0.44332  1
 O  O6  1  0.86546  0.59343  0.05175  1
 O  O7  1  0.59343  0.86546  0.94825  1
 O  O8  1  0.13454  0.72797  0.28159  1
 O  O9  1  0.87827  0.59502  0.55668  1
 O  O10  1  0.40498  0.28325  0.89001  1
 O  O11  1  0.27203  0.40657  0.61492  1
 O  O12  1  0.12173  0.71675  0.77666  1
 P  P1  1  -0.00000  0.46428  0.16667  1
 P  P2  1  0.53572  0.53572  0.50000  1
 P  P3  1  0.46428  -0.00000  0.83333  1
