CIF file written using JARVIS-Tools package.
data_CoBMo
_symmetry_space_group_name_H-M  'Pnma'
_cell_length_a       3.24752
_cell_length_b       5.75129
_cell_length_c       6.60962
_cell_angle_alpha    90
_cell_angle_beta     90
_cell_angle_gamma    90

_symmetry_Int_Tables_number  62
_chemical_formula_structural  CoBMo
_chemical_formula_sum  Co4B4Mo4
_cell_volume  123.45077850889544
_cell_formula_units_Z  4
loop_
  _symmetry_equiv_pos_site_id
 _symmetry_equiv_pos_as_xyz
 1  'x, y, z'
loop_
 _atom_site_type_symbol
 _atom_site_label
 _atom_site_symmetry_multiplicity
 _atom_site_fract_x
 _atom_site_fract_y
 _atom_site_fract_z
 _atom_site_fract_occupancy
 B  B1  1  0.25000  0.77171  0.37480  1
 B  B2  1  0.75000  0.22829  0.62520  1
 B  B3  1  0.25000  0.27171  0.12520  1
 B  B4  1  0.75000  0.72829  0.87480  1
 Co  Co1  1  0.75000  0.85601  0.55744  1
 Co  Co2  1  0.25000  0.14399  0.44256  1
 Co  Co3  1  0.75000  0.35601  0.94256  1
 Co  Co4  1  0.25000  0.64399  0.05744  1
 Mo  Mo1  1  0.25000  0.52774  0.67383  1
 Mo  Mo2  1  0.75000  0.47226  0.32617  1
 Mo  Mo3  1  0.25000  0.02774  0.82617  1
 Mo  Mo4  1  0.75000  0.97226  0.17383  1
