CIF file written using JARVIS-Tools package.
data_CoH2O2
_symmetry_space_group_name_H-M  'Cm'
_cell_length_a       2.83768
_cell_length_b       2.97973
_cell_length_c       6.31677
_cell_angle_alpha    90
_cell_angle_beta     64.009
_cell_angle_gamma    121.67

_symmetry_Int_Tables_number  8
_chemical_formula_structural  CoH2O2
_chemical_formula_sum  CoH2O2
_cell_volume  38.96856942488553
_cell_formula_units_Z  1
loop_
  _symmetry_equiv_pos_site_id
 _symmetry_equiv_pos_as_xyz
 1  'x, y, z'
loop_
 _atom_site_type_symbol
 _atom_site_label
 _atom_site_symmetry_multiplicity
 _atom_site_fract_x
 _atom_site_fract_y
 _atom_site_fract_z
 _atom_site_fract_occupancy
 Co  Co1  1  0.04199  0.02100  0.12731  1
 H  H1  1  0.17506  0.58753  -0.26932  1
 H  H2  1  -0.12983  0.43508  0.55729  1
 O  O1  1  0.75766  0.37883  0.73840  1
 O  O2  1  0.15512  0.57756  0.27652  1
