CIF file written using JARVIS-Tools package.
data_YB2Ir2
_symmetry_space_group_name_H-M  'Fddd'
_cell_length_a       5.49722
_cell_length_b       5.49723
_cell_length_c       6.18664
_cell_angle_alpha    104.254
_cell_angle_beta     104.254
_cell_angle_gamma    116.474

_symmetry_Int_Tables_number  70
_chemical_formula_structural  YB2Ir2
_chemical_formula_sum  Y2B4Ir4
_cell_volume  147.9159763534479
_cell_formula_units_Z  2
loop_
  _symmetry_equiv_pos_site_id
 _symmetry_equiv_pos_as_xyz
 1  'x, y, z'
loop_
 _atom_site_type_symbol
 _atom_site_label
 _atom_site_symmetry_multiplicity
 _atom_site_fract_x
 _atom_site_fract_y
 _atom_site_fract_z
 _atom_site_fract_occupancy
 B  B1  1  0.80555  0.19445  0.75000  1
 B  B2  1  0.55555  0.44445  0.25000  1
 B  B3  1  0.44445  0.55555  0.75000  1
 B  B4  1  0.19445  0.80555  0.25000  1
 Ir  Ir1  1  0.75248  0.50248  0.00496  1
 Ir  Ir2  1  0.50248  0.75248  0.50496  1
 Ir  Ir3  1  0.24752  0.49752  0.99504  1
 Ir  Ir4  1  0.49752  0.24752  0.49504  1
 Y  Y1  1  0.12500  0.87500  0.75000  1
 Y  Y2  1  0.87500  0.12500  0.25000  1
