CIF file written using JARVIS-Tools package.
data_AgTeO3
_symmetry_space_group_name_H-M  'P2_1/m'
_cell_length_a       5.48775
_cell_length_b       7.49937
_cell_length_c       6.97731
_cell_angle_alpha    90
_cell_angle_beta     101.275
_cell_angle_gamma    90

_symmetry_Int_Tables_number  11
_chemical_formula_structural  AgTeO3
_chemical_formula_sum  Ag4Te4O2
_cell_volume  281.6071355352136
_cell_formula_units_Z  4
loop_
  _symmetry_equiv_pos_site_id
 _symmetry_equiv_pos_as_xyz
 1  'x, y, z'
loop_
 _atom_site_type_symbol
 _atom_site_label
 _atom_site_symmetry_multiplicity
 _atom_site_fract_x
 _atom_site_fract_y
 _atom_site_fract_z
 _atom_site_fract_occupancy
 Ag  Ag1  1  0.00000  0.50000  0.00000  1
 Ag  Ag2  1  0.00000  0.00000  0.00000  1
 Ag  Ag3  1  0.42999  0.75000  0.17441  1
 Ag  Ag4  1  0.57001  0.25000  0.82559  1
 O  O1  1  0.76360  0.48301  0.67199  1
 O  O2  1  0.74105  0.43473  0.27141  1
 O  O3  1  0.33162  0.25000  0.05178  1
 O  O4  1  0.10964  0.25000  0.56116  1
 O  O5  1  0.25895  0.93473  0.72859  1
 O  O6  1  0.89036  0.75000  0.43884  1
 O  O7  1  0.25895  0.56527  0.72859  1
 O  O8  1  0.23640  0.98301  0.32801  1
 O  O9  1  0.76360  0.01699  0.67199  1
 O  O10  1  0.23640  0.51699  0.32801  1
 O  O11  1  0.74105  0.06527  0.27141  1
 O  O12  1  0.66838  0.75000  0.94822  1
 Te  Te1  1  0.00000  0.50000  0.50000  1
 Te  Te2  1  0.00000  0.00000  0.50000  1
 Te  Te3  1  0.51884  0.75000  0.68317  1
 Te  Te4  1  0.48116  0.25000  0.31683  1
