CIF file written using JARVIS-Tools package.
data_Te3Mo2Se
_symmetry_space_group_name_H-M  'P3m1'
_cell_length_a       3.50519
_cell_length_b       3.50521
_cell_length_c       37.3188
_cell_angle_alpha    90.0006
_cell_angle_beta     90
_cell_angle_gamma    120

_symmetry_Int_Tables_number  156
_chemical_formula_structural  Te3Mo2Se
_chemical_formula_sum  Te6Mo4Se2
_cell_volume  397.08614259219485
_cell_formula_units_Z  2
loop_
  _symmetry_equiv_pos_site_id
 _symmetry_equiv_pos_as_xyz
 1  'x, y, z'
loop_
 _atom_site_type_symbol
 _atom_site_label
 _atom_site_symmetry_multiplicity
 _atom_site_fract_x
 _atom_site_fract_y
 _atom_site_fract_z
 _atom_site_fract_occupancy
 Mo  Mo1  1  0.33347  0.66695  0.09469  1
 Mo  Mo2  1  0.33329  0.66657  0.46942  1
 Mo  Mo3  1  0.66673  0.33345  0.27668  1
 Mo  Mo4  1  0.66651  0.33302  0.66213  1
 Se  Se1  1  0.66679  0.33358  0.05141  1
 Se  Se2  1  0.66683  0.33366  0.13805  1
 Te  Te1  1  0.33339  0.66679  0.32587  1
 Te  Te2  1  0.33318  0.66636  0.71124  1
 Te  Te3  1  0.66662  0.33324  0.42022  1
 Te  Te4  1  0.66662  0.33324  0.51860  1
 Te  Te5  1  0.33339  0.66678  0.22750  1
 Te  Te6  1  0.33318  0.66636  0.61292  1
