CIF file written using JARVIS-Tools package.
data_Hf3Si2
_symmetry_space_group_name_H-M  'P4/mbm'
_cell_length_a       7.03483
_cell_length_b       7.03483
_cell_length_c       3.6664
_cell_angle_alpha    90
_cell_angle_beta     90
_cell_angle_gamma    90

_symmetry_Int_Tables_number  127
_chemical_formula_structural  Hf3Si2
_chemical_formula_sum  Hf6Si4
_cell_volume  181.4457110485093
_cell_formula_units_Z  2
loop_
  _symmetry_equiv_pos_site_id
 _symmetry_equiv_pos_as_xyz
 1  'x, y, z'
loop_
 _atom_site_type_symbol
 _atom_site_label
 _atom_site_symmetry_multiplicity
 _atom_site_fract_x
 _atom_site_fract_y
 _atom_site_fract_z
 _atom_site_fract_occupancy
 Hf  Hf1  1  0.82608  0.67392  0.50000  1
 Hf  Hf2  1  0.32608  0.82608  0.50000  1
 Hf  Hf3  1  0.17392  0.32608  0.50000  1
 Hf  Hf4  1  0.67392  0.17392  0.50000  1
 Hf  Hf5  1  0.50000  0.50000  0.00000  1
 Hf  Hf6  1  0.00000  0.00000  0.00000  1
 Si  Si1  1  0.12419  0.62419  0.00000  1
 Si  Si2  1  0.62419  0.87581  0.00000  1
 Si  Si3  1  0.37581  0.12419  0.00000  1
 Si  Si4  1  0.87581  0.37581  0.00000  1
