CIF file written using JARVIS-Tools package.
data_Dy2InPd2
_symmetry_space_group_name_H-M  'P4/mbm'
_cell_length_a       7.72484
_cell_length_b       7.72484
_cell_length_c       3.67651
_cell_angle_alpha    90
_cell_angle_beta     90
_cell_angle_gamma    90

_symmetry_Int_Tables_number  127
_chemical_formula_structural  Dy2InPd2
_chemical_formula_sum  Dy4In2Pd4
_cell_volume  219.38915647617821
_cell_formula_units_Z  2
loop_
  _symmetry_equiv_pos_site_id
 _symmetry_equiv_pos_as_xyz
 1  'x, y, z'
loop_
 _atom_site_type_symbol
 _atom_site_label
 _atom_site_symmetry_multiplicity
 _atom_site_fract_x
 _atom_site_fract_y
 _atom_site_fract_z
 _atom_site_fract_occupancy
 Dy  Dy1  1  0.32728  0.82728  0.50000  1
 Dy  Dy2  1  0.82728  0.67272  0.50000  1
 Dy  Dy3  1  0.17272  0.32728  0.50000  1
 Dy  Dy4  1  0.67272  0.17272  0.50000  1
 In  In1  1  0.00000  0.00000  0.00000  1
 In  In2  1  0.50000  0.50000  0.00000  1
 Pd  Pd1  1  0.37174  0.12826  0.00000  1
 Pd  Pd2  1  0.87174  0.37174  0.00000  1
 Pd  Pd3  1  0.12826  0.62826  0.00000  1
 Pd  Pd4  1  0.62826  0.87174  0.00000  1
