CIF file written using JARVIS-Tools package.
data_In3Co
_symmetry_space_group_name_H-M  'P4_2/mnm'
_cell_length_a       6.88222
_cell_length_b       6.88222
_cell_length_c       7.15269
_cell_angle_alpha    90
_cell_angle_beta     90
_cell_angle_gamma    90

_symmetry_Int_Tables_number  136
_chemical_formula_structural  In3Co
_chemical_formula_sum  In2Co4
_cell_volume  338.78670405700257
_cell_formula_units_Z  4
loop_
  _symmetry_equiv_pos_site_id
 _symmetry_equiv_pos_as_xyz
 1  'x, y, z'
loop_
 _atom_site_type_symbol
 _atom_site_label
 _atom_site_symmetry_multiplicity
 _atom_site_fract_x
 _atom_site_fract_y
 _atom_site_fract_z
 _atom_site_fract_occupancy
 Co  Co1  1  0.34666  0.34666  0.00000  1
 Co  Co2  1  0.15334  0.84666  0.50000  1
 Co  Co3  1  0.84666  0.15334  0.50000  1
 Co  Co4  1  0.65334  0.65334  0.00000  1
 In  In1  1  0.00000  0.50000  0.00000  1
 In  In2  1  0.00000  0.50000  0.50000  1
 In  In3  1  0.50000  0.00000  0.50000  1
 In  In4  1  0.50000  0.00000  0.00000  1
 In  In5  1  0.15353  0.15353  0.25707  1
 In  In6  1  0.34647  0.65353  0.75707  1
 In  In7  1  0.65353  0.34647  0.75707  1
 In  In8  1  0.65353  0.34647  0.24293  1
 In  In9  1  0.34647  0.65353  0.24293  1
 In  In10  1  0.84647  0.84647  0.25707  1
 In  In11  1  0.15353  0.15353  0.74293  1
 In  In12  1  0.84647  0.84647  0.74293  1
