CIF file written using JARVIS-Tools package.
data_InAs
_symmetry_space_group_name_H-M  'P6_3mc'
_cell_length_a       4.35094
_cell_length_b       4.35094
_cell_length_c       7.16481
_cell_angle_alpha    90
_cell_angle_beta     90
_cell_angle_gamma    120

_symmetry_Int_Tables_number  186
_chemical_formula_structural  InAs
_chemical_formula_sum  In2As2
_cell_volume  117.46278038066411
_cell_formula_units_Z  2
loop_
  _symmetry_equiv_pos_site_id
 _symmetry_equiv_pos_as_xyz
 1  'x, y, z'
loop_
 _atom_site_type_symbol
 _atom_site_label
 _atom_site_symmetry_multiplicity
 _atom_site_fract_x
 _atom_site_fract_y
 _atom_site_fract_z
 _atom_site_fract_occupancy
 As  As1  1  0.66667  0.33333  0.12526  1
 As  As2  1  0.33333  0.66667  0.62526  1
 In  In1  1  0.66667  0.33333  0.49924  1
 In  In2  1  0.33333  0.66667  0.99924  1
