CIF file written using JARVIS-Tools package.
data_PaB3
_symmetry_space_group_name_H-M  'P6_3/mmc'
_cell_length_a       5.43903
_cell_length_b       5.439
_cell_length_c       3.49339
_cell_angle_alpha    89.9999
_cell_angle_beta     90.0009
_cell_angle_gamma    119.999

_symmetry_Int_Tables_number  194
_chemical_formula_structural  PaB3
_chemical_formula_sum  Pa2B6
_cell_volume  89.49956384154359
_cell_formula_units_Z  2
loop_
  _symmetry_equiv_pos_site_id
 _symmetry_equiv_pos_as_xyz
 1  'x, y, z'
loop_
 _atom_site_type_symbol
 _atom_site_label
 _atom_site_symmetry_multiplicity
 _atom_site_fract_x
 _atom_site_fract_y
 _atom_site_fract_z
 _atom_site_fract_occupancy
 B  B1  1  0.88768  0.11232  0.75003  1
 B  B2  1  0.22464  0.11232  0.74998  1
 B  B3  1  0.88768  0.77536  0.74998  1
 B  B4  1  0.11232  0.88768  0.24997  1
 B  B5  1  0.77536  0.88768  0.25002  1
 B  B6  1  0.11232  0.22464  0.25002  1
 Pa  Pa1  1  0.66667  0.33333  0.25000  1
 Pa  Pa2  1  0.33333  0.66667  0.75000  1
