CIF file written using JARVIS-Tools package.
data_NbCrP
_symmetry_space_group_name_H-M  'Pnma'
_cell_length_a       3.6092
_cell_length_b       6.19958
_cell_length_c       7.34522
_cell_angle_alpha    90
_cell_angle_beta     90
_cell_angle_gamma    90

_symmetry_Int_Tables_number  62
_chemical_formula_structural  NbCrP
_chemical_formula_sum  Nb4Cr4P4
_cell_volume  164.35302761579337
_cell_formula_units_Z  4
loop_
  _symmetry_equiv_pos_site_id
 _symmetry_equiv_pos_as_xyz
 1  'x, y, z'
loop_
 _atom_site_type_symbol
 _atom_site_label
 _atom_site_symmetry_multiplicity
 _atom_site_fract_x
 _atom_site_fract_y
 _atom_site_fract_z
 _atom_site_fract_occupancy
 Cr  Cr1  1  0.75000  0.36790  0.94933  1
 Cr  Cr2  1  0.25000  0.13210  0.44933  1
 Cr  Cr3  1  0.75000  0.86790  0.55067  1
 Cr  Cr4  1  0.25000  0.63210  0.05067  1
 Nb  Nb1  1  0.25000  0.53440  0.67261  1
 Nb  Nb2  1  0.25000  0.03440  0.82739  1
 Nb  Nb3  1  0.75000  0.96560  0.17261  1
 Nb  Nb4  1  0.75000  0.46560  0.32739  1
 P  P1  1  0.25000  0.26334  0.13631  1
 P  P2  1  0.25000  0.76334  0.36369  1
 P  P3  1  0.75000  0.73666  0.86369  1
 P  P4  1  0.75000  0.23666  0.63631  1
