CIF file written using JARVIS-Tools package.
data_Te2MoW3Se2S4
_symmetry_space_group_name_H-M  'P3m1'
_cell_length_a       3.32112
_cell_length_b       3.32111
_cell_length_c       38.9149
_cell_angle_alpha    89.9983
_cell_angle_beta     90
_cell_angle_gamma    120

_symmetry_Int_Tables_number  156
_chemical_formula_structural  Te2MoW3Se2S4
_chemical_formula_sum  Te2MoW3Se2S4
_cell_volume  371.7179995232629
_cell_formula_units_Z  1
loop_
  _symmetry_equiv_pos_site_id
 _symmetry_equiv_pos_as_xyz
 1  'x, y, z'
loop_
 _atom_site_type_symbol
 _atom_site_label
 _atom_site_symmetry_multiplicity
 _atom_site_fract_x
 _atom_site_fract_y
 _atom_site_fract_z
 _atom_site_fract_occupancy
 Mo  Mo1  1  0.66667  0.33334  0.28130  1
 S  S1  1  0.33338  0.66676  0.32058  1
 S  S2  1  0.66664  0.33330  0.05475  1
 S  S3  1  0.66664  0.33328  0.13335  1
 S  S4  1  0.33339  0.66678  0.24218  1
 Se  Se1  1  0.33331  0.66662  0.70201  1
 Se  Se2  1  0.33332  0.66665  0.61592  1
 Te  Te1  1  0.66668  0.33335  0.41906  1
 Te  Te2  1  0.66667  0.33334  0.51794  1
 W  W1  1  0.33332  0.66662  0.09395  1
 W  W2  1  0.33334  0.66667  0.46858  1
 W  W3  1  0.66664  0.33329  0.65912  1
