CIF file written using JARVIS-Tools package.
data_Ca5Sb3
_symmetry_space_group_name_H-M  'Pnma'
_cell_length_a       8.23464
_cell_length_b       9.54072
_cell_length_c       12.558
_cell_angle_alpha    90
_cell_angle_beta     90
_cell_angle_gamma    90

_symmetry_Int_Tables_number  62
_chemical_formula_structural  Ca5Sb3
_chemical_formula_sum  Ca20Sb2
_cell_volume  986.6115009378366
_cell_formula_units_Z  4
loop_
  _symmetry_equiv_pos_site_id
 _symmetry_equiv_pos_as_xyz
 1  'x, y, z'
loop_
 _atom_site_type_symbol
 _atom_site_label
 _atom_site_symmetry_multiplicity
 _atom_site_fract_x
 _atom_site_fract_y
 _atom_site_fract_z
 _atom_site_fract_occupancy
 Ca  Ca1  1  0.30794  0.95967  0.07796  1
 Ca  Ca2  1  0.18053  0.25000  0.27263  1
 Ca  Ca3  1  0.80794  0.04033  0.42204  1
 Ca  Ca4  1  0.69206  0.45967  0.92204  1
 Ca  Ca5  1  0.19206  0.54033  0.57796  1
 Ca  Ca6  1  0.19206  0.95967  0.57796  1
 Ca  Ca7  1  0.30794  0.54033  0.07796  1
 Ca  Ca8  1  0.80794  0.45967  0.42204  1
 Ca  Ca9  1  0.68053  0.75000  0.22737  1
 Ca  Ca10  1  0.34514  0.75000  0.79302  1
 Ca  Ca11  1  0.69206  0.04033  0.92204  1
 Ca  Ca12  1  0.81947  0.75000  0.72737  1
 Ca  Ca13  1  0.15486  0.75000  0.29302  1
 Ca  Ca14  1  0.65486  0.25000  0.20698  1
 Ca  Ca15  1  0.84514  0.25000  0.70698  1
 Ca  Ca16  1  0.53575  0.75000  0.50398  1
 Ca  Ca17  1  0.03575  0.25000  0.99602  1
 Ca  Ca18  1  0.46425  0.25000  0.49602  1
 Ca  Ca19  1  0.96425  0.75000  0.00398  1
 Ca  Ca20  1  0.31947  0.25000  0.77263  1
 Sb  Sb1  1  0.42567  0.25000  0.01466  1
 Sb  Sb2  1  0.93968  0.01073  0.17140  1
 Sb  Sb3  1  0.06032  0.51073  0.82860  1
 Sb  Sb4  1  0.56032  0.48927  0.67140  1
 Sb  Sb5  1  0.43968  0.98927  0.32860  1
 Sb  Sb6  1  0.57433  0.75000  0.98534  1
 Sb  Sb7  1  0.93968  0.48927  0.17140  1
 Sb  Sb8  1  0.43968  0.51073  0.32860  1
 Sb  Sb9  1  0.07433  0.25000  0.51466  1
 Sb  Sb10  1  0.06032  0.98927  0.82860  1
 Sb  Sb11  1  0.56032  0.01073  0.67140  1
 Sb  Sb12  1  0.92567  0.75000  0.48534  1
