CIF file written using JARVIS-Tools package.
data_Te3MoWS
_symmetry_space_group_name_H-M  'P3m1'
_cell_length_a       3.47372
_cell_length_b       3.4737
_cell_length_c       38.8968
_cell_angle_alpha    90.0006
_cell_angle_beta     90
_cell_angle_gamma    120

_symmetry_Int_Tables_number  156
_chemical_formula_structural  Te3MoWS
_chemical_formula_sum  Te6Mo2W2S2
_cell_volume  406.4723917225536
_cell_formula_units_Z  2
loop_
  _symmetry_equiv_pos_site_id
 _symmetry_equiv_pos_as_xyz
 1  'x, y, z'
loop_
 _atom_site_type_symbol
 _atom_site_label
 _atom_site_symmetry_multiplicity
 _atom_site_fract_x
 _atom_site_fract_y
 _atom_site_fract_z
 _atom_site_fract_occupancy
 Mo  Mo1  1  0.33332  0.66664  0.09383  1
 Mo  Mo2  1  0.66669  0.33337  0.28185  1
 S  S1  1  0.66664  0.33328  0.43145  1
 S  S2  1  0.66665  0.33329  0.50788  1
 Te  Te1  1  0.33336  0.66672  0.32952  1
 Te  Te2  1  0.33335  0.66671  0.70490  1
 Te  Te3  1  0.66664  0.33329  0.04669  1
 Te  Te4  1  0.66665  0.33330  0.14125  1
 Te  Te5  1  0.33335  0.66671  0.23453  1
 Te  Te6  1  0.33335  0.66670  0.60970  1
 W  W1  1  0.33331  0.66662  0.46964  1
 W  W2  1  0.66668  0.33337  0.65751  1
