CIF file written using JARVIS-Tools package.
data_LiMn3Al2H6O12
_symmetry_space_group_name_H-M  'C2/m'
_cell_length_a       5.03054
_cell_length_b       5.0305
_cell_length_c       9.61982
_cell_angle_alpha    94.995
_cell_angle_beta     94.9955
_cell_angle_gamma    119.999

_symmetry_Int_Tables_number  12
_chemical_formula_structural  LiMn3Al2H6O12
_chemical_formula_sum  LiMn3Al2H6O2
_cell_volume  207.6071684027731
_cell_formula_units_Z  1
loop_
  _symmetry_equiv_pos_site_id
 _symmetry_equiv_pos_as_xyz
 1  'x, y, z'
loop_
 _atom_site_type_symbol
 _atom_site_label
 _atom_site_symmetry_multiplicity
 _atom_site_fract_x
 _atom_site_fract_y
 _atom_site_fract_z
 _atom_site_fract_occupancy
 Al  Al1  1  0.16667  0.83333  0.50000  1
 Al  Al2  1  0.83333  0.16667  0.50000  1
 H  H1  1  0.08258  0.43042  0.29106  1
 H  H2  1  0.77817  0.77817  0.29107  1
 H  H3  1  0.43042  0.08258  0.29106  1
 H  H4  1  0.22183  0.22183  0.70893  1
 H  H5  1  0.56958  0.91742  0.70894  1
 H  H6  1  0.91742  0.56958  0.70894  1
 Li  Li1  1  0.50000  0.50000  0.50000  1
 Mn  Mn1  1  0.66660  0.33340  -0.00000  1
 Mn  Mn2  1  0.00000  0.00000  0.00000  1
 Mn  Mn3  1  0.33340  0.66660  0.00000  1
 O  O1  1  0.53497  0.89368  0.60503  1
 O  O2  1  0.29905  0.29905  0.89740  1
 O  O3  1  0.82373  0.82373  0.39498  1
 O  O4  1  0.70095  0.70095  0.10260  1
 O  O5  1  0.46503  0.10632  0.39497  1
 O  O6  1  0.36750  0.03404  0.10258  1
 O  O7  1  0.10632  0.46503  0.39497  1
 O  O8  1  0.03404  0.36750  0.10258  1
 O  O9  1  0.96596  0.63250  0.89742  1
 O  O10  1  0.89368  0.53497  0.60503  1
 O  O11  1  0.63250  0.96596  0.89742  1
 O  O12  1  0.17627  0.17627  0.60502  1
