CIF file written using JARVIS-Tools package.
data_Rb2LiGaF6
_symmetry_space_group_name_H-M  'R-3m'
_cell_length_a       10.1229
_cell_length_b       10.1229
_cell_length_c       10.1229
_cell_angle_alpha    33.7107
_cell_angle_beta     33.7107
_cell_angle_gamma    33.7106

_symmetry_Int_Tables_number  166
_chemical_formula_structural  Rb2LiGaF6
_chemical_formula_sum  Rb4Li2Ga2F2
_cell_volume  284.67569845643203
_cell_formula_units_Z  2
loop_
  _symmetry_equiv_pos_site_id
 _symmetry_equiv_pos_as_xyz
 1  'x, y, z'
loop_
 _atom_site_type_symbol
 _atom_site_label
 _atom_site_symmetry_multiplicity
 _atom_site_fract_x
 _atom_site_fract_y
 _atom_site_fract_z
 _atom_site_fract_occupancy
 F  F1  1  0.80428  0.80428  0.27649  1
 F  F2  1  0.72351  0.19572  0.19572  1
 F  F3  1  0.39138  0.39138  0.84023  1
 F  F4  1  0.39138  0.84023  0.39138  1
 F  F5  1  0.84023  0.39138  0.39138  1
 F  F6  1  0.15977  0.60862  0.60862  1
 F  F7  1  0.27649  0.80428  0.80428  1
 F  F8  1  0.60862  0.15977  0.60862  1
 F  F9  1  0.80428  0.27649  0.80428  1
 F  F10  1  0.60862  0.60862  0.15977  1
 F  F11  1  0.19572  0.72351  0.19572  1
 F  F12  1  0.19572  0.19572  0.72351  1
 Ga  Ga1  1  0.00000  0.00000  0.00000  1
 Ga  Ga2  1  0.50000  0.50000  0.50000  1
 Li  Li1  1  0.59653  0.59653  0.59653  1
 Li  Li2  1  0.40347  0.40347  0.40347  1
 Rb  Rb1  1  0.87241  0.87241  0.87241  1
 Rb  Rb2  1  0.71675  0.71675  0.71675  1
 Rb  Rb3  1  0.28325  0.28325  0.28325  1
 Rb  Rb4  1  0.12759  0.12759  0.12759  1
