CIF file written using JARVIS-Tools package.
data_Sm2O3
_symmetry_space_group_name_H-M  'Ia-3'
_cell_length_a       9.49755
_cell_length_b       9.49755
_cell_length_c       9.49756
_cell_angle_alpha    109.471
_cell_angle_beta     109.471
_cell_angle_gamma    109.471

_symmetry_Int_Tables_number  206
_chemical_formula_structural  Sm2O3
_chemical_formula_sum  Sm6O24
_cell_volume  659.4987549564592
_cell_formula_units_Z  8
loop_
  _symmetry_equiv_pos_site_id
 _symmetry_equiv_pos_as_xyz
 1  'x, y, z'
loop_
 _atom_site_type_symbol
 _atom_site_label
 _atom_site_symmetry_multiplicity
 _atom_site_fract_x
 _atom_site_fract_y
 _atom_site_fract_z
 _atom_site_fract_occupancy
 O  O1  1  0.27163  0.01226  0.04151  1
 O  O2  1  0.98774  0.95849  0.72837  1
 O  O3  1  0.25937  0.77163  0.73012  1
 O  O4  1  0.51226  0.24063  0.97075  1
 O  O5  1  0.95849  0.72837  0.98774  1
 O  O6  1  0.73012  0.25937  0.77163  1
 O  O7  1  0.24063  0.97075  0.51226  1
 O  O8  1  0.54151  0.52925  0.76988  1
 O  O9  1  0.26988  0.74063  0.22837  1
 O  O10  1  0.75937  0.02925  0.48774  1
 O  O11  1  0.77163  0.73012  0.25937  1
 O  O12  1  0.97075  0.51226  0.24063  1
 O  O13  1  0.47075  0.23012  0.45849  1
 O  O14  1  0.01226  0.04151  0.27163  1
 O  O15  1  0.74063  0.22837  0.26988  1
 O  O16  1  0.48774  0.75937  0.02925  1
 O  O17  1  0.04151  0.27163  0.01226  1
 O  O18  1  0.76988  0.54151  0.52925  1
 O  O19  1  0.52925  0.76988  0.54151  1
 O  O20  1  0.45849  0.47075  0.23012  1
 O  O21  1  0.22837  0.26988  0.74063  1
 O  O22  1  0.02925  0.48774  0.75937  1
 O  O23  1  0.23012  0.45849  0.47075  1
 O  O24  1  0.72837  0.98774  0.95849  1
 Sm  Sm1  1  0.50000  0.50000  0.50000  1
 Sm  Sm2  1  0.00000  0.00000  0.50000  1
 Sm  Sm3  1  0.50000  0.00000  0.00000  1
 Sm  Sm4  1  -0.00000  0.50000  -0.00000  1
 Sm  Sm5  1  0.25000  0.21888  0.96888  1
 Sm  Sm6  1  0.53112  0.75000  0.28112  1
 Sm  Sm7  1  0.28112  0.53112  0.75000  1
 Sm  Sm8  1  0.75000  0.28112  0.53112  1
 Sm  Sm9  1  0.75000  0.78112  0.03112  1
 Sm  Sm10  1  0.71888  0.46888  0.25000  1
 Sm  Sm11  1  0.46888  0.25000  0.71888  1
 Sm  Sm12  1  0.78112  0.03112  0.75000  1
 Sm  Sm13  1  0.21888  0.96888  0.25000  1
 Sm  Sm14  1  0.03112  0.75000  0.78112  1
 Sm  Sm15  1  0.96888  0.25000  0.21888  1
 Sm  Sm16  1  0.25000  0.71888  0.46888  1
