CIF file written using JARVIS-Tools package.
data_Li2SiSnS4
_symmetry_space_group_name_H-M  'I-42m'
_cell_length_a       5.9687
_cell_length_b       5.9687
_cell_length_c       5.9687
_cell_angle_alpha    99.3574
_cell_angle_beta     114.753
_cell_angle_gamma    114.753

_symmetry_Int_Tables_number  121
_chemical_formula_structural  Li2SiSnS4
_chemical_formula_sum  Li2SiSnS4
_cell_volume  159.96376382121105
_cell_formula_units_Z  1
loop_
  _symmetry_equiv_pos_site_id
 _symmetry_equiv_pos_as_xyz
 1  'x, y, z'
loop_
 _atom_site_type_symbol
 _atom_site_label
 _atom_site_symmetry_multiplicity
 _atom_site_fract_x
 _atom_site_fract_y
 _atom_site_fract_z
 _atom_site_fract_occupancy
 Li  Li1  1  0.50000  0.25000  0.75000  1
 Li  Li2  1  0.50000  0.75000  0.25000  1
 S  S1  1  0.61351  0.46537  0.46537  1
 S  S2  1  -0.00000  0.53463  0.14814  1
 S  S3  1  0.00000  0.14814  0.53463  1
 S  S4  1  0.38649  0.85186  0.85186  1
 Si  Si1  1  0.00000  0.50000  0.50000  1
 Sn  Sn1  1  0.00000  0.00000  0.00000  1
