CIF file written using JARVIS-Tools package.
data_SrIn4Ir
_symmetry_space_group_name_H-M  'Pmma'
_cell_length_a       4.36197
_cell_length_b       7.76718
_cell_length_c       8.73805
_cell_angle_alpha    90
_cell_angle_beta     90
_cell_angle_gamma    90

_symmetry_Int_Tables_number  51
_chemical_formula_structural  SrIn4Ir
_chemical_formula_sum  Sr2In8Ir2
_cell_volume  296.0471482602305
_cell_formula_units_Z  2
loop_
  _symmetry_equiv_pos_site_id
 _symmetry_equiv_pos_as_xyz
 1  'x, y, z'
loop_
 _atom_site_type_symbol
 _atom_site_label
 _atom_site_symmetry_multiplicity
 _atom_site_fract_x
 _atom_site_fract_y
 _atom_site_fract_z
 _atom_site_fract_occupancy
 In  In1  1  0.00000  0.00000  0.00000  1
 In  In2  1  0.50000  0.31096  0.56549  1
 In  In3  1  0.50000  0.06249  0.25000  1
 In  In4  1  0.00000  0.00000  0.50000  1
 In  In5  1  0.50000  0.93751  0.75000  1
 In  In6  1  0.50000  0.31096  0.93451  1
 In  In7  1  0.50000  0.68904  0.06549  1
 In  In8  1  0.50000  0.68904  0.43451  1
 Ir  Ir1  1  0.00000  0.80790  0.25000  1
 Ir  Ir2  1  0.00000  0.19210  0.75000  1
 Sr  Sr1  1  0.00000  0.39492  0.25000  1
 Sr  Sr2  1  0.00000  0.60508  0.75000  1
