CIF file written using JARVIS-Tools package.
data_Dy2TiO5
_symmetry_space_group_name_H-M  'C2/c'
_cell_length_a       6.456
_cell_length_b       6.456
_cell_length_c       7.44192
_cell_angle_alpha    68.1994
_cell_angle_beta     111.801
_cell_angle_gamma    132.044

_symmetry_Int_Tables_number  15
_chemical_formula_structural  Dy2TiO5
_chemical_formula_sum  Dy4Ti2O0
_cell_volume  210.4618273941329
_cell_formula_units_Z  2
loop_
  _symmetry_equiv_pos_site_id
 _symmetry_equiv_pos_as_xyz
 1  'x, y, z'
loop_
 _atom_site_type_symbol
 _atom_site_label
 _atom_site_symmetry_multiplicity
 _atom_site_fract_x
 _atom_site_fract_y
 _atom_site_fract_z
 _atom_site_fract_occupancy
 Dy  Dy1  1  0.33177  0.62016  0.72738  1
 Dy  Dy2  1  0.37984  0.66823  0.22738  1
 Dy  Dy3  1  0.62016  0.33177  0.77262  1
 Dy  Dy4  1  0.66823  0.37984  0.27262  1
 O  O1  1  0.00078  0.66734  0.63328  1
 O  O2  1  0.33266  0.99922  0.13328  1
 O  O3  1  0.61108  0.76482  0.53353  1
 O  O4  1  0.15920  0.15920  0.75000  1
 O  O5  1  0.76482  0.61108  0.96647  1
 O  O6  1  0.23518  0.38892  0.03353  1
 O  O7  1  0.84080  0.84080  0.25000  1
 O  O8  1  0.38892  0.23518  0.46647  1
 O  O9  1  0.66734  0.00078  0.86672  1
 O  O10  1  0.99922  0.33266  0.36672  1
 Ti  Ti1  1  -0.00000  0.00000  0.50000  1
 Ti  Ti2  1  0.00000  0.00000  0.00000  1
