CIF file written using JARVIS-Tools package.
data_Rb2ZnF4
_symmetry_space_group_name_H-M  'I4/mmm'
_cell_length_a       4.15759
_cell_length_b       4.15759
_cell_length_c       7.46223
_cell_angle_alpha    106.175
_cell_angle_beta     106.175
_cell_angle_gamma    90

_symmetry_Int_Tables_number  139
_chemical_formula_structural  Rb2ZnF4
_chemical_formula_sum  Rb2ZnF4
_cell_volume  118.55694172288493
_cell_formula_units_Z  1
loop_
  _symmetry_equiv_pos_site_id
 _symmetry_equiv_pos_as_xyz
 1  'x, y, z'
loop_
 _atom_site_type_symbol
 _atom_site_label
 _atom_site_symmetry_multiplicity
 _atom_site_fract_x
 _atom_site_fract_y
 _atom_site_fract_z
 _atom_site_fract_occupancy
 F  F1  1  0.14918  0.14918  0.29835  1
 F  F2  1  0.85082  0.85082  0.70165  1
 F  F3  1  0.00000  0.50000  0.00000  1
 F  F4  1  0.50000  0.00000  0.00000  1
 Rb  Rb1  1  0.35311  0.35311  0.70622  1
 Rb  Rb2  1  0.64689  0.64689  0.29378  1
 Zn  Zn1  1  0.00000  0.00000  0.00000  1
