CIF file written using JARVIS-Tools package.
data_Ba2YCl7
_symmetry_space_group_name_H-M  'C2/c'
_cell_length_a       9.17267
_cell_length_b       9.17267
_cell_length_c       10.0805
_cell_angle_alpha    56.3913
_cell_angle_beta     123.609
_cell_angle_gamma    127.492

_symmetry_Int_Tables_number  15
_chemical_formula_structural  Ba2YCl7
_chemical_formula_sum  Ba4Y2Cl4
_cell_volume  529.494031148869
_cell_formula_units_Z  2
loop_
  _symmetry_equiv_pos_site_id
 _symmetry_equiv_pos_as_xyz
 1  'x, y, z'
loop_
 _atom_site_type_symbol
 _atom_site_label
 _atom_site_symmetry_multiplicity
 _atom_site_fract_x
 _atom_site_fract_y
 _atom_site_fract_z
 _atom_site_fract_occupancy
 Ba  Ba1  1  0.31108  0.68099  0.73078  1
 Ba  Ba2  1  0.31901  0.68892  0.23078  1
 Ba  Ba3  1  0.68099  0.31108  0.76922  1
 Ba  Ba4  1  0.68892  0.31901  0.26922  1
 Cl  Cl1  1  0.06951  0.69098  0.85243  1
 Cl  Cl2  1  0.30902  0.93049  0.35243  1
 Cl  Cl3  1  0.06811  0.23950  0.93339  1
 Cl  Cl4  1  0.69098  0.06951  0.64757  1
 Cl  Cl5  1  0.60921  0.60921  0.75000  1
 Cl  Cl6  1  0.11119  0.36536  0.54507  1
 Cl  Cl7  1  0.36536  0.11119  0.95493  1
 Cl  Cl8  1  0.23950  0.06811  0.56661  1
 Cl  Cl9  1  0.76050  0.93189  0.43339  1
 Cl  Cl10  1  0.39079  0.39079  0.25000  1
 Cl  Cl11  1  0.88881  0.63464  0.45493  1
 Cl  Cl12  1  0.93189  0.76050  0.06661  1
 Cl  Cl13  1  0.63464  0.88881  0.04507  1
 Cl  Cl14  1  0.93049  0.30902  0.14757  1
 Y  Y1  1  0.02513  0.02513  0.25000  1
 Y  Y2  1  0.97487  0.97487  0.75000  1
