CIF file written using JARVIS-Tools package.
data_NaH3CN4O
_symmetry_space_group_name_H-M  'Pmma'
_cell_length_a       5.59908
_cell_length_b       5.84568
_cell_length_c       6.28079
_cell_angle_alpha    90
_cell_angle_beta     90
_cell_angle_gamma    90

_symmetry_Int_Tables_number  51
_chemical_formula_structural  NaH3CN4O
_chemical_formula_sum  Na2H6C2N8O2
_cell_volume  205.57261986444024
_cell_formula_units_Z  2
loop_
  _symmetry_equiv_pos_site_id
 _symmetry_equiv_pos_as_xyz
 1  'x, y, z'
loop_
 _atom_site_type_symbol
 _atom_site_label
 _atom_site_symmetry_multiplicity
 _atom_site_fract_x
 _atom_site_fract_y
 _atom_site_fract_z
 _atom_site_fract_occupancy
 C  C1  1  0.98929  0.50000  0.25000  1
 C  C2  1  0.01071  0.50000  0.75000  1
 H  H1  1  0.18369  0.50000  0.25000  1
 H  H2  1  0.81631  0.50000  0.75000  1
 H  H3  1  0.42363  0.13731  0.25000  1
 H  H4  1  0.57637  0.13731  0.75000  1
 H  H5  1  0.57637  0.86269  0.75000  1
 H  H6  1  0.42363  0.86269  0.25000  1
 N  N1  1  0.85456  0.68939  0.25000  1
 N  N2  1  0.14544  0.68939  0.75000  1
 N  N3  1  0.62685  0.38770  0.25000  1
 N  N4  1  0.37315  0.38770  0.75000  1
 N  N5  1  0.37315  0.61230  0.75000  1
 N  N6  1  0.62685  0.61230  0.25000  1
 N  N7  1  0.85456  0.31061  0.25000  1
 N  N8  1  0.14544  0.31061  0.75000  1
 Na  Na1  1  0.00000  0.00000  0.50000  1
 Na  Na2  1  0.00000  0.00000  0.00000  1
 O  O1  1  0.31812  0.00000  0.25000  1
 O  O2  1  0.68188  0.00000  0.75000  1
