CIF file written using JARVIS-Tools package.
data_CeB4
_symmetry_space_group_name_H-M  'P4/mbm'
_cell_length_a       7.17541
_cell_length_b       7.17541
_cell_length_c       4.07436
_cell_angle_alpha    90
_cell_angle_beta     90
_cell_angle_gamma    90

_symmetry_Int_Tables_number  127
_chemical_formula_structural  CeB4
_chemical_formula_sum  Ce4B6
_cell_volume  209.77464690842783
_cell_formula_units_Z  4
loop_
  _symmetry_equiv_pos_site_id
 _symmetry_equiv_pos_as_xyz
 1  'x, y, z'
loop_
 _atom_site_type_symbol
 _atom_site_label
 _atom_site_symmetry_multiplicity
 _atom_site_fract_x
 _atom_site_fract_y
 _atom_site_fract_z
 _atom_site_fract_occupancy
 B  B1  1  0.58829  0.08829  0.50000  1
 B  B2  1  0.32399  0.46140  0.50000  1
 B  B3  1  0.67601  0.53860  0.50000  1
 B  B4  1  0.53860  0.32399  0.50000  1
 B  B5  1  0.46140  0.67601  0.50000  1
 B  B6  1  0.00000  0.00000  0.20177  1
 B  B7  1  0.82399  0.03860  0.50000  1
 B  B8  1  0.50000  0.50000  0.79823  1
 B  B9  1  0.50000  0.50000  0.20177  1
 B  B10  1  0.96140  0.82399  0.50000  1
 B  B11  1  0.08829  0.41171  0.50000  1
 B  B12  1  0.91171  0.58829  0.50000  1
 B  B13  1  0.41171  0.91171  0.50000  1
 B  B14  1  0.03860  0.17601  0.50000  1
 B  B15  1  0.17601  0.96140  0.50000  1
 B  B16  1  0.00000  0.00000  0.79823  1
 Ce  Ce1  1  0.81374  0.31374  0.00000  1
 Ce  Ce2  1  0.31374  0.18626  0.00000  1
 Ce  Ce3  1  0.68626  0.81374  0.00000  1
 Ce  Ce4  1  0.18626  0.68626  0.00000  1
