CIF file written using JARVIS-Tools package.
data_LiSiBiO4
_symmetry_space_group_name_H-M  'Cc'
_cell_length_a       5.06716
_cell_length_b       5.07473
_cell_length_c       8.17164
_cell_angle_alpha    90.2523
_cell_angle_beta     89.8736
_cell_angle_gamma    120.049

_symmetry_Int_Tables_number  9
_chemical_formula_structural  LiSiBiO4
_chemical_formula_sum  Li2Si2Bi2O8
_cell_volume  181.88534176460996
_cell_formula_units_Z  2
loop_
  _symmetry_equiv_pos_site_id
 _symmetry_equiv_pos_as_xyz
 1  'x, y, z'
loop_
 _atom_site_type_symbol
 _atom_site_label
 _atom_site_symmetry_multiplicity
 _atom_site_fract_x
 _atom_site_fract_y
 _atom_site_fract_z
 _atom_site_fract_occupancy
 Bi  Bi1  1  0.06967  0.97792  0.21427  1
 Bi  Bi2  1  -0.06967  0.90825  0.71427  1
 Li  Li1  1  0.40651  0.69148  0.04669  1
 Li  Li2  1  0.59349  0.28497  0.54669  1
 O  O1  1  -0.03790  0.63467  0.48613  1
 O  O2  1  0.39419  0.81612  0.27133  1
 O  O3  1  0.53596  0.88310  0.58862  1
 O  O4  1  0.25412  0.30689  0.45240  1
 O  O5  1  0.46404  0.34714  0.08862  1
 O  O6  1  0.60581  0.42193  0.77133  1
 O  O7  1  0.74588  0.05277  -0.04760  1
 O  O8  1  0.03790  0.67257  -0.01387  1
 Si  Si1  1  0.29045  0.64647  0.45205  1
 Si  Si2  1  0.70955  0.35601  0.95205  1
