CIF file written using JARVIS-Tools package.
data_CaCu3Ru4O12
_symmetry_space_group_name_H-M  'Im-3'
_cell_length_a       6.45222
_cell_length_b       6.45221
_cell_length_c       6.45221
_cell_angle_alpha    109.471
_cell_angle_beta     109.471
_cell_angle_gamma    109.471

_symmetry_Int_Tables_number  204
_chemical_formula_structural  CaCu3Ru4O12
_chemical_formula_sum  CaCu3Ru4O2
_cell_volume  206.7780744303219
_cell_formula_units_Z  1
loop_
  _symmetry_equiv_pos_site_id
 _symmetry_equiv_pos_as_xyz
 1  'x, y, z'
loop_
 _atom_site_type_symbol
 _atom_site_label
 _atom_site_symmetry_multiplicity
 _atom_site_fract_x
 _atom_site_fract_y
 _atom_site_fract_z
 _atom_site_fract_occupancy
 Ca  Ca1  1  0.00000  0.00000  0.00000  1
 Cu  Cu1  1  0.50000  0.00000  0.50000  1
 Cu  Cu2  1  0.00000  0.50000  0.50000  1
 Cu  Cu3  1  0.50000  0.50000  -0.00000  1
 O  O1  1  0.30689  0.82654  0.13343  1
 O  O2  1  0.69311  0.82654  0.51965  1
 O  O3  1  0.17346  0.48035  0.30689  1
 O  O4  1  0.48035  0.30689  0.17346  1
 O  O5  1  0.86657  0.69311  0.17346  1
 O  O6  1  0.82654  0.13343  0.30689  1
 O  O7  1  0.51965  0.69311  0.82654  1
 O  O8  1  0.13343  0.30689  0.82654  1
 O  O9  1  0.30689  0.17346  0.48035  1
 O  O10  1  0.17346  0.86657  0.69311  1
 O  O11  1  0.69311  0.17346  0.86657  1
 O  O12  1  0.82654  0.51965  0.69311  1
 Ru  Ru1  1  0.00000  0.00000  0.50000  1
 Ru  Ru2  1  0.50000  0.50000  0.50000  1
 Ru  Ru3  1  0.00000  0.50000  -0.00000  1
 Ru  Ru4  1  0.50000  0.00000  0.00000  1
