CIF file written using JARVIS-Tools package.
data_Li2Zr2O5
_symmetry_space_group_name_H-M  'C2/c'
_cell_length_a       5.63415
_cell_length_b       5.63415
_cell_length_c       7.61709
_cell_angle_alpha    109.366
_cell_angle_beta     70.6338
_cell_angle_gamma    109.118

_symmetry_Int_Tables_number  15
_chemical_formula_structural  Li2Zr2O5
_chemical_formula_sum  Li4Zr4O0
_cell_volume  208.678245728547
_cell_formula_units_Z  2
loop_
  _symmetry_equiv_pos_site_id
 _symmetry_equiv_pos_as_xyz
 1  'x, y, z'
loop_
 _atom_site_type_symbol
 _atom_site_label
 _atom_site_symmetry_multiplicity
 _atom_site_fract_x
 _atom_site_fract_y
 _atom_site_fract_z
 _atom_site_fract_occupancy
 Li  Li1  1  0.78529  0.81447  0.45522  1
 Li  Li2  1  0.18553  0.21471  -0.04478  1
 Li  Li3  1  0.81447  0.78529  0.04478  1
 Li  Li4  1  0.21471  0.18553  0.54478  1
 O  O1  1  0.07362  0.63475  0.37115  1
 O  O2  1  0.92638  0.36525  0.62885  1
 O  O3  1  0.63475  0.07362  0.12885  1
 O  O4  1  -0.00000  0.50000  -0.00000  1
 O  O5  1  0.50000  0.50000  0.50000  1
 O  O6  1  0.02359  0.02359  0.25000  1
 O  O7  1  0.36525  0.92638  0.87115  1
 O  O8  1  0.97641  0.97641  0.75000  1
 O  O9  1  0.50000  0.50000  0.00000  1
 O  O10  1  0.50000  -0.00000  0.50000  1
 Zr  Zr1  1  0.77866  0.28115  0.37832  1
 Zr  Zr2  1  0.71885  0.22134  0.87832  1
 Zr  Zr3  1  0.28115  0.77866  0.12168  1
 Zr  Zr4  1  0.22134  0.71885  0.62168  1
