CIF file written using JARVIS-Tools package.
data_UTl2O4
_symmetry_space_group_name_H-M  'I4/mmm'
_cell_length_a       4.34192
_cell_length_b       4.34192
_cell_length_c       7.62935
_cell_angle_alpha    106.532
_cell_angle_beta     106.532
_cell_angle_gamma    90

_symmetry_Int_Tables_number  139
_chemical_formula_structural  UTl2O4
_chemical_formula_sum  UTl2O4
_cell_volume  131.6707346972254
_cell_formula_units_Z  1
loop_
  _symmetry_equiv_pos_site_id
 _symmetry_equiv_pos_as_xyz
 1  'x, y, z'
loop_
 _atom_site_type_symbol
 _atom_site_label
 _atom_site_symmetry_multiplicity
 _atom_site_fract_x
 _atom_site_fract_y
 _atom_site_fract_z
 _atom_site_fract_occupancy
 O  O1  1  0.14082  0.14082  0.28164  1
 O  O2  1  0.85918  0.85918  0.71836  1
 O  O3  1  0.00000  0.50000  0.00000  1
 O  O4  1  0.50000  0.00000  0.00000  1
 Tl  Tl1  1  0.34201  0.34201  0.68402  1
 Tl  Tl2  1  0.65799  0.65799  0.31598  1
 U  U1  1  0.00000  0.00000  0.00000  1
