CIF file written using JARVIS-Tools package.
data_Th2S3
_symmetry_space_group_name_H-M  'Pnma'
_cell_length_a       3.93794
_cell_length_b       10.9445
_cell_length_c       10.9027
_cell_angle_alpha    90
_cell_angle_beta     90
_cell_angle_gamma    90

_symmetry_Int_Tables_number  62
_chemical_formula_structural  Th2S3
_chemical_formula_sum  Th8S2
_cell_volume  469.8917474053102
_cell_formula_units_Z  4
loop_
  _symmetry_equiv_pos_site_id
 _symmetry_equiv_pos_as_xyz
 1  'x, y, z'
loop_
 _atom_site_type_symbol
 _atom_site_label
 _atom_site_symmetry_multiplicity
 _atom_site_fract_x
 _atom_site_fract_y
 _atom_site_fract_z
 _atom_site_fract_occupancy
 S  S1  1  0.25000  0.29585  0.72004  1
 S  S2  1  0.75000  0.05555  0.62416  1
 S  S3  1  0.25000  0.94445  0.37584  1
 S  S4  1  0.75000  0.12284  0.94729  1
 S  S5  1  0.75000  0.79585  0.77996  1
 S  S6  1  0.25000  0.87716  0.05271  1
 S  S7  1  0.25000  0.62284  0.55271  1
 S  S8  1  0.25000  0.20415  0.22004  1
 S  S9  1  0.75000  0.37716  0.44729  1
 S  S10  1  0.75000  0.44445  0.12416  1
 S  S11  1  0.25000  0.55555  0.87584  1
 S  S12  1  0.75000  0.70415  0.27996  1
 Th  Th1  1  0.75000  0.68469  0.01802  1
 Th  Th2  1  0.75000  0.01431  0.19628  1
 Th  Th3  1  0.25000  0.18469  0.48198  1
 Th  Th4  1  0.75000  0.81531  0.51802  1
 Th  Th5  1  0.25000  0.51431  0.30372  1
 Th  Th6  1  0.75000  0.48569  0.69628  1
 Th  Th7  1  0.25000  0.98569  0.80372  1
 Th  Th8  1  0.25000  0.31531  0.98198  1
