CIF file written using JARVIS-Tools package.
data_Te2MoW2Se2S2
_symmetry_space_group_name_H-M  'R3m'
_cell_length_a       3.35636
_cell_length_b       3.35634
_cell_length_c       20.3961
_cell_angle_alpha    80.5076
_cell_angle_beta     90
_cell_angle_gamma    120

_symmetry_Int_Tables_number  160
_chemical_formula_structural  Te2MoW2Se2S2
_chemical_formula_sum  Te2MoW2Se2S2
_cell_volume  195.3400803280983
_cell_formula_units_Z  1
loop_
  _symmetry_equiv_pos_site_id
 _symmetry_equiv_pos_as_xyz
 1  'x, y, z'
loop_
 _atom_site_type_symbol
 _atom_site_label
 _atom_site_symmetry_multiplicity
 _atom_site_fract_x
 _atom_site_fract_y
 _atom_site_fract_z
 _atom_site_fract_occupancy
 Mo  Mo1  1  0.67371  0.34741  0.33690  1
 S  S1  1  0.93535  0.87070  0.94387  1
 S  S2  1  0.83375  0.66750  0.09588  1
 Se  Se1  1  0.28483  0.56965  0.42000  1
 Se  Se2  1  0.39591  0.79183  0.25380  1
 Te  Te1  1  0.50542  0.01083  0.58887  1
 Te  Te2  1  0.37802  0.75604  0.77949  1
 W  W1  1  0.55123  0.10247  0.01985  1
 W  W2  1  0.10838  0.21676  0.68418  1
