CIF file written using JARVIS-Tools package.
data_Nb2Cd2O7
_symmetry_space_group_name_H-M  'Fd-3m'
_cell_length_a       7.24281
_cell_length_b       7.24281
_cell_length_c       7.24281
_cell_angle_alpha    59.9999
_cell_angle_beta     59.9999
_cell_angle_gamma    59.9998

_symmetry_Int_Tables_number  227
_chemical_formula_structural  Nb2Cd2O7
_chemical_formula_sum  Nb4Cd4O4
_cell_volume  268.66142789282185
_cell_formula_units_Z  2
loop_
  _symmetry_equiv_pos_site_id
 _symmetry_equiv_pos_as_xyz
 1  'x, y, z'
loop_
 _atom_site_type_symbol
 _atom_site_label
 _atom_site_symmetry_multiplicity
 _atom_site_fract_x
 _atom_site_fract_y
 _atom_site_fract_z
 _atom_site_fract_occupancy
 Cd  Cd1  1  0.49999  0.00000  0.00000  1
 Cd  Cd2  1  0.00000  0.00000  0.00000  1
 Cd  Cd3  1  0.00000  0.00000  0.49999  1
 Cd  Cd4  1  0.00000  0.49999  0.00000  1
 Nb  Nb1  1  -0.00000  0.50000  0.50000  1
 Nb  Nb2  1  0.50000  0.50000  0.99999  1
 Nb  Nb3  1  0.50000  0.99999  0.50000  1
 Nb  Nb4  1  0.50000  0.50000  0.50000  1
 O  O1  1  0.39143  0.39143  0.85857  1
 O  O2  1  0.85857  0.39143  0.85857  1
 O  O3  1  0.14141  0.60859  0.60859  1
 O  O4  1  0.39143  0.85857  0.39143  1
 O  O5  1  0.62500  0.62500  0.62500  1
 O  O6  1  0.60859  0.60859  0.14141  1
 O  O7  1  0.37500  0.37500  0.37500  1
 O  O8  1  0.60859  0.14141  0.60859  1
 O  O9  1  0.14141  0.60859  0.14141  1
 O  O10  1  0.85857  0.85857  0.39143  1
 O  O11  1  0.39143  0.85857  0.85857  1
 O  O12  1  0.60859  0.14141  0.14141  1
 O  O13  1  0.14141  0.14141  0.60859  1
 O  O14  1  0.85857  0.39143  0.39143  1
