CIF file written using JARVIS-Tools package.
data_Sr2YIrO6
_symmetry_space_group_name_H-M  'P2_1/c'
_cell_length_a       5.80697
_cell_length_b       5.84663
_cell_length_c       10.0412
_cell_angle_alpha    90
_cell_angle_beta     124.959
_cell_angle_gamma    90

_symmetry_Int_Tables_number  14
_chemical_formula_structural  Sr2YIrO6
_chemical_formula_sum  Sr4Y2Ir2O2
_cell_volume  279.3980117565974
_cell_formula_units_Z  2
loop_
  _symmetry_equiv_pos_site_id
 _symmetry_equiv_pos_as_xyz
 1  'x, y, z'
loop_
 _atom_site_type_symbol
 _atom_site_label
 _atom_site_symmetry_multiplicity
 _atom_site_fract_x
 _atom_site_fract_y
 _atom_site_fract_z
 _atom_site_fract_occupancy
 Ir  Ir1  1  0.50000  0.00000  -0.00000  1
 Ir  Ir2  1  0.50000  0.50000  0.50000  1
 O  O1  1  0.73452  0.20107  0.96292  1
 O  O2  1  0.80671  0.51599  0.73558  1
 O  O3  1  0.26548  0.79893  0.03708  1
 O  O4  1  0.19329  0.48401  0.26442  1
 O  O5  1  0.80671  0.98401  0.23558  1
 O  O6  1  0.19329  0.01599  0.76442  1
 O  O7  1  0.34049  0.27276  0.03838  1
 O  O8  1  0.34049  0.22724  0.53838  1
 O  O9  1  0.73452  0.29893  0.46292  1
 O  O10  1  0.65951  0.77276  0.46162  1
 O  O11  1  0.26548  0.70107  0.53708  1
 O  O12  1  0.65951  0.72724  0.96162  1
 Sr  Sr1  1  0.74172  0.53471  0.24920  1
 Sr  Sr2  1  0.25828  0.03471  0.25080  1
 Sr  Sr3  1  0.25828  0.46529  0.75080  1
 Sr  Sr4  1  0.74172  0.96529  0.74920  1
 Y  Y1  1  -0.00000  0.00000  0.50000  1
 Y  Y2  1  0.00000  0.50000  0.00000  1
