CIF file written using JARVIS-Tools package.
data_VCr2S4
_symmetry_space_group_name_H-M  'C2/m'
_cell_length_a       3.42196
_cell_length_b       6.07653
_cell_length_c       6.4764
_cell_angle_alpha    117.546
_cell_angle_beta     105.319
_cell_angle_gamma    90

_symmetry_Int_Tables_number  12
_chemical_formula_structural  VCr2S4
_chemical_formula_sum  VCr2S4
_cell_volume  113.97824961041506
_cell_formula_units_Z  1
loop_
  _symmetry_equiv_pos_site_id
 _symmetry_equiv_pos_as_xyz
 1  'x, y, z'
loop_
 _atom_site_type_symbol
 _atom_site_label
 _atom_site_symmetry_multiplicity
 _atom_site_fract_x
 _atom_site_fract_y
 _atom_site_fract_z
 _atom_site_fract_occupancy
 Cr  Cr1  1  0.25850  0.27471  0.51700  1
 Cr  Cr2  1  0.74150  0.72529  0.48300  1
 S  S1  1  0.12387  0.44925  0.24773  1
 S  S2  1  0.87613  0.55075  0.75227  1
 S  S3  1  0.36806  0.03053  0.73611  1
 S  S4  1  0.63194  0.96947  0.26389  1
 V  V1  1  0.00000  0.00000  0.00000  1
