CIF file written using JARVIS-Tools package.
data_YbGePt
_symmetry_space_group_name_H-M  'Pnma'
_cell_length_a       4.41045
_cell_length_b       7.00405
_cell_length_c       7.48726
_cell_angle_alpha    90
_cell_angle_beta     90
_cell_angle_gamma    90

_symmetry_Int_Tables_number  62
_chemical_formula_structural  YbGePt
_chemical_formula_sum  Yb4Ge4Pt4
_cell_volume  231.28873650865546
_cell_formula_units_Z  4
loop_
  _symmetry_equiv_pos_site_id
 _symmetry_equiv_pos_as_xyz
 1  'x, y, z'
loop_
 _atom_site_type_symbol
 _atom_site_label
 _atom_site_symmetry_multiplicity
 _atom_site_fract_x
 _atom_site_fract_y
 _atom_site_fract_z
 _atom_site_fract_occupancy
 Ge  Ge1  1  0.25000  0.68217  0.58059  1
 Ge  Ge2  1  0.25000  0.18217  0.91941  1
 Ge  Ge3  1  0.75000  0.31783  0.41941  1
 Ge  Ge4  1  0.75000  0.81783  0.08059  1
 Pt  Pt1  1  0.25000  0.79302  0.90538  1
 Pt  Pt2  1  0.25000  0.29302  0.59462  1
 Pt  Pt3  1  0.75000  0.70698  0.40538  1
 Pt  Pt4  1  0.75000  0.20698  0.09462  1
 Yb  Yb1  1  0.75000  0.48979  0.80035  1
 Yb  Yb2  1  0.25000  0.01021  0.30035  1
 Yb  Yb3  1  0.75000  0.98979  0.69965  1
 Yb  Yb4  1  0.25000  0.51021  0.19965  1
