CIF file written using JARVIS-Tools package.
data_AlTlI4
_symmetry_space_group_name_H-M  'P2_1/c'
_cell_length_a       8.05179
_cell_length_b       7.81324
_cell_length_c       16.0289
_cell_angle_alpha    90
_cell_angle_beta     96.6092
_cell_angle_gamma    90

_symmetry_Int_Tables_number  14
_chemical_formula_structural  AlTlI4
_chemical_formula_sum  Al4Tl4I6
_cell_volume  1001.6871743368434
_cell_formula_units_Z  4
loop_
  _symmetry_equiv_pos_site_id
 _symmetry_equiv_pos_as_xyz
 1  'x, y, z'
loop_
 _atom_site_type_symbol
 _atom_site_label
 _atom_site_symmetry_multiplicity
 _atom_site_fract_x
 _atom_site_fract_y
 _atom_site_fract_z
 _atom_site_fract_occupancy
 Al  Al1  1  0.24337  0.14171  0.63868  1
 Al  Al2  1  0.75663  0.64171  0.86132  1
 Al  Al3  1  0.24337  0.35829  0.13868  1
 Al  Al4  1  0.75663  0.85829  0.36132  1
 I  I1  1  0.42143  0.26651  0.53017  1
 I  I2  1  0.57410  0.60637  0.71988  1
 I  I3  1  0.42590  0.10637  0.78012  1
 I  I4  1  0.86209  0.34478  0.91103  1
 I  I5  1  0.00784  0.35568  0.65865  1
 I  I6  1  0.13791  0.84478  0.58897  1
 I  I7  1  0.99216  0.64432  0.34135  1
 I  I8  1  0.00784  0.14432  0.15865  1
 I  I9  1  0.57857  0.73349  0.46983  1
 I  I10  1  0.57410  0.89363  0.21988  1
 I  I11  1  0.57857  0.76651  0.96983  1
 I  I12  1  0.42143  0.23349  0.03017  1
 I  I13  1  0.86209  0.15522  0.41103  1
 I  I14  1  0.13791  0.65522  0.08897  1
 I  I15  1  0.99216  0.85568  0.84135  1
 I  I16  1  0.42590  0.39363  0.28012  1
 Tl  Tl1  1  0.25653  0.00629  0.35846  1
 Tl  Tl2  1  0.25653  0.49371  0.85846  1
 Tl  Tl3  1  0.74347  0.99371  0.64154  1
 Tl  Tl4  1  0.74347  0.50629  0.14154  1
