CIF file written using JARVIS-Tools package.
data_Th2HN3
_symmetry_space_group_name_H-M  'P3m1'
_cell_length_a       4.03358
_cell_length_b       4.03358
_cell_length_c       6.13105
_cell_angle_alpha    90
_cell_angle_beta     90
_cell_angle_gamma    120

_symmetry_Int_Tables_number  156
_chemical_formula_structural  Th2HN3
_chemical_formula_sum  Th2HN3
_cell_volume  86.38663188213216
_cell_formula_units_Z  1
loop_
  _symmetry_equiv_pos_site_id
 _symmetry_equiv_pos_as_xyz
 1  'x, y, z'
loop_
 _atom_site_type_symbol
 _atom_site_label
 _atom_site_symmetry_multiplicity
 _atom_site_fract_x
 _atom_site_fract_y
 _atom_site_fract_z
 _atom_site_fract_occupancy
 H  H1  1  0.00000  0.00000  0.15470  1
 N  N1  1  0.33333  0.66667  0.34746  1
 N  N2  1  0.66667  0.33333  0.64664  1
 N  N3  1  0.00000  0.00000  0.98577  1
 Th  Th1  1  0.33333  0.66667  0.74883  1
 Th  Th2  1  0.66667  0.33333  0.26660  1
