CIF file written using JARVIS-Tools package.
data_Li2US3
_symmetry_space_group_name_H-M  'C2/m'
_cell_length_a       6.48113
_cell_length_b       6.60406
_cell_length_c       6.60406
_cell_angle_alpha    119.933
_cell_angle_beta     99.8115
_cell_angle_gamma    99.8115

_symmetry_Int_Tables_number  12
_chemical_formula_structural  Li2US3
_chemical_formula_sum  Li4U2S6
_cell_volume  230.32664454015708
_cell_formula_units_Z  2
loop_
  _symmetry_equiv_pos_site_id
 _symmetry_equiv_pos_as_xyz
 1  'x, y, z'
loop_
 _atom_site_type_symbol
 _atom_site_label
 _atom_site_symmetry_multiplicity
 _atom_site_fract_x
 _atom_site_fract_y
 _atom_site_fract_z
 _atom_site_fract_occupancy
 Li  Li1  1  0.00000  0.00000  0.00000  1
 Li  Li2  1  0.50000  0.50000  0.50000  1
 Li  Li3  1  0.50000  0.83628  0.16372  1
 Li  Li4  1  0.50000  0.16372  0.83628  1
 S  S1  1  0.25225  0.74691  0.74691  1
 S  S2  1  0.74949  0.91630  0.57925  1
 S  S3  1  0.74949  0.57925  0.91630  1
 S  S4  1  0.74775  0.25309  0.25309  1
 S  S5  1  0.25051  0.08370  0.42075  1
 S  S6  1  0.25051  0.42075  0.08370  1
 U  U1  1  0.00000  0.66669  0.33331  1
 U  U2  1  -0.00000  0.33331  0.66669  1
