CIF file written using JARVIS-Tools package.
data_ErMgSn
_symmetry_space_group_name_H-M  'I4/mmm'
_cell_length_a       4.35263
_cell_length_b       4.35263
_cell_length_c       8.45499
_cell_angle_alpha    104.916
_cell_angle_beta     104.916
_cell_angle_gamma    90

_symmetry_Int_Tables_number  139
_chemical_formula_structural  ErMgSn
_chemical_formula_sum  Er2Mg2Sn2
_cell_volume  149.19342651439035
_cell_formula_units_Z  2
loop_
  _symmetry_equiv_pos_site_id
 _symmetry_equiv_pos_as_xyz
 1  'x, y, z'
loop_
 _atom_site_type_symbol
 _atom_site_label
 _atom_site_symmetry_multiplicity
 _atom_site_fract_x
 _atom_site_fract_y
 _atom_site_fract_z
 _atom_site_fract_occupancy
 Er  Er1  1  0.66690  0.66690  0.33380  1
 Er  Er2  1  0.33310  0.33310  0.66620  1
 Mg  Mg1  1  0.50000  0.00000  0.00000  1
 Mg  Mg2  1  0.00000  0.50000  0.00000  1
 Sn  Sn1  1  0.13750  0.13750  0.27500  1
 Sn  Sn2  1  0.86250  0.86250  0.72500  1
