CIF file written using JARVIS-Tools package.
data_AlN
_symmetry_space_group_name_H-M  'P6_3mc'
_cell_length_a       3.13004
_cell_length_b       3.13004
_cell_length_c       5.02125
_cell_angle_alpha    90
_cell_angle_beta     90
_cell_angle_gamma    120

_symmetry_Int_Tables_number  186
_chemical_formula_structural  AlN
_chemical_formula_sum  Al2N2
_cell_volume  42.60335573349161
_cell_formula_units_Z  2
loop_
  _symmetry_equiv_pos_site_id
 _symmetry_equiv_pos_as_xyz
 1  'x, y, z'
loop_
 _atom_site_type_symbol
 _atom_site_label
 _atom_site_symmetry_multiplicity
 _atom_site_fract_x
 _atom_site_fract_y
 _atom_site_fract_z
 _atom_site_fract_occupancy
 Al  Al1  1  0.66667  0.33333  0.49933  1
 Al  Al2  1  0.33333  0.66667  0.99933  1
 N  N1  1  0.66667  0.33333  0.88067  1
 N  N2  1  0.33333  0.66667  0.38067  1
