CIF file written using JARVIS-Tools package.
data_Na2US3
_symmetry_space_group_name_H-M  'C2/m'
_cell_length_a       6.88836
_cell_length_b       6.88837
_cell_length_c       6.9678
_cell_angle_alpha    99.5256
_cell_angle_beta     99.5257
_cell_angle_gamma    119.963

_symmetry_Int_Tables_number  12
_chemical_formula_structural  Na2US3
_chemical_formula_sum  Na4U2S6
_cell_volume  270.3062082353969
_cell_formula_units_Z  2
loop_
  _symmetry_equiv_pos_site_id
 _symmetry_equiv_pos_as_xyz
 1  'x, y, z'
loop_
 _atom_site_type_symbol
 _atom_site_label
 _atom_site_symmetry_multiplicity
 _atom_site_fract_x
 _atom_site_fract_y
 _atom_site_fract_z
 _atom_site_fract_occupancy
 Na  Na1  1  0.00000  0.00000  0.00000  1
 Na  Na2  1  0.50000  0.50000  0.50000  1
 Na  Na3  1  0.84064  0.15936  0.50000  1
 Na  Na4  1  0.15936  0.84064  0.50000  1
 S  S1  1  0.72434  0.72434  0.23059  1
 S  S2  1  0.92285  0.56922  0.76991  1
 S  S3  1  0.56922  0.92285  0.76991  1
 S  S4  1  0.27566  0.27566  0.76941  1
 S  S5  1  0.07715  0.43078  0.23009  1
 S  S6  1  0.43078  0.07715  0.23009  1
 U  U1  1  0.66718  0.33282  -0.00000  1
 U  U2  1  0.33282  0.66718  0.00000  1
