CIF file written using JARVIS-Tools package.
data_In2Pt2O7
_symmetry_space_group_name_H-M  'Fd-3m'
_cell_length_a       7.13594
_cell_length_b       7.13598
_cell_length_c       7.13589
_cell_angle_alpha    59.9997
_cell_angle_beta     59.9994
_cell_angle_gamma    60.0001

_symmetry_Int_Tables_number  227
_chemical_formula_structural  In2Pt2O7
_chemical_formula_sum  In4Pt4O4
_cell_volume  256.94224999119064
_cell_formula_units_Z  2
loop_
  _symmetry_equiv_pos_site_id
 _symmetry_equiv_pos_as_xyz
 1  'x, y, z'
loop_
 _atom_site_type_symbol
 _atom_site_label
 _atom_site_symmetry_multiplicity
 _atom_site_fract_x
 _atom_site_fract_y
 _atom_site_fract_z
 _atom_site_fract_occupancy
 In  In1  1  -0.00002  0.00001  0.00001  1
 In  In2  1  -0.00001  0.50000  0.50001  1
 In  In3  1  0.49999  0.00001  0.50000  1
 In  In4  1  0.00001  -0.00001  0.50001  1
 O  O1  1  0.12499  0.12501  0.62501  1
 O  O2  1  0.15781  0.59219  0.09218  1
 O  O3  1  0.84218  0.40782  0.90783  1
 O  O4  1  0.59221  0.15782  0.09215  1
 O  O5  1  0.59219  0.59217  0.65782  1
 O  O6  1  0.15783  0.59216  0.65782  1
 O  O7  1  0.40784  0.84218  0.34218  1
 O  O8  1  0.59218  0.15781  0.65781  1
 O  O9  1  0.84218  0.40782  0.34218  1
 O  O10  1  0.15782  0.15782  0.09221  1
 O  O11  1  0.40782  0.40782  0.34217  1
 O  O12  1  0.40779  0.84219  0.90783  1
 O  O13  1  0.84218  0.84218  0.90779  1
 O  O14  1  0.87499  0.87501  0.37501  1
 Pt  Pt1  1  0.50001  0.49999  0.50000  1
 Pt  Pt2  1  0.50000  -0.00000  -0.00001  1
 Pt  Pt3  1  0.00000  0.50000  0.00000  1
 Pt  Pt4  1  0.50000  0.50000  -0.00000  1
