CIF file written using JARVIS-Tools package.
data_Te2W
_symmetry_space_group_name_H-M  'Pmn2_1'
_cell_length_a       3.53441
_cell_length_b       6.32136
_cell_length_c       14.3838
_cell_angle_alpha    90
_cell_angle_beta     90
_cell_angle_gamma    90

_symmetry_Int_Tables_number  31
_chemical_formula_structural  Te2W
_chemical_formula_sum  Te8W4
_cell_volume  321.36637998919986
_cell_formula_units_Z  4
loop_
  _symmetry_equiv_pos_site_id
 _symmetry_equiv_pos_as_xyz
 1  'x, y, z'
loop_
 _atom_site_type_symbol
 _atom_site_label
 _atom_site_symmetry_multiplicity
 _atom_site_fract_x
 _atom_site_fract_y
 _atom_site_fract_z
 _atom_site_fract_occupancy
 Te  Te1  1  0.50000  0.80476  0.90534  1
 Te  Te2  1  0.00000  0.19524  0.40534  1
 Te  Te3  1  0.50000  0.68917  0.36134  1
 Te  Te4  1  0.00000  0.31083  0.86134  1
 Te  Te5  1  0.00000  0.84936  0.65379  1
 Te  Te6  1  0.50000  0.15064  0.15379  1
 Te  Te7  1  0.00000  0.65552  0.10969  1
 Te  Te8  1  0.50000  0.34448  0.60969  1
 W  W1  1  0.50000  0.94672  0.51512  1
 W  W2  1  0.00000  0.05328  0.01512  1
 W  W3  1  0.50000  0.40712  -0.00000  1
 W  W4  1  0.00000  0.59288  0.50000  1
