CIF file written using JARVIS-Tools package.
data_CO2
_symmetry_space_group_name_H-M  'P4_2/mnm'
_cell_length_a       4.26805
_cell_length_b       4.26805
_cell_length_c       9.21915
_cell_angle_alpha    90
_cell_angle_beta     90
_cell_angle_gamma    90

_symmetry_Int_Tables_number  136
_chemical_formula_structural  CO2
_chemical_formula_sum  C4O8
_cell_volume  167.93802551736542
_cell_formula_units_Z  4
loop_
  _symmetry_equiv_pos_site_id
 _symmetry_equiv_pos_as_xyz
 1  'x, y, z'
loop_
 _atom_site_type_symbol
 _atom_site_label
 _atom_site_symmetry_multiplicity
 _atom_site_fract_x
 _atom_site_fract_y
 _atom_site_fract_z
 _atom_site_fract_occupancy
 C  C1  1  0.49965  0.49965  0.00000  1
 C  C2  1  0.00035  -0.00035  0.25000  1
 C  C3  1  -0.00035  0.00035  0.75000  1
 C  C4  1  0.50035  0.50035  0.50000  1
 O  O1  1  0.19459  0.19389  0.25005  1
 O  O2  1  0.30611  0.69459  0.50005  1
 O  O3  1  0.69389  0.30541  0.00005  1
 O  O4  1  0.69459  0.30611  0.49995  1
 O  O5  1  0.30541  0.69389  -0.00005  1
 O  O6  1  0.80541  0.80611  0.75005  1
 O  O7  1  0.19389  0.19459  0.74995  1
 O  O8  1  0.80611  0.80541  0.24995  1
