CIF file written using JARVIS-Tools package.
data_LiCa2Si3
_symmetry_space_group_name_H-M  'Pnnm'
_cell_length_a       4.37316
_cell_length_b       10.5256
_cell_length_c       11.2128
_cell_angle_alpha    90
_cell_angle_beta     90
_cell_angle_gamma    90

_symmetry_Int_Tables_number  58
_chemical_formula_structural  LiCa2Si3
_chemical_formula_sum  Li4Ca8Si2
_cell_volume  516.1252412421103
_cell_formula_units_Z  4
loop_
  _symmetry_equiv_pos_site_id
 _symmetry_equiv_pos_as_xyz
 1  'x, y, z'
loop_
 _atom_site_type_symbol
 _atom_site_label
 _atom_site_symmetry_multiplicity
 _atom_site_fract_x
 _atom_site_fract_y
 _atom_site_fract_z
 _atom_site_fract_occupancy
 Ca  Ca1  1  0.00000  0.94867  0.85007  1
 Ca  Ca2  1  0.50000  0.55133  0.35007  1
 Ca  Ca3  1  0.50000  0.44867  0.64993  1
 Ca  Ca4  1  0.00000  0.05133  0.14993  1
 Ca  Ca5  1  0.00000  0.32180  0.92544  1
 Ca  Ca6  1  0.50000  0.17820  0.42544  1
 Ca  Ca7  1  0.50000  0.82180  0.57456  1
 Ca  Ca8  1  0.00000  0.67820  0.07456  1
 Li  Li1  1  0.50000  0.86082  0.28123  1
 Li  Li2  1  0.00000  0.36082  0.21877  1
 Li  Li3  1  0.50000  0.13918  0.71877  1
 Li  Li4  1  0.00000  0.63918  0.78123  1
 Si  Si1  1  0.00000  0.74466  0.36446  1
 Si  Si2  1  0.50000  0.75534  0.86446  1
 Si  Si3  1  0.50000  0.89082  0.04108  1
 Si  Si4  1  0.50000  0.10918  0.95892  1
 Si  Si5  1  0.00000  0.39082  0.45892  1
 Si  Si6  1  0.00000  0.60918  0.54108  1
 Si  Si7  1  0.00000  0.96716  0.39971  1
 Si  Si8  1  0.00000  0.03284  0.60029  1
 Si  Si9  1  0.50000  0.46716  0.10029  1
 Si  Si10  1  0.50000  0.53284  0.89971  1
 Si  Si11  1  0.00000  0.25534  0.63554  1
 Si  Si12  1  0.50000  0.24466  0.13554  1
