CIF file written using JARVIS-Tools package.
data_PmPd2Pb
_symmetry_space_group_name_H-M  'Fm-3m'
_cell_length_a       4.9388
_cell_length_b       4.93898
_cell_length_c       4.93855
_cell_angle_alpha    60.0005
_cell_angle_beta     60.0039
_cell_angle_gamma    59.9991

_symmetry_Int_Tables_number  225
_chemical_formula_structural  PmPd2Pb
_chemical_formula_sum  PmPd2Pb
_cell_volume  85.18350222552442
_cell_formula_units_Z  1
loop_
  _symmetry_equiv_pos_site_id
 _symmetry_equiv_pos_as_xyz
 1  'x, y, z'
loop_
 _atom_site_type_symbol
 _atom_site_label
 _atom_site_symmetry_multiplicity
 _atom_site_fract_x
 _atom_site_fract_y
 _atom_site_fract_z
 _atom_site_fract_occupancy
 Pb  Pb1  1  0.25002  0.24997  0.25002  1
 Pd  Pd1  1  0.00005  0.00001  0.99988  1
 Pd  Pd2  1  0.49994  0.50002  0.50008  1
 Pm  Pm1  1  0.74999  0.75000  0.75001  1
