CIF file written using JARVIS-Tools package.
data_CeZr7O16
_symmetry_space_group_name_H-M  'P-4m2'
_cell_length_a       7.30774
_cell_length_b       7.30774
_cell_length_c       5.26183
_cell_angle_alpha    90
_cell_angle_beta     90
_cell_angle_gamma    90

_symmetry_Int_Tables_number  115
_chemical_formula_structural  CeZr7O16
_chemical_formula_sum  CeZr7O6
_cell_volume  280.9978524789135
_cell_formula_units_Z  1
loop_
  _symmetry_equiv_pos_site_id
 _symmetry_equiv_pos_as_xyz
 1  'x, y, z'
loop_
 _atom_site_type_symbol
 _atom_site_label
 _atom_site_symmetry_multiplicity
 _atom_site_fract_x
 _atom_site_fract_y
 _atom_site_fract_z
 _atom_site_fract_occupancy
 Ce  Ce1  1  0.00000  0.00000  0.00000  1
 O  O1  1  0.00000  0.26726  0.78057  1
 O  O2  1  0.75228  0.00000  0.70287  1
 O  O3  1  0.73274  0.00000  0.21943  1
 O  O4  1  0.24376  0.50000  0.19811  1
 O  O5  1  0.50000  0.24376  0.80189  1
 O  O6  1  0.24772  0.00000  0.70287  1
 O  O7  1  0.00000  0.24772  0.29713  1
 O  O8  1  0.50000  0.26934  0.30171  1
 O  O9  1  0.00000  0.73274  0.78057  1
 O  O10  1  0.73066  0.50000  0.69829  1
 O  O11  1  0.75624  0.50000  0.19811  1
 O  O12  1  0.00000  0.75228  0.29713  1
 O  O13  1  0.50000  0.75624  0.80189  1
 O  O14  1  0.26934  0.50000  0.69829  1
 O  O15  1  0.26726  0.00000  0.21943  1
 O  O16  1  0.50000  0.73066  0.30171  1
 Zr  Zr1  1  0.25268  0.74732  0.50000  1
 Zr  Zr2  1  0.50000  0.50000  0.00000  1
 Zr  Zr3  1  0.74732  0.74732  0.50000  1
 Zr  Zr4  1  0.00000  0.50000  0.00223  1
 Zr  Zr5  1  0.25268  0.25268  0.50000  1
 Zr  Zr6  1  0.50000  0.00000  0.99777  1
 Zr  Zr7  1  0.74732  0.25268  0.50000  1
