CIF file written using JARVIS-Tools package.
data_Sr4Bi2O
_symmetry_space_group_name_H-M  'I4/mmm'
_cell_length_a       5.02798
_cell_length_b       5.02798
_cell_length_c       9.44495
_cell_angle_alpha    105.437
_cell_angle_beta     105.437
_cell_angle_gamma    90

_symmetry_Int_Tables_number  139
_chemical_formula_structural  Sr4Bi2O
_chemical_formula_sum  Sr4Bi2O
_cell_volume  221.21090451166796
_cell_formula_units_Z  1
loop_
  _symmetry_equiv_pos_site_id
 _symmetry_equiv_pos_as_xyz
 1  'x, y, z'
loop_
 _atom_site_type_symbol
 _atom_site_label
 _atom_site_symmetry_multiplicity
 _atom_site_fract_x
 _atom_site_fract_y
 _atom_site_fract_z
 _atom_site_fract_occupancy
 Bi  Bi1  1  0.36063  0.36063  0.72125  1
 Bi  Bi2  1  0.63937  0.63937  0.27875  1
 O  O1  1  0.00000  0.00000  0.00000  1
 Sr  Sr1  1  0.16654  0.16654  0.33308  1
 Sr  Sr2  1  0.83346  0.83346  0.66692  1
 Sr  Sr3  1  0.00000  0.50000  0.00000  1
 Sr  Sr4  1  0.50000  0.00000  0.00000  1
