CIF file written using JARVIS-Tools package.
data_MgH2O2
_symmetry_space_group_name_H-M  'P-3m1'
_cell_length_a       3.16245
_cell_length_b       3.16237
_cell_length_c       4.68499
_cell_angle_alpha    90
_cell_angle_beta     90.0052
_cell_angle_gamma    119.999

_symmetry_Int_Tables_number  164
_chemical_formula_structural  MgH2O2
_chemical_formula_sum  MgH2O2
_cell_volume  40.57709375095734
_cell_formula_units_Z  1
loop_
  _symmetry_equiv_pos_site_id
 _symmetry_equiv_pos_as_xyz
 1  'x, y, z'
loop_
 _atom_site_type_symbol
 _atom_site_label
 _atom_site_symmetry_multiplicity
 _atom_site_fract_x
 _atom_site_fract_y
 _atom_site_fract_z
 _atom_site_fract_occupancy
 H  H1  1  0.33340  0.72822  0.56861  1
 H  H2  1  0.66660  0.39482  0.43139  1
 Mg  Mg1  1  -0.00000  0.06143  -0.00000  1
 O  O1  1  0.33335  0.72813  0.77648  1
 O  O2  1  0.66665  0.39478  0.22352  1
