CIF file written using JARVIS-Tools package.
data_SmAl4Ni
_symmetry_space_group_name_H-M  'Cmcm'
_cell_length_a       4.11086
_cell_length_b       6.63724
_cell_length_c       8.10637
_cell_angle_alpha    90
_cell_angle_beta     104.688
_cell_angle_gamma    90

_symmetry_Int_Tables_number  63
_chemical_formula_structural  SmAl4Ni
_chemical_formula_sum  Sm2Al8Ni2
_cell_volume  213.95257138212924
_cell_formula_units_Z  2
loop_
  _symmetry_equiv_pos_site_id
 _symmetry_equiv_pos_as_xyz
 1  'x, y, z'
loop_
 _atom_site_type_symbol
 _atom_site_label
 _atom_site_symmetry_multiplicity
 _atom_site_fract_x
 _atom_site_fract_y
 _atom_site_fract_z
 _atom_site_fract_occupancy
 Al  Al1  1  0.00000  0.50000  0.00000  1
 Al  Al2  1  0.00000  0.00000  0.00000  1
 Al  Al3  1  0.57794  0.75000  0.15588  1
 Al  Al4  1  0.42206  0.25000  0.84412  1
 Al  Al5  1  0.80963  0.05234  0.61925  1
 Al  Al6  1  0.19037  0.94766  0.38075  1
 Al  Al7  1  0.19037  0.55234  0.38075  1
 Al  Al8  1  0.80963  0.44766  0.61925  1
 Ni  Ni1  1  0.72542  0.75000  0.45085  1
 Ni  Ni2  1  0.27458  0.25000  0.54915  1
 Sm  Sm1  1  0.38538  0.75000  0.77076  1
 Sm  Sm2  1  0.61462  0.25000  0.22924  1
