CIF file written using JARVIS-Tools package.
data_PrGa3
_symmetry_space_group_name_H-M  'P6_3/mmc'
_cell_length_a       6.548
_cell_length_b       6.548
_cell_length_c       4.5464
_cell_angle_alpha    90
_cell_angle_beta     90
_cell_angle_gamma    120

_symmetry_Int_Tables_number  194
_chemical_formula_structural  PrGa3
_chemical_formula_sum  Pr2Ga6
_cell_volume  168.8164388060893
_cell_formula_units_Z  2
loop_
  _symmetry_equiv_pos_site_id
 _symmetry_equiv_pos_as_xyz
 1  'x, y, z'
loop_
 _atom_site_type_symbol
 _atom_site_label
 _atom_site_symmetry_multiplicity
 _atom_site_fract_x
 _atom_site_fract_y
 _atom_site_fract_z
 _atom_site_fract_occupancy
 Ga  Ga1  1  0.85785  0.71569  0.75000  1
 Ga  Ga2  1  0.85785  0.14215  0.75000  1
 Ga  Ga3  1  0.28431  0.14215  0.75000  1
 Ga  Ga4  1  0.14215  0.28431  0.25000  1
 Ga  Ga5  1  0.14215  0.85785  0.25000  1
 Ga  Ga6  1  0.71569  0.85785  0.25000  1
 Pr  Pr1  1  0.66667  0.33333  0.25000  1
 Pr  Pr2  1  0.33333  0.66667  0.75000  1
