CIF file written using JARVIS-Tools package.
data_FeHO2
_symmetry_space_group_name_H-M  'Cmc2_1'
_cell_length_a       3.83998
_cell_length_b       6.21192
_cell_length_c       6.21192
_cell_angle_alpha    151.551
_cell_angle_beta     90
_cell_angle_gamma    90

_symmetry_Int_Tables_number  36
_chemical_formula_structural  FeHO2
_chemical_formula_sum  Fe2H2O4
_cell_volume  70.58832959688584
_cell_formula_units_Z  2
loop_
  _symmetry_equiv_pos_site_id
 _symmetry_equiv_pos_as_xyz
 1  'x, y, z'
loop_
 _atom_site_type_symbol
 _atom_site_label
 _atom_site_symmetry_multiplicity
 _atom_site_fract_x
 _atom_site_fract_y
 _atom_site_fract_z
 _atom_site_fract_occupancy
 Fe  Fe1  1  0.24648  0.68039  0.31961  1
 Fe  Fe2  1  0.74648  0.31961  0.68039  1
 H  H1  1  0.44868  0.01744  0.98256  1
 H  H2  1  0.94868  0.98256  0.01744  1
 O  O1  1  0.24587  0.30260  0.69740  1
 O  O2  1  0.74587  0.69740  0.30260  1
 O  O3  1  0.24447  0.07207  0.92793  1
 O  O4  1  0.74447  0.92793  0.07207  1
