CIF file written using JARVIS-Tools package.
data_Dy2Co3Si5
_symmetry_space_group_name_H-M  'C2/c'
_cell_length_a       5.52877
_cell_length_b       7.86524
_cell_length_c       7.86525
_cell_angle_alpha    93.1715
_cell_angle_beta     109.357
_cell_angle_gamma    109.357

_symmetry_Int_Tables_number  15
_chemical_formula_structural  Dy2Co3Si5
_chemical_formula_sum  Dy4Co6Si0
_cell_volume  299.15762377886557
_cell_formula_units_Z  2
loop_
  _symmetry_equiv_pos_site_id
 _symmetry_equiv_pos_as_xyz
 1  'x, y, z'
loop_
 _atom_site_type_symbol
 _atom_site_label
 _atom_site_symmetry_multiplicity
 _atom_site_fract_x
 _atom_site_fract_y
 _atom_site_fract_z
 _atom_site_fract_occupancy
 Co  Co1  1  0.87461  0.53669  0.26057  1
 Co  Co2  1  0.75000  0.99585  0.00415  1
 Co  Co3  1  0.37461  0.26057  0.53669  1
 Co  Co4  1  0.12539  0.46331  0.73943  1
 Co  Co5  1  0.25000  0.00415  0.99585  1
 Co  Co6  1  0.62539  0.73943  0.46331  1
 Dy  Dy1  1  0.73477  0.59800  0.86951  1
 Dy  Dy2  1  0.23477  0.86951  0.59800  1
 Dy  Dy3  1  0.26523  0.40200  0.13049  1
 Dy  Dy4  1  0.76523  0.13049  0.40200  1
 Si  Si1  1  0.83456  0.93725  0.73876  1
 Si  Si2  1  0.25000  0.76900  0.23100  1
 Si  Si3  1  0.66544  0.26124  0.06275  1
 Si  Si4  1  0.16544  0.06275  0.26124  1
 Si  Si5  1  0.75000  0.78359  0.21641  1
 Si  Si6  1  0.25000  0.21641  0.78359  1
 Si  Si7  1  0.75000  0.48969  0.51031  1
 Si  Si8  1  0.25000  0.51031  0.48969  1
 Si  Si9  1  0.75000  0.23100  0.76900  1
 Si  Si10  1  0.33456  0.73876  0.93725  1
