CIF file written using JARVIS-Tools package.
data_TbNi4B
_symmetry_space_group_name_H-M  'P6/mmm'
_cell_length_a       4.98123
_cell_length_b       4.98123
_cell_length_c       6.97272
_cell_angle_alpha    90
_cell_angle_beta     90
_cell_angle_gamma    120

_symmetry_Int_Tables_number  191
_chemical_formula_structural  TbNi4B
_chemical_formula_sum  Tb2Ni8B2
_cell_volume  149.8324274363691
_cell_formula_units_Z  2
loop_
  _symmetry_equiv_pos_site_id
 _symmetry_equiv_pos_as_xyz
 1  'x, y, z'
loop_
 _atom_site_type_symbol
 _atom_site_label
 _atom_site_symmetry_multiplicity
 _atom_site_fract_x
 _atom_site_fract_y
 _atom_site_fract_z
 _atom_site_fract_occupancy
 B  B1  1  0.66667  0.33333  0.50000  1
 B  B2  1  0.33333  0.66667  0.50000  1
 Ni  Ni1  1  0.33333  0.66667  0.00000  1
 Ni  Ni2  1  0.66667  0.33333  0.00000  1
 Ni  Ni3  1  -0.00000  0.50000  0.70825  1
 Ni  Ni4  1  0.50000  0.50000  0.70825  1
 Ni  Ni5  1  0.50000  -0.00000  0.70825  1
 Ni  Ni6  1  -0.00000  0.50000  0.29175  1
 Ni  Ni7  1  0.50000  0.50000  0.29175  1
 Ni  Ni8  1  0.50000  -0.00000  0.29175  1
 Tb  Tb1  1  0.00000  0.00000  0.50000  1
 Tb  Tb2  1  0.00000  0.00000  0.00000  1
