CIF file written using JARVIS-Tools package.
data_Te2Mo3WSe4S2
_symmetry_space_group_name_H-M  'P3m1'
_cell_length_a       3.34559
_cell_length_b       3.3457
_cell_length_c       35.3205
_cell_angle_alpha    90.001
_cell_angle_beta     89.983
_cell_angle_gamma    120.003

_symmetry_Int_Tables_number  156
_chemical_formula_structural  Te2Mo3WSe4S2
_chemical_formula_sum  Te2Mo3WSe4S2
_cell_volume  342.37742202192624
_cell_formula_units_Z  1
loop_
  _symmetry_equiv_pos_site_id
 _symmetry_equiv_pos_as_xyz
 1  'x, y, z'
loop_
 _atom_site_type_symbol
 _atom_site_label
 _atom_site_symmetry_multiplicity
 _atom_site_fract_x
 _atom_site_fract_y
 _atom_site_fract_z
 _atom_site_fract_occupancy
 Mo  Mo1  1  0.33288  0.66668  0.08986  1
 Mo  Mo2  1  0.33343  0.66658  0.47295  1
 Mo  Mo3  1  0.66650  0.33333  0.27585  1
 S  S1  1  0.33360  0.66662  0.70738  1
 S  S2  1  0.33399  0.66675  0.62103  1
 Se  Se1  1  0.33297  0.66657  0.32307  1
 Se  Se2  1  0.66638  0.33339  0.04272  1
 Se  Se3  1  0.66596  0.33327  0.13706  1
 Se  Se4  1  0.33343  0.66679  0.22866  1
 Te  Te1  1  0.66709  0.33335  0.41912  1
 Te  Te2  1  0.66665  0.33331  0.52682  1
 W  W1  1  0.66711  0.33335  0.66423  1
