CIF file written using JARVIS-Tools package.
data_CaTi4Cu3O12
_symmetry_space_group_name_H-M  'Im-3m'
_cell_length_a       6.68019
_cell_length_b       6.6802
_cell_length_c       6.6809
_cell_angle_alpha    109.472
_cell_angle_beta     109.473
_cell_angle_gamma    109.466

_symmetry_Int_Tables_number  229
_chemical_formula_structural  CaTi4Cu3O12
_chemical_formula_sum  CaTi4Cu3O2
_cell_volume  229.5091376577535
_cell_formula_units_Z  1
loop_
  _symmetry_equiv_pos_site_id
 _symmetry_equiv_pos_as_xyz
 1  'x, y, z'
loop_
 _atom_site_type_symbol
 _atom_site_label
 _atom_site_symmetry_multiplicity
 _atom_site_fract_x
 _atom_site_fract_y
 _atom_site_fract_z
 _atom_site_fract_occupancy
 Ca  Ca1  1  -0.00000  0.99999  0.00001  1
 Cu  Cu1  1  0.49998  0.49999  0.00000  1
 Cu  Cu2  1  0.49999  0.99996  0.50001  1
 Cu  Cu3  1  0.00003  0.50003  0.50000  1
 O  O1  1  0.75272  0.24728  1.00000  1
 O  O2  1  0.75272  0.75272  0.50544  1
 O  O3  1  0.75275  0.50548  0.75273  1
 O  O4  1  0.24726  -0.00001  0.75273  1
 O  O5  1  0.50548  0.75275  0.75273  1
 O  O6  1  0.49453  0.24726  0.24727  1
 O  O7  1  0.99998  0.24726  0.75273  1
 O  O8  1  0.24728  0.24728  0.49455  1
 O  O9  1  0.00001  0.75275  0.24726  1
 O  O10  1  0.75275  0.00002  0.24727  1
 O  O11  1  0.24727  0.49454  0.24727  1
 O  O12  1  0.24728  0.75272  -0.00000  1
 Ti  Ti1  1  0.50000  0.00001  0.00001  1
 Ti  Ti2  1  0.50000  0.49999  0.50000  1
 Ti  Ti3  1  0.00000  0.00000  0.50001  1
 Ti  Ti4  1  0.99999  0.49999  -0.00001  1
