CIF file written using JARVIS-Tools package.
data_CaMgSiO4
_symmetry_space_group_name_H-M  'Pnma'
_cell_length_a       5.20349
_cell_length_b       6.79879
_cell_length_c       9.12499
_cell_angle_alpha    90
_cell_angle_beta     90
_cell_angle_gamma    90

_symmetry_Int_Tables_number  62
_chemical_formula_structural  CaMgSiO4
_chemical_formula_sum  Ca4Mg4Si4O6
_cell_volume  322.8187719993547
_cell_formula_units_Z  4
loop_
  _symmetry_equiv_pos_site_id
 _symmetry_equiv_pos_as_xyz
 1  'x, y, z'
loop_
 _atom_site_type_symbol
 _atom_site_label
 _atom_site_symmetry_multiplicity
 _atom_site_fract_x
 _atom_site_fract_y
 _atom_site_fract_z
 _atom_site_fract_occupancy
 Ca  Ca1  1  0.02311  0.75000  0.35500  1
 Ca  Ca2  1  0.97689  0.25000  0.64500  1
 Ca  Ca3  1  0.52311  0.25000  0.14500  1
 Ca  Ca4  1  0.47689  0.75000  0.85500  1
 Mg  Mg1  1  0.50000  0.00000  0.50000  1
 Mg  Mg2  1  0.00000  0.00000  0.00000  1
 Mg  Mg3  1  0.00000  0.50000  0.00000  1
 Mg  Mg4  1  0.50000  0.50000  0.50000  1
 O  O1  1  0.18600  0.44184  0.38182  1
 O  O2  1  0.76921  0.25000  0.87960  1
 O  O3  1  0.68600  0.55816  0.11818  1
 O  O4  1  0.73079  0.25000  0.37960  1
 O  O5  1  0.23079  0.75000  0.12040  1
 O  O6  1  0.68600  0.94184  0.11818  1
 O  O7  1  0.26921  0.75000  0.62040  1
 O  O8  1  0.18600  0.05816  0.38182  1
 O  O9  1  0.94188  0.75000  0.86190  1
 O  O10  1  0.44188  0.25000  0.63810  1
 O  O11  1  0.31400  0.05816  0.88182  1
 O  O12  1  0.05812  0.25000  0.13810  1
 O  O13  1  0.81400  0.55816  0.61818  1
 O  O14  1  0.31400  0.44184  0.88182  1
 O  O15  1  0.81400  0.94184  0.61818  1
 O  O16  1  0.55812  0.75000  0.36190  1
 Si  Si1  1  0.03116  0.25000  0.31929  1
 Si  Si2  1  0.46884  0.25000  0.81929  1
 Si  Si3  1  0.53116  0.75000  0.18071  1
 Si  Si4  1  0.96884  0.75000  0.68071  1
