CIF file written using JARVIS-Tools package.
data_YErO3
_symmetry_space_group_name_H-M  'Pnma'
_cell_length_a       5.63175
_cell_length_b       5.90554
_cell_length_c       8.3567
_cell_angle_alpha    90
_cell_angle_beta     90
_cell_angle_gamma    90

_symmetry_Int_Tables_number  62
_chemical_formula_structural  YErO3
_chemical_formula_sum  Y4Er4O2
_cell_volume  277.9316171728038
_cell_formula_units_Z  4
loop_
  _symmetry_equiv_pos_site_id
 _symmetry_equiv_pos_as_xyz
 1  'x, y, z'
loop_
 _atom_site_type_symbol
 _atom_site_label
 _atom_site_symmetry_multiplicity
 _atom_site_fract_x
 _atom_site_fract_y
 _atom_site_fract_z
 _atom_site_fract_occupancy
 Er  Er1  1  0.00000  0.50000  0.00000  1
 Er  Er2  1  0.00000  0.50000  0.50000  1
 Er  Er3  1  0.50000  0.00000  0.00000  1
 Er  Er4  1  0.50000  0.00000  0.50000  1
 O  O1  1  0.68548  0.31076  0.07995  1
 O  O2  1  0.14965  0.42049  0.25000  1
 O  O3  1  0.81452  0.81076  0.42005  1
 O  O4  1  0.18548  0.18924  0.92005  1
 O  O5  1  0.31452  0.68924  0.92005  1
 O  O6  1  0.18548  0.18924  0.57995  1
 O  O7  1  0.35035  0.92049  0.25000  1
 O  O8  1  0.85035  0.57951  0.75000  1
 O  O9  1  0.68548  0.31076  0.42005  1
 O  O10  1  0.31452  0.68924  0.57995  1
 O  O11  1  0.81452  0.81076  0.07995  1
 O  O12  1  0.64965  0.07951  0.75000  1
 Y  Y1  1  0.97945  0.05585  0.25000  1
 Y  Y2  1  0.52055  0.55585  0.25000  1
 Y  Y3  1  0.47945  0.44415  0.75000  1
 Y  Y4  1  0.02055  0.94415  0.75000  1
