CIF file written using JARVIS-Tools package.
data_TbSnPt
_symmetry_space_group_name_H-M  'Pnma'
_cell_length_a       4.55657
_cell_length_b       7.22232
_cell_length_c       8.07392
_cell_angle_alpha    90
_cell_angle_beta     90
_cell_angle_gamma    90

_symmetry_Int_Tables_number  62
_chemical_formula_structural  TbSnPt
_chemical_formula_sum  Tb4Sn4Pt4
_cell_volume  265.7050505777556
_cell_formula_units_Z  4
loop_
  _symmetry_equiv_pos_site_id
 _symmetry_equiv_pos_as_xyz
 1  'x, y, z'
loop_
 _atom_site_type_symbol
 _atom_site_label
 _atom_site_symmetry_multiplicity
 _atom_site_fract_x
 _atom_site_fract_y
 _atom_site_fract_z
 _atom_site_fract_occupancy
 Pt  Pt1  1  0.25000  0.77826  0.90853  1
 Pt  Pt2  1  0.25000  0.27826  0.59147  1
 Pt  Pt3  1  0.75000  0.72174  0.40853  1
 Pt  Pt4  1  0.75000  0.22174  0.09147  1
 Sn  Sn1  1  0.25000  0.67555  0.58386  1
 Sn  Sn2  1  0.25000  0.17555  0.91614  1
 Sn  Sn3  1  0.75000  0.32445  0.41614  1
 Sn  Sn4  1  0.75000  0.82445  0.08386  1
 Tb  Tb1  1  0.75000  0.48932  0.80650  1
 Tb  Tb2  1  0.25000  0.01068  0.30650  1
 Tb  Tb3  1  0.75000  0.98932  0.69350  1
 Tb  Tb4  1  0.25000  0.51068  0.19350  1
