CIF file written using JARVIS-Tools package.
data_Li8IrO6
_symmetry_space_group_name_H-M  'R-3'
_cell_length_a       5.90382
_cell_length_b       5.90382
_cell_length_c       5.90382
_cell_angle_alpha    54.4806
_cell_angle_beta     54.4806
_cell_angle_gamma    54.4806

_symmetry_Int_Tables_number  148
_chemical_formula_structural  Li8IrO6
_chemical_formula_sum  Li8IrO6
_cell_volume  126.78242487702832
_cell_formula_units_Z  1
loop_
  _symmetry_equiv_pos_site_id
 _symmetry_equiv_pos_as_xyz
 1  'x, y, z'
loop_
 _atom_site_type_symbol
 _atom_site_label
 _atom_site_symmetry_multiplicity
 _atom_site_fract_x
 _atom_site_fract_y
 _atom_site_fract_z
 _atom_site_fract_occupancy
 Ir  Ir1  1  0.00000  0.00000  0.00000  1
 Li  Li1  1  0.34132  0.34132  0.34132  1
 Li  Li2  1  0.51619  0.89787  0.23303  1
 Li  Li3  1  0.23303  0.51619  0.89787  1
 Li  Li4  1  0.89787  0.23303  0.51619  1
 Li  Li5  1  0.48381  0.10213  0.76697  1
 Li  Li6  1  0.76697  0.48381  0.10213  1
 Li  Li7  1  0.65868  0.65868  0.65868  1
 Li  Li8  1  0.10213  0.76697  0.48381  1
 O  O1  1  0.23763  0.90931  0.61192  1
 O  O2  1  0.09069  0.38808  0.76237  1
 O  O3  1  0.76237  0.09069  0.38808  1
 O  O4  1  0.61192  0.23763  0.90931  1
 O  O5  1  0.90931  0.61192  0.23763  1
 O  O6  1  0.38808  0.76237  0.09069  1
