CIF file written using JARVIS-Tools package.
data_HoGeIr
_symmetry_space_group_name_H-M  'Pnma'
_cell_length_a       4.3044
_cell_length_b       6.83541
_cell_length_c       7.61327
_cell_angle_alpha    90
_cell_angle_beta     90
_cell_angle_gamma    90

_symmetry_Int_Tables_number  62
_chemical_formula_structural  HoGeIr
_chemical_formula_sum  Ho4Ge4Ir4
_cell_volume  224.00025125104503
_cell_formula_units_Z  4
loop_
  _symmetry_equiv_pos_site_id
 _symmetry_equiv_pos_as_xyz
 1  'x, y, z'
loop_
 _atom_site_type_symbol
 _atom_site_label
 _atom_site_symmetry_multiplicity
 _atom_site_fract_x
 _atom_site_fract_y
 _atom_site_fract_z
 _atom_site_fract_occupancy
 Ge  Ge1  1  0.25000  0.79125  0.89165  1
 Ge  Ge2  1  0.25000  0.29125  0.60835  1
 Ge  Ge3  1  0.75000  0.20875  0.10835  1
 Ge  Ge4  1  0.75000  0.70875  0.39165  1
 Ho  Ho1  1  0.75000  0.49521  0.80701  1
 Ho  Ho2  1  0.25000  0.00479  0.30701  1
 Ho  Ho3  1  0.75000  0.99521  0.69299  1
 Ho  Ho4  1  0.25000  0.50479  0.19299  1
 Ir  Ir1  1  0.25000  0.66560  0.56808  1
 Ir  Ir2  1  0.25000  0.16560  0.93192  1
 Ir  Ir3  1  0.75000  0.83440  0.06808  1
 Ir  Ir4  1  0.75000  0.33440  0.43192  1
