CIF file written using JARVIS-Tools package.
data_U2Ni2Sn
_symmetry_space_group_name_H-M  'P4/mbm'
_cell_length_a       6.76909
_cell_length_b       6.76909
_cell_length_c       4.10036
_cell_angle_alpha    90
_cell_angle_beta     90
_cell_angle_gamma    90

_symmetry_Int_Tables_number  127
_chemical_formula_structural  U2Ni2Sn
_chemical_formula_sum  U4Ni4Sn2
_cell_volume  187.88060592160977
_cell_formula_units_Z  2
loop_
  _symmetry_equiv_pos_site_id
 _symmetry_equiv_pos_as_xyz
 1  'x, y, z'
loop_
 _atom_site_type_symbol
 _atom_site_label
 _atom_site_symmetry_multiplicity
 _atom_site_fract_x
 _atom_site_fract_y
 _atom_site_fract_z
 _atom_site_fract_occupancy
 Ni  Ni1  1  0.35878  0.14122  0.00000  1
 Ni  Ni2  1  0.85878  0.35878  0.00000  1
 Ni  Ni3  1  0.14122  0.64122  0.00000  1
 Ni  Ni4  1  0.64122  0.85878  0.00000  1
 Sn  Sn1  1  0.00000  0.00000  0.00000  1
 Sn  Sn2  1  0.50000  0.50000  0.00000  1
 U  U1  1  0.36031  0.86031  0.50000  1
 U  U2  1  0.86031  0.63969  0.50000  1
 U  U3  1  0.13969  0.36031  0.50000  1
 U  U4  1  0.63969  0.13969  0.50000  1
