CIF file written using JARVIS-Tools package.
data_Yb3Sb5O12
_symmetry_space_group_name_H-M  'Im-3m'
_cell_length_a       9.03067
_cell_length_b       9.03067
_cell_length_c       9.03067
_cell_angle_alpha    109.471
_cell_angle_beta     109.471
_cell_angle_gamma    109.471

_symmetry_Int_Tables_number  229
_chemical_formula_structural  Yb3Sb5O12
_chemical_formula_sum  Yb6Sb0O24
_cell_volume  566.9414332233815
_cell_formula_units_Z  2
loop_
  _symmetry_equiv_pos_site_id
 _symmetry_equiv_pos_as_xyz
 1  'x, y, z'
loop_
 _atom_site_type_symbol
 _atom_site_label
 _atom_site_symmetry_multiplicity
 _atom_site_fract_x
 _atom_site_fract_y
 _atom_site_fract_z
 _atom_site_fract_occupancy
 O  O1  1  0.78229  0.53213  0.00000  1
 O  O2  1  -0.00000  0.46788  0.21772  1
 O  O3  1  0.00000  0.53213  0.78229  1
 O  O4  1  0.00000  0.78229  0.53213  1
 O  O5  1  0.78228  0.25016  0.78228  1
 O  O6  1  0.25016  0.78228  0.78228  1
 O  O7  1  0.74984  0.21771  0.21771  1
 O  O8  1  0.46788  0.21772  -0.00000  1
 O  O9  1  0.21772  0.46788  -0.00000  1
 O  O10  1  0.53213  0.00000  0.78229  1
 O  O11  1  0.53213  0.78229  0.00000  1
 O  O12  1  0.21771  0.74984  0.21771  1
 O  O13  1  0.46787  0.25016  0.46787  1
 O  O14  1  0.46788  -0.00000  0.21772  1
 O  O15  1  0.21771  0.21771  0.74984  1
 O  O16  1  0.21772  -0.00000  0.46788  1
 O  O17  1  0.78228  0.78228  0.25016  1
 O  O18  1  0.53212  0.74984  0.53212  1
 O  O19  1  0.78229  0.00000  0.53213  1
 O  O20  1  0.74984  0.53212  0.53212  1
 O  O21  1  0.25016  0.46787  0.46787  1
 O  O22  1  0.46787  0.46787  0.25016  1
 O  O23  1  -0.00000  0.21772  0.46788  1
 O  O24  1  0.53212  0.53212  0.74984  1
 Sb  Sb1  1  0.50000  0.50000  0.50000  1
 Sb  Sb2  1  0.00000  0.00000  0.50000  1
 Sb  Sb3  1  0.25186  0.25186  0.00000  1
 Sb  Sb4  1  0.74814  0.74814  -0.00000  1
 Sb  Sb5  1  0.00000  0.50000  0.00000  1
 Sb  Sb6  1  0.00000  0.25186  0.25186  1
 Sb  Sb7  1  0.50000  -0.00000  0.00000  1
 Sb  Sb8  1  -0.00000  0.74814  0.74814  1
 Sb  Sb9  1  0.74814  -0.00000  0.74814  1
 Sb  Sb10  1  0.25186  0.00000  0.25186  1
 Yb  Yb1  1  0.50000  0.25000  0.75000  1
 Yb  Yb2  1  0.75000  0.50000  0.25000  1
 Yb  Yb3  1  0.75000  0.25000  0.50000  1
 Yb  Yb4  1  0.25000  0.75000  0.50000  1
 Yb  Yb5  1  0.25000  0.50000  0.75000  1
 Yb  Yb6  1  0.50000  0.75000  0.25000  1
