CIF file written using JARVIS-Tools package.
data_Dy3CuSnS7
_symmetry_space_group_name_H-M  'P6_3'
_cell_length_a       9.71921
_cell_length_b       9.71921
_cell_length_c       6.22763
_cell_angle_alpha    90
_cell_angle_beta     90
_cell_angle_gamma    120

_symmetry_Int_Tables_number  173
_chemical_formula_structural  Dy3CuSnS7
_chemical_formula_sum  Dy6Cu2Sn2S4
_cell_volume  509.46621231982806
_cell_formula_units_Z  2
loop_
  _symmetry_equiv_pos_site_id
 _symmetry_equiv_pos_as_xyz
 1  'x, y, z'
loop_
 _atom_site_type_symbol
 _atom_site_label
 _atom_site_symmetry_multiplicity
 _atom_site_fract_x
 _atom_site_fract_y
 _atom_site_fract_z
 _atom_site_fract_occupancy
 Cu  Cu1  1  0.00000  0.00000  0.15106  1
 Cu  Cu2  1  0.00000  0.00000  0.65106  1
 Dy  Dy1  1  0.84673  0.20681  0.26676  1
 Dy  Dy2  1  0.15327  0.79319  0.76676  1
 Dy  Dy3  1  0.79319  0.63993  0.26676  1
 Dy  Dy4  1  0.63993  0.84673  0.76676  1
 Dy  Dy5  1  0.36007  0.15327  0.26676  1
 Dy  Dy6  1  0.20681  0.36007  0.76676  1
 S  S1  1  0.66667  0.33333  0.44524  1
 S  S2  1  0.73601  0.88248  0.18810  1
 S  S3  1  0.55928  0.08007  0.01357  1
 S  S4  1  0.14647  0.26399  0.18810  1
 S  S5  1  0.33333  0.66667  0.94524  1
 S  S6  1  0.47921  0.55928  0.51357  1
 S  S7  1  0.52079  0.44072  0.01357  1
 S  S8  1  0.08007  0.52079  0.51357  1
 S  S9  1  0.44072  0.91993  0.51357  1
 S  S10  1  0.85353  0.73601  0.68810  1
 S  S11  1  0.26399  0.11752  0.68810  1
 S  S12  1  0.11752  0.85353  0.18810  1
 S  S13  1  0.88248  0.14647  0.68810  1
 S  S14  1  0.91993  0.47921  0.01357  1
 Sn  Sn1  1  0.33333  0.66667  0.33078  1
 Sn  Sn2  1  0.66667  0.33333  0.83078  1
