CIF file written using JARVIS-Tools package.
data_U4Tc7Si6
_symmetry_space_group_name_H-M  'Immm'
_cell_length_a       7.13143
_cell_length_b       7.13143
_cell_length_c       7.13143
_cell_angle_alpha    109.471
_cell_angle_beta     109.471
_cell_angle_gamma    109.471

_symmetry_Int_Tables_number  71
_chemical_formula_structural  U4Tc7Si6
_chemical_formula_sum  U4Tc7Si6
_cell_volume  279.19560281416307
_cell_formula_units_Z  1
loop_
  _symmetry_equiv_pos_site_id
 _symmetry_equiv_pos_as_xyz
 1  'x, y, z'
loop_
 _atom_site_type_symbol
 _atom_site_label
 _atom_site_symmetry_multiplicity
 _atom_site_fract_x
 _atom_site_fract_y
 _atom_site_fract_z
 _atom_site_fract_occupancy
 Si  Si1  1  0.25000  0.75000  0.50000  1
 Si  Si2  1  0.30970  0.30970  0.00000  1
 Si  Si3  1  0.69030  0.69030  -0.00000  1
 Si  Si4  1  0.69030  -0.00000  0.69030  1
 Si  Si5  1  0.30970  0.00000  0.30970  1
 Si  Si6  1  0.75000  0.25000  0.50000  1
 Tc  Tc1  1  0.00000  0.30970  0.30970  1
 Tc  Tc2  1  0.75000  0.50000  0.25000  1
 Tc  Tc3  1  -0.00000  0.69030  0.69030  1
 Tc  Tc4  1  0.00000  0.00000  0.00000  1
 Tc  Tc5  1  0.25000  0.50000  0.75000  1
 Tc  Tc6  1  0.50000  0.75000  0.25000  1
 Tc  Tc7  1  0.50000  0.25000  0.75000  1
 U  U1  1  0.50000  0.00000  0.00000  1
 U  U2  1  0.00000  0.00000  0.50000  1
 U  U3  1  -0.00000  0.50000  0.00000  1
 U  U4  1  0.50000  0.50000  0.50000  1
