CIF file written using JARVIS-Tools package.
data_Ce2Fe2Si2C
_symmetry_space_group_name_H-M  'C2/m'
_cell_length_a       3.95667
_cell_length_b       5.76243
_cell_length_c       5.71527
_cell_angle_alpha    75.0472
_cell_angle_beta     69.7481
_cell_angle_gamma    69.921

_symmetry_Int_Tables_number  12
_chemical_formula_structural  Ce2Fe2Si2C
_chemical_formula_sum  Ce2Fe2Si2C
_cell_volume  113.38052451245807
_cell_formula_units_Z  1
loop_
  _symmetry_equiv_pos_site_id
 _symmetry_equiv_pos_as_xyz
 1  'x, y, z'
loop_
 _atom_site_type_symbol
 _atom_site_label
 _atom_site_symmetry_multiplicity
 _atom_site_fract_x
 _atom_site_fract_y
 _atom_site_fract_z
 _atom_site_fract_occupancy
 C  C1  1  0.00000  0.00000  0.00000  1
 Ce  Ce1  1  0.43870  0.82535  0.29724  1
 Ce  Ce2  1  0.56130  0.17465  0.70276  1
 Fe  Fe1  1  0.80491  0.30996  0.08022  1
 Fe  Fe2  1  0.19509  0.69004  0.91978  1
 Si  Si1  1  0.83205  0.61486  0.72104  1
 Si  Si2  1  0.16795  0.38514  0.27896  1
