CIF file written using JARVIS-Tools package.
data_SrLiGe2
_symmetry_space_group_name_H-M  'Pnma'
_cell_length_a       4.45084
_cell_length_b       7.19415
_cell_length_c       11.5604
_cell_angle_alpha    90
_cell_angle_beta     90
_cell_angle_gamma    90

_symmetry_Int_Tables_number  62
_chemical_formula_structural  SrLiGe2
_chemical_formula_sum  Sr4Li4Ge8
_cell_volume  370.16520538554647
_cell_formula_units_Z  4
loop_
  _symmetry_equiv_pos_site_id
 _symmetry_equiv_pos_as_xyz
 1  'x, y, z'
loop_
 _atom_site_type_symbol
 _atom_site_label
 _atom_site_symmetry_multiplicity
 _atom_site_fract_x
 _atom_site_fract_y
 _atom_site_fract_z
 _atom_site_fract_occupancy
 Ge  Ge1  1  0.75000  0.96310  0.34032  1
 Ge  Ge2  1  0.25000  0.03690  0.65968  1
 Ge  Ge3  1  0.75000  0.46310  0.15968  1
 Ge  Ge4  1  0.25000  0.53690  0.84032  1
 Ge  Ge5  1  0.75000  0.81057  0.14166  1
 Ge  Ge6  1  0.25000  0.18943  0.85834  1
 Ge  Ge7  1  0.75000  0.31057  0.35834  1
 Ge  Ge8  1  0.25000  0.68943  0.64166  1
 Li  Li1  1  0.25000  0.62527  0.06080  1
 Li  Li2  1  0.75000  0.37473  0.93920  1
 Li  Li3  1  0.25000  0.12527  0.43920  1
 Li  Li4  1  0.75000  0.87473  0.56080  1
 Sr  Sr1  1  0.25000  0.63761  0.35522  1
 Sr  Sr2  1  0.75000  0.36239  0.64478  1
 Sr  Sr3  1  0.25000  0.13761  0.14478  1
 Sr  Sr4  1  0.75000  0.86239  0.85522  1
