CIF file written using JARVIS-Tools package.
data_ErSiRu
_symmetry_space_group_name_H-M  'Pnma'
_cell_length_a       4.31886
_cell_length_b       6.93247
_cell_length_c       7.08997
_cell_angle_alpha    90
_cell_angle_beta     90
_cell_angle_gamma    90

_symmetry_Int_Tables_number  62
_chemical_formula_structural  ErSiRu
_chemical_formula_sum  Er4Si4Ru4
_cell_volume  212.27643439388612
_cell_formula_units_Z  4
loop_
  _symmetry_equiv_pos_site_id
 _symmetry_equiv_pos_as_xyz
 1  'x, y, z'
loop_
 _atom_site_type_symbol
 _atom_site_label
 _atom_site_symmetry_multiplicity
 _atom_site_fract_x
 _atom_site_fract_y
 _atom_site_fract_z
 _atom_site_fract_occupancy
 Er  Er1  1  0.25000  0.98623  0.81265  1
 Er  Er2  1  0.75000  0.01377  0.18735  1
 Er  Er3  1  0.25000  0.48623  0.68735  1
 Er  Er4  1  0.75000  0.51377  0.31265  1
 Ru  Ru1  1  0.75000  0.84471  0.56623  1
 Ru  Ru2  1  0.25000  0.15529  0.43377  1
 Ru  Ru3  1  0.75000  0.34471  0.93377  1
 Ru  Ru4  1  0.25000  0.65529  0.06623  1
 Si  Si1  1  0.25000  0.30241  0.10652  1
 Si  Si2  1  0.75000  0.69759  0.89348  1
 Si  Si3  1  0.25000  0.80241  0.39348  1
 Si  Si4  1  0.75000  0.19759  0.60652  1
