CIF file written using JARVIS-Tools package.
data_TaSiRh
_symmetry_space_group_name_H-M  'Pnma'
_cell_length_a       3.77357
_cell_length_b       6.42367
_cell_length_c       7.34902
_cell_angle_alpha    90
_cell_angle_beta     90
_cell_angle_gamma    90

_symmetry_Int_Tables_number  62
_chemical_formula_structural  TaSiRh
_chemical_formula_sum  Ta4Si4Rh4
_cell_volume  178.14176528739793
_cell_formula_units_Z  4
loop_
  _symmetry_equiv_pos_site_id
 _symmetry_equiv_pos_as_xyz
 1  'x, y, z'
loop_
 _atom_site_type_symbol
 _atom_site_label
 _atom_site_symmetry_multiplicity
 _atom_site_fract_x
 _atom_site_fract_y
 _atom_site_fract_z
 _atom_site_fract_occupancy
 Rh  Rh1  1  0.75000  0.85497  0.56404  1
 Rh  Rh2  1  0.25000  0.14503  0.43596  1
 Rh  Rh3  1  0.75000  0.35497  0.93596  1
 Rh  Rh4  1  0.25000  0.64503  0.06404  1
 Si  Si1  1  0.25000  0.26718  0.12444  1
 Si  Si2  1  0.75000  0.73282  0.87556  1
 Si  Si3  1  0.25000  0.76718  0.37556  1
 Si  Si4  1  0.75000  0.23282  0.62444  1
 Ta  Ta1  1  0.25000  0.52569  0.67290  1
 Ta  Ta2  1  0.75000  0.47431  0.32710  1
 Ta  Ta3  1  0.25000  0.02569  0.82710  1
 Ta  Ta4  1  0.75000  0.97431  0.17290  1
