CIF file written using JARVIS-Tools package.
data_MoBr3
_symmetry_space_group_name_H-M  'Pmmn'
_cell_length_a       6.07418
_cell_length_b       6.59249
_cell_length_c       11.4069
_cell_angle_alpha    90
_cell_angle_beta     90
_cell_angle_gamma    90

_symmetry_Int_Tables_number  59
_chemical_formula_structural  MoBr3
_chemical_formula_sum  Mo4Br2
_cell_volume  456.77788086818407
_cell_formula_units_Z  4
loop_
  _symmetry_equiv_pos_site_id
 _symmetry_equiv_pos_as_xyz
 1  'x, y, z'
loop_
 _atom_site_type_symbol
 _atom_site_label
 _atom_site_symmetry_multiplicity
 _atom_site_fract_x
 _atom_site_fract_y
 _atom_site_fract_z
 _atom_site_fract_occupancy
 Br  Br1  1  0.50000  0.09276  0.66394  1
 Br  Br2  1  0.00000  0.90724  0.83606  1
 Br  Br3  1  0.50000  0.09276  0.33606  1
 Br  Br4  1  0.00000  0.90724  0.16394  1
 Br  Br5  1  0.00000  0.41637  0.00000  1
 Br  Br6  1  0.50000  0.58363  0.50000  1
 Br  Br7  1  0.50000  0.05351  0.00000  1
 Br  Br8  1  0.00000  0.94649  0.50000  1
 Br  Br9  1  0.00000  0.41115  0.34505  1
 Br  Br10  1  0.50000  0.58885  0.15495  1
 Br  Br11  1  0.00000  0.41115  0.65495  1
 Br  Br12  1  0.50000  0.58885  0.84505  1
 Mo  Mo1  1  0.72858  0.25636  0.50000  1
 Mo  Mo2  1  0.22858  0.74364  0.00000  1
 Mo  Mo3  1  0.27142  0.25636  0.50000  1
 Mo  Mo4  1  0.77142  0.74364  0.00000  1
