CIF file written using JARVIS-Tools package.
data_CeSi2Ru
_symmetry_space_group_name_H-M  'P2_1/m'
_cell_length_a       4.44643
_cell_length_b       4.12379
_cell_length_c       8.26784
_cell_angle_alpha    90
_cell_angle_beta     102.91
_cell_angle_gamma    90

_symmetry_Int_Tables_number  11
_chemical_formula_structural  CeSi2Ru
_chemical_formula_sum  Ce2Si4Ru2
_cell_volume  147.7678189607825
_cell_formula_units_Z  2
loop_
  _symmetry_equiv_pos_site_id
 _symmetry_equiv_pos_as_xyz
 1  'x, y, z'
loop_
 _atom_site_type_symbol
 _atom_site_label
 _atom_site_symmetry_multiplicity
 _atom_site_fract_x
 _atom_site_fract_y
 _atom_site_fract_z
 _atom_site_fract_occupancy
 Ce  Ce1  1  0.40735  0.75000  0.80027  1
 Ce  Ce2  1  0.59265  0.25000  0.19973  1
 Ru  Ru1  1  0.11368  0.75000  0.38555  1
 Ru  Ru2  1  0.88632  0.25000  0.61445  1
 Si  Si1  1  0.04273  0.75000  0.08898  1
 Si  Si2  1  0.95727  0.25000  0.91102  1
 Si  Si3  1  0.66826  0.75000  0.49419  1
 Si  Si4  1  0.33174  0.25000  0.50581  1
