CIF file written using JARVIS-Tools package.
data_TiBi2O5
_symmetry_space_group_name_H-M  'Cmcm'
_cell_length_a       4.01815
_cell_length_b       6.50502
_cell_length_c       10.352
_cell_angle_alpha    90
_cell_angle_beta     90
_cell_angle_gamma    72.01

_symmetry_Int_Tables_number  63
_chemical_formula_structural  TiBi2O5
_chemical_formula_sum  Ti2Bi4O0
_cell_volume  257.35298770884265
_cell_formula_units_Z  2
loop_
  _symmetry_equiv_pos_site_id
 _symmetry_equiv_pos_as_xyz
 1  'x, y, z'
loop_
 _atom_site_type_symbol
 _atom_site_label
 _atom_site_symmetry_multiplicity
 _atom_site_fract_x
 _atom_site_fract_y
 _atom_site_fract_z
 _atom_site_fract_occupancy
 Bi  Bi1  1  0.14178  0.71644  0.92442  1
 Bi  Bi2  1  0.14178  0.71644  0.57558  1
 Bi  Bi3  1  0.85822  0.28356  0.07558  1
 Bi  Bi4  1  0.85822  0.28356  0.42442  1
 O  O1  1  0.06129  0.87742  0.38147  1
 O  O2  1  0.06129  0.87742  0.11853  1
 O  O3  1  0.72472  0.55056  0.91437  1
 O  O4  1  0.72472  0.55056  0.58563  1
 O  O5  1  0.29554  0.40893  0.75000  1
 O  O6  1  0.70446  0.59107  0.25000  1
 O  O7  1  0.27528  0.44944  0.08563  1
 O  O8  1  0.27528  0.44944  0.41437  1
 O  O9  1  0.93871  0.12258  0.61853  1
 O  O10  1  0.93871  0.12258  0.88147  1
 Ti  Ti1  1  0.16240  0.67520  0.25000  1
 Ti  Ti2  1  0.83760  0.32480  0.75000  1
