CIF file written using JARVIS-Tools package.
data_GaB3N4
_symmetry_space_group_name_H-M  'P-43m'
_cell_length_a       3.87425
_cell_length_b       3.87425
_cell_length_c       3.87425
_cell_angle_alpha    90
_cell_angle_beta     90
_cell_angle_gamma    90

_symmetry_Int_Tables_number  215
_chemical_formula_structural  GaB3N4
_chemical_formula_sum  GaB3N4
_cell_volume  58.15193253833002
_cell_formula_units_Z  1
loop_
  _symmetry_equiv_pos_site_id
 _symmetry_equiv_pos_as_xyz
 1  'x, y, z'
loop_
 _atom_site_type_symbol
 _atom_site_label
 _atom_site_symmetry_multiplicity
 _atom_site_fract_x
 _atom_site_fract_y
 _atom_site_fract_z
 _atom_site_fract_occupancy
 B  B1  1  0.50000  0.50000  0.00000  1
 B  B2  1  0.50000  0.00000  0.50000  1
 B  B3  1  0.00000  0.50000  0.50000  1
 Ga  Ga1  1  0.00000  0.00000  0.00000  1
 N  N1  1  0.72727  0.72727  0.27273  1
 N  N2  1  0.72727  0.27273  0.72727  1
 N  N3  1  0.27273  0.72727  0.72727  1
 N  N4  1  0.27273  0.27273  0.27273  1
