CIF file written using JARVIS-Tools package.
data_Ir2S3
_symmetry_space_group_name_H-M  'R-3c'
_cell_length_a       6.05171
_cell_length_b       6.05172
_cell_length_c       6.33615
_cell_angle_alpha    118.526
_cell_angle_beta     61.4742
_cell_angle_gamma    120

_symmetry_Int_Tables_number  167
_chemical_formula_structural  Ir2S3
_chemical_formula_sum  Ir4S6
_cell_volume  167.64606675524098
_cell_formula_units_Z  2
loop_
  _symmetry_equiv_pos_site_id
 _symmetry_equiv_pos_as_xyz
 1  'x, y, z'
loop_
 _atom_site_type_symbol
 _atom_site_label
 _atom_site_symmetry_multiplicity
 _atom_site_fract_x
 _atom_site_fract_y
 _atom_site_fract_z
 _atom_site_fract_occupancy
 Ir  Ir1  1  0.64796  0.35204  0.05611  1
 Ir  Ir2  1  0.85204  0.14796  0.44389  1
 Ir  Ir3  1  0.14796  0.85204  0.55611  1
 Ir  Ir4  1  0.35204  0.64796  0.94389  1
 S  S1  1  0.54690  0.75000  0.25000  1
 S  S2  1  0.25000  0.04690  0.25000  1
 S  S3  1  0.95310  0.45310  0.25000  1
 S  S4  1  0.04690  0.54690  0.75000  1
 S  S5  1  0.75000  0.95310  0.75000  1
 S  S6  1  0.45310  0.25000  0.75000  1
