CIF file written using JARVIS-Tools package.
data_Ti5Sb3
_symmetry_space_group_name_H-M  'Pnma'
_cell_length_a       7.20959
_cell_length_b       8.34819
_cell_length_c       10.2163
_cell_angle_alpha    90
_cell_angle_beta     90
_cell_angle_gamma    90

_symmetry_Int_Tables_number  62
_chemical_formula_structural  Ti5Sb3
_chemical_formula_sum  Ti20Sb2
_cell_volume  614.8878191370159
_cell_formula_units_Z  4
loop_
  _symmetry_equiv_pos_site_id
 _symmetry_equiv_pos_as_xyz
 1  'x, y, z'
loop_
 _atom_site_type_symbol
 _atom_site_label
 _atom_site_symmetry_multiplicity
 _atom_site_fract_x
 _atom_site_fract_y
 _atom_site_fract_z
 _atom_site_fract_occupancy
 Sb  Sb1  1  0.09064  0.75000  0.97406  1
 Sb  Sb2  1  0.59064  0.25000  0.52594  1
 Sb  Sb3  1  0.93509  0.50887  0.32098  1
 Sb  Sb4  1  0.06491  0.00887  0.67902  1
 Sb  Sb5  1  0.56491  0.99113  0.82098  1
 Sb  Sb6  1  0.43509  0.49113  0.17902  1
 Sb  Sb7  1  0.56491  0.50887  0.82098  1
 Sb  Sb8  1  0.93509  0.99113  0.32098  1
 Sb  Sb9  1  0.43509  0.00887  0.17902  1
 Sb  Sb10  1  0.40936  0.75000  0.47406  1
 Sb  Sb11  1  0.90936  0.25000  0.02594  1
 Sb  Sb12  1  0.06491  0.49113  0.67902  1
 Ti  Ti1  1  0.68268  0.25000  0.26449  1
 Ti  Ti2  1  0.29388  0.06366  0.44620  1
 Ti  Ti3  1  0.20612  0.43634  0.94620  1
 Ti  Ti4  1  0.70612  0.56366  0.55380  1
 Ti  Ti5  1  0.79388  0.93634  0.05380  1
 Ti  Ti6  1  0.79388  0.56366  0.05380  1
 Ti  Ti7  1  0.29388  0.43634  0.44620  1
 Ti  Ti8  1  0.18268  0.75000  0.23551  1
 Ti  Ti9  1  0.02143  0.75000  0.50442  1
 Ti  Ti10  1  0.81732  0.25000  0.76449  1
 Ti  Ti11  1  0.31732  0.75000  0.73551  1
 Ti  Ti12  1  0.47857  0.75000  0.00442  1
 Ti  Ti13  1  0.97857  0.25000  0.49558  1
 Ti  Ti14  1  0.52143  0.25000  0.99558  1
 Ti  Ti15  1  0.67390  0.75000  0.28210  1
 Ti  Ti16  1  0.17390  0.25000  0.21790  1
 Ti  Ti17  1  0.32610  0.25000  0.71790  1
 Ti  Ti18  1  0.82610  0.75000  0.78210  1
 Ti  Ti19  1  0.70612  0.93634  0.55380  1
 Ti  Ti20  1  0.20612  0.06366  0.94620  1
