CIF file written using JARVIS-Tools package.
data_PdSeO4
_symmetry_space_group_name_H-M  'C2/c'
_cell_length_a       4.91561
_cell_length_b       4.91561
_cell_length_c       8.21232
_cell_angle_alpha    86.6249
_cell_angle_beta     86.6249
_cell_angle_gamma    64.2194

_symmetry_Int_Tables_number  15
_chemical_formula_structural  PdSeO4
_chemical_formula_sum  Pd2Se2O8
_cell_volume  178.25263144968426
_cell_formula_units_Z  2
loop_
  _symmetry_equiv_pos_site_id
 _symmetry_equiv_pos_as_xyz
 1  'x, y, z'
loop_
 _atom_site_type_symbol
 _atom_site_label
 _atom_site_symmetry_multiplicity
 _atom_site_fract_x
 _atom_site_fract_y
 _atom_site_fract_z
 _atom_site_fract_occupancy
 O  O1  1  0.94359  0.71819  0.27950  1
 O  O2  1  0.22511  0.72279  0.58365  1
 O  O3  1  0.77489  0.27721  0.41635  1
 O  O4  1  0.71819  0.94359  0.77950  1
 O  O5  1  0.28181  0.05641  0.22050  1
 O  O6  1  0.27721  0.77489  0.91635  1
 O  O7  1  0.72279  0.22511  0.08365  1
 O  O8  1  0.05641  0.28181  0.72050  1
 Pd  Pd1  1  0.00000  0.50000  0.50000  1
 Pd  Pd2  1  0.50000  0.00000  0.00000  1
 Se  Se1  1  0.06608  0.93392  0.75000  1
 Se  Se2  1  0.93392  0.06608  0.25000  1
