CIF file written using JARVIS-Tools package.
data_NdNiSn
_symmetry_space_group_name_H-M  'Pnma'
_cell_length_a       4.59841
_cell_length_b       7.49341
_cell_length_c       7.62997
_cell_angle_alpha    90
_cell_angle_beta     90
_cell_angle_gamma    90

_symmetry_Int_Tables_number  62
_chemical_formula_structural  NdNiSn
_chemical_formula_sum  Nd4Ni4Sn4
_cell_volume  262.9116184365062
_cell_formula_units_Z  4
loop_
  _symmetry_equiv_pos_site_id
 _symmetry_equiv_pos_as_xyz
 1  'x, y, z'
loop_
 _atom_site_type_symbol
 _atom_site_label
 _atom_site_symmetry_multiplicity
 _atom_site_fract_x
 _atom_site_fract_y
 _atom_site_fract_z
 _atom_site_fract_occupancy
 Nd  Nd1  1  0.25000  0.52024  0.19736  1
 Nd  Nd2  1  0.75000  0.47976  0.80264  1
 Nd  Nd3  1  0.25000  0.02024  0.30264  1
 Nd  Nd4  1  0.75000  0.97976  0.69736  1
 Ni  Ni1  1  0.75000  0.19026  0.08161  1
 Ni  Ni2  1  0.25000  0.30974  0.58161  1
 Ni  Ni3  1  0.75000  0.69026  0.41839  1
 Ni  Ni4  1  0.25000  0.80974  0.91839  1
 Sn  Sn1  1  0.25000  0.18624  0.90885  1
 Sn  Sn2  1  0.75000  0.31376  0.40885  1
 Sn  Sn3  1  0.25000  0.68624  0.59115  1
 Sn  Sn4  1  0.75000  0.81376  0.09115  1
