CIF file written using JARVIS-Tools package.
data_Mg2SiB2Ir5
_symmetry_space_group_name_H-M  'P4/mbm'
_cell_length_a       9.42049
_cell_length_b       9.42049
_cell_length_c       2.91993
_cell_angle_alpha    90
_cell_angle_beta     90
_cell_angle_gamma    90

_symmetry_Int_Tables_number  127
_chemical_formula_structural  Mg2SiB2Ir5
_chemical_formula_sum  Mg4Si2B4Ir0
_cell_volume  259.13129885168365
_cell_formula_units_Z  2
loop_
  _symmetry_equiv_pos_site_id
 _symmetry_equiv_pos_as_xyz
 1  'x, y, z'
loop_
 _atom_site_type_symbol
 _atom_site_label
 _atom_site_symmetry_multiplicity
 _atom_site_fract_x
 _atom_site_fract_y
 _atom_site_fract_z
 _atom_site_fract_occupancy
 B  B1  1  0.12603  0.37397  0.00000  1
 B  B2  1  0.87397  0.62603  0.00000  1
 B  B3  1  0.62603  0.12603  0.00000  1
 B  B4  1  0.37397  0.87397  0.00000  1
 Ir  Ir1  1  0.07248  0.20927  0.50000  1
 Ir  Ir2  1  0.00000  0.50000  0.50000  1
 Ir  Ir3  1  0.20927  0.92752  0.50000  1
 Ir  Ir4  1  0.29073  0.42752  0.50000  1
 Ir  Ir5  1  0.70927  0.57248  0.50000  1
 Ir  Ir6  1  0.57248  0.29073  0.50000  1
 Ir  Ir7  1  0.50000  0.00000  0.50000  1
 Ir  Ir8  1  0.42752  0.70927  0.50000  1
 Ir  Ir9  1  0.79073  0.07248  0.50000  1
 Ir  Ir10  1  0.92752  0.79073  0.50000  1
 Mg  Mg1  1  0.32509  0.17491  0.00000  1
 Mg  Mg2  1  0.17491  0.67491  0.00000  1
 Mg  Mg3  1  0.82509  0.32509  0.00000  1
 Mg  Mg4  1  0.67491  0.82509  0.00000  1
 Si  Si1  1  0.00000  0.00000  0.00000  1
 Si  Si2  1  0.50000  0.50000  0.00000  1
