CIF file written using JARVIS-Tools package.
data_InSb
_symmetry_space_group_name_H-M  'P6_3mc'
_cell_length_a       4.65888
_cell_length_b       4.65861
_cell_length_c       7.68242
_cell_angle_alpha    90
_cell_angle_beta     90
_cell_angle_gamma    120.002

_symmetry_Int_Tables_number  186
_chemical_formula_structural  InSb
_chemical_formula_sum  In2Sb2
_cell_volume  144.3969483711568
_cell_formula_units_Z  2
loop_
  _symmetry_equiv_pos_site_id
 _symmetry_equiv_pos_as_xyz
 1  'x, y, z'
loop_
 _atom_site_type_symbol
 _atom_site_label
 _atom_site_symmetry_multiplicity
 _atom_site_fract_x
 _atom_site_fract_y
 _atom_site_fract_z
 _atom_site_fract_occupancy
 In  In1  1  0.66670  0.33340  0.48816  1
 In  In2  1  0.33330  0.66660  0.98816  1
 Sb  Sb1  1  0.66665  0.33330  0.86184  1
 Sb  Sb2  1  0.33335  0.66670  0.36184  1
