CIF file written using JARVIS-Tools package.
data_PrNiGe3
_symmetry_space_group_name_H-M  'Cmmm'
_cell_length_a       4.18854
_cell_length_b       4.218
_cell_length_c       11.1867
_cell_angle_alpha    90
_cell_angle_beta     100.79
_cell_angle_gamma    90

_symmetry_Int_Tables_number  65
_chemical_formula_structural  PrNiGe3
_chemical_formula_sum  Pr2Ni2Ge6
_cell_volume  194.1443639111718
_cell_formula_units_Z  2
loop_
  _symmetry_equiv_pos_site_id
 _symmetry_equiv_pos_as_xyz
 1  'x, y, z'
loop_
 _atom_site_type_symbol
 _atom_site_label
 _atom_site_symmetry_multiplicity
 _atom_site_fract_x
 _atom_site_fract_y
 _atom_site_fract_z
 _atom_site_fract_occupancy
 Ge  Ge1  1  0.55688  0.00000  0.11376  1
 Ge  Ge2  1  0.44312  0.00000  0.88624  1
 Ge  Ge3  1  0.94314  0.50000  0.88628  1
 Ge  Ge4  1  0.05686  0.50000  0.11372  1
 Ge  Ge5  1  0.78427  0.00000  0.56854  1
 Ge  Ge6  1  0.21573  0.00000  0.43146  1
 Ni  Ni1  1  0.10843  0.00000  0.21686  1
 Ni  Ni2  1  0.89157  0.00000  0.78314  1
 Pr  Pr1  1  0.33119  0.50000  0.66238  1
 Pr  Pr2  1  0.66881  0.50000  0.33762  1
