CIF file written using JARVIS-Tools package.
data_Sm2CdPd2
_symmetry_space_group_name_H-M  'P4/mbm'
_cell_length_a       7.76374
_cell_length_b       7.76374
_cell_length_c       3.81896
_cell_angle_alpha    90
_cell_angle_beta     90
_cell_angle_gamma    90

_symmetry_Int_Tables_number  127
_chemical_formula_structural  Sm2CdPd2
_chemical_formula_sum  Sm4Cd2Pd4
_cell_volume  230.19018303706025
_cell_formula_units_Z  2
loop_
  _symmetry_equiv_pos_site_id
 _symmetry_equiv_pos_as_xyz
 1  'x, y, z'
loop_
 _atom_site_type_symbol
 _atom_site_label
 _atom_site_symmetry_multiplicity
 _atom_site_fract_x
 _atom_site_fract_y
 _atom_site_fract_z
 _atom_site_fract_occupancy
 Cd  Cd1  1  0.00000  0.00000  0.00000  1
 Cd  Cd2  1  0.50000  0.50000  0.00000  1
 Pd  Pd1  1  0.37198  0.12802  0.00000  1
 Pd  Pd2  1  0.87198  0.37198  0.00000  1
 Pd  Pd3  1  0.12802  0.62802  0.00000  1
 Pd  Pd4  1  0.62802  0.87198  0.00000  1
 Sm  Sm1  1  0.32697  0.82697  0.50000  1
 Sm  Sm2  1  0.82697  0.67303  0.50000  1
 Sm  Sm3  1  0.17303  0.32697  0.50000  1
 Sm  Sm4  1  0.67303  0.17303  0.50000  1
