CIF file written using JARVIS-Tools package.
data_CaMo6S8
_symmetry_space_group_name_H-M  'R-3'
_cell_length_a       6.54066
_cell_length_b       6.54065
_cell_length_c       6.54066
_cell_angle_alpha    89.5162
_cell_angle_beta     89.5162
_cell_angle_gamma    89.5162

_symmetry_Int_Tables_number  148
_chemical_formula_structural  CaMo6S8
_chemical_formula_sum  CaMo6S8
_cell_volume  279.78029265872357
_cell_formula_units_Z  1
loop_
  _symmetry_equiv_pos_site_id
 _symmetry_equiv_pos_as_xyz
 1  'x, y, z'
loop_
 _atom_site_type_symbol
 _atom_site_label
 _atom_site_symmetry_multiplicity
 _atom_site_fract_x
 _atom_site_fract_y
 _atom_site_fract_z
 _atom_site_fract_occupancy
 Ca  Ca1  1  0.00000  0.00000  0.00000  1
 Mo  Mo1  1  0.77401  0.58199  0.44011  1
 Mo  Mo2  1  0.58199  0.44011  0.77401  1
 Mo  Mo3  1  0.55989  0.22599  0.41801  1
 Mo  Mo4  1  0.22599  0.41801  0.55989  1
 Mo  Mo5  1  0.41801  0.55989  0.22599  1
 Mo  Mo6  1  0.44011  0.77401  0.58199  1
 S  S1  1  0.76119  0.76119  0.76119  1
 S  S2  1  0.23881  0.23881  0.23881  1
 S  S3  1  0.25378  0.62293  0.87358  1
 S  S4  1  0.62293  0.87358  0.25378  1
 S  S5  1  0.87358  0.25378  0.62293  1
 S  S6  1  0.74622  0.37707  0.12642  1
 S  S7  1  0.37707  0.12642  0.74622  1
 S  S8  1  0.12642  0.74622  0.37707  1
