CIF file written using JARVIS-Tools package.
data_NaAlSi2O6
_symmetry_space_group_name_H-M  'C2/c'
_cell_length_a       5.27359
_cell_length_b       6.41899
_cell_length_c       6.41899
_cell_angle_alpha    84.4512
_cell_angle_beta     77.1504
_cell_angle_gamma    77.1504

_symmetry_Int_Tables_number  15
_chemical_formula_structural  NaAlSi2O6
_chemical_formula_sum  Na2Al2Si4O2
_cell_volume  206.28863764373008
_cell_formula_units_Z  2
loop_
  _symmetry_equiv_pos_site_id
 _symmetry_equiv_pos_as_xyz
 1  'x, y, z'
loop_
 _atom_site_type_symbol
 _atom_site_label
 _atom_site_symmetry_multiplicity
 _atom_site_fract_x
 _atom_site_fract_y
 _atom_site_fract_z
 _atom_site_fract_occupancy
 Al  Al1  1  0.25000  0.09307  0.90693  1
 Al  Al2  1  0.75000  0.90693  0.09307  1
 Na  Na1  1  0.25000  0.69920  0.30080  1
 Na  Na2  1  0.75000  0.30080  0.69920  1
 O  O1  1  0.00585  0.63802  0.65396  1
 O  O2  1  0.50585  0.65396  0.63802  1
 O  O3  1  0.99415  0.36198  0.34604  1
 O  O4  1  0.20469  0.09703  0.62577  1
 O  O5  1  0.29531  0.37423  0.90297  1
 O  O6  1  0.79531  0.90297  0.37423  1
 O  O7  1  0.70469  0.62577  0.09703  1
 O  O8  1  0.12838  0.81456  0.96759  1
 O  O9  1  0.87162  0.18544  0.03241  1
 O  O10  1  0.37162  0.03241  0.18544  1
 O  O11  1  0.49415  0.34604  0.36198  1
 O  O12  1  0.62838  0.96759  0.81456  1
 Si  Si1  1  0.22840  0.61528  0.80332  1
 Si  Si2  1  0.77160  0.38472  0.19668  1
 Si  Si3  1  0.72840  0.80332  0.61528  1
 Si  Si4  1  0.27160  0.19668  0.38472  1
