CIF file written using JARVIS-Tools package.
data_AcAl3
_symmetry_space_group_name_H-M  'P6_3/mmc'
_cell_length_a       6.99259
_cell_length_b       6.99259
_cell_length_c       4.66027
_cell_angle_alpha    90
_cell_angle_beta     90
_cell_angle_gamma    120

_symmetry_Int_Tables_number  194
_chemical_formula_structural  AcAl3
_chemical_formula_sum  Ac2Al6
_cell_volume  197.34084409108095
_cell_formula_units_Z  2
loop_
  _symmetry_equiv_pos_site_id
 _symmetry_equiv_pos_as_xyz
 1  'x, y, z'
loop_
 _atom_site_type_symbol
 _atom_site_label
 _atom_site_symmetry_multiplicity
 _atom_site_fract_x
 _atom_site_fract_y
 _atom_site_fract_z
 _atom_site_fract_occupancy
 Ac  Ac1  1  0.33333  0.66667  0.75000  1
 Ac  Ac2  1  0.66667  0.33333  0.25000  1
 Al  Al1  1  0.73514  0.86757  0.25000  1
 Al  Al2  1  0.13243  0.86757  0.25000  1
 Al  Al3  1  0.13243  0.26486  0.25000  1
 Al  Al4  1  0.26486  0.13243  0.75000  1
 Al  Al5  1  0.86757  0.13243  0.75000  1
 Al  Al6  1  0.86757  0.73514  0.75000  1
