CIF file written using JARVIS-Tools package.
data_LiMgVO4
_symmetry_space_group_name_H-M  'Cmcm'
_cell_length_a       5.16177
_cell_length_b       5.16177
_cell_length_c       6.24404
_cell_angle_alpha    90
_cell_angle_beta     90
_cell_angle_gamma    113.449

_symmetry_Int_Tables_number  63
_chemical_formula_structural  LiMgVO4
_chemical_formula_sum  Li2Mg2V2O8
_cell_volume  152.62614329647576
_cell_formula_units_Z  2
loop_
  _symmetry_equiv_pos_site_id
 _symmetry_equiv_pos_as_xyz
 1  'x, y, z'
loop_
 _atom_site_type_symbol
 _atom_site_label
 _atom_site_symmetry_multiplicity
 _atom_site_fract_x
 _atom_site_fract_y
 _atom_site_fract_z
 _atom_site_fract_occupancy
 Li  Li1  1  0.83832  0.16168  0.25000  1
 Li  Li2  1  0.16168  0.83832  0.75000  1
 Mg  Mg1  1  0.50000  0.50000  0.00000  1
 Mg  Mg2  1  0.50000  0.50000  0.50000  1
 O  O1  1  0.25903  0.74097  0.47264  1
 O  O2  1  0.73628  0.77298  0.75000  1
 O  O3  1  0.26372  0.22702  0.25000  1
 O  O4  1  0.74097  0.25903  0.97264  1
 O  O5  1  0.74097  0.25903  0.52736  1
 O  O6  1  0.77298  0.73628  0.25000  1
 O  O7  1  0.22702  0.26372  0.75000  1
 O  O8  1  0.25903  0.74097  0.02736  1
 V  V1  1  0.14499  0.85501  0.25000  1
 V  V2  1  0.85501  0.14499  0.75000  1
