CIF file written using JARVIS-Tools package.
data_YSiRu
_symmetry_space_group_name_H-M  'Pnma'
_cell_length_a       4.3412
_cell_length_b       7.0035
_cell_length_c       7.14242
_cell_angle_alpha    90
_cell_angle_beta     90
_cell_angle_gamma    90

_symmetry_Int_Tables_number  62
_chemical_formula_structural  YSiRu
_chemical_formula_sum  Y4Si4Ru4
_cell_volume  217.15535634774554
_cell_formula_units_Z  4
loop_
  _symmetry_equiv_pos_site_id
 _symmetry_equiv_pos_as_xyz
 1  'x, y, z'
loop_
 _atom_site_type_symbol
 _atom_site_label
 _atom_site_symmetry_multiplicity
 _atom_site_fract_x
 _atom_site_fract_y
 _atom_site_fract_z
 _atom_site_fract_occupancy
 Ru  Ru1  1  0.25000  0.65440  0.06739  1
 Ru  Ru2  1  0.25000  0.15440  0.43261  1
 Ru  Ru3  1  0.75000  0.84560  0.56739  1
 Ru  Ru4  1  0.75000  0.34560  0.93261  1
 Si  Si1  1  0.25000  0.30417  0.10549  1
 Si  Si2  1  0.25000  0.80417  0.39451  1
 Si  Si3  1  0.75000  0.69583  0.89451  1
 Si  Si4  1  0.75000  0.19583  0.60549  1
 Y  Y1  1  0.75000  0.01355  0.18676  1
 Y  Y2  1  0.25000  0.48645  0.68676  1
 Y  Y3  1  0.75000  0.51355  0.31324  1
 Y  Y4  1  0.25000  0.98645  0.81324  1
