CIF file written using JARVIS-Tools package.
data_ScSiRh
_symmetry_space_group_name_H-M  'Pnma'
_cell_length_a       4.08111
_cell_length_b       6.53881
_cell_length_c       7.2563
_cell_angle_alpha    90
_cell_angle_beta     90
_cell_angle_gamma    90

_symmetry_Int_Tables_number  62
_chemical_formula_structural  ScSiRh
_chemical_formula_sum  Sc4Si4Rh4
_cell_volume  193.63866281103546
_cell_formula_units_Z  4
loop_
  _symmetry_equiv_pos_site_id
 _symmetry_equiv_pos_as_xyz
 1  'x, y, z'
loop_
 _atom_site_type_symbol
 _atom_site_label
 _atom_site_symmetry_multiplicity
 _atom_site_fract_x
 _atom_site_fract_y
 _atom_site_fract_z
 _atom_site_fract_occupancy
 Rh  Rh1  1  0.25000  0.65710  0.56505  1
 Rh  Rh2  1  0.25000  0.15710  0.93495  1
 Rh  Rh3  1  0.75000  0.84290  0.06505  1
 Rh  Rh4  1  0.75000  0.34290  0.43495  1
 Sc  Sc1  1  0.75000  0.49240  0.81015  1
 Sc  Sc2  1  0.25000  0.00760  0.31015  1
 Sc  Sc3  1  0.75000  0.99240  0.68985  1
 Sc  Sc4  1  0.25000  0.50760  0.18985  1
 Si  Si1  1  0.25000  0.78546  0.88749  1
 Si  Si2  1  0.25000  0.28546  0.61251  1
 Si  Si3  1  0.75000  0.21454  0.11251  1
 Si  Si4  1  0.75000  0.71454  0.38749  1
