CIF file written using JARVIS-Tools package.
data_Te2MoW2S4
_symmetry_space_group_name_H-M  'Cm'
_cell_length_a       3.31043
_cell_length_b       3.31043
_cell_length_c       19.7729
_cell_angle_alpha    94.831
_cell_angle_beta     90
_cell_angle_gamma    120

_symmetry_Int_Tables_number  8
_chemical_formula_structural  Te2MoW2S4
_chemical_formula_sum  Te2MoW2S4
_cell_volume  186.77053273857715
_cell_formula_units_Z  1
loop_
  _symmetry_equiv_pos_site_id
 _symmetry_equiv_pos_as_xyz
 1  'x, y, z'
loop_
 _atom_site_type_symbol
 _atom_site_label
 _atom_site_symmetry_multiplicity
 _atom_site_fract_x
 _atom_site_fract_y
 _atom_site_fract_z
 _atom_site_fract_occupancy
 Mo  Mo1  1  0.22597  0.45193  0.02346  1
 S  S1  1  0.35593  0.71186  0.41439  1
 S  S2  1  0.53324  0.06648  0.94583  1
 S  S3  1  0.58537  0.17074  0.10113  1
 S  S4  1  0.30354  0.60709  0.25821  1
 Te  Te1  1  0.74468  0.48936  0.58307  1
 Te  Te2  1  0.81053  0.62105  0.77928  1
 W  W1  1  0.44427  0.88855  0.68119  1
 W  W2  1  0.66307  0.32613  0.33629  1
