CIF file written using JARVIS-Tools package.
data_BiTeO4
_symmetry_space_group_name_H-M  'Cc'
_cell_length_a       5.61843
_cell_length_b       7.04264
_cell_length_c       10.0425
_cell_angle_alpha    107.353
_cell_angle_beta     106.244
_cell_angle_gamma    66.4914

_symmetry_Int_Tables_number  9
_chemical_formula_structural  BiTeO4
_chemical_formula_sum  Bi4Te4O6
_cell_volume  341.8821928365998
_cell_formula_units_Z  4
loop_
  _symmetry_equiv_pos_site_id
 _symmetry_equiv_pos_as_xyz
 1  'x, y, z'
loop_
 _atom_site_type_symbol
 _atom_site_label
 _atom_site_symmetry_multiplicity
 _atom_site_fract_x
 _atom_site_fract_y
 _atom_site_fract_z
 _atom_site_fract_occupancy
 Bi  Bi1  1  0.22963  0.61082  0.15530  1
 Bi  Bi2  1  0.04249  0.74467  0.74483  1
 Bi  Bi3  1  0.95766  0.24467  0.24483  1
 Bi  Bi4  1  0.31485  0.11082  0.65530  1
 O  O1  1  0.85453  0.91822  0.12020  1
 O  O2  1  0.71976  0.96003  0.59125  1
 O  O3  1  0.64847  0.99467  0.84376  1
 O  O4  1  0.28875  0.03121  0.40326  1
 O  O5  1  0.63617  0.58897  0.38056  1
 O  O6  1  0.91146  0.46003  0.09125  1
 O  O7  1  0.27619  0.78930  0.58505  1
 O  O8  1  0.20062  0.49467  0.34376  1
 O  O9  1  0.79819  0.50200  0.65413  1
 O  O10  1  0.08330  0.53121  0.90326  1
 O  O11  1  0.50947  0.70385  0.91549  1
 O  O12  1  0.34745  0.41822  0.62020  1
 O  O13  1  0.70217  0.20385  0.41549  1
 O  O14  1  0.35394  0.00200  0.15413  1
 O  O15  1  0.51956  0.28930  0.08505  1
 O  O16  1  0.15543  0.08897  0.88056  1
 Te  Te1  1  0.50587  0.00523  0.00364  1
 Te  Te2  1  0.80788  0.42348  0.88414  1
 Te  Te3  1  0.49254  0.50523  0.50364  1
 Te  Te4  1  0.65278  0.92348  0.38414  1
