CIF file written using JARVIS-Tools package.
data_TbGaPt
_symmetry_space_group_name_H-M  'Pnma'
_cell_length_a       4.43155
_cell_length_b       6.92115
_cell_length_c       7.70747
_cell_angle_alpha    90
_cell_angle_beta     90
_cell_angle_gamma    90

_symmetry_Int_Tables_number  62
_chemical_formula_structural  TbGaPt
_chemical_formula_sum  Tb4Ga4Pt4
_cell_volume  236.39910849743876
_cell_formula_units_Z  4
loop_
  _symmetry_equiv_pos_site_id
 _symmetry_equiv_pos_as_xyz
 1  'x, y, z'
loop_
 _atom_site_type_symbol
 _atom_site_label
 _atom_site_symmetry_multiplicity
 _atom_site_fract_x
 _atom_site_fract_y
 _atom_site_fract_z
 _atom_site_fract_occupancy
 Ga  Ga1  1  0.75000  0.67335  0.42356  1
 Ga  Ga2  1  0.25000  0.32665  0.57644  1
 Ga  Ga3  1  0.75000  0.17335  0.07644  1
 Ga  Ga4  1  0.25000  0.82665  0.92356  1
 Pt  Pt1  1  0.25000  0.72436  0.59676  1
 Pt  Pt2  1  0.25000  0.22436  0.90324  1
 Pt  Pt3  1  0.75000  0.77564  0.09676  1
 Pt  Pt4  1  0.75000  0.27564  0.40324  1
 Tb  Tb1  1  0.75000  0.51472  0.80105  1
 Tb  Tb2  1  0.25000  0.98528  0.30105  1
 Tb  Tb3  1  0.25000  0.48528  0.19895  1
 Tb  Tb4  1  0.75000  0.01472  0.69895  1
