CIF file written using JARVIS-Tools package.
data_Ti5CuSb2
_symmetry_space_group_name_H-M  'I4/mcm'
_cell_length_a       5.10966
_cell_length_b       7.83276
_cell_length_c       7.83276
_cell_angle_alpha    83.8928
_cell_angle_beta     70.9634
_cell_angle_gamma    70.9634

_symmetry_Int_Tables_number  140
_chemical_formula_structural  Ti5CuSb2
_chemical_formula_sum  Ti0Cu2Sb4
_cell_volume  280.13686504843946
_cell_formula_units_Z  2
loop_
  _symmetry_equiv_pos_site_id
 _symmetry_equiv_pos_as_xyz
 1  'x, y, z'
loop_
 _atom_site_type_symbol
 _atom_site_label
 _atom_site_symmetry_multiplicity
 _atom_site_fract_x
 _atom_site_fract_y
 _atom_site_fract_z
 _atom_site_fract_occupancy
 Cu  Cu1  1  0.25000  0.00000  0.00000  1
 Cu  Cu2  1  0.75000  0.00000  -0.00000  1
 Sb  Sb1  1  0.33602  0.82797  0.50000  1
 Sb  Sb2  1  0.16398  0.50000  0.17203  1
 Sb  Sb3  1  0.66398  0.17203  0.50000  1
 Sb  Sb4  1  0.83602  0.50000  0.82797  1
 Ti  Ti1  1  0.57372  0.71271  0.13986  1
 Ti  Ti2  1  0.42628  0.28729  0.86014  1
 Ti  Ti3  1  0.25000  0.50000  0.50000  1
 Ti  Ti4  1  0.75000  0.50000  0.50000  1
 Ti  Ti5  1  0.71358  0.86014  0.71271  1
 Ti  Ti6  1  0.28642  0.13986  0.28729  1
 Ti  Ti7  1  0.92628  0.86014  0.28729  1
 Ti  Ti8  1  0.21358  0.71271  0.86014  1
 Ti  Ti9  1  0.07372  0.13986  0.71271  1
 Ti  Ti10  1  0.78642  0.28729  0.13986  1
