CIF file written using JARVIS-Tools package.
data_PaGaFe2
_symmetry_space_group_name_H-M  'Fm-3m'
_cell_length_a       4.42544
_cell_length_b       4.42507
_cell_length_c       4.42468
_cell_angle_alpha    60.0042
_cell_angle_beta     60.0032
_cell_angle_gamma    59.9953

_symmetry_Int_Tables_number  225
_chemical_formula_structural  PaGaFe2
_chemical_formula_sum  PaGaFe2
_cell_volume  61.27054554693536
_cell_formula_units_Z  1
loop_
  _symmetry_equiv_pos_site_id
 _symmetry_equiv_pos_as_xyz
 1  'x, y, z'
loop_
 _atom_site_type_symbol
 _atom_site_label
 _atom_site_symmetry_multiplicity
 _atom_site_fract_x
 _atom_site_fract_y
 _atom_site_fract_z
 _atom_site_fract_occupancy
 Fe  Fe1  1  0.99997  0.99998  0.00001  1
 Fe  Fe2  1  0.50002  0.50004  0.49999  1
 Ga  Ga1  1  0.25001  0.24999  0.25000  1
 Pa  Pa1  1  0.75000  0.74999  0.75000  1
