CIF file written using JARVIS-Tools package.
data_PuB4
_symmetry_space_group_name_H-M  'P4/mbm'
_cell_length_a       6.98236
_cell_length_b       6.98236
_cell_length_c       3.92648
_cell_angle_alpha    90
_cell_angle_beta     90
_cell_angle_gamma    90

_symmetry_Int_Tables_number  127
_chemical_formula_structural  PuB4
_chemical_formula_sum  Pu4B6
_cell_volume  191.42939811455145
_cell_formula_units_Z  4
loop_
  _symmetry_equiv_pos_site_id
 _symmetry_equiv_pos_as_xyz
 1  'x, y, z'
loop_
 _atom_site_type_symbol
 _atom_site_label
 _atom_site_symmetry_multiplicity
 _atom_site_fract_x
 _atom_site_fract_y
 _atom_site_fract_z
 _atom_site_fract_occupancy
 B  B1  1  0.58647  0.08647  0.50000  1
 B  B2  1  0.32058  0.46139  0.50000  1
 B  B3  1  0.67942  0.53861  0.50000  1
 B  B4  1  0.53861  0.32058  0.50000  1
 B  B5  1  0.46139  0.67942  0.50000  1
 B  B6  1  0.00000  0.00000  0.20043  1
 B  B7  1  0.82058  0.03861  0.50000  1
 B  B8  1  0.50000  0.50000  0.79957  1
 B  B9  1  0.50000  0.50000  0.20043  1
 B  B10  1  0.96139  0.82058  0.50000  1
 B  B11  1  0.08647  0.41353  0.50000  1
 B  B12  1  0.91353  0.58647  0.50000  1
 B  B13  1  0.41353  0.91353  0.50000  1
 B  B14  1  0.03861  0.17942  0.50000  1
 B  B15  1  0.17942  0.96139  0.50000  1
 B  B16  1  0.00000  0.00000  0.79957  1
 Pu  Pu1  1  0.81013  0.31013  0.00000  1
 Pu  Pu2  1  0.31013  0.18987  0.00000  1
 Pu  Pu3  1  0.68987  0.81013  0.00000  1
 Pu  Pu4  1  0.18987  0.68987  0.00000  1
