CIF file written using JARVIS-Tools package.
data_KMnBi
_symmetry_space_group_name_H-M  'P4/nmm'
_cell_length_a       4.75618
_cell_length_b       4.75618
_cell_length_c       8.30286
_cell_angle_alpha    90
_cell_angle_beta     90
_cell_angle_gamma    90

_symmetry_Int_Tables_number  129
_chemical_formula_structural  KMnBi
_chemical_formula_sum  K2Mn2Bi2
_cell_volume  187.82108570223076
_cell_formula_units_Z  2
loop_
  _symmetry_equiv_pos_site_id
 _symmetry_equiv_pos_as_xyz
 1  'x, y, z'
loop_
 _atom_site_type_symbol
 _atom_site_label
 _atom_site_symmetry_multiplicity
 _atom_site_fract_x
 _atom_site_fract_y
 _atom_site_fract_z
 _atom_site_fract_occupancy
 Bi  Bi1  1  0.50000  0.00000  0.80261  1
 Bi  Bi2  1  0.00000  0.50000  0.19739  1
 K  K1  1  0.50000  0.00000  0.34537  1
 K  K2  1  0.00000  0.50000  0.65463  1
 Mn  Mn1  1  0.50000  0.50000  0.00000  1
 Mn  Mn2  1  0.00000  0.00000  0.00000  1
