CIF file written using JARVIS-Tools package.
data_CO
_symmetry_space_group_name_H-M  'P2_13'
_cell_length_a       5.46746
_cell_length_b       5.46746
_cell_length_c       5.46746
_cell_angle_alpha    90
_cell_angle_beta     90
_cell_angle_gamma    90

_symmetry_Int_Tables_number  198
_chemical_formula_structural  CO
_chemical_formula_sum  C4O4
_cell_volume  163.43964899562133
_cell_formula_units_Z  4
loop_
  _symmetry_equiv_pos_site_id
 _symmetry_equiv_pos_as_xyz
 1  'x, y, z'
loop_
 _atom_site_type_symbol
 _atom_site_label
 _atom_site_symmetry_multiplicity
 _atom_site_fract_x
 _atom_site_fract_y
 _atom_site_fract_z
 _atom_site_fract_occupancy
 C  C1  1  0.96218  0.96218  0.96218  1
 C  C2  1  0.53782  0.03782  0.46218  1
 C  C3  1  0.46218  0.53782  0.03782  1
 C  C4  1  0.03782  0.46218  0.53782  1
 O  O1  1  0.08248  0.08248  0.08248  1
 O  O2  1  0.41752  0.91752  0.58248  1
 O  O3  1  0.58248  0.41752  0.91752  1
 O  O4  1  0.91752  0.58248  0.41752  1
