CIF file written using JARVIS-Tools package.
data_NpSeO
_symmetry_space_group_name_H-M  'P4/nmm'
_cell_length_a       3.87199
_cell_length_b       3.87199
_cell_length_c       6.99617
_cell_angle_alpha    90
_cell_angle_beta     90
_cell_angle_gamma    90

_symmetry_Int_Tables_number  129
_chemical_formula_structural  NpSeO
_chemical_formula_sum  Np2Se2O2
_cell_volume  104.88874346598239
_cell_formula_units_Z  2
loop_
  _symmetry_equiv_pos_site_id
 _symmetry_equiv_pos_as_xyz
 1  'x, y, z'
loop_
 _atom_site_type_symbol
 _atom_site_label
 _atom_site_symmetry_multiplicity
 _atom_site_fract_x
 _atom_site_fract_y
 _atom_site_fract_z
 _atom_site_fract_occupancy
 Np  Np1  1  0.50000  0.00000  0.81794  1
 Np  Np2  1  0.00000  0.50000  0.18206  1
 O  O1  1  0.50000  0.50000  0.00000  1
 O  O2  1  0.00000  0.00000  0.00000  1
 Se  Se1  1  0.50000  0.00000  0.36812  1
 Se  Se2  1  0.00000  0.50000  0.63188  1
