CIF file written using JARVIS-Tools package.
data_KNaMg2Si4O10F2
_symmetry_space_group_name_H-M  'C2/m'
_cell_length_a       5.30259
_cell_length_b       5.3026
_cell_length_c       10.2038
_cell_angle_alpha    95.639
_cell_angle_beta     95.639
_cell_angle_gamma    119.54

_symmetry_Int_Tables_number  12
_chemical_formula_structural  KNaMg2Si4O10F2
_chemical_formula_sum  KNaMg2Si4O0F2
_cell_volume  244.8090376947329
_cell_formula_units_Z  1
loop_
  _symmetry_equiv_pos_site_id
 _symmetry_equiv_pos_as_xyz
 1  'x, y, z'
loop_
 _atom_site_type_symbol
 _atom_site_label
 _atom_site_symmetry_multiplicity
 _atom_site_fract_x
 _atom_site_fract_y
 _atom_site_fract_z
 _atom_site_fract_occupancy
 F  F1  1  0.40656  0.40656  0.61080  1
 F  F2  1  0.59344  0.59344  0.38920  1
 K  K1  1  0.50000  0.50000  -0.00000  1
 Mg  Mg1  1  0.66619  0.33381  0.50000  1
 Mg  Mg2  1  0.33381  0.66619  0.50000  1
 Na  Na1  1  -0.00000  -0.00000  0.50000  1
 O  O1  1  0.95967  0.32242  0.38269  1
 O  O2  1  0.04033  0.67758  0.61731  1
 O  O3  1  0.44385  0.93688  0.84395  1
 O  O4  1  0.55615  0.06312  0.15605  1
 O  O5  1  0.94903  0.94903  0.83442  1
 O  O6  1  0.05097  0.05097  0.16558  1
 O  O7  1  0.67758  0.04033  0.61731  1
 O  O8  1  0.93688  0.44385  0.84395  1
 O  O9  1  0.06312  0.55615  0.15605  1
 O  O10  1  0.32242  0.95967  0.38269  1
 Si  Si1  1  0.25132  0.91146  0.22297  1
 Si  Si2  1  0.08854  0.74868  0.77703  1
 Si  Si3  1  0.91146  0.25132  0.22297  1
 Si  Si4  1  0.74868  0.08854  0.77703  1
