CIF file written using JARVIS-Tools package.
data_DyCoSi
_symmetry_space_group_name_H-M  'Pnma'
_cell_length_a       4.20701
_cell_length_b       6.82759
_cell_length_c       6.92209
_cell_angle_alpha    90
_cell_angle_beta     90
_cell_angle_gamma    90

_symmetry_Int_Tables_number  62
_chemical_formula_structural  DyCoSi
_chemical_formula_sum  Dy4Co4Si4
_cell_volume  198.82810050168743
_cell_formula_units_Z  4
loop_
  _symmetry_equiv_pos_site_id
 _symmetry_equiv_pos_as_xyz
 1  'x, y, z'
loop_
 _atom_site_type_symbol
 _atom_site_label
 _atom_site_symmetry_multiplicity
 _atom_site_fract_x
 _atom_site_fract_y
 _atom_site_fract_z
 _atom_site_fract_occupancy
 Co  Co1  1  0.25000  0.06837  0.14574  1
 Co  Co2  1  0.75000  0.93163  0.85426  1
 Co  Co3  1  0.25000  0.43163  0.64574  1
 Co  Co4  1  0.75000  0.56837  0.35426  1
 Dy  Dy1  1  0.75000  0.18591  0.52009  1
 Dy  Dy2  1  0.25000  0.81409  0.47991  1
 Dy  Dy3  1  0.75000  0.31409  0.02009  1
 Dy  Dy4  1  0.25000  0.68591  0.97991  1
 Si  Si1  1  0.75000  0.89323  0.19385  1
 Si  Si2  1  0.25000  0.10677  0.80615  1
 Si  Si3  1  0.75000  0.60677  0.69385  1
 Si  Si4  1  0.25000  0.39323  0.30615  1
