CIF file written using JARVIS-Tools package.
data_NbBiO4
_symmetry_space_group_name_H-M  'Cm'
_cell_length_a       4.02046
_cell_length_b       4.09935
_cell_length_c       6.13598
_cell_angle_alpha    96.7627
_cell_angle_beta     109.132
_cell_angle_gamma    90.0081

_symmetry_Int_Tables_number  8
_chemical_formula_structural  NbBiO4
_chemical_formula_sum  NbBiO4
_cell_volume  94.79712210234477
_cell_formula_units_Z  1
loop_
  _symmetry_equiv_pos_site_id
 _symmetry_equiv_pos_as_xyz
 1  'x, y, z'
loop_
 _atom_site_type_symbol
 _atom_site_label
 _atom_site_symmetry_multiplicity
 _atom_site_fract_x
 _atom_site_fract_y
 _atom_site_fract_z
 _atom_site_fract_occupancy
 Bi  Bi1  1  0.71876  0.31555  0.43727  1
 Nb  Nb1  1  -0.00122  0.93114  -0.00226  1
 O  O1  1  -0.00798  0.47898  0.98438  1
 O  O2  1  0.17580  0.09247  0.35142  1
 O  O3  1  0.83192  0.93135  0.66369  1
 O  O4  1  0.53272  0.00051  0.06551  1
