data_image0
_chemical_formula_structural       Dy3Rh3Sn3
_chemical_formula_sum              "Dy3 Rh3 Sn3"
_cell_length_a       7.56194
_cell_length_b       7.56194
_cell_length_c       3.83761
_cell_angle_alpha    90
_cell_angle_beta     90
_cell_angle_gamma    120.001

_space_group_name_H-M_alt    "P 1"
_space_group_IT_number       1

loop_
  _space_group_symop_operation_xyz
  'x, y, z'

loop_
  _atom_site_type_symbol
  _atom_site_label
  _atom_site_symmetry_multiplicity
  _atom_site_fract_x
  _atom_site_fract_y
  _atom_site_fract_z
  _atom_site_occupancy
  Dy  Dy1       1.0  0.59300  0.00001  0.50000  1.0000
  Dy  Dy2       1.0  0.40800  0.40800  0.50000  1.0000
  Dy  Dy3       1.0  0.00001  0.59300  0.50000  1.0000
  Rh  Rh1       1.0  0.66700  0.33300  0.00000  1.0000
  Rh  Rh2       1.0  0.33300  0.66700  0.00000  1.0000
  Rh  Rh3       1.0  0.00001  0.00001  0.50000  1.0000
  Sn  Sn1       1.0  0.26100  0.00001  0.00000  1.0000
  Sn  Sn2       1.0  0.00001  0.26100  0.00000  1.0000
  Sn  Sn3       1.0  0.73900  0.73900  0.00000  1.0000
