CIF file written using JARVIS-Tools package.
data_K3NaS2O8
_symmetry_space_group_name_H-M  'P-3m1'
_cell_length_a       5.66894
_cell_length_b       5.66894
_cell_length_c       7.28541
_cell_angle_alpha    90
_cell_angle_beta     90
_cell_angle_gamma    120

_symmetry_Int_Tables_number  164
_chemical_formula_structural  K3NaS2O8
_chemical_formula_sum  K3NaS2O8
_cell_volume  202.76260041307526
_cell_formula_units_Z  1
loop_
  _symmetry_equiv_pos_site_id
 _symmetry_equiv_pos_as_xyz
 1  'x, y, z'
loop_
 _atom_site_type_symbol
 _atom_site_label
 _atom_site_symmetry_multiplicity
 _atom_site_fract_x
 _atom_site_fract_y
 _atom_site_fract_z
 _atom_site_fract_occupancy
 K  K1  1  0.33333  0.66667  0.17276  1
 K  K2  1  0.00000  0.00000  0.50000  1
 K  K3  1  0.66667  0.33333  0.82724  1
 Na  Na1  1  0.00000  0.00000  0.00000  1
 O  O1  1  0.19082  0.80918  0.80242  1
 O  O2  1  0.19082  0.38164  0.80242  1
 O  O3  1  0.61836  0.80918  0.80242  1
 O  O4  1  0.38164  0.19082  0.19758  1
 O  O5  1  0.80918  0.61836  0.19758  1
 O  O6  1  0.80918  0.19082  0.19758  1
 O  O7  1  0.66667  0.33333  0.47127  1
 O  O8  1  0.33333  0.66667  0.52873  1
 S  S1  1  0.66667  0.33333  0.27012  1
 S  S2  1  0.33333  0.66667  0.72988  1
