CIF file written using JARVIS-Tools package.
data_Rb3NiF7
_symmetry_space_group_name_H-M  'P4/mbm'
_cell_length_a       7.93257
_cell_length_b       7.93257
_cell_length_c       5.8837
_cell_angle_alpha    90
_cell_angle_beta     90
_cell_angle_gamma    90

_symmetry_Int_Tables_number  127
_chemical_formula_structural  Rb3NiF7
_chemical_formula_sum  Rb6Ni2F4
_cell_volume  370.23577153448923
_cell_formula_units_Z  2
loop_
  _symmetry_equiv_pos_site_id
 _symmetry_equiv_pos_as_xyz
 1  'x, y, z'
loop_
 _atom_site_type_symbol
 _atom_site_label
 _atom_site_symmetry_multiplicity
 _atom_site_fract_x
 _atom_site_fract_y
 _atom_site_fract_z
 _atom_site_fract_occupancy
 F  F1  1  0.50000  0.50000  0.50000  1
 F  F2  1  0.38710  0.88710  0.78048  1
 F  F3  1  0.61290  0.11290  0.78048  1
 F  F4  1  0.66114  0.83886  0.00000  1
 F  F5  1  0.88710  0.61290  0.78048  1
 F  F6  1  0.38710  0.88710  0.21952  1
 F  F7  1  0.11290  0.38710  0.78048  1
 F  F8  1  0.11290  0.38710  0.21952  1
 F  F9  1  0.61290  0.11290  0.21952  1
 F  F10  1  0.00000  0.00000  0.50000  1
 F  F11  1  0.16114  0.66114  0.00000  1
 F  F12  1  0.83886  0.33886  0.00000  1
 F  F13  1  0.33886  0.16114  0.00000  1
 F  F14  1  0.88710  0.61290  0.21952  1
 Ni  Ni1  1  0.50000  0.00000  0.00000  1
 Ni  Ni2  1  0.00000  0.50000  0.00000  1
 Rb  Rb1  1  0.00000  0.00000  0.00000  1
 Rb  Rb2  1  0.50000  0.50000  0.00000  1
 Rb  Rb3  1  0.81218  0.31218  0.50000  1
 Rb  Rb4  1  0.31218  0.18782  0.50000  1
 Rb  Rb5  1  0.68782  0.81218  0.50000  1
 Rb  Rb6  1  0.18782  0.68782  0.50000  1
