CIF file written using JARVIS-Tools package.
data_KMgP
_symmetry_space_group_name_H-M  'P4/nmm'
_cell_length_a       4.44173
_cell_length_b       4.44173
_cell_length_c       7.55188
_cell_angle_alpha    90
_cell_angle_beta     90
_cell_angle_gamma    90

_symmetry_Int_Tables_number  129
_chemical_formula_structural  KMgP
_chemical_formula_sum  K2Mg2P2
_cell_volume  148.99054798217705
_cell_formula_units_Z  2
loop_
  _symmetry_equiv_pos_site_id
 _symmetry_equiv_pos_as_xyz
 1  'x, y, z'
loop_
 _atom_site_type_symbol
 _atom_site_label
 _atom_site_symmetry_multiplicity
 _atom_site_fract_x
 _atom_site_fract_y
 _atom_site_fract_z
 _atom_site_fract_occupancy
 K  K1  1  0.50000  0.00000  0.36208  1
 K  K2  1  0.00000  0.50000  0.63792  1
 Mg  Mg1  1  0.50000  0.50000  0.00000  1
 Mg  Mg2  1  0.00000  0.00000  0.00000  1
 P  P1  1  0.50000  0.00000  0.81162  1
 P  P2  1  0.00000  0.50000  0.18838  1
