CIF file written using JARVIS-Tools package.
data_ScNiB4
_symmetry_space_group_name_H-M  'Pbam'
_cell_length_a       3.27296
_cell_length_b       5.78342
_cell_length_c       11.2162
_cell_angle_alpha    90
_cell_angle_beta     90
_cell_angle_gamma    90

_symmetry_Int_Tables_number  55
_chemical_formula_structural  ScNiB4
_chemical_formula_sum  Sc4Ni4B6
_cell_volume  212.31046302007036
_cell_formula_units_Z  4
loop_
  _symmetry_equiv_pos_site_id
 _symmetry_equiv_pos_as_xyz
 1  'x, y, z'
loop_
 _atom_site_type_symbol
 _atom_site_label
 _atom_site_symmetry_multiplicity
 _atom_site_fract_x
 _atom_site_fract_y
 _atom_site_fract_z
 _atom_site_fract_occupancy
 B  B1  1  0.50000  0.78937  0.18643  1
 B  B2  1  0.50000  0.02193  0.69400  1
 B  B3  1  0.50000  0.97807  0.30600  1
 B  B4  1  0.50000  0.52193  0.80600  1
 B  B5  1  0.50000  0.86601  0.03213  1
 B  B6  1  0.50000  0.11618  0.54918  1
 B  B7  1  0.50000  0.88382  0.45082  1
 B  B8  1  0.50000  0.47807  0.19400  1
 B  B9  1  0.50000  0.38382  0.04918  1
 B  B10  1  0.50000  0.28937  0.31357  1
 B  B11  1  0.50000  0.71063  0.68643  1
 B  B12  1  0.50000  0.13399  0.96787  1
 B  B13  1  0.50000  0.21063  0.81357  1
 B  B14  1  0.50000  0.36601  0.46787  1
 B  B15  1  0.50000  0.63399  0.53213  1
 B  B16  1  0.50000  0.61618  0.95082  1
 Ni  Ni1  1  0.00000  0.36468  0.91094  1
 Ni  Ni2  1  0.00000  0.63532  0.08906  1
 Ni  Ni3  1  0.00000  0.86468  0.58906  1
 Ni  Ni4  1  0.00000  0.13532  0.41094  1
 Sc  Sc1  1  0.00000  0.37307  0.65054  1
 Sc  Sc2  1  0.00000  0.62693  0.34946  1
 Sc  Sc3  1  0.00000  0.87307  0.84946  1
 Sc  Sc4  1  0.00000  0.12693  0.15054  1
