CIF file written using JARVIS-Tools package.
data_Dy2CdPd2
_symmetry_space_group_name_H-M  'P4/mbm'
_cell_length_a       7.69208
_cell_length_b       7.69208
_cell_length_c       3.69776
_cell_angle_alpha    90
_cell_angle_beta     90
_cell_angle_gamma    90

_symmetry_Int_Tables_number  127
_chemical_formula_structural  Dy2CdPd2
_chemical_formula_sum  Dy4Cd2Pd4
_cell_volume  218.78949163546375
_cell_formula_units_Z  2
loop_
  _symmetry_equiv_pos_site_id
 _symmetry_equiv_pos_as_xyz
 1  'x, y, z'
loop_
 _atom_site_type_symbol
 _atom_site_label
 _atom_site_symmetry_multiplicity
 _atom_site_fract_x
 _atom_site_fract_y
 _atom_site_fract_z
 _atom_site_fract_occupancy
 Cd  Cd1  1  0.00000  0.00000  0.00000  1
 Cd  Cd2  1  0.50000  0.50000  0.00000  1
 Dy  Dy1  1  0.32867  0.82867  0.50000  1
 Dy  Dy2  1  0.82867  0.67133  0.50000  1
 Dy  Dy3  1  0.17133  0.32867  0.50000  1
 Dy  Dy4  1  0.67133  0.17133  0.50000  1
 Pd  Pd1  1  0.37081  0.12919  0.00000  1
 Pd  Pd2  1  0.87081  0.37081  0.00000  1
 Pd  Pd3  1  0.12919  0.62919  0.00000  1
 Pd  Pd4  1  0.62919  0.87081  0.00000  1
