CIF file written using JARVIS-Tools package.
data_Zr4Pd2O
_symmetry_space_group_name_H-M  'Fd-3m'
_cell_length_a       8.86088
_cell_length_b       8.86088
_cell_length_c       8.86088
_cell_angle_alpha    60
_cell_angle_beta     60
_cell_angle_gamma    60

_symmetry_Int_Tables_number  227
_chemical_formula_structural  Zr4Pd2O
_chemical_formula_sum  Zr6Pd8O4
_cell_volume  491.94446902522907
_cell_formula_units_Z  4
loop_
  _symmetry_equiv_pos_site_id
 _symmetry_equiv_pos_as_xyz
 1  'x, y, z'
loop_
 _atom_site_type_symbol
 _atom_site_label
 _atom_site_symmetry_multiplicity
 _atom_site_fract_x
 _atom_site_fract_y
 _atom_site_fract_z
 _atom_site_fract_occupancy
 O  O1  1  0.00000  0.50000  0.00000  1
 O  O2  1  0.00000  0.00000  0.50000  1
 O  O3  1  0.00000  0.00000  0.00000  1
 O  O4  1  0.50000  0.00000  0.00000  1
 Pd  Pd1  1  0.35428  0.71524  0.71524  1
 Pd  Pd2  1  0.28476  0.28476  0.64572  1
 Pd  Pd3  1  0.71524  0.71524  0.71524  1
 Pd  Pd4  1  0.71524  0.35428  0.71524  1
 Pd  Pd5  1  0.64572  0.28476  0.28476  1
 Pd  Pd6  1  0.28476  0.64572  0.28476  1
 Pd  Pd7  1  0.28476  0.28476  0.28476  1
 Pd  Pd8  1  0.71524  0.71524  0.35428  1
 Zr  Zr1  1  0.00000  0.50000  0.50000  1
 Zr  Zr2  1  0.30619  0.94381  0.30619  1
 Zr  Zr3  1  0.50000  0.50000  -0.00000  1
 Zr  Zr4  1  0.94381  0.94381  0.30619  1
 Zr  Zr5  1  0.30619  0.30619  0.94381  1
 Zr  Zr6  1  0.69381  0.05619  0.05619  1
 Zr  Zr7  1  0.05619  0.69381  0.05619  1
 Zr  Zr8  1  0.94381  0.30619  0.30619  1
 Zr  Zr9  1  0.50000  0.50000  0.50000  1
 Zr  Zr10  1  0.30619  0.94381  0.94381  1
 Zr  Zr11  1  0.50000  0.00000  0.50000  1
 Zr  Zr12  1  0.05619  0.69381  0.69381  1
 Zr  Zr13  1  0.05619  0.05619  0.69381  1
 Zr  Zr14  1  0.69381  0.69381  0.05619  1
 Zr  Zr15  1  0.94381  0.30619  0.94381  1
 Zr  Zr16  1  0.69381  0.05619  0.69381  1
