CIF file written using JARVIS-Tools package.
data_LiNbP2O7
_symmetry_space_group_name_H-M  'P2_1'
_cell_length_a       4.95507
_cell_length_b       8.59491
_cell_length_c       7.15762
_cell_angle_alpha    90
_cell_angle_beta     108.492
_cell_angle_gamma    90

_symmetry_Int_Tables_number  4
_chemical_formula_structural  LiNbP2O7
_chemical_formula_sum  Li2Nb2P4O4
_cell_volume  289.0925539234468
_cell_formula_units_Z  2
loop_
  _symmetry_equiv_pos_site_id
 _symmetry_equiv_pos_as_xyz
 1  'x, y, z'
loop_
 _atom_site_type_symbol
 _atom_site_label
 _atom_site_symmetry_multiplicity
 _atom_site_fract_x
 _atom_site_fract_y
 _atom_site_fract_z
 _atom_site_fract_occupancy
 Li  Li1  1  0.17918  0.20624  0.65968  1
 Li  Li2  1  0.82082  0.70624  0.34032  1
 Nb  Nb1  1  0.20576  0.55470  0.72306  1
 Nb  Nb2  1  0.79424  0.05470  0.27694  1
 O  O1  1  0.04216  0.73459  0.85572  1
 O  O2  1  0.14347  0.34362  0.87760  1
 O  O3  1  0.85653  0.84362  0.12240  1
 O  O4  1  0.23412  0.72831  0.50747  1
 O  O5  1  0.38462  0.37935  0.57890  1
 O  O6  1  0.21280  0.02373  0.50249  1
 O  O7  1  0.58819  0.89181  0.76916  1
 O  O8  1  0.41181  0.39181  0.23084  1
 O  O9  1  0.61538  0.87935  0.42110  1
 O  O10  1  0.61010  0.61665  0.91805  1
 O  O11  1  0.76588  0.22831  0.49253  1
 O  O12  1  0.78720  0.52373  0.49751  1
 O  O13  1  0.38990  0.11665  0.08195  1
 O  O14  1  0.95784  0.23459  0.14428  1
 P  P1  1  0.59422  0.37952  0.46031  1
 P  P2  1  0.78400  0.76481  0.92213  1
 P  P3  1  0.21600  0.26481  0.07787  1
 P  P4  1  0.40578  0.87952  0.53969  1
