CIF file written using JARVIS-Tools package.
data_Sc3Ni4Ge4
_symmetry_space_group_name_H-M  'Immm'
_cell_length_a       3.90729
_cell_length_b       6.61428
_cell_length_c       7.52651
_cell_angle_alpha    116.066
_cell_angle_beta     105.044
_cell_angle_gamma    90

_symmetry_Int_Tables_number  71
_chemical_formula_structural  Sc3Ni4Ge4
_chemical_formula_sum  Sc3Ni4Ge4
_cell_volume  167.27714882054931
_cell_formula_units_Z  1
loop_
  _symmetry_equiv_pos_site_id
 _symmetry_equiv_pos_as_xyz
 1  'x, y, z'
loop_
 _atom_site_type_symbol
 _atom_site_label
 _atom_site_symmetry_multiplicity
 _atom_site_fract_x
 _atom_site_fract_y
 _atom_site_fract_z
 _atom_site_fract_occupancy
 Ge  Ge1  1  0.78210  0.28211  0.56421  1
 Ge  Ge2  1  0.21790  0.71789  0.43579  1
 Ge  Ge3  1  0.50001  0.80318  0.00002  1
 Ge  Ge4  1  0.49999  0.19682  0.99998  1
 Ni  Ni1  1  0.67737  0.47971  0.35473  1
 Ni  Ni2  1  0.32261  0.12500  0.64522  1
 Ni  Ni3  1  0.32263  0.52029  0.64527  1
 Ni  Ni4  1  0.67739  0.87500  0.35478  1
 Sc  Sc1  1  0.87354  0.87353  0.74708  1
 Sc  Sc2  1  0.12646  0.12647  0.25292  1
 Sc  Sc3  1  -0.00000  0.50000  -0.00000  1
