CIF file written using JARVIS-Tools package.
data_Ti5Si3
_symmetry_space_group_name_H-M  'P6_3/mcm'
_cell_length_a       7.4851
_cell_length_b       7.4851
_cell_length_c       5.13732
_cell_angle_alpha    90
_cell_angle_beta     90
_cell_angle_gamma    120

_symmetry_Int_Tables_number  193
_chemical_formula_structural  Ti5Si3
_chemical_formula_sum  Ti0Si6
_cell_volume  249.2657289331222
_cell_formula_units_Z  2
loop_
  _symmetry_equiv_pos_site_id
 _symmetry_equiv_pos_as_xyz
 1  'x, y, z'
loop_
 _atom_site_type_symbol
 _atom_site_label
 _atom_site_symmetry_multiplicity
 _atom_site_fract_x
 _atom_site_fract_y
 _atom_site_fract_z
 _atom_site_fract_occupancy
 Si  Si1  1  -0.00000  0.60914  0.25000  1
 Si  Si2  1  0.39086  0.00000  0.75000  1
 Si  Si3  1  0.60914  0.60914  0.75000  1
 Si  Si4  1  0.39086  0.39086  0.25000  1
 Si  Si5  1  0.60914  -0.00000  0.25000  1
 Si  Si6  1  0.00000  0.39086  0.75000  1
 Ti  Ti1  1  0.33333  0.66667  0.00000  1
 Ti  Ti2  1  0.66667  0.33333  0.50000  1
 Ti  Ti3  1  0.66667  0.33333  0.00000  1
 Ti  Ti4  1  0.33333  0.66667  0.50000  1
 Ti  Ti5  1  0.00000  0.24934  0.25000  1
 Ti  Ti6  1  0.75066  -0.00000  0.75000  1
 Ti  Ti7  1  0.24934  0.24934  0.75000  1
 Ti  Ti8  1  0.75066  0.75066  0.25000  1
 Ti  Ti9  1  0.24934  0.00000  0.25000  1
 Ti  Ti10  1  -0.00000  0.75066  0.75000  1
