CIF file written using JARVIS-Tools package.
data_ErH2
_symmetry_space_group_name_H-M  'P6_3/mmc'
_cell_length_a       3.52225
_cell_length_b       3.52225
_cell_length_c       6.32216
_cell_angle_alpha    90
_cell_angle_beta     90
_cell_angle_gamma    120

_symmetry_Int_Tables_number  194
_chemical_formula_structural  ErH2
_chemical_formula_sum  Er2H4
_cell_volume  67.9262887716547
_cell_formula_units_Z  2
loop_
  _symmetry_equiv_pos_site_id
 _symmetry_equiv_pos_as_xyz
 1  'x, y, z'
loop_
 _atom_site_type_symbol
 _atom_site_label
 _atom_site_symmetry_multiplicity
 _atom_site_fract_x
 _atom_site_fract_y
 _atom_site_fract_z
 _atom_site_fract_occupancy
 Er  Er1  1  0.33333  0.66667  0.75000  1
 Er  Er2  1  0.66667  0.33333  0.25000  1
 H  H1  1  0.33333  0.66667  0.09386  1
 H  H2  1  0.66667  0.33333  0.90614  1
 H  H3  1  0.66667  0.33333  0.59386  1
 H  H4  1  0.33333  0.66667  0.40614  1
