CIF file written using JARVIS-Tools package.
data_AgBiTe2
_symmetry_space_group_name_H-M  'P-3m1'
_cell_length_a       4.33769
_cell_length_b       4.33769
_cell_length_c       21.8944
_cell_angle_alpha    90
_cell_angle_beta     90
_cell_angle_gamma    120

_symmetry_Int_Tables_number  164
_chemical_formula_structural  AgBiTe2
_chemical_formula_sum  Ag3Bi3Te6
_cell_volume  356.7639414448625
_cell_formula_units_Z  3
loop_
  _symmetry_equiv_pos_site_id
 _symmetry_equiv_pos_as_xyz
 1  'x, y, z'
loop_
 _atom_site_type_symbol
 _atom_site_label
 _atom_site_symmetry_multiplicity
 _atom_site_fract_x
 _atom_site_fract_y
 _atom_site_fract_z
 _atom_site_fract_occupancy
 Ag  Ag1  1  0.66667  0.33333  0.36028  1
 Ag  Ag2  1  0.33333  0.66667  0.63972  1
 Ag  Ag3  1  0.00000  0.00000  0.50000  1
 Bi  Bi1  1  0.33333  0.66667  0.19246  1
 Bi  Bi2  1  0.66667  0.33333  0.80754  1
 Bi  Bi3  1  0.00000  0.00000  0.00000  1
 Te  Te1  1  0.66667  0.33333  0.09146  1
 Te  Te2  1  0.33333  0.66667  0.90854  1
 Te  Te3  1  0.66667  0.33333  0.57475  1
 Te  Te4  1  0.33333  0.66667  0.42525  1
 Te  Te5  1  0.00000  0.00000  0.27883  1
 Te  Te6  1  0.00000  0.00000  0.72117  1
