CIF file written using JARVIS-Tools package.
data_ErMn12
_symmetry_space_group_name_H-M  'I4/mmm'
_cell_length_a       4.55713
_cell_length_b       6.25733
_cell_length_c       6.25734
_cell_angle_alpha    82.3801
_cell_angle_beta     68.6451
_cell_angle_gamma    68.6451

_symmetry_Int_Tables_number  139
_chemical_formula_structural  ErMn12
_chemical_formula_sum  ErMn2
_cell_volume  154.77085869480194
_cell_formula_units_Z  1
loop_
  _symmetry_equiv_pos_site_id
 _symmetry_equiv_pos_as_xyz
 1  'x, y, z'
loop_
 _atom_site_type_symbol
 _atom_site_label
 _atom_site_symmetry_multiplicity
 _atom_site_fract_x
 _atom_site_fract_y
 _atom_site_fract_z
 _atom_site_fract_occupancy
 Er  Er1  1  0.00000  0.00000  0.00000  1
 Mn  Mn1  1  0.72506  0.77494  0.77494  1
 Mn  Mn2  1  0.50000  0.00000  0.50000  1
 Mn  Mn3  1  -0.00000  0.50000  -0.00000  1
 Mn  Mn4  1  0.50000  0.50000  -0.00000  1
 Mn  Mn5  1  -0.00000  0.00000  0.50000  1
 Mn  Mn6  1  0.36444  0.63556  0.63556  1
 Mn  Mn7  1  0.00000  0.36444  0.63556  1
 Mn  Mn8  1  -0.00000  0.63556  0.36444  1
 Mn  Mn9  1  0.63556  0.36444  0.36444  1
 Mn  Mn10  1  0.27494  0.22506  0.22506  1
 Mn  Mn11  1  0.50000  0.77494  0.22506  1
 Mn  Mn12  1  0.50000  0.22506  0.77494  1
