CIF file written using JARVIS-Tools package.
data_LiAlSi2O6
_symmetry_space_group_name_H-M  'C2/c'
_cell_length_a       5.26781
_cell_length_b       6.38662
_cell_length_c       6.38662
_cell_angle_alpha    82.6662
_cell_angle_beta     74.7413
_cell_angle_gamma    74.7414

_symmetry_Int_Tables_number  15
_chemical_formula_structural  LiAlSi2O6
_chemical_formula_sum  Li2Al2Si4O2
_cell_volume  199.59197999886857
_cell_formula_units_Z  2
loop_
  _symmetry_equiv_pos_site_id
 _symmetry_equiv_pos_as_xyz
 1  'x, y, z'
loop_
 _atom_site_type_symbol
 _atom_site_label
 _atom_site_symmetry_multiplicity
 _atom_site_fract_x
 _atom_site_fract_y
 _atom_site_fract_z
 _atom_site_fract_occupancy
 Al  Al1  1  0.25000  0.09240  0.90760  1
 Al  Al2  1  0.75000  0.90760  0.09240  1
 Li  Li1  1  0.75000  0.27148  0.72852  1
 Li  Li2  1  0.25000  0.72852  0.27148  1
 O  O1  1  0.93205  0.33706  0.37445  1
 O  O2  1  0.43205  0.37445  0.33706  1
 O  O3  1  0.06795  0.66294  0.62555  1
 O  O4  1  0.56795  0.62555  0.66294  1
 O  O5  1  0.29899  0.36671  0.90309  1
 O  O6  1  0.70101  0.63329  0.09691  1
 O  O7  1  0.79899  0.90309  0.36671  1
 O  O8  1  0.14257  0.80739  0.97452  1
 O  O9  1  0.20101  0.09691  0.63329  1
 O  O10  1  0.85743  0.19261  0.02548  1
 O  O11  1  0.35743  0.02548  0.19261  1
 O  O12  1  0.64257  0.97452  0.80739  1
 Si  Si1  1  0.76005  0.80031  0.61224  1
 Si  Si2  1  0.73995  0.38776  0.19969  1
 Si  Si3  1  0.23995  0.19969  0.38776  1
 Si  Si4  1  0.26005  0.61224  0.80031  1
