CIF file written using JARVIS-Tools package.
data_OsC2
_symmetry_space_group_name_H-M  'P6_3/mmc'
_cell_length_a       2.88831
_cell_length_b       2.88831
_cell_length_c       7.99614
_cell_angle_alpha    90
_cell_angle_beta     90
_cell_angle_gamma    120

_symmetry_Int_Tables_number  194
_chemical_formula_structural  OsC2
_chemical_formula_sum  Os2C4
_cell_volume  57.769311885542585
_cell_formula_units_Z  2
loop_
  _symmetry_equiv_pos_site_id
 _symmetry_equiv_pos_as_xyz
 1  'x, y, z'
loop_
 _atom_site_type_symbol
 _atom_site_label
 _atom_site_symmetry_multiplicity
 _atom_site_fract_x
 _atom_site_fract_y
 _atom_site_fract_z
 _atom_site_fract_occupancy
 C  C1  1  0.00000  0.00000  0.41092  1
 C  C2  1  0.00000  0.00000  0.58908  1
 C  C3  1  0.00000  0.00000  0.91092  1
 C  C4  1  0.00000  0.00000  0.08908  1
 Os  Os1  1  0.66667  0.33333  0.25000  1
 Os  Os2  1  0.33333  0.66667  0.75000  1
