CIF file written using JARVIS-Tools package.
data_Na2MgAlF7
_symmetry_space_group_name_H-M  'Imma'
_cell_length_a       7.09337
_cell_length_b       7.17274
_cell_length_c       7.17274
_cell_angle_alpha    61.6956
_cell_angle_beta     60.3655
_cell_angle_gamma    60.3655

_symmetry_Int_Tables_number  74
_chemical_formula_structural  Na2MgAlF7
_chemical_formula_sum  Na4Mg2Al2F4
_cell_volume  262.6665868042397
_cell_formula_units_Z  2
loop_
  _symmetry_equiv_pos_site_id
 _symmetry_equiv_pos_as_xyz
 1  'x, y, z'
loop_
 _atom_site_type_symbol
 _atom_site_label
 _atom_site_symmetry_multiplicity
 _atom_site_fract_x
 _atom_site_fract_y
 _atom_site_fract_z
 _atom_site_fract_occupancy
 Al  Al1  1  0.50000  -0.00000  -0.00000  1
 Al  Al2  1  0.00000  0.50000  0.50000  1
 F  F1  1  0.58699  0.69041  0.13561  1
 F  F2  1  0.07349  0.68159  0.54400  1
 F  F3  1  0.20092  0.04400  0.18159  1
 F  F4  1  0.42651  0.95600  0.81841  1
 F  F5  1  0.70092  0.68159  0.54400  1
 F  F6  1  0.92651  0.31841  0.45600  1
 F  F7  1  0.79908  0.95600  0.81841  1
 F  F8  1  0.57349  0.04400  0.18159  1
 F  F9  1  0.25000  0.88628  0.61372  1
 F  F10  1  0.41301  0.30959  0.86439  1
 F  F11  1  0.75000  0.11372  0.38628  1
 F  F12  1  0.08699  0.63561  0.19041  1
 F  F13  1  0.91301  0.36439  0.80959  1
 F  F14  1  0.29908  0.31841  0.45600  1
 Mg  Mg1  1  0.00000  0.00000  0.50000  1
 Mg  Mg2  1  0.50000  0.00000  0.50000  1
 Na  Na1  1  0.00000  0.00000  0.00000  1
 Na  Na2  1  0.50000  0.50000  0.50000  1
 Na  Na3  1  0.00000  0.50000  0.00000  1
 Na  Na4  1  0.50000  0.50000  -0.00000  1
