CIF file written using JARVIS-Tools package.
data_KLiSO4
_symmetry_space_group_name_H-M  'Cc'
_cell_length_a       5.07593
_cell_length_b       5.13961
_cell_length_c       8.67754
_cell_angle_alpha    89.8416
_cell_angle_beta     89.6793
_cell_angle_gamma    60.409

_symmetry_Int_Tables_number  9
_chemical_formula_structural  KLiSO4
_chemical_formula_sum  K2Li2S2O8
_cell_volume  196.85255155259847
_cell_formula_units_Z  2
loop_
  _symmetry_equiv_pos_site_id
 _symmetry_equiv_pos_as_xyz
 1  'x, y, z'
loop_
 _atom_site_type_symbol
 _atom_site_label
 _atom_site_symmetry_multiplicity
 _atom_site_fract_x
 _atom_site_fract_y
 _atom_site_fract_z
 _atom_site_fract_occupancy
 K  K1  1  0.96099  0.00869  0.49439  1
 K  K2  1  0.96968  0.99131  0.99439  1
 Li  Li1  1  0.63270  0.66445  0.30857  1
 Li  Li2  1  0.29715  0.33555  0.80857  1
 O  O1  1  0.01302  0.33675  0.24012  1
 O  O2  1  0.34977  0.66325  0.74012  1
 O  O3  1  0.56286  0.05529  0.25445  1
 O  O4  1  0.61815  0.94471  0.75445  1
 O  O5  1  0.66363  0.65492  0.52742  1
 O  O6  1  0.31855  0.34508  0.02742  1
 O  O7  1  0.89817  0.40070  0.76432  1
 O  O8  1  0.29886  0.59930  0.26432  1
 S  S1  1  0.29823  0.33401  0.19773  1
 S  S2  1  0.63224  0.66599  0.69773  1
