CIF file written using JARVIS-Tools package.
data_SmMg2Ni9
_symmetry_space_group_name_H-M  'R-3m'
_cell_length_a       8.36513
_cell_length_b       8.36513
_cell_length_c       8.36512
_cell_angle_alpha    33.7921
_cell_angle_beta     33.7921
_cell_angle_gamma    33.7921

_symmetry_Int_Tables_number  166
_chemical_formula_structural  SmMg2Ni9
_chemical_formula_sum  SmMg2Ni9
_cell_volume  161.34701976855825
_cell_formula_units_Z  1
loop_
  _symmetry_equiv_pos_site_id
 _symmetry_equiv_pos_as_xyz
 1  'x, y, z'
loop_
 _atom_site_type_symbol
 _atom_site_label
 _atom_site_symmetry_multiplicity
 _atom_site_fract_x
 _atom_site_fract_y
 _atom_site_fract_z
 _atom_site_fract_occupancy
 Mg  Mg1  1  0.14403  0.14403  0.14403  1
 Mg  Mg2  1  0.85597  0.85597  0.85597  1
 Ni  Ni1  1  0.33354  0.33354  0.33354  1
 Ni  Ni2  1  0.91776  0.41332  0.41332  1
 Ni  Ni3  1  0.58668  0.58668  0.08224  1
 Ni  Ni4  1  0.41332  0.91776  0.41332  1
 Ni  Ni5  1  0.08224  0.58668  0.58668  1
 Ni  Ni6  1  0.66646  0.66646  0.66646  1
 Ni  Ni7  1  0.50000  0.50000  0.50000  1
 Ni  Ni8  1  0.58668  0.08224  0.58668  1
 Ni  Ni9  1  0.41332  0.41332  0.91776  1
 Sm  Sm1  1  0.00000  0.00000  0.00000  1
