CIF file written using JARVIS-Tools package.
data_Rb2MgCl4
_symmetry_space_group_name_H-M  'I4/mmm'
_cell_length_a       4.96732
_cell_length_b       4.96732
_cell_length_c       8.82095
_cell_angle_alpha    106.354
_cell_angle_beta     106.354
_cell_angle_gamma    90

_symmetry_Int_Tables_number  139
_chemical_formula_structural  Rb2MgCl4
_chemical_formula_sum  Rb2MgCl4
_cell_volume  199.6510240368844
_cell_formula_units_Z  1
loop_
  _symmetry_equiv_pos_site_id
 _symmetry_equiv_pos_as_xyz
 1  'x, y, z'
loop_
 _atom_site_type_symbol
 _atom_site_label
 _atom_site_symmetry_multiplicity
 _atom_site_fract_x
 _atom_site_fract_y
 _atom_site_fract_z
 _atom_site_fract_occupancy
 Cl  Cl1  1  0.15601  0.15601  0.31202  1
 Cl  Cl2  1  0.84399  0.84399  0.68798  1
 Cl  Cl3  1  0.00000  0.50000  0.00000  1
 Cl  Cl4  1  0.50000  0.00000  0.00000  1
 Mg  Mg1  1  0.00000  0.00000  0.00000  1
 Rb  Rb1  1  0.35643  0.35643  0.71287  1
 Rb  Rb2  1  0.64357  0.64357  0.28713  1
