CIF file written using JARVIS-Tools package.
data_UH2O4
_symmetry_space_group_name_H-M  'P2_1/c'
_cell_length_a       5.56904
_cell_length_b       5.29298
_cell_length_c       6.01832
_cell_angle_alpha    90
_cell_angle_beta     113.142
_cell_angle_gamma    90

_symmetry_Int_Tables_number  14
_chemical_formula_structural  UH2O4
_chemical_formula_sum  U2H4O8
_cell_volume  163.1257238561843
_cell_formula_units_Z  2
loop_
  _symmetry_equiv_pos_site_id
 _symmetry_equiv_pos_as_xyz
 1  'x, y, z'
loop_
 _atom_site_type_symbol
 _atom_site_label
 _atom_site_symmetry_multiplicity
 _atom_site_fract_x
 _atom_site_fract_y
 _atom_site_fract_z
 _atom_site_fract_occupancy
 H  H1  1  0.52403  0.30595  0.63787  1
 H  H2  1  0.47597  0.80595  0.86213  1
 H  H3  1  0.47597  0.69405  0.36213  1
 H  H4  1  0.52403  0.19405  0.13787  1
 O  O1  1  0.34622  0.31254  0.64191  1
 O  O2  1  0.65378  0.81254  0.85809  1
 O  O3  1  0.65378  0.68746  0.35809  1
 O  O4  1  0.34622  0.18746  0.14191  1
 O  O5  1  0.14520  0.77398  0.81088  1
 O  O6  1  0.85480  0.27398  0.68912  1
 O  O7  1  0.85480  0.22602  0.18912  1
 O  O8  1  0.14520  0.72602  0.31088  1
 U  U1  1  -0.00000  0.50000  0.50000  1
 U  U2  1  0.00000  0.00000  0.00000  1
