CIF file written using JARVIS-Tools package.
data_NdAl7Au3
_symmetry_space_group_name_H-M  'R-3c'
_cell_length_a       8.49914
_cell_length_b       8.49914
_cell_length_c       8.49915
_cell_angle_alpha    57.4699
_cell_angle_beta     57.4699
_cell_angle_gamma    57.4699

_symmetry_Int_Tables_number  167
_chemical_formula_structural  NdAl7Au3
_chemical_formula_sum  Nd2Al4Au6
_cell_volume  408.85453531656367
_cell_formula_units_Z  2
loop_
  _symmetry_equiv_pos_site_id
 _symmetry_equiv_pos_as_xyz
 1  'x, y, z'
loop_
 _atom_site_type_symbol
 _atom_site_label
 _atom_site_symmetry_multiplicity
 _atom_site_fract_x
 _atom_site_fract_y
 _atom_site_fract_z
 _atom_site_fract_occupancy
 Al  Al1  1  0.85234  0.66902  0.06890  1
 Al  Al2  1  0.43110  0.83098  0.64766  1
 Al  Al3  1  0.83098  0.64766  0.43110  1
 Al  Al4  1  0.66902  0.06890  0.85234  1
 Al  Al5  1  0.06890  0.85234  0.66902  1
 Al  Al6  1  0.35234  0.56890  0.16902  1
 Al  Al7  1  0.56890  0.16902  0.35234  1
 Al  Al8  1  0.14766  0.33098  0.93110  1
 Al  Al9  1  0.75000  0.75000  0.75000  1
 Al  Al10  1  0.93110  0.14766  0.33098  1
 Al  Al11  1  0.33098  0.93110  0.14766  1
 Al  Al12  1  0.16902  0.35234  0.56890  1
 Al  Al13  1  0.64766  0.43110  0.83098  1
 Al  Al14  1  0.25000  0.25000  0.25000  1
 Au  Au1  1  0.75000  0.42918  0.07082  1
 Au  Au2  1  0.42918  0.07082  0.75000  1
 Au  Au3  1  0.07082  0.75000  0.42918  1
 Au  Au4  1  0.57082  0.92918  0.25000  1
 Au  Au5  1  0.92918  0.25000  0.57082  1
 Au  Au6  1  0.25000  0.57082  0.92918  1
 Nd  Nd1  1  0.50000  0.50000  0.50000  1
 Nd  Nd2  1  0.00000  0.00000  0.00000  1
