CIF file written using JARVIS-Tools package.
data_ThRe2
_symmetry_space_group_name_H-M  'P6_3/mmc'
_cell_length_a       5.41268
_cell_length_b       5.41268
_cell_length_c       9.49756
_cell_angle_alpha    90
_cell_angle_beta     90
_cell_angle_gamma    120

_symmetry_Int_Tables_number  194
_chemical_formula_structural  ThRe2
_chemical_formula_sum  Th4Re8
_cell_volume  240.97243460782147
_cell_formula_units_Z  4
loop_
  _symmetry_equiv_pos_site_id
 _symmetry_equiv_pos_as_xyz
 1  'x, y, z'
loop_
 _atom_site_type_symbol
 _atom_site_label
 _atom_site_symmetry_multiplicity
 _atom_site_fract_x
 _atom_site_fract_y
 _atom_site_fract_z
 _atom_site_fract_occupancy
 Re  Re1  1  0.00000  0.00000  0.00000  1
 Re  Re2  1  0.00000  0.00000  0.50000  1
 Re  Re3  1  0.83054  0.16946  0.75000  1
 Re  Re4  1  0.16946  0.33892  0.25000  1
 Re  Re5  1  0.66108  0.83054  0.25000  1
 Re  Re6  1  0.33892  0.16946  0.75000  1
 Re  Re7  1  0.83054  0.66108  0.75000  1
 Re  Re8  1  0.16946  0.83054  0.25000  1
 Th  Th1  1  0.33333  0.66667  0.93854  1
 Th  Th2  1  0.66667  0.33333  0.43854  1
 Th  Th3  1  0.66667  0.33333  0.06146  1
 Th  Th4  1  0.33333  0.66667  0.56146  1
