CIF file written using JARVIS-Tools package.
data_As3HO6
_symmetry_space_group_name_H-M  'P2_1/c'
_cell_length_a       12.6728
_cell_length_b       4.62045
_cell_length_c       11.2538
_cell_angle_alpha    90
_cell_angle_beta     120.698
_cell_angle_gamma    90

_symmetry_Int_Tables_number  14
_chemical_formula_structural  As3HO6
_chemical_formula_sum  As2H4O24
_cell_volume  566.6184476890093
_cell_formula_units_Z  4
loop_
  _symmetry_equiv_pos_site_id
 _symmetry_equiv_pos_as_xyz
 1  'x, y, z'
loop_
 _atom_site_type_symbol
 _atom_site_label
 _atom_site_symmetry_multiplicity
 _atom_site_fract_x
 _atom_site_fract_y
 _atom_site_fract_z
 _atom_site_fract_occupancy
 As  As1  1  0.95390  0.21387  0.63303  1
 As  As2  1  0.04610  0.71387  0.86697  1
 As  As3  1  0.04610  0.78613  0.36697  1
 As  As4  1  0.95390  0.28613  0.13303  1
 As  As5  1  0.44319  0.53733  0.63444  1
 As  As6  1  0.55681  0.03733  0.86556  1
 As  As7  1  0.55681  0.46267  0.36556  1
 As  As8  1  0.44319  0.96267  0.13444  1
 As  As9  1  0.24070  0.36005  0.72111  1
 As  As10  1  0.75930  0.86005  0.77889  1
 As  As11  1  0.75930  0.63995  0.27889  1
 As  As12  1  0.24070  0.13995  0.22111  1
 H  H1  1  0.27512  0.82532  0.81928  1
 H  H2  1  0.72488  0.32532  0.68072  1
 H  H3  1  0.72488  0.17468  0.18072  1
 H  H4  1  0.27512  0.67468  0.31928  1
 O  O1  1  0.04503  0.08268  0.81155  1
 O  O2  1  0.95497  0.58268  0.68845  1
 O  O3  1  0.95497  0.91732  0.18845  1
 O  O4  1  0.66422  0.90641  0.17850  1
 O  O5  1  0.09195  0.24033  0.60872  1
 O  O6  1  0.90805  0.74033  0.89128  1
 O  O7  1  0.90805  0.75967  0.39128  1
 O  O8  1  0.09195  0.25967  0.10872  1
 O  O9  1  0.28208  0.51217  0.60924  1
 O  O10  1  0.71792  0.01217  0.89076  1
 O  O11  1  0.04503  0.41732  0.31155  1
 O  O12  1  0.76686  0.36839  0.17602  1
 O  O13  1  0.48699  0.16380  0.68541  1
 O  O14  1  0.51301  0.66380  0.81459  1
 O  O15  1  0.51301  0.83620  0.31459  1
 O  O16  1  0.48699  0.33620  0.18541  1
 O  O17  1  0.23314  0.63161  0.82398  1
 O  O18  1  0.76686  0.13161  0.67602  1
 O  O19  1  0.71792  0.48783  0.39076  1
 O  O20  1  0.23314  0.86839  0.32398  1
 O  O21  1  0.33578  0.09359  0.82150  1
 O  O22  1  0.66422  0.59359  0.67850  1
 O  O23  1  0.28208  0.98783  0.10924  1
 O  O24  1  0.33578  0.40641  0.32150  1
