CIF file written using JARVIS-Tools package.
data_Li2Cu2F7
_symmetry_space_group_name_H-M  'Fd-3m'
_cell_length_a       7.07462
_cell_length_b       7.07462
_cell_length_c       7.07462
_cell_angle_alpha    120
_cell_angle_beta     60
_cell_angle_gamma    120

_symmetry_Int_Tables_number  227
_chemical_formula_structural  Li2Cu2F7
_chemical_formula_sum  Li4Cu4F4
_cell_volume  250.3769452109611
_cell_formula_units_Z  2
loop_
  _symmetry_equiv_pos_site_id
 _symmetry_equiv_pos_as_xyz
 1  'x, y, z'
loop_
 _atom_site_type_symbol
 _atom_site_label
 _atom_site_symmetry_multiplicity
 _atom_site_fract_x
 _atom_site_fract_y
 _atom_site_fract_z
 _atom_site_fract_occupancy
 Cu  Cu1  1  0.00000  0.50000  0.00000  1
 Cu  Cu2  1  0.00000  0.00000  0.00000  1
 Cu  Cu3  1  0.00000  0.50000  0.50000  1
 Cu  Cu4  1  0.50000  0.50000  0.00000  1
 F  F1  1  0.32981  0.17019  0.92019  1
 F  F2  1  0.07981  0.82981  0.07981  1
 F  F3  1  0.07981  0.82981  0.67019  1
 F  F4  1  0.92019  0.17019  0.32981  1
 F  F5  1  0.32981  0.57981  0.32981  1
 F  F6  1  0.67019  0.82981  0.07981  1
 F  F7  1  0.07981  0.42019  0.67019  1
 F  F8  1  0.32981  0.57981  0.92019  1
 F  F9  1  0.92019  0.17019  0.92019  1
 F  F10  1  0.62500  0.87500  0.62500  1
 F  F11  1  0.37500  0.12500  0.37500  1
 F  F12  1  0.67019  0.42019  0.67019  1
 F  F13  1  0.92019  0.57981  0.32981  1
 F  F14  1  0.67019  0.42019  0.07981  1
 Li  Li1  1  0.50000  0.00000  0.50000  1
 Li  Li2  1  0.50000  0.50000  0.50000  1
 Li  Li3  1  0.50000  0.00000  0.00000  1
 Li  Li4  1  -0.00000  0.00000  0.50000  1
