CIF file written using JARVIS-Tools package.
data_CaAs4Rh6
_symmetry_space_group_name_H-M  'P-6m2'
_cell_length_a       7.29548
_cell_length_b       7.29548
_cell_length_c       3.80953
_cell_angle_alpha    90
_cell_angle_beta     90
_cell_angle_gamma    120

_symmetry_Int_Tables_number  187
_chemical_formula_structural  CaAs4Rh6
_chemical_formula_sum  CaAs4Rh6
_cell_volume  175.5939470071522
_cell_formula_units_Z  1
loop_
  _symmetry_equiv_pos_site_id
 _symmetry_equiv_pos_as_xyz
 1  'x, y, z'
loop_
 _atom_site_type_symbol
 _atom_site_label
 _atom_site_symmetry_multiplicity
 _atom_site_fract_x
 _atom_site_fract_y
 _atom_site_fract_z
 _atom_site_fract_occupancy
 As  As1  1  0.81198  0.18802  0.50000  1
 As  As2  1  0.37603  0.18802  0.50000  1
 As  As3  1  0.33333  0.66667  0.00000  1
 As  As4  1  0.81198  0.62397  0.50000  1
 Ca  Ca1  1  0.00000  0.00000  0.00000  1
 Rh  Rh1  1  0.19943  0.80057  0.50000  1
 Rh  Rh2  1  0.19943  0.39886  0.50000  1
 Rh  Rh3  1  0.53507  0.07014  0.00000  1
 Rh  Rh4  1  0.92986  0.46493  0.00000  1
 Rh  Rh5  1  0.53507  0.46493  0.00000  1
 Rh  Rh6  1  0.60114  0.80057  0.50000  1
