CIF file written using JARVIS-Tools package.
data_Te2Mo3WSe4S2
_symmetry_space_group_name_H-M  'P3m1'
_cell_length_a       3.34736
_cell_length_b       3.34735
_cell_length_c       35.992
_cell_angle_alpha    89.9963
_cell_angle_beta     89.9984
_cell_angle_gamma    120.001

_symmetry_Int_Tables_number  156
_chemical_formula_structural  Te2Mo3WSe4S2
_chemical_formula_sum  Te2Mo3WSe4S2
_cell_volume  349.2487290914089
_cell_formula_units_Z  1
loop_
  _symmetry_equiv_pos_site_id
 _symmetry_equiv_pos_as_xyz
 1  'x, y, z'
loop_
 _atom_site_type_symbol
 _atom_site_label
 _atom_site_symmetry_multiplicity
 _atom_site_fract_x
 _atom_site_fract_y
 _atom_site_fract_z
 _atom_site_fract_occupancy
 Mo  Mo1  1  0.33325  0.66654  0.09859  1
 Mo  Mo2  1  0.33329  0.66662  0.46787  1
 Mo  Mo3  1  0.66682  0.33353  0.27452  1
 S  S1  1  0.66660  0.33326  0.05643  1
 S  S2  1  0.66655  0.33315  0.14078  1
 Se  Se1  1  0.33346  0.66680  0.32082  1
 Se  Se2  1  0.33329  0.66660  0.70842  1
 Se  Se3  1  0.33353  0.66692  0.22820  1
 Se  Se4  1  0.33335  0.66670  0.61545  1
 Te  Te1  1  0.66665  0.33336  0.41504  1
 Te  Te2  1  0.66657  0.33322  0.52067  1
 W  W1  1  0.66665  0.33332  0.66197  1
