CIF file written using JARVIS-Tools package.
data_MoCl3
_symmetry_space_group_name_H-M  'C2/m'
_cell_length_a       5.72523
_cell_length_b       5.72523
_cell_length_c       6.34095
_cell_angle_alpha    99.0001
_cell_angle_beta     99.0001
_cell_angle_gamma    115.341

_symmetry_Int_Tables_number  12
_chemical_formula_structural  MoCl3
_chemical_formula_sum  Mo2Cl6
_cell_volume  179.62988851850298
_cell_formula_units_Z  2
loop_
  _symmetry_equiv_pos_site_id
 _symmetry_equiv_pos_as_xyz
 1  'x, y, z'
loop_
 _atom_site_type_symbol
 _atom_site_label
 _atom_site_symmetry_multiplicity
 _atom_site_fract_x
 _atom_site_fract_y
 _atom_site_fract_z
 _atom_site_fract_occupancy
 Cl  Cl1  1  0.25487  0.25487  0.28128  1
 Cl  Cl2  1  0.74513  0.74513  0.71872  1
 Cl  Cl3  1  0.09206  0.43244  0.78016  1
 Cl  Cl4  1  0.56756  0.90794  0.21984  1
 Cl  Cl5  1  0.90794  0.56756  0.21984  1
 Cl  Cl6  1  0.43244  0.09206  0.78016  1
 Mo  Mo1  1  0.13340  0.86660  0.00000  1
 Mo  Mo2  1  0.86660  0.13340  -0.00000  1
