CIF file written using JARVIS-Tools package.
data_Be12Cr
_symmetry_space_group_name_H-M  'I4/mmm'
_cell_length_a       4.1294
_cell_length_b       5.46804
_cell_length_c       5.46804
_cell_angle_alpha    81.8031
_cell_angle_beta     67.8153
_cell_angle_gamma    67.8154

_symmetry_Int_Tables_number  139
_chemical_formula_structural  Be12Cr
_chemical_formula_sum  Be2Cr
_cell_volume  105.86326065225259
_cell_formula_units_Z  1
loop_
  _symmetry_equiv_pos_site_id
 _symmetry_equiv_pos_as_xyz
 1  'x, y, z'
loop_
 _atom_site_type_symbol
 _atom_site_label
 _atom_site_symmetry_multiplicity
 _atom_site_fract_x
 _atom_site_fract_y
 _atom_site_fract_z
 _atom_site_fract_occupancy
 Be  Be1  1  0.70929  0.79071  0.79071  1
 Be  Be2  1  0.50000  0.00000  0.50000  1
 Be  Be3  1  0.00000  0.50000  -0.00000  1
 Be  Be4  1  0.50000  0.50000  -0.00000  1
 Be  Be5  1  0.00000  0.00000  0.50000  1
 Be  Be6  1  0.34723  0.65277  0.65277  1
 Be  Be7  1  -0.00000  0.34723  0.65277  1
 Be  Be8  1  0.00000  0.65277  0.34723  1
 Be  Be9  1  0.65277  0.34723  0.34723  1
 Be  Be10  1  0.29071  0.20929  0.20929  1
 Be  Be11  1  0.50000  0.79071  0.20929  1
 Be  Be12  1  0.50000  0.20929  0.79071  1
 Cr  Cr1  1  0.00000  0.00000  0.00000  1
