CIF file written using JARVIS-Tools package.
data_ErCuSn
_symmetry_space_group_name_H-M  'P6_3/mmc'
_cell_length_a       4.49711
_cell_length_b       4.49717
_cell_length_c       7.29054
_cell_angle_alpha    90
_cell_angle_beta     90
_cell_angle_gamma    120

_symmetry_Int_Tables_number  194
_chemical_formula_structural  ErCuSn
_chemical_formula_sum  Er2Cu2Sn2
_cell_volume  127.69251964456477
_cell_formula_units_Z  2
loop_
  _symmetry_equiv_pos_site_id
 _symmetry_equiv_pos_as_xyz
 1  'x, y, z'
loop_
 _atom_site_type_symbol
 _atom_site_label
 _atom_site_symmetry_multiplicity
 _atom_site_fract_x
 _atom_site_fract_y
 _atom_site_fract_z
 _atom_site_fract_occupancy
 Cu  Cu1  1  0.33331  0.66663  0.25000  1
 Cu  Cu2  1  0.66669  0.33337  0.75000  1
 Er  Er1  1  0.00000  0.00000  0.50000  1
 Er  Er2  1  0.00000  0.00000  0.00000  1
 Sn  Sn1  1  0.33335  0.66670  0.75000  1
 Sn  Sn2  1  0.66665  0.33330  0.25000  1
