CIF file written using JARVIS-Tools package.
data_TiNb2Se4
_symmetry_space_group_name_H-M  'C2/m'
_cell_length_a       3.49476
_cell_length_b       6.38533
_cell_length_c       7.18867
_cell_angle_alpha    114.321
_cell_angle_beta     104.068
_cell_angle_gamma    90

_symmetry_Int_Tables_number  12
_chemical_formula_structural  TiNb2Se4
_chemical_formula_sum  TiNb2Se4
_cell_volume  140.8834895774593
_cell_formula_units_Z  1
loop_
  _symmetry_equiv_pos_site_id
 _symmetry_equiv_pos_as_xyz
 1  'x, y, z'
loop_
 _atom_site_type_symbol
 _atom_site_label
 _atom_site_symmetry_multiplicity
 _atom_site_fract_x
 _atom_site_fract_y
 _atom_site_fract_z
 _atom_site_fract_occupancy
 Nb  Nb1  1  0.25680  0.32377  0.51360  1
 Nb  Nb2  1  0.74320  0.67623  0.48640  1
 Se  Se1  1  0.10014  0.44326  0.20029  1
 Se  Se2  1  0.89986  0.55674  0.79971  1
 Se  Se3  1  0.36483  0.02824  0.72965  1
 Se  Se4  1  0.63517  0.97176  0.27035  1
 Ti  Ti1  1  0.00000  0.00000  0.00000  1
