CIF file written using JARVIS-Tools package.
data_K2Ge2Pb2O7
_symmetry_space_group_name_H-M  'P-3'
_cell_length_a       5.81822
_cell_length_b       5.81822
_cell_length_c       7.97077
_cell_angle_alpha    90
_cell_angle_beta     90
_cell_angle_gamma    120

_symmetry_Int_Tables_number  147
_chemical_formula_structural  K2Ge2Pb2O7
_chemical_formula_sum  K2Ge2Pb2O7
_cell_volume  233.67489579271825
_cell_formula_units_Z  1
loop_
  _symmetry_equiv_pos_site_id
 _symmetry_equiv_pos_as_xyz
 1  'x, y, z'
loop_
 _atom_site_type_symbol
 _atom_site_label
 _atom_site_symmetry_multiplicity
 _atom_site_fract_x
 _atom_site_fract_y
 _atom_site_fract_z
 _atom_site_fract_occupancy
 Ge  Ge1  1  0.00000  0.00000  0.27274  1
 Ge  Ge2  1  0.00000  0.00000  0.72726  1
 K  K1  1  0.66667  0.33333  0.92888  1
 K  K2  1  0.33333  0.66667  0.07112  1
 O  O1  1  0.77158  0.09937  0.20761  1
 O  O2  1  0.22842  0.90063  0.79239  1
 O  O3  1  0.32780  0.22842  0.20761  1
 O  O4  1  0.00000  0.00000  0.50000  1
 O  O5  1  0.09937  0.32780  0.79239  1
 O  O6  1  0.90063  0.67220  0.20761  1
 O  O7  1  0.67220  0.77158  0.79239  1
 Pb  Pb1  1  0.33333  0.66667  0.61689  1
 Pb  Pb2  1  0.66667  0.33333  0.38311  1
