CIF file written using JARVIS-Tools package.
data_K2PuO4
_symmetry_space_group_name_H-M  'I4/mmm'
_cell_length_a       4.29547
_cell_length_b       4.29547
_cell_length_c       7.26897
_cell_angle_alpha    107.186
_cell_angle_beta     107.186
_cell_angle_gamma    90

_symmetry_Int_Tables_number  139
_chemical_formula_structural  K2PuO4
_chemical_formula_sum  K2PuO4
_cell_volume  121.85042383313669
_cell_formula_units_Z  1
loop_
  _symmetry_equiv_pos_site_id
 _symmetry_equiv_pos_as_xyz
 1  'x, y, z'
loop_
 _atom_site_type_symbol
 _atom_site_label
 _atom_site_symmetry_multiplicity
 _atom_site_fract_x
 _atom_site_fract_y
 _atom_site_fract_z
 _atom_site_fract_occupancy
 K  K1  1  0.34974  0.34974  0.69949  1
 K  K2  1  0.65026  0.65026  0.30051  1
 O  O1  1  0.14647  0.14647  0.29294  1
 O  O2  1  0.85353  0.85353  0.70706  1
 O  O3  1  0.00000  0.50000  0.00000  1
 O  O4  1  0.50000  0.00000  0.00000  1
 Pu  Pu1  1  0.00000  0.00000  0.00000  1
