CIF file written using JARVIS-Tools package.
data_H4CN2O
_symmetry_space_group_name_H-M  'P-42_1m'
_cell_length_a       5.50478
_cell_length_b       5.50478
_cell_length_c       4.68142
_cell_angle_alpha    90
_cell_angle_beta     90
_cell_angle_gamma    90

_symmetry_Int_Tables_number  113
_chemical_formula_structural  H4CN2O
_chemical_formula_sum  H8C2N4O2
_cell_volume  141.85913247819215
_cell_formula_units_Z  2
loop_
  _symmetry_equiv_pos_site_id
 _symmetry_equiv_pos_as_xyz
 1  'x, y, z'
loop_
 _atom_site_type_symbol
 _atom_site_label
 _atom_site_symmetry_multiplicity
 _atom_site_fract_x
 _atom_site_fract_y
 _atom_site_fract_z
 _atom_site_fract_occupancy
 C  C1  1  0.50000  0.00000  0.67717  1
 C  C2  1  0.00000  0.50000  0.32283  1
 H  H1  1  0.85264  0.64736  0.95594  1
 H  H2  1  0.35264  0.85264  0.04406  1
 H  H3  1  0.64736  0.14736  0.04406  1
 H  H4  1  0.14736  0.35264  0.95594  1
 H  H5  1  0.26334  0.23666  0.28100  1
 H  H6  1  0.23666  0.73666  0.71900  1
 H  H7  1  0.76334  0.26334  0.71900  1
 H  H8  1  0.73666  0.76334  0.28100  1
 N  N1  1  0.35162  0.85162  0.82560  1
 N  N2  1  0.14838  0.35162  0.17440  1
 N  N3  1  0.64838  0.14838  0.82560  1
 N  N4  1  0.85162  0.64838  0.17440  1
 O  O1  1  0.00000  0.50000  0.59585  1
 O  O2  1  0.50000  0.00000  0.40415  1
