CIF file written using JARVIS-Tools package.
data_Ag2Te2O7
_symmetry_space_group_name_H-M  'Imma'
_cell_length_a       7.40707
_cell_length_b       7.43184
_cell_length_c       7.43184
_cell_angle_alpha    60.9587
_cell_angle_beta     60.1102
_cell_angle_gamma    60.1102

_symmetry_Int_Tables_number  74
_chemical_formula_structural  Ag2Te2O7
_chemical_formula_sum  Ag4Te4O4
_cell_volume  291.8124518772123
_cell_formula_units_Z  2
loop_
  _symmetry_equiv_pos_site_id
 _symmetry_equiv_pos_as_xyz
 1  'x, y, z'
loop_
 _atom_site_type_symbol
 _atom_site_label
 _atom_site_symmetry_multiplicity
 _atom_site_fract_x
 _atom_site_fract_y
 _atom_site_fract_z
 _atom_site_fract_occupancy
 Ag  Ag1  1  -0.00000  0.00000  0.50000  1
 Ag  Ag2  1  0.50000  0.00000  0.50000  1
 Ag  Ag3  1  0.50000  0.00000  0.00000  1
 Ag  Ag4  1  0.00000  0.50000  0.50000  1
 O  O1  1  0.91685  0.81207  0.94767  1
 O  O2  1  0.82341  0.44767  0.31207  1
 O  O3  1  0.58315  0.55233  0.68793  1
 O  O4  1  0.32341  0.81207  0.94767  1
 O  O5  1  0.08315  0.18793  0.05233  1
 O  O6  1  0.17659  0.55233  0.68793  1
 O  O7  1  0.41685  0.44767  0.31207  1
 O  O8  1  0.25000  0.40705  0.09295  1
 O  O9  1  0.91660  0.85622  0.31058  1
 O  O10  1  0.75000  0.59295  0.90705  1
 O  O11  1  0.41660  0.81058  0.35622  1
 O  O12  1  0.58340  0.18942  0.64378  1
 O  O13  1  0.67659  0.18793  0.05233  1
 O  O14  1  0.08340  0.14378  0.68942  1
 Te  Te1  1  0.50000  0.50000  -0.00000  1
 Te  Te2  1  0.00000  0.00000  0.00000  1
 Te  Te3  1  0.50000  0.50000  0.50000  1
 Te  Te4  1  0.00000  0.50000  0.00000  1
