CIF file written using JARVIS-Tools package.
data_Ce2C3
_symmetry_space_group_name_H-M  'I-43d'
_cell_length_a       7.26813
_cell_length_b       7.26813
_cell_length_c       7.26813
_cell_angle_alpha    109.471
_cell_angle_beta     109.471
_cell_angle_gamma    109.471

_symmetry_Int_Tables_number  220
_chemical_formula_structural  Ce2C3
_chemical_formula_sum  Ce8C2
_cell_volume  295.55987772265445
_cell_formula_units_Z  4
loop_
  _symmetry_equiv_pos_site_id
 _symmetry_equiv_pos_as_xyz
 1  'x, y, z'
loop_
 _atom_site_type_symbol
 _atom_site_label
 _atom_site_symmetry_multiplicity
 _atom_site_fract_x
 _atom_site_fract_y
 _atom_site_fract_z
 _atom_site_fract_occupancy
 C  C1  1  0.04348  0.75000  0.79348  1
 C  C2  1  0.75000  0.95652  0.20652  1
 C  C3  1  0.29348  0.25000  0.54348  1
 C  C4  1  0.54348  0.29348  0.25000  1
 C  C5  1  0.20652  0.75000  0.95652  1
 C  C6  1  0.95652  0.20652  0.75000  1
 C  C7  1  0.25000  0.70652  0.45652  1
 C  C8  1  0.70652  0.45652  0.25000  1
 C  C9  1  0.75000  0.79348  0.04348  1
 C  C10  1  0.45652  0.25000  0.70652  1
 C  C11  1  0.79348  0.04348  0.75000  1
 C  C12  1  0.25000  0.54348  0.29348  1
 Ce  Ce1  1  0.90069  0.50000  0.00000  1
 Ce  Ce2  1  0.59931  0.59931  0.59931  1
 Ce  Ce3  1  0.40069  0.50000  0.00000  1
 Ce  Ce4  1  0.50000  0.00000  0.40069  1
 Ce  Ce5  1  0.00000  0.40069  0.50000  1
 Ce  Ce6  1  0.50000  0.00000  0.90069  1
 Ce  Ce7  1  0.00000  0.90069  0.50000  1
 Ce  Ce8  1  0.09931  0.09931  0.09931  1
