CIF file written using JARVIS-Tools package.
data_PaP2
_symmetry_space_group_name_H-M  'P4/nmm'
_cell_length_a       3.87725
_cell_length_b       3.87725
_cell_length_c       7.90674
_cell_angle_alpha    90
_cell_angle_beta     90
_cell_angle_gamma    90

_symmetry_Int_Tables_number  129
_chemical_formula_structural  PaP2
_chemical_formula_sum  Pa2P4
_cell_volume  118.86244292186298
_cell_formula_units_Z  2
loop_
  _symmetry_equiv_pos_site_id
 _symmetry_equiv_pos_as_xyz
 1  'x, y, z'
loop_
 _atom_site_type_symbol
 _atom_site_label
 _atom_site_symmetry_multiplicity
 _atom_site_fract_x
 _atom_site_fract_y
 _atom_site_fract_z
 _atom_site_fract_occupancy
 P  P1  1  0.50000  0.00000  0.36086  1
 P  P2  1  0.00000  0.50000  0.63914  1
 P  P3  1  0.50000  0.50000  0.00000  1
 P  P4  1  0.00000  0.00000  0.00000  1
 Pa  Pa1  1  0.50000  0.00000  0.72199  1
 Pa  Pa2  1  0.00000  0.50000  0.27801  1
