CIF file written using JARVIS-Tools package.
data_NaAlPO4F
_symmetry_space_group_name_H-M  'C2/c'
_cell_length_a       5.25398
_cell_length_b       5.25398
_cell_length_c       6.93457
_cell_angle_alpha    105.307
_cell_angle_beta     105.307
_cell_angle_gamma    104.292

_symmetry_Int_Tables_number  15
_chemical_formula_structural  NaAlPO4F
_chemical_formula_sum  Na2Al2P2O8F2
_cell_volume  167.45667823857715
_cell_formula_units_Z  2
loop_
  _symmetry_equiv_pos_site_id
 _symmetry_equiv_pos_as_xyz
 1  'x, y, z'
loop_
 _atom_site_type_symbol
 _atom_site_label
 _atom_site_symmetry_multiplicity
 _atom_site_fract_x
 _atom_site_fract_y
 _atom_site_fract_z
 _atom_site_fract_occupancy
 Al  Al1  1  0.00000  0.00000  0.50000  1
 Al  Al2  1  0.00000  0.00000  0.00000  1
 F  F1  1  0.92946  0.07054  0.25000  1
 F  F2  1  0.07054  0.92946  0.75000  1
 Na  Na1  1  0.33205  0.66795  0.75000  1
 Na  Na2  1  0.66795  0.33205  0.25000  1
 O  O1  1  0.30483  0.88577  0.12230  1
 O  O2  1  0.11423  0.69517  0.37770  1
 O  O3  1  0.23858  0.37892  0.09693  1
 O  O4  1  0.62108  0.76142  0.40307  1
 O  O5  1  0.76142  0.62108  0.90307  1
 O  O6  1  0.37892  0.23858  0.59693  1
 O  O7  1  0.69517  0.11423  0.87770  1
 O  O8  1  0.88577  0.30483  0.62230  1
 P  P1  1  0.68281  0.31719  0.75000  1
 P  P2  1  0.31719  0.68281  0.25000  1
