CIF file written using JARVIS-Tools package.
data_Nb5Si3
_symmetry_space_group_name_H-M  'I4/mcm'
_cell_length_a       5.12035
_cell_length_b       7.59844
_cell_length_c       7.59844
_cell_angle_alpha    83.4815
_cell_angle_beta     70.3098
_cell_angle_gamma    70.3098

_symmetry_Int_Tables_number  140
_chemical_formula_structural  Nb5Si3
_chemical_formula_sum  Nb0Si6
_cell_volume  262.06867842760676
_cell_formula_units_Z  2
loop_
  _symmetry_equiv_pos_site_id
 _symmetry_equiv_pos_as_xyz
 1  'x, y, z'
loop_
 _atom_site_type_symbol
 _atom_site_label
 _atom_site_symmetry_multiplicity
 _atom_site_fract_x
 _atom_site_fract_y
 _atom_site_fract_z
 _atom_site_fract_occupancy
 Nb  Nb1  1  0.57614  0.70404  0.14368  1
 Nb  Nb2  1  0.71982  0.85632  0.70404  1
 Nb  Nb3  1  0.42386  0.29596  0.85632  1
 Nb  Nb4  1  0.25000  0.50000  0.50000  1
 Nb  Nb5  1  0.92386  0.85632  0.29596  1
 Nb  Nb6  1  0.78018  0.29596  0.14368  1
 Nb  Nb7  1  0.28018  0.14368  0.29596  1
 Nb  Nb8  1  0.07614  0.14368  0.70404  1
 Nb  Nb9  1  0.21982  0.70404  0.85632  1
 Nb  Nb10  1  0.75000  0.50000  0.50000  1
 Si  Si1  1  0.16474  0.50000  0.17052  1
 Si  Si2  1  0.25000  0.00000  -0.00000  1
 Si  Si3  1  0.75000  0.00000  0.00000  1
 Si  Si4  1  0.66474  0.17052  0.50000  1
 Si  Si5  1  0.33526  0.82948  0.50000  1
 Si  Si6  1  0.83526  0.50000  0.82948  1
