CIF file written using JARVIS-Tools package.
data_CaGa4
_symmetry_space_group_name_H-M  'I4/mmm'
_cell_length_a       4.3776
_cell_length_b       4.3776
_cell_length_c       6.16957
_cell_angle_alpha    110.78
_cell_angle_beta     110.78
_cell_angle_gamma    89.9999

_symmetry_Int_Tables_number  139
_chemical_formula_structural  CaGa4
_chemical_formula_sum  CaGa4
_cell_volume  102.27184405031456
_cell_formula_units_Z  1
loop_
  _symmetry_equiv_pos_site_id
 _symmetry_equiv_pos_as_xyz
 1  'x, y, z'
loop_
 _atom_site_type_symbol
 _atom_site_label
 _atom_site_symmetry_multiplicity
 _atom_site_fract_x
 _atom_site_fract_y
 _atom_site_fract_z
 _atom_site_fract_occupancy
 Ca  Ca1  1  0.00000  0.00000  0.00000  1
 Ga  Ga1  1  0.75000  0.25000  0.50000  1
 Ga  Ga2  1  0.25000  0.75000  0.50000  1
 Ga  Ga3  1  0.38482  0.38482  0.76964  1
 Ga  Ga4  1  0.61518  0.61518  0.23036  1
