CIF file written using JARVIS-Tools package.
data_KLiSO4
_symmetry_space_group_name_H-M  'P6_3'
_cell_length_a       5.11405
_cell_length_b       5.11405
_cell_length_c       8.70587
_cell_angle_alpha    90
_cell_angle_beta     90
_cell_angle_gamma    120

_symmetry_Int_Tables_number  173
_chemical_formula_structural  KLiSO4
_chemical_formula_sum  K2Li2S2O8
_cell_volume  197.1847326825655
_cell_formula_units_Z  2
loop_
  _symmetry_equiv_pos_site_id
 _symmetry_equiv_pos_as_xyz
 1  'x, y, z'
loop_
 _atom_site_type_symbol
 _atom_site_label
 _atom_site_symmetry_multiplicity
 _atom_site_fract_x
 _atom_site_fract_y
 _atom_site_fract_z
 _atom_site_fract_occupancy
 K  K1  1  0.00000  0.00000  0.98977  1
 K  K2  1  0.00000  0.00000  0.48977  1
 Li  Li1  1  0.33333  0.66667  0.80326  1
 Li  Li2  1  0.66667  0.33333  0.30326  1
 O  O1  1  0.33755  0.94332  0.24756  1
 O  O2  1  0.94332  0.60576  0.74756  1
 O  O3  1  0.33333  0.66667  0.02191  1
 O  O4  1  0.60576  0.66245  0.24756  1
 O  O5  1  0.66667  0.33333  0.52191  1
 O  O6  1  0.05668  0.39424  0.24756  1
 O  O7  1  0.66245  0.05668  0.74756  1
 O  O8  1  0.39424  0.33755  0.74756  1
 S  S1  1  0.33333  0.66667  0.19236  1
 S  S2  1  0.66667  0.33333  0.69236  1
