CIF file written using JARVIS-Tools package.
data_HfCuSi
_symmetry_space_group_name_H-M  'Pnma'
_cell_length_a       3.90744
_cell_length_b       6.4602
_cell_length_c       7.30108
_cell_angle_alpha    90
_cell_angle_beta     90
_cell_angle_gamma    90

_symmetry_Int_Tables_number  62
_chemical_formula_structural  HfCuSi
_chemical_formula_sum  Hf4Cu4Si4
_cell_volume  184.3001573111418
_cell_formula_units_Z  4
loop_
  _symmetry_equiv_pos_site_id
 _symmetry_equiv_pos_as_xyz
 1  'x, y, z'
loop_
 _atom_site_type_symbol
 _atom_site_label
 _atom_site_symmetry_multiplicity
 _atom_site_fract_x
 _atom_site_fract_y
 _atom_site_fract_z
 _atom_site_fract_occupancy
 Cu  Cu1  1  0.75000  0.83165  0.57700  1
 Cu  Cu2  1  0.25000  0.16835  0.42300  1
 Cu  Cu3  1  0.75000  0.33165  0.92300  1
 Cu  Cu4  1  0.25000  0.66835  0.07700  1
 Hf  Hf1  1  0.25000  0.51132  0.69164  1
 Hf  Hf2  1  0.75000  0.48868  0.30836  1
 Hf  Hf3  1  0.25000  0.01132  0.80836  1
 Hf  Hf4  1  0.75000  0.98868  0.19164  1
 Si  Si1  1  0.25000  0.27720  0.10261  1
 Si  Si2  1  0.75000  0.72280  0.89739  1
 Si  Si3  1  0.25000  0.77720  0.39739  1
 Si  Si4  1  0.75000  0.22280  0.60261  1
