CIF file written using JARVIS-Tools package.
data_AsBr3
_symmetry_space_group_name_H-M  'P2_12_12_1'
_cell_length_a       4.12298
_cell_length_b       10.2143
_cell_length_c       12.2106
_cell_angle_alpha    90
_cell_angle_beta     90
_cell_angle_gamma    90

_symmetry_Int_Tables_number  19
_chemical_formula_structural  AsBr3
_chemical_formula_sum  As4Br2
_cell_volume  514.228623741576
_cell_formula_units_Z  4
loop_
  _symmetry_equiv_pos_site_id
 _symmetry_equiv_pos_as_xyz
 1  'x, y, z'
loop_
 _atom_site_type_symbol
 _atom_site_label
 _atom_site_symmetry_multiplicity
 _atom_site_fract_x
 _atom_site_fract_y
 _atom_site_fract_z
 _atom_site_fract_occupancy
 As  As1  1  0.49105  0.30372  0.28871  1
 As  As2  1  -0.00895  0.19628  0.71129  1
 As  As3  1  0.50895  0.80372  0.21129  1
 As  As4  1  0.00895  0.69628  0.78871  1
 Br  Br1  1  0.77985  0.13558  0.38441  1
 Br  Br2  1  0.27985  0.36442  0.61559  1
 Br  Br3  1  0.22015  0.63558  0.11559  1
 Br  Br4  1  0.72015  0.86442  0.88441  1
 Br  Br5  1  0.75849  0.48808  0.36866  1
 Br  Br6  1  0.25849  0.01192  0.63134  1
 Br  Br7  1  0.24151  0.98808  0.13134  1
 Br  Br8  1  0.74151  0.51192  0.86866  1
 Br  Br9  1  0.78225  0.30059  0.11807  1
 Br  Br10  1  0.28225  0.19941  0.88193  1
 Br  Br11  1  0.21775  0.80059  0.38193  1
 Br  Br12  1  0.71775  0.69941  0.61807  1
