CIF file written using JARVIS-Tools package.
data_Si3Os2
_symmetry_space_group_name_H-M  'Pbcn'
_cell_length_a       5.66249
_cell_length_b       9.05799
_cell_length_c       11.3183
_cell_angle_alpha    90
_cell_angle_beta     90
_cell_angle_gamma    90

_symmetry_Int_Tables_number  60
_chemical_formula_structural  Si3Os2
_chemical_formula_sum  Si24Os6
_cell_volume  580.5217391768274
_cell_formula_units_Z  8
loop_
  _symmetry_equiv_pos_site_id
 _symmetry_equiv_pos_as_xyz
 1  'x, y, z'
loop_
 _atom_site_type_symbol
 _atom_site_label
 _atom_site_symmetry_multiplicity
 _atom_site_fract_x
 _atom_site_fract_y
 _atom_site_fract_z
 _atom_site_fract_occupancy
 Os  Os1  1  0.76100  0.81328  0.24458  1
 Os  Os2  1  0.73900  0.81328  0.75542  1
 Os  Os3  1  0.76100  0.31328  0.25542  1
 Os  Os4  1  0.23900  0.68672  0.74458  1
 Os  Os5  1  0.23900  0.18672  0.75542  1
 Os  Os6  1  0.73900  0.31328  0.74458  1
 Os  Os7  1  0.75000  0.96338  0.00000  1
 Os  Os8  1  0.26100  0.18672  0.24458  1
 Os  Os9  1  0.25000  0.03662  0.00000  1
 Os  Os10  1  0.75000  0.46338  0.50000  1
 Os  Os11  1  0.75000  0.42382  0.00000  1
 Os  Os12  1  0.25000  0.57618  0.00000  1
 Os  Os13  1  0.75000  0.92382  0.50000  1
 Os  Os14  1  0.26100  0.68672  0.25542  1
 Os  Os15  1  0.25000  0.07618  0.50000  1
 Os  Os16  1  0.25000  0.53662  0.50000  1
 Si  Si1  1  0.60191  0.60739  0.12976  1
 Si  Si2  1  0.89809  0.60739  0.87024  1
 Si  Si3  1  0.40797  0.43603  0.31849  1
 Si  Si4  1  0.90797  0.06397  0.18151  1
 Si  Si5  1  0.60191  0.10739  0.37024  1
 Si  Si6  1  0.39809  0.89261  0.62976  1
 Si  Si7  1  0.55421  0.20599  0.07417  1
 Si  Si8  1  0.05421  0.29401  0.42583  1
 Si  Si9  1  0.94579  0.20599  0.92583  1
 Si  Si10  1  0.44579  0.29401  0.57417  1
 Si  Si11  1  0.94579  0.70599  0.57417  1
 Si  Si12  1  0.05421  0.79401  0.07417  1
 Si  Si13  1  0.55421  0.70599  0.42583  1
 Si  Si14  1  0.39809  0.39261  0.87024  1
 Si  Si15  1  0.90797  0.56397  0.31849  1
 Si  Si16  1  0.59203  0.56397  0.68151  1
 Si  Si17  1  0.09203  0.93603  0.81849  1
 Si  Si18  1  0.44579  0.79401  0.92583  1
 Si  Si19  1  0.59203  0.06397  0.81849  1
 Si  Si20  1  0.09203  0.43603  0.68151  1
 Si  Si21  1  0.10191  0.39261  0.12976  1
 Si  Si22  1  0.89809  0.10739  0.62976  1
 Si  Si23  1  0.40797  0.93603  0.18151  1
 Si  Si24  1  0.10191  0.89261  0.37024  1
