CIF file written using JARVIS-Tools package.
data_TbCaF6
_symmetry_space_group_name_H-M  'P4_2/m'
_cell_length_a       5.26105
_cell_length_b       5.26105
_cell_length_c       7.91893
_cell_angle_alpha    90
_cell_angle_beta     90
_cell_angle_gamma    90

_symmetry_Int_Tables_number  84
_chemical_formula_structural  TbCaF6
_chemical_formula_sum  Tb2Ca2F2
_cell_volume  219.18570504906555
_cell_formula_units_Z  2
loop_
  _symmetry_equiv_pos_site_id
 _symmetry_equiv_pos_as_xyz
 1  'x, y, z'
loop_
 _atom_site_type_symbol
 _atom_site_label
 _atom_site_symmetry_multiplicity
 _atom_site_fract_x
 _atom_site_fract_y
 _atom_site_fract_z
 _atom_site_fract_occupancy
 Ca  Ca1  1  0.00000  0.00000  0.50000  1
 Ca  Ca2  1  0.00000  0.00000  0.00000  1
 F  F1  1  0.63094  0.28650  0.50000  1
 F  F2  1  0.71350  0.63094  0.00000  1
 F  F3  1  0.28650  0.36906  0.00000  1
 F  F4  1  0.36906  0.71350  0.50000  1
 F  F5  1  0.14773  0.28991  0.31871  1
 F  F6  1  0.71009  0.14773  0.81871  1
 F  F7  1  0.28991  0.85227  0.81871  1
 F  F8  1  0.85227  0.71009  0.31871  1
 F  F9  1  0.85227  0.71009  0.68129  1
 F  F10  1  0.28991  0.85227  0.18129  1
 F  F11  1  0.71009  0.14773  0.18129  1
 F  F12  1  0.14773  0.28991  0.68129  1
 Tb  Tb1  1  0.50000  0.50000  0.75000  1
 Tb  Tb2  1  0.50000  0.50000  0.25000  1
