CIF file written using JARVIS-Tools package.
data_YZnGe
_symmetry_space_group_name_H-M  'P6_3/mmc'
_cell_length_a       4.2334
_cell_length_b       4.2334
_cell_length_c       15.7351
_cell_angle_alpha    90
_cell_angle_beta     90
_cell_angle_gamma    120

_symmetry_Int_Tables_number  194
_chemical_formula_structural  YZnGe
_chemical_formula_sum  Y4Zn4Ge4
_cell_volume  244.21930434045717
_cell_formula_units_Z  4
loop_
  _symmetry_equiv_pos_site_id
 _symmetry_equiv_pos_as_xyz
 1  'x, y, z'
loop_
 _atom_site_type_symbol
 _atom_site_label
 _atom_site_symmetry_multiplicity
 _atom_site_fract_x
 _atom_site_fract_y
 _atom_site_fract_z
 _atom_site_fract_occupancy
 Ge  Ge1  1  0.66667  0.33333  0.88731  1
 Ge  Ge2  1  0.66667  0.33333  0.61269  1
 Ge  Ge3  1  0.33333  0.66667  0.11269  1
 Ge  Ge4  1  0.33333  0.66667  0.38731  1
 Y  Y1  1  0.00000  0.00000  0.25000  1
 Y  Y2  1  0.00000  0.00000  0.75000  1
 Y  Y3  1  0.00000  0.00000  0.50000  1
 Y  Y4  1  0.00000  0.00000  0.00000  1
 Zn  Zn1  1  0.66667  0.33333  0.14894  1
 Zn  Zn2  1  0.66667  0.33333  0.35106  1
 Zn  Zn3  1  0.33333  0.66667  0.85106  1
 Zn  Zn4  1  0.33333  0.66667  0.64894  1
