CIF file written using JARVIS-Tools package.
data_HoSiRu
_symmetry_space_group_name_H-M  'Pnma'
_cell_length_a       4.33793
_cell_length_b       6.96525
_cell_length_c       7.08725
_cell_angle_alpha    90
_cell_angle_beta     90
_cell_angle_gamma    90

_symmetry_Int_Tables_number  62
_chemical_formula_structural  HoSiRu
_chemical_formula_sum  Ho4Si4Ru4
_cell_volume  214.13931642071265
_cell_formula_units_Z  4
loop_
  _symmetry_equiv_pos_site_id
 _symmetry_equiv_pos_as_xyz
 1  'x, y, z'
loop_
 _atom_site_type_symbol
 _atom_site_label
 _atom_site_symmetry_multiplicity
 _atom_site_fract_x
 _atom_site_fract_y
 _atom_site_fract_z
 _atom_site_fract_occupancy
 Ho  Ho1  1  0.25000  0.98501  0.81327  1
 Ho  Ho2  1  0.75000  0.01499  0.18673  1
 Ho  Ho3  1  0.25000  0.48501  0.68673  1
 Ho  Ho4  1  0.75000  0.51499  0.31327  1
 Ru  Ru1  1  0.75000  0.84541  0.56684  1
 Ru  Ru2  1  0.25000  0.15459  0.43316  1
 Ru  Ru3  1  0.75000  0.34541  0.93316  1
 Ru  Ru4  1  0.25000  0.65459  0.06684  1
 Si  Si1  1  0.25000  0.30344  0.10641  1
 Si  Si2  1  0.75000  0.69656  0.89359  1
 Si  Si3  1  0.25000  0.80344  0.39359  1
 Si  Si4  1  0.75000  0.19656  0.60641  1
