CIF file written using JARVIS-Tools package.
data_HfMnSi
_symmetry_space_group_name_H-M  'Pnma'
_cell_length_a       3.76344
_cell_length_b       6.40314
_cell_length_c       7.42639
_cell_angle_alpha    90
_cell_angle_beta     90
_cell_angle_gamma    90

_symmetry_Int_Tables_number  62
_chemical_formula_structural  HfMnSi
_chemical_formula_sum  Hf4Mn4Si4
_cell_volume  178.95977968824317
_cell_formula_units_Z  4
loop_
  _symmetry_equiv_pos_site_id
 _symmetry_equiv_pos_as_xyz
 1  'x, y, z'
loop_
 _atom_site_type_symbol
 _atom_site_label
 _atom_site_symmetry_multiplicity
 _atom_site_fract_x
 _atom_site_fract_y
 _atom_site_fract_z
 _atom_site_fract_occupancy
 Hf  Hf1  1  0.25000  0.51962  0.68394  1
 Hf  Hf2  1  0.75000  0.48038  0.31606  1
 Hf  Hf3  1  0.25000  0.01962  0.81606  1
 Hf  Hf4  1  0.75000  0.98038  0.18394  1
 Mn  Mn1  1  0.75000  0.84639  0.56520  1
 Mn  Mn2  1  0.25000  0.15361  0.43480  1
 Mn  Mn3  1  0.75000  0.34639  0.93480  1
 Mn  Mn4  1  0.25000  0.65361  0.06520  1
 Si  Si1  1  0.25000  0.28316  0.11710  1
 Si  Si2  1  0.75000  0.71684  0.88290  1
 Si  Si3  1  0.25000  0.78316  0.38290  1
 Si  Si4  1  0.75000  0.21684  0.61710  1
