CIF file written using JARVIS-Tools package.
data_Hf3Sb
_symmetry_space_group_name_H-M  'I-4'
_cell_length_a       5.69153
_cell_length_b       8.41649
_cell_length_c       8.41649
_cell_angle_alpha    83.4354
_cell_angle_beta     70.2377
_cell_angle_gamma    70.2377

_symmetry_Int_Tables_number  82
_chemical_formula_structural  Hf3Sb
_chemical_formula_sum  Hf2Sb4
_cell_volume  357.0811235063103
_cell_formula_units_Z  4
loop_
  _symmetry_equiv_pos_site_id
 _symmetry_equiv_pos_as_xyz
 1  'x, y, z'
loop_
 _atom_site_type_symbol
 _atom_site_label
 _atom_site_symmetry_multiplicity
 _atom_site_fract_x
 _atom_site_fract_y
 _atom_site_fract_z
 _atom_site_fract_occupancy
 Hf  Hf1  1  0.32735  0.67007  0.62409  1
 Hf  Hf2  1  0.04857  0.62409  0.32993  1
 Hf  Hf3  1  0.00258  0.37591  0.67007  1
 Hf  Hf4  1  0.62150  0.32993  0.37591  1
 Hf  Hf5  1  0.95188  0.02844  0.59846  1
 Hf  Hf6  1  0.44966  0.59846  0.97156  1
 Hf  Hf7  1  0.01968  0.40154  0.02844  1
 Hf  Hf8  1  0.57878  0.97156  0.40154  1
 Hf  Hf9  1  0.11857  0.97715  0.18735  1
 Hf  Hf10  1  0.69408  0.18735  0.02285  1
 Hf  Hf11  1  0.90428  0.81265  0.97715  1
 Hf  Hf12  1  0.28307  0.02285  0.81265  1
 Sb  Sb1  1  0.18385  0.25787  0.32237  1
 Sb  Sb2  1  0.49378  0.32237  0.74213  1
 Sb  Sb3  1  0.55828  0.67763  0.25787  1
 Sb  Sb4  1  0.76409  0.74213  0.67763  1
