CIF file written using JARVIS-Tools package.
data_Yb2Tl
_symmetry_space_group_name_H-M  'Pnma'
_cell_length_a       5.20906
_cell_length_b       7.06626
_cell_length_c       9.69201
_cell_angle_alpha    90
_cell_angle_beta     90
_cell_angle_gamma    90

_symmetry_Int_Tables_number  62
_chemical_formula_structural  Yb2Tl
_chemical_formula_sum  Yb8Tl4
_cell_volume  356.748777653936
_cell_formula_units_Z  4
loop_
  _symmetry_equiv_pos_site_id
 _symmetry_equiv_pos_as_xyz
 1  'x, y, z'
loop_
 _atom_site_type_symbol
 _atom_site_label
 _atom_site_symmetry_multiplicity
 _atom_site_fract_x
 _atom_site_fract_y
 _atom_site_fract_z
 _atom_site_fract_occupancy
 Tl  Tl1  1  0.25000  0.22612  0.60936  1
 Tl  Tl2  1  0.75000  0.27388  0.10936  1
 Tl  Tl3  1  0.25000  0.72612  0.89064  1
 Tl  Tl4  1  0.75000  0.77388  0.39064  1
 Yb  Yb1  1  0.25000  0.67213  0.56843  1
 Yb  Yb2  1  0.75000  0.32787  0.43157  1
 Yb  Yb3  1  0.75000  0.96933  0.69964  1
 Yb  Yb4  1  0.25000  0.03067  0.30036  1
 Yb  Yb5  1  0.25000  0.17213  0.93157  1
 Yb  Yb6  1  0.75000  0.82787  0.06843  1
 Yb  Yb7  1  0.75000  0.46933  0.80036  1
 Yb  Yb8  1  0.25000  0.53067  0.19964  1
