CIF file written using JARVIS-Tools package.
data_Na2LiAlF6
_symmetry_space_group_name_H-M  'P2_1/c'
_cell_length_a       5.26921
_cell_length_b       5.38333
_cell_length_c       9.14473
_cell_angle_alpha    90
_cell_angle_beta     125.023
_cell_angle_gamma    90

_symmetry_Int_Tables_number  14
_chemical_formula_structural  Na2LiAlF6
_chemical_formula_sum  Na4Li2Al2F2
_cell_volume  212.4265014578866
_cell_formula_units_Z  2
loop_
  _symmetry_equiv_pos_site_id
 _symmetry_equiv_pos_as_xyz
 1  'x, y, z'
loop_
 _atom_site_type_symbol
 _atom_site_label
 _atom_site_symmetry_multiplicity
 _atom_site_fract_x
 _atom_site_fract_y
 _atom_site_fract_z
 _atom_site_fract_occupancy
 Al  Al1  1  0.50000  0.00000  -0.00000  1
 Al  Al2  1  0.50000  0.50000  0.50000  1
 F  F1  1  0.81958  0.69418  0.54001  1
 F  F2  1  0.34367  0.02202  0.76306  1
 F  F3  1  0.73350  0.27811  0.04340  1
 F  F4  1  0.65633  0.97798  0.23694  1
 F  F5  1  0.65633  0.52202  0.73694  1
 F  F6  1  0.34367  0.47798  0.26306  1
 F  F7  1  0.73350  0.22189  0.54340  1
 F  F8  1  0.81958  0.80582  0.04001  1
 F  F9  1  0.26650  0.72189  0.95660  1
 F  F10  1  0.18042  0.19418  0.95999  1
 F  F11  1  0.26650  0.77811  0.45660  1
 F  F12  1  0.18042  0.30582  0.45999  1
 Li  Li1  1  0.00000  0.50000  0.00000  1
 Li  Li2  1  0.00000  0.00000  0.50000  1
 Na  Na1  1  0.23950  0.45461  0.74981  1
 Na  Na2  1  0.76050  0.54539  0.25019  1
 Na  Na3  1  0.23950  0.04539  0.24981  1
 Na  Na4  1  0.76050  0.95461  0.75019  1
