CIF file written using JARVIS-Tools package.
data_Sc2VB2Ir5
_symmetry_space_group_name_H-M  'P4/mbm'
_cell_length_a       9.29621
_cell_length_b       9.29621
_cell_length_c       3.16045
_cell_angle_alpha    90
_cell_angle_beta     90
_cell_angle_gamma    90

_symmetry_Int_Tables_number  127
_chemical_formula_structural  Sc2VB2Ir5
_chemical_formula_sum  Sc4V2B4Ir0
_cell_volume  273.1245771927353
_cell_formula_units_Z  2
loop_
  _symmetry_equiv_pos_site_id
 _symmetry_equiv_pos_as_xyz
 1  'x, y, z'
loop_
 _atom_site_type_symbol
 _atom_site_label
 _atom_site_symmetry_multiplicity
 _atom_site_fract_x
 _atom_site_fract_y
 _atom_site_fract_z
 _atom_site_fract_occupancy
 B  B1  1  0.87773  0.62227  0.00000  1
 B  B2  1  0.12227  0.37773  0.00000  1
 B  B3  1  0.62227  0.12227  0.00000  1
 B  B4  1  0.37773  0.87773  0.00000  1
 Ir  Ir1  1  0.92861  0.78495  0.50000  1
 Ir  Ir2  1  0.00000  0.50000  0.50000  1
 Ir  Ir3  1  0.28495  0.42861  0.50000  1
 Ir  Ir4  1  0.42861  0.71505  0.50000  1
 Ir  Ir5  1  0.57139  0.28495  0.50000  1
 Ir  Ir6  1  0.71505  0.57139  0.50000  1
 Ir  Ir7  1  0.50000  0.00000  0.50000  1
 Ir  Ir8  1  0.07139  0.21505  0.50000  1
 Ir  Ir9  1  0.78495  0.07139  0.50000  1
 Ir  Ir10  1  0.21505  0.92861  0.50000  1
 Sc  Sc1  1  0.67609  0.82391  0.00000  1
 Sc  Sc2  1  0.32391  0.17609  0.00000  1
 Sc  Sc3  1  0.82391  0.32391  0.00000  1
 Sc  Sc4  1  0.17609  0.67609  0.00000  1
 V  V1  1  0.50000  0.50000  0.00000  1
 V  V2  1  0.00000  0.00000  0.00000  1
