CIF file written using JARVIS-Tools package.
data_H4NF
_symmetry_space_group_name_H-M  'P6_3mc'
_cell_length_a       4.45132
_cell_length_b       4.45132
_cell_length_c       7.19825
_cell_angle_alpha    90
_cell_angle_beta     90
_cell_angle_gamma    120

_symmetry_Int_Tables_number  186
_chemical_formula_structural  H4NF
_chemical_formula_sum  H8N2F2
_cell_volume  123.51988215231235
_cell_formula_units_Z  2
loop_
  _symmetry_equiv_pos_site_id
 _symmetry_equiv_pos_as_xyz
 1  'x, y, z'
loop_
 _atom_site_type_symbol
 _atom_site_label
 _atom_site_symmetry_multiplicity
 _atom_site_fract_x
 _atom_site_fract_y
 _atom_site_fract_z
 _atom_site_fract_occupancy
 F  F1  1  0.33333  0.66667  0.99735  1
 F  F2  1  0.66667  0.33333  0.49735  1
 H  H1  1  0.53791  0.07583  0.92319  1
 H  H2  1  0.53791  0.46209  0.92319  1
 H  H3  1  0.33333  0.66667  0.22855  1
 H  H4  1  0.66667  0.33333  0.72855  1
 H  H5  1  0.46209  0.53791  0.42319  1
 H  H6  1  0.92417  0.46209  0.92319  1
 H  H7  1  0.46209  0.92417  0.42319  1
 H  H8  1  0.07583  0.53791  0.42319  1
 N  N1  1  0.33333  0.66667  0.37474  1
 N  N2  1  0.66667  0.33333  0.87474  1
