CIF file written using JARVIS-Tools package.
data_HoTlS2
_symmetry_space_group_name_H-M  'R-3m'
_cell_length_a       3.99316
_cell_length_b       3.99316
_cell_length_c       7.8315
_cell_angle_alpha    75.2298
_cell_angle_beta     75.2298
_cell_angle_gamma    60

_symmetry_Int_Tables_number  166
_chemical_formula_structural  HoTlS2
_chemical_formula_sum  HoTlS2
_cell_volume  103.35360791069863
_cell_formula_units_Z  1
loop_
  _symmetry_equiv_pos_site_id
 _symmetry_equiv_pos_as_xyz
 1  'x, y, z'
loop_
 _atom_site_type_symbol
 _atom_site_label
 _atom_site_symmetry_multiplicity
 _atom_site_fract_x
 _atom_site_fract_y
 _atom_site_fract_z
 _atom_site_fract_occupancy
 Ho  Ho1  1  0.00000  0.00000  0.00000  1
 S  S1  1  0.73272  0.73272  0.80184  1
 S  S2  1  0.26728  0.26728  0.19816  1
 Tl  Tl1  1  0.50000  0.50000  0.50000  1
