CIF file written using JARVIS-Tools package.
data_AlH3O3
_symmetry_space_group_name_H-M  'P1'
_cell_length_a       6.7013
_cell_length_b       7.2309
_cell_length_c       7.34203
_cell_angle_alpha    105.251
_cell_angle_beta     138.585
_cell_angle_gamma    93.2625

_symmetry_Int_Tables_number  1
_chemical_formula_structural  AlH3O3
_chemical_formula_sum  Al4H2O2
_cell_volume  208.2709021320455
_cell_formula_units_Z  4
loop_
  _symmetry_equiv_pos_site_id
 _symmetry_equiv_pos_as_xyz
 1  'x, y, z'
loop_
 _atom_site_type_symbol
 _atom_site_label
 _atom_site_symmetry_multiplicity
 _atom_site_fract_x
 _atom_site_fract_y
 _atom_site_fract_z
 _atom_site_fract_occupancy
 Al  Al1  1  0.45874  0.83326  0.28679  1
 Al  Al2  1  0.54441  0.15496  0.70472  1
 Al  Al3  1  0.95985  0.66241  0.61766  1
 Al  Al4  1  0.03708  0.32935  0.37638  1
 H  H1  1  0.81955  0.29049  0.53979  1
 H  H2  1  0.97836  0.96497  0.52837  1
 H  H3  1  0.62424  0.51169  0.93701  1
 H  H4  1  0.36178  0.48295  0.04814  1
 H  H5  1  0.17656  0.69488  0.45296  1
 H  H6  1  0.94082  0.94153  0.20000  1
 H  H7  1  0.30917  0.14701  0.24058  1
 H  H8  1  0.68394  0.83487  0.73679  1
 H  H9  1  0.50358  0.93210  0.01492  1
 H  H10  1  0.16464  0.38349  0.13968  1
 H  H11  1  0.82994  0.59923  0.85080  1
 H  H12  1  0.40460  0.18148  0.94920  1
 O  O1  1  0.00847  0.27152  0.08259  1
 O  O2  1  0.92221  0.92080  0.60669  1
 O  O3  1  0.08153  0.06855  0.39263  1
 O  O4  1  0.47991  0.55882  0.25844  1
 O  O5  1  0.50761  0.42351  0.72976  1
 O  O6  1  0.49521  0.86991  0.58165  1
 O  O7  1  0.50028  0.11758  0.40393  1
 O  O8  1  0.41791  0.80300  0.99615  1
 O  O9  1  0.57975  0.16930  0.99272  1
 O  O10  1  0.00010  0.58999  0.38004  1
 O  O11  1  0.99255  0.39711  0.60966  1
 O  O12  1  0.98089  0.71700  0.90950  1
