CIF file written using JARVIS-Tools package.
data_PrRuO3
_symmetry_space_group_name_H-M  'Pnma'
_cell_length_a       5.35859
_cell_length_b       5.97331
_cell_length_c       7.81734
_cell_angle_alpha    90
_cell_angle_beta     90
_cell_angle_gamma    90

_symmetry_Int_Tables_number  62
_chemical_formula_structural  PrRuO3
_chemical_formula_sum  Pr4Ru4O2
_cell_volume  250.2214334910749
_cell_formula_units_Z  4
loop_
  _symmetry_equiv_pos_site_id
 _symmetry_equiv_pos_as_xyz
 1  'x, y, z'
loop_
 _atom_site_type_symbol
 _atom_site_label
 _atom_site_symmetry_multiplicity
 _atom_site_fract_x
 _atom_site_fract_y
 _atom_site_fract_z
 _atom_site_fract_occupancy
 O  O1  1  0.68405  0.30230  0.04881  1
 O  O2  1  0.89891  0.53378  0.75000  1
 O  O3  1  0.81595  0.80230  0.45119  1
 O  O4  1  0.60109  0.03378  0.75000  1
 O  O5  1  0.10109  0.46622  0.25000  1
 O  O6  1  0.39891  0.96622  0.25000  1
 O  O7  1  0.18405  0.19770  0.54881  1
 O  O8  1  0.81595  0.80230  0.04881  1
 O  O9  1  0.31595  0.69770  0.95119  1
 O  O10  1  0.31595  0.69770  0.54881  1
 O  O11  1  0.18405  0.19770  0.95119  1
 O  O12  1  0.68405  0.30230  0.45119  1
 Pr  Pr1  1  0.97355  0.07440  0.25000  1
 Pr  Pr2  1  0.47355  0.42560  0.75000  1
 Pr  Pr3  1  0.52645  0.57440  0.25000  1
 Pr  Pr4  1  0.02645  0.92560  0.75000  1
 Ru  Ru1  1  0.50000  0.00000  0.00000  1
 Ru  Ru2  1  0.00000  0.50000  0.00000  1
 Ru  Ru3  1  0.00000  0.50000  0.50000  1
 Ru  Ru4  1  0.50000  0.00000  0.50000  1
