CIF file written using JARVIS-Tools package.
data_HfSiMo
_symmetry_space_group_name_H-M  'Pnma'
_cell_length_a       3.50473
_cell_length_b       6.9594
_cell_length_c       8.21382
_cell_angle_alpha    90
_cell_angle_beta     90
_cell_angle_gamma    90

_symmetry_Int_Tables_number  62
_chemical_formula_structural  HfSiMo
_chemical_formula_sum  Hf4Si4Mo4
_cell_volume  200.34196387828632
_cell_formula_units_Z  4
loop_
  _symmetry_equiv_pos_site_id
 _symmetry_equiv_pos_as_xyz
 1  'x, y, z'
loop_
 _atom_site_type_symbol
 _atom_site_label
 _atom_site_symmetry_multiplicity
 _atom_site_fract_x
 _atom_site_fract_y
 _atom_site_fract_z
 _atom_site_fract_occupancy
 Hf  Hf1  1  0.25000  0.54523  0.16689  1
 Hf  Hf2  1  0.75000  0.45477  0.83311  1
 Hf  Hf3  1  0.25000  0.04523  0.33311  1
 Hf  Hf4  1  0.75000  0.95477  0.66689  1
 Mo  Mo1  1  0.75000  0.86649  0.06249  1
 Mo  Mo2  1  0.25000  0.13351  0.93751  1
 Mo  Mo3  1  0.75000  0.36649  0.43751  1
 Mo  Mo4  1  0.25000  0.63351  0.56249  1
 Si  Si1  1  0.25000  0.75514  0.86275  1
 Si  Si2  1  0.75000  0.24486  0.13725  1
 Si  Si3  1  0.25000  0.25514  0.63725  1
 Si  Si4  1  0.75000  0.74486  0.36275  1
