CIF file written using JARVIS-Tools package.
data_CaAlH5
_symmetry_space_group_name_H-M  'P2_12_12_1'
_cell_length_a       4.43052
_cell_length_b       4.94972
_cell_length_c       12.2113
_cell_angle_alpha    90
_cell_angle_beta     90
_cell_angle_gamma    90

_symmetry_Int_Tables_number  19
_chemical_formula_structural  CaAlH5
_chemical_formula_sum  Ca4Al4H20
_cell_volume  267.79233947516235
_cell_formula_units_Z  4
loop_
  _symmetry_equiv_pos_site_id
 _symmetry_equiv_pos_as_xyz
 1  'x, y, z'
loop_
 _atom_site_type_symbol
 _atom_site_label
 _atom_site_symmetry_multiplicity
 _atom_site_fract_x
 _atom_site_fract_y
 _atom_site_fract_z
 _atom_site_fract_occupancy
 Al  Al1  1  0.30909  0.87612  0.41246  1
 Al  Al2  1  0.19091  0.12388  0.91246  1
 Al  Al3  1  0.69091  0.37612  0.08754  1
 Al  Al4  1  0.80909  0.62388  0.58754  1
 Ca  Ca1  1  0.77692  0.63846  0.84013  1
 Ca  Ca2  1  0.27692  0.86154  0.15987  1
 Ca  Ca3  1  0.22308  0.13846  0.65987  1
 Ca  Ca4  1  0.72308  0.36154  0.34013  1
 H  H1  1  0.47158  0.13112  0.01309  1
 H  H2  1  0.52842  0.63112  0.48691  1
 H  H3  1  0.63020  0.40772  0.67498  1
 H  H4  1  0.52718  0.62961  0.01618  1
 H  H5  1  -0.02842  0.36888  -0.01309  1
 H  H6  1  0.60165  0.87722  0.31658  1
 H  H7  1  0.17400  0.60408  0.34206  1
 H  H8  1  0.82600  0.10408  0.15794  1
 H  H9  1  0.67400  -0.10408  0.65794  1
 H  H10  1  0.02718  0.87039  0.98382  1
 H  H11  1  0.86980  0.59228  0.17498  1
 H  H12  1  0.02842  0.86888  0.51309  1
 H  H13  1  0.10165  0.62278  0.68342  1
 H  H14  1  0.89835  0.12278  0.81658  1
 H  H15  1  0.39835  0.37722  0.18342  1
 H  H16  1  0.13020  0.09228  0.32502  1
 H  H17  1  0.36980  -0.09228  0.82502  1
 H  H18  1  0.47282  0.12961  0.48382  1
 H  H19  1  0.97282  0.37039  0.51618  1
 H  H20  1  0.32600  0.39592  0.84206  1
