CIF file written using JARVIS-Tools package.
data_HgCl2
_symmetry_space_group_name_H-M  'Pnma'
_cell_length_a       4.32095
_cell_length_b       6.02241
_cell_length_c       12.6746
_cell_angle_alpha    90
_cell_angle_beta     90
_cell_angle_gamma    90

_symmetry_Int_Tables_number  62
_chemical_formula_structural  HgCl2
_chemical_formula_sum  Hg4Cl8
_cell_volume  329.82648144433597
_cell_formula_units_Z  4
loop_
  _symmetry_equiv_pos_site_id
 _symmetry_equiv_pos_as_xyz
 1  'x, y, z'
loop_
 _atom_site_type_symbol
 _atom_site_label
 _atom_site_symmetry_multiplicity
 _atom_site_fract_x
 _atom_site_fract_y
 _atom_site_fract_z
 _atom_site_fract_occupancy
 Cl  Cl1  1  0.30000  0.75000  0.98176  1
 Cl  Cl2  1  0.80000  0.25000  0.51824  1
 Cl  Cl3  1  0.70000  0.25000  0.01824  1
 Cl  Cl4  1  0.20000  0.75000  0.48176  1
 Cl  Cl5  1  0.63564  0.75000  0.27091  1
 Cl  Cl6  1  0.13564  0.25000  0.22909  1
 Cl  Cl7  1  0.36436  0.25000  0.72909  1
 Cl  Cl8  1  0.86436  0.75000  0.77091  1
 Hg  Hg1  1  0.53328  0.75000  0.62596  1
 Hg  Hg2  1  0.03328  0.25000  0.87404  1
 Hg  Hg3  1  0.46672  0.25000  0.37404  1
 Hg  Hg4  1  0.96672  0.75000  0.12596  1
