CIF file written using JARVIS-Tools package.
data_SrAs4Rh6
_symmetry_space_group_name_H-M  'P-6m2'
_cell_length_a       7.30699
_cell_length_b       7.30699
_cell_length_c       3.87732
_cell_angle_alpha    90
_cell_angle_beta     90
_cell_angle_gamma    120

_symmetry_Int_Tables_number  187
_chemical_formula_structural  SrAs4Rh6
_chemical_formula_sum  SrAs4Rh6
_cell_volume  179.2832792757506
_cell_formula_units_Z  1
loop_
  _symmetry_equiv_pos_site_id
 _symmetry_equiv_pos_as_xyz
 1  'x, y, z'
loop_
 _atom_site_type_symbol
 _atom_site_label
 _atom_site_symmetry_multiplicity
 _atom_site_fract_x
 _atom_site_fract_y
 _atom_site_fract_z
 _atom_site_fract_occupancy
 As  As1  1  0.38091  0.19045  0.50000  1
 As  As2  1  0.80955  0.61909  0.50000  1
 As  As3  1  0.33333  0.66667  0.00000  1
 As  As4  1  0.80955  0.19045  0.50000  1
 Rh  Rh1  1  0.20176  0.79824  0.50000  1
 Rh  Rh2  1  0.59648  0.79824  0.50000  1
 Rh  Rh3  1  0.93009  0.46504  0.00000  1
 Rh  Rh4  1  0.53496  0.06991  0.00000  1
 Rh  Rh5  1  0.53496  0.46504  0.00000  1
 Rh  Rh6  1  0.20176  0.40352  0.50000  1
 Sr  Sr1  1  0.00000  0.00000  0.00000  1
