CIF file written using JARVIS-Tools package.
data_Cu2Se
_symmetry_space_group_name_H-M  'P4_32_12'
_cell_length_a       4.30758
_cell_length_b       4.30758
_cell_length_c       10.9608
_cell_angle_alpha    90
_cell_angle_beta     90
_cell_angle_gamma    90

_symmetry_Int_Tables_number  96
_chemical_formula_structural  Cu2Se
_chemical_formula_sum  Cu8Se4
_cell_volume  203.38031004723777
_cell_formula_units_Z  4
loop_
  _symmetry_equiv_pos_site_id
 _symmetry_equiv_pos_as_xyz
 1  'x, y, z'
loop_
 _atom_site_type_symbol
 _atom_site_label
 _atom_site_symmetry_multiplicity
 _atom_site_fract_x
 _atom_site_fract_y
 _atom_site_fract_z
 _atom_site_fract_occupancy
 Cu  Cu1  1  0.10836  0.56807  0.33153  1
 Cu  Cu2  1  0.39164  0.06807  0.41847  1
 Cu  Cu3  1  0.93193  0.60836  0.08153  1
 Cu  Cu4  1  0.89164  0.43193  0.83153  1
 Cu  Cu5  1  0.43193  0.89164  0.16847  1
 Cu  Cu6  1  0.60836  0.93193  0.91847  1
 Cu  Cu7  1  0.06807  0.39164  0.58153  1
 Cu  Cu8  1  0.56807  0.10836  0.66847  1
 Se  Se1  1  0.39991  0.60009  0.75000  1
 Se  Se2  1  0.10009  0.10009  0.00000  1
 Se  Se3  1  0.89991  0.89991  0.50000  1
 Se  Se4  1  0.60009  0.39991  0.25000  1
