CIF file written using JARVIS-Tools package.
data_Hf2In5
_symmetry_space_group_name_H-M  'P4/mbm'
_cell_length_a       10.3769
_cell_length_b       10.3769
_cell_length_c       3.06254
_cell_angle_alpha    90
_cell_angle_beta     90
_cell_angle_gamma    90

_symmetry_Int_Tables_number  127
_chemical_formula_structural  Hf2In5
_chemical_formula_sum  Hf4In0
_cell_volume  329.7726813936484
_cell_formula_units_Z  2
loop_
  _symmetry_equiv_pos_site_id
 _symmetry_equiv_pos_as_xyz
 1  'x, y, z'
loop_
 _atom_site_type_symbol
 _atom_site_label
 _atom_site_symmetry_multiplicity
 _atom_site_fract_x
 _atom_site_fract_y
 _atom_site_fract_z
 _atom_site_fract_occupancy
 Hf  Hf1  1  0.32003  0.82003  0.50000  1
 Hf  Hf2  1  0.82003  0.67997  0.50000  1
 Hf  Hf3  1  0.17997  0.32003  0.50000  1
 Hf  Hf4  1  0.67997  0.17997  0.50000  1
 In  In1  1  0.43797  0.29183  0.00000  1
 In  In2  1  0.56203  0.70817  0.00000  1
 In  In3  1  0.70817  0.43797  0.00000  1
 In  In4  1  0.29183  0.56203  0.00000  1
 In  In5  1  0.50000  0.00000  0.00000  1
 In  In6  1  0.00000  0.50000  0.00000  1
 In  In7  1  0.20817  0.06203  0.00000  1
 In  In8  1  0.06203  0.79183  0.00000  1
 In  In9  1  0.93797  0.20817  0.00000  1
 In  In10  1  0.79183  0.93797  0.00000  1
