CIF file written using JARVIS-Tools package.
data_Tb2Ge2Ru
_symmetry_space_group_name_H-M  'C2/m'
_cell_length_a       4.28159
_cell_length_b       5.81187
_cell_length_c       9.28482
_cell_angle_alpha    82.1045
_cell_angle_beta     76.6694
_cell_angle_gamma    68.3862

_symmetry_Int_Tables_number  12
_chemical_formula_structural  Tb2Ge2Ru
_chemical_formula_sum  Tb4Ge4Ru2
_cell_volume  208.65995784329627
_cell_formula_units_Z  2
loop_
  _symmetry_equiv_pos_site_id
 _symmetry_equiv_pos_as_xyz
 1  'x, y, z'
loop_
 _atom_site_type_symbol
 _atom_site_label
 _atom_site_symmetry_multiplicity
 _atom_site_fract_x
 _atom_site_fract_y
 _atom_site_fract_z
 _atom_site_fract_occupancy
 Ge  Ge1  1  0.14625  0.77354  0.93397  1
 Ge  Ge2  1  0.85375  0.22646  0.06603  1
 Ge  Ge3  1  0.01389  0.34806  0.62415  1
 Ge  Ge4  1  0.98611  0.65194  0.37585  1
 Ru  Ru1  1  0.22695  0.41692  0.12918  1
 Ru  Ru2  1  0.77305  0.58308  0.87082  1
 Tb  Tb1  1  0.31620  0.75606  0.61154  1
 Tb  Tb2  1  0.68380  0.24394  0.38846  1
 Tb  Tb3  1  0.50150  0.17025  0.82674  1
 Tb  Tb4  1  0.49850  0.82975  0.17326  1
