CIF file written using JARVIS-Tools package.
data_OsN2
_symmetry_space_group_name_H-M  'Cmcm'
_cell_length_a       2.75318
_cell_length_b       3.21976
_cell_length_c       7.3383
_cell_angle_alpha    90
_cell_angle_beta     90
_cell_angle_gamma    115.312

_symmetry_Int_Tables_number  63
_chemical_formula_structural  OsN2
_chemical_formula_sum  Os2N4
_cell_volume  58.80544532760206
_cell_formula_units_Z  2
loop_
  _symmetry_equiv_pos_site_id
 _symmetry_equiv_pos_as_xyz
 1  'x, y, z'
loop_
 _atom_site_type_symbol
 _atom_site_label
 _atom_site_symmetry_multiplicity
 _atom_site_fract_x
 _atom_site_fract_y
 _atom_site_fract_z
 _atom_site_fract_occupancy
 N  N1  1  0.99475  0.98950  0.40922  1
 N  N2  1  0.00525  0.01050  0.59078  1
 N  N3  1  0.00525  0.01050  0.90922  1
 N  N4  1  0.99475  0.98950  0.09078  1
 Os  Os1  1  0.69239  0.38479  0.25000  1
 Os  Os2  1  0.30761  0.61521  0.75000  1
