CIF file written using JARVIS-Tools package.
data_HoGeRu
_symmetry_space_group_name_H-M  'Pnma'
_cell_length_a       4.41705
_cell_length_b       6.98327
_cell_length_c       7.22894
_cell_angle_alpha    90
_cell_angle_beta     90
_cell_angle_gamma    90

_symmetry_Int_Tables_number  62
_chemical_formula_structural  HoGeRu
_chemical_formula_sum  Ho4Ge4Ru4
_cell_volume  222.98009331852867
_cell_formula_units_Z  4
loop_
  _symmetry_equiv_pos_site_id
 _symmetry_equiv_pos_as_xyz
 1  'x, y, z'
loop_
 _atom_site_type_symbol
 _atom_site_label
 _atom_site_symmetry_multiplicity
 _atom_site_fract_x
 _atom_site_fract_y
 _atom_site_fract_z
 _atom_site_fract_occupancy
 Ge  Ge1  1  0.25000  0.79581  0.89359  1
 Ge  Ge2  1  0.75000  0.20419  0.10641  1
 Ge  Ge3  1  0.25000  0.29581  0.60641  1
 Ge  Ge4  1  0.75000  0.70419  0.39359  1
 Ho  Ho1  1  0.25000  0.48598  0.19197  1
 Ho  Ho2  1  0.75000  0.51402  0.80803  1
 Ho  Ho3  1  0.25000  0.98598  0.30803  1
 Ho  Ho4  1  0.75000  0.01402  0.69197  1
 Ru  Ru1  1  0.75000  0.84328  0.06334  1
 Ru  Ru2  1  0.25000  0.15672  0.93666  1
 Ru  Ru3  1  0.75000  0.34328  0.43666  1
 Ru  Ru4  1  0.25000  0.65672  0.56334  1
