CIF file written using JARVIS-Tools package.
data_MgFe2O4
_symmetry_space_group_name_H-M  'Fd-3m'
_cell_length_a       5.78141
_cell_length_b       5.78001
_cell_length_c       5.7825
_cell_angle_alpha    60.0025
_cell_angle_beta     59.9803
_cell_angle_gamma    60.0188

_symmetry_Int_Tables_number  227
_chemical_formula_structural  MgFe2O4
_chemical_formula_sum  Mg2Fe4O8
_cell_volume  136.6372896059797
_cell_formula_units_Z  2
loop_
  _symmetry_equiv_pos_site_id
 _symmetry_equiv_pos_as_xyz
 1  'x, y, z'
loop_
 _atom_site_type_symbol
 _atom_site_label
 _atom_site_symmetry_multiplicity
 _atom_site_fract_x
 _atom_site_fract_y
 _atom_site_fract_z
 _atom_site_fract_occupancy
 Fe  Fe1  1  0.50000  -0.00000  0.50000  1
 Fe  Fe2  1  -0.00000  -0.00000  0.50000  1
 Fe  Fe3  1  0.50000  0.50000  0.50000  1
 Fe  Fe4  1  0.50000  0.00000  -0.00000  1
 Mg  Mg1  1  0.87500  0.37500  0.87500  1
 Mg  Mg2  1  0.12500  0.62500  0.12500  1
 O  O1  1  0.73699  0.78853  0.73714  1
 O  O2  1  0.26267  0.76285  0.71147  1
 O  O3  1  0.26285  0.76267  0.26301  1
 O  O4  1  0.73733  0.23715  0.28853  1
 O  O5  1  0.71147  0.76301  0.26267  1
 O  O6  1  0.28853  0.23699  0.73733  1
 O  O7  1  0.73715  0.23733  0.73699  1
 O  O8  1  0.26301  0.21147  0.26286  1
