CIF file written using JARVIS-Tools package.
data_KFe2S3
_symmetry_space_group_name_H-M  'Cmcm'
_cell_length_a       5.14643
_cell_length_b       6.90704
_cell_length_c       6.90704
_cell_angle_alpha    102.37
_cell_angle_beta     90
_cell_angle_gamma    90

_symmetry_Int_Tables_number  63
_chemical_formula_structural  KFe2S3
_chemical_formula_sum  K2Fe4S6
_cell_volume  239.82158633635785
_cell_formula_units_Z  2
loop_
  _symmetry_equiv_pos_site_id
 _symmetry_equiv_pos_as_xyz
 1  'x, y, z'
loop_
 _atom_site_type_symbol
 _atom_site_label
 _atom_site_symmetry_multiplicity
 _atom_site_fract_x
 _atom_site_fract_y
 _atom_site_fract_z
 _atom_site_fract_occupancy
 Fe  Fe1  1  0.00000  0.85280  0.85280  1
 Fe  Fe2  1  0.50000  0.14720  0.14720  1
 Fe  Fe3  1  0.00000  0.14720  0.14720  1
 Fe  Fe4  1  0.50000  0.85280  0.85280  1
 K  K1  1  0.25000  0.32524  0.67476  1
 K  K2  1  0.75000  0.67476  0.32524  1
 S  S1  1  0.75000  0.17502  0.39593  1
 S  S2  1  0.25000  0.82498  0.60407  1
 S  S3  1  0.25000  0.39593  0.17502  1
 S  S4  1  0.75000  0.11283  0.88717  1
 S  S5  1  0.25000  0.88717  0.11283  1
 S  S6  1  0.75000  0.60407  0.82498  1
