CIF file written using JARVIS-Tools package.
data_SrIn4Pt
_symmetry_space_group_name_H-M  'Cmcm'
_cell_length_a       4.61045
_cell_length_b       7.60443
_cell_length_c       8.92906
_cell_angle_alpha    90
_cell_angle_beta     104.962
_cell_angle_gamma    90

_symmetry_Int_Tables_number  63
_chemical_formula_structural  SrIn4Pt
_chemical_formula_sum  Sr2In8Pt2
_cell_volume  302.43844286925537
_cell_formula_units_Z  2
loop_
  _symmetry_equiv_pos_site_id
 _symmetry_equiv_pos_as_xyz
 1  'x, y, z'
loop_
 _atom_site_type_symbol
 _atom_site_label
 _atom_site_symmetry_multiplicity
 _atom_site_fract_x
 _atom_site_fract_y
 _atom_site_fract_z
 _atom_site_fract_occupancy
 In  In1  1  0.68358  0.04854  0.36715  1
 In  In2  1  0.50000  0.50000  0.00000  1
 In  In3  1  0.31642  0.54854  0.63285  1
 In  In4  1  0.31642  0.95146  0.63285  1
 In  In5  1  0.68358  0.45146  0.36715  1
 In  In6  1  0.93374  0.75000  0.86748  1
 In  In7  1  0.06626  0.25000  0.13252  1
 In  In8  1  0.50000  0.00000  0.00000  1
 Pt  Pt1  1  0.22424  0.25000  0.44848  1
 Pt  Pt2  1  0.77576  0.75000  0.55152  1
 Sr  Sr1  1  0.87325  0.25000  0.74650  1
 Sr  Sr2  1  0.12675  0.75000  0.25350  1
