CIF file written using JARVIS-Tools package.
data_Te2Rh3
_symmetry_space_group_name_H-M  'Cmcm'
_cell_length_a       3.7839
_cell_length_b       6.57199
_cell_length_c       7.7967
_cell_angle_alpha    90
_cell_angle_beta     90
_cell_angle_gamma    106.731

_symmetry_Int_Tables_number  63
_chemical_formula_structural  Te2Rh3
_chemical_formula_sum  Te4Rh6
_cell_volume  185.67857827818787
_cell_formula_units_Z  2
loop_
  _symmetry_equiv_pos_site_id
 _symmetry_equiv_pos_as_xyz
 1  'x, y, z'
loop_
 _atom_site_type_symbol
 _atom_site_label
 _atom_site_symmetry_multiplicity
 _atom_site_fract_x
 _atom_site_fract_y
 _atom_site_fract_z
 _atom_site_fract_occupancy
 Rh  Rh1  1  0.46436  0.92871  0.75000  1
 Rh  Rh2  1  0.53564  0.07129  0.25000  1
 Rh  Rh3  1  0.33980  0.67960  0.06118  1
 Rh  Rh4  1  0.66020  0.32040  0.93882  1
 Rh  Rh5  1  0.66020  0.32040  0.56118  1
 Rh  Rh6  1  0.33980  0.67960  0.43882  1
 Te  Te1  1  0.00000  0.00000  0.00000  1
 Te  Te2  1  0.00000  0.00000  0.50000  1
 Te  Te3  1  0.25325  0.50650  0.75000  1
 Te  Te4  1  0.74675  0.49350  0.25000  1
