CIF file written using JARVIS-Tools package.
data_ZrCuSi
_symmetry_space_group_name_H-M  'Pnma'
_cell_length_a       3.95045
_cell_length_b       6.55395
_cell_length_c       7.32735
_cell_angle_alpha    90
_cell_angle_beta     90
_cell_angle_gamma    90

_symmetry_Int_Tables_number  62
_chemical_formula_structural  ZrCuSi
_chemical_formula_sum  Zr4Cu4Si4
_cell_volume  189.71277513017552
_cell_formula_units_Z  4
loop_
  _symmetry_equiv_pos_site_id
 _symmetry_equiv_pos_as_xyz
 1  'x, y, z'
loop_
 _atom_site_type_symbol
 _atom_site_label
 _atom_site_symmetry_multiplicity
 _atom_site_fract_x
 _atom_site_fract_y
 _atom_site_fract_z
 _atom_site_fract_occupancy
 Cu  Cu1  1  0.75000  0.82868  0.57723  1
 Cu  Cu2  1  0.25000  0.17132  0.42277  1
 Cu  Cu3  1  0.75000  0.32868  0.92277  1
 Cu  Cu4  1  0.25000  0.67132  0.07723  1
 Si  Si1  1  0.25000  0.27885  0.10024  1
 Si  Si2  1  0.75000  0.72115  0.89976  1
 Si  Si3  1  0.25000  0.77885  0.39976  1
 Si  Si4  1  0.75000  0.22115  0.60024  1
 Zr  Zr1  1  0.25000  0.50948  0.69419  1
 Zr  Zr2  1  0.75000  0.49052  0.30581  1
 Zr  Zr3  1  0.25000  0.00948  0.80581  1
 Zr  Zr4  1  0.75000  0.99052  0.19419  1
