CIF file written using JARVIS-Tools package.
data_BPd3
_symmetry_space_group_name_H-M  'Pnma'
_cell_length_a       4.89664
_cell_length_b       5.51563
_cell_length_c       7.6962
_cell_angle_alpha    90
_cell_angle_beta     90
_cell_angle_gamma    90

_symmetry_Int_Tables_number  62
_chemical_formula_structural  BPd3
_chemical_formula_sum  B4Pd2
_cell_volume  207.85962261233752
_cell_formula_units_Z  4
loop_
  _symmetry_equiv_pos_site_id
 _symmetry_equiv_pos_as_xyz
 1  'x, y, z'
loop_
 _atom_site_type_symbol
 _atom_site_label
 _atom_site_symmetry_multiplicity
 _atom_site_fract_x
 _atom_site_fract_y
 _atom_site_fract_z
 _atom_site_fract_occupancy
 B  B1  1  0.56529  0.11116  0.75000  1
 B  B2  1  0.06529  0.38884  0.25000  1
 B  B3  1  0.93471  0.61116  0.75000  1
 B  B4  1  0.43471  0.88884  0.25000  1
 Pd  Pd1  1  0.67583  0.81995  0.92827  1
 Pd  Pd2  1  0.17583  0.68005  0.07173  1
 Pd  Pd3  1  0.82417  0.31995  0.57173  1
 Pd  Pd4  1  0.32417  0.18005  0.42827  1
 Pd  Pd5  1  0.84143  0.03819  0.25000  1
 Pd  Pd6  1  0.34143  0.46181  0.75000  1
 Pd  Pd7  1  0.65857  0.53819  0.25000  1
 Pd  Pd8  1  0.15857  0.96181  0.75000  1
 Pd  Pd9  1  0.67583  0.81995  0.57173  1
 Pd  Pd10  1  0.17583  0.68005  0.42827  1
 Pd  Pd11  1  0.82417  0.31995  0.92827  1
 Pd  Pd12  1  0.32417  0.18005  0.07173  1
