CIF file written using JARVIS-Tools package.
data_Te2Mo3Se4
_symmetry_space_group_name_H-M  'P-6m2'
_cell_length_a       3.40439
_cell_length_b       3.40439
_cell_length_c       29.9225
_cell_angle_alpha    90
_cell_angle_beta     90
_cell_angle_gamma    120

_symmetry_Int_Tables_number  187
_chemical_formula_structural  Te2Mo3Se4
_chemical_formula_sum  Te2Mo3Se4
_cell_volume  300.33497446798685
_cell_formula_units_Z  1
loop_
  _symmetry_equiv_pos_site_id
 _symmetry_equiv_pos_as_xyz
 1  'x, y, z'
loop_
 _atom_site_type_symbol
 _atom_site_label
 _atom_site_symmetry_multiplicity
 _atom_site_fract_x
 _atom_site_fract_y
 _atom_site_fract_z
 _atom_site_fract_occupancy
 Mo  Mo1  1  0.33331  0.66662  0.11651  1
 Mo  Mo2  1  0.33331  0.66662  0.57746  1
 Mo  Mo3  1  0.66669  0.33337  0.34698  1
 Se  Se1  1  0.66664  0.33329  0.06150  1
 Se  Se2  1  0.66665  0.33329  0.52235  1
 Se  Se3  1  0.66665  0.33329  0.17162  1
 Se  Se4  1  0.66664  0.33329  0.63246  1
 Te  Te1  1  0.33336  0.66671  0.40966  1
 Te  Te2  1  0.33336  0.66671  0.28431  1
