CIF file written using JARVIS-Tools package.
data_LuGeRu
_symmetry_space_group_name_H-M  'Pnma'
_cell_length_a       4.35598
_cell_length_b       6.87472
_cell_length_c       7.2196
_cell_angle_alpha    90
_cell_angle_beta     90
_cell_angle_gamma    90

_symmetry_Int_Tables_number  62
_chemical_formula_structural  LuGeRu
_chemical_formula_sum  Lu4Ge4Ru4
_cell_volume  216.19928389819512
_cell_formula_units_Z  4
loop_
  _symmetry_equiv_pos_site_id
 _symmetry_equiv_pos_as_xyz
 1  'x, y, z'
loop_
 _atom_site_type_symbol
 _atom_site_label
 _atom_site_symmetry_multiplicity
 _atom_site_fract_x
 _atom_site_fract_y
 _atom_site_fract_z
 _atom_site_fract_occupancy
 Ge  Ge1  1  0.25000  0.29208  0.10806  1
 Ge  Ge2  1  0.75000  0.70792  0.89194  1
 Ge  Ge3  1  0.25000  0.79208  0.39194  1
 Ge  Ge4  1  0.75000  0.20792  0.60806  1
 Lu  Lu1  1  0.25000  0.99016  0.80719  1
 Lu  Lu2  1  0.75000  0.00984  0.19281  1
 Lu  Lu3  1  0.25000  0.49016  0.69281  1
 Lu  Lu4  1  0.75000  0.50984  0.30719  1
 Ru  Ru1  1  0.75000  0.84179  0.56109  1
 Ru  Ru2  1  0.25000  0.15821  0.43891  1
 Ru  Ru3  1  0.75000  0.34179  0.93891  1
 Ru  Ru4  1  0.25000  0.65821  0.06109  1
