CIF file written using JARVIS-Tools package.
data_NaClO3
_symmetry_space_group_name_H-M  'P2_13'
_cell_length_a       6.54155
_cell_length_b       6.54155
_cell_length_c       6.54155
_cell_angle_alpha    90
_cell_angle_beta     90
_cell_angle_gamma    90

_symmetry_Int_Tables_number  198
_chemical_formula_structural  NaClO3
_chemical_formula_sum  Na4Cl4O2
_cell_volume  279.92560175093803
_cell_formula_units_Z  4
loop_
  _symmetry_equiv_pos_site_id
 _symmetry_equiv_pos_as_xyz
 1  'x, y, z'
loop_
 _atom_site_type_symbol
 _atom_site_label
 _atom_site_symmetry_multiplicity
 _atom_site_fract_x
 _atom_site_fract_y
 _atom_site_fract_z
 _atom_site_fract_occupancy
 Cl  Cl1  1  0.91408  0.08592  0.58592  1
 Cl  Cl2  1  0.58592  0.91408  0.08592  1
 Cl  Cl3  1  0.41408  0.41408  0.41408  1
 Cl  Cl4  1  0.08592  0.58592  0.91408  1
 Na  Na1  1  0.07042  0.07042  0.07042  1
 Na  Na2  1  0.92958  0.57042  0.42958  1
 Na  Na3  1  0.42958  0.92958  0.57042  1
 Na  Na4  1  0.57042  0.42958  0.92958  1
 O  O1  1  0.00064  0.20102  0.40630  1
 O  O2  1  0.50064  0.29898  0.59370  1
 O  O3  1  0.79898  0.90630  0.49936  1
 O  O4  1  -0.00064  0.70102  0.09370  1
 O  O5  1  0.49936  0.79898  0.90630  1
 O  O6  1  0.20102  0.40630  0.00064  1
 O  O7  1  0.09370  -0.00064  0.70102  1
 O  O8  1  0.40630  0.00064  0.20102  1
 O  O9  1  0.29898  0.59370  0.50064  1
 O  O10  1  0.70102  0.09370  -0.00064  1
 O  O11  1  0.90630  0.49936  0.79898  1
 O  O12  1  0.59370  0.50064  0.29898  1
