CIF file written using JARVIS-Tools package.
data_Te4MoW3Se2S2
_symmetry_space_group_name_H-M  'P3m1'
_cell_length_a       3.40492
_cell_length_b       3.40491
_cell_length_c       38.5305
_cell_angle_alpha    90.0003
_cell_angle_beta     90
_cell_angle_gamma    120

_symmetry_Int_Tables_number  156
_chemical_formula_structural  Te4MoW3Se2S2
_chemical_formula_sum  Te4MoW3Se2S2
_cell_volume  386.8560057693571
_cell_formula_units_Z  1
loop_
  _symmetry_equiv_pos_site_id
 _symmetry_equiv_pos_as_xyz
 1  'x, y, z'
loop_
 _atom_site_type_symbol
 _atom_site_label
 _atom_site_symmetry_multiplicity
 _atom_site_fract_x
 _atom_site_fract_y
 _atom_site_fract_z
 _atom_site_fract_occupancy
 Mo  Mo1  1  0.66669  0.33338  0.28181  1
 S  S1  1  0.66664  0.33328  0.43058  1
 S  S2  1  0.66665  0.33329  0.50874  1
 Se  Se1  1  0.33335  0.66671  0.32456  1
 Se  Se2  1  0.33335  0.66671  0.23909  1
 Te  Te1  1  0.33335  0.66671  0.70625  1
 Te  Te2  1  0.66665  0.33329  0.04521  1
 Te  Te3  1  0.66665  0.33330  0.14284  1
 Te  Te4  1  0.33335  0.66671  0.60857  1
 W  W1  1  0.33331  0.66663  0.09395  1
 W  W2  1  0.33331  0.66662  0.46965  1
 W  W3  1  0.66669  0.33338  0.65750  1
