CIF file written using JARVIS-Tools package.
data_H4OF2
_symmetry_space_group_name_H-M  'P2_1/c'
_cell_length_a       3.38202
_cell_length_b       6.02214
_cell_length_c       11.2205
_cell_angle_alpha    90
_cell_angle_beta     97.6822
_cell_angle_gamma    90

_symmetry_Int_Tables_number  14
_chemical_formula_structural  H4OF2
_chemical_formula_sum  H6O4F8
_cell_volume  226.47662683232505
_cell_formula_units_Z  4
loop_
  _symmetry_equiv_pos_site_id
 _symmetry_equiv_pos_as_xyz
 1  'x, y, z'
loop_
 _atom_site_type_symbol
 _atom_site_label
 _atom_site_symmetry_multiplicity
 _atom_site_fract_x
 _atom_site_fract_y
 _atom_site_fract_z
 _atom_site_fract_occupancy
 F  F1  1  0.54899  0.73964  0.55804  1
 F  F2  1  0.54899  0.76036  0.05804  1
 F  F3  1  0.32691  0.49759  0.69984  1
 F  F4  1  0.67309  -0.00241  0.80016  1
 F  F5  1  0.67309  0.50241  0.30016  1
 F  F6  1  0.32691  0.00241  0.19984  1
 F  F7  1  0.45101  0.23964  0.94196  1
 F  F8  1  0.45101  0.26036  0.44196  1
 H  H1  1  0.89698  0.80243  0.84657  1
 H  H2  1  0.82301  0.41189  0.19175  1
 H  H3  1  0.17699  0.58811  0.80825  1
 H  H4  1  0.17699  0.91189  0.30825  1
 H  H5  1  0.10302  0.19757  0.15343  1
 H  H6  1  0.10302  0.30243  0.65343  1
 H  H7  1  0.55576  0.13538  0.87956  1
 H  H8  1  0.24345  0.81006  0.45083  1
 H  H9  1  0.75655  0.31006  0.04917  1
 H  H10  1  0.75655  0.18994  0.54917  1
 H  H11  1  0.24345  0.68994  0.95083  1
 H  H12  1  0.44424  0.63538  0.62044  1
 H  H13  1  0.55576  0.36462  0.37956  1
 H  H14  1  0.44424  0.86462  0.12044  1
 H  H15  1  0.89698  0.69757  0.34657  1
 H  H16  1  0.82301  0.08811  0.69175  1
 O  O1  1  0.04505  0.65875  0.87641  1
 O  O2  1  0.95495  0.15875  0.62359  1
 O  O3  1  0.04505  0.84125  0.37641  1
 O  O4  1  0.95495  0.34125  0.12359  1
