CIF file written using JARVIS-Tools package.
data_Ba2P7Cl
_symmetry_space_group_name_H-M  'P2_1/m'
_cell_length_a       6.38899
_cell_length_b       6.84381
_cell_length_c       11.8159
_cell_angle_alpha    90
_cell_angle_beta     95.3012
_cell_angle_gamma    90

_symmetry_Int_Tables_number  11
_chemical_formula_structural  Ba2P7Cl
_chemical_formula_sum  Ba4P4Cl2
_cell_volume  514.4383759270878
_cell_formula_units_Z  2
loop_
  _symmetry_equiv_pos_site_id
 _symmetry_equiv_pos_as_xyz
 1  'x, y, z'
loop_
 _atom_site_type_symbol
 _atom_site_label
 _atom_site_symmetry_multiplicity
 _atom_site_fract_x
 _atom_site_fract_y
 _atom_site_fract_z
 _atom_site_fract_occupancy
 Ba  Ba1  1  0.23080  0.25000  0.04643  1
 Ba  Ba2  1  0.43261  0.25000  0.65251  1
 Ba  Ba3  1  0.76920  0.75000  0.95357  1
 Ba  Ba4  1  0.56739  0.75000  0.34749  1
 Cl  Cl1  1  0.36351  0.75000  0.08877  1
 Cl  Cl2  1  0.63649  0.25000  0.91123  1
 P  P1  1  0.32743  0.75000  0.59236  1
 P  P2  1  0.85288  0.57442  0.68678  1
 P  P3  1  0.88331  0.49750  0.19322  1
 P  P4  1  0.98894  0.75000  0.54935  1
 P  P5  1  0.88331  0.00250  0.19322  1
 P  P6  1  0.14712  0.07442  0.31322  1
 P  P7  1  0.14712  0.42558  0.31322  1
 P  P8  1  0.67257  0.25000  0.40764  1
 P  P9  1  0.32416  0.75000  0.77900  1
 P  P10  1  0.11669  0.99750  0.80678  1
 P  P11  1  0.01106  0.25000  0.45065  1
 P  P12  1  0.85288  0.92558  0.68678  1
 P  P13  1  0.11669  0.50250  0.80678  1
 P  P14  1  0.67584  0.25000  0.22100  1
