CIF file written using JARVIS-Tools package.
data_USi2Pt2
_symmetry_space_group_name_H-M  'P4/nmm'
_cell_length_a       4.25869
_cell_length_b       4.25869
_cell_length_c       9.61359
_cell_angle_alpha    90
_cell_angle_beta     90
_cell_angle_gamma    90

_symmetry_Int_Tables_number  129
_chemical_formula_structural  USi2Pt2
_chemical_formula_sum  U2Si4Pt4
_cell_volume  174.35607722164934
_cell_formula_units_Z  2
loop_
  _symmetry_equiv_pos_site_id
 _symmetry_equiv_pos_as_xyz
 1  'x, y, z'
loop_
 _atom_site_type_symbol
 _atom_site_label
 _atom_site_symmetry_multiplicity
 _atom_site_fract_x
 _atom_site_fract_y
 _atom_site_fract_z
 _atom_site_fract_occupancy
 Pt  Pt1  1  0.00000  0.50000  0.62073  1
 Pt  Pt2  1  0.50000  0.00000  0.37927  1
 Pt  Pt3  1  0.00000  0.00000  0.00000  1
 Pt  Pt4  1  0.50000  0.50000  0.00000  1
 Si  Si1  1  0.00000  0.50000  0.86765  1
 Si  Si2  1  0.50000  0.00000  0.13235  1
 Si  Si3  1  0.00000  0.00000  0.50000  1
 Si  Si4  1  0.50000  0.50000  0.50000  1
 U  U1  1  0.00000  0.50000  0.25125  1
 U  U2  1  0.50000  0.00000  0.74875  1
