CIF file written using JARVIS-Tools package.
data_Hf5Sn3
_symmetry_space_group_name_H-M  'P6_3/mcm'
_cell_length_a       8.42109
_cell_length_b       8.42109
_cell_length_c       5.71111
_cell_angle_alpha    90
_cell_angle_beta     90
_cell_angle_gamma    120

_symmetry_Int_Tables_number  193
_chemical_formula_structural  Hf5Sn3
_chemical_formula_sum  Hf0Sn6
_cell_volume  350.7422792810993
_cell_formula_units_Z  2
loop_
  _symmetry_equiv_pos_site_id
 _symmetry_equiv_pos_as_xyz
 1  'x, y, z'
loop_
 _atom_site_type_symbol
 _atom_site_label
 _atom_site_symmetry_multiplicity
 _atom_site_fract_x
 _atom_site_fract_y
 _atom_site_fract_z
 _atom_site_fract_occupancy
 Hf  Hf1  1  0.66667  0.33333  0.00000  1
 Hf  Hf2  1  0.33333  0.66667  0.50000  1
 Hf  Hf3  1  0.33333  0.66667  0.00000  1
 Hf  Hf4  1  0.66667  0.33333  0.50000  1
 Hf  Hf5  1  0.75673  0.00000  0.25000  1
 Hf  Hf6  1  -0.00000  0.24327  0.75000  1
 Hf  Hf7  1  0.75673  0.75673  0.75000  1
 Hf  Hf8  1  0.24327  0.24327  0.25000  1
 Hf  Hf9  1  0.00000  0.75673  0.25000  1
 Hf  Hf10  1  0.24327  -0.00000  0.75000  1
 Sn  Sn1  1  0.39232  -0.00000  0.25000  1
 Sn  Sn2  1  0.00000  0.60768  0.75000  1
 Sn  Sn3  1  0.39232  0.39232  0.75000  1
 Sn  Sn4  1  0.60768  0.60768  0.25000  1
 Sn  Sn5  1  -0.00000  0.39232  0.25000  1
 Sn  Sn6  1  0.60768  0.00000  0.75000  1
