CIF file written using JARVIS-Tools package.
data_BiSBr
_symmetry_space_group_name_H-M  'Pnma'
_cell_length_a       4.09334
_cell_length_b       8.26774
_cell_length_c       9.87951
_cell_angle_alpha    90
_cell_angle_beta     90
_cell_angle_gamma    90

_symmetry_Int_Tables_number  62
_chemical_formula_structural  BiSBr
_chemical_formula_sum  Bi4S4Br4
_cell_volume  334.3487981029081
_cell_formula_units_Z  4
loop_
  _symmetry_equiv_pos_site_id
 _symmetry_equiv_pos_as_xyz
 1  'x, y, z'
loop_
 _atom_site_type_symbol
 _atom_site_label
 _atom_site_symmetry_multiplicity
 _atom_site_fract_x
 _atom_site_fract_y
 _atom_site_fract_z
 _atom_site_fract_occupancy
 Bi  Bi1  1  0.75000  0.36102  0.63245  1
 Bi  Bi2  1  0.25000  0.63898  0.36755  1
 Bi  Bi3  1  0.75000  0.86102  0.86755  1
 Bi  Bi4  1  0.25000  0.13898  0.13245  1
 Br  Br1  1  0.75000  0.48933  0.17359  1
 Br  Br2  1  0.25000  0.01067  0.67359  1
 Br  Br3  1  0.75000  0.98933  0.32641  1
 Br  Br4  1  0.25000  0.51067  0.82641  1
 S  S1  1  0.25000  0.33303  0.44734  1
 S  S2  1  0.75000  0.16697  0.94734  1
 S  S3  1  0.25000  0.83303  0.05266  1
 S  S4  1  0.75000  0.66697  0.55266  1
