CIF file written using JARVIS-Tools package.
data_LaNi2Rh3
_symmetry_space_group_name_H-M  'P6/mmm'
_cell_length_a       5.28691
_cell_length_b       5.28691
_cell_length_c       4.05441
_cell_angle_alpha    90
_cell_angle_beta     90
_cell_angle_gamma    119.999

_symmetry_Int_Tables_number  191
_chemical_formula_structural  LaNi2Rh3
_chemical_formula_sum  LaNi2Rh3
_cell_volume  98.14451836712236
_cell_formula_units_Z  1
loop_
  _symmetry_equiv_pos_site_id
 _symmetry_equiv_pos_as_xyz
 1  'x, y, z'
loop_
 _atom_site_type_symbol
 _atom_site_label
 _atom_site_symmetry_multiplicity
 _atom_site_fract_x
 _atom_site_fract_y
 _atom_site_fract_z
 _atom_site_fract_occupancy
 La  La1  1  0.00001  0.00001  0.00000  1
 Ni  Ni1  1  0.66665  0.33332  0.00000  1
 Ni  Ni2  1  0.33332  0.66665  0.00000  1
 Rh  Rh1  1  0.50007  0.50007  0.50000  1
 Rh  Rh2  1  0.50001  0.00004  0.50000  1
 Rh  Rh3  1  0.00004  0.50001  0.50000  1
