CIF file written using JARVIS-Tools package.
data_CeSi2Au4
_symmetry_space_group_name_H-M  'Cmmm'
_cell_length_a       4.42223
_cell_length_b       4.40706
_cell_length_c       7.16601
_cell_angle_alpha    90
_cell_angle_beta     107.972
_cell_angle_gamma    90

_symmetry_Int_Tables_number  65
_chemical_formula_structural  CeSi2Au4
_chemical_formula_sum  CeSi2Au4
_cell_volume  132.8441687813014
_cell_formula_units_Z  1
loop_
  _symmetry_equiv_pos_site_id
 _symmetry_equiv_pos_as_xyz
 1  'x, y, z'
loop_
 _atom_site_type_symbol
 _atom_site_label
 _atom_site_symmetry_multiplicity
 _atom_site_fract_x
 _atom_site_fract_y
 _atom_site_fract_z
 _atom_site_fract_occupancy
 Au  Au1  1  0.17244  0.50000  0.34488  1
 Au  Au2  1  0.32613  0.00000  0.65225  1
 Au  Au3  1  0.82756  0.50000  0.65512  1
 Au  Au4  1  0.67387  0.00000  0.34775  1
 Ce  Ce1  1  0.00000  0.00000  0.00000  1
 Si  Si1  1  0.58616  0.50000  0.17232  1
 Si  Si2  1  0.41384  0.50000  0.82768  1
