CIF file written using JARVIS-Tools package.
data_PrAl4
_symmetry_space_group_name_H-M  'I4/mmm'
_cell_length_a       4.31688
_cell_length_b       4.31688
_cell_length_c       6.45059
_cell_angle_alpha    109.549
_cell_angle_beta     109.549
_cell_angle_gamma    90

_symmetry_Int_Tables_number  139
_chemical_formula_structural  PrAl4
_chemical_formula_sum  PrAl4
_cell_volume  105.89848672681077
_cell_formula_units_Z  1
loop_
  _symmetry_equiv_pos_site_id
 _symmetry_equiv_pos_as_xyz
 1  'x, y, z'
loop_
 _atom_site_type_symbol
 _atom_site_label
 _atom_site_symmetry_multiplicity
 _atom_site_fract_x
 _atom_site_fract_y
 _atom_site_fract_z
 _atom_site_fract_occupancy
 Al  Al1  1  0.61227  0.61227  0.22454  1
 Al  Al2  1  0.25000  0.75000  0.50000  1
 Al  Al3  1  0.75000  0.25000  0.50000  1
 Al  Al4  1  0.38773  0.38773  0.77546  1
 Pr  Pr1  1  0.00000  0.00000  0.00000  1
