CIF file written using JARVIS-Tools package.
data_Sm2Ge2Ru
_symmetry_space_group_name_H-M  'C2/m'
_cell_length_a       4.31759
_cell_length_b       5.91423
_cell_length_c       9.40438
_cell_angle_alpha    82.7919
_cell_angle_beta     76.7293
_cell_angle_gamma    68.5913

_symmetry_Int_Tables_number  12
_chemical_formula_structural  Sm2Ge2Ru
_chemical_formula_sum  Sm4Ge4Ru2
_cell_volume  217.37297331014486
_cell_formula_units_Z  2
loop_
  _symmetry_equiv_pos_site_id
 _symmetry_equiv_pos_as_xyz
 1  'x, y, z'
loop_
 _atom_site_type_symbol
 _atom_site_label
 _atom_site_symmetry_multiplicity
 _atom_site_fract_x
 _atom_site_fract_y
 _atom_site_fract_z
 _atom_site_fract_occupancy
 Ge  Ge1  1  0.00958  0.85479  0.12604  1
 Ge  Ge2  1  0.99042  0.14521  0.87396  1
 Ge  Ge3  1  0.84968  0.73327  0.56736  1
 Ge  Ge4  1  0.15032  0.26673  0.43264  1
 Ru  Ru1  1  0.22518  0.92358  0.62607  1
 Ru  Ru2  1  0.77482  0.07642  0.37393  1
 Sm  Sm1  1  0.31567  0.25860  0.11007  1
 Sm  Sm2  1  0.68433  0.74140  0.88993  1
 Sm  Sm3  1  0.49726  0.33165  0.67382  1
 Sm  Sm4  1  0.50274  0.66835  0.32618  1
