CIF file written using JARVIS-Tools package.
data_ErS2
_symmetry_space_group_name_H-M  'P4/nmm'
_cell_length_a       3.83536
_cell_length_b       3.83536
_cell_length_c       7.85452
_cell_angle_alpha    90
_cell_angle_beta     90
_cell_angle_gamma    90

_symmetry_Int_Tables_number  129
_chemical_formula_structural  ErS2
_chemical_formula_sum  Er2S4
_cell_volume  115.54009928491199
_cell_formula_units_Z  2
loop_
  _symmetry_equiv_pos_site_id
 _symmetry_equiv_pos_as_xyz
 1  'x, y, z'
loop_
 _atom_site_type_symbol
 _atom_site_label
 _atom_site_symmetry_multiplicity
 _atom_site_fract_x
 _atom_site_fract_y
 _atom_site_fract_z
 _atom_site_fract_occupancy
 Er  Er1  1  0.50000  0.00000  0.72639  1
 Er  Er2  1  0.00000  0.50000  0.27361  1
 S  S1  1  0.50000  0.00000  0.36858  1
 S  S2  1  0.00000  0.50000  0.63142  1
 S  S3  1  0.50000  0.50000  0.00000  1
 S  S4  1  0.00000  0.00000  0.00000  1
