CIF file written using JARVIS-Tools package.
data_ZrZn3
_symmetry_space_group_name_H-M  'P6_3/mmc'
_cell_length_a       5.90441
_cell_length_b       5.90441
_cell_length_c       4.37039
_cell_angle_alpha    90
_cell_angle_beta     90
_cell_angle_gamma    120

_symmetry_Int_Tables_number  194
_chemical_formula_structural  ZrZn3
_chemical_formula_sum  Zr2Zn6
_cell_volume  131.9486849725193
_cell_formula_units_Z  2
loop_
  _symmetry_equiv_pos_site_id
 _symmetry_equiv_pos_as_xyz
 1  'x, y, z'
loop_
 _atom_site_type_symbol
 _atom_site_label
 _atom_site_symmetry_multiplicity
 _atom_site_fract_x
 _atom_site_fract_y
 _atom_site_fract_z
 _atom_site_fract_occupancy
 Zn  Zn1  1  0.68345  0.84173  0.25000  1
 Zn  Zn2  1  0.15827  0.84173  0.25000  1
 Zn  Zn3  1  0.15827  0.31655  0.25000  1
 Zn  Zn4  1  0.31655  0.15827  0.75000  1
 Zn  Zn5  1  0.84173  0.15827  0.75000  1
 Zn  Zn6  1  0.84173  0.68345  0.75000  1
 Zr  Zr1  1  0.33333  0.66667  0.75000  1
 Zr  Zr2  1  0.66667  0.33333  0.25000  1
