CIF file written using JARVIS-Tools package.
data_LiSiBO4
_symmetry_space_group_name_H-M  'I-4'
_cell_length_a       4.40523
_cell_length_b       4.40522
_cell_length_c       4.64242
_cell_angle_alpha    118.324
_cell_angle_beta     118.324
_cell_angle_gamma    90.0001

_symmetry_Int_Tables_number  82
_chemical_formula_structural  LiSiBO4
_chemical_formula_sum  LiSiBO4
_cell_volume  66.8004084032369
_cell_formula_units_Z  1
loop_
  _symmetry_equiv_pos_site_id
 _symmetry_equiv_pos_as_xyz
 1  'x, y, z'
loop_
 _atom_site_type_symbol
 _atom_site_label
 _atom_site_symmetry_multiplicity
 _atom_site_fract_x
 _atom_site_fract_y
 _atom_site_fract_z
 _atom_site_fract_occupancy
 B  B1  1  0.25000  0.75000  0.50000  1
 Li  Li1  1  0.50000  0.50000  -0.00000  1
 O  O1  1  0.14493  0.71390  0.74351  1
 O  O2  1  0.59858  0.02961  0.74351  1
 O  O3  1  0.97039  0.85507  0.25649  1
 O  O4  1  0.28610  0.40142  0.25649  1
 Si  Si1  1  0.00000  0.00000  0.00000  1
