CIF file written using JARVIS-Tools package.
data_Pr2CrS4
_symmetry_space_group_name_H-M  'C2/m'
_cell_length_a       3.82568
_cell_length_b       7.73524
_cell_length_c       5.90358
_cell_angle_alpha    115.635
_cell_angle_beta     108.906
_cell_angle_gamma    90

_symmetry_Int_Tables_number  12
_chemical_formula_structural  Pr2CrS4
_chemical_formula_sum  Pr2CrS4
_cell_volume  146.9827971258852
_cell_formula_units_Z  1
loop_
  _symmetry_equiv_pos_site_id
 _symmetry_equiv_pos_as_xyz
 1  'x, y, z'
loop_
 _atom_site_type_symbol
 _atom_site_label
 _atom_site_symmetry_multiplicity
 _atom_site_fract_x
 _atom_site_fract_y
 _atom_site_fract_z
 _atom_site_fract_occupancy
 Cr  Cr1  1  0.00000  0.00000  0.00000  1
 Pr  Pr1  1  0.33370  0.31010  0.66740  1
 Pr  Pr2  1  0.66630  0.68990  0.33260  1
 S  S1  1  0.06809  0.35696  0.13618  1
 S  S2  1  0.93191  0.64304  0.86382  1
 S  S3  1  0.35015  0.94957  0.70030  1
 S  S4  1  0.64985  0.05043  0.29970  1
