CIF file written using JARVIS-Tools package.
data_CuSO4
_symmetry_space_group_name_H-M  'Pnma'
_cell_length_a       4.87117
_cell_length_b       6.71021
_cell_length_c       8.469
_cell_angle_alpha    90
_cell_angle_beta     90
_cell_angle_gamma    90

_symmetry_Int_Tables_number  62
_chemical_formula_structural  CuSO4
_chemical_formula_sum  Cu4S4O6
_cell_volume  276.8229362923575
_cell_formula_units_Z  4
loop_
  _symmetry_equiv_pos_site_id
 _symmetry_equiv_pos_as_xyz
 1  'x, y, z'
loop_
 _atom_site_type_symbol
 _atom_site_label
 _atom_site_symmetry_multiplicity
 _atom_site_fract_x
 _atom_site_fract_y
 _atom_site_fract_z
 _atom_site_fract_occupancy
 Cu  Cu1  1  0.50000  0.50000  0.50000  1
 Cu  Cu2  1  0.00000  0.50000  0.00000  1
 Cu  Cu3  1  0.50000  0.00000  0.50000  1
 Cu  Cu4  1  0.00000  0.00000  0.00000  1
 O  O1  1  0.18430  0.43443  0.36850  1
 O  O2  1  0.68430  0.56557  0.13150  1
 O  O3  1  0.81570  0.93443  0.63150  1
 O  O4  1  0.43238  0.25000  0.63535  1
 O  O5  1  0.81570  0.56557  0.63150  1
 O  O6  1  0.31570  0.43443  0.86850  1
 O  O7  1  0.31570  0.06557  0.86850  1
 O  O8  1  0.68430  0.93443  0.13150  1
 O  O9  1  0.25894  0.75000  0.13397  1
 O  O10  1  0.74106  0.25000  0.86603  1
 O  O11  1  0.18430  0.06557  0.36850  1
 O  O12  1  0.24106  0.75000  0.63397  1
 O  O13  1  0.56762  0.75000  0.36465  1
 O  O14  1  0.06762  0.25000  0.13535  1
 O  O15  1  0.75894  0.25000  0.36603  1
 O  O16  1  0.93238  0.75000  0.86465  1
 S  S1  1  0.54622  0.75000  0.18333  1
 S  S2  1  0.04622  0.25000  0.31667  1
 S  S3  1  0.45378  0.25000  0.81667  1
 S  S4  1  0.95378  0.75000  0.68333  1
