CIF file written using JARVIS-Tools package.
data_AlH3O3
_symmetry_space_group_name_H-M  'P-1'
_cell_length_a       6.78094
_cell_length_b       7.41701
_cell_length_c       8.09439
_cell_angle_alpha    111.781
_cell_angle_beta     141.188
_cell_angle_gamma    88.6062

_symmetry_Int_Tables_number  2
_chemical_formula_structural  AlH3O3
_chemical_formula_sum  Al4H2O2
_cell_volume  210.99560086826472
_cell_formula_units_Z  4
loop_
  _symmetry_equiv_pos_site_id
 _symmetry_equiv_pos_as_xyz
 1  'x, y, z'
loop_
 _atom_site_type_symbol
 _atom_site_label
 _atom_site_symmetry_multiplicity
 _atom_site_fract_x
 _atom_site_fract_y
 _atom_site_fract_z
 _atom_site_fract_occupancy
 Al  Al1  1  0.47236  0.83536  0.30394  1
 Al  Al2  1  0.52770  0.16463  0.69608  1
 Al  Al3  1  -0.00891  0.67039  0.65393  1
 Al  Al4  1  0.00897  0.32961  0.34609  1
 H  H1  1  0.82745  0.28537  0.52497  1
 H  H2  1  0.06992  0.05605  0.87362  1
 H  H3  1  0.60119  0.53479  0.92492  1
 H  H4  1  0.39888  0.46521  0.07510  1
 H  H5  1  0.17262  0.71463  0.47505  1
 H  H6  1  0.93015  0.94395  0.12640  1
 H  H7  1  0.36508  0.17039  0.31071  1
 H  H8  1  0.63499  0.82960  0.68931  1
 H  H9  1  0.67716  0.90854  0.16694  1
 H  H10  1  0.18996  0.40183  0.17297  1
 H  H11  1  0.81010  0.59817  0.82705  1
 H  H12  1  0.32291  0.09145  0.83308  1
 O  O1  1  0.02967  0.28321  0.10358  1
 O  O2  1  0.97824  0.94210  0.69034  1
 O  O3  1  0.02182  0.05789  0.30968  1
 O  O4  1  0.48005  0.56198  0.25770  1
 O  O5  1  0.52001  0.43802  0.74232  1
 O  O6  1  0.45314  0.86726  0.53899  1
 O  O7  1  0.54692  0.13274  0.46103  1
 O  O8  1  0.47326  0.81098  0.06952  1
 O  O9  1  0.52680  0.18902  0.93050  1
 O  O10  1  0.04315  0.61146  0.44466  1
 O  O11  1  0.95691  0.38854  0.55536  1
 O  O12  1  0.97040  0.71678  0.89644  1
