CIF file written using JARVIS-Tools package.
data_PdSe
_symmetry_space_group_name_H-M  'P4_2/m'
_cell_length_a       6.82685
_cell_length_b       6.82685
_cell_length_c       7.01514
_cell_angle_alpha    90
_cell_angle_beta     90
_cell_angle_gamma    90

_symmetry_Int_Tables_number  84
_chemical_formula_structural  PdSe
_chemical_formula_sum  Pd8Se8
_cell_volume  326.94705097693395
_cell_formula_units_Z  8
loop_
  _symmetry_equiv_pos_site_id
 _symmetry_equiv_pos_as_xyz
 1  'x, y, z'
loop_
 _atom_site_type_symbol
 _atom_site_label
 _atom_site_symmetry_multiplicity
 _atom_site_fract_x
 _atom_site_fract_y
 _atom_site_fract_z
 _atom_site_fract_occupancy
 Pd  Pd1  1  0.53056  0.73788  0.00000  1
 Pd  Pd2  1  0.26212  0.53056  0.50000  1
 Pd  Pd3  1  0.73788  0.46944  0.50000  1
 Pd  Pd4  1  0.46944  0.26212  0.00000  1
 Pd  Pd5  1  0.50000  0.00000  0.50000  1
 Pd  Pd6  1  0.00000  0.50000  0.00000  1
 Pd  Pd7  1  0.00000  0.00000  0.75000  1
 Pd  Pd8  1  0.00000  0.00000  0.25000  1
 Se  Se1  1  0.19428  0.30750  0.77073  1
 Se  Se2  1  0.69250  0.19428  0.27073  1
 Se  Se3  1  0.30750  0.80572  0.27073  1
 Se  Se4  1  0.80572  0.69250  0.77073  1
 Se  Se5  1  0.80572  0.69250  0.22927  1
 Se  Se6  1  0.30750  0.80572  0.72927  1
 Se  Se7  1  0.69250  0.19428  0.72927  1
 Se  Se8  1  0.19428  0.30750  0.22927  1
