CIF file written using JARVIS-Tools package.
data_Ni3SnP4O16
_symmetry_space_group_name_H-M  'Pm'
_cell_length_a       4.74046
_cell_length_b       5.72914
_cell_length_c       9.68863
_cell_angle_alpha    90
_cell_angle_beta     90.4159
_cell_angle_gamma    90

_symmetry_Int_Tables_number  6
_chemical_formula_structural  Ni3SnP4O16
_chemical_formula_sum  Ni3SnP4O6
_cell_volume  263.1241166726888
_cell_formula_units_Z  1
loop_
  _symmetry_equiv_pos_site_id
 _symmetry_equiv_pos_as_xyz
 1  'x, y, z'
loop_
 _atom_site_type_symbol
 _atom_site_label
 _atom_site_symmetry_multiplicity
 _atom_site_fract_x
 _atom_site_fract_y
 _atom_site_fract_z
 _atom_site_fract_occupancy
 Ni  Ni1  1  0.92862  0.50000  0.73021  1
 Ni  Ni2  1  0.57524  0.50000  0.22328  1
 Ni  Ni3  1  0.42270  0.00000  0.76992  1
 O  O1  1  0.80180  0.00000  0.43915  1
 O  O2  1  0.71771  0.21245  0.66619  1
 O  O3  1  0.71771  0.78755  0.66619  1
 O  O4  1  0.28323  0.29074  0.34567  1
 O  O5  1  0.69999  0.50000  0.88881  1
 O  O6  1  0.78139  0.20853  0.15526  1
 O  O7  1  0.81088  0.50000  0.38769  1
 O  O8  1  0.67856  0.00000  0.92323  1
 O  O9  1  0.32477  0.50000  0.06363  1
 O  O10  1  0.22104  0.28919  0.83506  1
 O  O11  1  0.78139  0.79147  0.15526  1
 O  O12  1  0.31105  0.00000  0.10623  1
 O  O13  1  0.19084  0.00000  0.60962  1
 O  O14  1  0.28323  0.70926  0.34567  1
 O  O15  1  0.22104  0.71081  0.83506  1
 O  O16  1  0.18043  0.50000  0.57505  1
 P  P1  1  0.12316  0.50000  0.42067  1
 P  P2  1  0.37921  0.50000  0.90838  1
 P  P3  1  0.62732  0.00000  0.07685  1
 P  P4  1  0.86974  0.00000  0.59626  1
 Sn  Sn1  1  0.06897  0.00000  0.27668  1
