CIF file written using JARVIS-Tools package.
data_Er2FeSi2
_symmetry_space_group_name_H-M  'C2/m'
_cell_length_a       4.11596
_cell_length_b       5.57786
_cell_length_c       8.89088
_cell_angle_alpha    82.8904
_cell_angle_beta     76.6164
_cell_angle_gamma    68.3488

_symmetry_Int_Tables_number  12
_chemical_formula_structural  Er2FeSi2
_chemical_formula_sum  Er4Fe2Si4
_cell_volume  184.39942698622627
_cell_formula_units_Z  2
loop_
  _symmetry_equiv_pos_site_id
 _symmetry_equiv_pos_as_xyz
 1  'x, y, z'
loop_
 _atom_site_type_symbol
 _atom_site_label
 _atom_site_symmetry_multiplicity
 _atom_site_fract_x
 _atom_site_fract_y
 _atom_site_fract_z
 _atom_site_fract_occupancy
 Er  Er1  1  0.18831  0.73120  0.89218  1
 Er  Er2  1  0.81169  0.26880  0.10782  1
 Er  Er3  1  0.99882  0.33053  0.67183  1
 Er  Er4  1  0.00118  0.66947  0.32817  1
 Fe  Fe1  1  0.72838  0.91857  0.62467  1
 Fe  Fe2  1  0.27162  0.08143  0.37533  1
 Si  Si1  1  0.49758  0.13178  0.87305  1
 Si  Si2  1  0.50242  0.86822  0.12695  1
 Si  Si3  1  0.34583  0.74360  0.56474  1
 Si  Si4  1  0.65417  0.25640  0.43526  1
