CIF file written using JARVIS-Tools package.
data_Ca3Zn2Cu2P4
_symmetry_space_group_name_H-M  'P-3m1'
_cell_length_a       4.0502
_cell_length_b       4.0502
_cell_length_c       14.6226
_cell_angle_alpha    90
_cell_angle_beta     90
_cell_angle_gamma    120

_symmetry_Int_Tables_number  164
_chemical_formula_structural  Ca3Zn2Cu2P4
_chemical_formula_sum  Ca3Zn2Cu2P4
_cell_volume  207.73364344953302
_cell_formula_units_Z  1
loop_
  _symmetry_equiv_pos_site_id
 _symmetry_equiv_pos_as_xyz
 1  'x, y, z'
loop_
 _atom_site_type_symbol
 _atom_site_label
 _atom_site_symmetry_multiplicity
 _atom_site_fract_x
 _atom_site_fract_y
 _atom_site_fract_z
 _atom_site_fract_occupancy
 Ca  Ca1  1  0.00000  0.00000  0.73265  1
 Ca  Ca2  1  0.00000  0.00000  0.00000  1
 Ca  Ca3  1  0.00000  0.00000  0.26735  1
 Cu  Cu1  1  0.33333  0.66667  0.86511  1
 Cu  Cu2  1  0.66667  0.33333  0.13489  1
 P  P1  1  0.33333  0.66667  0.13374  1
 P  P2  1  0.66667  0.33333  0.86626  1
 P  P3  1  0.33333  0.66667  0.61180  1
 P  P4  1  0.66667  0.33333  0.38820  1
 Zn  Zn1  1  0.33333  0.66667  0.43678  1
 Zn  Zn2  1  0.66667  0.33333  0.56322  1
