CIF file written using JARVIS-Tools package.
data_Te4Rh3
_symmetry_space_group_name_H-M  'C2/m'
_cell_length_a       4.02596
_cell_length_b       6.83029
_cell_length_c       6.90541
_cell_angle_alpha    117.88
_cell_angle_beta     90
_cell_angle_gamma    107.14

_symmetry_Int_Tables_number  12
_chemical_formula_structural  Te4Rh3
_chemical_formula_sum  Te4Rh3
_cell_volume  158.24284932404012
_cell_formula_units_Z  1
loop_
  _symmetry_equiv_pos_site_id
 _symmetry_equiv_pos_as_xyz
 1  'x, y, z'
loop_
 _atom_site_type_symbol
 _atom_site_label
 _atom_site_symmetry_multiplicity
 _atom_site_fract_x
 _atom_site_fract_y
 _atom_site_fract_z
 _atom_site_fract_occupancy
 Rh  Rh1  1  0.73660  0.47321  0.71938  1
 Rh  Rh2  1  0.26340  0.52679  0.28062  1
 Rh  Rh3  1  0.00000  0.00000  0.00000  1
 Te  Te1  1  0.87992  0.75984  0.54464  1
 Te  Te2  1  0.12008  0.24016  0.45536  1
 Te  Te3  1  0.63388  0.26776  0.97841  1
 Te  Te4  1  0.36612  0.73224  0.02159  1
