CIF file written using JARVIS-Tools package.
data_SiC2
_symmetry_space_group_name_H-M  'P4_2/mmc'
_cell_length_a       3.17823
_cell_length_b       3.17823
_cell_length_c       6.89609
_cell_angle_alpha    90
_cell_angle_beta     90
_cell_angle_gamma    90

_symmetry_Int_Tables_number  131
_chemical_formula_structural  SiC2
_chemical_formula_sum  Si2C4
_cell_volume  69.65861547010971
_cell_formula_units_Z  2
loop_
  _symmetry_equiv_pos_site_id
 _symmetry_equiv_pos_as_xyz
 1  'x, y, z'
loop_
 _atom_site_type_symbol
 _atom_site_label
 _atom_site_symmetry_multiplicity
 _atom_site_fract_x
 _atom_site_fract_y
 _atom_site_fract_z
 _atom_site_fract_occupancy
 C  C1  1  0.00000  0.50000  0.40114  1
 C  C2  1  0.50000  0.00000  0.90114  1
 C  C3  1  0.00000  0.50000  0.59886  1
 C  C4  1  0.50000  0.00000  0.09886  1
 Si  Si1  1  0.00000  0.00000  0.75000  1
 Si  Si2  1  0.00000  0.00000  0.25000  1
