CIF file written using JARVIS-Tools package.
data_H2SO4
_symmetry_space_group_name_H-M  'C2/c'
_cell_length_a       4.69228
_cell_length_b       4.69228
_cell_length_c       8.56073
_cell_angle_alpha    70.3394
_cell_angle_beta     109.661
_cell_angle_gamma    121.015

_symmetry_Int_Tables_number  15
_chemical_formula_structural  H2SO4
_chemical_formula_sum  H4S2O8
_cell_volume  148.9822023281007
_cell_formula_units_Z  2
loop_
  _symmetry_equiv_pos_site_id
 _symmetry_equiv_pos_as_xyz
 1  'x, y, z'
loop_
 _atom_site_type_symbol
 _atom_site_label
 _atom_site_symmetry_multiplicity
 _atom_site_fract_x
 _atom_site_fract_y
 _atom_site_fract_z
 _atom_site_fract_occupancy
 H  H1  1  0.52079  0.78383  0.86653  1
 H  H2  1  0.78383  0.52079  0.63347  1
 H  H3  1  0.47921  0.21617  0.13347  1
 H  H4  1  0.21617  0.47921  0.36653  1
 O  O1  1  0.72132  0.73640  0.89107  1
 O  O2  1  0.73640  0.72132  0.60893  1
 O  O3  1  0.27868  0.26360  0.10893  1
 O  O4  1  0.26360  0.27868  0.39107  1
 O  O5  1  0.25518  0.93198  0.82435  1
 O  O6  1  0.93198  0.25518  0.67565  1
 O  O7  1  0.74482  0.06802  0.17565  1
 O  O8  1  0.06802  0.74482  0.32435  1
 S  S1  1  0.93208  0.93208  0.75000  1
 S  S2  1  0.06792  0.06792  0.25000  1
