CIF file written using JARVIS-Tools package.
data_KHF2
_symmetry_space_group_name_H-M  'I4/mcm'
_cell_length_a       5.21811
_cell_length_b       5.2181
_cell_length_c       5.21811
_cell_angle_alpha    99.8498
_cell_angle_beta     114.486
_cell_angle_gamma    114.486

_symmetry_Int_Tables_number  140
_chemical_formula_structural  KHF2
_chemical_formula_sum  K2H2F4
_cell_volume  107.11840515286255
_cell_formula_units_Z  2
loop_
  _symmetry_equiv_pos_site_id
 _symmetry_equiv_pos_as_xyz
 1  'x, y, z'
loop_
 _atom_site_type_symbol
 _atom_site_label
 _atom_site_symmetry_multiplicity
 _atom_site_fract_x
 _atom_site_fract_y
 _atom_site_fract_z
 _atom_site_fract_occupancy
 F  F1  1  0.21134  0.35567  0.85567  1
 F  F2  1  0.50000  0.85567  0.64433  1
 F  F3  1  0.78866  0.64433  0.14433  1
 F  F4  1  0.50000  0.14433  0.35567  1
 H  H1  1  0.50000  0.50000  0.00000  1
 H  H2  1  0.50000  -0.00000  0.50000  1
 K  K1  1  0.00000  0.75000  0.75000  1
 K  K2  1  0.00000  0.25000  0.25000  1
