CIF file written using JARVIS-Tools package.
data_Nb5N6
_symmetry_space_group_name_H-M  'P6_3/mcm'
_cell_length_a       5.26594
_cell_length_b       5.26594
_cell_length_c       10.5129
_cell_angle_alpha    90
_cell_angle_beta     90
_cell_angle_gamma    120

_symmetry_Int_Tables_number  193
_chemical_formula_structural  Nb5N6
_chemical_formula_sum  Nb0N2
_cell_volume  252.46751757565647
_cell_formula_units_Z  2
loop_
  _symmetry_equiv_pos_site_id
 _symmetry_equiv_pos_as_xyz
 1  'x, y, z'
loop_
 _atom_site_type_symbol
 _atom_site_label
 _atom_site_symmetry_multiplicity
 _atom_site_fract_x
 _atom_site_fract_y
 _atom_site_fract_z
 _atom_site_fract_occupancy
 N  N1  1  0.00000  0.33954  0.87743  1
 N  N2  1  0.33954  0.33954  0.37743  1
 N  N3  1  0.66046  0.66046  0.62257  1
 N  N4  1  0.00000  0.33954  0.62257  1
 N  N5  1  0.00000  0.66046  0.12257  1
 N  N6  1  0.33954  0.00000  0.62257  1
 N  N7  1  0.66046  0.00000  0.12257  1
 N  N8  1  0.33954  0.33954  0.12257  1
 N  N9  1  0.66046  0.00000  0.37743  1
 N  N10  1  0.00000  0.66046  0.37743  1
 N  N11  1  0.33954  0.00000  0.87743  1
 N  N12  1  0.66046  0.66046  0.87743  1
 Nb  Nb1  1  0.32451  0.32451  0.75000  1
 Nb  Nb2  1  0.32451  -0.00000  0.25000  1
 Nb  Nb3  1  -0.00000  0.32451  0.25000  1
 Nb  Nb4  1  0.00000  0.67549  0.75000  1
 Nb  Nb5  1  0.67549  0.00000  0.75000  1
 Nb  Nb6  1  0.67549  0.67549  0.25000  1
 Nb  Nb7  1  0.33333  0.66667  0.00000  1
 Nb  Nb8  1  0.66667  0.33333  0.50000  1
 Nb  Nb9  1  0.66667  0.33333  0.00000  1
 Nb  Nb10  1  0.33333  0.66667  0.50000  1
