CIF file written using JARVIS-Tools package.
data_Ti2ZnN
_symmetry_space_group_name_H-M  'Cmcm'
_cell_length_a       8.28195
_cell_length_b       8.28195
_cell_length_c       4.17857
_cell_angle_alpha    90
_cell_angle_beta     90
_cell_angle_gamma    159.065

_symmetry_Int_Tables_number  63
_chemical_formula_structural  Ti2ZnN
_chemical_formula_sum  Ti4Zn2N2
_cell_volume  102.40817525722309
_cell_formula_units_Z  2
loop_
  _symmetry_equiv_pos_site_id
 _symmetry_equiv_pos_as_xyz
 1  'x, y, z'
loop_
 _atom_site_type_symbol
 _atom_site_label
 _atom_site_symmetry_multiplicity
 _atom_site_fract_x
 _atom_site_fract_y
 _atom_site_fract_z
 _atom_site_fract_occupancy
 N  N1  1  0.19952  0.80048  0.25000  1
 N  N2  1  0.80048  0.19952  0.75000  1
 Ti  Ti1  1  0.78830  0.21170  0.25000  1
 Ti  Ti2  1  0.21170  0.78830  0.75000  1
 Ti  Ti3  1  0.61185  0.38815  0.25000  1
 Ti  Ti4  1  0.38815  0.61185  0.75000  1
 Zn  Zn1  1  0.95836  0.04164  0.25000  1
 Zn  Zn2  1  0.04164  0.95836  0.75000  1
