CIF file written using JARVIS-Tools package.
data_ThPSe
_symmetry_space_group_name_H-M  'P4/nmm'
_cell_length_a       4.09556
_cell_length_b       4.09556
_cell_length_c       8.43419
_cell_angle_alpha    90
_cell_angle_beta     90
_cell_angle_gamma    90

_symmetry_Int_Tables_number  129
_chemical_formula_structural  ThPSe
_chemical_formula_sum  Th2P2Se2
_cell_volume  141.47218013463925
_cell_formula_units_Z  2
loop_
  _symmetry_equiv_pos_site_id
 _symmetry_equiv_pos_as_xyz
 1  'x, y, z'
loop_
 _atom_site_type_symbol
 _atom_site_label
 _atom_site_symmetry_multiplicity
 _atom_site_fract_x
 _atom_site_fract_y
 _atom_site_fract_z
 _atom_site_fract_occupancy
 P  P1  1  0.50000  0.50000  0.00000  1
 P  P2  1  0.00000  0.00000  0.00000  1
 Se  Se1  1  0.50000  0.00000  0.36945  1
 Se  Se2  1  0.00000  0.50000  0.63055  1
 Th  Th1  1  0.50000  0.00000  0.74687  1
 Th  Th2  1  0.00000  0.50000  0.25313  1
