CIF file written using JARVIS-Tools package.
data_Ba2Nb5O9
_symmetry_space_group_name_H-M  'P4/mmm'
_cell_length_a       4.22558
_cell_length_b       4.22558
_cell_length_c       12.3821
_cell_angle_alpha    90
_cell_angle_beta     90
_cell_angle_gamma    90

_symmetry_Int_Tables_number  123
_chemical_formula_structural  Ba2Nb5O9
_chemical_formula_sum  Ba2Nb5O9
_cell_volume  221.08842460942245
_cell_formula_units_Z  1
loop_
  _symmetry_equiv_pos_site_id
 _symmetry_equiv_pos_as_xyz
 1  'x, y, z'
loop_
 _atom_site_type_symbol
 _atom_site_label
 _atom_site_symmetry_multiplicity
 _atom_site_fract_x
 _atom_site_fract_y
 _atom_site_fract_z
 _atom_site_fract_occupancy
 Ba  Ba1  1  0.00000  0.00000  0.83189  1
 Ba  Ba2  1  0.00000  0.00000  0.16811  1
 Nb  Nb1  1  0.50000  0.50000  0.00000  1
 Nb  Nb2  1  0.50000  0.50000  0.66343  1
 Nb  Nb3  1  0.50000  0.50000  0.33657  1
 Nb  Nb4  1  0.50000  0.00000  0.50000  1
 Nb  Nb5  1  0.00000  0.50000  0.50000  1
 O  O1  1  0.00000  0.50000  0.00000  1
 O  O2  1  0.50000  0.00000  0.00000  1
 O  O3  1  0.50000  0.50000  0.83817  1
 O  O4  1  0.50000  0.50000  0.16183  1
 O  O5  1  0.00000  0.50000  0.67282  1
 O  O6  1  0.50000  0.00000  0.67282  1
 O  O7  1  0.00000  0.50000  0.32718  1
 O  O8  1  0.00000  0.00000  0.50000  1
 O  O9  1  0.50000  0.00000  0.32718  1
