CIF file written using JARVIS-Tools package.
data_PPdS
_symmetry_space_group_name_H-M  'Pbcn'
_cell_length_a       5.73112
_cell_length_b       5.75624
_cell_length_c       13.5884
_cell_angle_alpha    90
_cell_angle_beta     90
_cell_angle_gamma    90

_symmetry_Int_Tables_number  60
_chemical_formula_structural  PPdS
_chemical_formula_sum  P8Pd8S8
_cell_volume  448.2763323899305
_cell_formula_units_Z  8
loop_
  _symmetry_equiv_pos_site_id
 _symmetry_equiv_pos_as_xyz
 1  'x, y, z'
loop_
 _atom_site_type_symbol
 _atom_site_label
 _atom_site_symmetry_multiplicity
 _atom_site_fract_x
 _atom_site_fract_y
 _atom_site_fract_z
 _atom_site_fract_occupancy
 P  P1  1  0.86904  0.21762  0.58125  1
 P  P2  1  0.86904  0.28238  0.41875  1
 P  P3  1  0.63096  0.78238  0.08125  1
 P  P4  1  0.36904  0.21762  0.91875  1
 P  P5  1  0.36904  0.28238  0.08125  1
 P  P6  1  0.13096  0.71762  0.58125  1
 P  P7  1  0.13096  0.78238  0.41875  1
 P  P8  1  0.63096  0.71762  0.91875  1
 Pd  Pd1  1  0.75202  0.66064  0.38792  1
 Pd  Pd2  1  0.75202  0.83936  0.61208  1
 Pd  Pd3  1  0.74798  0.16064  0.11208  1
 Pd  Pd4  1  0.74798  0.33936  0.88792  1
 Pd  Pd5  1  0.24798  0.33936  0.61208  1
 Pd  Pd6  1  0.24798  0.16064  0.38792  1
 Pd  Pd7  1  0.25202  0.83936  0.88792  1
 Pd  Pd8  1  0.25202  0.66064  0.11208  1
 S  S1  1  0.36367  0.95306  0.65264  1
 S  S2  1  0.13633  0.04694  0.15264  1
 S  S3  1  0.13633  0.45306  0.84736  1
 S  S4  1  0.63633  0.45306  0.65264  1
 S  S5  1  0.86367  0.54694  0.15264  1
 S  S6  1  0.86367  0.95306  0.84736  1
 S  S7  1  0.36367  0.54694  0.34736  1
 S  S8  1  0.63633  0.04694  0.34736  1
