CIF file written using JARVIS-Tools package.
data_Ca5As3
_symmetry_space_group_name_H-M  'P6_3/mcm'
_cell_length_a       8.48176
_cell_length_b       8.48176
_cell_length_c       6.71398
_cell_angle_alpha    90
_cell_angle_beta     90
_cell_angle_gamma    120

_symmetry_Int_Tables_number  193
_chemical_formula_structural  Ca5As3
_chemical_formula_sum  Ca0As6
_cell_volume  418.29478741061604
_cell_formula_units_Z  2
loop_
  _symmetry_equiv_pos_site_id
 _symmetry_equiv_pos_as_xyz
 1  'x, y, z'
loop_
 _atom_site_type_symbol
 _atom_site_label
 _atom_site_symmetry_multiplicity
 _atom_site_fract_x
 _atom_site_fract_y
 _atom_site_fract_z
 _atom_site_fract_occupancy
 As  As1  1  -0.00000  0.61079  0.75000  1
 As  As2  1  0.61079  0.61079  0.25000  1
 As  As3  1  0.38921  0.00000  0.25000  1
 As  As4  1  0.61079  -0.00000  0.75000  1
 As  As5  1  0.38921  0.38921  0.75000  1
 As  As6  1  0.00000  0.38921  0.25000  1
 Ca  Ca1  1  0.33333  0.66667  0.00000  1
 Ca  Ca2  1  0.66667  0.33333  0.50000  1
 Ca  Ca3  1  0.66667  0.33333  0.00000  1
 Ca  Ca4  1  0.33333  0.66667  0.50000  1
 Ca  Ca5  1  -0.00000  0.25390  0.75000  1
 Ca  Ca6  1  0.25390  0.25390  0.25000  1
 Ca  Ca7  1  0.74610  0.00000  0.25000  1
 Ca  Ca8  1  0.25390  -0.00000  0.75000  1
 Ca  Ca9  1  0.74610  0.74610  0.75000  1
 Ca  Ca10  1  0.00000  0.74610  0.25000  1
