CIF file written using JARVIS-Tools package.
data_Ce3Ni2B2N3
_symmetry_space_group_name_H-M  'I4/mmm'
_cell_length_a       3.5798
_cell_length_b       3.5798
_cell_length_c       10.408
_cell_angle_alpha    99.9026
_cell_angle_beta     99.9026
_cell_angle_gamma    90

_symmetry_Int_Tables_number  139
_chemical_formula_structural  Ce3Ni2B2N3
_chemical_formula_sum  Ce3Ni2B2N3
_cell_volume  129.37345063650065
_cell_formula_units_Z  1
loop_
  _symmetry_equiv_pos_site_id
 _symmetry_equiv_pos_as_xyz
 1  'x, y, z'
loop_
 _atom_site_type_symbol
 _atom_site_label
 _atom_site_symmetry_multiplicity
 _atom_site_fract_x
 _atom_site_fract_y
 _atom_site_fract_z
 _atom_site_fract_occupancy
 B  B1  1  0.80855  0.80855  0.61710  1
 B  B2  1  0.19145  0.19145  0.38290  1
 Ce  Ce1  1  0.62652  0.62652  0.25303  1
 Ce  Ce2  1  0.37348  0.37348  0.74697  1
 Ce  Ce3  1  0.00000  0.00000  0.00000  1
 N  N1  1  0.88097  0.88097  0.76194  1
 N  N2  1  0.50000  0.50000  0.00000  1
 N  N3  1  0.11903  0.11903  0.23806  1
 Ni  Ni1  1  0.25000  0.75000  0.50000  1
 Ni  Ni2  1  0.75000  0.25000  0.50000  1
