CIF file written using JARVIS-Tools package.
data_V4CoNiO12
_symmetry_space_group_name_H-M  'C2'
_cell_length_a       6.64832
_cell_length_b       6.64832
_cell_length_c       5.76617
_cell_angle_alpha    74.5271
_cell_angle_beta     105.473
_cell_angle_gamma    96.4133

_symmetry_Int_Tables_number  5
_chemical_formula_structural  V4CoNiO12
_chemical_formula_sum  V4CoNiO2
_cell_volume  236.50073285908402
_cell_formula_units_Z  1
loop_
  _symmetry_equiv_pos_site_id
 _symmetry_equiv_pos_as_xyz
 1  'x, y, z'
loop_
 _atom_site_type_symbol
 _atom_site_label
 _atom_site_symmetry_multiplicity
 _atom_site_fract_x
 _atom_site_fract_y
 _atom_site_fract_z
 _atom_site_fract_occupancy
 Co  Co1  1  0.08304  0.08304  0.75000  1
 Ni  Ni1  1  0.91790  0.91790  0.25000  1
 O  O1  1  0.62653  0.91708  0.27082  1
 O  O2  1  0.02807  0.80923  0.63898  1
 O  O3  1  0.08354  0.37174  0.77098  1
 O  O4  1  0.91708  0.62653  0.22918  1
 O  O5  1  0.37862  0.65502  0.56737  1
 O  O6  1  0.19378  0.97175  0.14322  1
 O  O7  1  0.34285  0.62179  0.06492  1
 O  O8  1  0.97175  0.19378  0.35678  1
 O  O9  1  0.37174  0.08354  0.72902  1
 O  O10  1  0.62179  0.34285  0.43508  1
 O  O11  1  0.80923  0.02807  0.86102  1
 O  O12  1  0.65502  0.37862  0.93263  1
 V  V1  1  0.79730  0.39006  0.23764  1
 V  V2  1  0.61064  0.20106  0.73958  1
 V  V3  1  0.39006  0.79730  0.26236  1
 V  V4  1  0.20106  0.61064  0.76042  1
