data_image0
_chemical_formula_structural       Cl4Cs2O2U
_chemical_formula_sum              "Cl4 Cs2 O2 U1"
_cell_length_a       5.86941
_cell_length_b       7.1632
_cell_length_c       7.1632
_cell_angle_alpha    65.5644
_cell_angle_beta     98.5849
_cell_angle_gamma    98.5849

_space_group_name_H-M_alt    "P 1"
_space_group_IT_number       1

loop_
  _space_group_symop_operation_xyz
  'x, y, z'

loop_
  _atom_site_type_symbol
  _atom_site_label
  _atom_site_symmetry_multiplicity
  _atom_site_fract_x
  _atom_site_fract_y
  _atom_site_fract_z
  _atom_site_occupancy
  Cl  Cl1       1.0  0.20600  0.64800  0.14700  1.0000
  Cl  Cl2       1.0  0.79300  0.84600  0.35500  1.0000
  Cl  Cl3       1.0  0.20600  0.14700  0.64800  1.0000
  Cl  Cl4       1.0  0.79300  0.35500  0.84600  1.0000
  Cs  Cs1       1.0  0.67700  0.33500  0.33500  1.0000
  Cs  Cs2       1.0  0.32200  0.66600  0.66600  1.0000
  O   O1        1.0  0.23200  0.11800  0.11800  1.0000
  O   O2        1.0  0.76300  0.88400  0.88400  1.0000
  U   U1        1.0  0.99800  0.00077  0.00077  1.0000
