CIF file written using JARVIS-Tools package.
data_Be2NiRh
_symmetry_space_group_name_H-M  'Fm-3m'
_cell_length_a       3.81884
_cell_length_b       3.81884
_cell_length_c       3.81884
_cell_angle_alpha    60
_cell_angle_beta     60
_cell_angle_gamma    60

_symmetry_Int_Tables_number  225
_chemical_formula_structural  Be2NiRh
_chemical_formula_sum  Be2NiRh
_cell_volume  39.38021988884664
_cell_formula_units_Z  1
loop_
  _symmetry_equiv_pos_site_id
 _symmetry_equiv_pos_as_xyz
 1  'x, y, z'
loop_
 _atom_site_type_symbol
 _atom_site_label
 _atom_site_symmetry_multiplicity
 _atom_site_fract_x
 _atom_site_fract_y
 _atom_site_fract_z
 _atom_site_fract_occupancy
 Be  Be1  1  0.50000  0.50000  0.50000  1
 Be  Be2  1  0.00000  0.00000  0.00000  1
 Ni  Ni1  1  0.25000  0.25000  0.25000  1
 Rh  Rh1  1  0.75000  0.75000  0.75000  1
