CIF file written using JARVIS-Tools package.
data_Dy2MgSi2
_symmetry_space_group_name_H-M  'P4/mbm'
_cell_length_a       7.158
_cell_length_b       7.158
_cell_length_c       4.22001
_cell_angle_alpha    90
_cell_angle_beta     90
_cell_angle_gamma    90

_symmetry_Int_Tables_number  127
_chemical_formula_structural  Dy2MgSi2
_chemical_formula_sum  Dy4Mg2Si4
_cell_volume  216.22024176796455
_cell_formula_units_Z  2
loop_
  _symmetry_equiv_pos_site_id
 _symmetry_equiv_pos_as_xyz
 1  'x, y, z'
loop_
 _atom_site_type_symbol
 _atom_site_label
 _atom_site_symmetry_multiplicity
 _atom_site_fract_x
 _atom_site_fract_y
 _atom_site_fract_z
 _atom_site_fract_occupancy
 Dy  Dy1  1  0.82158  0.67842  0.50000  1
 Dy  Dy2  1  0.17842  0.32158  0.50000  1
 Dy  Dy3  1  0.32158  0.82158  0.50000  1
 Dy  Dy4  1  0.67842  0.17842  0.50000  1
 Mg  Mg1  1  0.00000  0.00000  0.00000  1
 Mg  Mg2  1  0.50000  0.50000  0.00000  1
 Si  Si1  1  0.88112  0.38112  0.00000  1
 Si  Si2  1  0.11888  0.61888  0.00000  1
 Si  Si3  1  0.38112  0.11888  0.00000  1
 Si  Si4  1  0.61888  0.88112  0.00000  1
