CIF file written using JARVIS-Tools package.
data_NdP3O9
_symmetry_space_group_name_H-M  'C222_1'
_cell_length_a       7.08071
_cell_length_b       7.08071
_cell_length_c       7.30677
_cell_angle_alpha    90
_cell_angle_beta     90
_cell_angle_gamma    105.149

_symmetry_Int_Tables_number  20
_chemical_formula_structural  NdP3O9
_chemical_formula_sum  Nd2P6O8
_cell_volume  353.605683736801
_cell_formula_units_Z  2
loop_
  _symmetry_equiv_pos_site_id
 _symmetry_equiv_pos_as_xyz
 1  'x, y, z'
loop_
 _atom_site_type_symbol
 _atom_site_label
 _atom_site_symmetry_multiplicity
 _atom_site_fract_x
 _atom_site_fract_y
 _atom_site_fract_z
 _atom_site_fract_occupancy
 Nd  Nd1  1  0.12347  0.12347  0.25000  1
 Nd  Nd2  1  0.87653  0.87653  0.75000  1
 O  O1  1  0.74640  0.52864  0.20430  1
 O  O2  1  0.47136  0.25360  0.79570  1
 O  O3  1  0.52864  0.74640  0.29570  1
 O  O4  1  0.78298  0.52845  0.78937  1
 O  O5  1  0.21702  0.47155  0.28937  1
 O  O6  1  0.52845  0.78298  0.71063  1
 O  O7  1  0.47155  0.21702  0.21063  1
 O  O8  1  0.37580  0.62420  0.00000  1
 O  O9  1  0.62420  0.37580  0.50000  1
 O  O10  1  0.82517  0.86739  0.08141  1
 O  O11  1  0.25360  0.47136  0.70430  1
 O  O12  1  0.13261  0.17483  0.91859  1
 O  O13  1  0.21411  0.82463  0.21110  1
 O  O14  1  0.78589  0.17537  0.71110  1
 O  O15  1  0.82463  0.21411  0.28890  1
 O  O16  1  0.17537  0.78589  0.78890  1
 O  O17  1  0.17483  0.13261  0.58141  1
 O  O18  1  0.86739  0.82517  0.41859  1
 P  P1  1  0.33576  0.68613  0.79473  1
 P  P2  1  0.66424  0.31387  0.29473  1
 P  P3  1  0.68613  0.33576  0.70527  1
 P  P4  1  0.31387  0.66424  0.20527  1
 P  P5  1  0.25202  0.25202  0.75000  1
 P  P6  1  0.74798  0.74798  0.25000  1
