CIF file written using JARVIS-Tools package.
data_Er2Mg
_symmetry_space_group_name_H-M  'Cmcm'
_cell_length_a       3.56062
_cell_length_b       8.73484
_cell_length_c       5.38885
_cell_angle_alpha    90
_cell_angle_beta     90
_cell_angle_gamma    78.2397

_symmetry_Int_Tables_number  63
_chemical_formula_structural  Er2Mg
_chemical_formula_sum  Er4Mg2
_cell_volume  164.0830248755399
_cell_formula_units_Z  2
loop_
  _symmetry_equiv_pos_site_id
 _symmetry_equiv_pos_as_xyz
 1  'x, y, z'
loop_
 _atom_site_type_symbol
 _atom_site_label
 _atom_site_symmetry_multiplicity
 _atom_site_fract_x
 _atom_site_fract_y
 _atom_site_fract_z
 _atom_site_fract_occupancy
 Er  Er1  1  0.98644  0.02713  0.00000  1
 Er  Er2  1  0.66253  0.67485  0.00000  1
 Er  Er3  1  0.79135  0.41731  0.50000  1
 Er  Er4  1  0.11516  0.76959  0.50000  1
 Mg  Mg1  1  0.32567  0.34874  0.00000  1
 Mg  Mg2  1  0.45218  0.09570  0.50000  1
