CIF file written using JARVIS-Tools package.
data_Zr3ZnN
_symmetry_space_group_name_H-M  'Cmcm'
_cell_length_a       6.00459
_cell_length_b       6.00459
_cell_length_c       8.90785
_cell_angle_alpha    90
_cell_angle_beta     90
_cell_angle_gamma    147.538

_symmetry_Int_Tables_number  63
_chemical_formula_structural  Zr3ZnN
_chemical_formula_sum  Zr6Zn2N2
_cell_volume  172.38433986468078
_cell_formula_units_Z  2
loop_
  _symmetry_equiv_pos_site_id
 _symmetry_equiv_pos_as_xyz
 1  'x, y, z'
loop_
 _atom_site_type_symbol
 _atom_site_label
 _atom_site_symmetry_multiplicity
 _atom_site_fract_x
 _atom_site_fract_y
 _atom_site_fract_z
 _atom_site_fract_occupancy
 N  N1  1  0.00000  0.00000  0.00000  1
 N  N2  1  0.00000  0.00000  0.50000  1
 Zn  Zn1  1  0.25607  0.74393  0.25000  1
 Zn  Zn2  1  0.74393  0.25607  0.75000  1
 Zr  Zr1  1  0.62623  0.37377  0.04923  1
 Zr  Zr2  1  0.37377  0.62623  0.54923  1
 Zr  Zr3  1  0.37377  0.62623  0.95077  1
 Zr  Zr4  1  0.62623  0.37377  0.45077  1
 Zr  Zr5  1  0.95071  0.04929  0.25000  1
 Zr  Zr6  1  0.04929  0.95071  0.75000  1
