CIF file written using JARVIS-Tools package.
data_Li2MgCl4
_symmetry_space_group_name_H-M  'Imma'
_cell_length_a       7.33732
_cell_length_b       7.33731
_cell_length_c       7.2821
_cell_angle_alpha    60.2486
_cell_angle_beta     60.2486
_cell_angle_gamma    60.5555

_symmetry_Int_Tables_number  74
_chemical_formula_structural  Li2MgCl4
_chemical_formula_sum  Li4Mg2Cl8
_cell_volume  279.40987372196565
_cell_formula_units_Z  2
loop_
  _symmetry_equiv_pos_site_id
 _symmetry_equiv_pos_as_xyz
 1  'x, y, z'
loop_
 _atom_site_type_symbol
 _atom_site_label
 _atom_site_symmetry_multiplicity
 _atom_site_fract_x
 _atom_site_fract_y
 _atom_site_fract_z
 _atom_site_fract_occupancy
 Cl  Cl1  1  0.25162  0.25162  0.26048  1
 Cl  Cl2  1  0.25162  0.25162  0.73629  1
 Cl  Cl3  1  0.25262  0.72415  0.26161  1
 Cl  Cl4  1  0.72415  0.25262  0.26161  1
 Cl  Cl5  1  0.27585  0.74738  0.73839  1
 Cl  Cl6  1  0.74738  0.27585  0.73839  1
 Cl  Cl7  1  0.74838  0.74838  0.26371  1
 Cl  Cl8  1  0.74838  0.74838  0.73952  1
 Li  Li1  1  0.11104  0.11104  0.13896  1
 Li  Li2  1  0.50000  0.50000  0.00000  1
 Li  Li3  1  0.50000  0.50000  0.50000  1
 Li  Li4  1  0.88896  0.88896  0.86104  1
 Mg  Mg1  1  -0.00000  0.50000  0.50000  1
 Mg  Mg2  1  0.50000  0.00000  0.50000  1
