CIF file written using JARVIS-Tools package.
data_Te2Mo2SeS
_symmetry_space_group_name_H-M  'P3m1'
_cell_length_a       3.40785
_cell_length_b       3.40774
_cell_length_c       27.1304
_cell_angle_alpha    90.0038
_cell_angle_beta     90
_cell_angle_gamma    120.001

_symmetry_Int_Tables_number  156
_chemical_formula_structural  Te2Mo2SeS
_chemical_formula_sum  Te4Mo4Se2S2
_cell_volume  272.85282424907194
_cell_formula_units_Z  2
loop_
  _symmetry_equiv_pos_site_id
 _symmetry_equiv_pos_as_xyz
 1  'x, y, z'
loop_
 _atom_site_type_symbol
 _atom_site_label
 _atom_site_symmetry_multiplicity
 _atom_site_fract_x
 _atom_site_fract_y
 _atom_site_fract_z
 _atom_site_fract_occupancy
 Mo  Mo1  1  0.33359  0.66718  0.01273  1
 Mo  Mo2  1  0.33371  0.66743  0.48912  1
 Mo  Mo3  1  0.66649  0.33298  0.25780  1
 Mo  Mo4  1  0.66620  0.33241  0.74326  1
 S  S1  1  0.33316  0.66633  0.31309  1
 S  S2  1  0.33314  0.66628  0.20247  1
 Se  Se1  1  0.66704  0.33408  0.42841  1
 Se  Se2  1  0.66707  0.33414  0.54982  1
 Te  Te1  1  0.33288  0.66576  0.81239  1
 Te  Te2  1  0.66691  0.33382  -0.05639  1
 Te  Te3  1  0.66696  0.33391  0.08192  1
 Te  Te4  1  0.33284  0.66569  0.67413  1
