CIF file written using JARVIS-Tools package.
data_Li3CeBi2
_symmetry_space_group_name_H-M  'P-3m1'
_cell_length_a       4.68181
_cell_length_b       4.68105
_cell_length_c       7.4737
_cell_angle_alpha    90
_cell_angle_beta     90.0176
_cell_angle_gamma    119.995

_symmetry_Int_Tables_number  164
_chemical_formula_structural  Li3CeBi2
_chemical_formula_sum  Li3CeBi2
_cell_volume  141.85567926979905
_cell_formula_units_Z  1
loop_
  _symmetry_equiv_pos_site_id
 _symmetry_equiv_pos_as_xyz
 1  'x, y, z'
loop_
 _atom_site_type_symbol
 _atom_site_label
 _atom_site_symmetry_multiplicity
 _atom_site_fract_x
 _atom_site_fract_y
 _atom_site_fract_z
 _atom_site_fract_occupancy
 Bi  Bi1  1  0.66673  0.33337  0.25292  1
 Bi  Bi2  1  0.33327  0.66663  0.74708  1
 Ce  Ce1  1  0.00000  0.00000  0.00000  1
 Li  Li1  1  0.66662  0.33331  0.64777  1
 Li  Li2  1  0.33338  0.66669  0.35223  1
 Li  Li3  1  0.00000  0.00000  0.50000  1
