CIF file written using JARVIS-Tools package.
data_YMn6Ge6
_symmetry_space_group_name_H-M  'P6/mmm'
_cell_length_a       5.08963
_cell_length_b       5.08963
_cell_length_c       8.10311
_cell_angle_alpha    90
_cell_angle_beta     90
_cell_angle_gamma    120

_symmetry_Int_Tables_number  191
_chemical_formula_structural  YMn6Ge6
_chemical_formula_sum  YMn6Ge6
_cell_volume  181.7839253958253
_cell_formula_units_Z  1
loop_
  _symmetry_equiv_pos_site_id
 _symmetry_equiv_pos_as_xyz
 1  'x, y, z'
loop_
 _atom_site_type_symbol
 _atom_site_label
 _atom_site_symmetry_multiplicity
 _atom_site_fract_x
 _atom_site_fract_y
 _atom_site_fract_z
 _atom_site_fract_occupancy
 Ge  Ge1  1  0.66667  0.33333  0.00000  1
 Ge  Ge2  1  0.00000  0.00000  0.34563  1
 Ge  Ge3  1  0.00000  0.00000  0.65437  1
 Ge  Ge4  1  0.66667  0.33333  0.50000  1
 Ge  Ge5  1  0.33333  0.66667  0.50000  1
 Ge  Ge6  1  0.33333  0.66667  0.00000  1
 Mn  Mn1  1  0.50000  0.50000  0.74952  1
 Mn  Mn2  1  -0.00000  0.50000  0.25048  1
 Mn  Mn3  1  0.50000  -0.00000  0.25048  1
 Mn  Mn4  1  0.50000  0.50000  0.25048  1
 Mn  Mn5  1  -0.00000  0.50000  0.74952  1
 Mn  Mn6  1  0.50000  -0.00000  0.74952  1
 Y  Y1  1  0.00000  0.00000  0.00000  1
