CIF file written using JARVIS-Tools package.
data_SmSnPd
_symmetry_space_group_name_H-M  'Pnma'
_cell_length_a       4.6852
_cell_length_b       7.36842
_cell_length_c       7.99514
_cell_angle_alpha    90
_cell_angle_beta     90
_cell_angle_gamma    90

_symmetry_Int_Tables_number  62
_chemical_formula_structural  SmSnPd
_chemical_formula_sum  Sm4Sn4Pd4
_cell_volume  276.01252538831415
_cell_formula_units_Z  4
loop_
  _symmetry_equiv_pos_site_id
 _symmetry_equiv_pos_as_xyz
 1  'x, y, z'
loop_
 _atom_site_type_symbol
 _atom_site_label
 _atom_site_symmetry_multiplicity
 _atom_site_fract_x
 _atom_site_fract_y
 _atom_site_fract_z
 _atom_site_fract_occupancy
 Pd  Pd1  1  0.75000  0.79596  0.08369  1
 Pd  Pd2  1  0.25000  0.20404  0.91631  1
 Pd  Pd3  1  0.75000  0.29596  0.41631  1
 Pd  Pd4  1  0.25000  0.70404  0.58369  1
 Sm  Sm1  1  0.75000  0.51041  0.79606  1
 Sm  Sm2  1  0.75000  0.01041  0.70394  1
 Sm  Sm3  1  0.25000  0.98959  0.29606  1
 Sm  Sm4  1  0.25000  0.48959  0.20394  1
 Sn  Sn1  1  0.75000  0.19188  0.08777  1
 Sn  Sn2  1  0.75000  0.69188  0.41223  1
 Sn  Sn3  1  0.25000  0.80812  0.91223  1
 Sn  Sn4  1  0.25000  0.30812  0.58777  1
