CIF file written using JARVIS-Tools package.
data_NbCoP
_symmetry_space_group_name_H-M  'Pnma'
_cell_length_a       3.62124
_cell_length_b       6.16548
_cell_length_c       6.99519
_cell_angle_alpha    90
_cell_angle_beta     90
_cell_angle_gamma    90

_symmetry_Int_Tables_number  62
_chemical_formula_structural  NbCoP
_chemical_formula_sum  Nb4Co4P4
_cell_volume  156.17916178618717
_cell_formula_units_Z  4
loop_
  _symmetry_equiv_pos_site_id
 _symmetry_equiv_pos_as_xyz
 1  'x, y, z'
loop_
 _atom_site_type_symbol
 _atom_site_label
 _atom_site_symmetry_multiplicity
 _atom_site_fract_x
 _atom_site_fract_y
 _atom_site_fract_z
 _atom_site_fract_occupancy
 Co  Co1  1  0.75000  0.35373  0.93757  1
 Co  Co2  1  0.25000  0.14627  0.43757  1
 Co  Co3  1  0.75000  0.85373  0.56243  1
 Co  Co4  1  0.25000  0.64627  0.06243  1
 Nb  Nb1  1  0.25000  0.52545  0.67206  1
 Nb  Nb2  1  0.25000  0.02545  0.82794  1
 Nb  Nb3  1  0.75000  0.97455  0.17206  1
 Nb  Nb4  1  0.75000  0.47455  0.32794  1
 P  P1  1  0.25000  0.77911  0.37989  1
 P  P2  1  0.25000  0.27911  0.12011  1
 P  P3  1  0.75000  0.22089  0.62011  1
 P  P4  1  0.75000  0.72089  0.87989  1
