CIF file written using JARVIS-Tools package.
data_Sc3P2
_symmetry_space_group_name_H-M  'Pnma'
_cell_length_a       3.78054
_cell_length_b       6.93823
_cell_length_c       14.3838
_cell_angle_alpha    90
_cell_angle_beta     90
_cell_angle_gamma    90

_symmetry_Int_Tables_number  62
_chemical_formula_structural  Sc3P2
_chemical_formula_sum  Sc2P8
_cell_volume  377.2904439839887
_cell_formula_units_Z  4
loop_
  _symmetry_equiv_pos_site_id
 _symmetry_equiv_pos_as_xyz
 1  'x, y, z'
loop_
 _atom_site_type_symbol
 _atom_site_label
 _atom_site_symmetry_multiplicity
 _atom_site_fract_x
 _atom_site_fract_y
 _atom_site_fract_z
 _atom_site_fract_occupancy
 P  P1  1  0.75000  0.86970  0.20530  1
 P  P2  1  0.25000  0.63030  0.70530  1
 P  P3  1  0.75000  0.74106  0.95742  1
 P  P4  1  0.25000  0.25894  0.04258  1
 P  P5  1  0.75000  0.24106  0.54258  1
 P  P6  1  0.25000  0.75894  0.45742  1
 P  P7  1  0.25000  0.13030  0.79470  1
 P  P8  1  0.75000  0.36970  0.29470  1
 Sc  Sc1  1  0.75000  0.34023  0.72236  1
 Sc  Sc2  1  0.25000  0.86459  0.06757  1
 Sc  Sc3  1  0.75000  0.13541  0.93243  1
 Sc  Sc4  1  0.25000  0.65977  0.27764  1
 Sc  Sc5  1  0.75000  0.49304  0.10469  1
 Sc  Sc6  1  0.25000  0.15977  0.22236  1
 Sc  Sc7  1  0.75000  0.84023  0.77764  1
 Sc  Sc8  1  0.25000  0.50696  0.89531  1
 Sc  Sc9  1  0.25000  0.00696  0.60469  1
 Sc  Sc10  1  0.75000  0.99304  0.39531  1
 Sc  Sc11  1  0.25000  0.36459  0.43243  1
 Sc  Sc12  1  0.75000  0.63541  0.56757  1
