CIF file written using JARVIS-Tools package.
data_Te2Os
_symmetry_space_group_name_H-M  'Pa-3'
_cell_length_a       6.49771
_cell_length_b       6.49771
_cell_length_c       6.49771
_cell_angle_alpha    90
_cell_angle_beta     90
_cell_angle_gamma    90

_symmetry_Int_Tables_number  205
_chemical_formula_structural  Te2Os
_chemical_formula_sum  Te8Os4
_cell_volume  274.33499542844953
_cell_formula_units_Z  4
loop_
  _symmetry_equiv_pos_site_id
 _symmetry_equiv_pos_as_xyz
 1  'x, y, z'
loop_
 _atom_site_type_symbol
 _atom_site_label
 _atom_site_symmetry_multiplicity
 _atom_site_fract_x
 _atom_site_fract_y
 _atom_site_fract_z
 _atom_site_fract_occupancy
 Os  Os1  1  0.00000  0.50000  0.50000  1
 Os  Os2  1  0.50000  0.50000  0.00000  1
 Os  Os3  1  0.50000  0.00000  0.50000  1
 Os  Os4  1  0.00000  0.00000  0.00000  1
 Te  Te1  1  0.37201  0.12799  0.87201  1
 Te  Te2  1  0.12799  0.87201  0.37201  1
 Te  Te3  1  0.87201  0.37201  0.12799  1
 Te  Te4  1  0.62799  0.62799  0.62799  1
 Te  Te5  1  0.37201  0.37201  0.37201  1
 Te  Te6  1  0.12799  0.62799  0.87201  1
 Te  Te7  1  0.87201  0.12799  0.62799  1
 Te  Te8  1  0.62799  0.87201  0.12799  1
