CIF file written using JARVIS-Tools package.
data_Er2Fe2Si2C
_symmetry_space_group_name_H-M  'C2/m'
_cell_length_a       3.89517
_cell_length_b       5.60978
_cell_length_c       5.61364
_cell_angle_alpha    73.1074
_cell_angle_beta     69.6998
_cell_angle_gamma    69.6852

_symmetry_Int_Tables_number  12
_chemical_formula_structural  Er2Fe2Si2C
_chemical_formula_sum  Er2Fe2Si2C
_cell_volume  105.85174248443464
_cell_formula_units_Z  1
loop_
  _symmetry_equiv_pos_site_id
 _symmetry_equiv_pos_as_xyz
 1  'x, y, z'
loop_
 _atom_site_type_symbol
 _atom_site_label
 _atom_site_symmetry_multiplicity
 _atom_site_fract_x
 _atom_site_fract_y
 _atom_site_fract_z
 _atom_site_fract_occupancy
 C  C1  1  0.00000  0.00000  0.00000  1
 Er  Er1  1  0.44048  0.82645  0.29259  1
 Er  Er2  1  0.55952  0.17355  0.70741  1
 Fe  Fe1  1  0.79853  0.30662  0.09632  1
 Fe  Fe2  1  0.20147  0.69338  0.90368  1
 Si  Si1  1  0.83954  0.60853  0.71238  1
 Si  Si2  1  0.16046  0.39147  0.28762  1
