CIF file written using JARVIS-Tools package.
data_KPH2O4
_symmetry_space_group_name_H-M  'Fdd2'
_cell_length_a       6.32868
_cell_length_b       6.32868
_cell_length_c       6.29126
_cell_angle_alpha    107.654
_cell_angle_beta     107.654
_cell_angle_gamma    113.394

_symmetry_Int_Tables_number  43
_chemical_formula_structural  KPH2O4
_chemical_formula_sum  K2P2H4O8
_cell_volume  192.7881582594254
_cell_formula_units_Z  2
loop_
  _symmetry_equiv_pos_site_id
 _symmetry_equiv_pos_as_xyz
 1  'x, y, z'
loop_
 _atom_site_type_symbol
 _atom_site_label
 _atom_site_symmetry_multiplicity
 _atom_site_fract_x
 _atom_site_fract_y
 _atom_site_fract_z
 _atom_site_fract_occupancy
 H  H1  1  0.96767  0.39818  0.12401  1
 H  H2  1  0.27416  0.84366  0.87599  1
 H  H3  1  0.14818  0.21767  0.62401  1
 H  H4  1  0.59366  0.52416  0.37599  1
 K  K1  1  0.75085  0.75085  0.00000  1
 K  K2  1  0.50085  0.00085  0.50000  1
 O  O1  1  0.78654  0.52026  0.57112  1
 O  O2  1  0.94914  0.21542  0.42888  1
 O  O3  1  0.27026  0.03654  0.07112  1
 O  O4  1  0.96542  0.19914  0.92888  1
 O  O5  1  0.27314  0.70299  0.73216  1
 O  O6  1  0.97083  0.54098  0.26784  1
 O  O7  1  0.45299  0.52314  0.23216  1
 O  O8  1  0.29098  0.22083  0.76784  1
 P  P1  1  0.23456  0.23456  -0.00000  1
 P  P2  1  0.98456  0.48456  0.50000  1
