CIF file written using JARVIS-Tools package.
data_HgC2S2N2
_symmetry_space_group_name_H-M  'C2/m'
_cell_length_a       3.9724
_cell_length_b       5.81508
_cell_length_c       6.38229
_cell_angle_alpha    93.6277
_cell_angle_beta     89.9722
_cell_angle_gamma    110.027

_symmetry_Int_Tables_number  12
_chemical_formula_structural  HgC2S2N2
_chemical_formula_sum  HgC2S2N2
_cell_volume  138.2018022871415
_cell_formula_units_Z  1
loop_
  _symmetry_equiv_pos_site_id
 _symmetry_equiv_pos_as_xyz
 1  'x, y, z'
loop_
 _atom_site_type_symbol
 _atom_site_label
 _atom_site_symmetry_multiplicity
 _atom_site_fract_x
 _atom_site_fract_y
 _atom_site_fract_z
 _atom_site_fract_occupancy
 C  C1  1  0.73328  0.47582  0.77450  1
 C  C2  1  0.25691  0.52329  0.22609  1
 Hg  Hg1  1  0.99519  -0.00044  0.00030  1
 N  N1  1  0.63660  0.28146  0.84408  1
 N  N2  1  0.35362  0.71764  0.15649  1
 S  S1  1  0.86624  0.74345  0.66930  1
 S  S2  1  0.12393  0.25566  0.33130  1
