CIF file written using JARVIS-Tools package.
data_CoMoP
_symmetry_space_group_name_H-M  'Pnma'
_cell_length_a       3.75151
_cell_length_b       5.82475
_cell_length_c       6.74649
_cell_angle_alpha    90
_cell_angle_beta     90
_cell_angle_gamma    90

_symmetry_Int_Tables_number  62
_chemical_formula_structural  CoMoP
_chemical_formula_sum  Co4Mo4P4
_cell_volume  147.42181173974686
_cell_formula_units_Z  4
loop_
  _symmetry_equiv_pos_site_id
 _symmetry_equiv_pos_as_xyz
 1  'x, y, z'
loop_
 _atom_site_type_symbol
 _atom_site_label
 _atom_site_symmetry_multiplicity
 _atom_site_fract_x
 _atom_site_fract_y
 _atom_site_fract_z
 _atom_site_fract_occupancy
 Co  Co1  1  0.75000  0.64077  0.43257  1
 Co  Co2  1  0.25000  0.85923  0.93257  1
 Co  Co3  1  0.75000  0.14077  0.06743  1
 Co  Co4  1  0.25000  0.35923  0.56743  1
 Mo  Mo1  1  0.25000  0.46816  0.16993  1
 Mo  Mo2  1  0.25000  0.96816  0.33007  1
 Mo  Mo3  1  0.75000  0.03184  0.66993  1
 Mo  Mo4  1  0.75000  0.53184  0.83007  1
 P  P1  1  0.25000  0.73362  0.61905  1
 P  P2  1  0.25000  0.23362  0.88095  1
 P  P3  1  0.75000  0.26638  0.38095  1
 P  P4  1  0.75000  0.76638  0.11905  1
