CIF file written using JARVIS-Tools package.
data_YbBaCdSb2
_symmetry_space_group_name_H-M  'Cmc2_1'
_cell_length_a       4.74233
_cell_length_b       7.39583
_cell_length_c       9.67421
_cell_angle_alpha    90
_cell_angle_beta     75.8122
_cell_angle_gamma    90

_symmetry_Int_Tables_number  36
_chemical_formula_structural  YbBaCdSb2
_chemical_formula_sum  Yb2Ba2Cd2Sb4
_cell_volume  328.95786971396643
_cell_formula_units_Z  2
loop_
  _symmetry_equiv_pos_site_id
 _symmetry_equiv_pos_as_xyz
 1  'x, y, z'
loop_
 _atom_site_type_symbol
 _atom_site_label
 _atom_site_symmetry_multiplicity
 _atom_site_fract_x
 _atom_site_fract_y
 _atom_site_fract_z
 _atom_site_fract_occupancy
 Ba  Ba1  1  0.30242  0.52654  0.39516  1
 Ba  Ba2  1  0.69758  0.02654  0.60484  1
 Cd  Cd1  1  0.90642  0.89247  0.18715  1
 Cd  Cd2  1  0.09358  0.39247  0.81285  1
 Sb  Sb1  1  0.94069  0.50082  0.11861  1
 Sb  Sb2  1  0.33384  0.01381  0.33232  1
 Sb  Sb3  1  0.66616  0.51381  0.66768  1
 Sb  Sb4  1  0.05931  0.00082  0.88138  1
 Yb  Yb1  1  0.48060  0.22221  0.03881  1
 Yb  Yb2  1  0.51940  0.72221  0.96119  1
