CIF file written using JARVIS-Tools package.
data_TmNiGe
_symmetry_space_group_name_H-M  'Pnma'
_cell_length_a       4.19607
_cell_length_b       6.80894
_cell_length_c       7.21861
_cell_angle_alpha    90
_cell_angle_beta     90
_cell_angle_gamma    90

_symmetry_Int_Tables_number  62
_chemical_formula_structural  TmNiGe
_chemical_formula_sum  Tm4Ni4Ge4
_cell_volume  206.24127877845592
_cell_formula_units_Z  4
loop_
  _symmetry_equiv_pos_site_id
 _symmetry_equiv_pos_as_xyz
 1  'x, y, z'
loop_
 _atom_site_type_symbol
 _atom_site_label
 _atom_site_symmetry_multiplicity
 _atom_site_fract_x
 _atom_site_fract_y
 _atom_site_fract_z
 _atom_site_fract_occupancy
 Ge  Ge1  1  0.75000  0.30007  0.91064  1
 Ge  Ge2  1  0.25000  0.19993  0.41064  1
 Ge  Ge3  1  0.25000  0.69993  0.08936  1
 Ge  Ge4  1  0.75000  0.80007  0.58936  1
 Ni  Ni1  1  0.75000  0.19508  0.58118  1
 Ni  Ni2  1  0.25000  0.80492  0.41882  1
 Ni  Ni3  1  0.75000  0.69508  0.91882  1
 Ni  Ni4  1  0.25000  0.30492  0.08118  1
 Tm  Tm1  1  0.25000  0.50728  0.70783  1
 Tm  Tm2  1  0.25000  0.00728  0.79217  1
 Tm  Tm3  1  0.75000  0.99272  0.20783  1
 Tm  Tm4  1  0.75000  0.49272  0.29217  1
