CIF file written using JARVIS-Tools package.
data_Li3HoSb2
_symmetry_space_group_name_H-M  'P-3m1'
_cell_length_a       4.51398
_cell_length_b       4.51398
_cell_length_c       7.12427
_cell_angle_alpha    90
_cell_angle_beta     90
_cell_angle_gamma    120

_symmetry_Int_Tables_number  164
_chemical_formula_structural  Li3HoSb2
_chemical_formula_sum  Li3HoSb2
_cell_volume  125.71602193925138
_cell_formula_units_Z  1
loop_
  _symmetry_equiv_pos_site_id
 _symmetry_equiv_pos_as_xyz
 1  'x, y, z'
loop_
 _atom_site_type_symbol
 _atom_site_label
 _atom_site_symmetry_multiplicity
 _atom_site_fract_x
 _atom_site_fract_y
 _atom_site_fract_z
 _atom_site_fract_occupancy
 Ho  Ho1  1  0.00000  0.00000  0.00000  1
 Li  Li1  1  0.33333  0.66667  0.64959  1
 Li  Li2  1  0.66667  0.33333  0.35041  1
 Li  Li3  1  0.00000  0.00000  0.50000  1
 Sb  Sb1  1  0.33333  0.66667  0.24775  1
 Sb  Sb2  1  0.66667  0.33333  0.75225  1
