CIF file written using JARVIS-Tools package.
data_Yb3N2
_symmetry_space_group_name_H-M  'R-3c'
_cell_length_a       6.07601
_cell_length_b       6.07601
_cell_length_c       6.38174
_cell_angle_alpha    118.427
_cell_angle_beta     61.5724
_cell_angle_gamma    120

_symmetry_Int_Tables_number  167
_chemical_formula_structural  Yb3N2
_chemical_formula_sum  Yb6N4
_cell_volume  170.44515850462855
_cell_formula_units_Z  2
loop_
  _symmetry_equiv_pos_site_id
 _symmetry_equiv_pos_as_xyz
 1  'x, y, z'
loop_
 _atom_site_type_symbol
 _atom_site_label
 _atom_site_symmetry_multiplicity
 _atom_site_fract_x
 _atom_site_fract_y
 _atom_site_fract_z
 _atom_site_fract_occupancy
 N  N1  1  0.64435  0.35565  0.06694  1
 N  N2  1  0.85565  0.14435  0.43306  1
 N  N3  1  0.14435  0.85565  0.56694  1
 N  N4  1  0.35565  0.64436  0.93306  1
 Yb  Yb1  1  0.25000  0.04502  0.25000  1
 Yb  Yb2  1  0.95498  0.45498  0.25000  1
 Yb  Yb3  1  0.54502  0.75000  0.25000  1
 Yb  Yb4  1  0.45498  0.25000  0.75000  1
 Yb  Yb5  1  0.04502  0.54502  0.75000  1
 Yb  Yb6  1  0.75000  0.95498  0.75000  1
