CIF file written using JARVIS-Tools package.
data_Mn2VSi
_symmetry_space_group_name_H-M  'Fm-3m'
_cell_length_a       4.00884
_cell_length_b       4.00884
_cell_length_c       4.00884
_cell_angle_alpha    60
_cell_angle_beta     60
_cell_angle_gamma    60

_symmetry_Int_Tables_number  225
_chemical_formula_structural  Mn2VSi
_chemical_formula_sum  Mn2VSi
_cell_volume  45.55549782560592
_cell_formula_units_Z  1
loop_
  _symmetry_equiv_pos_site_id
 _symmetry_equiv_pos_as_xyz
 1  'x, y, z'
loop_
 _atom_site_type_symbol
 _atom_site_label
 _atom_site_symmetry_multiplicity
 _atom_site_fract_x
 _atom_site_fract_y
 _atom_site_fract_z
 _atom_site_fract_occupancy
 Mn  Mn1  1  0.00000  0.00000  0.00000  1
 Mn  Mn2  1  0.50000  0.50000  0.50000  1
 Si  Si1  1  0.25000  0.25000  0.25000  1
 V  V1  1  0.75000  0.75000  0.75000  1
