CIF file written using JARVIS-Tools package.
data_Pr2AlCo2
_symmetry_space_group_name_H-M  'C2/c'
_cell_length_a       5.59103
_cell_length_b       5.59103
_cell_length_c       7.63939
_cell_angle_alpha    78.2769
_cell_angle_beta     78.2769
_cell_angle_gamma    60.7774

_symmetry_Int_Tables_number  15
_chemical_formula_structural  Pr2AlCo2
_chemical_formula_sum  Pr4Al2Co4
_cell_volume  202.54809267330631
_cell_formula_units_Z  2
loop_
  _symmetry_equiv_pos_site_id
 _symmetry_equiv_pos_as_xyz
 1  'x, y, z'
loop_
 _atom_site_type_symbol
 _atom_site_label
 _atom_site_symmetry_multiplicity
 _atom_site_fract_x
 _atom_site_fract_y
 _atom_site_fract_z
 _atom_site_fract_occupancy
 Al  Al1  1  0.88182  0.11818  0.25000  1
 Al  Al2  1  0.11818  0.88182  0.75000  1
 Co  Co1  1  0.00084  0.28641  0.49504  1
 Co  Co2  1  0.71359  0.99916  0.00496  1
 Co  Co3  1  0.28641  0.00084  0.99504  1
 Co  Co4  1  0.99916  0.71359  0.50496  1
 Pr  Pr1  1  0.21081  0.49774  0.14630  1
 Pr  Pr2  1  0.50226  0.78919  0.35370  1
 Pr  Pr3  1  0.78919  0.50226  0.85370  1
 Pr  Pr4  1  0.49774  0.21081  0.64630  1
