CIF file written using JARVIS-Tools package.
data_Fe3O4
_symmetry_space_group_name_H-M  'Fd-3m'
_cell_length_a       5.67278
_cell_length_b       5.67278
_cell_length_c       5.67342
_cell_angle_alpha    120.004
_cell_angle_beta     90
_cell_angle_gamma    60.0074

_symmetry_Int_Tables_number  227
_chemical_formula_structural  Fe3O4
_chemical_formula_sum  Fe6O8
_cell_volume  129.1055475514883
_cell_formula_units_Z  2
loop_
  _symmetry_equiv_pos_site_id
 _symmetry_equiv_pos_as_xyz
 1  'x, y, z'
loop_
 _atom_site_type_symbol
 _atom_site_label
 _atom_site_symmetry_multiplicity
 _atom_site_fract_x
 _atom_site_fract_y
 _atom_site_fract_z
 _atom_site_fract_occupancy
 Fe  Fe1  1  0.50000  0.50000  0.50000  1
 Fe  Fe2  1  0.50000  0.50000  0.00000  1
 Fe  Fe3  1  0.00000  0.00000  0.50000  1
 Fe  Fe4  1  0.50000  -0.00000  0.50000  1
 Fe  Fe5  1  0.12499  0.24999  0.12499  1
 Fe  Fe6  1  0.87501  0.75001  0.87501  1
 O  O1  1  0.74178  0.01644  0.27467  1
 O  O2  1  0.72533  0.51645  0.25822  1
 O  O3  1  0.25823  0.51646  0.25823  1
 O  O4  1  0.27467  0.48355  0.74178  1
 O  O5  1  0.25822  0.98356  0.25822  1
 O  O6  1  0.74177  0.48354  0.74177  1
 O  O7  1  0.25822  0.98356  0.72533  1
 O  O8  1  0.74178  0.01644  0.74178  1
