CIF file written using JARVIS-Tools package.
data_KIn2Au4
_symmetry_space_group_name_H-M  'I4/mcm'
_cell_length_a       7.54903
_cell_length_b       7.54902
_cell_length_c       7.54903
_cell_angle_alpha    108.452
_cell_angle_beta     108.452
_cell_angle_gamma    111.529

_symmetry_Int_Tables_number  140
_chemical_formula_structural  KIn2Au4
_chemical_formula_sum  K2In4Au8
_cell_volume  330.848322387972
_cell_formula_units_Z  2
loop_
  _symmetry_equiv_pos_site_id
 _symmetry_equiv_pos_as_xyz
 1  'x, y, z'
loop_
 _atom_site_type_symbol
 _atom_site_label
 _atom_site_symmetry_multiplicity
 _atom_site_fract_x
 _atom_site_fract_y
 _atom_site_fract_z
 _atom_site_fract_occupancy
 Au  Au1  1  0.51341  0.31633  0.50000  1
 Au  Au2  1  0.31633  0.81633  0.80292  1
 Au  Au3  1  0.81633  0.01341  0.50000  1
 Au  Au4  1  0.01341  0.51341  0.19708  1
 Au  Au5  1  0.68367  0.18367  0.19708  1
 Au  Au6  1  0.18367  0.98659  0.50000  1
 Au  Au7  1  0.48659  0.68367  0.50000  1
 Au  Au8  1  0.98659  0.48659  0.80292  1
 In  In1  1  0.35560  0.85560  0.21120  1
 In  In2  1  0.85560  0.64440  0.50000  1
 In  In3  1  0.14440  0.35560  0.50000  1
 In  In4  1  0.64440  0.14440  0.78880  1
 K  K1  1  0.75000  0.75000  0.00000  1
 K  K2  1  0.25000  0.25000  0.00000  1
