CIF file written using JARVIS-Tools package.
data_ErGeIr
_symmetry_space_group_name_H-M  'Pnma'
_cell_length_a       4.28801
_cell_length_b       6.79997
_cell_length_c       7.61158
_cell_angle_alpha    90
_cell_angle_beta     90
_cell_angle_gamma    90

_symmetry_Int_Tables_number  62
_chemical_formula_structural  ErGeIr
_chemical_formula_sum  Er4Ge4Ir4
_cell_volume  221.94147140377117
_cell_formula_units_Z  4
loop_
  _symmetry_equiv_pos_site_id
 _symmetry_equiv_pos_as_xyz
 1  'x, y, z'
loop_
 _atom_site_type_symbol
 _atom_site_label
 _atom_site_symmetry_multiplicity
 _atom_site_fract_x
 _atom_site_fract_y
 _atom_site_fract_z
 _atom_site_fract_occupancy
 Er  Er1  1  0.75000  0.49371  0.80718  1
 Er  Er2  1  0.25000  0.00629  0.30718  1
 Er  Er3  1  0.75000  0.99371  0.69282  1
 Er  Er4  1  0.25000  0.50629  0.19282  1
 Ge  Ge1  1  0.25000  0.79002  0.89030  1
 Ge  Ge2  1  0.25000  0.29002  0.60970  1
 Ge  Ge3  1  0.75000  0.20998  0.10970  1
 Ge  Ge4  1  0.75000  0.70998  0.39030  1
 Ir  Ir1  1  0.25000  0.66546  0.56692  1
 Ir  Ir2  1  0.25000  0.16546  0.93308  1
 Ir  Ir3  1  0.75000  0.83454  0.06692  1
 Ir  Ir4  1  0.75000  0.33454  0.43308  1
