CIF file written using JARVIS-Tools package.
data_MgH2SO5
_symmetry_space_group_name_H-M  'C2/c'
_cell_length_a       5.17016
_cell_length_b       5.17016
_cell_length_c       7.52243
_cell_angle_alpha    107.02
_cell_angle_beta     107.02
_cell_angle_gamma    97.7473

_symmetry_Int_Tables_number  15
_chemical_formula_structural  MgH2SO5
_chemical_formula_sum  Mg2H4S2O0
_cell_volume  178.42448337230243
_cell_formula_units_Z  2
loop_
  _symmetry_equiv_pos_site_id
 _symmetry_equiv_pos_as_xyz
 1  'x, y, z'
loop_
 _atom_site_type_symbol
 _atom_site_label
 _atom_site_symmetry_multiplicity
 _atom_site_fract_x
 _atom_site_fract_y
 _atom_site_fract_z
 _atom_site_fract_occupancy
 H  H1  1  0.63100  0.04749  0.20486  1
 H  H2  1  0.45251  0.86900  0.29514  1
 H  H3  1  0.36900  0.95251  0.79514  1
 H  H4  1  0.54749  0.13100  0.70486  1
 Mg  Mg1  1  -0.00000  -0.00000  0.50000  1
 Mg  Mg2  1  0.50000  0.50000  -0.00000  1
 O  O1  1  0.82609  0.72082  0.59999  1
 O  O2  1  0.77918  0.67391  0.90001  1
 O  O3  1  0.61679  0.88321  0.25000  1
 O  O4  1  0.38321  0.11679  0.75000  1
 O  O5  1  0.17567  0.72008  0.34567  1
 O  O6  1  0.17391  0.27918  0.40001  1
 O  O7  1  0.82433  0.27992  0.65433  1
 O  O8  1  0.22082  0.32609  0.09999  1
 O  O9  1  0.77992  0.32433  0.15433  1
 O  O10  1  0.22008  0.67567  0.84567  1
 S  S1  1  0.09014  0.40986  0.25000  1
 S  S2  1  0.90986  0.59014  0.75000  1
