CIF file written using JARVIS-Tools package.
data_ZrFe4Si2
_symmetry_space_group_name_H-M  'P4_2/mnm'
_cell_length_a       6.96438
_cell_length_b       6.96438
_cell_length_c       3.64593
_cell_angle_alpha    90
_cell_angle_beta     90
_cell_angle_gamma    90

_symmetry_Int_Tables_number  136
_chemical_formula_structural  ZrFe4Si2
_chemical_formula_sum  Zr2Fe8Si4
_cell_volume  176.8372241222658
_cell_formula_units_Z  2
loop_
  _symmetry_equiv_pos_site_id
 _symmetry_equiv_pos_as_xyz
 1  'x, y, z'
loop_
 _atom_site_type_symbol
 _atom_site_label
 _atom_site_symmetry_multiplicity
 _atom_site_fract_x
 _atom_site_fract_y
 _atom_site_fract_z
 _atom_site_fract_occupancy
 Fe  Fe1  1  0.58244  0.14987  0.50000  1
 Fe  Fe2  1  0.41756  0.85013  0.50000  1
 Fe  Fe3  1  0.14987  0.58244  0.50000  1
 Fe  Fe4  1  0.85013  0.41756  0.50000  1
 Fe  Fe5  1  0.08244  0.35013  0.00000  1
 Fe  Fe6  1  0.91756  0.64987  0.00000  1
 Fe  Fe7  1  0.64987  0.91756  0.00000  1
 Fe  Fe8  1  0.35013  0.08244  0.00000  1
 Si  Si1  1  0.21867  0.78133  0.00000  1
 Si  Si2  1  0.28133  0.28133  0.50000  1
 Si  Si3  1  0.71867  0.71867  0.50000  1
 Si  Si4  1  0.78133  0.21867  0.00000  1
 Zr  Zr1  1  0.50000  0.50000  0.00000  1
 Zr  Zr2  1  0.00000  0.00000  0.50000  1
