CIF file written using JARVIS-Tools package.
data_Te2MoWSeS
_symmetry_space_group_name_H-M  'P3m1'
_cell_length_a       3.40466
_cell_length_b       3.40465
_cell_length_c       37.3262
_cell_angle_alpha    90.0006
_cell_angle_beta     90
_cell_angle_gamma    120

_symmetry_Int_Tables_number  156
_chemical_formula_structural  Te2MoWSeS
_chemical_formula_sum  Te4Mo2W2Se2S2
_cell_volume  374.70608967809926
_cell_formula_units_Z  2
loop_
  _symmetry_equiv_pos_site_id
 _symmetry_equiv_pos_as_xyz
 1  'x, y, z'
loop_
 _atom_site_type_symbol
 _atom_site_label
 _atom_site_symmetry_multiplicity
 _atom_site_fract_x
 _atom_site_fract_y
 _atom_site_fract_z
 _atom_site_fract_occupancy
 Mo  Mo1  1  0.33330  0.66660  0.09491  1
 Mo  Mo2  1  0.33334  0.66668  0.47479  1
 S  S1  1  0.33324  0.66648  0.69519  1
 S  S2  1  0.33346  0.66693  0.61440  1
 Se  Se1  1  0.66653  0.33307  0.05083  1
 Se  Se2  1  0.66673  0.33346  0.13909  1
 Te  Te1  1  0.33336  0.66672  0.32886  1
 Te  Te2  1  0.66665  0.33331  0.42452  1
 Te  Te3  1  0.66669  0.33338  0.52509  1
 Te  Te4  1  0.33333  0.66666  0.22788  1
 W  W1  1  0.66668  0.33336  0.27835  1
 W  W2  1  0.66668  0.33337  0.65482  1
