CIF file written using JARVIS-Tools package.
data_P10Au7I
_symmetry_space_group_name_H-M  'P-31m'
_cell_length_a       6.27941
_cell_length_b       6.27941
_cell_length_c       11.2242
_cell_angle_alpha    90
_cell_angle_beta     90
_cell_angle_gamma    120

_symmetry_Int_Tables_number  162
_chemical_formula_structural  P10Au7I
_chemical_formula_sum  P0Au7I
_cell_volume  383.2865633174807
_cell_formula_units_Z  1
loop_
  _symmetry_equiv_pos_site_id
 _symmetry_equiv_pos_as_xyz
 1  'x, y, z'
loop_
 _atom_site_type_symbol
 _atom_site_label
 _atom_site_symmetry_multiplicity
 _atom_site_fract_x
 _atom_site_fract_y
 _atom_site_fract_z
 _atom_site_fract_occupancy
 Au  Au1  1  -0.00000  0.50000  0.00000  1
 Au  Au2  1  0.00000  0.00000  0.22222  1
 Au  Au3  1  0.66667  0.33333  0.50000  1
 Au  Au4  1  0.50000  -0.00000  0.00000  1
 Au  Au5  1  0.00000  0.00000  0.77778  1
 Au  Au6  1  0.50000  0.50000  0.00000  1
 Au  Au7  1  0.33333  0.66667  0.50000  1
 I  I1  1  0.00000  0.00000  0.50000  1
 P  P1  1  0.66667  0.33333  0.29244  1
 P  P2  1  0.00000  0.37466  0.19871  1
 P  P3  1  0.37466  0.00000  0.19871  1
 P  P4  1  0.33333  0.66667  0.29244  1
 P  P5  1  0.62534  0.62534  0.19871  1
 P  P6  1  0.62534  -0.00000  0.80129  1
 P  P7  1  0.33333  0.66667  0.70756  1
 P  P8  1  0.37466  0.37466  0.80129  1
 P  P9  1  -0.00000  0.62534  0.80129  1
 P  P10  1  0.66667  0.33333  0.70756  1
