CIF file written using JARVIS-Tools package.
data_Zr2CoTc
_symmetry_space_group_name_H-M  'Fm-3m'
_cell_length_a       4.57466
_cell_length_b       4.57466
_cell_length_c       4.57466
_cell_angle_alpha    60
_cell_angle_beta     60
_cell_angle_gamma    60

_symmetry_Int_Tables_number  225
_chemical_formula_structural  Zr2CoTc
_chemical_formula_sum  Zr2CoTc
_cell_volume  67.69565436580484
_cell_formula_units_Z  1
loop_
  _symmetry_equiv_pos_site_id
 _symmetry_equiv_pos_as_xyz
 1  'x, y, z'
loop_
 _atom_site_type_symbol
 _atom_site_label
 _atom_site_symmetry_multiplicity
 _atom_site_fract_x
 _atom_site_fract_y
 _atom_site_fract_z
 _atom_site_fract_occupancy
 Co  Co1  1  0.25000  0.25000  0.25000  1
 Tc  Tc1  1  0.75000  0.75000  0.75000  1
 Zr  Zr1  1  0.00000  0.00000  0.00000  1
 Zr  Zr2  1  0.50000  0.50000  0.50000  1
