CIF file written using JARVIS-Tools package.
data_TbCoGe
_symmetry_space_group_name_H-M  'Pnma'
_cell_length_a       4.26461
_cell_length_b       6.93947
_cell_length_c       7.1005
_cell_angle_alpha    90
_cell_angle_beta     90
_cell_angle_gamma    90

_symmetry_Int_Tables_number  62
_chemical_formula_structural  TbCoGe
_chemical_formula_sum  Tb4Co4Ge4
_cell_volume  210.13349957494947
_cell_formula_units_Z  4
loop_
  _symmetry_equiv_pos_site_id
 _symmetry_equiv_pos_as_xyz
 1  'x, y, z'
loop_
 _atom_site_type_symbol
 _atom_site_label
 _atom_site_symmetry_multiplicity
 _atom_site_fract_x
 _atom_site_fract_y
 _atom_site_fract_z
 _atom_site_fract_occupancy
 Co  Co1  1  0.75000  0.34513  0.93075  1
 Co  Co2  1  0.25000  0.15487  0.43075  1
 Co  Co3  1  0.75000  0.84513  0.56925  1
 Co  Co4  1  0.25000  0.65487  0.06925  1
 Ge  Ge1  1  0.25000  0.79993  0.39849  1
 Ge  Ge2  1  0.75000  0.70007  0.89849  1
 Ge  Ge3  1  0.25000  0.29993  0.10151  1
 Ge  Ge4  1  0.75000  0.20007  0.60151  1
 Tb  Tb1  1  0.25000  0.48523  0.69516  1
 Tb  Tb2  1  0.75000  0.51477  0.30484  1
 Tb  Tb3  1  0.25000  0.98523  0.80484  1
 Tb  Tb4  1  0.75000  0.01477  0.19516  1
