CIF file written using JARVIS-Tools package.
data_RbB6H6
_symmetry_space_group_name_H-M  'Fm-3'
_cell_length_a       7.59502
_cell_length_b       7.59502
_cell_length_c       7.59502
_cell_angle_alpha    60
_cell_angle_beta     60
_cell_angle_gamma    60

_symmetry_Int_Tables_number  202
_chemical_formula_structural  RbB6H6
_chemical_formula_sum  Rb2B2H2
_cell_volume  309.7929162350089
_cell_formula_units_Z  2
loop_
  _symmetry_equiv_pos_site_id
 _symmetry_equiv_pos_as_xyz
 1  'x, y, z'
loop_
 _atom_site_type_symbol
 _atom_site_label
 _atom_site_symmetry_multiplicity
 _atom_site_fract_x
 _atom_site_fract_y
 _atom_site_fract_z
 _atom_site_fract_occupancy
 B  B1  1  0.94820  0.21672  0.78328  1
 B  B2  1  0.78328  0.05180  0.94820  1
 B  B3  1  0.21672  0.05180  0.78328  1
 B  B4  1  0.05180  0.94820  0.78328  1
 B  B5  1  0.78328  0.94820  0.21672  1
 B  B6  1  0.78328  0.21672  0.05180  1
 B  B7  1  0.94820  0.78328  0.05180  1
 B  B8  1  0.05180  0.21672  0.94820  1
 B  B9  1  0.21672  0.94820  0.05180  1
 B  B10  1  0.05180  0.78328  0.21672  1
 B  B11  1  0.21672  0.78328  0.94820  1
 B  B12  1  0.94820  0.05180  0.21672  1
 H  H1  1  0.90873  0.62962  0.09127  1
 H  H2  1  0.37038  0.09127  0.62962  1
 H  H3  1  0.62962  0.09127  0.90873  1
 H  H4  1  0.09127  0.90873  0.62962  1
 H  H5  1  0.62962  0.90873  0.37038  1
 H  H6  1  0.62962  0.37038  0.09127  1
 H  H7  1  0.90873  0.37038  0.62962  1
 H  H8  1  0.09127  0.37038  0.90873  1
 H  H9  1  0.37038  0.90873  0.09127  1
 H  H10  1  0.09127  0.62962  0.37038  1
 H  H11  1  0.37038  0.62962  0.90873  1
 H  H12  1  0.90873  0.09127  0.37038  1
 Rb  Rb1  1  0.75000  0.75000  0.75000  1
 Rb  Rb2  1  0.25000  0.25000  0.25000  1
