CIF file written using JARVIS-Tools package.
data_Te2Mo3WSe4S2
_symmetry_space_group_name_H-M  'P3m1'
_cell_length_a       3.35038
_cell_length_b       3.35021
_cell_length_c       34.9393
_cell_angle_alpha    90.0494
_cell_angle_beta     90.0455
_cell_angle_gamma    120

_symmetry_Int_Tables_number  156
_chemical_formula_structural  Te2Mo3WSe4S2
_chemical_formula_sum  Te2Mo3WSe4S2
_cell_volume  339.6320903346309
_cell_formula_units_Z  1
loop_
  _symmetry_equiv_pos_site_id
 _symmetry_equiv_pos_as_xyz
 1  'x, y, z'
loop_
 _atom_site_type_symbol
 _atom_site_label
 _atom_site_symmetry_multiplicity
 _atom_site_fract_x
 _atom_site_fract_y
 _atom_site_fract_z
 _atom_site_fract_occupancy
 Mo  Mo1  1  0.33372  0.66644  0.08485  1
 Mo  Mo2  1  0.33309  0.66680  0.47652  1
 Mo  Mo3  1  0.66658  0.33333  0.66430  1
 S  S1  1  0.66616  0.33192  0.04149  1
 S  S2  1  0.66783  0.33407  0.12828  1
 Se  Se1  1  0.33399  0.66751  0.71191  1
 Se  Se2  1  0.66565  0.33251  0.42884  1
 Se  Se3  1  0.66710  0.33426  0.52417  1
 Se  Se4  1  0.33247  0.66572  0.61665  1
 Te  Te1  1  0.33453  0.66751  0.33195  1
 Te  Te2  1  0.33221  0.66636  0.22252  1
 W  W1  1  0.66668  0.33358  0.27725  1
