CIF file written using JARVIS-Tools package.
data_PaSb2
_symmetry_space_group_name_H-M  'P4/nmm'
_cell_length_a       4.3373
_cell_length_b       4.3373
_cell_length_c       8.80276
_cell_angle_alpha    90
_cell_angle_beta     90
_cell_angle_gamma    90

_symmetry_Int_Tables_number  129
_chemical_formula_structural  PaSb2
_chemical_formula_sum  Pa2Sb4
_cell_volume  165.59902013297855
_cell_formula_units_Z  2
loop_
  _symmetry_equiv_pos_site_id
 _symmetry_equiv_pos_as_xyz
 1  'x, y, z'
loop_
 _atom_site_type_symbol
 _atom_site_label
 _atom_site_symmetry_multiplicity
 _atom_site_fract_x
 _atom_site_fract_y
 _atom_site_fract_z
 _atom_site_fract_occupancy
 Pa  Pa1  1  0.50000  0.00000  0.72459  1
 Pa  Pa2  1  0.00000  0.50000  0.27541  1
 Sb  Sb1  1  0.50000  0.00000  0.36285  1
 Sb  Sb2  1  0.00000  0.50000  0.63715  1
 Sb  Sb3  1  0.50000  0.50000  0.00000  1
 Sb  Sb4  1  0.00000  0.00000  0.00000  1
