CIF file written using JARVIS-Tools package.
data_KTeOF3
_symmetry_space_group_name_H-M  'P2_1'
_cell_length_a       5.8899
_cell_length_b       4.70036
_cell_length_c       7.83701
_cell_angle_alpha    90
_cell_angle_beta     89.8281
_cell_angle_gamma    90

_symmetry_Int_Tables_number  4
_chemical_formula_structural  KTeOF3
_chemical_formula_sum  K2Te2O2F6
_cell_volume  216.9644097587108
_cell_formula_units_Z  2
loop_
  _symmetry_equiv_pos_site_id
 _symmetry_equiv_pos_as_xyz
 1  'x, y, z'
loop_
 _atom_site_type_symbol
 _atom_site_label
 _atom_site_symmetry_multiplicity
 _atom_site_fract_x
 _atom_site_fract_y
 _atom_site_fract_z
 _atom_site_fract_occupancy
 F  F1  1  0.58161  -0.00734  0.06058  1
 F  F2  1  0.10048  0.27948  0.13935  1
 F  F3  1  0.89952  0.77948  0.86065  1
 F  F4  1  0.00473  0.70392  0.34254  1
 F  F5  1  -0.00473  0.20392  0.65746  1
 F  F6  1  0.41839  0.49266  -0.06058  1
 K  K1  1  0.25571  0.65417  0.63195  1
 K  K2  1  0.74429  0.15417  0.36805  1
 O  O1  1  0.54319  0.07463  0.68818  1
 O  O2  1  0.45681  0.57463  0.31182  1
 Te  Te1  1  0.75087  0.16214  0.84974  1
 Te  Te2  1  0.24913  0.66214  0.15026  1
