CIF file written using JARVIS-Tools package.
data_K3YF6
_symmetry_space_group_name_H-M  'P2_1/c'
_cell_length_a       6.30501
_cell_length_b       6.60031
_cell_length_c       10.8357
_cell_angle_alpha    90
_cell_angle_beta     124.142
_cell_angle_gamma    90

_symmetry_Int_Tables_number  14
_chemical_formula_structural  K3YF6
_chemical_formula_sum  K6Y2F2
_cell_volume  373.2083229183794
_cell_formula_units_Z  2
loop_
  _symmetry_equiv_pos_site_id
 _symmetry_equiv_pos_as_xyz
 1  'x, y, z'
loop_
 _atom_site_type_symbol
 _atom_site_label
 _atom_site_symmetry_multiplicity
 _atom_site_fract_x
 _atom_site_fract_y
 _atom_site_fract_z
 _atom_site_fract_occupancy
 F  F1  1  0.33235  0.32238  0.55174  1
 F  F2  1  0.89636  0.93811  0.77423  1
 F  F3  1  0.66765  0.67762  0.44826  1
 F  F4  1  0.10364  0.06189  0.22577  1
 F  F5  1  0.89636  0.56189  0.27423  1
 F  F6  1  0.10364  0.43811  0.72577  1
 F  F7  1  0.75487  0.22985  0.42451  1
 F  F8  1  0.75487  0.27015  0.92451  1
 F  F9  1  0.24513  0.77015  0.57549  1
 F  F10  1  0.33235  0.17762  0.05174  1
 F  F11  1  0.66765  0.82238  0.94826  1
 F  F12  1  0.24513  0.72985  0.07549  1
 K  K1  1  0.50000  0.50000  0.00000  1
 K  K2  1  0.50000  0.00000  0.50000  1
 K  K3  1  0.72402  0.55726  0.74413  1
 K  K4  1  0.27598  0.05726  0.75587  1
 K  K5  1  0.27598  0.44274  0.25587  1
 K  K6  1  0.72402  0.94274  0.24413  1
 Y  Y1  1  0.00000  0.00000  0.00000  1
 Y  Y2  1  0.00000  0.50000  0.50000  1
