CIF file written using JARVIS-Tools package.
data_YNiSn
_symmetry_space_group_name_H-M  'Pnma'
_cell_length_a       4.47301
_cell_length_b       7.15046
_cell_length_c       7.66905
_cell_angle_alpha    90
_cell_angle_beta     90
_cell_angle_gamma    90

_symmetry_Int_Tables_number  62
_chemical_formula_structural  YNiSn
_chemical_formula_sum  Y4Ni4Sn4
_cell_volume  245.2875220587366
_cell_formula_units_Z  4
loop_
  _symmetry_equiv_pos_site_id
 _symmetry_equiv_pos_as_xyz
 1  'x, y, z'
loop_
 _atom_site_type_symbol
 _atom_site_label
 _atom_site_symmetry_multiplicity
 _atom_site_fract_x
 _atom_site_fract_y
 _atom_site_fract_z
 _atom_site_fract_occupancy
 Ni  Ni1  1  0.75000  0.79937  0.08454  1
 Ni  Ni2  1  0.25000  0.20063  0.91546  1
 Ni  Ni3  1  0.75000  0.29937  0.41546  1
 Ni  Ni4  1  0.25000  0.70063  0.58454  1
 Sn  Sn1  1  0.25000  0.80848  0.91260  1
 Sn  Sn2  1  0.25000  0.30848  0.58740  1
 Sn  Sn3  1  0.75000  0.69152  0.41260  1
 Sn  Sn4  1  0.75000  0.19152  0.08740  1
 Y  Y1  1  0.75000  0.51286  0.79711  1
 Y  Y2  1  0.25000  0.98714  0.29711  1
 Y  Y3  1  0.25000  0.48714  0.20289  1
 Y  Y4  1  0.75000  0.01286  0.70289  1
