CIF file written using JARVIS-Tools package.
data_VCoB3
_symmetry_space_group_name_H-M  'Cmcm'
_cell_length_a       2.97975
_cell_length_b       3.02988
_cell_length_c       8.86566
_cell_angle_alpha    99.8388
_cell_angle_beta     90
_cell_angle_gamma    90

_symmetry_Int_Tables_number  63
_chemical_formula_structural  VCoB3
_chemical_formula_sum  V2Co2B6
_cell_volume  78.864346828118
_cell_formula_units_Z  2
loop_
  _symmetry_equiv_pos_site_id
 _symmetry_equiv_pos_as_xyz
 1  'x, y, z'
loop_
 _atom_site_type_symbol
 _atom_site_label
 _atom_site_symmetry_multiplicity
 _atom_site_fract_x
 _atom_site_fract_y
 _atom_site_fract_z
 _atom_site_fract_occupancy
 B  B1  1  0.25000  0.37527  0.75054  1
 B  B2  1  0.75000  0.62473  0.24946  1
 B  B3  1  0.25000  0.47501  0.95003  1
 B  B4  1  0.75000  0.52499  0.04997  1
 B  B5  1  0.75000  0.32103  0.64206  1
 B  B6  1  0.25000  0.67897  0.35794  1
 Co  Co1  1  0.25000  0.79594  0.59188  1
 Co  Co2  1  0.75000  0.20406  0.40812  1
 V  V1  1  0.25000  0.07445  0.14889  1
 V  V2  1  0.75000  0.92555  0.85111  1
