CIF file written using JARVIS-Tools package.
data_TeMoWSe3
_symmetry_space_group_name_H-M  'P3m1'
_cell_length_a       3.38196
_cell_length_b       3.38193
_cell_length_c       38.3535
_cell_angle_alpha    90.0003
_cell_angle_beta     90
_cell_angle_gamma    120

_symmetry_Int_Tables_number  156
_chemical_formula_structural  TeMoWSe3
_chemical_formula_sum  Te2Mo2W2Se6
_cell_volume  379.8987882026324
_cell_formula_units_Z  2
loop_
  _symmetry_equiv_pos_site_id
 _symmetry_equiv_pos_as_xyz
 1  'x, y, z'
loop_
 _atom_site_type_symbol
 _atom_site_label
 _atom_site_symmetry_multiplicity
 _atom_site_fract_x
 _atom_site_fract_y
 _atom_site_fract_z
 _atom_site_fract_occupancy
 Mo  Mo1  1  0.33331  0.66661  0.09392  1
 Mo  Mo2  1  0.66669  0.33338  0.65756  1
 Se  Se1  1  0.33335  0.66671  0.32510  1
 Se  Se2  1  0.66664  0.33327  0.05092  1
 Se  Se3  1  0.66665  0.33330  0.42635  1
 Se  Se4  1  0.66665  0.33329  0.13703  1
 Se  Se5  1  0.66665  0.33330  0.51294  1
 Se  Se6  1  0.33335  0.66671  0.23850  1
 Te  Te1  1  0.33336  0.66672  0.70645  1
 Te  Te2  1  0.33336  0.66671  0.60854  1
 W  W1  1  0.33331  0.66663  0.46964  1
 W  W2  1  0.66669  0.33338  0.28180  1
