CIF file written using JARVIS-Tools package.
data_NiP2
_symmetry_space_group_name_H-M  'Pa-3'
_cell_length_a       5.49927
_cell_length_b       5.49927
_cell_length_c       5.49927
_cell_angle_alpha    90
_cell_angle_beta     90
_cell_angle_gamma    90

_symmetry_Int_Tables_number  205
_chemical_formula_structural  NiP2
_chemical_formula_sum  Ni4P8
_cell_volume  166.30889491797583
_cell_formula_units_Z  4
loop_
  _symmetry_equiv_pos_site_id
 _symmetry_equiv_pos_as_xyz
 1  'x, y, z'
loop_
 _atom_site_type_symbol
 _atom_site_label
 _atom_site_symmetry_multiplicity
 _atom_site_fract_x
 _atom_site_fract_y
 _atom_site_fract_z
 _atom_site_fract_occupancy
 Ni  Ni1  1  0.00000  0.50000  0.50000  1
 Ni  Ni2  1  0.50000  0.50000  0.00000  1
 Ni  Ni3  1  0.50000  0.00000  0.50000  1
 Ni  Ni4  1  0.00000  0.00000  0.00000  1
 P  P1  1  0.38439  0.11561  0.88439  1
 P  P2  1  0.11561  0.88439  0.38439  1
 P  P3  1  0.88439  0.38439  0.11561  1
 P  P4  1  0.61561  0.61561  0.61561  1
 P  P5  1  0.38439  0.38439  0.38439  1
 P  P6  1  0.11561  0.61561  0.88439  1
 P  P7  1  0.88439  0.11561  0.61561  1
 P  P8  1  0.61561  0.88439  0.11561  1
