CIF file written using JARVIS-Tools package.
data_UAl10Fe2
_symmetry_space_group_name_H-M  'Cmcm'
_cell_length_a       6.73881
_cell_length_b       6.73881
_cell_length_c       8.97566
_cell_angle_alpha    90
_cell_angle_beta     90
_cell_angle_gamma    98.0972

_symmetry_Int_Tables_number  63
_chemical_formula_structural  UAl10Fe2
_chemical_formula_sum  U2Al20Fe4
_cell_volume  403.5350148201557
_cell_formula_units_Z  2
loop_
  _symmetry_equiv_pos_site_id
 _symmetry_equiv_pos_as_xyz
 1  'x, y, z'
loop_
 _atom_site_type_symbol
 _atom_site_label
 _atom_site_symmetry_multiplicity
 _atom_site_fract_x
 _atom_site_fract_y
 _atom_site_fract_z
 _atom_site_fract_occupancy
 Al  Al1  1  0.22384  0.22384  0.00000  1
 Al  Al2  1  0.52237  0.78074  0.25000  1
 Al  Al3  1  0.21926  0.47763  0.25000  1
 Al  Al4  1  0.78074  0.52237  0.75000  1
 Al  Al5  1  0.84501  0.15499  0.90195  1
 Al  Al6  1  0.15499  0.84501  0.40195  1
 Al  Al7  1  0.77616  0.77616  0.00000  1
 Al  Al8  1  0.22384  0.22384  0.50000  1
 Al  Al9  1  0.77616  0.77616  0.50000  1
 Al  Al10  1  0.62725  0.37275  0.45212  1
 Al  Al11  1  0.47763  0.21926  0.75000  1
 Al  Al12  1  0.62725  0.37275  0.04788  1
 Al  Al13  1  0.13550  0.41201  0.75000  1
 Al  Al14  1  0.86450  0.58799  0.25000  1
 Al  Al15  1  0.41201  0.13550  0.25000  1
 Al  Al16  1  0.58799  0.86450  0.75000  1
 Al  Al17  1  0.84501  0.15499  0.59805  1
 Al  Al18  1  0.15499  0.84501  0.09805  1
 Al  Al19  1  0.37275  0.62725  0.95212  1
 Al  Al20  1  0.37275  0.62725  0.54788  1
 Fe  Fe1  1  -0.00000  0.50000  0.50000  1
 Fe  Fe2  1  -0.00000  0.50000  0.00000  1
 Fe  Fe3  1  0.50000  -0.00000  0.00000  1
 Fe  Fe4  1  0.50000  -0.00000  0.50000  1
 U  U1  1  0.87880  0.12120  0.25000  1
 U  U2  1  0.12120  0.87880  0.75000  1
