CIF file written using JARVIS-Tools package.
data_LiHF2
_symmetry_space_group_name_H-M  'R-3m'
_cell_length_a       4.73936
_cell_length_b       4.73936
_cell_length_c       4.73935
_cell_angle_alpha    36.4786
_cell_angle_beta     36.4785
_cell_angle_gamma    36.4786

_symmetry_Int_Tables_number  166
_chemical_formula_structural  LiHF2
_chemical_formula_sum  LiHF2
_cell_volume  33.682467726929765
_cell_formula_units_Z  1
loop_
  _symmetry_equiv_pos_site_id
 _symmetry_equiv_pos_as_xyz
 1  'x, y, z'
loop_
 _atom_site_type_symbol
 _atom_site_label
 _atom_site_symmetry_multiplicity
 _atom_site_fract_x
 _atom_site_fract_y
 _atom_site_fract_z
 _atom_site_fract_occupancy
 F  F1  1  0.41337  0.41337  0.41337  1
 F  F2  1  0.58663  0.58663  0.58663  1
 H  H1  1  0.50000  0.50000  0.50000  1
 Li  Li1  1  0.00000  0.00000  0.00000  1
