CIF file written using JARVIS-Tools package.
data_Te4MoW3Se4
_symmetry_space_group_name_H-M  'P3m1'
_cell_length_a       3.44926
_cell_length_b       3.44924
_cell_length_c       39.0132
_cell_angle_alpha    89.9996
_cell_angle_beta     90
_cell_angle_gamma    120

_symmetry_Int_Tables_number  156
_chemical_formula_structural  Te4MoW3Se4
_chemical_formula_sum  Te4MoW3Se4
_cell_volume  401.9685557925647
_cell_formula_units_Z  1
loop_
  _symmetry_equiv_pos_site_id
 _symmetry_equiv_pos_as_xyz
 1  'x, y, z'
loop_
 _atom_site_type_symbol
 _atom_site_label
 _atom_site_symmetry_multiplicity
 _atom_site_fract_x
 _atom_site_fract_y
 _atom_site_fract_z
 _atom_site_fract_occupancy
 Mo  Mo1  1  0.66668  0.33337  0.28179  1
 Se  Se1  1  0.33335  0.66671  0.32370  1
 Se  Se2  1  0.66664  0.33329  0.05207  1
 Se  Se3  1  0.66665  0.33329  0.13600  1
 Se  Se4  1  0.33335  0.66670  0.23991  1
 Te  Te1  1  0.33336  0.66672  0.70523  1
 Te  Te2  1  0.66665  0.33329  0.42173  1
 Te  Te3  1  0.66665  0.33329  0.51738  1
 Te  Te4  1  0.33335  0.66671  0.60983  1
 W  W1  1  0.33332  0.66663  0.09394  1
 W  W2  1  0.33331  0.66663  0.46958  1
 W  W3  1  0.66669  0.33337  0.65760  1
