CIF file written using JARVIS-Tools package.
data_Tm2Mg
_symmetry_space_group_name_H-M  'Cmcm'
_cell_length_a       3.53837
_cell_length_b       8.71883
_cell_length_c       5.36765
_cell_angle_alpha    90
_cell_angle_beta     90
_cell_angle_gamma    78.2925

_symmetry_Int_Tables_number  63
_chemical_formula_structural  Tm2Mg
_chemical_formula_sum  Tm4Mg2
_cell_volume  162.14918784101707
_cell_formula_units_Z  2
loop_
  _symmetry_equiv_pos_site_id
 _symmetry_equiv_pos_as_xyz
 1  'x, y, z'
loop_
 _atom_site_type_symbol
 _atom_site_label
 _atom_site_symmetry_multiplicity
 _atom_site_fract_x
 _atom_site_fract_y
 _atom_site_fract_z
 _atom_site_fract_occupancy
 Mg  Mg1  1  0.32605  0.34790  0.00000  1
 Mg  Mg2  1  0.45173  0.09655  0.50000  1
 Tm  Tm1  1  0.98737  0.02526  0.00000  1
 Tm  Tm2  1  0.66264  0.67472  0.00000  1
 Tm  Tm3  1  0.79041  0.41919  0.50000  1
 Tm  Tm4  1  0.11514  0.76973  0.50000  1
