CIF file written using JARVIS-Tools package.
data_U2Co3Si5
_symmetry_space_group_name_H-M  'Ibam'
_cell_length_a       5.61316
_cell_length_b       7.81121
_cell_length_c       7.81121
_cell_angle_alpha    75.3787
_cell_angle_beta     68.9427
_cell_angle_gamma    68.9427

_symmetry_Int_Tables_number  72
_chemical_formula_structural  U2Co3Si5
_chemical_formula_sum  U4Co6Si0
_cell_volume  295.26598722923893
_cell_formula_units_Z  2
loop_
  _symmetry_equiv_pos_site_id
 _symmetry_equiv_pos_as_xyz
 1  'x, y, z'
loop_
 _atom_site_type_symbol
 _atom_site_label
 _atom_site_symmetry_multiplicity
 _atom_site_fract_x
 _atom_site_fract_y
 _atom_site_fract_z
 _atom_site_fract_occupancy
 Co  Co1  1  0.75000  0.00000  0.00000  1
 Co  Co2  1  0.14028  0.47320  0.24625  1
 Co  Co3  1  0.25000  0.00000  0.00000  1
 Co  Co4  1  0.64028  0.24625  0.47320  1
 Co  Co5  1  0.35972  0.75375  0.52680  1
 Co  Co6  1  0.85972  0.52680  0.75375  1
 Si  Si1  1  0.89818  0.25663  0.94700  1
 Si  Si2  1  0.39818  0.94700  0.25663  1
 Si  Si3  1  0.60182  0.05300  0.74337  1
 Si  Si4  1  0.02317  0.22683  0.22683  1
 Si  Si5  1  0.47683  0.77317  0.77317  1
 Si  Si6  1  0.97683  0.77317  0.77317  1
 Si  Si7  1  0.52317  0.22683  0.22683  1
 Si  Si8  1  0.10182  0.74337  0.05300  1
 Si  Si9  1  0.25000  0.50000  0.50000  1
 Si  Si10  1  0.75000  0.50000  0.50000  1
 U  U1  1  0.13649  0.13090  0.59611  1
 U  U2  1  0.36351  0.40389  0.86910  1
 U  U3  1  0.63649  0.59611  0.13090  1
 U  U4  1  0.86351  0.86910  0.40389  1
