CIF file written using JARVIS-Tools package.
data_Te2Mo3WSe2S4
_symmetry_space_group_name_H-M  'P3m1'
_cell_length_a       3.31106
_cell_length_b       3.31107
_cell_length_c       34.58
_cell_angle_alpha    89.9987
_cell_angle_beta     90
_cell_angle_gamma    120

_symmetry_Int_Tables_number  156
_chemical_formula_structural  Te2Mo3WSe2S4
_chemical_formula_sum  Te2Mo3WSe2S4
_cell_volume  328.31525587918276
_cell_formula_units_Z  1
loop_
  _symmetry_equiv_pos_site_id
 _symmetry_equiv_pos_as_xyz
 1  'x, y, z'
loop_
 _atom_site_type_symbol
 _atom_site_label
 _atom_site_symmetry_multiplicity
 _atom_site_fract_x
 _atom_site_fract_y
 _atom_site_fract_z
 _atom_site_fract_occupancy
 Mo  Mo1  1  0.33333  0.66666  0.09183  1
 Mo  Mo2  1  0.33333  0.66665  0.46936  1
 Mo  Mo3  1  0.66666  0.33333  0.28650  1
 S  S1  1  0.33333  0.66666  0.33070  1
 S  S2  1  0.33334  0.66669  0.69956  1
 S  S3  1  0.33335  0.66669  0.24232  1
 S  S4  1  0.33335  0.66669  0.61073  1
 Se  Se1  1  0.66666  0.33332  0.42083  1
 Se  Se2  1  0.66666  0.33332  0.51792  1
 Te  Te1  1  0.66669  0.33337  0.03650  1
 Te  Te2  1  0.66664  0.33328  0.14733  1
 W  W1  1  0.66668  0.33335  0.65517  1
