CIF file written using JARVIS-Tools package.
data_TaNiGe
_symmetry_space_group_name_H-M  'Pnma'
_cell_length_a       3.75593
_cell_length_b       6.32365
_cell_length_c       7.2552
_cell_angle_alpha    90
_cell_angle_beta     90
_cell_angle_gamma    90

_symmetry_Int_Tables_number  62
_chemical_formula_structural  TaNiGe
_chemical_formula_sum  Ta4Ni4Ge4
_cell_volume  172.31956706510942
_cell_formula_units_Z  4
loop_
  _symmetry_equiv_pos_site_id
 _symmetry_equiv_pos_as_xyz
 1  'x, y, z'
loop_
 _atom_site_type_symbol
 _atom_site_label
 _atom_site_symmetry_multiplicity
 _atom_site_fract_x
 _atom_site_fract_y
 _atom_site_fract_z
 _atom_site_fract_occupancy
 Ge  Ge1  1  0.75000  0.71510  0.11699  1
 Ge  Ge2  1  0.25000  0.78490  0.61699  1
 Ge  Ge3  1  0.25000  0.28490  0.88301  1
 Ge  Ge4  1  0.75000  0.21510  0.38301  1
 Ni  Ni1  1  0.75000  0.83771  0.42726  1
 Ni  Ni2  1  0.25000  0.16229  0.57274  1
 Ni  Ni3  1  0.75000  0.33771  0.07274  1
 Ni  Ni4  1  0.25000  0.66229  0.92726  1
 Ta  Ta1  1  0.25000  0.51711  0.32765  1
 Ta  Ta2  1  0.25000  0.01711  0.17235  1
 Ta  Ta3  1  0.75000  0.98289  0.82765  1
 Ta  Ta4  1  0.75000  0.48289  0.67235  1
