CIF file written using JARVIS-Tools package.
data_Cr2CuTe4
_symmetry_space_group_name_H-M  'Fd-3m'
_cell_length_a       7.76857
_cell_length_b       7.76857
_cell_length_c       7.76857
_cell_angle_alpha    60
_cell_angle_beta     60
_cell_angle_gamma    60

_symmetry_Int_Tables_number  227
_chemical_formula_structural  Cr2CuTe4
_chemical_formula_sum  Cr4Cu2Te8
_cell_volume  331.5187516443621
_cell_formula_units_Z  2
loop_
  _symmetry_equiv_pos_site_id
 _symmetry_equiv_pos_as_xyz
 1  'x, y, z'
loop_
 _atom_site_type_symbol
 _atom_site_label
 _atom_site_symmetry_multiplicity
 _atom_site_fract_x
 _atom_site_fract_y
 _atom_site_fract_z
 _atom_site_fract_occupancy
 Cr  Cr1  1  0.50000  0.50000  0.50000  1
 Cr  Cr2  1  0.50000  0.50000  0.00000  1
 Cr  Cr3  1  -0.00000  0.50000  0.50000  1
 Cr  Cr4  1  0.50000  0.00000  0.50000  1
 Cu  Cu1  1  0.87500  0.87500  0.87500  1
 Cu  Cu2  1  0.12500  0.12500  0.12500  1
 Te  Te1  1  0.25716  0.25716  0.25716  1
 Te  Te2  1  0.74284  0.74284  0.27147  1
 Te  Te3  1  0.27147  0.74284  0.74284  1
 Te  Te4  1  0.74284  0.27147  0.74284  1
 Te  Te5  1  0.72853  0.25716  0.25716  1
 Te  Te6  1  0.25716  0.72853  0.25716  1
 Te  Te7  1  0.25716  0.25716  0.72853  1
 Te  Te8  1  0.74284  0.74284  0.74284  1
