CIF file written using JARVIS-Tools package.
data_UI4
_symmetry_space_group_name_H-M  'C2/c'
_cell_length_a       7.45768
_cell_length_b       8.14589
_cell_length_c       8.14589
_cell_angle_alpha    62.5004
_cell_angle_beta     89.4814
_cell_angle_gamma    89.4814

_symmetry_Int_Tables_number  15
_chemical_formula_structural  UI4
_chemical_formula_sum  U2I8
_cell_volume  438.92258412783883
_cell_formula_units_Z  2
loop_
  _symmetry_equiv_pos_site_id
 _symmetry_equiv_pos_as_xyz
 1  'x, y, z'
loop_
 _atom_site_type_symbol
 _atom_site_label
 _atom_site_symmetry_multiplicity
 _atom_site_fract_x
 _atom_site_fract_y
 _atom_site_fract_z
 _atom_site_fract_occupancy
 I  I1  1  0.58426  0.00037  0.24610  1
 I  I2  1  0.08426  0.24610  0.00037  1
 I  I3  1  0.09749  0.75389  0.50802  1
 I  I4  1  0.90251  0.24611  0.49198  1
 I  I5  1  0.59749  0.50802  0.75389  1
 I  I6  1  0.41574  -0.00037  0.75390  1
 I  I7  1  0.40251  0.49198  0.24611  1
 I  I8  1  0.91574  0.75390  -0.00037  1
 U  U1  1  0.25000  0.85232  0.14768  1
 U  U2  1  0.75000  0.14768  0.85232  1
