CIF file written using JARVIS-Tools package.
data_SrInPt
_symmetry_space_group_name_H-M  'Pnma'
_cell_length_a       4.5552
_cell_length_b       7.60596
_cell_length_c       8.59401
_cell_angle_alpha    90
_cell_angle_beta     90
_cell_angle_gamma    90

_symmetry_Int_Tables_number  62
_chemical_formula_structural  SrInPt
_chemical_formula_sum  Sr4In4Pt4
_cell_volume  297.75361532809256
_cell_formula_units_Z  4
loop_
  _symmetry_equiv_pos_site_id
 _symmetry_equiv_pos_as_xyz
 1  'x, y, z'
loop_
 _atom_site_type_symbol
 _atom_site_label
 _atom_site_symmetry_multiplicity
 _atom_site_fract_x
 _atom_site_fract_y
 _atom_site_fract_z
 _atom_site_fract_occupancy
 In  In1  1  0.75000  0.35122  0.43355  1
 In  In2  1  0.25000  0.14878  0.93355  1
 In  In3  1  0.25000  0.64878  0.56645  1
 In  In4  1  0.75000  0.85122  0.06645  1
 Pt  Pt1  1  0.25000  0.77505  0.88002  1
 Pt  Pt2  1  0.25000  0.27505  0.61998  1
 Pt  Pt3  1  0.75000  0.72495  0.38002  1
 Pt  Pt4  1  0.75000  0.22495  0.11998  1
 Sr  Sr1  1  0.75000  0.97045  0.67976  1
 Sr  Sr2  1  0.25000  0.02955  0.32024  1
 Sr  Sr3  1  0.75000  0.47045  0.82024  1
 Sr  Sr4  1  0.25000  0.52955  0.17976  1
