CIF file written using JARVIS-Tools package.
data_Li3NdSb2
_symmetry_space_group_name_H-M  'P-3m1'
_cell_length_a       4.58043
_cell_length_b       4.58043
_cell_length_c       7.32072
_cell_angle_alpha    90
_cell_angle_beta     90
_cell_angle_gamma    120

_symmetry_Int_Tables_number  164
_chemical_formula_structural  Li3NdSb2
_chemical_formula_sum  Li3NdSb2
_cell_volume  133.01374913134276
_cell_formula_units_Z  1
loop_
  _symmetry_equiv_pos_site_id
 _symmetry_equiv_pos_as_xyz
 1  'x, y, z'
loop_
 _atom_site_type_symbol
 _atom_site_label
 _atom_site_symmetry_multiplicity
 _atom_site_fract_x
 _atom_site_fract_y
 _atom_site_fract_z
 _atom_site_fract_occupancy
 Li  Li1  1  0.00000  0.00000  0.50000  1
 Li  Li2  1  0.66667  0.33333  0.35260  1
 Li  Li3  1  0.33333  0.66667  0.64740  1
 Nd  Nd1  1  0.00000  0.00000  0.00000  1
 Sb  Sb1  1  0.66667  0.33333  0.74344  1
 Sb  Sb2  1  0.33333  0.66667  0.25656  1
