CIF file written using JARVIS-Tools package.
data_NaClO4
_symmetry_space_group_name_H-M  'Cmcm'
_cell_length_a       4.75708
_cell_length_b       4.75708
_cell_length_c       7.03043
_cell_angle_alpha    90
_cell_angle_beta     90
_cell_angle_gamma    95.1263

_symmetry_Int_Tables_number  63
_chemical_formula_structural  NaClO4
_chemical_formula_sum  Na2Cl2O8
_cell_volume  158.46095854576902
_cell_formula_units_Z  2
loop_
  _symmetry_equiv_pos_site_id
 _symmetry_equiv_pos_as_xyz
 1  'x, y, z'
loop_
 _atom_site_type_symbol
 _atom_site_label
 _atom_site_symmetry_multiplicity
 _atom_site_fract_x
 _atom_site_fract_y
 _atom_site_fract_z
 _atom_site_fract_occupancy
 Cl  Cl1  1  0.15842  0.15842  0.25000  1
 Cl  Cl2  1  0.84158  0.84158  0.75000  1
 Na  Na1  1  0.65625  0.65625  0.25000  1
 Na  Na2  1  0.34375  0.34375  0.75000  1
 O  O1  1  0.14269  0.80672  0.75000  1
 O  O2  1  0.85731  0.19328  0.25000  1
 O  O3  1  0.80672  0.14269  0.75000  1
 O  O4  1  0.19328  0.85731  0.25000  1
 O  O5  1  0.29195  0.29195  0.08310  1
 O  O6  1  0.70805  0.70805  0.58310  1
 O  O7  1  0.29195  0.29195  0.41690  1
 O  O8  1  0.70805  0.70805  0.91690  1
