CIF file written using JARVIS-Tools package.
data_P2O5
_symmetry_space_group_name_H-M  'Fdd2'
_cell_length_a       4.86243
_cell_length_b       4.86243
_cell_length_c       8.62376
_cell_angle_alpha    99.3267
_cell_angle_beta     99.3267
_cell_angle_gamma    115.159

_symmetry_Int_Tables_number  43
_chemical_formula_structural  P2O5
_chemical_formula_sum  P4O0
_cell_volume  175.91569150916064
_cell_formula_units_Z  2
loop_
  _symmetry_equiv_pos_site_id
 _symmetry_equiv_pos_as_xyz
 1  'x, y, z'
loop_
 _atom_site_type_symbol
 _atom_site_label
 _atom_site_symmetry_multiplicity
 _atom_site_fract_x
 _atom_site_fract_y
 _atom_site_fract_z
 _atom_site_fract_occupancy
 O  O1  1  0.91535  0.74530  0.39074  1
 O  O2  1  0.35456  0.52462  0.60926  1
 O  O3  1  0.49530  0.16535  0.89074  1
 O  O4  1  0.27462  0.60456  0.10926  1
 O  O5  1  -0.00283  -0.00283  -0.00000  1
 O  O6  1  0.74717  0.24717  0.50000  1
 O  O7  1  0.84588  0.21526  0.22490  1
 O  O8  1  0.99037  0.62099  0.77510  1
 O  O9  1  0.96526  0.09588  0.72490  1
 O  O10  1  0.37099  0.24037  0.27510  1
 P  P1  1  0.73792  0.40358  0.35083  1
 P  P2  1  0.05275  0.38709  0.64917  1
 P  P3  1  0.15358  0.98792  0.85083  1
 P  P4  1  0.13709  0.30275  0.14917  1
