CIF file written using JARVIS-Tools package.
data_PdO2
_symmetry_space_group_name_H-M  'P4_2/mnm'
_cell_length_a       4.55095
_cell_length_b       4.55095
_cell_length_c       3.18789
_cell_angle_alpha    90
_cell_angle_beta     90
_cell_angle_gamma    90

_symmetry_Int_Tables_number  136
_chemical_formula_structural  PdO2
_chemical_formula_sum  Pd2O4
_cell_volume  66.02488907172261
_cell_formula_units_Z  2
loop_
  _symmetry_equiv_pos_site_id
 _symmetry_equiv_pos_as_xyz
 1  'x, y, z'
loop_
 _atom_site_type_symbol
 _atom_site_label
 _atom_site_symmetry_multiplicity
 _atom_site_fract_x
 _atom_site_fract_y
 _atom_site_fract_z
 _atom_site_fract_occupancy
 O  O1  1  0.80821  0.19179  0.50000  1
 O  O2  1  0.19179  0.80821  0.50000  1
 O  O3  1  0.30821  0.30821  0.00000  1
 O  O4  1  0.69179  0.69179  0.00000  1
 Pd  Pd1  1  0.50000  0.50000  0.50000  1
 Pd  Pd2  1  0.00000  0.00000  0.00000  1
