CIF file written using JARVIS-Tools package.
data_Mo3WSe6S2
_symmetry_space_group_name_H-M  'P3m1'
_cell_length_a       3.29051
_cell_length_b       3.29052
_cell_length_c       34.4033
_cell_angle_alpha    89.9979
_cell_angle_beta     89.9997
_cell_angle_gamma    120.001

_symmetry_Int_Tables_number  156
_chemical_formula_structural  Mo3WSe6S2
_chemical_formula_sum  Mo3WSe6S2
_cell_volume  322.5929046379551
_cell_formula_units_Z  1
loop_
  _symmetry_equiv_pos_site_id
 _symmetry_equiv_pos_as_xyz
 1  'x, y, z'
loop_
 _atom_site_type_symbol
 _atom_site_label
 _atom_site_symmetry_multiplicity
 _atom_site_fract_x
 _atom_site_fract_y
 _atom_site_fract_z
 _atom_site_fract_occupancy
 Mo  Mo1  1  0.33329  0.66662  0.09183  1
 Mo  Mo2  1  0.66665  0.33332  0.28423  1
 Mo  Mo3  1  0.66671  0.33339  0.65650  1
 S  S1  1  0.66670  0.33336  0.42551  1
 S  S2  1  0.66667  0.33332  0.51521  1
 Se  Se1  1  0.33330  0.66661  0.33323  1
 Se  Se2  1  0.33336  0.66670  0.70547  1
 Se  Se3  1  0.66663  0.33331  0.04287  1
 Se  Se4  1  0.66660  0.33326  0.14086  1
 Se  Se5  1  0.33334  0.66669  0.23521  1
 Se  Se6  1  0.33339  0.66675  0.60749  1
 W  W1  1  0.33336  0.66667  0.47035  1
