CIF file written using JARVIS-Tools package.
data_K2NpO4
_symmetry_space_group_name_H-M  'I4/mmm'
_cell_length_a       4.30555
_cell_length_b       4.30555
_cell_length_c       7.29766
_cell_angle_alpha    107.157
_cell_angle_beta     107.157
_cell_angle_gamma    90

_symmetry_Int_Tables_number  139
_chemical_formula_structural  K2NpO4
_chemical_formula_sum  K2NpO4
_cell_volume  122.94734696575335
_cell_formula_units_Z  1
loop_
  _symmetry_equiv_pos_site_id
 _symmetry_equiv_pos_as_xyz
 1  'x, y, z'
loop_
 _atom_site_type_symbol
 _atom_site_label
 _atom_site_symmetry_multiplicity
 _atom_site_fract_x
 _atom_site_fract_y
 _atom_site_fract_z
 _atom_site_fract_occupancy
 K  K1  1  0.34819  0.34819  0.69638  1
 K  K2  1  0.65181  0.65181  0.30362  1
 Np  Np1  1  0.00000  0.00000  0.00000  1
 O  O1  1  0.14634  0.14634  0.29268  1
 O  O2  1  0.85366  0.85366  0.70732  1
 O  O3  1  0.00000  0.50000  0.00000  1
 O  O4  1  0.50000  0.00000  0.00000  1
