CIF file written using JARVIS-Tools package.
data_CaHg3
_symmetry_space_group_name_H-M  'P6_3/mmc'
_cell_length_a       6.68122
_cell_length_b       6.68122
_cell_length_c       5.16578
_cell_angle_alpha    90
_cell_angle_beta     90
_cell_angle_gamma    120

_symmetry_Int_Tables_number  194
_chemical_formula_structural  CaHg3
_chemical_formula_sum  Ca2Hg6
_cell_volume  199.7002371825021
_cell_formula_units_Z  2
loop_
  _symmetry_equiv_pos_site_id
 _symmetry_equiv_pos_as_xyz
 1  'x, y, z'
loop_
 _atom_site_type_symbol
 _atom_site_label
 _atom_site_symmetry_multiplicity
 _atom_site_fract_x
 _atom_site_fract_y
 _atom_site_fract_z
 _atom_site_fract_occupancy
 Ca  Ca1  1  0.66667  0.33333  0.25000  1
 Ca  Ca2  1  0.33333  0.66667  0.75000  1
 Hg  Hg1  1  0.83517  0.67035  0.75000  1
 Hg  Hg2  1  0.83517  0.16483  0.75000  1
 Hg  Hg3  1  0.32965  0.16483  0.75000  1
 Hg  Hg4  1  0.16483  0.32965  0.25000  1
 Hg  Hg5  1  0.16483  0.83517  0.25000  1
 Hg  Hg6  1  0.67035  0.83517  0.25000  1
