CIF file written using JARVIS-Tools package.
data_Ti2Zn
_symmetry_space_group_name_H-M  'I4/mmm'
_cell_length_a       2.83229
_cell_length_b       2.83229
_cell_length_c       6.34183
_cell_angle_alpha    102.903
_cell_angle_beta     102.903
_cell_angle_gamma    90

_symmetry_Int_Tables_number  139
_chemical_formula_structural  Ti2Zn
_chemical_formula_sum  Ti2Zn
_cell_volume  48.2700523877365
_cell_formula_units_Z  1
loop_
  _symmetry_equiv_pos_site_id
 _symmetry_equiv_pos_as_xyz
 1  'x, y, z'
loop_
 _atom_site_type_symbol
 _atom_site_label
 _atom_site_symmetry_multiplicity
 _atom_site_fract_x
 _atom_site_fract_y
 _atom_site_fract_z
 _atom_site_fract_occupancy
 Ti  Ti1  1  0.66537  0.66537  0.33075  1
 Ti  Ti2  1  0.33463  0.33463  0.66925  1
 Zn  Zn1  1  0.00000  0.00000  0.00000  1
