CIF file written using JARVIS-Tools package.
data_YbSbPd
_symmetry_space_group_name_H-M  'Pnma'
_cell_length_a       4.65586
_cell_length_b       7.26142
_cell_length_c       7.92701
_cell_angle_alpha    90
_cell_angle_beta     90
_cell_angle_gamma    90

_symmetry_Int_Tables_number  62
_chemical_formula_structural  YbSbPd
_chemical_formula_sum  Yb4Sb4Pd4
_cell_volume  267.99765115101565
_cell_formula_units_Z  4
loop_
  _symmetry_equiv_pos_site_id
 _symmetry_equiv_pos_as_xyz
 1  'x, y, z'
loop_
 _atom_site_type_symbol
 _atom_site_label
 _atom_site_symmetry_multiplicity
 _atom_site_fract_x
 _atom_site_fract_y
 _atom_site_fract_z
 _atom_site_fract_occupancy
 Pd  Pd1  1  0.75000  0.30719  0.41968  1
 Pd  Pd2  1  0.25000  0.19281  0.91968  1
 Pd  Pd3  1  0.75000  0.80719  0.08032  1
 Pd  Pd4  1  0.25000  0.69281  0.58032  1
 Sb  Sb1  1  0.25000  0.29861  0.59163  1
 Sb  Sb2  1  0.75000  0.20139  0.09163  1
 Sb  Sb3  1  0.25000  0.79861  0.90837  1
 Sb  Sb4  1  0.75000  0.70139  0.40837  1
 Yb  Yb1  1  0.25000  0.49280  0.20677  1
 Yb  Yb2  1  0.75000  0.50720  0.79323  1
 Yb  Yb3  1  0.25000  0.99280  0.29323  1
 Yb  Yb4  1  0.75000  0.00720  0.70677  1
