CIF file written using JARVIS-Tools package.
data_MgH4Cl2O2
_symmetry_space_group_name_H-M  'C2/m'
_cell_length_a       3.66221
_cell_length_b       5.58978
_cell_length_c       5.58979
_cell_angle_alpha    98.4935
_cell_angle_beta     95.8323
_cell_angle_gamma    95.8324

_symmetry_Int_Tables_number  12
_chemical_formula_structural  MgH4Cl2O2
_chemical_formula_sum  MgH4Cl2O2
_cell_volume  111.79340716435611
_cell_formula_units_Z  1
loop_
  _symmetry_equiv_pos_site_id
 _symmetry_equiv_pos_as_xyz
 1  'x, y, z'
loop_
 _atom_site_type_symbol
 _atom_site_label
 _atom_site_symmetry_multiplicity
 _atom_site_fract_x
 _atom_site_fract_y
 _atom_site_fract_z
 _atom_site_fract_occupancy
 Cl  Cl1  1  0.43937  0.75615  0.75615  1
 Cl  Cl2  1  0.56063  0.24385  0.24385  1
 H  H1  1  0.83609  0.22334  0.60566  1
 H  H2  1  0.16391  0.39434  0.77666  1
 H  H3  1  0.16391  0.77666  0.39434  1
 H  H4  1  0.83609  0.60566  0.22334  1
 Mg  Mg1  1  0.00000  0.00000  0.00000  1
 O  O1  1  -0.00000  0.23962  0.76038  1
 O  O2  1  0.00000  0.76038  0.23962  1
