CIF file written using JARVIS-Tools package.
data_Hf2Te
_symmetry_space_group_name_H-M  'C2/m'
_cell_length_a       3.76611
_cell_length_b       7.80644
_cell_length_c       10.0757
_cell_angle_alpha    90.379
_cell_angle_beta     90
_cell_angle_gamma    103.959

_symmetry_Int_Tables_number  12
_chemical_formula_structural  Hf2Te
_chemical_formula_sum  Hf8Te4
_cell_volume  287.469957513843
_cell_formula_units_Z  4
loop_
  _symmetry_equiv_pos_site_id
 _symmetry_equiv_pos_as_xyz
 1  'x, y, z'
loop_
 _atom_site_type_symbol
 _atom_site_label
 _atom_site_symmetry_multiplicity
 _atom_site_fract_x
 _atom_site_fract_y
 _atom_site_fract_z
 _atom_site_fract_occupancy
 Hf  Hf1  1  0.74706  0.49411  0.38354  1
 Hf  Hf2  1  0.21980  0.43960  0.12829  1
 Hf  Hf3  1  0.59188  0.18375  0.65320  1
 Hf  Hf4  1  0.78020  0.56040  0.87171  1
 Hf  Hf5  1  0.25294  0.50589  0.61646  1
 Hf  Hf6  1  0.91323  0.82647  0.57849  1
 Hf  Hf7  1  0.08677  0.17353  0.42151  1
 Hf  Hf8  1  0.40812  0.81625  0.34680  1
 Te  Te1  1  0.57957  0.15913  0.19443  1
 Te  Te2  1  0.86662  0.73325  0.13054  1
 Te  Te3  1  0.13338  0.26675  0.86946  1
 Te  Te4  1  0.42043  0.84087  0.80557  1
