CIF file written using JARVIS-Tools package.
data_GaSeBr7
_symmetry_space_group_name_H-M  'Pc'
_cell_length_a       6.55516
_cell_length_b       6.50755
_cell_length_c       14.4681
_cell_angle_alpha    90
_cell_angle_beta     101.51
_cell_angle_gamma    90

_symmetry_Int_Tables_number  7
_chemical_formula_structural  GaSeBr7
_chemical_formula_sum  Ga2Se2Br4
_cell_volume  604.7698315679999
_cell_formula_units_Z  2
loop_
  _symmetry_equiv_pos_site_id
 _symmetry_equiv_pos_as_xyz
 1  'x, y, z'
loop_
 _atom_site_type_symbol
 _atom_site_label
 _atom_site_symmetry_multiplicity
 _atom_site_fract_x
 _atom_site_fract_y
 _atom_site_fract_z
 _atom_site_fract_occupancy
 Br  Br1  1  0.55961  0.84018  0.62844  1
 Br  Br2  1  0.19547  0.62807  0.73235  1
 Br  Br3  1  0.19547  0.37193  0.23235  1
 Br  Br4  1  -0.00719  0.12247  -0.00108  1
 Br  Br5  1  -0.00719  0.87753  0.49892  1
 Br  Br6  1  0.85028  0.81213  0.22686  1
 Br  Br7  1  0.42353  0.12510  0.85724  1
 Br  Br8  1  0.55961  0.15982  0.12844  1
 Br  Br9  1  0.85028  0.18787  0.72686  1
 Br  Br10  1  0.36667  0.64657  0.01213  1
 Br  Br11  1  0.36667  0.35343  0.51213  1
 Br  Br12  1  0.77831  0.37140  0.37056  1
 Br  Br13  1  0.77831  0.62860  0.87056  1
 Br  Br14  1  0.42353  0.87490  0.35724  1
 Ga  Ga1  1  0.33399  0.00497  0.99909  1
 Ga  Ga2  1  0.33399  -0.00497  0.49909  1
 Se  Se1  1  0.05208  0.41886  0.83753  1
 Se  Se2  1  0.05208  0.58114  0.33753  1
