CIF file written using JARVIS-Tools package.
data_Te7Mo6S5
_symmetry_space_group_name_H-M  'Cm'
_cell_length_a       3.41019
_cell_length_b       8.93371
_cell_length_c       14.4526
_cell_angle_alpha    101.682
_cell_angle_beta     96.7756
_cell_angle_gamma    78.9954

_symmetry_Int_Tables_number  8
_chemical_formula_structural  Te7Mo6S5
_chemical_formula_sum  Te7Mo6S5
_cell_volume  421.815894788959
_cell_formula_units_Z  1
loop_
  _symmetry_equiv_pos_site_id
 _symmetry_equiv_pos_as_xyz
 1  'x, y, z'
loop_
 _atom_site_type_symbol
 _atom_site_label
 _atom_site_symmetry_multiplicity
 _atom_site_fract_x
 _atom_site_fract_y
 _atom_site_fract_z
 _atom_site_fract_occupancy
 Mo  Mo1  1  0.70575  0.33944  0.75092  1
 Mo  Mo2  1  0.35875  0.03299  0.75051  1
 Mo  Mo3  1  0.97001  0.31493  0.25498  1
 Mo  Mo4  1  0.03242  0.68515  0.74997  1
 Mo  Mo5  1  0.30306  0.65010  0.25623  1
 Mo  Mo6  1  0.63337  0.98102  0.24777  1
 S  S1  1  0.84891  0.16182  0.85965  1
 S  S2  1  0.56376  0.22845  0.35598  1
 S  S3  1  0.22270  0.90854  0.35392  1
 S  S4  1  0.77253  0.09628  0.64136  1
 S  S5  1  0.82339  0.50753  0.15429  1
 Te  Te1  1  0.19389  0.49562  0.88340  1
 Te  Te2  1  0.42598  0.76739  0.61935  1
 Te  Te3  1  0.14784  0.81944  0.11512  1
 Te  Te4  1  0.51785  0.84486  0.88057  1
 Te  Te5  1  0.10213  0.41391  0.61815  1
 Te  Te6  1  0.90623  0.57954  0.39200  1
 Te  Te7  1  0.47141  0.17301  0.11584  1
