CIF file written using JARVIS-Tools package.
data_V2CrSe4
_symmetry_space_group_name_H-M  'C2/m'
_cell_length_a       3.32531
_cell_length_b       6.15191
_cell_length_c       6.75693
_cell_angle_alpha    115.093
_cell_angle_beta     104.245
_cell_angle_gamma    90

_symmetry_Int_Tables_number  12
_chemical_formula_structural  V2CrSe4
_chemical_formula_sum  V2CrSe4
_cell_volume  120.47139682613196
_cell_formula_units_Z  1
loop_
  _symmetry_equiv_pos_site_id
 _symmetry_equiv_pos_as_xyz
 1  'x, y, z'
loop_
 _atom_site_type_symbol
 _atom_site_label
 _atom_site_symmetry_multiplicity
 _atom_site_fract_x
 _atom_site_fract_y
 _atom_site_fract_z
 _atom_site_fract_occupancy
 Cr  Cr1  1  0.00000  0.00000  0.00000  1
 Se  Se1  1  0.10234  0.43975  0.20468  1
 Se  Se2  1  0.89766  0.56025  0.79532  1
 Se  Se3  1  0.36250  0.02578  0.72501  1
 Se  Se4  1  0.63750  0.97422  0.27499  1
 V  V1  1  0.25665  0.32132  0.51330  1
 V  V2  1  0.74335  0.67868  0.48670  1
