CIF file written using JARVIS-Tools package.
data_YSnPt
_symmetry_space_group_name_H-M  'Pnma'
_cell_length_a       4.55851
_cell_length_b       7.20435
_cell_length_c       8.06304
_cell_angle_alpha    90
_cell_angle_beta     90
_cell_angle_gamma    90

_symmetry_Int_Tables_number  62
_chemical_formula_structural  YSnPt
_chemical_formula_sum  Y4Sn4Pt4
_cell_volume  264.79920115417474
_cell_formula_units_Z  4
loop_
  _symmetry_equiv_pos_site_id
 _symmetry_equiv_pos_as_xyz
 1  'x, y, z'
loop_
 _atom_site_type_symbol
 _atom_site_label
 _atom_site_symmetry_multiplicity
 _atom_site_fract_x
 _atom_site_fract_y
 _atom_site_fract_z
 _atom_site_fract_occupancy
 Pt  Pt1  1  0.25000  0.78057  0.90952  1
 Pt  Pt2  1  0.25000  0.28057  0.59048  1
 Pt  Pt3  1  0.75000  0.71943  0.40952  1
 Pt  Pt4  1  0.75000  0.21943  0.09048  1
 Sn  Sn1  1  0.75000  0.32145  0.41532  1
 Sn  Sn2  1  0.25000  0.17855  0.91532  1
 Sn  Sn3  1  0.25000  0.67855  0.58468  1
 Sn  Sn4  1  0.75000  0.82145  0.08468  1
 Y  Y1  1  0.75000  0.99032  0.69572  1
 Y  Y2  1  0.25000  0.00968  0.30428  1
 Y  Y3  1  0.75000  0.49032  0.80428  1
 Y  Y4  1  0.25000  0.50968  0.19572  1
