CIF file written using JARVIS-Tools package.
data_USiIr
_symmetry_space_group_name_H-M  'Pnma'
_cell_length_a       4.24054
_cell_length_b       6.80485
_cell_length_c       7.49343
_cell_angle_alpha    90
_cell_angle_beta     90
_cell_angle_gamma    90

_symmetry_Int_Tables_number  62
_chemical_formula_structural  USiIr
_chemical_formula_sum  U4Si4Ir4
_cell_volume  216.23240445237914
_cell_formula_units_Z  4
loop_
  _symmetry_equiv_pos_site_id
 _symmetry_equiv_pos_as_xyz
 1  'x, y, z'
loop_
 _atom_site_type_symbol
 _atom_site_label
 _atom_site_symmetry_multiplicity
 _atom_site_fract_x
 _atom_site_fract_y
 _atom_site_fract_z
 _atom_site_fract_occupancy
 Ir  Ir1  1  0.75000  0.78334  0.58706  1
 Ir  Ir2  1  0.25000  0.21666  0.41294  1
 Ir  Ir3  1  0.75000  0.28334  0.91294  1
 Ir  Ir4  1  0.25000  0.71666  0.08706  1
 Si  Si1  1  0.25000  0.31614  0.08611  1
 Si  Si2  1  0.75000  0.68386  0.91389  1
 Si  Si3  1  0.25000  0.81614  0.41389  1
 Si  Si4  1  0.75000  0.18386  0.58611  1
 U  U1  1  0.25000  0.49203  0.69973  1
 U  U2  1  0.75000  0.50797  0.30027  1
 U  U3  1  0.25000  0.99203  0.80027  1
 U  U4  1  0.75000  0.00797  0.19973  1
