CIF file written using JARVIS-Tools package.
data_Na3Ge4Pt4
_symmetry_space_group_name_H-M  'I-43m'
_cell_length_a       6.68732
_cell_length_b       6.68732
_cell_length_c       6.68732
_cell_angle_alpha    109.471
_cell_angle_beta     109.471
_cell_angle_gamma    109.471

_symmetry_Int_Tables_number  217
_chemical_formula_structural  Na3Ge4Pt4
_chemical_formula_sum  Na3Ge4Pt4
_cell_volume  230.215224530977
_cell_formula_units_Z  1
loop_
  _symmetry_equiv_pos_site_id
 _symmetry_equiv_pos_as_xyz
 1  'x, y, z'
loop_
 _atom_site_type_symbol
 _atom_site_label
 _atom_site_symmetry_multiplicity
 _atom_site_fract_x
 _atom_site_fract_y
 _atom_site_fract_z
 _atom_site_fract_occupancy
 Ge  Ge1  1  -0.00000  0.36386  -0.00000  1
 Ge  Ge2  1  0.36386  -0.00000  -0.00000  1
 Ge  Ge3  1  0.00000  0.00000  0.36386  1
 Ge  Ge4  1  0.63614  0.63614  0.63614  1
 Na  Na1  1  -0.00000  0.50000  0.50000  1
 Na  Na2  1  0.50000  0.00000  0.50000  1
 Na  Na3  1  0.50000  0.50000  0.00000  1
 Pt  Pt1  1  0.00000  0.00000  0.71822  1
 Pt  Pt2  1  0.71822  0.00000  0.00000  1
 Pt  Pt3  1  0.28178  0.28178  0.28178  1
 Pt  Pt4  1  0.00000  0.71822  0.00000  1
