CIF file written using JARVIS-Tools package.
data_NaBH4
_symmetry_space_group_name_H-M  'P4_2/nmc'
_cell_length_a       4.30217
_cell_length_b       4.30217
_cell_length_c       5.82744
_cell_angle_alpha    90
_cell_angle_beta     90
_cell_angle_gamma    90

_symmetry_Int_Tables_number  137
_chemical_formula_structural  NaBH4
_chemical_formula_sum  Na2B2H8
_cell_volume  107.85840151591869
_cell_formula_units_Z  2
loop_
  _symmetry_equiv_pos_site_id
 _symmetry_equiv_pos_as_xyz
 1  'x, y, z'
loop_
 _atom_site_type_symbol
 _atom_site_label
 _atom_site_symmetry_multiplicity
 _atom_site_fract_x
 _atom_site_fract_y
 _atom_site_fract_z
 _atom_site_fract_occupancy
 B  B1  1  0.00000  0.00000  0.50000  1
 B  B2  1  0.50000  0.50000  0.00000  1
 H  H1  1  0.00000  0.23353  0.37929  1
 H  H2  1  0.26647  0.50000  0.87929  1
 H  H3  1  0.50000  0.26647  0.12071  1
 H  H4  1  0.50000  0.73353  0.12071  1
 H  H5  1  0.73353  0.50000  0.87929  1
 H  H6  1  0.76647  0.00000  0.62071  1
 H  H7  1  0.00000  0.76647  0.37929  1
 H  H8  1  0.23353  0.00000  0.62071  1
 Na  Na1  1  0.00000  0.00000  0.00000  1
 Na  Na2  1  0.50000  0.50000  0.50000  1
