CIF file written using JARVIS-Tools package.
data_ScI2
_symmetry_space_group_name_H-M  'P4_2/mnm'
_cell_length_a       7.144
_cell_length_b       7.144
_cell_length_c       4.1207
_cell_angle_alpha    90
_cell_angle_beta     90
_cell_angle_gamma    90

_symmetry_Int_Tables_number  136
_chemical_formula_structural  ScI2
_chemical_formula_sum  Sc2I4
_cell_volume  210.30714008318776
_cell_formula_units_Z  2
loop_
  _symmetry_equiv_pos_site_id
 _symmetry_equiv_pos_as_xyz
 1  'x, y, z'
loop_
 _atom_site_type_symbol
 _atom_site_label
 _atom_site_symmetry_multiplicity
 _atom_site_fract_x
 _atom_site_fract_y
 _atom_site_fract_z
 _atom_site_fract_occupancy
 I  I1  1  0.29320  0.29320  0.00000  1
 I  I2  1  0.70680  0.70680  0.00000  1
 I  I3  1  0.20680  0.79320  0.50000  1
 I  I4  1  0.79320  0.20680  0.50000  1
 Sc  Sc1  1  0.00000  0.00000  0.00000  1
 Sc  Sc2  1  0.50000  0.50000  0.50000  1
