CIF file written using JARVIS-Tools package.
data_VBiO4
_symmetry_space_group_name_H-M  'I4_1/amd'
_cell_length_a       6.13279
_cell_length_b       6.13297
_cell_length_c       6.13276
_cell_angle_alpha    106.301
_cell_angle_beta     106.299
_cell_angle_gamma    116.017

_symmetry_Int_Tables_number  141
_chemical_formula_structural  VBiO4
_chemical_formula_sum  V2Bi2O8
_cell_volume  175.81256641590767
_cell_formula_units_Z  2
loop_
  _symmetry_equiv_pos_site_id
 _symmetry_equiv_pos_as_xyz
 1  'x, y, z'
loop_
 _atom_site_type_symbol
 _atom_site_label
 _atom_site_symmetry_multiplicity
 _atom_site_fract_x
 _atom_site_fract_y
 _atom_site_fract_z
 _atom_site_fract_occupancy
 Bi  Bi1  1  0.12500  0.87500  0.25000  1
 Bi  Bi2  1  0.87500  0.12500  0.75000  1
 O  O1  1  0.27328  0.20518  0.06811  1
 O  O2  1  0.20518  0.63706  0.93189  1
 O  O3  1  0.36293  0.79481  0.56810  1
 O  O4  1  0.20518  0.27328  0.56811  1
 O  O5  1  0.79482  0.72672  0.43189  1
 O  O6  1  0.63706  0.20519  0.43190  1
 O  O7  1  0.79482  0.36294  0.06811  1
 O  O8  1  0.72672  0.79482  0.93189  1
 V  V1  1  0.37500  0.62499  0.74999  1
 V  V2  1  0.62499  0.37501  0.25001  1
