CIF file written using JARVIS-Tools package.
data_ThSbTe
_symmetry_space_group_name_H-M  'P4/nmm'
_cell_length_a       4.45518
_cell_length_b       4.45518
_cell_length_c       9.18559
_cell_angle_alpha    90
_cell_angle_beta     90
_cell_angle_gamma    90

_symmetry_Int_Tables_number  129
_chemical_formula_structural  ThSbTe
_chemical_formula_sum  Th2Sb2Te2
_cell_volume  182.32178512694773
_cell_formula_units_Z  2
loop_
  _symmetry_equiv_pos_site_id
 _symmetry_equiv_pos_as_xyz
 1  'x, y, z'
loop_
 _atom_site_type_symbol
 _atom_site_label
 _atom_site_symmetry_multiplicity
 _atom_site_fract_x
 _atom_site_fract_y
 _atom_site_fract_z
 _atom_site_fract_occupancy
 Sb  Sb1  1  0.50000  0.50000  0.00000  1
 Sb  Sb2  1  0.00000  0.00000  0.00000  1
 Te  Te1  1  0.50000  0.00000  0.37032  1
 Te  Te2  1  0.00000  0.50000  0.62968  1
 Th  Th1  1  0.50000  0.00000  0.73512  1
 Th  Th2  1  0.00000  0.50000  0.26488  1
