CIF file written using JARVIS-Tools package.
data_KBePO4
_symmetry_space_group_name_H-M  'Pna2_1'
_cell_length_a       4.97013
_cell_length_b       8.30207
_cell_length_c       8.55877
_cell_angle_alpha    90
_cell_angle_beta     90
_cell_angle_gamma    90

_symmetry_Int_Tables_number  33
_chemical_formula_structural  KBePO4
_chemical_formula_sum  K4Be4P4O6
_cell_volume  353.15502099451385
_cell_formula_units_Z  4
loop_
  _symmetry_equiv_pos_site_id
 _symmetry_equiv_pos_as_xyz
 1  'x, y, z'
loop_
 _atom_site_type_symbol
 _atom_site_label
 _atom_site_symmetry_multiplicity
 _atom_site_fract_x
 _atom_site_fract_y
 _atom_site_fract_z
 _atom_site_fract_occupancy
 Be  Be1  1  0.74074  0.81402  0.41225  1
 Be  Be2  1  0.24074  0.18598  0.58775  1
 Be  Be3  1  0.24074  0.68598  0.91225  1
 Be  Be4  1  0.74074  0.31402  0.08775  1
 K  K1  1  0.25304  0.49821  0.28601  1
 K  K2  1  0.75304  0.50179  0.71399  1
 K  K3  1  0.75304  0.00179  0.78601  1
 K  K4  1  0.25304  0.99821  0.21399  1
 O  O1  1  0.14147  0.24180  0.76062  1
 O  O2  1  0.52549  0.74344  0.54329  1
 O  O3  1  0.02549  0.25656  0.45671  1
 O  O4  1  0.64147  0.75820  0.23938  1
 O  O5  1  0.14147  0.74180  0.73938  1
 O  O6  1  0.24185  0.49121  0.91221  1
 O  O7  1  0.02549  0.75656  0.04329  1
 O  O8  1  0.64147  0.25820  0.26062  1
 O  O9  1  0.04304  0.74751  0.45193  1
 O  O10  1  0.74185  0.00879  0.41221  1
 O  O11  1  0.54304  0.75249  0.95193  1
 O  O12  1  0.04304  0.24751  0.04807  1
 O  O13  1  0.52549  0.24344  0.95671  1
 O  O14  1  0.24185  0.99121  0.58779  1
 O  O15  1  0.54304  0.25249  0.54807  1
 O  O16  1  0.74185  0.50879  0.08779  1
 P  P1  1  0.73948  0.69274  0.08087  1
 P  P2  1  0.23948  0.30726  0.91913  1
 P  P3  1  0.23948  0.80726  0.58087  1
 P  P4  1  0.73948  0.19274  0.41913  1
