CIF file written using JARVIS-Tools package.
data_CdBiSe2Br
_symmetry_space_group_name_H-M  'Pnma'
_cell_length_a       4.17355
_cell_length_b       10.023
_cell_length_c       13.2948
_cell_angle_alpha    90
_cell_angle_beta     90
_cell_angle_gamma    90

_symmetry_Int_Tables_number  62
_chemical_formula_structural  CdBiSe2Br
_chemical_formula_sum  Cd4Bi4Se8Br4
_cell_volume  556.1456388816055
_cell_formula_units_Z  4
loop_
  _symmetry_equiv_pos_site_id
 _symmetry_equiv_pos_as_xyz
 1  'x, y, z'
loop_
 _atom_site_type_symbol
 _atom_site_label
 _atom_site_symmetry_multiplicity
 _atom_site_fract_x
 _atom_site_fract_y
 _atom_site_fract_z
 _atom_site_fract_occupancy
 Bi  Bi1  1  0.75000  0.30610  0.02596  1
 Bi  Bi2  1  0.25000  0.19390  0.52596  1
 Bi  Bi3  1  0.75000  0.80610  0.47404  1
 Bi  Bi4  1  0.25000  0.69390  0.97404  1
 Br  Br1  1  0.25000  0.07483  0.89696  1
 Br  Br2  1  0.25000  0.57483  0.60304  1
 Br  Br3  1  0.75000  0.92517  0.10304  1
 Br  Br4  1  0.75000  0.42517  0.39696  1
 Cd  Cd1  1  0.75000  0.50600  0.73671  1
 Cd  Cd2  1  0.25000  0.99400  0.23671  1
 Cd  Cd3  1  0.25000  0.49400  0.26329  1
 Cd  Cd4  1  0.75000  0.00600  0.76329  1
 Se  Se1  1  0.25000  0.44344  0.88665  1
 Se  Se2  1  0.75000  0.74898  0.83065  1
 Se  Se3  1  0.25000  0.25102  0.16935  1
 Se  Se4  1  0.75000  0.24898  0.66935  1
 Se  Se5  1  0.25000  0.75102  0.33065  1
 Se  Se6  1  0.75000  0.05656  0.38665  1
 Se  Se7  1  0.75000  0.55656  0.11335  1
 Se  Se8  1  0.25000  0.94344  0.61335  1
