CIF file written using JARVIS-Tools package.
data_HfNbP
_symmetry_space_group_name_H-M  'Pnma'
_cell_length_a       3.54189
_cell_length_b       6.89484
_cell_length_c       8.35171
_cell_angle_alpha    90
_cell_angle_beta     90
_cell_angle_gamma    90

_symmetry_Int_Tables_number  62
_chemical_formula_structural  HfNbP
_chemical_formula_sum  Hf4Nb4P4
_cell_volume  203.95480787281352
_cell_formula_units_Z  4
loop_
  _symmetry_equiv_pos_site_id
 _symmetry_equiv_pos_as_xyz
 1  'x, y, z'
loop_
 _atom_site_type_symbol
 _atom_site_label
 _atom_site_symmetry_multiplicity
 _atom_site_fract_x
 _atom_site_fract_y
 _atom_site_fract_z
 _atom_site_fract_occupancy
 Hf  Hf1  1  0.25000  0.53362  0.83290  1
 Hf  Hf2  1  0.25000  0.03362  0.66710  1
 Hf  Hf3  1  0.75000  0.96638  0.33290  1
 Hf  Hf4  1  0.75000  0.46638  0.16710  1
 Nb  Nb1  1  0.75000  0.35839  0.55980  1
 Nb  Nb2  1  0.25000  0.14161  0.05980  1
 Nb  Nb3  1  0.75000  0.85839  0.94020  1
 Nb  Nb4  1  0.25000  0.64161  0.44020  1
 P  P1  1  0.25000  0.76172  0.14510  1
 P  P2  1  0.25000  0.26172  0.35490  1
 P  P3  1  0.75000  0.23828  0.85490  1
 P  P4  1  0.75000  0.73828  0.64510  1
