CIF file written using JARVIS-Tools package.
data_MoW3Se8
_symmetry_space_group_name_H-M  'P3m1'
_cell_length_a       3.32757
_cell_length_b       3.32757
_cell_length_c       35.2839
_cell_angle_alpha    90.0007
_cell_angle_beta     90
_cell_angle_gamma    120

_symmetry_Int_Tables_number  156
_chemical_formula_structural  MoW3Se8
_chemical_formula_sum  MoW3Se8
_cell_volume  338.34632002492623
_cell_formula_units_Z  1
loop_
  _symmetry_equiv_pos_site_id
 _symmetry_equiv_pos_as_xyz
 1  'x, y, z'
loop_
 _atom_site_type_symbol
 _atom_site_label
 _atom_site_symmetry_multiplicity
 _atom_site_fract_x
 _atom_site_fract_y
 _atom_site_fract_z
 _atom_site_fract_occupancy
 Mo  Mo1  1  0.33331  0.66663  0.09486  1
 Se  Se1  1  0.33334  0.66668  0.32962  1
 Se  Se2  1  0.33337  0.66674  0.70439  1
 Se  Se3  1  0.66664  0.33328  0.04748  1
 Se  Se4  1  0.66666  0.33332  0.42168  1
 Se  Se5  1  0.66665  0.33330  0.14229  1
 Se  Se6  1  0.66665  0.33330  0.51704  1
 Se  Se7  1  0.33334  0.66667  0.23426  1
 Se  Se8  1  0.33335  0.66670  0.60907  1
 W  W1  1  0.33332  0.66664  0.46936  1
 W  W2  1  0.66667  0.33334  0.28194  1
 W  W3  1  0.66669  0.33339  0.65676  1
