CIF file written using JARVIS-Tools package.
data_CaMgPb
_symmetry_space_group_name_H-M  'Pnma'
_cell_length_a       4.7197
_cell_length_b       7.89522
_cell_length_c       8.90514
_cell_angle_alpha    90
_cell_angle_beta     90
_cell_angle_gamma    90

_symmetry_Int_Tables_number  62
_chemical_formula_structural  CaMgPb
_chemical_formula_sum  Ca4Mg4Pb4
_cell_volume  331.8327687147207
_cell_formula_units_Z  4
loop_
  _symmetry_equiv_pos_site_id
 _symmetry_equiv_pos_as_xyz
 1  'x, y, z'
loop_
 _atom_site_type_symbol
 _atom_site_label
 _atom_site_symmetry_multiplicity
 _atom_site_fract_x
 _atom_site_fract_y
 _atom_site_fract_z
 _atom_site_fract_occupancy
 Ca  Ca1  1  0.25000  0.02216  0.18275  1
 Ca  Ca2  1  0.25000  0.52216  0.31725  1
 Ca  Ca3  1  0.75000  0.47784  0.68275  1
 Ca  Ca4  1  0.75000  0.97784  0.81725  1
 Mg  Mg1  1  0.75000  0.35823  0.06120  1
 Mg  Mg2  1  0.75000  0.85823  0.43880  1
 Mg  Mg3  1  0.25000  0.14177  0.56120  1
 Mg  Mg4  1  0.25000  0.64177  0.93880  1
 Pb  Pb1  1  0.75000  0.73899  0.11813  1
 Pb  Pb2  1  0.75000  0.23899  0.38187  1
 Pb  Pb3  1  0.25000  0.76101  0.61813  1
 Pb  Pb4  1  0.25000  0.26101  0.88187  1
