CIF file written using JARVIS-Tools package.
data_YbCoB4
_symmetry_space_group_name_H-M  'Pbam'
_cell_length_a       3.31716
_cell_length_b       5.88892
_cell_length_c       11.4
_cell_angle_alpha    90
_cell_angle_beta     90
_cell_angle_gamma    90

_symmetry_Int_Tables_number  55
_chemical_formula_structural  YbCoB4
_chemical_formula_sum  Yb4Co4B6
_cell_volume  222.69296681423072
_cell_formula_units_Z  4
loop_
  _symmetry_equiv_pos_site_id
 _symmetry_equiv_pos_as_xyz
 1  'x, y, z'
loop_
 _atom_site_type_symbol
 _atom_site_label
 _atom_site_symmetry_multiplicity
 _atom_site_fract_x
 _atom_site_fract_y
 _atom_site_fract_z
 _atom_site_fract_occupancy
 B  B1  1  0.50000  0.78157  0.18315  1
 B  B2  1  0.50000  0.02482  0.68985  1
 B  B3  1  0.50000  0.97518  0.31015  1
 B  B4  1  0.50000  0.52482  0.81015  1
 B  B5  1  0.50000  0.86039  0.03141  1
 B  B6  1  0.50000  0.11136  0.54609  1
 B  B7  1  0.50000  0.88864  0.45391  1
 B  B8  1  0.50000  0.47518  0.18985  1
 B  B9  1  0.50000  0.38864  0.04609  1
 B  B10  1  0.50000  0.28157  0.31685  1
 B  B11  1  0.50000  0.71843  0.68315  1
 B  B12  1  0.50000  0.13961  0.96859  1
 B  B13  1  0.50000  0.21843  0.81685  1
 B  B14  1  0.50000  0.36039  0.46859  1
 B  B15  1  0.50000  0.63961  0.53141  1
 B  B16  1  0.50000  0.61136  0.95391  1
 Co  Co1  1  0.00000  0.13473  0.41125  1
 Co  Co2  1  0.00000  0.86527  0.58875  1
 Co  Co3  1  0.00000  0.63473  0.08875  1
 Co  Co4  1  0.00000  0.36527  0.91125  1
 Yb  Yb1  1  0.00000  0.12691  0.15071  1
 Yb  Yb2  1  0.00000  0.87309  0.84929  1
 Yb  Yb3  1  0.00000  0.62691  0.34929  1
 Yb  Yb4  1  0.00000  0.37309  0.65071  1
