CIF file written using JARVIS-Tools package.
data_GaPt3
_symmetry_space_group_name_H-M  'I4/mcm'
_cell_length_a       5.55128
_cell_length_b       5.55134
_cell_length_c       5.60675
_cell_angle_alpha    119.678
_cell_angle_beta     119.677
_cell_angle_gamma    89.9944

_symmetry_Int_Tables_number  140
_chemical_formula_structural  GaPt3
_chemical_formula_sum  Ga2Pt6
_cell_volume  123.36285747042238
_cell_formula_units_Z  2
loop_
  _symmetry_equiv_pos_site_id
 _symmetry_equiv_pos_as_xyz
 1  'x, y, z'
loop_
 _atom_site_type_symbol
 _atom_site_label
 _atom_site_symmetry_multiplicity
 _atom_site_fract_x
 _atom_site_fract_y
 _atom_site_fract_z
 _atom_site_fract_occupancy
 Ga  Ga1  1  0.25689  0.75693  0.48617  1
 Ga  Ga2  1  0.75688  0.25684  0.48624  1
 Pt  Pt1  1  0.21281  0.71282  0.98614  1
 Pt  Pt2  1  0.30095  0.21284  0.98624  1
 Pt  Pt3  1  0.71284  0.80093  0.98620  1
 Pt  Pt4  1  0.80098  0.30097  0.98630  1
 Pt  Pt5  1  0.25692  0.25689  0.48625  1
 Pt  Pt6  1  0.75687  0.75690  0.48621  1
