CIF file written using JARVIS-Tools package.
data_Te2MoW3Se2S4
_symmetry_space_group_name_H-M  'P3m1'
_cell_length_a       3.32011
_cell_length_b       3.32012
_cell_length_c       37.3323
_cell_angle_alpha    89.999
_cell_angle_beta     90
_cell_angle_gamma    120

_symmetry_Int_Tables_number  156
_chemical_formula_structural  Te2MoW3Se2S4
_chemical_formula_sum  Te2MoW3Se2S4
_cell_volume  356.38709344900803
_cell_formula_units_Z  1
loop_
  _symmetry_equiv_pos_site_id
 _symmetry_equiv_pos_as_xyz
 1  'x, y, z'
loop_
 _atom_site_type_symbol
 _atom_site_label
 _atom_site_symmetry_multiplicity
 _atom_site_fract_x
 _atom_site_fract_y
 _atom_site_fract_z
 _atom_site_fract_occupancy
 Mo  Mo1  1  0.33331  0.66663  0.09384  1
 S  S1  1  0.33336  0.66673  0.32302  1
 S  S2  1  0.33336  0.66673  0.69844  1
 S  S3  1  0.33336  0.66672  0.24062  1
 S  S4  1  0.33336  0.66672  0.61630  1
 Se  Se1  1  0.66664  0.33328  0.42443  1
 Se  Se2  1  0.66665  0.33329  0.51483  1
 Te  Te1  1  0.66664  0.33329  0.04295  1
 Te  Te2  1  0.66664  0.33329  0.14519  1
 W  W1  1  0.33330  0.66660  0.46970  1
 W  W2  1  0.66668  0.33336  0.28191  1
 W  W3  1  0.66668  0.33337  0.65751  1
