CIF file written using JARVIS-Tools package.
data_TmCl2
_symmetry_space_group_name_H-M  'Pbca'
_cell_length_a       6.17923
_cell_length_b       7.12183
_cell_length_c       12.1067
_cell_angle_alpha    90
_cell_angle_beta     90
_cell_angle_gamma    90

_symmetry_Int_Tables_number  61
_chemical_formula_structural  TmCl2
_chemical_formula_sum  Tm8Cl6
_cell_volume  532.7842581741805
_cell_formula_units_Z  8
loop_
  _symmetry_equiv_pos_site_id
 _symmetry_equiv_pos_as_xyz
 1  'x, y, z'
loop_
 _atom_site_type_symbol
 _atom_site_label
 _atom_site_symmetry_multiplicity
 _atom_site_fract_x
 _atom_site_fract_y
 _atom_site_fract_z
 _atom_site_fract_occupancy
 Cl  Cl1  1  0.30283  0.37725  0.79357  1
 Cl  Cl2  1  0.02077  0.20438  0.54545  1
 Cl  Cl3  1  0.52077  0.79562  0.95455  1
 Cl  Cl4  1  0.47923  0.70438  0.45455  1
 Cl  Cl5  1  0.69717  0.62275  0.20643  1
 Cl  Cl6  1  0.97923  0.79562  0.45455  1
 Cl  Cl7  1  0.47923  0.20438  0.04545  1
 Cl  Cl8  1  0.97923  0.29562  0.04545  1
 Cl  Cl9  1  0.02077  0.70438  0.95455  1
 Cl  Cl10  1  0.19717  0.87725  0.20643  1
 Cl  Cl11  1  0.69717  0.12275  0.29357  1
 Cl  Cl12  1  0.19717  0.37725  0.29357  1
 Cl  Cl13  1  0.80283  0.62275  0.70643  1
 Cl  Cl14  1  0.80283  0.12275  0.79357  1
 Cl  Cl15  1  0.30283  0.87725  0.70643  1
 Cl  Cl16  1  0.52077  0.29562  0.54545  1
 Tm  Tm1  1  0.31910  0.54717  0.09776  1
 Tm  Tm2  1  0.81910  0.45283  0.40224  1
 Tm  Tm3  1  0.18090  0.04717  0.90224  1
 Tm  Tm4  1  0.68090  0.95283  0.59776  1
 Tm  Tm5  1  0.68090  0.45283  0.90224  1
 Tm  Tm6  1  0.18090  0.54717  0.59776  1
 Tm  Tm7  1  0.81910  0.95283  0.09776  1
 Tm  Tm8  1  0.31910  0.04717  0.40224  1
