CIF file written using JARVIS-Tools package.
data_DyFe4Ge2
_symmetry_space_group_name_H-M  'P4_2/mnm'
_cell_length_a       3.77721
_cell_length_b       7.22932
_cell_length_c       7.22932
_cell_angle_alpha    89.9998
_cell_angle_beta     90
_cell_angle_gamma    90

_symmetry_Int_Tables_number  136
_chemical_formula_structural  DyFe4Ge2
_chemical_formula_sum  Dy2Fe8Ge4
_cell_volume  197.40828173990633
_cell_formula_units_Z  2
loop_
  _symmetry_equiv_pos_site_id
 _symmetry_equiv_pos_as_xyz
 1  'x, y, z'
loop_
 _atom_site_type_symbol
 _atom_site_label
 _atom_site_symmetry_multiplicity
 _atom_site_fract_x
 _atom_site_fract_y
 _atom_site_fract_z
 _atom_site_fract_occupancy
 Dy  Dy1  1  0.00000  0.50000  0.50000  1
 Dy  Dy2  1  0.50000  0.00000  0.00000  1
 Fe  Fe1  1  0.50000  0.58265  0.14024  1
 Fe  Fe2  1  0.50000  0.14024  0.58265  1
 Fe  Fe3  1  0.00000  0.35975  0.08264  1
 Fe  Fe4  1  0.00000  0.64025  0.91736  1
 Fe  Fe5  1  0.00000  0.08264  0.35975  1
 Fe  Fe6  1  0.50000  0.85976  0.41735  1
 Fe  Fe7  1  0.50000  0.41735  0.85976  1
 Fe  Fe8  1  0.00000  0.91736  0.64025  1
 Ge  Ge1  1  0.00000  0.78153  0.21847  1
 Ge  Ge2  1  0.50000  0.28152  0.28152  1
 Ge  Ge3  1  0.00000  0.21847  0.78153  1
 Ge  Ge4  1  0.50000  0.71848  0.71848  1
