CIF file written using JARVIS-Tools package.
data_URhS3
_symmetry_space_group_name_H-M  'Pnma'
_cell_length_a       6.04768
_cell_length_b       7.109
_cell_length_c       8.39135
_cell_angle_alpha    90
_cell_angle_beta     90
_cell_angle_gamma    90

_symmetry_Int_Tables_number  62
_chemical_formula_structural  URhS3
_chemical_formula_sum  U4Rh4S2
_cell_volume  360.76876264837773
_cell_formula_units_Z  4
loop_
  _symmetry_equiv_pos_site_id
 _symmetry_equiv_pos_as_xyz
 1  'x, y, z'
loop_
 _atom_site_type_symbol
 _atom_site_label
 _atom_site_symmetry_multiplicity
 _atom_site_fract_x
 _atom_site_fract_y
 _atom_site_fract_z
 _atom_site_fract_occupancy
 Rh  Rh1  1  0.00000  0.00000  0.00000  1
 Rh  Rh2  1  0.00000  0.00000  0.50000  1
 Rh  Rh3  1  0.50000  0.50000  0.50000  1
 Rh  Rh4  1  0.50000  0.50000  0.00000  1
 S  S1  1  0.15832  0.32571  0.55698  1
 S  S2  1  0.34168  0.82571  0.94302  1
 S  S3  1  0.84168  0.67429  0.05698  1
 S  S4  1  0.65832  0.17429  0.05698  1
 S  S5  1  0.34168  0.82571  0.55698  1
 S  S6  1  0.15832  0.32571  0.94302  1
 S  S7  1  0.67191  0.43905  0.75000  1
 S  S8  1  0.84168  0.67429  0.44302  1
 S  S9  1  0.82809  0.93905  0.75000  1
 S  S10  1  0.17191  0.06095  0.25000  1
 S  S11  1  0.65832  0.17429  0.44302  1
 S  S12  1  0.32809  0.56095  0.25000  1
 U  U1  1  0.06545  0.62839  0.75000  1
 U  U2  1  0.56545  0.87161  0.25000  1
 U  U3  1  0.43455  0.12839  0.75000  1
 U  U4  1  0.93455  0.37161  0.25000  1
