CIF file written using JARVIS-Tools package.
data_PmZn3
_symmetry_space_group_name_H-M  'P6_3/mmc'
_cell_length_a       6.43841
_cell_length_b       6.43841
_cell_length_c       4.41822
_cell_angle_alpha    90
_cell_angle_beta     90
_cell_angle_gamma    120

_symmetry_Int_Tables_number  194
_chemical_formula_structural  PmZn3
_chemical_formula_sum  Pm2Zn6
_cell_volume  158.6120311411342
_cell_formula_units_Z  2
loop_
  _symmetry_equiv_pos_site_id
 _symmetry_equiv_pos_as_xyz
 1  'x, y, z'
loop_
 _atom_site_type_symbol
 _atom_site_label
 _atom_site_symmetry_multiplicity
 _atom_site_fract_x
 _atom_site_fract_y
 _atom_site_fract_z
 _atom_site_fract_occupancy
 Pm  Pm1  1  0.33333  0.66667  0.25000  1
 Pm  Pm2  1  0.66667  0.33333  0.75000  1
 Zn  Zn1  1  0.70758  0.85379  0.75000  1
 Zn  Zn2  1  0.14621  0.29242  0.75000  1
 Zn  Zn3  1  0.14621  0.85379  0.75000  1
 Zn  Zn4  1  0.29242  0.14621  0.25000  1
 Zn  Zn5  1  0.85379  0.70758  0.25000  1
 Zn  Zn6  1  0.85379  0.14621  0.25000  1
