CIF file written using JARVIS-Tools package.
data_ZrFeP
_symmetry_space_group_name_H-M  'Pnma'
_cell_length_a       3.76778
_cell_length_b       6.33775
_cell_length_c       7.08728
_cell_angle_alpha    90
_cell_angle_beta     90
_cell_angle_gamma    90

_symmetry_Int_Tables_number  62
_chemical_formula_structural  ZrFeP
_chemical_formula_sum  Zr4Fe4P4
_cell_volume  169.23915304792814
_cell_formula_units_Z  4
loop_
  _symmetry_equiv_pos_site_id
 _symmetry_equiv_pos_as_xyz
 1  'x, y, z'
loop_
 _atom_site_type_symbol
 _atom_site_label
 _atom_site_symmetry_multiplicity
 _atom_site_fract_x
 _atom_site_fract_y
 _atom_site_fract_z
 _atom_site_fract_occupancy
 Fe  Fe1  1  0.75000  0.85429  0.56285  1
 Fe  Fe2  1  0.25000  0.14571  0.43715  1
 Fe  Fe3  1  0.75000  0.35429  0.93715  1
 Fe  Fe4  1  0.25000  0.64571  0.06285  1
 P  P1  1  0.25000  0.28248  0.11092  1
 P  P2  1  0.75000  0.71752  0.88908  1
 P  P3  1  0.25000  0.78248  0.38908  1
 P  P4  1  0.75000  0.21752  0.61092  1
 Zr  Zr1  1  0.25000  0.51418  0.68629  1
 Zr  Zr2  1  0.75000  0.48582  0.31371  1
 Zr  Zr3  1  0.25000  0.01418  0.81371  1
 Zr  Zr4  1  0.75000  0.98582  0.18629  1
