CIF file written using JARVIS-Tools package.
data_KAlH4
_symmetry_space_group_name_H-M  'Pnma'
_cell_length_a       5.73325
_cell_length_b       7.25612
_cell_length_c       8.70201
_cell_angle_alpha    90
_cell_angle_beta     90
_cell_angle_gamma    90

_symmetry_Int_Tables_number  62
_chemical_formula_structural  KAlH4
_chemical_formula_sum  K4Al4H6
_cell_volume  362.01393794657247
_cell_formula_units_Z  4
loop_
  _symmetry_equiv_pos_site_id
 _symmetry_equiv_pos_as_xyz
 1  'x, y, z'
loop_
 _atom_site_type_symbol
 _atom_site_label
 _atom_site_symmetry_multiplicity
 _atom_site_fract_x
 _atom_site_fract_y
 _atom_site_fract_z
 _atom_site_fract_occupancy
 Al  Al1  1  0.25000  0.81883  0.57029  1
 Al  Al2  1  0.75000  0.18117  0.42971  1
 Al  Al3  1  0.75000  0.31883  0.92971  1
 Al  Al4  1  0.25000  0.68117  0.07029  1
 H  H1  1  0.75000  0.45871  0.78241  1
 H  H2  1  0.98065  0.18585  0.91886  1
 H  H3  1  0.48065  0.81415  0.08114  1
 H  H4  1  0.01935  0.68585  0.58114  1
 H  H5  1  0.25000  0.92947  0.40698  1
 H  H6  1  0.01935  0.81415  0.08114  1
 H  H7  1  0.51935  0.18585  0.91886  1
 H  H8  1  0.51935  0.31415  0.41886  1
 H  H9  1  0.48065  0.68585  0.58114  1
 H  H10  1  0.75000  0.07053  0.59302  1
 H  H11  1  0.75000  0.04129  0.28241  1
 H  H12  1  0.98065  0.31415  0.41886  1
 H  H13  1  0.25000  0.54129  0.21759  1
 H  H14  1  0.75000  0.42947  0.09302  1
 H  H15  1  0.25000  0.57053  0.90698  1
 H  H16  1  0.25000  0.95871  0.71759  1
 K  K1  1  0.75000  0.66431  0.32493  1
 K  K2  1  0.25000  0.33569  0.67507  1
 K  K3  1  0.25000  0.16431  0.17507  1
 K  K4  1  0.75000  0.83569  0.82493  1
