CIF file written using JARVIS-Tools package.
data_Ni3Se2
_symmetry_space_group_name_H-M  'R32'
_cell_length_a       4.24567
_cell_length_b       4.24568
_cell_length_c       4.24567
_cell_angle_alpha    90.7258
_cell_angle_beta     90.7258
_cell_angle_gamma    90.7258

_symmetry_Int_Tables_number  155
_chemical_formula_structural  Ni3Se2
_chemical_formula_sum  Ni3Se2
_cell_volume  76.51278458792788
_cell_formula_units_Z  1
loop_
  _symmetry_equiv_pos_site_id
 _symmetry_equiv_pos_as_xyz
 1  'x, y, z'
loop_
 _atom_site_type_symbol
 _atom_site_label
 _atom_site_symmetry_multiplicity
 _atom_site_fract_x
 _atom_site_fract_y
 _atom_site_fract_z
 _atom_site_fract_occupancy
 Ni  Ni1  1  0.24746  0.75254  0.00000  1
 Ni  Ni2  1  -0.00000  0.24746  0.75254  1
 Ni  Ni3  1  0.75254  0.00000  0.24746  1
 Se  Se1  1  0.25901  0.25901  0.25901  1
 Se  Se2  1  0.74099  0.74099  0.74099  1
