CIF file written using JARVIS-Tools package.
data_ThBiTe
_symmetry_space_group_name_H-M  'P4/nmm'
_cell_length_a       4.53551
_cell_length_b       4.53551
_cell_length_c       9.25775
_cell_angle_alpha    90
_cell_angle_beta     90
_cell_angle_gamma    90

_symmetry_Int_Tables_number  129
_chemical_formula_structural  ThBiTe
_chemical_formula_sum  Th2Bi2Te2
_cell_volume  190.4398476605993
_cell_formula_units_Z  2
loop_
  _symmetry_equiv_pos_site_id
 _symmetry_equiv_pos_as_xyz
 1  'x, y, z'
loop_
 _atom_site_type_symbol
 _atom_site_label
 _atom_site_symmetry_multiplicity
 _atom_site_fract_x
 _atom_site_fract_y
 _atom_site_fract_z
 _atom_site_fract_occupancy
 Bi  Bi1  1  0.50000  0.50000  0.00000  1
 Bi  Bi2  1  0.00000  0.00000  0.00000  1
 Te  Te1  1  0.50000  0.00000  0.36783  1
 Te  Te2  1  0.00000  0.50000  0.63217  1
 Th  Th1  1  0.50000  0.00000  0.72417  1
 Th  Th2  1  0.00000  0.50000  0.27583  1
