CIF file written using JARVIS-Tools package.
data_Na2LiN
_symmetry_space_group_name_H-M  'P4/nmm'
_cell_length_a       4.00948
_cell_length_b       4.00948
_cell_length_c       6.05387
_cell_angle_alpha    90
_cell_angle_beta     90
_cell_angle_gamma    90

_symmetry_Int_Tables_number  129
_chemical_formula_structural  Na2LiN
_chemical_formula_sum  Na4Li2N2
_cell_volume  97.32189522735635
_cell_formula_units_Z  2
loop_
  _symmetry_equiv_pos_site_id
 _symmetry_equiv_pos_as_xyz
 1  'x, y, z'
loop_
 _atom_site_type_symbol
 _atom_site_label
 _atom_site_symmetry_multiplicity
 _atom_site_fract_x
 _atom_site_fract_y
 _atom_site_fract_z
 _atom_site_fract_occupancy
 Li  Li1  1  0.50000  0.50000  0.00000  1
 Li  Li2  1  0.00000  0.00000  0.00000  1
 N  N1  1  0.50000  0.00000  0.79180  1
 N  N2  1  0.00000  0.50000  0.20820  1
 Na  Na1  1  0.50000  0.00000  0.20205  1
 Na  Na2  1  0.00000  0.00000  0.50000  1
 Na  Na3  1  0.00000  0.50000  0.79795  1
 Na  Na4  1  0.50000  0.50000  0.50000  1
