CIF file written using JARVIS-Tools package.
data_K2NbF7
_symmetry_space_group_name_H-M  'P2_1/c'
_cell_length_a       5.80125
_cell_length_b       12.73
_cell_length_c       8.53052
_cell_angle_alpha    90
_cell_angle_beta     90.0091
_cell_angle_gamma    90

_symmetry_Int_Tables_number  14
_chemical_formula_structural  K2NbF7
_chemical_formula_sum  K8Nb4F28
_cell_volume  629.9795927488633
_cell_formula_units_Z  4
loop_
  _symmetry_equiv_pos_site_id
 _symmetry_equiv_pos_as_xyz
 1  'x, y, z'
loop_
 _atom_site_type_symbol
 _atom_site_label
 _atom_site_symmetry_multiplicity
 _atom_site_fract_x
 _atom_site_fract_y
 _atom_site_fract_z
 _atom_site_fract_occupancy
 F  F1  1  0.95891  0.10680  0.60885  1
 F  F2  1  0.95812  0.24433  0.80346  1
 F  F3  1  0.04109  0.89320  0.39115  1
 F  F4  1  0.95812  0.25567  0.30346  1
 F  F5  1  0.18928  0.87828  0.99590  1
 F  F6  1  0.21324  0.02558  0.21285  1
 F  F7  1  0.78676  0.52558  0.28715  1
 F  F8  1  0.78676  0.97442  0.78715  1
 F  F9  1  0.47097  0.89051  0.41124  1
 F  F10  1  0.21324  0.47442  0.71285  1
 F  F11  1  0.81072  0.37828  0.50410  1
 F  F12  1  0.81072  0.12172  0.00410  1
 F  F13  1  0.18928  0.62172  0.49590  1
 F  F14  1  0.57065  0.92398  0.12773  1
 F  F15  1  0.42935  0.42398  0.37227  1
 F  F16  1  0.42935  0.07602  0.87227  1
 F  F17  1  0.57065  0.57602  0.62773  1
 F  F18  1  0.52903  0.10949  0.58876  1
 F  F19  1  0.04109  0.60680  0.89115  1
 F  F20  1  0.47097  0.60949  0.91124  1
 F  F21  1  0.95891  0.39320  0.10885  1
 F  F22  1  0.52903  0.39051  0.08876  1
 F  F23  1  0.46638  0.75848  0.70574  1
 F  F24  1  0.53362  0.24152  0.29426  1
 F  F25  1  0.46638  0.74152  0.20574  1
 F  F26  1  0.04188  0.74433  0.69654  1
 F  F27  1  0.53362  0.25848  0.79426  1
 F  F28  1  0.04188  0.75567  0.19654  1
 K  K1  1  0.23635  0.28194  0.55591  1
 K  K2  1  0.23635  0.21806  0.05591  1
 K  K3  1  0.76365  0.71806  0.44409  1
 K  K4  1  0.23718  0.93981  0.67941  1
 K  K5  1  0.76282  0.43981  0.82059  1
 K  K6  1  0.76365  0.78194  0.94409  1
 K  K7  1  0.23718  0.56019  0.17941  1
 K  K8  1  0.76282  0.06019  0.32059  1
 Nb  Nb1  1  0.27466  0.87228  0.21979  1
 Nb  Nb2  1  0.27466  0.62772  0.71979  1
 Nb  Nb3  1  0.72534  0.12772  0.78021  1
 Nb  Nb4  1  0.72534  0.37228  0.28021  1
