CIF file written using JARVIS-Tools package.
data_ReRu3
_symmetry_space_group_name_H-M  'P6_3/mmc'
_cell_length_a       5.48226
_cell_length_b       5.48226
_cell_length_c       4.33335
_cell_angle_alpha    90
_cell_angle_beta     90
_cell_angle_gamma    120

_symmetry_Int_Tables_number  194
_chemical_formula_structural  ReRu3
_chemical_formula_sum  Re2Ru6
_cell_volume  112.79104602298673
_cell_formula_units_Z  2
loop_
  _symmetry_equiv_pos_site_id
 _symmetry_equiv_pos_as_xyz
 1  'x, y, z'
loop_
 _atom_site_type_symbol
 _atom_site_label
 _atom_site_symmetry_multiplicity
 _atom_site_fract_x
 _atom_site_fract_y
 _atom_site_fract_z
 _atom_site_fract_occupancy
 Re  Re1  1  0.33333  0.66667  0.25000  1
 Re  Re2  1  0.66667  0.33333  0.75000  1
 Ru  Ru1  1  0.16722  0.83278  0.75000  1
 Ru  Ru2  1  0.66557  0.83278  0.75000  1
 Ru  Ru3  1  0.16722  0.33443  0.75000  1
 Ru  Ru4  1  0.83278  0.16722  0.25000  1
 Ru  Ru5  1  0.33443  0.16722  0.25000  1
 Ru  Ru6  1  0.83278  0.66557  0.25000  1
