CIF file written using JARVIS-Tools package.
data_U3TiSb5
_symmetry_space_group_name_H-M  'P6_3/mcm'
_cell_length_a       9.04857
_cell_length_b       9.04857
_cell_length_c       6.08851
_cell_angle_alpha    90
_cell_angle_beta     90
_cell_angle_gamma    120

_symmetry_Int_Tables_number  193
_chemical_formula_structural  U3TiSb5
_chemical_formula_sum  U6Ti2Sb0
_cell_volume  431.71900510706575
_cell_formula_units_Z  2
loop_
  _symmetry_equiv_pos_site_id
 _symmetry_equiv_pos_as_xyz
 1  'x, y, z'
loop_
 _atom_site_type_symbol
 _atom_site_label
 _atom_site_symmetry_multiplicity
 _atom_site_fract_x
 _atom_site_fract_y
 _atom_site_fract_z
 _atom_site_fract_occupancy
 Sb  Sb1  1  0.73572  0.73572  0.25000  1
 Sb  Sb2  1  0.26428  -0.00000  0.25000  1
 Sb  Sb3  1  0.33333  0.66667  0.00000  1
 Sb  Sb4  1  -0.00000  0.26428  0.25000  1
 Sb  Sb5  1  0.66667  0.33333  0.50000  1
 Sb  Sb6  1  0.33333  0.66667  0.50000  1
 Sb  Sb7  1  0.66667  0.33333  0.00000  1
 Sb  Sb8  1  0.00000  0.73572  0.75000  1
 Sb  Sb9  1  0.73572  0.00000  0.75000  1
 Sb  Sb10  1  0.26428  0.26428  0.75000  1
 Ti  Ti1  1  0.00000  0.00000  0.50000  1
 Ti  Ti2  1  0.00000  0.00000  0.00000  1
 U  U1  1  0.00000  0.38717  0.75000  1
 U  U2  1  0.38717  0.38717  0.25000  1
 U  U3  1  0.61283  -0.00000  0.25000  1
 U  U4  1  0.38717  0.00000  0.75000  1
 U  U5  1  0.61283  0.61283  0.75000  1
 U  U6  1  -0.00000  0.61283  0.25000  1
