CIF file written using JARVIS-Tools package.
data_PmSi3
_symmetry_space_group_name_H-M  'P6_3/mmc'
_cell_length_a       6.14918
_cell_length_b       4.74537
_cell_length_c       6.14938
_cell_angle_alpha    90
_cell_angle_beta     119.997
_cell_angle_gamma    90

_symmetry_Int_Tables_number  194
_chemical_formula_structural  PmSi3
_chemical_formula_sum  Pm2Si6
_cell_volume  155.40355099127822
_cell_formula_units_Z  2
loop_
  _symmetry_equiv_pos_site_id
 _symmetry_equiv_pos_as_xyz
 1  'x, y, z'
loop_
 _atom_site_type_symbol
 _atom_site_label
 _atom_site_symmetry_multiplicity
 _atom_site_fract_x
 _atom_site_fract_y
 _atom_site_fract_z
 _atom_site_fract_occupancy
 Pm  Pm1  1  0.66667  0.25000  0.33339  1
 Pm  Pm2  1  0.33333  0.75000  0.66661  1
 Si  Si1  1  0.27499  0.75000  0.13745  1
 Si  Si2  1  0.86254  0.75000  0.72505  1
 Si  Si3  1  0.86248  0.75000  0.13750  1
 Si  Si4  1  0.72501  0.25000  0.86255  1
 Si  Si5  1  0.13746  0.25000  0.27495  1
 Si  Si6  1  0.13752  0.25000  0.86250  1
