CIF file written using JARVIS-Tools package.
data_FeCo2Se4
_symmetry_space_group_name_H-M  'C2/m'
_cell_length_a       3.54435
_cell_length_b       6.1871
_cell_length_c       6.34488
_cell_angle_alpha    118.338
_cell_angle_beta     106.219
_cell_angle_gamma    90

_symmetry_Int_Tables_number  12
_chemical_formula_structural  FeCo2Se4
_chemical_formula_sum  FeCo2Se4
_cell_volume  116.13420438850238
_cell_formula_units_Z  1
loop_
  _symmetry_equiv_pos_site_id
 _symmetry_equiv_pos_as_xyz
 1  'x, y, z'
loop_
 _atom_site_type_symbol
 _atom_site_label
 _atom_site_symmetry_multiplicity
 _atom_site_fract_x
 _atom_site_fract_y
 _atom_site_fract_z
 _atom_site_fract_occupancy
 Co  Co1  1  0.26036  0.27892  0.52072  1
 Co  Co2  1  0.73964  0.72108  0.47928  1
 Fe  Fe1  1  0.00000  0.00000  0.00000  1
 Se  Se1  1  0.12462  0.45479  0.24924  1
 Se  Se2  1  0.87538  0.54521  0.75076  1
 Se  Se3  1  0.36450  0.02769  0.72900  1
 Se  Se4  1  0.63550  0.97231  0.27100  1
