CIF file written using JARVIS-Tools package.
data_SmC6
_symmetry_space_group_name_H-M  'P6/mmm'
_cell_length_a       4.32238
_cell_length_b       4.32238
_cell_length_c       4.68745
_cell_angle_alpha    90
_cell_angle_beta     90
_cell_angle_gamma    120

_symmetry_Int_Tables_number  191
_chemical_formula_structural  SmC6
_chemical_formula_sum  SmC6
_cell_volume  75.8427420155138
_cell_formula_units_Z  1
loop_
  _symmetry_equiv_pos_site_id
 _symmetry_equiv_pos_as_xyz
 1  'x, y, z'
loop_
 _atom_site_type_symbol
 _atom_site_label
 _atom_site_symmetry_multiplicity
 _atom_site_fract_x
 _atom_site_fract_y
 _atom_site_fract_z
 _atom_site_fract_occupancy
 C  C1  1  0.66712  0.66712  0.50000  1
 C  C2  1  0.33288  0.33288  0.50000  1
 C  C3  1  -0.00000  0.33288  0.50000  1
 C  C4  1  0.00000  0.66712  0.50000  1
 C  C5  1  0.33288  -0.00000  0.50000  1
 C  C6  1  0.66712  0.00000  0.50000  1
 Sm  Sm1  1  0.00000  0.00000  0.00000  1
