CIF file written using JARVIS-Tools package.
data_TiFe2
_symmetry_space_group_name_H-M  'P6_3/mmc'
_cell_length_a       4.69674
_cell_length_b       4.69674
_cell_length_c       7.71285
_cell_angle_alpha    90
_cell_angle_beta     90
_cell_angle_gamma    120

_symmetry_Int_Tables_number  194
_chemical_formula_structural  TiFe2
_chemical_formula_sum  Ti4Fe8
_cell_volume  147.34566362457153
_cell_formula_units_Z  4
loop_
  _symmetry_equiv_pos_site_id
 _symmetry_equiv_pos_as_xyz
 1  'x, y, z'
loop_
 _atom_site_type_symbol
 _atom_site_label
 _atom_site_symmetry_multiplicity
 _atom_site_fract_x
 _atom_site_fract_y
 _atom_site_fract_z
 _atom_site_fract_occupancy
 Fe  Fe1  1  0.65860  0.82930  0.75000  1
 Fe  Fe2  1  0.34140  0.17070  0.25000  1
 Fe  Fe3  1  0.82930  0.17070  0.25000  1
 Fe  Fe4  1  0.17070  0.34140  0.75000  1
 Fe  Fe5  1  0.17070  0.82930  0.75000  1
 Fe  Fe6  1  0.82930  0.65860  0.25000  1
 Fe  Fe7  1  0.00000  0.00000  0.50000  1
 Fe  Fe8  1  0.00000  0.00000  0.00000  1
 Ti  Ti1  1  0.33333  0.66667  0.43508  1
 Ti  Ti2  1  0.66667  0.33333  0.93508  1
 Ti  Ti3  1  0.66667  0.33333  0.56492  1
 Ti  Ti4  1  0.33333  0.66667  0.06492  1
