CIF file written using JARVIS-Tools package.
data_Ag2GeO4
_symmetry_space_group_name_H-M  'Fddd'
_cell_length_a       7.92486
_cell_length_b       5.96664
_cell_length_c       6.72009
_cell_angle_alpha    77.0604
_cell_angle_beta     47.2045
_cell_angle_gamma    55.7351

_symmetry_Int_Tables_number  70
_chemical_formula_structural  Ag2GeO4
_chemical_formula_sum  Ag4Ge2O8
_cell_volume  185.99279903905676
_cell_formula_units_Z  2
loop_
  _symmetry_equiv_pos_site_id
 _symmetry_equiv_pos_as_xyz
 1  'x, y, z'
loop_
 _atom_site_type_symbol
 _atom_site_label
 _atom_site_symmetry_multiplicity
 _atom_site_fract_x
 _atom_site_fract_y
 _atom_site_fract_z
 _atom_site_fract_occupancy
 Ag  Ag1  1  0.22044  0.22044  0.52956  1
 Ag  Ag2  1  0.52956  0.52956  0.22044  1
 Ag  Ag3  1  0.77956  0.77956  0.47044  1
 Ag  Ag4  1  0.47044  0.47044  0.77956  1
 Ge  Ge1  1  0.12500  0.12500  0.12500  1
 Ge  Ge2  1  0.87500  0.87500  0.87500  1
 O  O1  1  0.14578  0.32507  0.26222  1
 O  O2  1  0.76692  0.26222  0.32507  1
 O  O3  1  0.26222  0.76692  0.14578  1
 O  O4  1  0.32507  0.14578  0.76692  1
 O  O5  1  0.67493  0.85422  0.23308  1
 O  O6  1  0.73778  0.23308  0.85422  1
 O  O7  1  0.23308  0.73778  0.67493  1
 O  O8  1  0.85422  0.67493  0.73778  1
