CIF file written using JARVIS-Tools package.
data_NbGeIr
_symmetry_space_group_name_H-M  'Pnma'
_cell_length_a       3.93923
_cell_length_b       6.5126
_cell_length_c       7.47712
_cell_angle_alpha    90
_cell_angle_beta     90
_cell_angle_gamma    90

_symmetry_Int_Tables_number  62
_chemical_formula_structural  NbGeIr
_chemical_formula_sum  Nb4Ge4Ir4
_cell_volume  191.8225969712451
_cell_formula_units_Z  4
loop_
  _symmetry_equiv_pos_site_id
 _symmetry_equiv_pos_as_xyz
 1  'x, y, z'
loop_
 _atom_site_type_symbol
 _atom_site_label
 _atom_site_symmetry_multiplicity
 _atom_site_fract_x
 _atom_site_fract_y
 _atom_site_fract_z
 _atom_site_fract_occupancy
 Ge  Ge1  1  0.25000  0.24229  0.87791  1
 Ge  Ge2  1  0.25000  0.74229  0.62209  1
 Ge  Ge3  1  0.75000  0.75771  0.12209  1
 Ge  Ge4  1  0.75000  0.25771  0.37791  1
 Ir  Ir1  1  0.25000  0.85582  0.93797  1
 Ir  Ir2  1  0.25000  0.35582  0.56203  1
 Ir  Ir3  1  0.75000  0.64418  0.43797  1
 Ir  Ir4  1  0.75000  0.14418  0.06203  1
 Nb  Nb1  1  0.75000  0.52636  0.82018  1
 Nb  Nb2  1  0.25000  0.97364  0.32018  1
 Nb  Nb3  1  0.75000  0.02636  0.67982  1
 Nb  Nb4  1  0.25000  0.47364  0.17982  1
