CIF file written using JARVIS-Tools package.
data_NiSe2
_symmetry_space_group_name_H-M  'Pa-3'
_cell_length_a       5.9651
_cell_length_b       5.9651
_cell_length_c       5.9651
_cell_angle_alpha    90
_cell_angle_beta     90
_cell_angle_gamma    90

_symmetry_Int_Tables_number  205
_chemical_formula_structural  NiSe2
_chemical_formula_sum  Ni4Se8
_cell_volume  212.25313473664576
_cell_formula_units_Z  4
loop_
  _symmetry_equiv_pos_site_id
 _symmetry_equiv_pos_as_xyz
 1  'x, y, z'
loop_
 _atom_site_type_symbol
 _atom_site_label
 _atom_site_symmetry_multiplicity
 _atom_site_fract_x
 _atom_site_fract_y
 _atom_site_fract_z
 _atom_site_fract_occupancy
 Ni  Ni1  1  0.00000  0.00000  0.00000  1
 Ni  Ni2  1  0.50000  0.00000  0.50000  1
 Ni  Ni3  1  0.50000  0.50000  0.00000  1
 Ni  Ni4  1  0.00000  0.50000  0.50000  1
 Se  Se1  1  0.37785  0.37785  0.37785  1
 Se  Se2  1  0.12215  0.62215  0.87785  1
 Se  Se3  1  0.87785  0.12215  0.62215  1
 Se  Se4  1  0.62215  0.87785  0.12215  1
 Se  Se5  1  0.62215  0.62215  0.62215  1
 Se  Se6  1  0.87785  0.37785  0.12215  1
 Se  Se7  1  0.12215  0.87785  0.37785  1
 Se  Se8  1  0.37785  0.12215  0.87785  1
