CIF file written using JARVIS-Tools package.
data_ZrTi2H4
_symmetry_space_group_name_H-M  'Fd-3m'
_cell_length_a       5.76631
_cell_length_b       5.76631
_cell_length_c       5.76631
_cell_angle_alpha    60
_cell_angle_beta     60
_cell_angle_gamma    60

_symmetry_Int_Tables_number  227
_chemical_formula_structural  ZrTi2H4
_chemical_formula_sum  Zr2Ti4H8
_cell_volume  135.57480896448098
_cell_formula_units_Z  2
loop_
  _symmetry_equiv_pos_site_id
 _symmetry_equiv_pos_as_xyz
 1  'x, y, z'
loop_
 _atom_site_type_symbol
 _atom_site_label
 _atom_site_symmetry_multiplicity
 _atom_site_fract_x
 _atom_site_fract_y
 _atom_site_fract_z
 _atom_site_fract_occupancy
 H  H1  1  0.43173  0.85609  0.85609  1
 H  H2  1  0.85609  0.85609  0.43173  1
 H  H3  1  0.85609  0.43173  0.85609  1
 H  H4  1  0.85609  0.85609  0.85609  1
 H  H5  1  0.81827  0.39391  0.39391  1
 H  H6  1  0.39391  0.39391  0.81827  1
 H  H7  1  0.39391  0.81827  0.39391  1
 H  H8  1  0.39391  0.39391  0.39391  1
 Ti  Ti1  1  0.12500  0.62500  0.62500  1
 Ti  Ti2  1  0.62500  0.62500  0.12500  1
 Ti  Ti3  1  0.62500  0.12500  0.62500  1
 Ti  Ti4  1  0.62500  0.62500  0.62500  1
 Zr  Zr1  1  0.25000  0.25000  0.25000  1
 Zr  Zr2  1  0.00000  0.00000  0.00000  1
