CIF file written using JARVIS-Tools package.
data_UGa3Pd2
_symmetry_space_group_name_H-M  'P6/mmm'
_cell_length_a       5.29852
_cell_length_b       5.29852
_cell_length_c       8.58292
_cell_angle_alpha    90
_cell_angle_beta     90
_cell_angle_gamma    120

_symmetry_Int_Tables_number  191
_chemical_formula_structural  UGa3Pd2
_chemical_formula_sum  U2Ga6Pd4
_cell_volume  208.67687499845246
_cell_formula_units_Z  2
loop_
  _symmetry_equiv_pos_site_id
 _symmetry_equiv_pos_as_xyz
 1  'x, y, z'
loop_
 _atom_site_type_symbol
 _atom_site_label
 _atom_site_symmetry_multiplicity
 _atom_site_fract_x
 _atom_site_fract_y
 _atom_site_fract_z
 _atom_site_fract_occupancy
 Ga  Ga1  1  0.50001  0.00001  0.25000  1
 Ga  Ga2  1  0.00001  0.50001  0.75000  1
 Ga  Ga3  1  0.49999  0.50001  0.75000  1
 Ga  Ga4  1  0.50001  0.49999  0.25000  1
 Ga  Ga5  1  0.49999  0.99999  0.75000  1
 Ga  Ga6  1  0.99999  0.49999  0.25000  1
 Pd  Pd1  1  0.66667  0.33333  0.99999  1
 Pd  Pd2  1  0.33333  0.66667  0.00001  1
 Pd  Pd3  1  0.33333  0.66667  0.49999  1
 Pd  Pd4  1  0.66667  0.33333  0.50001  1
 U  U1  1  0.00000  0.00000  0.50000  1
 U  U2  1  0.00000  0.00000  0.00000  1
