CIF file written using JARVIS-Tools package.
data_Mo3Se4S2
_symmetry_space_group_name_H-M  'Cm'
_cell_length_a       3.28203
_cell_length_b       3.28199
_cell_length_c       19.4655
_cell_angle_alpha    94.8565
_cell_angle_beta     90
_cell_angle_gamma    120

_symmetry_Int_Tables_number  8
_chemical_formula_structural  Mo3Se4S2
_chemical_formula_sum  Mo3Se4S2
_cell_volume  180.7129931013601
_cell_formula_units_Z  1
loop_
  _symmetry_equiv_pos_site_id
 _symmetry_equiv_pos_as_xyz
 1  'x, y, z'
loop_
 _atom_site_type_symbol
 _atom_site_label
 _atom_site_symmetry_multiplicity
 _atom_site_fract_x
 _atom_site_fract_y
 _atom_site_fract_z
 _atom_site_fract_occupancy
 Mo  Mo1  1  0.22124  0.44248  0.01283  1
 Mo  Mo2  1  0.44650  0.89300  0.68523  1
 Mo  Mo3  1  0.66558  0.33115  0.34287  1
 S  S1  1  0.52798  0.05597  0.93345  1
 S  S2  1  0.58120  0.16239  0.09229  1
 Se  Se1  1  0.36145  0.72291  0.43009  1
 Se  Se2  1  0.75061  0.50123  0.59801  1
 Se  Se3  1  0.80901  0.61802  0.77239  1
 Se  Se4  1  0.30303  0.60606  0.25568  1
