data_image0
_chemical_formula_structural       Co4Ge4
_chemical_formula_sum              "Co4 Ge4"
_cell_length_a       6.0725
_cell_length_b       6.0725
_cell_length_c       4.91163
_cell_angle_alpha    80.0542
_cell_angle_beta     99.9458
_cell_angle_gamma    143.951

_space_group_name_H-M_alt    "P 1"
_space_group_IT_number       1

loop_
  _space_group_symop_operation_xyz
  'x, y, z'

loop_
  _atom_site_type_symbol
  _atom_site_label
  _atom_site_symmetry_multiplicity
  _atom_site_fract_x
  _atom_site_fract_y
  _atom_site_fract_z
  _atom_site_occupancy
  Co  Co1       1.0  0.00000  0.00000  0.00000  1.0000
  Co  Co2       1.0  0.20000  0.80000  0.32900  1.0000
  Co  Co3       1.0  0.80000  0.20000  0.67100  1.0000
  Co  Co4       1.0  0.00000  0.00000  0.50000  1.0000
  Ge  Ge1       1.0  0.42900  0.57100  0.71500  1.0000
  Ge  Ge2       1.0  0.57100  0.42900  0.28500  1.0000
  Ge  Ge3       1.0  0.18400  0.81600  0.82300  1.0000
  Ge  Ge4       1.0  0.81600  0.18400  0.17700  1.0000
