CIF file written using JARVIS-Tools package.
data_Sm2InGe2
_symmetry_space_group_name_H-M  'P4/mbm'
_cell_length_a       7.53042
_cell_length_b       7.53042
_cell_length_c       4.25348
_cell_angle_alpha    90
_cell_angle_beta     90
_cell_angle_gamma    90

_symmetry_Int_Tables_number  127
_chemical_formula_structural  Sm2InGe2
_chemical_formula_sum  Sm4In2Ge4
_cell_volume  241.20325234844086
_cell_formula_units_Z  2
loop_
  _symmetry_equiv_pos_site_id
 _symmetry_equiv_pos_as_xyz
 1  'x, y, z'
loop_
 _atom_site_type_symbol
 _atom_site_label
 _atom_site_symmetry_multiplicity
 _atom_site_fract_x
 _atom_site_fract_y
 _atom_site_fract_z
 _atom_site_fract_occupancy
 Ge  Ge1  1  0.11961  0.61961  0.00000  1
 Ge  Ge2  1  0.61961  0.88039  0.00000  1
 Ge  Ge3  1  0.38039  0.11961  0.00000  1
 Ge  Ge4  1  0.88039  0.38039  0.00000  1
 In  In1  1  0.00000  0.00000  0.00000  1
 In  In2  1  0.50000  0.50000  0.00000  1
 Sm  Sm1  1  0.32048  0.82048  0.50000  1
 Sm  Sm2  1  0.82048  0.67952  0.50000  1
 Sm  Sm3  1  0.17952  0.32048  0.50000  1
 Sm  Sm4  1  0.67952  0.17952  0.50000  1
