CIF file written using JARVIS-Tools package.
data_ErZnGa
_symmetry_space_group_name_H-M  'P6_3mc'
_cell_length_a       4.37758
_cell_length_b       4.37758
_cell_length_c       7.05832
_cell_angle_alpha    90
_cell_angle_beta     90
_cell_angle_gamma    120

_symmetry_Int_Tables_number  186
_chemical_formula_structural  ErZnGa
_chemical_formula_sum  Er2Zn2Ga2
_cell_volume  117.1391750105838
_cell_formula_units_Z  2
loop_
  _symmetry_equiv_pos_site_id
 _symmetry_equiv_pos_as_xyz
 1  'x, y, z'
loop_
 _atom_site_type_symbol
 _atom_site_label
 _atom_site_symmetry_multiplicity
 _atom_site_fract_x
 _atom_site_fract_y
 _atom_site_fract_z
 _atom_site_fract_occupancy
 Er  Er1  1  0.00000  0.00000  0.49914  1
 Er  Er2  1  0.00000  0.00000  0.99914  1
 Ga  Ga1  1  0.33333  0.66667  0.78439  1
 Ga  Ga2  1  0.66667  0.33333  0.28439  1
 Zn  Zn1  1  0.33333  0.66667  0.21027  1
 Zn  Zn2  1  0.66667  0.33333  0.71027  1
