CIF file written using JARVIS-Tools package.
data_Te4MoW2Se2
_symmetry_space_group_name_H-M  'P1'
_cell_length_a       3.48726
_cell_length_b       3.48716
_cell_length_c       20.993
_cell_angle_alpha    90.0098
_cell_angle_beta     94.8091
_cell_angle_gamma    120.001

_symmetry_Int_Tables_number  1
_chemical_formula_structural  Te4MoW2Se2
_chemical_formula_sum  Te4MoW2Se2
_cell_volume  220.0443735918029
_cell_formula_units_Z  1
loop_
  _symmetry_equiv_pos_site_id
 _symmetry_equiv_pos_as_xyz
 1  'x, y, z'
loop_
 _atom_site_type_symbol
 _atom_site_label
 _atom_site_symmetry_multiplicity
 _atom_site_fract_x
 _atom_site_fract_y
 _atom_site_fract_z
 _atom_site_fract_occupancy
 Mo  Mo1  1  0.10948  0.55599  0.00718  1
 Se  Se1  1  0.83316  0.41573  0.60280  1
 Se  Se2  1  0.93822  0.46847  0.75865  1
 Te  Te1  1  0.39780  0.69844  0.44156  1
 Te  Te2  1  0.38339  0.19284  0.91906  1
 Te  Te3  1  0.50230  0.25252  0.09537  1
 Te  Te4  1  0.27843  0.63859  0.26444  1
 W  W1  1  0.55236  0.77544  0.68077  1
 W  W2  1  0.67146  0.33519  0.35302  1
