CIF file written using JARVIS-Tools package.
data_FeBiO3
_symmetry_space_group_name_H-M  'R3'
_cell_length_a       5.29622
_cell_length_b       5.29623
_cell_length_c       5.29622
_cell_angle_alpha    68.0213
_cell_angle_beta     68.0213
_cell_angle_gamma    68.0212

_symmetry_Int_Tables_number  146
_chemical_formula_structural  FeBiO3
_chemical_formula_sum  FeBiO3
_cell_volume  122.9215240768265
_cell_formula_units_Z  1
loop_
  _symmetry_equiv_pos_site_id
 _symmetry_equiv_pos_as_xyz
 1  'x, y, z'
loop_
 _atom_site_type_symbol
 _atom_site_label
 _atom_site_symmetry_multiplicity
 _atom_site_fract_x
 _atom_site_fract_y
 _atom_site_fract_z
 _atom_site_fract_occupancy
 Bi  Bi1  1  0.02908  0.02908  0.02908  1
 Fe  Fe1  1  0.28041  0.28041  0.28041  1
 O  O1  1  0.02493  0.18630  0.59327  1
 O  O2  1  0.59327  0.02493  0.18630  1
 O  O3  1  0.18630  0.59327  0.02493  1
