CIF file written using JARVIS-Tools package.
data_SiRu2
_symmetry_space_group_name_H-M  'Pnma'
_cell_length_a       4.04827
_cell_length_b       5.33342
_cell_length_c       7.44923
_cell_angle_alpha    90
_cell_angle_beta     90
_cell_angle_gamma    90

_symmetry_Int_Tables_number  62
_chemical_formula_structural  SiRu2
_chemical_formula_sum  Si4Ru8
_cell_volume  160.83730117727455
_cell_formula_units_Z  4
loop_
  _symmetry_equiv_pos_site_id
 _symmetry_equiv_pos_as_xyz
 1  'x, y, z'
loop_
 _atom_site_type_symbol
 _atom_site_label
 _atom_site_symmetry_multiplicity
 _atom_site_fract_x
 _atom_site_fract_y
 _atom_site_fract_z
 _atom_site_fract_occupancy
 Ru  Ru1  1  0.75000  0.01222  0.71104  1
 Ru  Ru2  1  0.25000  0.98778  0.28896  1
 Ru  Ru3  1  0.75000  0.51222  0.78896  1
 Ru  Ru4  1  0.25000  0.48778  0.21104  1
 Ru  Ru5  1  0.25000  0.33489  0.56625  1
 Ru  Ru6  1  0.75000  0.66511  0.43375  1
 Ru  Ru7  1  0.25000  0.83489  0.93375  1
 Ru  Ru8  1  0.75000  0.16511  0.06625  1
 Si  Si1  1  0.25000  0.79739  0.59748  1
 Si  Si2  1  0.75000  0.20261  0.40252  1
 Si  Si3  1  0.25000  0.29739  0.90252  1
 Si  Si4  1  0.75000  0.70261  0.09748  1
