CIF file written using JARVIS-Tools package.
data_SrNd2Se4
_symmetry_space_group_name_H-M  'I-42d'
_cell_length_a       7.82225
_cell_length_b       7.82225
_cell_length_c       7.82225
_cell_angle_alpha    109.428
_cell_angle_beta     109.557
_cell_angle_gamma    109.428

_symmetry_Int_Tables_number  122
_chemical_formula_structural  SrNd2Se4
_chemical_formula_sum  Sr2Nd4Se8
_cell_volume  368.44468271973875
_cell_formula_units_Z  2
loop_
  _symmetry_equiv_pos_site_id
 _symmetry_equiv_pos_as_xyz
 1  'x, y, z'
loop_
 _atom_site_type_symbol
 _atom_site_label
 _atom_site_symmetry_multiplicity
 _atom_site_fract_x
 _atom_site_fract_y
 _atom_site_fract_z
 _atom_site_fract_occupancy
 Nd  Nd1  1  0.25000  0.62684  0.37684  1
 Nd  Nd2  1  0.75000  0.87316  0.12316  1
 Nd  Nd3  1  0.62316  0.37316  0.25000  1
 Nd  Nd4  1  0.87684  0.12684  0.75000  1
 Se  Se1  1  0.14397  0.15248  0.14473  1
 Se  Se2  1  0.35603  0.50076  0.00851  1
 Se  Se3  1  0.64473  0.65248  0.64397  1
 Se  Se4  1  0.50851  0.00076  0.85603  1
 Se  Se5  1  0.50776  0.99924  0.35527  1
 Se  Se6  1  0.99149  0.84752  0.49224  1
 Se  Se7  1  0.85527  0.49924  0.00776  1
 Se  Se8  1  0.99224  0.34752  0.49149  1
 Sr  Sr1  1  0.12500  0.75000  0.87500  1
 Sr  Sr2  1  0.37500  0.25000  0.62500  1
