CIF file written using JARVIS-Tools package.
data_DyGaPd
_symmetry_space_group_name_H-M  'Pnma'
_cell_length_a       4.45243
_cell_length_b       6.89592
_cell_length_c       7.64867
_cell_angle_alpha    90
_cell_angle_beta     90
_cell_angle_gamma    90

_symmetry_Int_Tables_number  62
_chemical_formula_structural  DyGaPd
_chemical_formula_sum  Dy4Ga4Pd4
_cell_volume  234.84203025347725
_cell_formula_units_Z  4
loop_
  _symmetry_equiv_pos_site_id
 _symmetry_equiv_pos_as_xyz
 1  'x, y, z'
loop_
 _atom_site_type_symbol
 _atom_site_label
 _atom_site_symmetry_multiplicity
 _atom_site_fract_x
 _atom_site_fract_y
 _atom_site_fract_z
 _atom_site_fract_occupancy
 Dy  Dy1  1  0.25000  0.48437  0.20081  1
 Dy  Dy2  1  0.75000  0.51563  0.79919  1
 Dy  Dy3  1  0.25000  0.98437  0.29919  1
 Dy  Dy4  1  0.75000  0.01563  0.70081  1
 Ga  Ga1  1  0.25000  0.82040  0.92244  1
 Ga  Ga2  1  0.75000  0.17960  0.07756  1
 Ga  Ga3  1  0.25000  0.32040  0.57756  1
 Ga  Ga4  1  0.75000  0.67960  0.42244  1
 Pd  Pd1  1  0.75000  0.77976  0.09434  1
 Pd  Pd2  1  0.25000  0.22024  0.90566  1
 Pd  Pd3  1  0.75000  0.27976  0.40566  1
 Pd  Pd4  1  0.25000  0.72024  0.59434  1
