CIF file written using JARVIS-Tools package.
data_Pr2CdNi2
_symmetry_space_group_name_H-M  'P4/mbm'
_cell_length_a       7.56104
_cell_length_b       7.56104
_cell_length_c       3.84563
_cell_angle_alpha    90
_cell_angle_beta     90
_cell_angle_gamma    90

_symmetry_Int_Tables_number  127
_chemical_formula_structural  Pr2CdNi2
_chemical_formula_sum  Pr4Cd2Ni4
_cell_volume  219.85204078804398
_cell_formula_units_Z  2
loop_
  _symmetry_equiv_pos_site_id
 _symmetry_equiv_pos_as_xyz
 1  'x, y, z'
loop_
 _atom_site_type_symbol
 _atom_site_label
 _atom_site_symmetry_multiplicity
 _atom_site_fract_x
 _atom_site_fract_y
 _atom_site_fract_z
 _atom_site_fract_occupancy
 Cd  Cd1  1  0.00000  0.00000  0.00000  1
 Cd  Cd2  1  0.50000  0.50000  0.00000  1
 Ni  Ni1  1  0.38357  0.11643  0.00000  1
 Ni  Ni2  1  0.88357  0.38357  0.00000  1
 Ni  Ni3  1  0.11643  0.61643  0.00000  1
 Ni  Ni4  1  0.61643  0.88357  0.00000  1
 Pr  Pr1  1  0.32217  0.82217  0.50000  1
 Pr  Pr2  1  0.82217  0.67783  0.50000  1
 Pr  Pr3  1  0.17783  0.32217  0.50000  1
 Pr  Pr4  1  0.67783  0.17783  0.50000  1
