CIF file written using JARVIS-Tools package.
data_Sm3Co2Ge4
_symmetry_space_group_name_H-M  'C2/m'
_cell_length_a       4.18227
_cell_length_b       5.85538
_cell_length_c       8.1503
_cell_angle_alpha    106.804
_cell_angle_beta     90
_cell_angle_gamma    110.924

_symmetry_Int_Tables_number  12
_chemical_formula_structural  Sm3Co2Ge4
_chemical_formula_sum  Sm3Co2Ge4
_cell_volume  177.27434853767878
_cell_formula_units_Z  1
loop_
  _symmetry_equiv_pos_site_id
 _symmetry_equiv_pos_as_xyz
 1  'x, y, z'
loop_
 _atom_site_type_symbol
 _atom_site_label
 _atom_site_symmetry_multiplicity
 _atom_site_fract_x
 _atom_site_fract_y
 _atom_site_fract_z
 _atom_site_fract_occupancy
 Co  Co1  1  0.69543  0.39087  0.37216  1
 Co  Co2  1  0.30457  0.60913  0.62784  1
 Ge  Ge1  1  0.29091  0.58183  0.91780  1
 Ge  Ge2  1  0.89646  0.79292  0.60342  1
 Ge  Ge3  1  0.70909  0.41817  0.08220  1
 Ge  Ge4  1  0.10354  0.20708  0.39658  1
 Sm  Sm1  1  0.37996  0.75992  0.30814  1
 Sm  Sm2  1  0.00000  0.00000  0.00000  1
 Sm  Sm3  1  0.62004  0.24008  0.69186  1
