CIF file written using JARVIS-Tools package.
data_Ba3CoSb2O9
_symmetry_space_group_name_H-M  'P6_3/mmc'
_cell_length_a       5.86171
_cell_length_b       5.86171
_cell_length_c       14.4683
_cell_angle_alpha    90
_cell_angle_beta     90
_cell_angle_gamma    120

_symmetry_Int_Tables_number  194
_chemical_formula_structural  Ba3CoSb2O9
_chemical_formula_sum  Ba6Co2Sb4O8
_cell_volume  430.5239744062235
_cell_formula_units_Z  2
loop_
  _symmetry_equiv_pos_site_id
 _symmetry_equiv_pos_as_xyz
 1  'x, y, z'
loop_
 _atom_site_type_symbol
 _atom_site_label
 _atom_site_symmetry_multiplicity
 _atom_site_fract_x
 _atom_site_fract_y
 _atom_site_fract_z
 _atom_site_fract_occupancy
 Ba  Ba1  1  0.33333  0.66667  0.41191  1
 Ba  Ba2  1  0.66667  0.33333  0.91191  1
 Ba  Ba3  1  0.66667  0.33333  0.58809  1
 Ba  Ba4  1  0.33333  0.66667  0.08809  1
 Ba  Ba5  1  0.00000  0.00000  0.25000  1
 Ba  Ba6  1  0.00000  0.00000  0.75000  1
 Co  Co1  1  0.00000  0.00000  0.00000  1
 Co  Co2  1  0.00000  0.00000  0.50000  1
 O  O1  1  0.67139  0.83569  0.91905  1
 O  O2  1  0.83569  0.16431  0.41905  1
 O  O3  1  0.83569  0.67139  0.41905  1
 O  O4  1  0.83569  0.16431  0.08095  1
 O  O5  1  0.16431  0.32861  0.91905  1
 O  O6  1  0.48389  0.96778  0.75000  1
 O  O7  1  0.16431  0.83569  0.91905  1
 O  O8  1  0.67139  0.83569  0.58095  1
 O  O9  1  0.32861  0.16431  0.41905  1
 O  O10  1  0.32861  0.16431  0.08095  1
 O  O11  1  0.51611  0.03222  0.25000  1
 O  O12  1  0.16431  0.83569  0.58095  1
 O  O13  1  0.48389  0.51611  0.75000  1
 O  O14  1  0.16431  0.32861  0.58095  1
 O  O15  1  0.96778  0.48389  0.25000  1
 O  O16  1  0.51611  0.48389  0.25000  1
 O  O17  1  0.83569  0.67139  0.08095  1
 O  O18  1  0.03222  0.51611  0.75000  1
 Sb  Sb1  1  0.33333  0.66667  0.85031  1
 Sb  Sb2  1  0.66667  0.33333  0.35031  1
 Sb  Sb3  1  0.66667  0.33333  0.14969  1
 Sb  Sb4  1  0.33333  0.66667  0.64969  1
