CIF file written using JARVIS-Tools package.
data_MgGa2O4
_symmetry_space_group_name_H-M  'Imma'
_cell_length_a       5.90317
_cell_length_b       5.90316
_cell_length_c       5.96372
_cell_angle_alpha    59.6601
_cell_angle_beta     59.6601
_cell_angle_gamma    59.6883

_symmetry_Int_Tables_number  74
_chemical_formula_structural  MgGa2O4
_chemical_formula_sum  Mg2Ga4O8
_cell_volume  145.84727065865894
_cell_formula_units_Z  2
loop_
  _symmetry_equiv_pos_site_id
 _symmetry_equiv_pos_as_xyz
 1  'x, y, z'
loop_
 _atom_site_type_symbol
 _atom_site_label
 _atom_site_symmetry_multiplicity
 _atom_site_fract_x
 _atom_site_fract_y
 _atom_site_fract_z
 _atom_site_fract_occupancy
 Ga  Ga1  1  0.99019  0.99019  0.00981  1
 Ga  Ga2  1  0.25981  0.25981  0.24019  1
 Ga  Ga3  1  0.62500  0.62500  0.12500  1
 Ga  Ga4  1  0.62500  0.62500  0.62500  1
 Mg  Mg1  1  0.12500  0.62500  0.62500  1
 Mg  Mg2  1  0.62500  0.12500  0.62500  1
 O  O1  1  0.38684  0.38684  0.37343  1
 O  O2  1  0.38684  0.38684  0.85289  1
 O  O3  1  0.38774  0.85993  0.37616  1
 O  O4  1  0.85993  0.38774  0.37616  1
 O  O5  1  0.39007  0.86226  0.87384  1
 O  O6  1  0.86226  0.39007  0.87384  1
 O  O7  1  0.86316  0.86316  0.39711  1
 O  O8  1  0.86316  0.86316  0.87657  1
