CIF file written using JARVIS-Tools package.
data_TeMoWSe2S
_symmetry_space_group_name_H-M  'Cm'
_cell_length_a       3.34638
_cell_length_b       3.34665
_cell_length_c       38.4294
_cell_angle_alpha    89.9701
_cell_angle_beta     90
_cell_angle_gamma    119.997

_symmetry_Int_Tables_number  8
_chemical_formula_structural  TeMoWSe2S
_chemical_formula_sum  Te2Mo2W2Se4S2
_cell_volume  372.7270187839957
_cell_formula_units_Z  2
loop_
  _symmetry_equiv_pos_site_id
 _symmetry_equiv_pos_as_xyz
 1  'x, y, z'
loop_
 _atom_site_type_symbol
 _atom_site_label
 _atom_site_symmetry_multiplicity
 _atom_site_fract_x
 _atom_site_fract_y
 _atom_site_fract_z
 _atom_site_fract_occupancy
 Mo  Mo1  1  0.33360  0.66721  0.46963  1
 Mo  Mo2  1  0.66723  0.33446  0.28085  1
 S  S1  1  0.66735  0.33470  0.05420  1
 S  S2  1  0.66704  0.33408  0.13345  1
 Se  Se1  1  0.33370  0.66739  0.32419  1
 Se  Se2  1  0.33179  0.66358  0.70215  1
 Se  Se3  1  0.33403  0.66806  0.23744  1
 Se  Se4  1  0.33210  0.66419  0.61514  1
 Te  Te1  1  0.66718  0.33436  0.42016  1
 Te  Te2  1  0.66677  0.33354  0.51905  1
 W  W1  1  0.33384  0.66767  0.09376  1
 W  W2  1  0.66537  0.33075  0.65872  1
