CIF file written using JARVIS-Tools package.
data_Te2Mo3WSe6
_symmetry_space_group_name_H-M  'P3m1'
_cell_length_a       3.38459
_cell_length_b       3.38459
_cell_length_c       36.2853
_cell_angle_alpha    90.0011
_cell_angle_beta     90
_cell_angle_gamma    120

_symmetry_Int_Tables_number  156
_chemical_formula_structural  Te2Mo3WSe6
_chemical_formula_sum  Te2Mo3WSe6
_cell_volume  359.9758022871533
_cell_formula_units_Z  1
loop_
  _symmetry_equiv_pos_site_id
 _symmetry_equiv_pos_as_xyz
 1  'x, y, z'
loop_
 _atom_site_type_symbol
 _atom_site_label
 _atom_site_symmetry_multiplicity
 _atom_site_fract_x
 _atom_site_fract_y
 _atom_site_fract_z
 _atom_site_fract_occupancy
 Mo  Mo1  1  0.33329  0.66657  0.09237  1
 Mo  Mo2  1  0.33334  0.66668  0.47363  1
 Mo  Mo3  1  0.66668  0.33335  0.28302  1
 Se  Se1  1  0.33337  0.66674  0.69965  1
 Se  Se2  1  0.66662  0.33323  0.04684  1
 Se  Se3  1  0.66667  0.33334  0.42801  1
 Se  Se4  1  0.66662  0.33325  0.13800  1
 Se  Se5  1  0.66668  0.33335  0.51921  1
 Se  Se6  1  0.33335  0.66671  0.60808  1
 Te  Te1  1  0.33335  0.66670  0.33494  1
 Te  Te2  1  0.33334  0.66667  0.23110  1
 W  W1  1  0.66670  0.33340  0.65389  1
