CIF file written using JARVIS-Tools package.
data_MnAg2GeTe4
_symmetry_space_group_name_H-M  'I-42m'
_cell_length_a       6.22779
_cell_length_b       6.22779
_cell_length_c       7.8121
_cell_angle_alpha    113.491
_cell_angle_beta     113.491
_cell_angle_gamma    90

_symmetry_Int_Tables_number  121
_chemical_formula_structural  MnAg2GeTe4
_chemical_formula_sum  MnAg2GeTe4
_cell_volume  250.2673024476752
_cell_formula_units_Z  1
loop_
  _symmetry_equiv_pos_site_id
 _symmetry_equiv_pos_as_xyz
 1  'x, y, z'
loop_
 _atom_site_type_symbol
 _atom_site_label
 _atom_site_symmetry_multiplicity
 _atom_site_fract_x
 _atom_site_fract_y
 _atom_site_fract_z
 _atom_site_fract_occupancy
 Ag  Ag1  1  0.25000  0.75000  0.50000  1
 Ag  Ag2  1  0.75000  0.25000  0.50000  1
 Ge  Ge1  1  0.50000  0.50000  0.00000  1
 Mn  Mn1  1  0.00000  0.00000  0.00000  1
 Te  Te1  1  0.36679  0.36679  0.24057  1
 Te  Te2  1  0.87378  0.87378  0.24057  1
 Te  Te3  1  0.12622  0.63321  0.75943  1
 Te  Te4  1  0.63321  0.12622  0.75943  1
