CIF file written using JARVIS-Tools package.
data_SrFeMoO5
_symmetry_space_group_name_H-M  'P1'
_cell_length_a       4.62731
_cell_length_b       4.60243
_cell_length_c       6.13701
_cell_angle_alpha    110.771
_cell_angle_beta     113.814
_cell_angle_gamma    89.7605

_symmetry_Int_Tables_number  1
_chemical_formula_structural  SrFeMoO5
_chemical_formula_sum  SrFeMoO5
_cell_volume  110.31427034129808
_cell_formula_units_Z  1
loop_
  _symmetry_equiv_pos_site_id
 _symmetry_equiv_pos_as_xyz
 1  'x, y, z'
loop_
 _atom_site_type_symbol
 _atom_site_label
 _atom_site_symmetry_multiplicity
 _atom_site_fract_x
 _atom_site_fract_y
 _atom_site_fract_z
 _atom_site_fract_occupancy
 Fe  Fe1  1  0.92776  0.93207  0.87020  1
 Mo  Mo1  1  0.55059  0.56300  0.11713  1
 O  O1  1  0.86935  0.85920  0.14467  1
 O  O2  1  0.67154  0.24391  0.90610  1
 O  O3  1  0.68251  0.76506  0.48824  1
 O  O4  1  0.21384  0.63854  0.85736  1
 O  O5  1  0.27655  0.25077  0.11254  1
 Sr  Sr1  1  0.30497  0.24456  0.49797  1
