CIF file written using JARVIS-Tools package.
data_Li2B4O7
_symmetry_space_group_name_H-M  'I4_1cd'
_cell_length_a       8.48343
_cell_length_b       8.48343
_cell_length_c       8.48343
_cell_angle_alpha    104.431
_cell_angle_beta     112.048
_cell_angle_gamma    112.048

_symmetry_Int_Tables_number  110
_chemical_formula_structural  Li2B4O7
_chemical_formula_sum  Li8B6O28
_cell_volume  467.2990147111638
_cell_formula_units_Z  4
loop_
  _symmetry_equiv_pos_site_id
 _symmetry_equiv_pos_as_xyz
 1  'x, y, z'
loop_
 _atom_site_type_symbol
 _atom_site_label
 _atom_site_symmetry_multiplicity
 _atom_site_fract_x
 _atom_site_fract_y
 _atom_site_fract_z
 _atom_site_fract_occupancy
 B  B1  1  0.75596  0.62003  0.03980  1
 B  B2  1  0.08023  0.61407  0.87003  1
 B  B3  1  0.41977  0.78383  0.53980  1
 B  B4  1  0.25596  0.28980  0.37003  1
 B  B5  1  0.74404  0.11407  0.03383  1
 B  B6  1  0.58023  0.12003  0.36407  1
 B  B7  1  0.24404  0.28383  0.86407  1
 B  B8  1  0.91977  0.78980  0.53383  1
 B  B9  1  0.33309  0.77834  0.22026  1
 B  B10  1  0.66691  0.88717  0.44524  1
 B  B11  1  0.05808  0.19524  0.02834  1
 B  B12  1  0.94192  0.97026  0.13717  1
 B  B13  1  0.83309  0.47026  0.52834  1
 B  B14  1  0.44192  0.38717  0.72026  1
 B  B15  1  0.16691  0.69524  0.63717  1
 B  B16  1  0.55808  0.27834  0.94524  1
 Li  Li1  1  0.67790  0.67695  0.69171  1
 Li  Li2  1  0.17790  0.94171  0.42695  1
 Li  Li3  1  0.98525  0.17695  0.49905  1
 Li  Li4  1  0.01475  0.51380  0.19171  1
 Li  Li5  1  0.32210  0.01380  -0.00095  1
 Li  Li6  1  0.48525  0.74905  0.92695  1
 Li  Li7  1  0.51475  0.44171  0.26380  1
 Li  Li8  1  0.82210  0.24905  0.76380  1
 O  O1  1  0.75483  0.97788  0.09019  1
 O  O2  1  0.24517  0.33536  0.22306  1
 O  O3  1  0.61231  0.84019  0.58536  1
 O  O4  1  0.14225  0.62744  0.04841  1
 O  O5  1  0.85775  0.90616  0.48519  1
 O  O6  1  0.57903  0.12744  0.98519  1
 O  O7  1  0.92097  0.79841  0.15616  1
 O  O8  1  0.64225  0.29841  0.37744  1
 O  O9  1  0.00000  0.00185  0.00185  1
 O  O10  1  0.35775  0.73519  0.65616  1
 O  O11  1  0.38769  0.97306  0.22788  1
 O  O12  1  0.07903  0.23519  0.87744  1
 O  O13  1  0.42097  0.40616  0.54841  1
 O  O14  1  0.28699  0.77446  0.37577  1
 O  O15  1  0.60132  0.58878  0.87577  1
 O  O16  1  0.11231  0.83536  0.59019  1
 O  O17  1  0.50000  0.25185  0.75185  1
 O  O18  1  0.00000  0.50185  0.50185  1
 O  O19  1  0.78699  0.62577  0.52446  1
 O  O20  1  0.39868  0.27446  0.98746  1
 O  O21  1  0.21301  0.73746  0.83878  1
 O  O22  1  0.71301  0.08878  0.48746  1
 O  O23  1  0.89868  0.23746  0.02446  1
 O  O24  1  0.10132  0.12577  0.33878  1
 O  O25  1  0.74517  0.47306  0.08536  1
 O  O26  1  0.88769  0.47788  0.72306  1
 O  O27  1  0.25483  0.34019  0.72788  1
 O  O28  1  0.50000  0.75185  0.25185  1
