CIF file written using JARVIS-Tools package.
data_ScSi2Rh
_symmetry_space_group_name_H-M  'Pnma'
_cell_length_a       4.056
_cell_length_b       6.36265
_cell_length_c       9.60062
_cell_angle_alpha    90
_cell_angle_beta     90
_cell_angle_gamma    90

_symmetry_Int_Tables_number  62
_chemical_formula_structural  ScSi2Rh
_chemical_formula_sum  Sc4Si8Rh4
_cell_volume  247.76210456165794
_cell_formula_units_Z  4
loop_
  _symmetry_equiv_pos_site_id
 _symmetry_equiv_pos_as_xyz
 1  'x, y, z'
loop_
 _atom_site_type_symbol
 _atom_site_label
 _atom_site_symmetry_multiplicity
 _atom_site_fract_x
 _atom_site_fract_y
 _atom_site_fract_z
 _atom_site_fract_occupancy
 Rh  Rh1  1  0.75000  0.41432  0.90158  1
 Rh  Rh2  1  0.25000  0.58568  0.09842  1
 Rh  Rh3  1  0.75000  0.91432  0.59842  1
 Rh  Rh4  1  0.25000  0.08568  0.40158  1
 Sc  Sc1  1  0.25000  0.73682  0.81662  1
 Sc  Sc2  1  0.25000  0.23682  0.68338  1
 Sc  Sc3  1  0.75000  0.26318  0.18338  1
 Sc  Sc4  1  0.75000  0.76318  0.31662  1
 Si  Si1  1  0.25000  0.73372  0.52679  1
 Si  Si2  1  0.75000  0.26628  0.47321  1
 Si  Si3  1  0.25000  0.23372  0.97321  1
 Si  Si4  1  0.75000  0.76628  0.02679  1
 Si  Si5  1  0.25000  0.45917  0.34025  1
 Si  Si6  1  0.75000  0.04083  0.84025  1
 Si  Si7  1  0.25000  0.95917  0.15975  1
 Si  Si8  1  0.75000  0.54083  0.65975  1
