CIF file written using JARVIS-Tools package.
data_Zr3N2O3
_symmetry_space_group_name_H-M  'Cm'
_cell_length_a       4.02973
_cell_length_b       5.73584
_cell_length_c       10.7545
_cell_angle_alpha    90.5576
_cell_angle_beta     90.001
_cell_angle_gamma    110.563

_symmetry_Int_Tables_number  8
_chemical_formula_structural  Zr3N2O3
_chemical_formula_sum  Zr6N4O6
_cell_volume  232.72870167330402
_cell_formula_units_Z  2
loop_
  _symmetry_equiv_pos_site_id
 _symmetry_equiv_pos_as_xyz
 1  'x, y, z'
loop_
 _atom_site_type_symbol
 _atom_site_label
 _atom_site_symmetry_multiplicity
 _atom_site_fract_x
 _atom_site_fract_y
 _atom_site_fract_z
 _atom_site_fract_occupancy
 N  N1  1  0.29454  0.59212  0.07813  1
 N  N2  1  0.04380  0.09033  0.38462  1
 N  N3  1  0.70273  0.40842  0.57421  1
 N  N4  1  0.69885  0.40074  0.91905  1
 O  O1  1  0.30599  0.61497  0.41921  1
 O  O2  1  0.24397  0.49095  0.75079  1
 O  O3  1  0.04156  0.08625  0.11207  1
 O  O4  1  0.75116  0.50533  0.25598  1
 O  O5  1  0.95246  0.90800  0.88423  1
 O  O6  1  0.95498  0.91303  0.61921  1
 Zr  Zr1  1  0.17973  0.36246  0.24803  1
 Zr  Zr2  1  0.14046  0.28394  0.93938  1
 Zr  Zr3  1  0.13464  0.27220  0.55586  1
 Zr  Zr4  1  0.80573  0.61448  0.74873  1
 Zr  Zr5  1  0.85344  0.70995  0.05609  1
 Zr  Zr6  1  0.86110  0.72519  0.43922  1
