CIF file written using JARVIS-Tools package.
data_TaNiB2
_symmetry_space_group_name_H-M  'Pnma'
_cell_length_a       3.1099
_cell_length_b       6.0717
_cell_length_c       8.2107
_cell_angle_alpha    90
_cell_angle_beta     90
_cell_angle_gamma    90

_symmetry_Int_Tables_number  62
_chemical_formula_structural  TaNiB2
_chemical_formula_sum  Ta4Ni4B8
_cell_volume  155.0372581036394
_cell_formula_units_Z  4
loop_
  _symmetry_equiv_pos_site_id
 _symmetry_equiv_pos_as_xyz
 1  'x, y, z'
loop_
 _atom_site_type_symbol
 _atom_site_label
 _atom_site_symmetry_multiplicity
 _atom_site_fract_x
 _atom_site_fract_y
 _atom_site_fract_z
 _atom_site_fract_occupancy
 B  B1  1  0.25000  0.67399  0.33390  1
 B  B2  1  0.75000  0.32601  0.66610  1
 B  B3  1  0.25000  0.17399  0.16610  1
 B  B4  1  0.75000  0.82601  0.83390  1
 B  B5  1  0.25000  0.74353  0.92422  1
 B  B6  1  0.75000  0.75647  0.42422  1
 B  B7  1  0.25000  0.24353  0.57578  1
 B  B8  1  0.75000  0.25647  0.07578  1
 Ni  Ni1  1  0.75000  0.99590  0.61693  1
 Ni  Ni2  1  0.75000  0.49590  0.88307  1
 Ni  Ni3  1  0.25000  0.00410  0.38307  1
 Ni  Ni4  1  0.25000  0.50410  0.11693  1
 Ta  Ta1  1  0.25000  0.63187  0.63315  1
 Ta  Ta2  1  0.75000  0.36813  0.36685  1
 Ta  Ta3  1  0.25000  0.13187  0.86685  1
 Ta  Ta4  1  0.75000  0.86813  0.13315  1
