CIF file written using JARVIS-Tools package.
data_TbTlSe2
_symmetry_space_group_name_H-M  'R-3m'
_cell_length_a       8.08926
_cell_length_b       8.08926
_cell_length_c       8.08927
_cell_angle_alpha    29.9288
_cell_angle_beta     29.9288
_cell_angle_gamma    29.9287

_symmetry_Int_Tables_number  166
_chemical_formula_structural  TbTlSe2
_chemical_formula_sum  TbTlSe2
_cell_volume  116.70128500809635
_cell_formula_units_Z  1
loop_
  _symmetry_equiv_pos_site_id
 _symmetry_equiv_pos_as_xyz
 1  'x, y, z'
loop_
 _atom_site_type_symbol
 _atom_site_label
 _atom_site_symmetry_multiplicity
 _atom_site_fract_x
 _atom_site_fract_y
 _atom_site_fract_z
 _atom_site_fract_occupancy
 Se  Se1  1  0.73539  0.73539  0.73539  1
 Se  Se2  1  0.26461  0.26461  0.26461  1
 Tb  Tb1  1  0.00000  0.00000  0.00000  1
 Tl  Tl1  1  0.50000  0.50000  0.50000  1
