CIF file written using JARVIS-Tools package.
data_CdBiSe2I
_symmetry_space_group_name_H-M  'C2/m'
_cell_length_a       4.2454
_cell_length_b       7.21659
_cell_length_c       10.2119
_cell_angle_alpha    91.3663
_cell_angle_beta     90
_cell_angle_gamma    107.106

_symmetry_Int_Tables_number  12
_chemical_formula_structural  CdBiSe2I
_chemical_formula_sum  Cd2Bi2Se4I2
_cell_volume  298.93151059915436
_cell_formula_units_Z  2
loop_
  _symmetry_equiv_pos_site_id
 _symmetry_equiv_pos_as_xyz
 1  'x, y, z'
loop_
 _atom_site_type_symbol
 _atom_site_label
 _atom_site_symmetry_multiplicity
 _atom_site_fract_x
 _atom_site_fract_y
 _atom_site_fract_z
 _atom_site_fract_occupancy
 Bi  Bi1  1  0.28287  0.56573  0.68843  1
 Bi  Bi2  1  0.71713  0.43427  0.31157  1
 Cd  Cd1  1  0.00000  0.00000  0.50000  1
 Cd  Cd2  1  0.00000  0.00000  0.00000  1
 I  I1  1  0.64033  0.28066  0.92512  1
 I  I2  1  0.35967  0.71934  0.07488  1
 Se  Se1  1  0.35721  0.71442  0.44022  1
 Se  Se2  1  0.64279  0.28558  0.55978  1
 Se  Se3  1  0.91987  0.83973  0.74168  1
 Se  Se4  1  0.08013  0.16027  0.25832  1
