CIF file written using JARVIS-Tools package.
data_TbGa3Os
_symmetry_space_group_name_H-M  'Pm-3m'
_cell_length_a       6.4401
_cell_length_b       6.4401
_cell_length_c       6.4401
_cell_angle_alpha    90
_cell_angle_beta     90
_cell_angle_gamma    90

_symmetry_Int_Tables_number  221
_chemical_formula_structural  TbGa3Os
_chemical_formula_sum  Tb3Ga9Os3
_cell_volume  267.1022781034055
_cell_formula_units_Z  3
loop_
  _symmetry_equiv_pos_site_id
 _symmetry_equiv_pos_as_xyz
 1  'x, y, z'
loop_
 _atom_site_type_symbol
 _atom_site_label
 _atom_site_symmetry_multiplicity
 _atom_site_fract_x
 _atom_site_fract_y
 _atom_site_fract_z
 _atom_site_fract_occupancy
 Ga  Ga1  1  0.00000  0.00000  0.00000  1
 Ga  Ga2  1  0.71075  0.71075  0.71075  1
 Ga  Ga3  1  0.71075  0.28925  0.71075  1
 Ga  Ga4  1  0.28925  0.71075  0.71075  1
 Ga  Ga5  1  0.71075  0.71075  0.28925  1
 Ga  Ga6  1  0.71075  0.28925  0.28925  1
 Ga  Ga7  1  0.28925  0.28925  0.28925  1
 Ga  Ga8  1  0.28925  0.71075  0.28925  1
 Ga  Ga9  1  0.28925  0.28925  0.71075  1
 Os  Os1  1  0.00000  0.50000  0.50000  1
 Os  Os2  1  0.50000  0.50000  0.00000  1
 Os  Os3  1  0.50000  0.00000  0.50000  1
 Tb  Tb1  1  0.50000  0.00000  0.00000  1
 Tb  Tb2  1  0.00000  0.00000  0.50000  1
 Tb  Tb3  1  0.00000  0.50000  0.00000  1
