CIF file written using JARVIS-Tools package.
data_ThSiPt
_symmetry_space_group_name_H-M  'I4_1md'
_cell_length_a       4.1832
_cell_length_b       4.1832
_cell_length_c       7.97992
_cell_angle_alpha    105.195
_cell_angle_beta     105.195
_cell_angle_gamma    90

_symmetry_Int_Tables_number  109
_chemical_formula_structural  ThSiPt
_chemical_formula_sum  Th2Si2Pt2
_cell_volume  129.69423099992719
_cell_formula_units_Z  2
loop_
  _symmetry_equiv_pos_site_id
 _symmetry_equiv_pos_as_xyz
 1  'x, y, z'
loop_
 _atom_site_type_symbol
 _atom_site_label
 _atom_site_symmetry_multiplicity
 _atom_site_fract_x
 _atom_site_fract_y
 _atom_site_fract_z
 _atom_site_fract_occupancy
 Pt  Pt1  1  0.16625  0.16625  0.33250  1
 Pt  Pt2  1  0.41625  0.91625  0.83250  1
 Si  Si1  1  -0.00001  -0.00001  -0.00003  1
 Si  Si2  1  0.24999  0.74999  0.49997  1
 Th  Th1  1  0.58076  0.58076  0.16152  1
 Th  Th2  1  0.83076  0.33076  0.66152  1
