CIF file written using JARVIS-Tools package.
data_SrNi2Sb2
_symmetry_space_group_name_H-M  'I4/mmm'
_cell_length_a       4.46409
_cell_length_b       4.4641
_cell_length_c       6.28609
_cell_angle_alpha    110.798
_cell_angle_beta     110.798
_cell_angle_gamma    89.9999

_symmetry_Int_Tables_number  139
_chemical_formula_structural  SrNi2Sb2
_chemical_formula_sum  SrNi2Sb2
_cell_volume  108.33065930023587
_cell_formula_units_Z  1
loop_
  _symmetry_equiv_pos_site_id
 _symmetry_equiv_pos_as_xyz
 1  'x, y, z'
loop_
 _atom_site_type_symbol
 _atom_site_label
 _atom_site_symmetry_multiplicity
 _atom_site_fract_x
 _atom_site_fract_y
 _atom_site_fract_z
 _atom_site_fract_occupancy
 Ni  Ni1  1  0.75000  0.25000  0.50000  1
 Ni  Ni2  1  0.25000  0.75000  0.50000  1
 Sb  Sb1  1  0.36010  0.36010  0.72020  1
 Sb  Sb2  1  0.63990  0.63990  0.27980  1
 Sr  Sr1  1  0.00000  0.00000  0.00000  1
