CIF file written using JARVIS-Tools package.
data_HoGeRh
_symmetry_space_group_name_H-M  'Pnma'
_cell_length_a       4.30418
_cell_length_b       6.8862
_cell_length_c       7.53928
_cell_angle_alpha    90
_cell_angle_beta     90
_cell_angle_gamma    90

_symmetry_Int_Tables_number  62
_chemical_formula_structural  HoGeRh
_chemical_formula_sum  Ho4Ge4Rh4
_cell_volume  223.459851357101
_cell_formula_units_Z  4
loop_
  _symmetry_equiv_pos_site_id
 _symmetry_equiv_pos_as_xyz
 1  'x, y, z'
loop_
 _atom_site_type_symbol
 _atom_site_label
 _atom_site_symmetry_multiplicity
 _atom_site_fract_x
 _atom_site_fract_y
 _atom_site_fract_z
 _atom_site_fract_occupancy
 Ge  Ge1  1  0.25000  0.28750  0.10396  1
 Ge  Ge2  1  0.75000  0.71250  0.89604  1
 Ge  Ge3  1  0.25000  0.78750  0.39604  1
 Ge  Ge4  1  0.75000  0.21250  0.60396  1
 Ho  Ho1  1  0.25000  0.50189  0.69610  1
 Ho  Ho2  1  0.75000  0.49811  0.30390  1
 Ho  Ho3  1  0.25000  0.00189  0.80390  1
 Ho  Ho4  1  0.75000  0.99811  0.19610  1
 Rh  Rh1  1  0.75000  0.84097  0.56970  1
 Rh  Rh2  1  0.25000  0.15903  0.43030  1
 Rh  Rh3  1  0.75000  0.34097  0.93030  1
 Rh  Rh4  1  0.25000  0.65903  0.06970  1
