CIF file written using JARVIS-Tools package.
data_Mg4As6Rh7
_symmetry_space_group_name_H-M  'Im-3m'
_cell_length_a       7.06493
_cell_length_b       7.06493
_cell_length_c       7.06493
_cell_angle_alpha    109.471
_cell_angle_beta     109.471
_cell_angle_gamma    109.471

_symmetry_Int_Tables_number  229
_chemical_formula_structural  Mg4As6Rh7
_chemical_formula_sum  Mg4As6Rh7
_cell_volume  271.4572748362206
_cell_formula_units_Z  1
loop_
  _symmetry_equiv_pos_site_id
 _symmetry_equiv_pos_as_xyz
 1  'x, y, z'
loop_
 _atom_site_type_symbol
 _atom_site_label
 _atom_site_symmetry_multiplicity
 _atom_site_fract_x
 _atom_site_fract_y
 _atom_site_fract_z
 _atom_site_fract_occupancy
 As  As1  1  0.31325  0.31325  0.00000  1
 As  As2  1  0.68675  0.00000  0.68675  1
 As  As3  1  0.68675  0.68675  -0.00000  1
 As  As4  1  0.00000  0.68675  0.68675  1
 As  As5  1  -0.00000  0.31325  0.31325  1
 As  As6  1  0.31325  0.00000  0.31325  1
 Mg  Mg1  1  0.50000  0.50000  0.50000  1
 Mg  Mg2  1  -0.00000  0.50000  0.00000  1
 Mg  Mg3  1  0.50000  0.00000  -0.00000  1
 Mg  Mg4  1  0.00000  0.00000  0.50000  1
 Rh  Rh1  1  0.75000  0.50000  0.25000  1
 Rh  Rh2  1  0.50000  0.75000  0.25000  1
 Rh  Rh3  1  0.00000  0.00000  0.00000  1
 Rh  Rh4  1  0.50000  0.25000  0.75000  1
 Rh  Rh5  1  0.75000  0.25000  0.50000  1
 Rh  Rh6  1  0.25000  0.50000  0.75000  1
 Rh  Rh7  1  0.25000  0.75000  0.50000  1
