CIF file written using JARVIS-Tools package.
data_SiP2O7
_symmetry_space_group_name_H-M  'P2_1/c'
_cell_length_a       4.76594
_cell_length_b       6.37225
_cell_length_c       14.8259
_cell_angle_alpha    90
_cell_angle_beta     90.0885
_cell_angle_gamma    90

_symmetry_Int_Tables_number  14
_chemical_formula_structural  SiP2O7
_chemical_formula_sum  Si4P8O28
_cell_volume  450.2591790504268
_cell_formula_units_Z  4
loop_
  _symmetry_equiv_pos_site_id
 _symmetry_equiv_pos_as_xyz
 1  'x, y, z'
loop_
 _atom_site_type_symbol
 _atom_site_label
 _atom_site_symmetry_multiplicity
 _atom_site_fract_x
 _atom_site_fract_y
 _atom_site_fract_z
 _atom_site_fract_occupancy
 O  O1  1  0.54589  0.91591  0.13751  1
 O  O2  1  0.71026  0.56129  0.08856  1
 O  O3  1  0.45411  0.08409  0.86249  1
 O  O4  1  0.71026  0.93871  0.58856  1
 O  O5  1  0.55020  0.70566  0.81978  1
 O  O6  1  0.05014  0.76107  0.86920  1
 O  O7  1  0.94986  0.26107  0.63080  1
 O  O8  1  0.94986  0.23893  0.13080  1
 O  O9  1  0.94860  0.13764  0.90885  1
 O  O10  1  0.05014  0.73893  0.36920  1
 O  O11  1  0.44980  0.20566  0.68022  1
 O  O12  1  0.44980  0.29434  0.18022  1
 O  O13  1  0.55020  0.79434  0.31978  1
 O  O14  1  0.16058  0.49417  0.74783  1
 O  O15  1  0.83942  0.99417  0.75217  1
 O  O16  1  0.83942  0.50583  0.25217  1
 O  O17  1  0.16058  0.00583  0.24783  1
 O  O18  1  0.05140  0.86236  0.09115  1
 O  O19  1  0.45411  0.41591  0.36249  1
 O  O20  1  0.94860  0.36236  0.40885  1
 O  O21  1  0.54589  0.58409  0.63751  1
 O  O22  1  0.05140  0.63764  0.59115  1
 O  O23  1  0.34031  0.33309  0.52529  1
 O  O24  1  0.65969  0.66691  0.47471  1
 O  O25  1  0.34031  0.16691  0.02529  1
 O  O26  1  0.28974  0.06129  0.41144  1
 O  O27  1  0.65969  0.83309  0.97471  1
 O  O28  1  0.28974  0.43871  0.91144  1
 P  P1  1  0.26218  0.89255  0.33192  1
 P  P2  1  0.73782  0.39255  0.16808  1
 P  P3  1  0.73782  0.10745  0.66808  1
 P  P4  1  0.74528  0.80686  0.07245  1
 P  P5  1  0.74528  0.69314  0.57245  1
 P  P6  1  0.25472  0.30686  0.42755  1
 P  P7  1  0.25472  0.19314  0.92755  1
 P  P8  1  0.26218  0.60745  0.83192  1
 Si  Si1  1  0.75038  0.58072  0.36450  1
 Si  Si2  1  0.24962  0.08072  0.13550  1
 Si  Si3  1  0.24962  0.41928  0.63550  1
 Si  Si4  1  0.75038  0.91928  0.86450  1
