CIF file written using JARVIS-Tools package.
data_ErCoO3
_symmetry_space_group_name_H-M  'Pnma'
_cell_length_a       5.08657
_cell_length_b       5.49467
_cell_length_c       7.32522
_cell_angle_alpha    90
_cell_angle_beta     90
_cell_angle_gamma    90

_symmetry_Int_Tables_number  62
_chemical_formula_structural  ErCoO3
_chemical_formula_sum  Er4Co4O2
_cell_volume  204.73271283953522
_cell_formula_units_Z  4
loop_
  _symmetry_equiv_pos_site_id
 _symmetry_equiv_pos_as_xyz
 1  'x, y, z'
loop_
 _atom_site_type_symbol
 _atom_site_label
 _atom_site_symmetry_multiplicity
 _atom_site_fract_x
 _atom_site_fract_y
 _atom_site_fract_z
 _atom_site_fract_occupancy
 Co  Co1  1  0.50000  0.00000  0.50000  1
 Co  Co2  1  0.50000  0.00000  0.00000  1
 Co  Co3  1  0.00000  0.50000  0.50000  1
 Co  Co4  1  0.00000  0.50000  0.00000  1
 Er  Er1  1  0.02358  0.92078  0.75000  1
 Er  Er2  1  0.47642  0.42078  0.75000  1
 Er  Er3  1  0.52358  0.57922  0.25000  1
 Er  Er4  1  0.97642  0.07922  0.25000  1
 O  O1  1  0.89193  0.53207  0.75000  1
 O  O2  1  0.31281  0.69603  0.55262  1
 O  O3  1  0.18719  0.19603  0.55262  1
 O  O4  1  0.10807  0.46793  0.25000  1
 O  O5  1  0.81281  0.80397  0.05262  1
 O  O6  1  0.18719  0.19603  0.94738  1
 O  O7  1  0.31281  0.69603  0.94738  1
 O  O8  1  0.60807  0.03207  0.75000  1
 O  O9  1  0.39193  0.96793  0.25000  1
 O  O10  1  0.81281  0.80397  0.44738  1
 O  O11  1  0.68719  0.30397  0.44738  1
 O  O12  1  0.68719  0.30397  0.05262  1
