CIF file written using JARVIS-Tools package.
data_ZrVP
_symmetry_space_group_name_H-M  'Pnma'
_cell_length_a       3.52704
_cell_length_b       6.64068
_cell_length_c       7.93554
_cell_angle_alpha    90
_cell_angle_beta     90
_cell_angle_gamma    90

_symmetry_Int_Tables_number  62
_chemical_formula_structural  ZrVP
_chemical_formula_sum  Zr4V4P4
_cell_volume  185.86574871003305
_cell_formula_units_Z  4
loop_
  _symmetry_equiv_pos_site_id
 _symmetry_equiv_pos_as_xyz
 1  'x, y, z'
loop_
 _atom_site_type_symbol
 _atom_site_label
 _atom_site_symmetry_multiplicity
 _atom_site_fract_x
 _atom_site_fract_y
 _atom_site_fract_z
 _atom_site_fract_occupancy
 P  P1  1  0.25000  0.26013  0.13693  1
 P  P2  1  0.75000  0.73987  0.86307  1
 P  P3  1  0.25000  0.76013  0.36307  1
 P  P4  1  0.75000  0.23987  0.63693  1
 V  V1  1  0.75000  0.87229  0.55690  1
 V  V2  1  0.25000  0.12771  0.44310  1
 V  V3  1  0.75000  0.37229  0.94310  1
 V  V4  1  0.25000  0.62771  0.05690  1
 Zr  Zr1  1  0.25000  0.54092  0.66917  1
 Zr  Zr2  1  0.75000  0.45908  0.33083  1
 Zr  Zr3  1  0.25000  0.04092  0.83083  1
 Zr  Zr4  1  0.75000  0.95908  0.16917  1
