CIF file written using JARVIS-Tools package.
data_Ba2RuO4
_symmetry_space_group_name_H-M  'I4/mmm'
_cell_length_a       3.99706
_cell_length_b       3.99706
_cell_length_c       7.34986
_cell_angle_alpha    105.778
_cell_angle_beta     105.778
_cell_angle_gamma    90

_symmetry_Int_Tables_number  139
_chemical_formula_structural  Ba2RuO4
_chemical_formula_sum  Ba2RuO4
_cell_volume  108.3959183409917
_cell_formula_units_Z  1
loop_
  _symmetry_equiv_pos_site_id
 _symmetry_equiv_pos_as_xyz
 1  'x, y, z'
loop_
 _atom_site_type_symbol
 _atom_site_label
 _atom_site_symmetry_multiplicity
 _atom_site_fract_x
 _atom_site_fract_y
 _atom_site_fract_z
 _atom_site_fract_occupancy
 Ba  Ba1  1  0.35406  0.35406  0.70813  1
 Ba  Ba2  1  0.64594  0.64594  0.29187  1
 O  O1  1  0.15409  0.15409  0.30817  1
 O  O2  1  0.84591  0.84591  0.69183  1
 O  O3  1  0.00000  0.50000  0.00000  1
 O  O4  1  0.50000  0.00000  0.00000  1
 Ru  Ru1  1  0.00000  0.00000  0.00000  1
