CIF file written using JARVIS-Tools package.
data_K5Pb24
_symmetry_space_group_name_H-M  'I-43m'
_cell_length_a       10.804
_cell_length_b       10.804
_cell_length_c       10.804
_cell_angle_alpha    109.471
_cell_angle_beta     109.471
_cell_angle_gamma    109.471

_symmetry_Int_Tables_number  217
_chemical_formula_structural  K5Pb24
_chemical_formula_sum  K5Pb24
_cell_volume  970.8074088272613
_cell_formula_units_Z  1
loop_
  _symmetry_equiv_pos_site_id
 _symmetry_equiv_pos_as_xyz
 1  'x, y, z'
loop_
 _atom_site_type_symbol
 _atom_site_label
 _atom_site_symmetry_multiplicity
 _atom_site_fract_x
 _atom_site_fract_y
 _atom_site_fract_z
 _atom_site_fract_occupancy
 K  K1  1  0.00000  0.00000  0.36145  1
 K  K2  1  -0.00000  0.36145  -0.00000  1
 K  K3  1  0.36145  0.00000  0.00000  1
 K  K4  1  0.63855  0.63855  0.63855  1
 K  K5  1  0.00000  0.00000  0.00000  1
 Pb  Pb1  1  0.19866  0.80922  0.19866  1
 Pb  Pb2  1  0.80134  0.00000  0.61056  1
 Pb  Pb3  1  0.61056  0.00000  0.80134  1
 Pb  Pb4  1  -0.00000  0.61056  0.80134  1
 Pb  Pb5  1  0.19078  0.38944  0.38944  1
 Pb  Pb6  1  0.38944  0.19078  0.38944  1
 Pb  Pb7  1  0.19866  0.19866  0.80922  1
 Pb  Pb8  1  0.40261  0.72183  0.40261  1
 Pb  Pb9  1  0.27817  0.68077  0.68077  1
 Pb  Pb10  1  0.61056  0.80134  0.00000  1
 Pb  Pb11  1  0.00000  0.59739  0.31923  1
 Pb  Pb12  1  0.31923  0.59739  -0.00000  1
 Pb  Pb13  1  0.31923  0.00000  0.59739  1
 Pb  Pb14  1  0.68077  0.68077  0.27817  1
 Pb  Pb15  1  0.00000  0.31923  0.59739  1
 Pb  Pb16  1  0.59739  0.31923  -0.00000  1
 Pb  Pb17  1  0.40261  0.40261  0.72183  1
 Pb  Pb18  1  0.72183  0.40261  0.40261  1
 Pb  Pb19  1  0.68077  0.27817  0.68077  1
 Pb  Pb20  1  0.80922  0.19866  0.19866  1
 Pb  Pb21  1  -0.00000  0.80134  0.61056  1
 Pb  Pb22  1  0.80134  0.61056  -0.00000  1
 Pb  Pb23  1  0.59739  0.00000  0.31923  1
 Pb  Pb24  1  0.38944  0.38944  0.19078  1
