CIF file written using JARVIS-Tools package.
data_TbGePt
_symmetry_space_group_name_H-M  'Pnma'
_cell_length_a       4.38657
_cell_length_b       7.05597
_cell_length_c       7.64502
_cell_angle_alpha    90
_cell_angle_beta     90
_cell_angle_gamma    90

_symmetry_Int_Tables_number  62
_chemical_formula_structural  TbGePt
_chemical_formula_sum  Tb4Ge4Pt4
_cell_volume  236.6250098814247
_cell_formula_units_Z  4
loop_
  _symmetry_equiv_pos_site_id
 _symmetry_equiv_pos_as_xyz
 1  'x, y, z'
loop_
 _atom_site_type_symbol
 _atom_site_label
 _atom_site_symmetry_multiplicity
 _atom_site_fract_x
 _atom_site_fract_y
 _atom_site_fract_z
 _atom_site_fract_occupancy
 Ge  Ge1  1  0.25000  0.81047  0.91127  1
 Ge  Ge2  1  0.25000  0.31047  0.58873  1
 Ge  Ge3  1  0.75000  0.18953  0.08873  1
 Ge  Ge4  1  0.75000  0.68953  0.41127  1
 Pt  Pt1  1  0.25000  0.70712  0.58402  1
 Pt  Pt2  1  0.25000  0.20712  0.91598  1
 Pt  Pt3  1  0.75000  0.79288  0.08402  1
 Pt  Pt4  1  0.75000  0.29288  0.41598  1
 Tb  Tb1  1  0.75000  0.50304  0.79621  1
 Tb  Tb2  1  0.25000  0.99696  0.29621  1
 Tb  Tb3  1  0.75000  0.00304  0.70379  1
 Tb  Tb4  1  0.25000  0.49696  0.20379  1
