CIF file written using JARVIS-Tools package.
data_TbNiSn
_symmetry_space_group_name_H-M  'Pnma'
_cell_length_a       4.48798
_cell_length_b       7.17621
_cell_length_c       7.64777
_cell_angle_alpha    90
_cell_angle_beta     90
_cell_angle_gamma    90

_symmetry_Int_Tables_number  62
_chemical_formula_structural  TbNiSn
_chemical_formula_sum  Tb4Ni4Sn4
_cell_volume  246.30918114271842
_cell_formula_units_Z  4
loop_
  _symmetry_equiv_pos_site_id
 _symmetry_equiv_pos_as_xyz
 1  'x, y, z'
loop_
 _atom_site_type_symbol
 _atom_site_label
 _atom_site_symmetry_multiplicity
 _atom_site_fract_x
 _atom_site_fract_y
 _atom_site_fract_z
 _atom_site_fract_occupancy
 Ni  Ni1  1  0.75000  0.79883  0.08404  1
 Ni  Ni2  1  0.25000  0.20117  0.91596  1
 Ni  Ni3  1  0.75000  0.29883  0.41596  1
 Ni  Ni4  1  0.25000  0.70117  0.58404  1
 Sn  Sn1  1  0.75000  0.68923  0.41220  1
 Sn  Sn2  1  0.25000  0.31077  0.58780  1
 Sn  Sn3  1  0.75000  0.18923  0.08780  1
 Sn  Sn4  1  0.25000  0.81077  0.91220  1
 Tb  Tb1  1  0.75000  0.01478  0.70099  1
 Tb  Tb2  1  0.25000  0.98522  0.29901  1
 Tb  Tb3  1  0.75000  0.51478  0.79901  1
 Tb  Tb4  1  0.25000  0.48522  0.20099  1
