CIF file written using JARVIS-Tools package.
data_LiSO3F
_symmetry_space_group_name_H-M  'C2/m'
_cell_length_a       4.7273
_cell_length_b       5.66316
_cell_length_c       5.66316
_cell_angle_alpha    96.8097
_cell_angle_beta     88.5404
_cell_angle_gamma    91.4596

_symmetry_Int_Tables_number  12
_chemical_formula_structural  LiSO3F
_chemical_formula_sum  Li2S2O6F2
_cell_volume  150.45429642018848
_cell_formula_units_Z  2
loop_
  _symmetry_equiv_pos_site_id
 _symmetry_equiv_pos_as_xyz
 1  'x, y, z'
loop_
 _atom_site_type_symbol
 _atom_site_label
 _atom_site_symmetry_multiplicity
 _atom_site_fract_x
 _atom_site_fract_y
 _atom_site_fract_z
 _atom_site_fract_occupancy
 F  F1  1  0.37381  0.71774  0.28226  1
 F  F2  1  0.62619  0.28226  0.71774  1
 Li  Li1  1  0.00000  0.80839  0.80839  1
 Li  Li2  1  -0.00000  0.19161  0.19161  1
 O  O1  1  0.23226  0.21112  0.46310  1
 O  O2  1  0.76774  0.46310  0.21112  1
 O  O3  1  0.19525  0.12608  0.87392  1
 O  O4  1  0.80475  0.87392  0.12608  1
 O  O5  1  0.23226  0.53690  0.78888  1
 O  O6  1  0.76774  0.78888  0.53690  1
 S  S1  1  0.71125  0.70785  0.29215  1
 S  S2  1  0.28875  0.29215  0.70785  1
