CIF file written using JARVIS-Tools package.
data_UWC2
_symmetry_space_group_name_H-M  'Pnma'
_cell_length_a       3.97141
_cell_length_b       5.24178
_cell_length_c       10.6273
_cell_angle_alpha    90
_cell_angle_beta     90
_cell_angle_gamma    90

_symmetry_Int_Tables_number  62
_chemical_formula_structural  UWC2
_chemical_formula_sum  U4W4C8
_cell_volume  221.2304357111576
_cell_formula_units_Z  4
loop_
  _symmetry_equiv_pos_site_id
 _symmetry_equiv_pos_as_xyz
 1  'x, y, z'
loop_
 _atom_site_type_symbol
 _atom_site_label
 _atom_site_symmetry_multiplicity
 _atom_site_fract_x
 _atom_site_fract_y
 _atom_site_fract_z
 _atom_site_fract_occupancy
 C  C1  1  0.75000  0.36205  0.15692  1
 C  C2  1  0.25000  0.63795  0.84308  1
 C  C3  1  0.75000  0.86205  0.34308  1
 C  C4  1  0.25000  0.13795  0.65692  1
 C  C5  1  0.75000  0.27310  0.01257  1
 C  C6  1  0.25000  0.72690  0.98743  1
 C  C7  1  0.75000  0.77310  0.48743  1
 C  C8  1  0.25000  0.22690  0.51257  1
 U  U1  1  0.25000  0.62297  0.62706  1
 U  U2  1  0.75000  0.37703  0.37294  1
 U  U3  1  0.25000  0.12297  0.87294  1
 U  U4  1  0.75000  0.87703  0.12706  1
 W  W1  1  0.25000  0.90084  0.38969  1
 W  W2  1  0.75000  0.09916  0.61031  1
 W  W3  1  0.25000  0.40084  0.11031  1
 W  W4  1  0.75000  0.59916  0.88969  1
