CIF file written using JARVIS-Tools package.
data_HfCoSn
_symmetry_space_group_name_H-M  'P-62c'
_cell_length_a       7.09278
_cell_length_b       7.09278
_cell_length_c       7.16177
_cell_angle_alpha    90
_cell_angle_beta     90
_cell_angle_gamma    120

_symmetry_Int_Tables_number  190
_chemical_formula_structural  HfCoSn
_chemical_formula_sum  Hf6Co6Sn6
_cell_volume  312.0211104831825
_cell_formula_units_Z  6
loop_
  _symmetry_equiv_pos_site_id
 _symmetry_equiv_pos_as_xyz
 1  'x, y, z'
loop_
 _atom_site_type_symbol
 _atom_site_label
 _atom_site_symmetry_multiplicity
 _atom_site_fract_x
 _atom_site_fract_y
 _atom_site_fract_z
 _atom_site_fract_occupancy
 Co  Co1  1  0.00000  0.00000  0.75000  1
 Co  Co2  1  0.33333  0.66667  0.46217  1
 Co  Co3  1  0.66667  0.33333  0.53783  1
 Co  Co4  1  0.33333  0.66667  0.03783  1
 Co  Co5  1  0.00000  0.00000  0.25000  1
 Co  Co6  1  0.66667  0.33333  0.96217  1
 Hf  Hf1  1  0.00768  0.40042  0.75000  1
 Hf  Hf2  1  0.60726  0.59958  0.25000  1
 Hf  Hf3  1  0.99232  0.39274  0.25000  1
 Hf  Hf4  1  0.39274  0.99232  0.75000  1
 Hf  Hf5  1  0.59958  0.60726  0.75000  1
 Hf  Hf6  1  0.40042  0.00768  0.25000  1
 Sn  Sn1  1  0.73107  0.00000  0.00000  1
 Sn  Sn2  1  0.26893  0.26893  0.50000  1
 Sn  Sn3  1  0.00000  0.73107  0.50000  1
 Sn  Sn4  1  0.00000  0.73107  0.00000  1
 Sn  Sn5  1  0.73107  0.00000  0.50000  1
 Sn  Sn6  1  0.26893  0.26893  0.00000  1
