CIF file written using JARVIS-Tools package.
data_CaCu4P2
_symmetry_space_group_name_H-M  'P4_2/mnm'
_cell_length_a       7.33408
_cell_length_b       7.33408
_cell_length_c       3.82416
_cell_angle_alpha    90
_cell_angle_beta     90
_cell_angle_gamma    90

_symmetry_Int_Tables_number  136
_chemical_formula_structural  CaCu4P2
_chemical_formula_sum  Ca2Cu8P4
_cell_volume  205.69673377994835
_cell_formula_units_Z  2
loop_
  _symmetry_equiv_pos_site_id
 _symmetry_equiv_pos_as_xyz
 1  'x, y, z'
loop_
 _atom_site_type_symbol
 _atom_site_label
 _atom_site_symmetry_multiplicity
 _atom_site_fract_x
 _atom_site_fract_y
 _atom_site_fract_z
 _atom_site_fract_occupancy
 Ca  Ca1  1  0.50000  0.50000  0.50000  1
 Ca  Ca2  1  0.00000  0.00000  0.00000  1
 Cu  Cu1  1  0.83516  0.41684  0.00000  1
 Cu  Cu2  1  0.33516  0.08316  0.50000  1
 Cu  Cu3  1  0.58316  0.16484  0.00000  1
 Cu  Cu4  1  0.41684  0.83516  0.00000  1
 Cu  Cu5  1  0.91684  0.66484  0.50000  1
 Cu  Cu6  1  0.08316  0.33516  0.50000  1
 Cu  Cu7  1  0.16484  0.58316  0.00000  1
 Cu  Cu8  1  0.66484  0.91684  0.50000  1
 P  P1  1  0.71885  0.71885  0.00000  1
 P  P2  1  0.28115  0.28115  0.00000  1
 P  P3  1  0.78115  0.21885  0.50000  1
 P  P4  1  0.21885  0.78115  0.50000  1
