CIF file written using JARVIS-Tools package.
data_HoO3
_symmetry_space_group_name_H-M  'P6_3/m'
_cell_length_a       6.41175
_cell_length_b       6.41175
_cell_length_c       3.38847
_cell_angle_alpha    90
_cell_angle_beta     90
_cell_angle_gamma    120

_symmetry_Int_Tables_number  176
_chemical_formula_structural  HoO3
_chemical_formula_sum  Ho2O6
_cell_volume  120.63886118403775
_cell_formula_units_Z  2
loop_
  _symmetry_equiv_pos_site_id
 _symmetry_equiv_pos_as_xyz
 1  'x, y, z'
loop_
 _atom_site_type_symbol
 _atom_site_label
 _atom_site_symmetry_multiplicity
 _atom_site_fract_x
 _atom_site_fract_y
 _atom_site_fract_z
 _atom_site_fract_occupancy
 Ho  Ho1  1  0.33333  0.66667  0.75000  1
 Ho  Ho2  1  0.66667  0.33333  0.25000  1
 O  O1  1  0.94109  0.57978  0.75000  1
 O  O2  1  0.05891  0.42022  0.25000  1
 O  O3  1  0.63869  0.05891  0.75000  1
 O  O4  1  0.36131  0.94109  0.25000  1
 O  O5  1  0.42022  0.36131  0.75000  1
 O  O6  1  0.57978  0.63869  0.25000  1
