CIF file written using JARVIS-Tools package.
data_UB12
_symmetry_space_group_name_H-M  'Fm-3m'
_cell_length_a       5.27214
_cell_length_b       5.27215
_cell_length_c       5.27214
_cell_angle_alpha    60
_cell_angle_beta     60
_cell_angle_gamma    60

_symmetry_Int_Tables_number  225
_chemical_formula_structural  UB12
_chemical_formula_sum  UB2
_cell_volume  103.6207711154957
_cell_formula_units_Z  1
loop_
  _symmetry_equiv_pos_site_id
 _symmetry_equiv_pos_as_xyz
 1  'x, y, z'
loop_
 _atom_site_type_symbol
 _atom_site_label
 _atom_site_symmetry_multiplicity
 _atom_site_fract_x
 _atom_site_fract_y
 _atom_site_fract_z
 _atom_site_fract_occupancy
 B  B1  1  0.83968  0.50000  0.50000  1
 B  B2  1  0.50000  0.50000  0.83968  1
 B  B3  1  0.83968  0.16032  0.50000  1
 B  B4  1  0.50000  0.83968  0.16032  1
 B  B5  1  0.50000  0.16032  0.83968  1
 B  B6  1  0.50000  0.83968  0.50000  1
 B  B7  1  0.83968  0.50000  0.16032  1
 B  B8  1  0.16032  0.83968  0.50000  1
 B  B9  1  0.50000  0.16032  0.50000  1
 B  B10  1  0.16032  0.50000  0.83968  1
 B  B11  1  0.50000  0.50000  0.16032  1
 B  B12  1  0.16032  0.50000  0.50000  1
 U  U1  1  0.00000  0.00000  0.00000  1
