CIF file written using JARVIS-Tools package.
data_Te2MoW3Se6
_symmetry_space_group_name_H-M  'P3m1'
_cell_length_a       3.38309
_cell_length_b       3.38309
_cell_length_c       35.8527
_cell_angle_alpha    90.0092
_cell_angle_beta     90
_cell_angle_gamma    120

_symmetry_Int_Tables_number  156
_chemical_formula_structural  Te2MoW3Se6
_chemical_formula_sum  Te2MoW3Se6
_cell_volume  355.3694531618783
_cell_formula_units_Z  1
loop_
  _symmetry_equiv_pos_site_id
 _symmetry_equiv_pos_as_xyz
 1  'x, y, z'
loop_
 _atom_site_type_symbol
 _atom_site_label
 _atom_site_symmetry_multiplicity
 _atom_site_fract_x
 _atom_site_fract_y
 _atom_site_fract_z
 _atom_site_fract_occupancy
 Mo  Mo1  1  0.66662  0.33323  0.28160  1
 Se  Se1  1  0.33375  0.66750  0.70457  1
 Se  Se2  1  0.66630  0.33261  0.04139  1
 Se  Se3  1  0.66665  0.33330  0.42896  1
 Se  Se4  1  0.66639  0.33279  0.13412  1
 Se  Se5  1  0.66678  0.33355  0.52172  1
 Se  Se6  1  0.33353  0.66706  0.61187  1
 Te  Te1  1  0.33327  0.66655  0.33416  1
 Te  Te2  1  0.33329  0.66658  0.22905  1
 W  W1  1  0.33302  0.66604  0.08771  1
 W  W2  1  0.33339  0.66679  0.47536  1
 W  W3  1  0.66700  0.33400  0.65824  1
