CIF file written using JARVIS-Tools package.
data_NdTe3
_symmetry_space_group_name_H-M  'Cmcm'
_cell_length_a       4.40229
_cell_length_b       4.40282
_cell_length_c       13.3821
_cell_angle_alpha    90
_cell_angle_beta     99.4673
_cell_angle_gamma    90

_symmetry_Int_Tables_number  63
_chemical_formula_structural  NdTe3
_chemical_formula_sum  Nd2Te6
_cell_volume  255.8461189290588
_cell_formula_units_Z  2
loop_
  _symmetry_equiv_pos_site_id
 _symmetry_equiv_pos_as_xyz
 1  'x, y, z'
loop_
 _atom_site_type_symbol
 _atom_site_label
 _atom_site_symmetry_multiplicity
 _atom_site_fract_x
 _atom_site_fract_y
 _atom_site_fract_z
 _atom_site_fract_occupancy
 Nd  Nd1  1  0.75249  0.25000  0.66153  1
 Nd  Nd2  1  0.09096  0.75000  0.33847  1
 Te  Te1  1  0.49363  0.75000  0.14379  1
 Te  Te2  1  0.34983  0.25000  0.85621  1
 Te  Te3  1  0.21631  0.75000  0.58917  1
 Te  Te4  1  0.62714  0.25000  0.41083  1
 Te  Te5  1  0.99351  0.25000  0.14359  1
 Te  Te6  1  0.84992  0.75000  0.85641  1
