CIF file written using JARVIS-Tools package.
data_NdGeBO5
_symmetry_space_group_name_H-M  'P2_1/c'
_cell_length_a       4.99307
_cell_length_b       7.65979
_cell_length_c       10.1507
_cell_angle_alpha    90
_cell_angle_beta     91.9796
_cell_angle_gamma    90

_symmetry_Int_Tables_number  14
_chemical_formula_structural  NdGeBO5
_chemical_formula_sum  Nd4Ge4B4O20
_cell_volume  387.99264060835424
_cell_formula_units_Z  4
loop_
  _symmetry_equiv_pos_site_id
 _symmetry_equiv_pos_as_xyz
 1  'x, y, z'
loop_
 _atom_site_type_symbol
 _atom_site_label
 _atom_site_symmetry_multiplicity
 _atom_site_fract_x
 _atom_site_fract_y
 _atom_site_fract_z
 _atom_site_fract_occupancy
 B  B1  1  0.45402  0.09566  0.16905  1
 B  B2  1  0.54598  0.59566  0.33095  1
 B  B3  1  0.54598  0.90434  0.83095  1
 B  B4  1  0.45402  0.40434  0.66905  1
 Ge  Ge1  1  0.47371  0.76672  0.57516  1
 Ge  Ge2  1  0.52629  0.26672  0.92484  1
 Ge  Ge3  1  0.52629  0.23328  0.42484  1
 Ge  Ge4  1  0.47371  0.73328  0.07516  1
 Nd  Nd1  1  0.00570  0.10874  0.68022  1
 Nd  Nd2  1  0.99430  0.89126  0.31978  1
 Nd  Nd3  1  0.99430  0.60874  0.81978  1
 Nd  Nd4  1  0.00570  0.39126  0.18022  1
 O  O1  1  0.33598  0.28631  0.56466  1
 O  O2  1  0.73295  0.10396  0.18902  1
 O  O3  1  0.26705  0.60396  0.31098  1
 O  O4  1  0.26705  0.89604  0.81098  1
 O  O5  1  0.33013  0.92020  0.15017  1
 O  O6  1  0.33598  0.21369  0.06466  1
 O  O7  1  0.66402  0.71369  0.43534  1
 O  O8  1  0.66402  0.78631  0.93534  1
 O  O9  1  0.73295  0.39604  0.68902  1
 O  O10  1  0.77668  0.41313  0.97295  1
 O  O11  1  0.29517  0.34083  0.79572  1
 O  O12  1  0.77668  0.08687  0.47295  1
 O  O13  1  0.22332  0.58687  0.02705  1
 O  O14  1  0.22332  0.91313  0.52705  1
 O  O15  1  0.29517  0.15917  0.29572  1
 O  O16  1  0.66987  0.07980  0.84983  1
 O  O17  1  0.33013  0.57980  0.65017  1
 O  O18  1  0.70483  0.84083  0.70428  1
 O  O19  1  0.70483  0.65917  0.20428  1
 O  O20  1  0.66987  0.42020  0.34983  1
