CIF file written using JARVIS-Tools package.
data_Sm3InS6
_symmetry_space_group_name_H-M  'Pnnm'
_cell_length_a       3.92179
_cell_length_b       13.687
_cell_length_c       16.6934
_cell_angle_alpha    90
_cell_angle_beta     90
_cell_angle_gamma    90

_symmetry_Int_Tables_number  58
_chemical_formula_structural  Sm3InS6
_chemical_formula_sum  Sm2In4S24
_cell_volume  896.0601117208349
_cell_formula_units_Z  4
loop_
  _symmetry_equiv_pos_site_id
 _symmetry_equiv_pos_as_xyz
 1  'x, y, z'
loop_
 _atom_site_type_symbol
 _atom_site_label
 _atom_site_symmetry_multiplicity
 _atom_site_fract_x
 _atom_site_fract_y
 _atom_site_fract_z
 _atom_site_fract_occupancy
 In  In1  1  0.00000  0.50000  0.00000  1
 In  In2  1  0.50000  0.00000  0.50000  1
 In  In3  1  0.00000  0.50000  0.50000  1
 In  In4  1  0.50000  0.00000  0.00000  1
 S  S1  1  0.50000  0.40465  0.91451  1
 S  S2  1  0.00000  0.38838  0.74711  1
 S  S3  1  0.00000  0.61162  0.25289  1
 S  S4  1  0.00000  0.61228  0.88451  1
 S  S5  1  0.50000  0.52184  0.60411  1
 S  S6  1  0.50000  0.11162  0.24711  1
 S  S7  1  0.50000  0.11228  0.61549  1
 S  S8  1  0.50000  0.80868  0.98000  1
 S  S9  1  0.50000  0.19132  0.02000  1
 S  S10  1  0.00000  0.30868  0.52000  1
 S  S11  1  0.00000  0.69132  0.48000  1
 S  S12  1  0.50000  0.18173  0.78601  1
 S  S13  1  0.50000  0.47816  0.39589  1
 S  S14  1  0.00000  0.02184  0.89589  1
 S  S15  1  0.00000  0.97816  0.10411  1
 S  S16  1  0.50000  0.88772  0.38451  1
 S  S17  1  0.50000  0.88838  0.75289  1
 S  S18  1  0.50000  0.81827  0.21399  1
 S  S19  1  0.00000  0.09535  0.41451  1
 S  S20  1  0.00000  0.38772  0.11549  1
 S  S21  1  0.50000  0.59535  0.08549  1
 S  S22  1  0.00000  0.68173  0.71399  1
 S  S23  1  0.00000  0.31827  0.28601  1
 S  S24  1  0.00000  0.90465  0.58549  1
 Sm  Sm1  1  0.50000  0.31134  0.64602  1
 Sm  Sm2  1  0.00000  0.18866  0.14602  1
 Sm  Sm3  1  0.00000  0.81134  0.85398  1
 Sm  Sm4  1  0.00000  0.74862  0.10613  1
 Sm  Sm5  1  0.00000  0.25138  0.89387  1
 Sm  Sm6  1  0.00000  0.95962  0.27679  1
 Sm  Sm7  1  0.50000  0.75138  0.60613  1
 Sm  Sm8  1  0.00000  0.04038  0.72321  1
 Sm  Sm9  1  0.50000  0.45962  0.22321  1
 Sm  Sm10  1  0.50000  0.54038  0.77679  1
 Sm  Sm11  1  0.50000  0.24862  0.39387  1
 Sm  Sm12  1  0.50000  0.68866  0.35398  1
