CIF file written using JARVIS-Tools package.
data_K3VO4
_symmetry_space_group_name_H-M  'I-42m'
_cell_length_a       6.49681
_cell_length_b       6.4968
_cell_length_c       6.49681
_cell_angle_alpha    75.322
_cell_angle_beta     128.807
_cell_angle_gamma    128.807

_symmetry_Int_Tables_number  121
_chemical_formula_structural  K3VO4
_chemical_formula_sum  K3VO4
_cell_volume  162.07739644170192
_cell_formula_units_Z  1
loop_
  _symmetry_equiv_pos_site_id
 _symmetry_equiv_pos_as_xyz
 1  'x, y, z'
loop_
 _atom_site_type_symbol
 _atom_site_label
 _atom_site_symmetry_multiplicity
 _atom_site_fract_x
 _atom_site_fract_y
 _atom_site_fract_z
 _atom_site_fract_occupancy
 K  K1  1  0.50000  0.75000  0.25000  1
 K  K2  1  0.50000  0.25000  0.75000  1
 K  K3  1  0.00000  0.50000  0.50000  1
 O  O1  1  0.63894  0.91568  0.91568  1
 O  O2  1  -0.00000  0.08432  0.72326  1
 O  O3  1  0.00000  0.72326  0.08432  1
 O  O4  1  0.36106  0.27674  0.27674  1
 V  V1  1  0.00000  0.00000  0.00000  1
