CIF file written using JARVIS-Tools package.
data_NaOsO3
_symmetry_space_group_name_H-M  'Pm-3m'
_cell_length_a       3.87517
_cell_length_b       3.87518
_cell_length_c       3.8752
_cell_angle_alpha    89.9996
_cell_angle_beta     90.0004
_cell_angle_gamma    89.9994

_symmetry_Int_Tables_number  221
_chemical_formula_structural  NaOsO3
_chemical_formula_sum  NaOsO3
_cell_volume  58.19388543172277
_cell_formula_units_Z  1
loop_
  _symmetry_equiv_pos_site_id
 _symmetry_equiv_pos_as_xyz
 1  'x, y, z'
loop_
 _atom_site_type_symbol
 _atom_site_label
 _atom_site_symmetry_multiplicity
 _atom_site_fract_x
 _atom_site_fract_y
 _atom_site_fract_z
 _atom_site_fract_occupancy
 Na  Na1  1  0.00001  0.00202  0.01213  1
 O  O1  1  -0.00000  0.50201  0.51195  1
 O  O2  1  0.50000  0.50199  0.01198  1
 O  O3  1  0.49999  0.00199  0.51195  1
 Os  Os1  1  0.50000  0.50199  0.51199  1
