CIF file written using JARVIS-Tools package.
data_Te4Mo2WS2
_symmetry_space_group_name_H-M  'R3m'
_cell_length_a       3.4391
_cell_length_b       3.43915
_cell_length_c       20.5445
_cell_angle_alpha    94.8303
_cell_angle_beta     90
_cell_angle_gamma    119.999

_symmetry_Int_Tables_number  160
_chemical_formula_structural  Te4Mo2WS2
_chemical_formula_sum  Te4Mo2WS2
_cell_volume  209.4410305294291
_cell_formula_units_Z  1
loop_
  _symmetry_equiv_pos_site_id
 _symmetry_equiv_pos_as_xyz
 1  'x, y, z'
loop_
 _atom_site_type_symbol
 _atom_site_label
 _atom_site_symmetry_multiplicity
 _atom_site_fract_x
 _atom_site_fract_y
 _atom_site_fract_z
 _atom_site_fract_occupancy
 Mo  Mo1  1  0.22215  0.44430  0.01264  1
 Mo  Mo2  1  0.66297  0.32594  0.33618  1
 S  S1  1  0.53102  0.06204  0.93979  1
 S  S2  1  0.57998  0.15996  0.08560  1
 Te  Te1  1  0.36019  0.72038  0.42725  1
 Te  Te2  1  0.75083  0.50166  0.60067  1
 Te  Te3  1  0.81222  0.62444  0.78357  1
 Te  Te4  1  0.29905  0.59809  0.24502  1
 W  W1  1  0.44820  0.89640  0.69213  1
