CIF file written using JARVIS-Tools package.
data_TeMoWS3
_symmetry_space_group_name_H-M  'P3m1'
_cell_length_a       3.28328
_cell_length_b       3.28316
_cell_length_c       36.9508
_cell_angle_alpha    90
_cell_angle_beta     90
_cell_angle_gamma    120.001

_symmetry_Int_Tables_number  156
_chemical_formula_structural  TeMoWS3
_chemical_formula_sum  Te2Mo2W2S6
_cell_volume  344.94462889571196
_cell_formula_units_Z  2
loop_
  _symmetry_equiv_pos_site_id
 _symmetry_equiv_pos_as_xyz
 1  'x, y, z'
loop_
 _atom_site_type_symbol
 _atom_site_label
 _atom_site_symmetry_multiplicity
 _atom_site_fract_x
 _atom_site_fract_y
 _atom_site_fract_z
 _atom_site_fract_occupancy
 Mo  Mo1  1  0.33335  0.66670  0.09394  1
 Mo  Mo2  1  0.66668  0.33335  0.65763  1
 S  S1  1  0.33336  0.66671  0.32370  1
 S  S2  1  0.66663  0.33327  0.05250  1
 S  S3  1  0.66664  0.33328  0.42771  1
 S  S4  1  0.66663  0.33327  0.13559  1
 S  S5  1  0.66664  0.33329  0.51142  1
 S  S6  1  0.33336  0.66671  0.23990  1
 Te  Te1  1  0.33336  0.66671  0.70952  1
 Te  Te2  1  0.33335  0.66671  0.60544  1
 W  W1  1  0.33331  0.66663  0.46959  1
 W  W2  1  0.66668  0.33336  0.28182  1
