CIF file written using JARVIS-Tools package.
data_Lu2Fe2Si2C
_symmetry_space_group_name_H-M  'C2/m'
_cell_length_a       3.86081
_cell_length_b       5.56476
_cell_length_c       5.56157
_cell_angle_alpha    72.7781
_cell_angle_beta     69.6902
_cell_angle_gamma    69.7023

_symmetry_Int_Tables_number  12
_chemical_formula_structural  Lu2Fe2Si2C
_chemical_formula_sum  Lu2Fe2Si2C
_cell_volume  102.98313294221296
_cell_formula_units_Z  1
loop_
  _symmetry_equiv_pos_site_id
 _symmetry_equiv_pos_as_xyz
 1  'x, y, z'
loop_
 _atom_site_type_symbol
 _atom_site_label
 _atom_site_symmetry_multiplicity
 _atom_site_fract_x
 _atom_site_fract_y
 _atom_site_fract_z
 _atom_site_fract_occupancy
 C  C1  1  0.00000  0.00000  0.00000  1
 Fe  Fe1  1  0.79732  0.30686  0.09849  1
 Fe  Fe2  1  0.20268  0.69314  0.90151  1
 Lu  Lu1  1  0.44045  0.82764  0.29146  1
 Lu  Lu2  1  0.55955  0.17236  0.70854  1
 Si  Si1  1  0.84232  0.60816  0.70720  1
 Si  Si2  1  0.15768  0.39184  0.29280  1
