CIF file written using JARVIS-Tools package.
data_PaP2
_symmetry_space_group_name_H-M  'P4/mmm'
_cell_length_a       5.12658
_cell_length_b       5.12658
_cell_length_c       4.95072
_cell_angle_alpha    90
_cell_angle_beta     90
_cell_angle_gamma    90

_symmetry_Int_Tables_number  123
_chemical_formula_structural  PaP2
_chemical_formula_sum  Pa2P4
_cell_volume  130.11369528544168
_cell_formula_units_Z  2
loop_
  _symmetry_equiv_pos_site_id
 _symmetry_equiv_pos_as_xyz
 1  'x, y, z'
loop_
 _atom_site_type_symbol
 _atom_site_label
 _atom_site_symmetry_multiplicity
 _atom_site_fract_x
 _atom_site_fract_y
 _atom_site_fract_z
 _atom_site_fract_occupancy
 P  P1  1  0.00000  0.50000  0.27118  1
 P  P2  1  0.50000  0.00000  0.72882  1
 P  P3  1  0.00000  0.50000  0.72881  1
 P  P4  1  0.50000  0.00000  0.27119  1
 Pa  Pa1  1  0.50000  0.50000  0.00000  1
 Pa  Pa2  1  0.00000  0.00000  0.00000  1
