CIF file written using JARVIS-Tools package.
data_Sm5Ga3
_symmetry_space_group_name_H-M  'P4/ncc'
_cell_length_a       7.72315
_cell_length_b       7.72315
_cell_length_c       14.312
_cell_angle_alpha    90
_cell_angle_beta     90
_cell_angle_gamma    90

_symmetry_Int_Tables_number  130
_chemical_formula_structural  Sm5Ga3
_chemical_formula_sum  Sm20Ga2
_cell_volume  853.6712016439918
_cell_formula_units_Z  4
loop_
  _symmetry_equiv_pos_site_id
 _symmetry_equiv_pos_as_xyz
 1  'x, y, z'
loop_
 _atom_site_type_symbol
 _atom_site_label
 _atom_site_symmetry_multiplicity
 _atom_site_fract_x
 _atom_site_fract_y
 _atom_site_fract_z
 _atom_site_fract_occupancy
 Ga  Ga1  1  0.50000  0.00000  0.49420  1
 Ga  Ga2  1  0.00000  0.50000  0.00580  1
 Ga  Ga3  1  0.37846  0.37846  0.75000  1
 Ga  Ga4  1  0.87846  0.12154  0.75000  1
 Ga  Ga5  1  0.62154  0.62154  0.75000  1
 Ga  Ga6  1  0.12154  0.87846  0.75000  1
 Ga  Ga7  1  0.37846  0.62154  0.25000  1
 Ga  Ga8  1  0.62154  0.37846  0.25000  1
 Ga  Ga9  1  0.87846  0.87846  0.25000  1
 Ga  Ga10  1  0.50000  0.00000  0.99420  1
 Ga  Ga11  1  0.00000  0.50000  0.50580  1
 Ga  Ga12  1  0.12154  0.12154  0.25000  1
 Sm  Sm1  1  0.81489  0.84460  0.60242  1
 Sm  Sm2  1  0.34460  0.68511  0.60242  1
 Sm  Sm3  1  0.31489  0.65540  0.89758  1
 Sm  Sm4  1  0.68511  0.34460  0.89758  1
 Sm  Sm5  1  0.84460  0.81489  0.89758  1
 Sm  Sm6  1  0.50000  0.00000  0.77998  1
 Sm  Sm7  1  0.00000  0.50000  0.72002  1
 Sm  Sm8  1  0.15540  0.18511  0.89758  1
 Sm  Sm9  1  0.65540  0.68511  0.10242  1
 Sm  Sm10  1  0.18511  0.15540  0.60242  1
 Sm  Sm11  1  0.65540  0.31489  0.60242  1
 Sm  Sm12  1  0.81489  0.15540  0.10242  1
 Sm  Sm13  1  0.18511  0.84460  0.10242  1
 Sm  Sm14  1  0.15540  0.81489  0.39758  1
 Sm  Sm15  1  0.34460  0.31489  0.10242  1
 Sm  Sm16  1  0.68511  0.65540  0.39758  1
 Sm  Sm17  1  0.31489  0.34460  0.39758  1
 Sm  Sm18  1  0.84460  0.18511  0.39758  1
 Sm  Sm19  1  0.50000  0.00000  0.27998  1
 Sm  Sm20  1  0.00000  0.50000  0.22002  1
