CIF file written using JARVIS-Tools package.
data_NdInO3
_symmetry_space_group_name_H-M  'Pnma'
_cell_length_a       5.66901
_cell_length_b       5.98718
_cell_length_c       8.22483
_cell_angle_alpha    90
_cell_angle_beta     90
_cell_angle_gamma    90

_symmetry_Int_Tables_number  62
_chemical_formula_structural  NdInO3
_chemical_formula_sum  Nd4In4O2
_cell_volume  279.1623566558018
_cell_formula_units_Z  4
loop_
  _symmetry_equiv_pos_site_id
 _symmetry_equiv_pos_as_xyz
 1  'x, y, z'
loop_
 _atom_site_type_symbol
 _atom_site_label
 _atom_site_symmetry_multiplicity
 _atom_site_fract_x
 _atom_site_fract_y
 _atom_site_fract_z
 _atom_site_fract_occupancy
 In  In1  1  0.50000  0.00000  0.00000  1
 In  In2  1  0.50000  0.00000  0.50000  1
 In  In3  1  0.00000  0.50000  0.00000  1
 In  In4  1  0.00000  0.50000  0.50000  1
 Nd  Nd1  1  0.97992  0.06373  0.25000  1
 Nd  Nd2  1  0.47992  0.43627  0.75000  1
 Nd  Nd3  1  0.52008  0.56373  0.25000  1
 Nd  Nd4  1  0.02008  0.93627  0.75000  1
 O  O1  1  0.62654  0.05390  0.75000  1
 O  O2  1  0.80931  0.80565  0.43465  1
 O  O3  1  0.19069  0.19435  0.93465  1
 O  O4  1  0.69069  0.30565  0.06535  1
 O  O5  1  0.19069  0.19435  0.56535  1
 O  O6  1  0.30931  0.69435  0.56535  1
 O  O7  1  0.87346  0.55390  0.75000  1
 O  O8  1  0.30931  0.69435  0.93465  1
 O  O9  1  0.69069  0.30565  0.43465  1
 O  O10  1  0.80931  0.80565  0.06535  1
 O  O11  1  0.12654  0.44610  0.25000  1
 O  O12  1  0.37346  0.94610  0.25000  1
