CIF file written using JARVIS-Tools package.
data_Nd2O3
_symmetry_space_group_name_H-M  'P6/mmm'
_cell_length_a       6.22751
_cell_length_b       6.22751
_cell_length_c       3.21532
_cell_angle_alpha    90
_cell_angle_beta     90
_cell_angle_gamma    120

_symmetry_Int_Tables_number  191
_chemical_formula_structural  Nd2O3
_chemical_formula_sum  Nd2O3
_cell_volume  107.99006300296759
_cell_formula_units_Z  1
loop_
  _symmetry_equiv_pos_site_id
 _symmetry_equiv_pos_as_xyz
 1  'x, y, z'
loop_
 _atom_site_type_symbol
 _atom_site_label
 _atom_site_symmetry_multiplicity
 _atom_site_fract_x
 _atom_site_fract_y
 _atom_site_fract_z
 _atom_site_fract_occupancy
 Nd  Nd1  1  0.66667  0.33333  0.50000  1
 Nd  Nd2  1  0.33333  0.66667  0.50000  1
 O  O1  1  0.49986  1.00000  0.00000  1
 O  O2  1  1.00000  0.49986  0.00000  1
 O  O3  1  0.50014  0.50014  0.00000  1
