CIF file written using JARVIS-Tools package.
data_U2F9
_symmetry_space_group_name_H-M  'I-43m'
_cell_length_a       7.33921
_cell_length_b       7.33921
_cell_length_c       7.33921
_cell_angle_alpha    109.471
_cell_angle_beta     109.471
_cell_angle_gamma    109.471

_symmetry_Int_Tables_number  217
_chemical_formula_structural  U2F9
_chemical_formula_sum  U4F8
_cell_volume  304.3170315785962
_cell_formula_units_Z  2
loop_
  _symmetry_equiv_pos_site_id
 _symmetry_equiv_pos_as_xyz
 1  'x, y, z'
loop_
 _atom_site_type_symbol
 _atom_site_label
 _atom_site_symmetry_multiplicity
 _atom_site_fract_x
 _atom_site_fract_y
 _atom_site_fract_z
 _atom_site_fract_occupancy
 F  F1  1  0.35027  -0.00000  0.76252  1
 F  F2  1  0.22759  -0.00000  0.22759  1
 F  F3  1  -0.00000  0.22759  0.22759  1
 F  F4  1  0.00000  0.77241  0.77241  1
 F  F5  1  0.64973  0.64973  0.41225  1
 F  F6  1  0.35027  0.76252  -0.00000  1
 F  F7  1  0.76252  0.35027  -0.00000  1
 F  F8  1  -0.00000  0.76252  0.35027  1
 F  F9  1  0.58775  0.23748  0.23748  1
 F  F10  1  0.77241  0.00000  0.77241  1
 F  F11  1  0.76252  -0.00000  0.35027  1
 F  F12  1  -0.00000  0.35027  0.76252  1
 F  F13  1  0.41225  0.64973  0.64973  1
 F  F14  1  0.64973  0.41225  0.64973  1
 F  F15  1  0.23748  0.23748  0.58775  1
 F  F16  1  0.22759  0.22759  -0.00000  1
 F  F17  1  0.77241  0.77241  0.00000  1
 F  F18  1  0.23748  0.58775  0.23748  1
 U  U1  1  0.62424  0.00000  0.00000  1
 U  U2  1  0.00000  0.00000  0.62424  1
 U  U3  1  0.00000  0.62424  0.00000  1
 U  U4  1  0.37576  0.37576  0.37576  1
