CIF file written using JARVIS-Tools package.
data_NdB4
_symmetry_space_group_name_H-M  'P4/mbm'
_cell_length_a       7.24114
_cell_length_b       7.24114
_cell_length_c       4.12605
_cell_angle_alpha    90
_cell_angle_beta     90
_cell_angle_gamma    90

_symmetry_Int_Tables_number  127
_chemical_formula_structural  NdB4
_chemical_formula_sum  Nd4B6
_cell_volume  216.34568060528144
_cell_formula_units_Z  4
loop_
  _symmetry_equiv_pos_site_id
 _symmetry_equiv_pos_as_xyz
 1  'x, y, z'
loop_
 _atom_site_type_symbol
 _atom_site_label
 _atom_site_symmetry_multiplicity
 _atom_site_fract_x
 _atom_site_fract_y
 _atom_site_fract_z
 _atom_site_fract_occupancy
 B  B1  1  0.46118  0.67411  0.50000  1
 B  B2  1  0.91181  0.58819  0.50000  1
 B  B3  1  0.58819  0.08819  0.50000  1
 B  B4  1  0.41181  0.91181  0.50000  1
 B  B5  1  0.08819  0.41181  0.50000  1
 B  B6  1  0.03882  0.17411  0.50000  1
 B  B7  1  0.00000  0.00000  0.79506  1
 B  B8  1  0.17411  0.96118  0.50000  1
 B  B9  1  0.96118  0.82589  0.50000  1
 B  B10  1  0.50000  0.50000  0.20494  1
 B  B11  1  0.53882  0.32589  0.50000  1
 B  B12  1  0.67411  0.53882  0.50000  1
 B  B13  1  0.32589  0.46118  0.50000  1
 B  B14  1  0.00000  0.00000  0.20494  1
 B  B15  1  0.50000  0.50000  0.79506  1
 B  B16  1  0.82589  0.03882  0.50000  1
 Nd  Nd1  1  0.81743  0.31743  0.00000  1
 Nd  Nd2  1  0.31743  0.18257  0.00000  1
 Nd  Nd3  1  0.68257  0.81743  0.00000  1
 Nd  Nd4  1  0.18257  0.68257  0.00000  1
