CIF file written using JARVIS-Tools package.
data_Y2CN2O2
_symmetry_space_group_name_H-M  'P-3m1'
_cell_length_a       3.71387
_cell_length_b       3.71387
_cell_length_c       8.22449
_cell_angle_alpha    90
_cell_angle_beta     90
_cell_angle_gamma    120

_symmetry_Int_Tables_number  164
_chemical_formula_structural  Y2CN2O2
_chemical_formula_sum  Y2CN2O2
_cell_volume  98.2409899219919
_cell_formula_units_Z  1
loop_
  _symmetry_equiv_pos_site_id
 _symmetry_equiv_pos_as_xyz
 1  'x, y, z'
loop_
 _atom_site_type_symbol
 _atom_site_label
 _atom_site_symmetry_multiplicity
 _atom_site_fract_x
 _atom_site_fract_y
 _atom_site_fract_z
 _atom_site_fract_occupancy
 C  C1  1  0.00000  0.00000  0.00000  1
 N  N1  1  0.00000  0.00000  0.14999  1
 N  N2  1  0.00000  0.00000  0.85001  1
 O  O1  1  0.66667  0.33333  0.39680  1
 O  O2  1  0.33333  0.66667  0.60320  1
 Y  Y1  1  0.66667  0.33333  0.67769  1
 Y  Y2  1  0.33333  0.66667  0.32231  1
