CIF file written using JARVIS-Tools package.
data_TaNi2Te2
_symmetry_space_group_name_H-M  'Pnma'
_cell_length_a       3.57869
_cell_length_b       6.5227
_cell_length_c       17.4518
_cell_angle_alpha    90
_cell_angle_beta     90
_cell_angle_gamma    90

_symmetry_Int_Tables_number  62
_chemical_formula_structural  TaNi2Te2
_chemical_formula_sum  Ta4Ni8Te8
_cell_volume  407.3712262785844
_cell_formula_units_Z  4
loop_
  _symmetry_equiv_pos_site_id
 _symmetry_equiv_pos_as_xyz
 1  'x, y, z'
loop_
 _atom_site_type_symbol
 _atom_site_label
 _atom_site_symmetry_multiplicity
 _atom_site_fract_x
 _atom_site_fract_y
 _atom_site_fract_z
 _atom_site_fract_occupancy
 Ni  Ni1  1  0.75000  0.21056  0.68357  1
 Ni  Ni2  1  0.25000  0.28944  0.18357  1
 Ni  Ni3  1  0.25000  0.78944  0.31643  1
 Ni  Ni4  1  0.75000  0.71056  0.81643  1
 Ni  Ni5  1  0.75000  0.09966  0.81483  1
 Ni  Ni6  1  0.25000  0.90034  0.18517  1
 Ni  Ni7  1  0.25000  0.40034  0.31483  1
 Ni  Ni8  1  0.75000  0.59966  0.68517  1
 Ta  Ta1  1  0.25000  0.40403  0.77538  1
 Ta  Ta2  1  0.25000  0.90403  0.72462  1
 Ta  Ta3  1  0.75000  0.59597  0.22462  1
 Ta  Ta4  1  0.75000  0.09597  0.27538  1
 Te  Te1  1  0.25000  0.90723  0.89406  1
 Te  Te2  1  0.75000  0.59277  0.39406  1
 Te  Te3  1  0.25000  0.09627  0.40615  1
 Te  Te4  1  0.75000  0.90373  0.59385  1
 Te  Te5  1  0.75000  0.40373  0.90615  1
 Te  Te6  1  0.25000  0.59627  0.09385  1
 Te  Te7  1  0.75000  0.09277  0.10594  1
 Te  Te8  1  0.25000  0.40723  0.60594  1
