CIF file written using JARVIS-Tools package.
data_LiHo2Rh
_symmetry_space_group_name_H-M  'Fm-3m'
_cell_length_a       4.87588
_cell_length_b       4.87588
_cell_length_c       4.87588
_cell_angle_alpha    59.9985
_cell_angle_beta     59.9985
_cell_angle_gamma    59.9985

_symmetry_Int_Tables_number  225
_chemical_formula_structural  LiHo2Rh
_chemical_formula_sum  LiHo2Rh
_cell_volume  81.96522480886595
_cell_formula_units_Z  1
loop_
  _symmetry_equiv_pos_site_id
 _symmetry_equiv_pos_as_xyz
 1  'x, y, z'
loop_
 _atom_site_type_symbol
 _atom_site_label
 _atom_site_symmetry_multiplicity
 _atom_site_fract_x
 _atom_site_fract_y
 _atom_site_fract_z
 _atom_site_fract_occupancy
 Ho  Ho1  1  0.00001  0.00001  0.00001  1
 Ho  Ho2  1  0.49999  0.49999  0.49999  1
 Li  Li1  1  0.25000  0.25000  0.25000  1
 Rh  Rh1  1  0.75000  0.75000  0.75000  1
