CIF file written using JARVIS-Tools package.
data_NdAl3Pb2O8
_symmetry_space_group_name_H-M  'Pn-3m'
_cell_length_a       9.61141
_cell_length_b       9.61141
_cell_length_c       9.61141
_cell_angle_alpha    90
_cell_angle_beta     90
_cell_angle_gamma    90

_symmetry_Int_Tables_number  224
_chemical_formula_structural  NdAl3Pb2O8
_chemical_formula_sum  Nd4Al2Pb8O32
_cell_volume  887.8950249346221
_cell_formula_units_Z  4
loop_
  _symmetry_equiv_pos_site_id
 _symmetry_equiv_pos_as_xyz
 1  'x, y, z'
loop_
 _atom_site_type_symbol
 _atom_site_label
 _atom_site_symmetry_multiplicity
 _atom_site_fract_x
 _atom_site_fract_y
 _atom_site_fract_z
 _atom_site_fract_occupancy
 Al  Al1  1  0.50000  0.25000  0.00000  1
 Al  Al2  1  0.00000  0.50000  0.75000  1
 Al  Al3  1  0.25000  0.00000  0.50000  1
 Al  Al4  1  0.75000  0.00000  0.50000  1
 Al  Al5  1  0.50000  0.00000  0.25000  1
 Al  Al6  1  0.00000  0.25000  0.50000  1
 Al  Al7  1  0.00000  0.75000  0.50000  1
 Al  Al8  1  0.75000  0.50000  0.00000  1
 Al  Al9  1  0.25000  0.50000  0.00000  1
 Al  Al10  1  0.50000  0.00000  0.75000  1
 Al  Al11  1  0.00000  0.50000  0.25000  1
 Al  Al12  1  0.50000  0.75000  0.00000  1
 Nd  Nd1  1  0.75000  0.25000  0.75000  1
 Nd  Nd2  1  0.75000  0.75000  0.25000  1
 Nd  Nd3  1  0.25000  0.25000  0.25000  1
 Nd  Nd4  1  0.25000  0.75000  0.75000  1
 O  O1  1  0.48673  0.84313  0.84313  1
 O  O2  1  0.84313  0.84313  0.48673  1
 O  O3  1  0.34313  0.65687  0.98673  1
 O  O4  1  0.84313  0.51327  0.15687  1
 O  O5  1  0.15687  0.84313  0.51327  1
 O  O6  1  0.15687  0.51327  0.84313  1
 O  O7  1  0.15687  0.48673  0.15687  1
 O  O8  1  0.84313  0.15687  0.51327  1
 O  O9  1  0.01327  0.34313  0.34313  1
 O  O10  1  0.51327  0.84313  0.15687  1
 O  O11  1  0.51327  0.15687  0.84313  1
 O  O12  1  0.34313  0.98673  0.65687  1
 O  O13  1  0.65687  0.01327  0.65687  1
 O  O14  1  0.89099  0.10901  0.89099  1
 O  O15  1  0.65687  0.65687  0.01327  1
 O  O16  1  0.10901  0.89099  0.89099  1
 O  O17  1  0.01327  0.65687  0.65687  1
 O  O18  1  0.48673  0.15687  0.15687  1
 O  O19  1  0.89099  0.89099  0.10901  1
 O  O20  1  0.34313  0.34313  0.01327  1
 O  O21  1  0.60901  0.60901  0.39099  1
 O  O22  1  0.39099  0.60901  0.60901  1
 O  O23  1  0.65687  0.98673  0.34313  1
 O  O24  1  0.65687  0.34313  0.98673  1
 O  O25  1  0.15687  0.15687  0.48673  1
 O  O26  1  0.34313  0.01327  0.34313  1
 O  O27  1  0.98673  0.65687  0.34313  1
 O  O28  1  0.10901  0.10901  0.10901  1
 O  O29  1  0.84313  0.48673  0.84313  1
 O  O30  1  0.60901  0.39099  0.60901  1
 O  O31  1  0.98673  0.34313  0.65687  1
 O  O32  1  0.39099  0.39099  0.39099  1
 Pb  Pb1  1  0.86668  0.86668  0.86668  1
 Pb  Pb2  1  0.36668  0.63332  0.36668  1
 Pb  Pb3  1  0.63332  0.36668  0.36668  1
 Pb  Pb4  1  0.36668  0.36668  0.63332  1
 Pb  Pb5  1  0.86668  0.13332  0.13332  1
 Pb  Pb6  1  0.13332  0.13332  0.86668  1
 Pb  Pb7  1  0.13332  0.86668  0.13332  1
 Pb  Pb8  1  0.63332  0.63332  0.63332  1
