CIF file written using JARVIS-Tools package.
data_PrCoSi
_symmetry_space_group_name_H-M  'P4/nmm'
_cell_length_a       4.03818
_cell_length_b       4.03818
_cell_length_c       7.11748
_cell_angle_alpha    90
_cell_angle_beta     90
_cell_angle_gamma    90

_symmetry_Int_Tables_number  129
_chemical_formula_structural  PrCoSi
_chemical_formula_sum  Pr2Co2Si2
_cell_volume  116.06417116828922
_cell_formula_units_Z  2
loop_
  _symmetry_equiv_pos_site_id
 _symmetry_equiv_pos_as_xyz
 1  'x, y, z'
loop_
 _atom_site_type_symbol
 _atom_site_label
 _atom_site_symmetry_multiplicity
 _atom_site_fract_x
 _atom_site_fract_y
 _atom_site_fract_z
 _atom_site_fract_occupancy
 Co  Co1  1  0.50000  0.50000  0.00000  1
 Co  Co2  1  0.00000  0.00000  0.00000  1
 Pr  Pr1  1  0.50000  0.00000  0.31725  1
 Pr  Pr2  1  0.00000  0.50000  0.68275  1
 Si  Si1  1  0.50000  0.00000  0.83364  1
 Si  Si2  1  0.00000  0.50000  0.16636  1
