CIF file written using JARVIS-Tools package.
data_Tl2CdTe4
_symmetry_space_group_name_H-M  'I-4'
_cell_length_a       6.31107
_cell_length_b       6.31107
_cell_length_c       7.85877
_cell_angle_alpha    113.674
_cell_angle_beta     113.674
_cell_angle_gamma    90

_symmetry_Int_Tables_number  82
_chemical_formula_structural  Tl2CdTe4
_chemical_formula_sum  Tl2CdTe4
_cell_volume  257.6500750108118
_cell_formula_units_Z  1
loop_
  _symmetry_equiv_pos_site_id
 _symmetry_equiv_pos_as_xyz
 1  'x, y, z'
loop_
 _atom_site_type_symbol
 _atom_site_label
 _atom_site_symmetry_multiplicity
 _atom_site_fract_x
 _atom_site_fract_y
 _atom_site_fract_z
 _atom_site_fract_occupancy
 Cd  Cd1  1  0.50000  0.50000  0.00000  1
 Te  Te1  1  0.43189  0.35296  0.27781  1
 Te  Te2  1  0.84592  0.92485  0.27781  1
 Te  Te3  1  0.07515  0.56811  0.72219  1
 Te  Te4  1  0.64704  0.15408  0.72219  1
 Tl  Tl1  1  0.25000  0.75000  0.50000  1
 Tl  Tl2  1  0.00000  0.00000  0.00000  1
