CIF file written using JARVIS-Tools package.
data_TmCuPbSe3
_symmetry_space_group_name_H-M  'P-1'
_cell_length_a       4.03491
_cell_length_b       7.07386
_cell_length_c       10.4542
_cell_angle_alpha    91.1461
_cell_angle_beta     89.9999
_cell_angle_gamma    106.582

_symmetry_Int_Tables_number  2
_chemical_formula_structural  TmCuPbSe3
_chemical_formula_sum  Tm2Cu2Pb2Se6
_cell_volume  285.91702099595597
_cell_formula_units_Z  2
loop_
  _symmetry_equiv_pos_site_id
 _symmetry_equiv_pos_as_xyz
 1  'x, y, z'
loop_
 _atom_site_type_symbol
 _atom_site_label
 _atom_site_symmetry_multiplicity
 _atom_site_fract_x
 _atom_site_fract_y
 _atom_site_fract_z
 _atom_site_fract_occupancy
 Cu  Cu1  1  0.96820  0.43789  0.24766  1
 Cu  Cu2  1  0.03357  0.56502  0.74699  1
 Pb  Pb1  1  0.74494  0.98778  0.75408  1
 Pb  Pb2  1  0.25665  0.01531  0.24049  1
 Se  Se1  1  0.86066  0.22168  0.43287  1
 Se  Se2  1  0.86117  0.22268  0.05411  1
 Se  Se3  1  0.14018  0.78033  0.94043  1
 Se  Se4  1  0.14066  0.78126  0.56172  1
 Se  Se5  1  0.57967  0.66017  0.24921  1
 Se  Se6  1  0.42187  0.34281  0.74529  1
 Tm  Tm1  1  0.50069  0.50153  0.49726  1
 Tm  Tm2  1  0.50068  0.50150  0.99726  1
