CIF file written using JARVIS-Tools package.
data_V3B2
_symmetry_space_group_name_H-M  'P4/mbm'
_cell_length_a       5.73055
_cell_length_b       5.73055
_cell_length_c       3.02041
_cell_angle_alpha    90
_cell_angle_beta     90
_cell_angle_gamma    90

_symmetry_Int_Tables_number  127
_chemical_formula_structural  V3B2
_chemical_formula_sum  V6B4
_cell_volume  99.18778045456699
_cell_formula_units_Z  2
loop_
  _symmetry_equiv_pos_site_id
 _symmetry_equiv_pos_as_xyz
 1  'x, y, z'
loop_
 _atom_site_type_symbol
 _atom_site_label
 _atom_site_symmetry_multiplicity
 _atom_site_fract_x
 _atom_site_fract_y
 _atom_site_fract_z
 _atom_site_fract_occupancy
 B  B1  1  0.10950  0.60950  0.00000  1
 B  B2  1  0.60950  0.89050  0.00000  1
 B  B3  1  0.39050  0.10950  0.00000  1
 B  B4  1  0.89050  0.39050  0.00000  1
 V  V1  1  0.00000  0.00000  0.00000  1
 V  V2  1  0.50000  0.50000  0.00000  1
 V  V3  1  0.32049  0.82049  0.50000  1
 V  V4  1  0.82049  0.67951  0.50000  1
 V  V5  1  0.17951  0.32049  0.50000  1
 V  V6  1  0.67951  0.17951  0.50000  1
