CIF file written using JARVIS-Tools package.
data_PuCdRh2
_symmetry_space_group_name_H-M  'I4/mmm'
_cell_length_a       4.64156
_cell_length_b       4.64382
_cell_length_c       4.65478
_cell_angle_alpha    59.955
_cell_angle_beta     59.9726
_cell_angle_gamma    60.1706

_symmetry_Int_Tables_number  139
_chemical_formula_structural  PuCdRh2
_chemical_formula_sum  PuCdRh2
_cell_volume  70.99738727613907
_cell_formula_units_Z  1
loop_
  _symmetry_equiv_pos_site_id
 _symmetry_equiv_pos_as_xyz
 1  'x, y, z'
loop_
 _atom_site_type_symbol
 _atom_site_label
 _atom_site_symmetry_multiplicity
 _atom_site_fract_x
 _atom_site_fract_y
 _atom_site_fract_z
 _atom_site_fract_occupancy
 Cd  Cd1  1  0.25000  0.25000  0.25000  1
 Pu  Pu1  1  0.75000  0.75000  0.75000  1
 Rh  Rh1  1  -0.00016  0.99957  1.00011  1
 Rh  Rh2  1  0.50016  0.50043  0.49989  1
