CIF file written using JARVIS-Tools package.
data_Ba2GaGeN
_symmetry_space_group_name_H-M  'P2_1/m'
_cell_length_a       7.28632
_cell_length_b       4.22464
_cell_length_c       9.37644
_cell_angle_alpha    90
_cell_angle_beta     108.903
_cell_angle_gamma    90

_symmetry_Int_Tables_number  11
_chemical_formula_structural  Ba2GaGeN
_chemical_formula_sum  Ba4Ga2Ge2N2
_cell_volume  273.059667035713
_cell_formula_units_Z  2
loop_
  _symmetry_equiv_pos_site_id
 _symmetry_equiv_pos_as_xyz
 1  'x, y, z'
loop_
 _atom_site_type_symbol
 _atom_site_label
 _atom_site_symmetry_multiplicity
 _atom_site_fract_x
 _atom_site_fract_y
 _atom_site_fract_z
 _atom_site_fract_occupancy
 Ba  Ba1  1  0.80966  0.75000  0.61791  1
 Ba  Ba2  1  0.79454  0.75000  0.03772  1
 Ba  Ba3  1  0.19034  0.25000  0.38209  1
 Ba  Ba4  1  0.20546  0.25000  0.96228  1
 Ga  Ga1  1  0.53815  0.25000  0.75393  1
 Ga  Ga2  1  0.46185  0.75000  0.24607  1
 Ge  Ge1  1  0.66382  0.25000  0.29864  1
 Ge  Ge2  1  0.33618  0.75000  0.70136  1
 N  N1  1  0.81519  0.25000  0.82831  1
 N  N2  1  0.18481  0.75000  0.17169  1
