CIF file written using JARVIS-Tools package.
data_TbBi2ClO4
_symmetry_space_group_name_H-M  'P4/mmm'
_cell_length_a       3.89848
_cell_length_b       3.89848
_cell_length_c       8.97554
_cell_angle_alpha    90
_cell_angle_beta     90
_cell_angle_gamma    90

_symmetry_Int_Tables_number  123
_chemical_formula_structural  TbBi2ClO4
_chemical_formula_sum  TbBi2ClO4
_cell_volume  136.41144320539036
_cell_formula_units_Z  1
loop_
  _symmetry_equiv_pos_site_id
 _symmetry_equiv_pos_as_xyz
 1  'x, y, z'
loop_
 _atom_site_type_symbol
 _atom_site_label
 _atom_site_symmetry_multiplicity
 _atom_site_fract_x
 _atom_site_fract_y
 _atom_site_fract_z
 _atom_site_fract_occupancy
 Bi  Bi1  1  0.50000  0.50000  0.28082  1
 Bi  Bi2  1  0.50000  0.50000  0.71918  1
 Cl  Cl1  1  0.00000  0.00000  0.50000  1
 O  O1  1  0.00000  0.50000  0.15478  1
 O  O2  1  0.50000  0.00000  0.15478  1
 O  O3  1  0.50000  0.00000  0.84522  1
 O  O4  1  0.00000  0.50000  0.84522  1
 Tb  Tb1  1  0.00000  0.00000  0.00000  1
