CIF file written using JARVIS-Tools package.
data_BiO2
_symmetry_space_group_name_H-M  'I4_1/amd'
_cell_length_a       4.29951
_cell_length_b       4.29948
_cell_length_c       6.63772
_cell_angle_alpha    108.852
_cell_angle_beta     108.856
_cell_angle_gamma    89.996

_symmetry_Int_Tables_number  141
_chemical_formula_structural  BiO2
_chemical_formula_sum  Bi2O4
_cell_volume  109.14050489725692
_cell_formula_units_Z  2
loop_
  _symmetry_equiv_pos_site_id
 _symmetry_equiv_pos_as_xyz
 1  'x, y, z'
loop_
 _atom_site_type_symbol
 _atom_site_label
 _atom_site_symmetry_multiplicity
 _atom_site_fract_x
 _atom_site_fract_y
 _atom_site_fract_z
 _atom_site_fract_occupancy
 Bi  Bi1  1  0.12522  0.87479  0.25000  1
 Bi  Bi2  1  0.87478  0.12521  0.75000  1
 O  O1  1  0.07018  0.31977  0.13982  1
 O  O2  1  0.31975  0.07017  0.63981  1
 O  O3  1  0.68025  0.92983  0.36019  1
 O  O4  1  0.92982  0.68023  0.86018  1
