CIF file written using JARVIS-Tools package.
data_NbSiPd
_symmetry_space_group_name_H-M  'Pnma'
_cell_length_a       3.79281
_cell_length_b       6.51276
_cell_length_c       7.51305
_cell_angle_alpha    90
_cell_angle_beta     90
_cell_angle_gamma    90

_symmetry_Int_Tables_number  62
_chemical_formula_structural  NbSiPd
_chemical_formula_sum  Nb4Si4Pd4
_cell_volume  185.58441655496534
_cell_formula_units_Z  4
loop_
  _symmetry_equiv_pos_site_id
 _symmetry_equiv_pos_as_xyz
 1  'x, y, z'
loop_
 _atom_site_type_symbol
 _atom_site_label
 _atom_site_symmetry_multiplicity
 _atom_site_fract_x
 _atom_site_fract_y
 _atom_site_fract_z
 _atom_site_fract_occupancy
 Nb  Nb1  1  0.75000  0.52740  0.83672  1
 Nb  Nb2  1  0.25000  0.97260  0.33672  1
 Nb  Nb3  1  0.75000  0.02740  0.66328  1
 Nb  Nb4  1  0.25000  0.47260  0.16328  1
 Pd  Pd1  1  0.25000  0.85165  0.93704  1
 Pd  Pd2  1  0.25000  0.35165  0.56296  1
 Pd  Pd3  1  0.75000  0.64835  0.43704  1
 Pd  Pd4  1  0.75000  0.14835  0.06296  1
 Si  Si1  1  0.25000  0.23105  0.86984  1
 Si  Si2  1  0.25000  0.73105  0.63016  1
 Si  Si3  1  0.75000  0.76895  0.13016  1
 Si  Si4  1  0.75000  0.26895  0.36984  1
