CIF file written using JARVIS-Tools package.
data_PmH
_symmetry_space_group_name_H-M  'P6_3mc'
_cell_length_a       3.83756
_cell_length_b       3.83756
_cell_length_c       5.89152
_cell_angle_alpha    90
_cell_angle_beta     90
_cell_angle_gamma    120

_symmetry_Int_Tables_number  186
_chemical_formula_structural  PmH
_chemical_formula_sum  Pm2H2
_cell_volume  75.13918012066772
_cell_formula_units_Z  2
loop_
  _symmetry_equiv_pos_site_id
 _symmetry_equiv_pos_as_xyz
 1  'x, y, z'
loop_
 _atom_site_type_symbol
 _atom_site_label
 _atom_site_symmetry_multiplicity
 _atom_site_fract_x
 _atom_site_fract_y
 _atom_site_fract_z
 _atom_site_fract_occupancy
 H  H1  1  0.33333  0.66667  0.98681  1
 H  H2  1  0.66667  0.33333  0.48681  1
 Pm  Pm1  1  0.33333  0.66667  0.38820  1
 Pm  Pm2  1  0.66667  0.33333  0.88820  1
