CIF file written using JARVIS-Tools package.
data_Ca2B4Rh5
_symmetry_space_group_name_H-M  'Fmmm'
_cell_length_a       5.49746
_cell_length_b       5.61947
_cell_length_c       6.26957
_cell_angle_alpha    77.6165
_cell_angle_beta     63.9966
_cell_angle_gamma    60.7155

_symmetry_Int_Tables_number  69
_chemical_formula_structural  Ca2B4Rh5
_chemical_formula_sum  Ca2B4Rh5
_cell_volume  151.83104940455448
_cell_formula_units_Z  1
loop_
  _symmetry_equiv_pos_site_id
 _symmetry_equiv_pos_as_xyz
 1  'x, y, z'
loop_
 _atom_site_type_symbol
 _atom_site_label
 _atom_site_symmetry_multiplicity
 _atom_site_fract_x
 _atom_site_fract_y
 _atom_site_fract_z
 _atom_site_fract_occupancy
 B  B1  1  0.20898  0.32004  0.26201  1
 B  B2  1  0.79102  0.67996  0.73799  1
 B  B3  1  0.47099  0.32004  0.73799  1
 B  B4  1  0.52901  0.67996  0.26201  1
 Ca  Ca1  1  0.14219  -0.00000  0.71562  1
 Ca  Ca2  1  0.85781  0.00000  0.28438  1
 Rh  Rh1  1  0.50000  0.00000  0.00000  1
 Rh  Rh2  1  0.50000  0.50000  0.00000  1
 Rh  Rh3  1  -0.00000  0.50000  -0.00000  1
 Rh  Rh4  1  0.25000  0.50000  0.50000  1
 Rh  Rh5  1  0.75000  0.50000  0.50000  1
