CIF file written using JARVIS-Tools package.
data_Ca3SiBr2
_symmetry_space_group_name_H-M  'P-3m1'
_cell_length_a       4.46278
_cell_length_b       4.46278
_cell_length_c       10.4077
_cell_angle_alpha    90
_cell_angle_beta     90
_cell_angle_gamma    120

_symmetry_Int_Tables_number  164
_chemical_formula_structural  Ca3SiBr2
_chemical_formula_sum  Ca3SiBr2
_cell_volume  179.5128265489741
_cell_formula_units_Z  1
loop_
  _symmetry_equiv_pos_site_id
 _symmetry_equiv_pos_as_xyz
 1  'x, y, z'
loop_
 _atom_site_type_symbol
 _atom_site_label
 _atom_site_symmetry_multiplicity
 _atom_site_fract_x
 _atom_site_fract_y
 _atom_site_fract_z
 _atom_site_fract_occupancy
 Br  Br1  1  0.33333  0.66667  0.64408  1
 Br  Br2  1  0.66667  0.33333  0.35592  1
 Ca  Ca1  1  0.33333  0.66667  0.12989  1
 Ca  Ca2  1  0.66667  0.33333  0.87011  1
 Ca  Ca3  1  0.00000  0.00000  0.50000  1
 Si  Si1  1  0.00000  0.00000  0.00000  1
