CIF file written using JARVIS-Tools package.
data_Mo3WSe2S6
_symmetry_space_group_name_H-M  'P3m1'
_cell_length_a       3.22357
_cell_length_b       3.22308
_cell_length_c       33.0849
_cell_angle_alpha    89.9969
_cell_angle_beta     90
_cell_angle_gamma    120.005

_symmetry_Int_Tables_number  156
_chemical_formula_structural  Mo3WSe2S6
_chemical_formula_sum  Mo3WSe2S6
_cell_volume  297.67797062840134
_cell_formula_units_Z  1
loop_
  _symmetry_equiv_pos_site_id
 _symmetry_equiv_pos_as_xyz
 1  'x, y, z'
loop_
 _atom_site_type_symbol
 _atom_site_label
 _atom_site_symmetry_multiplicity
 _atom_site_fract_x
 _atom_site_fract_y
 _atom_site_fract_z
 _atom_site_fract_occupancy
 Mo  Mo1  1  0.33322  0.66645  0.09204  1
 Mo  Mo2  1  0.33335  0.66671  0.46799  1
 Mo  Mo3  1  0.66677  0.33353  0.66288  1
 S  S1  1  0.33327  0.66655  0.32730  1
 S  S2  1  0.66665  0.33329  0.04504  1
 S  S3  1  0.66675  0.33349  0.42096  1
 S  S4  1  0.66655  0.33310  0.13908  1
 S  S5  1  0.66665  0.33331  0.51504  1
 S  S6  1  0.33327  0.66654  0.23273  1
 Se  Se1  1  0.33342  0.66685  0.71453  1
 Se  Se2  1  0.33347  0.66693  0.61116  1
 W  W1  1  0.66662  0.33325  0.28001  1
