CIF file written using JARVIS-Tools package.
data_AlB3N4
_symmetry_space_group_name_H-M  'P-43m'
_cell_length_a       3.8412
_cell_length_b       3.8412
_cell_length_c       3.8412
_cell_angle_alpha    90
_cell_angle_beta     90
_cell_angle_gamma    90

_symmetry_Int_Tables_number  215
_chemical_formula_structural  AlB3N4
_chemical_formula_sum  AlB3N4
_cell_volume  56.67618343500044
_cell_formula_units_Z  1
loop_
  _symmetry_equiv_pos_site_id
 _symmetry_equiv_pos_as_xyz
 1  'x, y, z'
loop_
 _atom_site_type_symbol
 _atom_site_label
 _atom_site_symmetry_multiplicity
 _atom_site_fract_x
 _atom_site_fract_y
 _atom_site_fract_z
 _atom_site_fract_occupancy
 Al  Al1  1  0.00000  0.00000  0.00000  1
 B  B1  1  0.50000  0.50000  0.00000  1
 B  B2  1  0.50000  0.00000  0.50000  1
 B  B3  1  0.00000  0.50000  0.50000  1
 N  N1  1  0.73152  0.73152  0.26848  1
 N  N2  1  0.73152  0.26848  0.73152  1
 N  N3  1  0.26848  0.73152  0.73152  1
 N  N4  1  0.26848  0.26848  0.26848  1
