CIF file written using JARVIS-Tools package.
data_Ni3B
_symmetry_space_group_name_H-M  'Pnma'
_cell_length_a       4.41137
_cell_length_b       5.18495
_cell_length_c       6.64432
_cell_angle_alpha    90
_cell_angle_beta     90
_cell_angle_gamma    90

_symmetry_Int_Tables_number  62
_chemical_formula_structural  Ni3B
_chemical_formula_sum  Ni2B4
_cell_volume  151.97354369337845
_cell_formula_units_Z  4
loop_
  _symmetry_equiv_pos_site_id
 _symmetry_equiv_pos_as_xyz
 1  'x, y, z'
loop_
 _atom_site_type_symbol
 _atom_site_label
 _atom_site_symmetry_multiplicity
 _atom_site_fract_x
 _atom_site_fract_y
 _atom_site_fract_z
 _atom_site_fract_occupancy
 B  B1  1  0.55922  0.11803  0.75000  1
 B  B2  1  0.05922  0.38197  0.25000  1
 B  B3  1  0.94078  0.61803  0.75000  1
 B  B4  1  0.44078  0.88197  0.25000  1
 Ni  Ni1  1  0.65749  0.82022  0.93725  1
 Ni  Ni2  1  0.15749  0.67978  0.06275  1
 Ni  Ni3  1  0.84251  0.32022  0.56275  1
 Ni  Ni4  1  0.34251  0.17978  0.43725  1
 Ni  Ni5  1  0.86686  0.02727  0.25000  1
 Ni  Ni6  1  0.36686  0.47273  0.75000  1
 Ni  Ni7  1  0.63314  0.52727  0.25000  1
 Ni  Ni8  1  0.13314  0.97273  0.75000  1
 Ni  Ni9  1  0.65749  0.82022  0.56275  1
 Ni  Ni10  1  0.15749  0.67978  0.43725  1
 Ni  Ni11  1  0.84251  0.32022  0.93725  1
 Ni  Ni12  1  0.34251  0.17978  0.06275  1
