data_image0
_chemical_formula_structural       Nb5Se4
_chemical_formula_sum              "Nb5 Se4"
_cell_length_a       3.44714
_cell_length_b       7.27082
_cell_length_c       7.27082
_cell_angle_alpha    93.2214
_cell_angle_beta     76.2873
_cell_angle_gamma    103.713

_space_group_name_H-M_alt    "P 1"
_space_group_IT_number       1

loop_
  _space_group_symop_operation_xyz
  'x, y, z'

loop_
  _atom_site_type_symbol
  _atom_site_label
  _atom_site_symmetry_multiplicity
  _atom_site_fract_x
  _atom_site_fract_y
  _atom_site_fract_z
  _atom_site_occupancy
  Nb  Nb1       1.0  0.00000  0.00000  0.00000  1.0000
  Nb  Nb2       1.0  0.30400  0.67900  0.07050  1.0000
  Nb  Nb3       1.0  0.37500  0.07050  0.32100  1.0000
  Nb  Nb4       1.0  0.62500  0.93000  0.67900  1.0000
  Nb  Nb5       1.0  0.69600  0.32100  0.92900  1.0000
  Se  Se1       1.0  0.05900  0.34100  0.22300  1.0000
  Se  Se2       1.0  0.71800  0.77700  0.34100  1.0000
  Se  Se3       1.0  0.28200  0.22300  0.65900  1.0000
  Se  Se4       1.0  0.94100  0.65900  0.77700  1.0000
