CIF file written using JARVIS-Tools package.
data_Nd2SiTeO4
_symmetry_space_group_name_H-M  'Pbcm'
_cell_length_a       6.35689
_cell_length_b       7.23307
_cell_length_c       11.2706
_cell_angle_alpha    90
_cell_angle_beta     90
_cell_angle_gamma    90

_symmetry_Int_Tables_number  57
_chemical_formula_structural  Nd2SiTeO4
_chemical_formula_sum  Nd8Si4Te4O6
_cell_volume  518.220362596861
_cell_formula_units_Z  4
loop_
  _symmetry_equiv_pos_site_id
 _symmetry_equiv_pos_as_xyz
 1  'x, y, z'
loop_
 _atom_site_type_symbol
 _atom_site_label
 _atom_site_symmetry_multiplicity
 _atom_site_fract_x
 _atom_site_fract_y
 _atom_site_fract_z
 _atom_site_fract_occupancy
 Nd  Nd1  1  0.38890  0.75000  0.50000  1
 Nd  Nd2  1  0.38890  0.75000  0.00000  1
 Nd  Nd3  1  0.61110  0.25000  0.50000  1
 Nd  Nd4  1  0.61110  0.25000  0.00000  1
 Nd  Nd5  1  0.88653  0.96240  0.75000  1
 Nd  Nd6  1  0.88653  0.53760  0.25000  1
 Nd  Nd7  1  0.11347  0.46240  0.75000  1
 Nd  Nd8  1  0.11347  0.03760  0.25000  1
 O  O1  1  0.04928  0.76864  0.38454  1
 O  O2  1  0.26843  0.07654  0.03580  1
 O  O3  1  0.26843  0.42346  0.96420  1
 O  O4  1  0.73157  0.92346  0.53580  1
 O  O5  1  0.26843  0.07654  0.46420  1
 O  O6  1  0.73157  0.57654  0.03580  1
 O  O7  1  0.26843  0.42346  0.53580  1
 O  O8  1  0.04928  0.76864  0.11546  1
 O  O9  1  0.04928  0.73136  0.88454  1
 O  O10  1  0.73157  0.92346  0.96420  1
 O  O11  1  0.95072  0.26864  0.11546  1
 O  O12  1  0.04928  0.73136  0.61546  1
 O  O13  1  0.95072  0.23136  0.61546  1
 O  O14  1  0.95072  0.26864  0.38454  1
 O  O15  1  0.73157  0.57654  0.46420  1
 O  O16  1  0.95072  0.23136  0.88454  1
 Si  Si1  1  0.11268  0.25000  0.50000  1
 Si  Si2  1  0.88732  0.75000  0.50000  1
 Si  Si3  1  0.88732  0.75000  0.00000  1
 Si  Si4  1  0.11268  0.25000  0.00000  1
 Te  Te1  1  0.59851  0.57608  0.75000  1
 Te  Te2  1  0.40149  0.42392  0.25000  1
 Te  Te3  1  0.40149  0.07608  0.75000  1
 Te  Te4  1  0.59851  0.92392  0.25000  1
