CIF file written using JARVIS-Tools package.
data_Mg3BO3F3
_symmetry_space_group_name_H-M  'P6_3/m'
_cell_length_a       8.86608
_cell_length_b       8.86608
_cell_length_c       3.11009
_cell_angle_alpha    90
_cell_angle_beta     90
_cell_angle_gamma    120

_symmetry_Int_Tables_number  176
_chemical_formula_structural  Mg3BO3F3
_chemical_formula_sum  Mg6B2O6F6
_cell_volume  211.72237848762282
_cell_formula_units_Z  2
loop_
  _symmetry_equiv_pos_site_id
 _symmetry_equiv_pos_as_xyz
 1  'x, y, z'
loop_
 _atom_site_type_symbol
 _atom_site_label
 _atom_site_symmetry_multiplicity
 _atom_site_fract_x
 _atom_site_fract_y
 _atom_site_fract_z
 _atom_site_fract_occupancy
 B  B1  1  0.66667  0.33333  0.25000  1
 B  B2  1  0.33333  0.66667  0.75000  1
 F  F1  1  0.79002  0.08998  0.75000  1
 F  F2  1  0.08998  0.29996  0.25000  1
 F  F3  1  0.29996  0.20998  0.75000  1
 F  F4  1  0.91002  0.70004  0.75000  1
 F  F5  1  0.70004  0.79002  0.25000  1
 F  F6  1  0.20998  0.91002  0.25000  1
 Mg  Mg1  1  0.33718  0.36707  0.25000  1
 Mg  Mg2  1  0.97010  0.33718  0.75000  1
 Mg  Mg3  1  0.63293  0.97010  0.25000  1
 Mg  Mg4  1  0.02990  0.66282  0.25000  1
 Mg  Mg5  1  0.66282  0.63293  0.75000  1
 Mg  Mg6  1  0.36707  0.02990  0.75000  1
 O  O1  1  0.15463  0.60398  0.75000  1
 O  O2  1  0.44935  0.84537  0.75000  1
 O  O3  1  0.60398  0.44935  0.25000  1
 O  O4  1  0.84537  0.39602  0.25000  1
 O  O5  1  0.55065  0.15463  0.25000  1
 O  O6  1  0.39602  0.55065  0.75000  1
