CIF file written using JARVIS-Tools package.
data_MoW2Se4S2
_symmetry_space_group_name_H-M  'R3m'
_cell_length_a       3.28134
_cell_length_b       3.2814
_cell_length_c       19.5902
_cell_angle_alpha    94.8369
_cell_angle_beta     90
_cell_angle_gamma    119.999

_symmetry_Int_Tables_number  160
_chemical_formula_structural  MoW2Se4S2
_chemical_formula_sum  MoW2Se4S2
_cell_volume  181.80873130323295
_cell_formula_units_Z  1
loop_
  _symmetry_equiv_pos_site_id
 _symmetry_equiv_pos_as_xyz
 1  'x, y, z'
loop_
 _atom_site_type_symbol
 _atom_site_label
 _atom_site_symmetry_multiplicity
 _atom_site_fract_x
 _atom_site_fract_y
 _atom_site_fract_z
 _atom_site_fract_occupancy
 Mo  Mo1  1  0.22344  0.44688  0.01766  1
 S  S1  1  0.36042  0.72085  0.42611  1
 S  S2  1  0.30718  0.61436  0.26752  1
 Se  Se1  1  0.52768  0.05536  0.93105  1
 Se  Se2  1  0.74679  0.49359  0.58929  1
 Se  Se3  1  0.58589  0.17178  0.10433  1
 Se  Se4  1  0.80533  0.61065  0.76362  1
 W  W1  1  0.44273  0.88546  0.67645  1
 W  W2  1  0.66714  0.33428  0.34682  1
