CIF file written using JARVIS-Tools package.
data_Li5Cu4P6
_symmetry_space_group_name_H-M  'Immm'
_cell_length_a       3.88522
_cell_length_b       7.95274
_cell_length_c       7.95274
_cell_angle_alpha    105.749
_cell_angle_beta     104.139
_cell_angle_gamma    104.139

_symmetry_Int_Tables_number  71
_chemical_formula_structural  Li5Cu4P6
_chemical_formula_sum  Li5Cu4P6
_cell_volume  216.26668872698625
_cell_formula_units_Z  1
loop_
  _symmetry_equiv_pos_site_id
 _symmetry_equiv_pos_as_xyz
 1  'x, y, z'
loop_
 _atom_site_type_symbol
 _atom_site_label
 _atom_site_symmetry_multiplicity
 _atom_site_fract_x
 _atom_site_fract_y
 _atom_site_fract_z
 _atom_site_fract_occupancy
 Cu  Cu1  1  0.26669  0.43962  0.09377  1
 Cu  Cu2  1  0.26669  0.09377  0.43962  1
 Cu  Cu3  1  0.73331  0.90623  0.56038  1
 Cu  Cu4  1  0.73331  0.56038  0.90623  1
 Li  Li1  1  0.00000  0.00000  0.00000  1
 Li  Li2  1  0.00000  0.72183  0.27817  1
 Li  Li3  1  0.82727  0.32727  0.32727  1
 Li  Li4  1  0.17273  0.67273  0.67273  1
 Li  Li5  1  0.00000  0.27817  0.72183  1
 P  P1  1  0.37585  0.72886  0.02285  1
 P  P2  1  0.62415  0.97716  0.27114  1
 P  P3  1  0.50000  0.58606  0.41394  1
 P  P4  1  0.50000  0.41394  0.58606  1
 P  P5  1  0.37585  0.02285  0.72886  1
 P  P6  1  0.62415  0.27114  0.97716  1
