CIF file written using JARVIS-Tools package.
data_Li5PS4Cl2
_symmetry_space_group_name_H-M  'Amm2'
_cell_length_a       5.92745
_cell_length_b       5.97888
_cell_length_c       7.15162
_cell_angle_alpha    90
_cell_angle_beta     90
_cell_angle_gamma    119.716

_symmetry_Int_Tables_number  38
_chemical_formula_structural  Li5PS4Cl2
_chemical_formula_sum  Li5PS4Cl2
_cell_volume  220.12020719087636
_cell_formula_units_Z  1
loop_
  _symmetry_equiv_pos_site_id
 _symmetry_equiv_pos_as_xyz
 1  'x, y, z'
loop_
 _atom_site_type_symbol
 _atom_site_label
 _atom_site_symmetry_multiplicity
 _atom_site_fract_x
 _atom_site_fract_y
 _atom_site_fract_z
 _atom_site_fract_occupancy
 Cl  Cl1  1  0.68085  0.64844  0.50000  1
 Cl  Cl2  1  0.03241  0.35156  0.50000  1
 Li  Li1  1  0.30020  0.38345  0.75439  1
 Li  Li2  1  0.91676  0.61655  0.24561  1
 Li  Li3  1  0.30020  0.38345  0.24561  1
 Li  Li4  1  0.91676  0.61655  0.75439  1
 Li  Li5  1  0.62063  0.00000  0.50000  1
 P  P1  1  0.56439  0.00000  0.00000  1
 S  S1  1  0.93107  0.32269  0.00000  1
 S  S2  1  0.60839  0.67731  0.00000  1
 S  S3  1  0.36107  0.00000  0.76481  1
 S  S4  1  0.36107  0.00000  0.23519  1
