CIF file written using JARVIS-Tools package.
data_Li5BiS4
_symmetry_space_group_name_H-M  'Immm'
_cell_length_a       3.9339
_cell_length_b       7.8442
_cell_length_c       7.23231
_cell_angle_alpha    62.555
_cell_angle_beta     90
_cell_angle_gamma    75.478

_symmetry_Int_Tables_number  71
_chemical_formula_structural  Li5BiS4
_chemical_formula_sum  Li5BiS4
_cell_volume  189.9883548144686
_cell_formula_units_Z  1
loop_
  _symmetry_equiv_pos_site_id
 _symmetry_equiv_pos_as_xyz
 1  'x, y, z'
loop_
 _atom_site_type_symbol
 _atom_site_label
 _atom_site_symmetry_multiplicity
 _atom_site_fract_x
 _atom_site_fract_y
 _atom_site_fract_z
 _atom_site_fract_occupancy
 Bi  Bi1  1  0.50000  0.00000  0.00000  1
 Li  Li1  1  0.17911  0.64178  0.96980  1
 Li  Li2  1  0.17907  0.64187  0.38846  1
 Li  Li3  1  0.82093  0.35813  0.61154  1
 Li  Li4  1  0.82089  0.35822  0.03020  1
 Li  Li5  1  0.50000  0.00000  0.50000  1
 S  S1  1  0.99997  0.00007  0.27634  1
 S  S2  1  0.71597  0.56805  0.21599  1
 S  S3  1  0.28403  0.43195  0.78401  1
 S  S4  1  0.00003  0.99993  0.72366  1
