CIF file written using JARVIS-Tools package.
data_TaI2Cl2
_symmetry_space_group_name_H-M  'Immm'
_cell_length_a       7.42651
_cell_length_b       7.42651
_cell_length_c       7.4265
_cell_angle_alpha    97.3258
_cell_angle_beta     112.877
_cell_angle_gamma    118.93

_symmetry_Int_Tables_number  71
_chemical_formula_structural  TaI2Cl2
_chemical_formula_sum  Ta2I4Cl4
_cell_volume  303.9429183365778
_cell_formula_units_Z  2
loop_
  _symmetry_equiv_pos_site_id
 _symmetry_equiv_pos_as_xyz
 1  'x, y, z'
loop_
 _atom_site_type_symbol
 _atom_site_label
 _atom_site_symmetry_multiplicity
 _atom_site_fract_x
 _atom_site_fract_y
 _atom_site_fract_z
 _atom_site_fract_occupancy
 Cl  Cl1  1  0.55313  0.27003  0.28310  1
 Cl  Cl2  1  -0.01308  0.27003  0.71690  1
 Cl  Cl3  1  0.01308  0.72997  0.28310  1
 Cl  Cl4  1  0.44687  0.72997  0.71690  1
 I  I1  1  -0.00000  0.80497  0.80497  1
 I  I2  1  0.00000  0.19503  0.19503  1
 I  I3  1  0.50000  0.26746  0.76746  1
 I  I4  1  0.50000  0.73254  0.23254  1
 Ta  Ta1  1  0.29150  0.29150  0.00000  1
 Ta  Ta2  1  0.70850  0.70850  -0.00000  1
