CIF file written using JARVIS-Tools package.
data_Ag2Cl3
_symmetry_space_group_name_H-M  'R-3c'
_cell_length_a       6.63529
_cell_length_b       6.63529
_cell_length_c       7.1589
_cell_angle_alpha    117.609
_cell_angle_beta     62.3913
_cell_angle_gamma    120

_symmetry_Int_Tables_number  167
_chemical_formula_structural  Ag2Cl3
_chemical_formula_sum  Ag4Cl6
_cell_volume  230.58824756123374
_cell_formula_units_Z  2
loop_
  _symmetry_equiv_pos_site_id
 _symmetry_equiv_pos_as_xyz
 1  'x, y, z'
loop_
 _atom_site_type_symbol
 _atom_site_label
 _atom_site_symmetry_multiplicity
 _atom_site_fract_x
 _atom_site_fract_y
 _atom_site_fract_z
 _atom_site_fract_occupancy
 Ag  Ag1  1  0.65735  0.34265  0.02796  1
 Ag  Ag2  1  0.84265  0.15735  0.47204  1
 Ag  Ag3  1  0.15735  0.84265  0.52796  1
 Ag  Ag4  1  0.34265  0.65735  0.97204  1
 Cl  Cl1  1  0.92968  0.42968  0.25000  1
 Cl  Cl2  1  0.57032  0.75000  0.25000  1
 Cl  Cl3  1  0.25000  0.07032  0.25000  1
 Cl  Cl4  1  0.75000  0.92968  0.75000  1
 Cl  Cl5  1  0.42968  0.25000  0.75000  1
 Cl  Cl6  1  0.07032  0.57032  0.75000  1
