CIF file written using JARVIS-Tools package.
data_TbGeIr
_symmetry_space_group_name_H-M  'Pnma'
_cell_length_a       4.33978
_cell_length_b       6.90891
_cell_length_c       7.615
_cell_angle_alpha    90
_cell_angle_beta     90
_cell_angle_gamma    90

_symmetry_Int_Tables_number  62
_chemical_formula_structural  TbGeIr
_chemical_formula_sum  Tb4Ge4Ir4
_cell_volume  228.32176103363554
_cell_formula_units_Z  4
loop_
  _symmetry_equiv_pos_site_id
 _symmetry_equiv_pos_as_xyz
 1  'x, y, z'
loop_
 _atom_site_type_symbol
 _atom_site_label
 _atom_site_symmetry_multiplicity
 _atom_site_fract_x
 _atom_site_fract_y
 _atom_site_fract_z
 _atom_site_fract_occupancy
 Ge  Ge1  1  0.25000  0.79416  0.89445  1
 Ge  Ge2  1  0.25000  0.29416  0.60555  1
 Ge  Ge3  1  0.75000  0.20584  0.10555  1
 Ge  Ge4  1  0.75000  0.70584  0.39445  1
 Ir  Ir1  1  0.25000  0.66640  0.57060  1
 Ir  Ir2  1  0.25000  0.16640  0.92940  1
 Ir  Ir3  1  0.75000  0.83360  0.07060  1
 Ir  Ir4  1  0.75000  0.33360  0.42940  1
 Tb  Tb1  1  0.75000  0.49843  0.80679  1
 Tb  Tb2  1  0.25000  0.00157  0.30679  1
 Tb  Tb3  1  0.75000  0.99843  0.69321  1
 Tb  Tb4  1  0.25000  0.50157  0.19321  1
