CIF file written using JARVIS-Tools package.
data_CoTc3
_symmetry_space_group_name_H-M  'P6_3/mmc'
_cell_length_a       5.36843
_cell_length_b       5.36843
_cell_length_c       4.29039
_cell_angle_alpha    90
_cell_angle_beta     90
_cell_angle_gamma    120

_symmetry_Int_Tables_number  194
_chemical_formula_structural  CoTc3
_chemical_formula_sum  Co2Tc6
_cell_volume  107.0834742923985
_cell_formula_units_Z  2
loop_
  _symmetry_equiv_pos_site_id
 _symmetry_equiv_pos_as_xyz
 1  'x, y, z'
loop_
 _atom_site_type_symbol
 _atom_site_label
 _atom_site_symmetry_multiplicity
 _atom_site_fract_x
 _atom_site_fract_y
 _atom_site_fract_z
 _atom_site_fract_occupancy
 Co  Co1  1  0.33333  0.66667  0.25000  1
 Co  Co2  1  0.66667  0.33333  0.75000  1
 Tc  Tc1  1  0.66600  0.83300  0.75000  1
 Tc  Tc2  1  0.16700  0.33400  0.75000  1
 Tc  Tc3  1  0.16700  0.83300  0.75000  1
 Tc  Tc4  1  0.33400  0.16700  0.25000  1
 Tc  Tc5  1  0.83300  0.66600  0.25000  1
 Tc  Tc6  1  0.83300  0.16700  0.25000  1
