CIF file written using JARVIS-Tools package.
data_PaO2
_symmetry_space_group_name_H-M  'P4_2/mnm'
_cell_length_a       5.18716
_cell_length_b       5.18716
_cell_length_c       3.64808
_cell_angle_alpha    90
_cell_angle_beta     90
_cell_angle_gamma    90

_symmetry_Int_Tables_number  136
_chemical_formula_structural  PaO2
_chemical_formula_sum  Pa2O4
_cell_volume  98.15742186900971
_cell_formula_units_Z  2
loop_
  _symmetry_equiv_pos_site_id
 _symmetry_equiv_pos_as_xyz
 1  'x, y, z'
loop_
 _atom_site_type_symbol
 _atom_site_label
 _atom_site_symmetry_multiplicity
 _atom_site_fract_x
 _atom_site_fract_y
 _atom_site_fract_z
 _atom_site_fract_occupancy
 O  O1  1  0.30853  0.30853  0.00000  1
 O  O2  1  0.69147  0.69147  0.00000  1
 O  O3  1  0.19147  0.80853  0.50000  1
 O  O4  1  0.80853  0.19147  0.50000  1
 Pa  Pa1  1  0.00000  0.00000  0.00000  1
 Pa  Pa2  1  0.50000  0.50000  0.50000  1
