CIF file written using JARVIS-Tools package.
data_SrSb12Ru4
_symmetry_space_group_name_H-M  'Im-3'
_cell_length_a       8.16931
_cell_length_b       8.16932
_cell_length_c       8.16931
_cell_angle_alpha    109.471
_cell_angle_beta     109.471
_cell_angle_gamma    109.471

_symmetry_Int_Tables_number  204
_chemical_formula_structural  SrSb12Ru4
_chemical_formula_sum  SrSb2Ru4
_cell_volume  419.6961518969821
_cell_formula_units_Z  1
loop_
  _symmetry_equiv_pos_site_id
 _symmetry_equiv_pos_as_xyz
 1  'x, y, z'
loop_
 _atom_site_type_symbol
 _atom_site_label
 _atom_site_symmetry_multiplicity
 _atom_site_fract_x
 _atom_site_fract_y
 _atom_site_fract_z
 _atom_site_fract_occupancy
 Ru  Ru1  1  0.50000  0.50000  0.50000  1
 Ru  Ru2  1  0.00000  0.00000  0.50000  1
 Ru  Ru3  1  0.50000  0.00000  -0.00000  1
 Ru  Ru4  1  -0.00000  0.50000  0.00000  1
 Sb  Sb1  1  0.65851  0.15855  0.81706  1
 Sb  Sb2  1  0.18294  0.34149  0.84145  1
 Sb  Sb3  1  0.34149  0.15855  0.50003  1
 Sb  Sb4  1  0.84145  0.49997  0.65851  1
 Sb  Sb5  1  0.15855  0.81706  0.65851  1
 Sb  Sb6  1  0.49997  0.65851  0.84145  1
 Sb  Sb7  1  0.84145  0.18294  0.34149  1
 Sb  Sb8  1  0.81706  0.65851  0.15855  1
 Sb  Sb9  1  0.50003  0.34149  0.15855  1
 Sb  Sb10  1  0.15855  0.50003  0.34149  1
 Sb  Sb11  1  0.65851  0.84145  0.49997  1
 Sb  Sb12  1  0.34149  0.84145  0.18294  1
 Sr  Sr1  1  0.00000  0.00000  0.00000  1
