CIF file written using JARVIS-Tools package.
data_AlV2O4
_symmetry_space_group_name_H-M  'R-3m'
_cell_length_a       10.2604
_cell_length_b       5.72856
_cell_length_c       5.72856
_cell_angle_alpha    60
_cell_angle_beta     90
_cell_angle_gamma    106.21

_symmetry_Int_Tables_number  166
_chemical_formula_structural  AlV2O4
_chemical_formula_sum  Al4V8O6
_cell_volume  276.0334080040535
_cell_formula_units_Z  4
loop_
  _symmetry_equiv_pos_site_id
 _symmetry_equiv_pos_as_xyz
 1  'x, y, z'
loop_
 _atom_site_type_symbol
 _atom_site_label
 _atom_site_symmetry_multiplicity
 _atom_site_fract_x
 _atom_site_fract_y
 _atom_site_fract_z
 _atom_site_fract_occupancy
 Al  Al1  1  0.54473  0.36315  0.81842  1
 Al  Al2  1  0.45527  0.63685  0.18158  1
 Al  Al3  1  0.92231  0.61487  0.69256  1
 Al  Al4  1  0.07769  0.38513  0.30744  1
 O  O1  1  0.36196  0.24130  0.87935  1
 O  O2  1  0.86418  0.23673  0.88164  1
 O  O3  1  0.10588  0.73725  0.63137  1
 O  O4  1  0.89412  0.26275  0.36863  1
 O  O5  1  0.61727  0.24752  0.12223  1
 O  O6  1  0.38273  0.75248  0.87777  1
 O  O7  1  0.63804  0.75870  0.12065  1
 O  O8  1  0.38273  0.75248  0.36975  1
 O  O9  1  0.38273  0.26050  0.36975  1
 O  O10  1  0.86418  0.74581  0.37255  1
 O  O11  1  0.13582  0.25419  0.62745  1
 O  O12  1  0.13582  0.25419  0.11836  1
 O  O13  1  0.61727  0.24752  0.63025  1
 O  O14  1  0.61727  0.73950  0.63025  1
 O  O15  1  0.86418  0.74581  0.88164  1
 O  O16  1  0.13582  0.76327  0.11836  1
 V  V1  1  0.74875  0.02172  0.70530  1
 V  V2  1  0.00000  0.00000  0.00000  1
 V  V3  1  0.50000  0.00000  0.50000  1
 V  V4  1  0.25125  0.97828  0.29470  1
 V  V5  1  0.74875  0.02172  0.27297  1
 V  V6  1  0.25125  0.97828  0.72703  1
 V  V7  1  0.25125  0.54595  0.72703  1
 V  V8  1  0.74875  0.45405  0.27297  1
