CIF file written using JARVIS-Tools package.
data_BaBi2Pd2
_symmetry_space_group_name_H-M  'P2_1/m'
_cell_length_a       5.01038
_cell_length_b       4.92927
_cell_length_c       10.9668
_cell_angle_alpha    90
_cell_angle_beta     91.295
_cell_angle_gamma    90

_symmetry_Int_Tables_number  11
_chemical_formula_structural  BaBi2Pd2
_chemical_formula_sum  Ba2Bi4Pd4
_cell_volume  270.7825785550662
_cell_formula_units_Z  2
loop_
  _symmetry_equiv_pos_site_id
 _symmetry_equiv_pos_as_xyz
 1  'x, y, z'
loop_
 _atom_site_type_symbol
 _atom_site_label
 _atom_site_symmetry_multiplicity
 _atom_site_fract_x
 _atom_site_fract_y
 _atom_site_fract_z
 _atom_site_fract_occupancy
 Ba  Ba1  1  0.25958  0.75000  0.75910  1
 Ba  Ba2  1  0.74042  0.25000  0.24090  1
 Bi  Bi1  1  0.21082  0.75000  0.11912  1
 Bi  Bi2  1  0.24815  0.25000  0.50148  1
 Bi  Bi3  1  0.75185  0.75000  0.49852  1
 Bi  Bi4  1  0.78918  0.25000  0.88088  1
 Pd  Pd1  1  0.75154  0.25000  0.62648  1
 Pd  Pd2  1  0.30650  0.25000  0.00114  1
 Pd  Pd3  1  0.24846  0.75000  0.37352  1
 Pd  Pd4  1  0.69350  0.75000  0.99886  1
