CIF file written using JARVIS-Tools package.
data_Ta2MoO8
_symmetry_space_group_name_H-M  'C2/c'
_cell_length_a       5.06419
_cell_length_b       5.9365
_cell_length_c       10.0455
_cell_angle_alpha    107.177
_cell_angle_beta     90.2197
_cell_angle_gamma    89.9886

_symmetry_Int_Tables_number  15
_chemical_formula_structural  Ta2MoO8
_chemical_formula_sum  Ta4Mo2O6
_cell_volume  288.5304364924338
_cell_formula_units_Z  2
loop_
  _symmetry_equiv_pos_site_id
 _symmetry_equiv_pos_as_xyz
 1  'x, y, z'
loop_
 _atom_site_type_symbol
 _atom_site_label
 _atom_site_symmetry_multiplicity
 _atom_site_fract_x
 _atom_site_fract_y
 _atom_site_fract_z
 _atom_site_fract_occupancy
 Mo  Mo1  1  0.74979  0.66824  0.99954  1
 Mo  Mo2  1  0.24972  0.32886  0.99995  1
 O  O1  1  0.07960  0.92102  0.66173  1
 O  O2  1  0.08039  0.21017  0.11845  1
 O  O3  1  0.41890  0.09204  0.88096  1
 O  O4  1  0.91912  0.78694  0.88104  1
 O  O5  1  0.58061  0.90505  0.11853  1
 O  O6  1  0.91990  0.07608  0.33776  1
 O  O7  1  0.92955  0.33007  0.89161  1
 O  O8  1  0.56953  0.43795  0.10804  1
 O  O9  1  0.06995  0.66704  0.10788  1
 O  O10  1  0.57972  0.73869  0.66176  1
 O  O11  1  0.42997  0.55915  0.89145  1
 O  O12  1  0.38062  0.79436  0.38518  1
 O  O13  1  0.11893  0.40959  0.61438  1
 O  O14  1  0.61888  0.20275  0.61431  1
 O  O15  1  0.88057  0.58752  0.38511  1
 O  O16  1  0.41979  0.25842  0.33773  1
 Ta  Ta1  1  0.25610  0.94906  0.27698  1
 Ta  Ta2  1  0.24351  0.67246  0.72248  1
 Ta  Ta3  1  0.74340  0.04804  0.72252  1
 Ta  Ta4  1  0.75600  0.32464  0.27701  1
