CIF file written using JARVIS-Tools package.
data_HfGa2Co
_symmetry_space_group_name_H-M  'I4mm'
_cell_length_a       8.09055
_cell_length_b       9.54758
_cell_length_c       9.54757
_cell_angle_alpha    79.6583
_cell_angle_beta     64.9318
_cell_angle_gamma    64.9318

_symmetry_Int_Tables_number  107
_chemical_formula_structural  HfGa2Co
_chemical_formula_sum  Hf0Ga20Co0
_cell_volume  605.1080257275091
_cell_formula_units_Z  10
loop_
  _symmetry_equiv_pos_site_id
 _symmetry_equiv_pos_as_xyz
 1  'x, y, z'
loop_
 _atom_site_type_symbol
 _atom_site_label
 _atom_site_symmetry_multiplicity
 _atom_site_fract_x
 _atom_site_fract_y
 _atom_site_fract_z
 _atom_site_fract_occupancy
 Co  Co1  1  0.81937  -0.00000  0.32519  1
 Co  Co2  1  0.89935  0.50000  0.50000  1
 Co  Co3  1  0.39935  0.50000  0.50000  1
 Co  Co4  1  0.14456  -0.00000  0.67481  1
 Co  Co5  1  0.81937  0.32519  0.00000  1
 Co  Co6  1  0.14456  0.67481  0.00000  1
 Co  Co7  1  0.27324  0.21570  0.21570  1
 Co  Co8  1  0.48894  0.78430  0.21570  1
 Co  Co9  1  0.70463  0.78430  0.78430  1
 Co  Co10  1  0.48894  0.21570  0.78430  1
 Ga  Ga1  1  0.16057  0.26090  -0.00000  1
 Ga  Ga2  1  0.79856  0.83868  0.16132  1
 Ga  Ga3  1  0.63724  0.16132  0.16132  1
 Ga  Ga4  1  0.03325  0.61588  0.61588  1
 Ga  Ga5  1  0.64913  0.38412  0.61588  1
 Ga  Ga6  1  0.42147  0.00000  0.73910  1
 Ga  Ga7  1  0.64913  0.61588  0.38412  1
 Ga  Ga8  1  0.26500  0.38412  0.38412  1
 Ga  Ga9  1  0.16057  0.00000  0.26090  1
 Ga  Ga10  1  0.42147  0.73910  0.00000  1
 Ga  Ga11  1  0.79856  0.16132  0.83868  1
 Ga  Ga12  1  0.24586  0.78937  0.49189  1
 Ga  Ga13  1  0.03523  0.49189  0.21063  1
 Ga  Ga14  1  0.24586  0.49189  0.78937  1
 Ga  Ga15  1  0.52712  0.50811  0.21063  1
 Ga  Ga16  1  0.73775  0.78937  0.50811  1
 Ga  Ga17  1  0.03523  0.21063  0.49189  1
 Ga  Ga18  1  0.95988  0.83868  0.83868  1
 Ga  Ga19  1  0.73775  0.50811  0.78937  1
 Ga  Ga20  1  0.52712  0.21063  0.50811  1
 Hf  Hf1  1  0.51786  0.00000  -0.00000  1
 Hf  Hf2  1  0.05411  -0.00000  0.00000  1
 Hf  Hf3  1  0.83639  -0.00000  0.59922  1
 Hf  Hf4  1  0.43562  0.40078  0.00000  1
 Hf  Hf5  1  0.12389  0.71977  0.28023  1
 Hf  Hf6  1  0.43562  -0.00000  0.40078  1
 Hf  Hf7  1  0.84366  0.28023  0.28023  1
 Hf  Hf8  1  0.83639  0.59922  0.00000  1
 Hf  Hf9  1  0.12389  0.28023  0.71977  1
 Hf  Hf10  1  0.40411  0.71977  0.71977  1
