CIF file written using JARVIS-Tools package.
data_Te2MoWSe2
_symmetry_space_group_name_H-M  'P3m1'
_cell_length_a       3.44412
_cell_length_b       3.44412
_cell_length_c       37.4211
_cell_angle_alpha    90.0006
_cell_angle_beta     89.9997
_cell_angle_gamma    120

_symmetry_Int_Tables_number  156
_chemical_formula_structural  Te2MoWSe2
_chemical_formula_sum  Te4Mo2W2Se4
_cell_volume  384.4161964887456
_cell_formula_units_Z  2
loop_
  _symmetry_equiv_pos_site_id
 _symmetry_equiv_pos_as_xyz
 1  'x, y, z'
loop_
 _atom_site_type_symbol
 _atom_site_label
 _atom_site_symmetry_multiplicity
 _atom_site_fract_x
 _atom_site_fract_y
 _atom_site_fract_z
 _atom_site_fract_occupancy
 Mo  Mo1  1  0.33333  0.66663  0.09523  1
 Mo  Mo2  1  0.33333  0.66671  0.47265  1
 Se  Se1  1  0.33334  0.66670  0.70043  1
 Se  Se2  1  0.66667  0.33329  0.05158  1
 Se  Se3  1  0.66666  0.33330  0.13896  1
 Se  Se4  1  0.33334  0.66669  0.61270  1
 Te  Te1  1  0.33332  0.66664  0.32838  1
 Te  Te2  1  0.66666  0.33336  0.42296  1
 Te  Te3  1  0.66667  0.33338  0.52233  1
 Te  Te4  1  0.33333  0.66664  0.22850  1
 W  W1  1  0.66666  0.33331  0.27843  1
 W  W2  1  0.66668  0.33336  0.65660  1
