CIF file written using JARVIS-Tools package.
data_AlGa3N4
_symmetry_space_group_name_H-M  'P-43m'
_cell_length_a       4.50631
_cell_length_b       4.50631
_cell_length_c       4.50631
_cell_angle_alpha    90
_cell_angle_beta     90
_cell_angle_gamma    90

_symmetry_Int_Tables_number  215
_chemical_formula_structural  AlGa3N4
_chemical_formula_sum  AlGa3N4
_cell_volume  91.50884483172531
_cell_formula_units_Z  1
loop_
  _symmetry_equiv_pos_site_id
 _symmetry_equiv_pos_as_xyz
 1  'x, y, z'
loop_
 _atom_site_type_symbol
 _atom_site_label
 _atom_site_symmetry_multiplicity
 _atom_site_fract_x
 _atom_site_fract_y
 _atom_site_fract_z
 _atom_site_fract_occupancy
 Al  Al1  1  0.00000  0.00000  0.00000  1
 Ga  Ga1  1  0.50000  0.50000  0.00000  1
 Ga  Ga2  1  0.50000  0.00000  0.50000  1
 Ga  Ga3  1  0.00000  0.50000  0.50000  1
 N  N1  1  0.75580  0.75580  0.24420  1
 N  N2  1  0.75580  0.24420  0.75580  1
 N  N3  1  0.24420  0.75580  0.75580  1
 N  N4  1  0.24420  0.24420  0.24420  1
