CIF file written using JARVIS-Tools package.
data_TmAlCu
_symmetry_space_group_name_H-M  'P-62m'
_cell_length_a       6.95864
_cell_length_b       6.95864
_cell_length_c       3.97075
_cell_angle_alpha    90
_cell_angle_beta     90
_cell_angle_gamma    120

_symmetry_Int_Tables_number  189
_chemical_formula_structural  TmAlCu
_chemical_formula_sum  Tm3Al3Cu3
_cell_volume  166.51464888942672
_cell_formula_units_Z  3
loop_
  _symmetry_equiv_pos_site_id
 _symmetry_equiv_pos_as_xyz
 1  'x, y, z'
loop_
 _atom_site_type_symbol
 _atom_site_label
 _atom_site_symmetry_multiplicity
 _atom_site_fract_x
 _atom_site_fract_y
 _atom_site_fract_z
 _atom_site_fract_occupancy
 Al  Al1  1  0.23836  0.23836  0.00000  1
 Al  Al2  1  0.00000  0.76164  0.00000  1
 Al  Al3  1  0.76164  0.00000  0.00000  1
 Cu  Cu1  1  0.00000  0.00000  0.50000  1
 Cu  Cu2  1  0.33333  0.66667  0.00000  1
 Cu  Cu3  1  0.66667  0.33333  0.00000  1
 Tm  Tm1  1  0.58536  0.58536  0.50000  1
 Tm  Tm2  1  -0.00000  0.41464  0.50000  1
 Tm  Tm3  1  0.41464  -0.00000  0.50000  1
