CIF file written using JARVIS-Tools package.
data_SmMnB4
_symmetry_space_group_name_H-M  'Pbam'
_cell_length_a       3.49743
_cell_length_b       5.95753
_cell_length_c       11.5244
_cell_angle_alpha    90
_cell_angle_beta     90
_cell_angle_gamma    90

_symmetry_Int_Tables_number  55
_chemical_formula_structural  SmMnB4
_chemical_formula_sum  Sm4Mn4B6
_cell_volume  240.12204881196485
_cell_formula_units_Z  4
loop_
  _symmetry_equiv_pos_site_id
 _symmetry_equiv_pos_as_xyz
 1  'x, y, z'
loop_
 _atom_site_type_symbol
 _atom_site_label
 _atom_site_symmetry_multiplicity
 _atom_site_fract_x
 _atom_site_fract_y
 _atom_site_fract_z
 _atom_site_fract_occupancy
 B  B1  1  0.50000  0.77724  0.18199  1
 B  B2  1  0.50000  0.02458  0.68884  1
 B  B3  1  0.50000  0.97542  0.31116  1
 B  B4  1  0.50000  0.52458  0.81116  1
 B  B5  1  0.50000  0.85836  0.03276  1
 B  B6  1  0.50000  0.38863  0.04557  1
 B  B7  1  0.50000  0.61137  0.95443  1
 B  B8  1  0.50000  0.47542  0.18884  1
 B  B9  1  0.50000  0.11137  0.54557  1
 B  B10  1  0.50000  0.27724  0.31801  1
 B  B11  1  0.50000  0.72276  0.68199  1
 B  B12  1  0.50000  0.14164  0.96724  1
 B  B13  1  0.50000  0.22276  0.81801  1
 B  B14  1  0.50000  0.35836  0.46724  1
 B  B15  1  0.50000  0.64164  0.53276  1
 B  B16  1  0.50000  0.88863  0.45443  1
 Mn  Mn1  1  0.00000  0.12357  0.41817  1
 Mn  Mn2  1  0.00000  0.87643  0.58183  1
 Mn  Mn3  1  0.00000  0.62357  0.08183  1
 Mn  Mn4  1  0.00000  0.37643  0.91817  1
 Sm  Sm1  1  0.00000  0.12351  0.15105  1
 Sm  Sm2  1  0.00000  0.87649  0.84895  1
 Sm  Sm3  1  0.00000  0.62351  0.34895  1
 Sm  Sm4  1  0.00000  0.37649  0.65105  1
