CIF file written using JARVIS-Tools package.
data_CaBPO5
_symmetry_space_group_name_H-M  'P3_121'
_cell_length_a       6.64532
_cell_length_b       6.64532
_cell_length_c       6.7561
_cell_angle_alpha    90
_cell_angle_beta     90
_cell_angle_gamma    120

_symmetry_Int_Tables_number  152
_chemical_formula_structural  CaBPO5
_chemical_formula_sum  Ca3B3P3O5
_cell_volume  258.3797944286774
_cell_formula_units_Z  3
loop_
  _symmetry_equiv_pos_site_id
 _symmetry_equiv_pos_as_xyz
 1  'x, y, z'
loop_
 _atom_site_type_symbol
 _atom_site_label
 _atom_site_symmetry_multiplicity
 _atom_site_fract_x
 _atom_site_fract_y
 _atom_site_fract_z
 _atom_site_fract_occupancy
 B  B1  1  0.89722  0.89722  0.50000  1
 B  B2  1  0.00000  0.10278  0.16667  1
 B  B3  1  0.10278  0.00000  0.83333  1
 Ca  Ca1  1  0.00000  0.60074  0.16667  1
 Ca  Ca2  1  0.60074  0.00000  0.83333  1
 Ca  Ca3  1  0.39926  0.39926  0.50000  1
 O  O1  1  0.00000  0.04764  0.66667  1
 O  O2  1  0.95236  0.95236  0.00000  1
 O  O3  1  0.53168  0.13609  0.48721  1
 O  O4  1  0.46832  0.60440  0.84612  1
 O  O5  1  0.39560  0.86391  0.17946  1
 O  O6  1  0.13609  0.53168  0.51279  1
 O  O7  1  0.04764  0.00000  0.33333  1
 O  O8  1  0.80740  0.15874  0.20725  1
 O  O9  1  0.64866  0.84126  0.45942  1
 O  O10  1  0.15874  0.80740  0.79275  1
 O  O11  1  0.35134  0.19260  0.87391  1
 O  O12  1  0.19260  0.35134  0.12609  1
 O  O13  1  0.60440  0.46832  0.15388  1
 O  O14  1  0.84126  0.64866  0.54058  1
 O  O15  1  0.86391  0.39560  0.82054  1
 P  P1  1  0.42016  0.42016  0.00000  1
 P  P2  1  0.57984  0.00000  0.33333  1
 P  P3  1  0.00000  0.57984  0.66667  1
