CIF file written using JARVIS-Tools package.
data_Ba3Sn5
_symmetry_space_group_name_H-M  'Cmcm'
_cell_length_a       7.16775
_cell_length_b       7.16774
_cell_length_c       11.2294
_cell_angle_alpha    90
_cell_angle_beta     90
_cell_angle_gamma    101.433

_symmetry_Int_Tables_number  63
_chemical_formula_structural  Ba3Sn5
_chemical_formula_sum  Ba6Sn0
_cell_volume  565.4800927672134
_cell_formula_units_Z  2
loop_
  _symmetry_equiv_pos_site_id
 _symmetry_equiv_pos_as_xyz
 1  'x, y, z'
loop_
 _atom_site_type_symbol
 _atom_site_label
 _atom_site_symmetry_multiplicity
 _atom_site_fract_x
 _atom_site_fract_y
 _atom_site_fract_z
 _atom_site_fract_occupancy
 Ba  Ba1  1  0.70635  0.29365  0.50000  1
 Ba  Ba2  1  0.29365  0.70635  0.00000  1
 Ba  Ba3  1  0.29365  0.70635  0.50000  1
 Ba  Ba4  1  0.70635  0.29365  0.00000  1
 Ba  Ba5  1  0.85370  0.85370  0.75000  1
 Ba  Ba6  1  0.14630  0.14630  0.25000  1
 Sn  Sn1  1  0.80479  0.80479  0.44032  1
 Sn  Sn2  1  0.19521  0.19521  0.94032  1
 Sn  Sn3  1  0.80479  0.80479  0.05968  1
 Sn  Sn4  1  0.19521  0.19521  0.55968  1
 Sn  Sn5  1  0.02015  0.40768  0.75000  1
 Sn  Sn6  1  0.97985  0.59232  0.25000  1
 Sn  Sn7  1  0.54725  0.54725  0.25000  1
 Sn  Sn8  1  0.45275  0.45275  0.75000  1
 Sn  Sn9  1  0.59232  0.97985  0.25000  1
 Sn  Sn10  1  0.40768  0.02015  0.75000  1
