CIF file written using JARVIS-Tools package.
data_LiBeB
_symmetry_space_group_name_H-M  'P2_1/m'
_cell_length_a       3.70593
_cell_length_b       2.99611
_cell_length_c       5.65326
_cell_angle_alpha    90
_cell_angle_beta     99.0115
_cell_angle_gamma    90

_symmetry_Int_Tables_number  11
_chemical_formula_structural  LiBeB
_chemical_formula_sum  Li2Be2B2
_cell_volume  61.99543712986734
_cell_formula_units_Z  2
loop_
  _symmetry_equiv_pos_site_id
 _symmetry_equiv_pos_as_xyz
 1  'x, y, z'
loop_
 _atom_site_type_symbol
 _atom_site_label
 _atom_site_symmetry_multiplicity
 _atom_site_fract_x
 _atom_site_fract_y
 _atom_site_fract_z
 _atom_site_fract_occupancy
 B  B1  1  0.88219  0.75000  0.97282  1
 B  B2  1  0.11781  0.25000  0.02718  1
 Be  Be1  1  0.35065  0.75000  0.88528  1
 Be  Be2  1  0.64935  0.25000  0.11472  1
 Li  Li1  1  0.22721  0.75000  0.34135  1
 Li  Li2  1  0.77279  0.25000  0.65865  1
