CIF file written using JARVIS-Tools package.
data_Na3UF8
_symmetry_space_group_name_H-M  'I4/mmm'
_cell_length_a       5.43188
_cell_length_b       5.43188
_cell_length_c       6.64078
_cell_angle_alpha    114.141
_cell_angle_beta     114.141
_cell_angle_gamma    90

_symmetry_Int_Tables_number  139
_chemical_formula_structural  Na3UF8
_chemical_formula_sum  Na3UF8
_cell_volume  159.83979034471662
_cell_formula_units_Z  1
loop_
  _symmetry_equiv_pos_site_id
 _symmetry_equiv_pos_as_xyz
 1  'x, y, z'
loop_
 _atom_site_type_symbol
 _atom_site_label
 _atom_site_symmetry_multiplicity
 _atom_site_fract_x
 _atom_site_fract_y
 _atom_site_fract_z
 _atom_site_fract_occupancy
 F  F1  1  0.35225  0.35225  0.23524  1
 F  F2  1  0.88299  0.35225  0.23524  1
 F  F3  1  0.35225  0.88299  0.23524  1
 F  F4  1  0.88299  0.88299  0.23524  1
 F  F5  1  0.11701  0.11701  0.76476  1
 F  F6  1  0.64775  0.11701  0.76476  1
 F  F7  1  0.11701  0.64775  0.76476  1
 F  F8  1  0.64775  0.64775  0.76476  1
 Na  Na1  1  0.50000  0.50000  0.00000  1
 Na  Na2  1  0.75000  0.25000  0.50000  1
 Na  Na3  1  0.25000  0.75000  0.50000  1
 U  U1  1  0.00000  0.00000  0.00000  1
