CIF file written using JARVIS-Tools package.
data_Nb3Fe20B6
_symmetry_space_group_name_H-M  'Fm-3m'
_cell_length_a       7.4558
_cell_length_b       7.4558
_cell_length_c       7.45579
_cell_angle_alpha    60
_cell_angle_beta     60
_cell_angle_gamma    60

_symmetry_Int_Tables_number  225
_chemical_formula_structural  Nb3Fe20B6
_chemical_formula_sum  Nb3Fe20B6
_cell_volume  293.0665952717902
_cell_formula_units_Z  1
loop_
  _symmetry_equiv_pos_site_id
 _symmetry_equiv_pos_as_xyz
 1  'x, y, z'
loop_
 _atom_site_type_symbol
 _atom_site_label
 _atom_site_symmetry_multiplicity
 _atom_site_fract_x
 _atom_site_fract_y
 _atom_site_fract_z
 _atom_site_fract_occupancy
 B  B1  1  0.73160  0.26840  0.26840  1
 B  B2  1  0.26840  0.73160  0.26840  1
 B  B3  1  0.73160  0.26840  0.73160  1
 B  B4  1  0.73160  0.73160  0.26840  1
 B  B5  1  0.26840  0.26840  0.73160  1
 B  B6  1  0.26840  0.73160  0.73160  1
 Fe  Fe1  1  0.84777  0.38408  0.38408  1
 Fe  Fe2  1  0.65338  -0.00000  -0.00000  1
 Fe  Fe3  1  0.65338  -0.00000  0.34662  1
 Fe  Fe4  1  0.00000  0.00000  0.65338  1
 Fe  Fe5  1  0.38408  0.38408  0.38408  1
 Fe  Fe6  1  0.61592  0.61592  0.15223  1
 Fe  Fe7  1  0.15223  0.61592  0.61592  1
 Fe  Fe8  1  0.61592  0.15223  0.61592  1
 Fe  Fe9  1  0.38408  0.84777  0.38408  1
 Fe  Fe10  1  0.61592  0.61592  0.61592  1
 Fe  Fe11  1  0.34662  0.00000  0.00000  1
 Fe  Fe12  1  0.00000  0.00000  0.34662  1
 Fe  Fe13  1  0.34662  0.65338  0.00000  1
 Fe  Fe14  1  0.00000  0.34662  0.65338  1
 Fe  Fe15  1  -0.00000  0.65338  0.34662  1
 Fe  Fe16  1  0.00000  0.34662  -0.00000  1
 Fe  Fe17  1  0.34662  0.00000  0.65338  1
 Fe  Fe18  1  0.65338  0.34662  -0.00000  1
 Fe  Fe19  1  -0.00000  0.65338  0.00000  1
 Fe  Fe20  1  0.38408  0.38408  0.84777  1
 Nb  Nb1  1  0.25000  0.25000  0.25000  1
 Nb  Nb2  1  0.75000  0.75000  0.75000  1
 Nb  Nb3  1  0.00000  0.00000  0.00000  1
