CIF file written using JARVIS-Tools package.
data_Ba3P6N8O6
_symmetry_space_group_name_H-M  'P-3'
_cell_length_a       7.44912
_cell_length_b       7.44912
_cell_length_c       6.36929
_cell_angle_alpha    90
_cell_angle_beta     90
_cell_angle_gamma    120

_symmetry_Int_Tables_number  147
_chemical_formula_structural  Ba3P6N8O6
_chemical_formula_sum  Ba3P6N8O6
_cell_volume  306.0783832441063
_cell_formula_units_Z  1
loop_
  _symmetry_equiv_pos_site_id
 _symmetry_equiv_pos_as_xyz
 1  'x, y, z'
loop_
 _atom_site_type_symbol
 _atom_site_label
 _atom_site_symmetry_multiplicity
 _atom_site_fract_x
 _atom_site_fract_y
 _atom_site_fract_z
 _atom_site_fract_occupancy
 Ba  Ba1  1  0.33333  0.66667  0.61492  1
 Ba  Ba2  1  0.66667  0.33333  0.38508  1
 Ba  Ba3  1  0.00000  0.00000  0.50000  1
 N  N1  1  0.67199  0.69475  0.90181  1
 N  N2  1  0.33333  0.66667  0.07262  1
 N  N3  1  0.66667  0.33333  0.92738  1
 N  N4  1  0.30525  0.97724  0.90181  1
 N  N5  1  0.02276  0.32801  0.90181  1
 N  N6  1  0.32801  0.30525  0.09819  1
 N  N7  1  0.69475  0.02276  0.09819  1
 N  N8  1  0.97724  0.67199  0.09819  1
 O  O1  1  0.70803  0.07613  0.67856  1
 O  O2  1  0.36811  0.29197  0.67856  1
 O  O3  1  0.29197  0.92387  0.32144  1
 O  O4  1  0.63189  0.70803  0.32144  1
 O  O5  1  0.07613  0.36811  0.32144  1
 O  O6  1  0.92387  0.63189  0.67856  1
 P  P1  1  0.82413  0.60002  0.89713  1
 P  P2  1  0.39998  0.22411  0.89713  1
 P  P3  1  0.77589  0.17587  0.89713  1
 P  P4  1  0.17587  0.39998  0.10287  1
 P  P5  1  0.60002  0.77589  0.10287  1
 P  P6  1  0.22411  0.82413  0.10287  1
