CIF file written using JARVIS-Tools package.
data_Fe7C3
_symmetry_space_group_name_H-M  'P6_3mc'
_cell_length_a       6.81634
_cell_length_b       6.81634
_cell_length_c       4.48289
_cell_angle_alpha    90
_cell_angle_beta     90
_cell_angle_gamma    120

_symmetry_Int_Tables_number  186
_chemical_formula_structural  Fe7C3
_chemical_formula_sum  Fe4C6
_cell_volume  180.38080748315366
_cell_formula_units_Z  2
loop_
  _symmetry_equiv_pos_site_id
 _symmetry_equiv_pos_as_xyz
 1  'x, y, z'
loop_
 _atom_site_type_symbol
 _atom_site_label
 _atom_site_symmetry_multiplicity
 _atom_site_fract_x
 _atom_site_fract_y
 _atom_site_fract_z
 _atom_site_fract_occupancy
 C  C1  1  0.18680  0.81320  0.40578  1
 C  C2  1  0.62639  0.81320  0.40578  1
 C  C3  1  0.18680  0.37361  0.40578  1
 C  C4  1  0.81320  0.18680  0.90578  1
 C  C5  1  0.81320  0.62639  0.90578  1
 C  C6  1  0.37361  0.18680  0.90578  1
 Fe  Fe1  1  0.12281  0.24562  0.01073  1
 Fe  Fe2  1  0.54554  0.45446  0.18335  1
 Fe  Fe3  1  0.12281  0.87719  0.01073  1
 Fe  Fe4  1  0.87719  0.75438  0.51073  1
 Fe  Fe5  1  0.45446  0.90892  0.68335  1
 Fe  Fe6  1  0.90892  0.45446  0.18335  1
 Fe  Fe7  1  0.87719  0.12281  0.51073  1
 Fe  Fe8  1  0.09108  0.54554  0.68335  1
 Fe  Fe9  1  0.54554  0.09108  0.18335  1
 Fe  Fe10  1  0.45446  0.54554  0.68335  1
 Fe  Fe11  1  0.66667  0.33333  0.68840  1
 Fe  Fe12  1  0.33333  0.66667  0.18840  1
 Fe  Fe13  1  0.75438  0.87719  0.01073  1
 Fe  Fe14  1  0.24562  0.12281  0.51073  1
