CIF file written using JARVIS-Tools package.
data_Al2Mo3C
_symmetry_space_group_name_H-M  'P4_132'
_cell_length_a       6.89346
_cell_length_b       6.89346
_cell_length_c       6.89346
_cell_angle_alpha    90
_cell_angle_beta     90
_cell_angle_gamma    90

_symmetry_Int_Tables_number  213
_chemical_formula_structural  Al2Mo3C
_chemical_formula_sum  Al8Mo2C4
_cell_volume  327.5751401435634
_cell_formula_units_Z  4
loop_
  _symmetry_equiv_pos_site_id
 _symmetry_equiv_pos_as_xyz
 1  'x, y, z'
loop_
 _atom_site_type_symbol
 _atom_site_label
 _atom_site_symmetry_multiplicity
 _atom_site_fract_x
 _atom_site_fract_y
 _atom_site_fract_z
 _atom_site_fract_occupancy
 Al  Al1  1  0.56651  0.43349  0.93349  1
 Al  Al2  1  0.68349  0.68349  0.68349  1
 Al  Al3  1  0.93349  0.56651  0.43349  1
 Al  Al4  1  0.43349  0.93349  0.56651  1
 Al  Al5  1  0.18349  0.81651  0.31651  1
 Al  Al6  1  0.81651  0.31651  0.18349  1
 Al  Al7  1  0.31651  0.18349  0.81651  1
 Al  Al8  1  0.06651  0.06651  0.06651  1
 C  C1  1  0.87500  0.12500  0.62500  1
 C  C2  1  0.62500  0.87500  0.12500  1
 C  C3  1  0.12500  0.62500  0.87500  1
 C  C4  1  0.37500  0.37500  0.37500  1
 Mo  Mo1  1  0.79815  0.95185  0.37500  1
 Mo  Mo2  1  0.04815  0.87500  0.70185  1
 Mo  Mo3  1  0.95185  0.37500  0.79815  1
 Mo  Mo4  1  0.29815  0.54815  0.62500  1
 Mo  Mo5  1  0.54815  0.62500  0.29815  1
 Mo  Mo6  1  0.70185  0.04815  0.87500  1
 Mo  Mo7  1  0.62500  0.29815  0.54815  1
 Mo  Mo8  1  0.45185  0.12500  0.20185  1
 Mo  Mo9  1  0.37500  0.79815  0.95185  1
 Mo  Mo10  1  0.12500  0.20185  0.45185  1
 Mo  Mo11  1  0.87500  0.70185  0.04815  1
 Mo  Mo12  1  0.20185  0.45185  0.12500  1
