CIF file written using JARVIS-Tools package.
data_Ba3Ca2Si2N6
_symmetry_space_group_name_H-M  'C2/c'
_cell_length_a       6.11566
_cell_length_b       6.11566
_cell_length_c       13.4123
_cell_angle_alpha    80.2567
_cell_angle_beta     80.2567
_cell_angle_gamma    68.2297

_symmetry_Int_Tables_number  15
_chemical_formula_structural  Ba3Ca2Si2N6
_chemical_formula_sum  Ba6Ca4Si4N2
_cell_volume  456.0233973545296
_cell_formula_units_Z  2
loop_
  _symmetry_equiv_pos_site_id
 _symmetry_equiv_pos_as_xyz
 1  'x, y, z'
loop_
 _atom_site_type_symbol
 _atom_site_label
 _atom_site_symmetry_multiplicity
 _atom_site_fract_x
 _atom_site_fract_y
 _atom_site_fract_z
 _atom_site_fract_occupancy
 Ba  Ba1  1  0.40447  0.59553  0.25000  1
 Ba  Ba2  1  0.59553  0.40447  0.75000  1
 Ba  Ba3  1  0.79858  0.32328  0.00706  1
 Ba  Ba4  1  0.67672  0.20142  0.49294  1
 Ba  Ba5  1  0.20142  0.67672  0.99294  1
 Ba  Ba6  1  0.32328  0.79858  0.50706  1
 Ca  Ca1  1  0.21134  0.09171  0.78225  1
 Ca  Ca2  1  0.90829  0.78866  0.71775  1
 Ca  Ca3  1  0.09171  0.21134  0.28225  1
 Ca  Ca4  1  0.78866  0.90829  0.21775  1
 N  N1  1  0.89020  0.98379  0.86971  1
 N  N2  1  0.77228  0.56319  0.33847  1
 N  N3  1  0.37701  0.19748  0.94647  1
 N  N4  1  0.80252  0.62299  0.55353  1
 N  N5  1  0.62299  0.80252  0.05353  1
 N  N6  1  0.19748  0.37701  0.44647  1
 N  N7  1  0.01621  0.10980  0.63029  1
 N  N8  1  0.56319  0.77228  0.83847  1
 N  N9  1  0.98379  0.89020  0.36971  1
 N  N10  1  0.22772  0.43681  0.66153  1
 N  N11  1  0.43681  0.22772  0.16153  1
 N  N12  1  0.10980  0.01621  0.13029  1
 Si  Si1  1  0.36968  0.07163  0.07996  1
 Si  Si2  1  0.07163  0.36968  0.57996  1
 Si  Si3  1  0.63032  0.92837  0.92004  1
 Si  Si4  1  0.92837  0.63032  0.42004  1
