CIF file written using JARVIS-Tools package.
data_In3Rh
_symmetry_space_group_name_H-M  'P4_2/mnm'
_cell_length_a       7.09832
_cell_length_b       7.09832
_cell_length_c       7.26354
_cell_angle_alpha    90
_cell_angle_beta     90
_cell_angle_gamma    90

_symmetry_Int_Tables_number  136
_chemical_formula_structural  In3Rh
_chemical_formula_sum  In2Rh4
_cell_volume  365.9818940222004
_cell_formula_units_Z  4
loop_
  _symmetry_equiv_pos_site_id
 _symmetry_equiv_pos_as_xyz
 1  'x, y, z'
loop_
 _atom_site_type_symbol
 _atom_site_label
 _atom_site_symmetry_multiplicity
 _atom_site_fract_x
 _atom_site_fract_y
 _atom_site_fract_z
 _atom_site_fract_occupancy
 In  In1  1  0.00000  0.50000  0.00000  1
 In  In2  1  0.00000  0.50000  0.50000  1
 In  In3  1  0.50000  0.00000  0.50000  1
 In  In4  1  0.50000  0.00000  0.00000  1
 In  In5  1  0.15098  0.15098  0.25673  1
 In  In6  1  0.34902  0.65098  0.75673  1
 In  In7  1  0.65098  0.34902  0.75673  1
 In  In8  1  0.65098  0.34902  0.24327  1
 In  In9  1  0.34902  0.65098  0.24327  1
 In  In10  1  0.84902  0.84902  0.25673  1
 In  In11  1  0.15098  0.15098  0.74327  1
 In  In12  1  0.84902  0.84902  0.74327  1
 Rh  Rh1  1  0.34378  0.34378  0.00000  1
 Rh  Rh2  1  0.15622  0.84378  0.50000  1
 Rh  Rh3  1  0.84378  0.15622  0.50000  1
 Rh  Rh4  1  0.65622  0.65622  0.00000  1
