CIF file written using JARVIS-Tools package.
data_RbEr3F10
_symmetry_space_group_name_H-M  'P6_3mc'
_cell_length_a       8.14198
_cell_length_b       8.14198
_cell_length_c       13.2899
_cell_angle_alpha    90
_cell_angle_beta     90
_cell_angle_gamma    120

_symmetry_Int_Tables_number  186
_chemical_formula_structural  RbEr3F10
_chemical_formula_sum  Rb4Er2F40
_cell_volume  762.9794053756591
_cell_formula_units_Z  4
loop_
  _symmetry_equiv_pos_site_id
 _symmetry_equiv_pos_as_xyz
 1  'x, y, z'
loop_
 _atom_site_type_symbol
 _atom_site_label
 _atom_site_symmetry_multiplicity
 _atom_site_fract_x
 _atom_site_fract_y
 _atom_site_fract_z
 _atom_site_fract_occupancy
 Er  Er1  1  0.01196  0.50598  0.01308  1
 Er  Er2  1  0.82572  0.65145  0.75249  1
 Er  Er3  1  0.65145  0.82572  0.25249  1
 Er  Er4  1  0.50598  0.49402  0.51308  1
 Er  Er5  1  0.98804  0.49402  0.51308  1
 Er  Er6  1  0.34855  0.17428  0.75249  1
 Er  Er7  1  0.17428  0.34855  0.25249  1
 Er  Er8  1  0.17428  0.82572  0.25249  1
 Er  Er9  1  0.49402  0.50598  0.01308  1
 Er  Er10  1  0.49402  0.98804  0.01308  1
 Er  Er11  1  0.50598  0.01196  0.51308  1
 Er  Er12  1  0.82572  0.17428  0.75249  1
 F  F1  1  0.22236  0.77764  0.55020  1
 F  F2  1  0.95909  0.47955  0.68762  1
 F  F3  1  0.66509  0.66167  0.88264  1
 F  F4  1  0.33833  0.33491  0.88264  1
 F  F5  1  0.66667  0.33333  0.46894  1
 F  F6  1  0.11039  0.22078  0.72056  1
 F  F7  1  0.77764  0.22236  0.05020  1
 F  F8  1  0.66509  0.00343  0.88264  1
 F  F9  1  0.33333  0.66667  0.30259  1
 F  F10  1  0.00343  0.66509  0.38264  1
 F  F11  1  0.99657  0.33491  0.88264  1
 F  F12  1  0.66167  0.99657  0.38264  1
 F  F13  1  0.00343  0.33833  0.38264  1
 F  F14  1  0.63243  0.81622  0.07683  1
 F  F15  1  0.77764  0.55527  0.05020  1
 F  F16  1  0.52045  0.04091  0.68762  1
 F  F17  1  0.81622  0.18378  0.57683  1
 F  F18  1  0.22236  0.44473  0.55020  1
 F  F19  1  0.77922  0.88961  0.72056  1
 F  F20  1  0.33333  0.66667  0.96894  1
 F  F21  1  0.11039  0.88961  0.72056  1
 F  F22  1  0.47955  0.95909  0.18762  1
 F  F23  1  0.88961  0.11039  0.22056  1
 F  F24  1  0.66167  0.66509  0.38264  1
 F  F25  1  0.88961  0.77922  0.22056  1
 F  F26  1  0.52045  0.47955  0.68762  1
 F  F27  1  0.22078  0.11039  0.22056  1
 F  F28  1  0.18378  0.36757  0.07683  1
 F  F29  1  0.33491  0.33833  0.38264  1
 F  F30  1  0.04091  0.52045  0.18762  1
 F  F31  1  0.47955  0.52045  0.18762  1
 F  F32  1  0.44473  0.22236  0.05020  1
 F  F33  1  0.33491  0.99657  0.38264  1
 F  F34  1  0.81622  0.63243  0.57683  1
 F  F35  1  0.55527  0.77764  0.55020  1
 F  F36  1  0.33833  0.00343  0.88264  1
 F  F37  1  0.99657  0.66167  0.88264  1
 F  F38  1  0.36757  0.18378  0.57683  1
 F  F39  1  0.18378  0.81622  0.07683  1
 F  F40  1  0.66667  0.33333  0.80259  1
 Rb  Rb1  1  0.00000  0.00000  0.99751  1
 Rb  Rb2  1  0.33333  0.66667  0.75880  1
 Rb  Rb3  1  0.00000  0.00000  0.49751  1
 Rb  Rb4  1  0.66667  0.33333  0.25880  1
