CIF file written using JARVIS-Tools package.
data_NiP3
_symmetry_space_group_name_H-M  'Im-3'
_cell_length_a       6.83279
_cell_length_b       6.8328
_cell_length_c       6.8328
_cell_angle_alpha    109.471
_cell_angle_beta     109.471
_cell_angle_gamma    109.471

_symmetry_Int_Tables_number  204
_chemical_formula_structural  NiP3
_chemical_formula_sum  Ni4P2
_cell_volume  245.5691038882029
_cell_formula_units_Z  4
loop_
  _symmetry_equiv_pos_site_id
 _symmetry_equiv_pos_as_xyz
 1  'x, y, z'
loop_
 _atom_site_type_symbol
 _atom_site_label
 _atom_site_symmetry_multiplicity
 _atom_site_fract_x
 _atom_site_fract_y
 _atom_site_fract_z
 _atom_site_fract_occupancy
 Ni  Ni1  1  0.50000  0.00000  -0.00000  1
 Ni  Ni2  1  0.00000  0.00000  0.50000  1
 Ni  Ni3  1  -0.00000  0.50000  -0.00000  1
 Ni  Ni4  1  0.50000  0.50000  0.50000  1
 P  P1  1  0.50229  0.85769  0.64460  1
 P  P2  1  0.21310  0.85769  0.35540  1
 P  P3  1  0.78690  0.14231  0.64460  1
 P  P4  1  0.14231  0.35540  0.49771  1
 P  P5  1  0.49771  0.14231  0.35540  1
 P  P6  1  0.14231  0.64460  0.78690  1
 P  P7  1  0.35540  0.21310  0.85769  1
 P  P8  1  0.85769  0.64460  0.50229  1
 P  P9  1  0.64460  0.78690  0.14231  1
 P  P10  1  0.85769  0.35540  0.21310  1
 P  P11  1  0.64460  0.50229  0.85769  1
 P  P12  1  0.35540  0.49771  0.14231  1
