CIF file written using JARVIS-Tools package.
data_AlF3
_symmetry_space_group_name_H-M  'P4/nmm'
_cell_length_a       10.3035
_cell_length_b       10.3035
_cell_length_c       7.25655
_cell_angle_alpha    90
_cell_angle_beta     90
_cell_angle_gamma    90

_symmetry_Int_Tables_number  129
_chemical_formula_structural  AlF3
_chemical_formula_sum  Al6F48
_cell_volume  770.3756121471349
_cell_formula_units_Z  16
loop_
  _symmetry_equiv_pos_site_id
 _symmetry_equiv_pos_as_xyz
 1  'x, y, z'
loop_
 _atom_site_type_symbol
 _atom_site_label
 _atom_site_symmetry_multiplicity
 _atom_site_fract_x
 _atom_site_fract_y
 _atom_site_fract_z
 _atom_site_fract_occupancy
 Al  Al1  1  0.00000  0.83623  0.67178  1
 Al  Al2  1  0.16377  0.00000  0.32822  1
 Al  Al3  1  0.00000  0.16377  0.67178  1
 Al  Al4  1  0.66377  0.50000  0.67178  1
 Al  Al5  1  0.83623  0.00000  0.32822  1
 Al  Al6  1  0.50000  0.66377  0.32822  1
 Al  Al7  1  0.50000  0.33623  0.32822  1
 Al  Al8  1  0.75000  0.25000  0.00000  1
 Al  Al9  1  0.33623  0.50000  0.67178  1
 Al  Al10  1  0.50000  0.00000  0.41288  1
 Al  Al11  1  0.00000  0.50000  0.09096  1
 Al  Al12  1  0.50000  0.00000  0.90904  1
 Al  Al13  1  0.75000  0.75000  0.00000  1
 Al  Al14  1  0.25000  0.25000  0.00000  1
 Al  Al15  1  0.25000  0.75000  0.00000  1
 Al  Al16  1  0.00000  0.50000  0.58712  1
 F  F1  1  0.37650  0.62350  0.50000  1
 F  F2  1  0.12350  0.12350  0.50000  1
 F  F3  1  0.87650  0.87650  0.50000  1
 F  F4  1  0.62350  0.37650  0.50000  1
 F  F5  1  0.50000  0.50000  0.75573  1
 F  F6  1  0.50000  0.50000  0.24427  1
 F  F7  1  0.00000  0.00000  0.75573  1
 F  F8  1  0.87650  0.12350  0.50000  1
 F  F9  1  0.00000  0.00000  0.24427  1
 F  F10  1  0.62350  0.62350  0.50000  1
 F  F11  1  0.37116  0.12884  0.90865  1
 F  F12  1  0.12350  0.87650  0.50000  1
 F  F13  1  0.00000  0.67357  0.58851  1
 F  F14  1  0.00000  0.32643  0.58851  1
 F  F15  1  0.82643  0.50000  0.58851  1
 F  F16  1  0.50000  0.82643  0.41149  1
 F  F17  1  0.17357  0.50000  0.58851  1
 F  F18  1  0.87116  0.62884  0.09135  1
 F  F19  1  0.62884  0.87116  0.90865  1
 F  F20  1  0.62884  0.12884  0.90865  1
 F  F21  1  0.12884  0.37116  0.09135  1
 F  F22  1  0.37650  0.37650  0.50000  1
 F  F23  1  0.67357  0.00000  0.41149  1
 F  F24  1  0.50000  0.00000  0.15878  1
 F  F25  1  0.69855  0.37253  0.83721  1
 F  F26  1  0.30145  0.62747  0.83721  1
 F  F27  1  0.12747  0.80145  0.83721  1
 F  F28  1  0.87253  0.19855  0.83721  1
 F  F29  1  0.69855  0.62747  0.83721  1
 F  F30  1  0.62747  0.69855  0.16279  1
 F  F31  1  0.80145  0.12747  0.16279  1
 F  F32  1  0.37253  0.30145  0.16279  1
 F  F33  1  0.12747  0.19855  0.83721  1
 F  F34  1  0.30145  0.37253  0.83721  1
 F  F35  1  0.87253  0.80145  0.83721  1
 F  F36  1  0.50000  0.00000  0.66221  1
 F  F37  1  0.19855  0.12747  0.16279  1
 F  F38  1  0.80145  0.87253  0.16279  1
 F  F39  1  0.62747  0.30145  0.16279  1
 F  F40  1  0.37253  0.69855  0.16279  1
 F  F41  1  0.87116  0.37116  0.09135  1
 F  F42  1  0.00000  0.50000  0.84122  1
 F  F43  1  0.19855  0.87253  0.16279  1
 F  F44  1  0.00000  0.50000  0.33779  1
 F  F45  1  0.32643  0.00000  0.41149  1
 F  F46  1  0.50000  0.17357  0.41149  1
 F  F47  1  0.12884  0.62884  0.09135  1
 F  F48  1  0.37116  0.87116  0.90865  1
