CIF file written using JARVIS-Tools package.
data_TmGeRh
_symmetry_space_group_name_H-M  'Pnma'
_cell_length_a       4.27258
_cell_length_b       6.82038
_cell_length_c       7.53177
_cell_angle_alpha    90
_cell_angle_beta     90
_cell_angle_gamma    90

_symmetry_Int_Tables_number  62
_chemical_formula_structural  TmGeRh
_chemical_formula_sum  Tm4Ge4Rh4
_cell_volume  219.48052762514286
_cell_formula_units_Z  4
loop_
  _symmetry_equiv_pos_site_id
 _symmetry_equiv_pos_as_xyz
 1  'x, y, z'
loop_
 _atom_site_type_symbol
 _atom_site_label
 _atom_site_symmetry_multiplicity
 _atom_site_fract_x
 _atom_site_fract_y
 _atom_site_fract_z
 _atom_site_fract_occupancy
 Ge  Ge1  1  0.25000  0.28495  0.10573  1
 Ge  Ge2  1  0.75000  0.71505  0.89427  1
 Ge  Ge3  1  0.25000  0.78495  0.39427  1
 Ge  Ge4  1  0.75000  0.21505  0.60573  1
 Rh  Rh1  1  0.75000  0.84136  0.56815  1
 Rh  Rh2  1  0.25000  0.15864  0.43185  1
 Rh  Rh3  1  0.75000  0.34136  0.93185  1
 Rh  Rh4  1  0.25000  0.65864  0.06815  1
 Tm  Tm1  1  0.25000  0.00432  0.80356  1
 Tm  Tm2  1  0.75000  0.99568  0.19644  1
 Tm  Tm3  1  0.25000  0.50432  0.69644  1
 Tm  Tm4  1  0.75000  0.49568  0.30356  1
