CIF file written using JARVIS-Tools package.
data_Cr2CoTe4
_symmetry_space_group_name_H-M  'C2/m'
_cell_length_a       3.99976
_cell_length_b       6.86042
_cell_length_c       6.98309
_cell_angle_alpha    118.814
_cell_angle_beta     106.642
_cell_angle_gamma    90

_symmetry_Int_Tables_number  12
_chemical_formula_structural  Cr2CoTe4
_chemical_formula_sum  Cr2CoTe4
_cell_volume  158.66993009468504
_cell_formula_units_Z  1
loop_
  _symmetry_equiv_pos_site_id
 _symmetry_equiv_pos_as_xyz
 1  'x, y, z'
loop_
 _atom_site_type_symbol
 _atom_site_label
 _atom_site_symmetry_multiplicity
 _atom_site_fract_x
 _atom_site_fract_y
 _atom_site_fract_z
 _atom_site_fract_occupancy
 Co  Co1  1  0.00000  0.00000  0.00000  1
 Cr  Cr1  1  0.25498  0.27146  0.50995  1
 Cr  Cr2  1  0.74502  0.72854  0.49005  1
 Te  Te1  1  0.11607  0.44974  0.23214  1
 Te  Te2  1  0.88393  0.55026  0.76786  1
 Te  Te3  1  0.37513  0.03580  0.75027  1
 Te  Te4  1  0.62487  0.96420  0.24973  1
