CIF file written using JARVIS-Tools package.
data_Bi2Pd3S2
_symmetry_space_group_name_H-M  'I2_13'
_cell_length_a       7.30699
_cell_length_b       7.30699
_cell_length_c       7.30699
_cell_angle_alpha    109.471
_cell_angle_beta     109.471
_cell_angle_gamma    109.471

_symmetry_Int_Tables_number  199
_chemical_formula_structural  Bi2Pd3S2
_chemical_formula_sum  Bi4Pd6S4
_cell_volume  300.32672848847443
_cell_formula_units_Z  2
loop_
  _symmetry_equiv_pos_site_id
 _symmetry_equiv_pos_as_xyz
 1  'x, y, z'
loop_
 _atom_site_type_symbol
 _atom_site_label
 _atom_site_symmetry_multiplicity
 _atom_site_fract_x
 _atom_site_fract_y
 _atom_site_fract_z
 _atom_site_fract_occupancy
 Bi  Bi1  1  0.49222  0.50000  -0.00000  1
 Bi  Bi2  1  0.50000  0.00000  0.49222  1
 Bi  Bi3  1  -0.00000  0.49222  0.50000  1
 Bi  Bi4  1  0.00778  0.00778  0.00778  1
 Pd  Pd1  1  0.25000  0.53014  0.28014  1
 Pd  Pd2  1  0.96986  0.21986  0.75000  1
 Pd  Pd3  1  0.21986  0.75000  0.96986  1
 Pd  Pd4  1  0.53014  0.28014  0.25000  1
 Pd  Pd5  1  0.28014  0.25000  0.53014  1
 Pd  Pd6  1  0.75000  0.96986  0.21986  1
 S  S1  1  0.94451  0.50000  -0.00000  1
 S  S2  1  0.55549  0.55549  0.55549  1
 S  S3  1  0.50000  0.00000  0.94451  1
 S  S4  1  -0.00000  0.94451  0.50000  1
