CIF file written using JARVIS-Tools package.
data_LiCeCu2P2
_symmetry_space_group_name_H-M  'P-3m1'
_cell_length_a       4.01859
_cell_length_b       4.01847
_cell_length_c       6.78214
_cell_angle_alpha    90
_cell_angle_beta     89.9961
_cell_angle_gamma    119.999

_symmetry_Int_Tables_number  164
_chemical_formula_structural  LiCeCu2P2
_chemical_formula_sum  LiCeCu2P2
_cell_volume  94.84990101364556
_cell_formula_units_Z  1
loop_
  _symmetry_equiv_pos_site_id
 _symmetry_equiv_pos_as_xyz
 1  'x, y, z'
loop_
 _atom_site_type_symbol
 _atom_site_label
 _atom_site_symmetry_multiplicity
 _atom_site_fract_x
 _atom_site_fract_y
 _atom_site_fract_z
 _atom_site_fract_occupancy
 Ce  Ce1  1  0.00000  0.00000  0.00000  1
 Cu  Cu1  1  0.66662  0.33331  0.33090  1
 Cu  Cu2  1  0.33338  0.66669  0.66910  1
 Li  Li1  1  0.00000  0.00000  0.50000  1
 P  P1  1  0.66671  0.33336  0.73318  1
 P  P2  1  0.33329  0.66664  0.26682  1
