CIF file written using JARVIS-Tools package.
data_ReCl4
_symmetry_space_group_name_H-M  'P2/c'
_cell_length_a       6.393
_cell_length_b       6.22582
_cell_length_c       12.0782
_cell_angle_alpha    90
_cell_angle_beta     93.607
_cell_angle_gamma    90

_symmetry_Int_Tables_number  13
_chemical_formula_structural  ReCl4
_chemical_formula_sum  Re4Cl6
_cell_volume  479.7819343030404
_cell_formula_units_Z  4
loop_
  _symmetry_equiv_pos_site_id
 _symmetry_equiv_pos_as_xyz
 1  'x, y, z'
loop_
 _atom_site_type_symbol
 _atom_site_label
 _atom_site_symmetry_multiplicity
 _atom_site_fract_x
 _atom_site_fract_y
 _atom_site_fract_z
 _atom_site_fract_occupancy
 Cl  Cl1  1  0.36846  0.59128  0.87385  1
 Cl  Cl2  1  0.00000  0.08436  0.25000  1
 Cl  Cl3  1  -0.00000  0.91564  0.75000  1
 Cl  Cl4  1  0.50000  0.93638  0.25000  1
 Cl  Cl5  1  0.50000  0.06362  0.75000  1
 Cl  Cl6  1  0.24862  0.89636  0.51713  1
 Cl  Cl7  1  0.86362  0.56619  0.36704  1
 Cl  Cl8  1  0.75138  0.89636  0.98287  1
 Cl  Cl9  1  0.24862  0.10364  0.01713  1
 Cl  Cl10  1  0.13638  0.56619  0.13296  1
 Cl  Cl11  1  0.63154  0.59128  0.62615  1
 Cl  Cl12  1  0.63154  0.40872  0.12615  1
 Cl  Cl13  1  0.36846  0.40872  0.37385  1
 Cl  Cl14  1  0.13638  0.43381  0.63296  1
 Cl  Cl15  1  0.86362  0.43381  0.86704  1
 Cl  Cl16  1  0.75138  0.10364  0.48287  1
 Re  Re1  1  0.31449  0.73887  0.68656  1
 Re  Re2  1  0.68551  0.73887  0.81344  1
 Re  Re3  1  0.68551  0.26113  0.31344  1
 Re  Re4  1  0.31449  0.26113  0.18656  1
