CIF file written using JARVIS-Tools package.
data_CoBW
_symmetry_space_group_name_H-M  'Pnma'
_cell_length_a       3.25881
_cell_length_b       5.74443
_cell_length_c       6.62572
_cell_angle_alpha    90
_cell_angle_beta     90
_cell_angle_gamma    90

_symmetry_Int_Tables_number  62
_chemical_formula_structural  CoBW
_chemical_formula_sum  Co4B4W4
_cell_volume  124.03339354059268
_cell_formula_units_Z  4
loop_
  _symmetry_equiv_pos_site_id
 _symmetry_equiv_pos_as_xyz
 1  'x, y, z'
loop_
 _atom_site_type_symbol
 _atom_site_label
 _atom_site_symmetry_multiplicity
 _atom_site_fract_x
 _atom_site_fract_y
 _atom_site_fract_z
 _atom_site_fract_occupancy
 B  B1  1  0.75000  0.23088  0.62587  1
 B  B2  1  0.25000  0.76912  0.37413  1
 B  B3  1  0.75000  0.73088  0.87413  1
 B  B4  1  0.25000  0.26912  0.12587  1
 Co  Co1  1  0.75000  0.85678  0.55801  1
 Co  Co2  1  0.25000  0.14322  0.44199  1
 Co  Co3  1  0.75000  0.35678  0.94199  1
 Co  Co4  1  0.25000  0.64322  0.05801  1
 W  W1  1  0.75000  0.97219  0.17476  1
 W  W2  1  0.25000  0.02781  0.82524  1
 W  W3  1  0.75000  0.47219  0.32524  1
 W  W4  1  0.25000  0.52781  0.67476  1
