CIF file written using JARVIS-Tools package.
data_Sc2O3
_symmetry_space_group_name_H-M  'Ia-3'
_cell_length_a       8.55727
_cell_length_b       8.55727
_cell_length_c       8.55727
_cell_angle_alpha    109.471
_cell_angle_beta     109.471
_cell_angle_gamma    109.471

_symmetry_Int_Tables_number  206
_chemical_formula_structural  Sc2O3
_chemical_formula_sum  Sc6O24
_cell_volume  482.3743883666038
_cell_formula_units_Z  8
loop_
  _symmetry_equiv_pos_site_id
 _symmetry_equiv_pos_as_xyz
 1  'x, y, z'
loop_
 _atom_site_type_symbol
 _atom_site_label
 _atom_site_symmetry_multiplicity
 _atom_site_fract_x
 _atom_site_fract_y
 _atom_site_fract_z
 _atom_site_fract_occupancy
 O  O1  1  0.27363  0.01087  0.04641  1
 O  O2  1  0.98913  0.95359  0.72637  1
 O  O3  1  0.26275  0.77363  0.72722  1
 O  O4  1  0.51087  0.23725  0.96446  1
 O  O5  1  0.95359  0.72637  0.98913  1
 O  O6  1  0.72722  0.26275  0.77363  1
 O  O7  1  0.23725  0.96446  0.51087  1
 O  O8  1  0.54641  0.53554  0.77278  1
 O  O9  1  0.27278  0.73725  0.22637  1
 O  O10  1  0.76275  0.03554  0.48913  1
 O  O11  1  0.77363  0.72722  0.26275  1
 O  O12  1  0.96446  0.51087  0.23725  1
 O  O13  1  0.46446  0.22722  0.45359  1
 O  O14  1  0.01087  0.04641  0.27363  1
 O  O15  1  0.73725  0.22637  0.27278  1
 O  O16  1  0.48913  0.76275  0.03554  1
 O  O17  1  0.04641  0.27363  0.01087  1
 O  O18  1  0.77278  0.54641  0.53554  1
 O  O19  1  0.53554  0.77278  0.54641  1
 O  O20  1  0.45359  0.46446  0.22722  1
 O  O21  1  0.22637  0.27278  0.73725  1
 O  O22  1  0.03554  0.48913  0.76275  1
 O  O23  1  0.22722  0.45359  0.46446  1
 O  O24  1  0.72637  0.98913  0.95359  1
 Sc  Sc1  1  0.50000  0.50000  0.50000  1
 Sc  Sc2  1  0.00000  0.00000  0.50000  1
 Sc  Sc3  1  0.50000  0.00000  -0.00000  1
 Sc  Sc4  1  -0.00000  0.50000  0.00000  1
 Sc  Sc5  1  0.25000  0.21422  0.96422  1
 Sc  Sc6  1  0.53578  0.75000  0.28578  1
 Sc  Sc7  1  0.28578  0.53578  0.75000  1
 Sc  Sc8  1  0.75000  0.28578  0.53578  1
 Sc  Sc9  1  0.75000  0.78578  0.03578  1
 Sc  Sc10  1  0.71422  0.46422  0.25000  1
 Sc  Sc11  1  0.46422  0.25000  0.71422  1
 Sc  Sc12  1  0.78578  0.03578  0.75000  1
 Sc  Sc13  1  0.21422  0.96422  0.25000  1
 Sc  Sc14  1  0.03578  0.75000  0.78578  1
 Sc  Sc15  1  0.96422  0.25000  0.21422  1
 Sc  Sc16  1  0.25000  0.71422  0.46422  1
