CIF file written using JARVIS-Tools package.
data_LuAlGe
_symmetry_space_group_name_H-M  'Cmcm'
_cell_length_a       4.01801
_cell_length_b       5.5187
_cell_length_c       5.66199
_cell_angle_alpha    90
_cell_angle_beta     90
_cell_angle_gamma    111.348

_symmetry_Int_Tables_number  63
_chemical_formula_structural  LuAlGe
_chemical_formula_sum  Lu2Al2Ge2
_cell_volume  116.93548224333803
_cell_formula_units_Z  2
loop_
  _symmetry_equiv_pos_site_id
 _symmetry_equiv_pos_as_xyz
 1  'x, y, z'
loop_
 _atom_site_type_symbol
 _atom_site_label
 _atom_site_symmetry_multiplicity
 _atom_site_fract_x
 _atom_site_fract_y
 _atom_site_fract_z
 _atom_site_fract_occupancy
 Al  Al1  1  0.00000  0.00000  0.00000  1
 Al  Al2  1  0.00000  0.00000  0.50000  1
 Ge  Ge1  1  0.61297  0.22594  0.25000  1
 Ge  Ge2  1  0.38703  0.77406  0.75000  1
 Lu  Lu1  1  0.31303  0.62607  0.25000  1
 Lu  Lu2  1  0.68697  0.37393  0.75000  1
