CIF file written using JARVIS-Tools package.
data_NaLiO
_symmetry_space_group_name_H-M  'P6_3/mmc'
_cell_length_a       3.30752
_cell_length_b       5.72909
_cell_length_c       6.65775
_cell_angle_alpha    90
_cell_angle_beta     90
_cell_angle_gamma    29.9948

_symmetry_Int_Tables_number  194
_chemical_formula_structural  NaLiO
_chemical_formula_sum  Na2Li2O2
_cell_volume  63.06926481663743
_cell_formula_units_Z  2
loop_
  _symmetry_equiv_pos_site_id
 _symmetry_equiv_pos_as_xyz
 1  'x, y, z'
loop_
 _atom_site_type_symbol
 _atom_site_label
 _atom_site_symmetry_multiplicity
 _atom_site_fract_x
 _atom_site_fract_y
 _atom_site_fract_z
 _atom_site_fract_occupancy
 Li  Li1  1  0.50217  0.83218  0.75000  1
 Li  Li2  1  0.50217  0.16565  0.25000  1
 Na  Na1  1  0.50218  0.49891  0.00000  1
 Na  Na2  1  0.50218  0.49891  0.50000  1
 O  O1  1  0.50216  0.83235  0.25000  1
 O  O2  1  0.50216  0.16549  0.75000  1
