CIF file written using JARVIS-Tools package.
data_XeO2F2
_symmetry_space_group_name_H-M  'Cmcm'
_cell_length_a       4.47378
_cell_length_b       4.47379
_cell_length_c       8.17062
_cell_angle_alpha    90
_cell_angle_beta     90
_cell_angle_gamma    83.5887

_symmetry_Int_Tables_number  63
_chemical_formula_structural  XeO2F2
_chemical_formula_sum  Xe2O4F4
_cell_volume  162.50983720902056
_cell_formula_units_Z  2
loop_
  _symmetry_equiv_pos_site_id
 _symmetry_equiv_pos_as_xyz
 1  'x, y, z'
loop_
 _atom_site_type_symbol
 _atom_site_label
 _atom_site_symmetry_multiplicity
 _atom_site_fract_x
 _atom_site_fract_y
 _atom_site_fract_z
 _atom_site_fract_occupancy
 F  F1  1  0.28023  0.28023  0.50218  1
 F  F2  1  0.71977  0.71977  0.00218  1
 F  F3  1  0.28023  0.28023  -0.00218  1
 F  F4  1  0.71977  0.71977  0.49782  1
 O  O1  1  0.79417  0.27613  0.75000  1
 O  O2  1  0.20583  0.72387  0.25000  1
 O  O3  1  0.72387  0.20583  0.25000  1
 O  O4  1  0.27613  0.79417  0.75000  1
 Xe  Xe1  1  0.69349  0.69349  0.75000  1
 Xe  Xe2  1  0.30651  0.30651  0.25000  1
