CIF file written using JARVIS-Tools package.
data_ThTe2I2
_symmetry_space_group_name_H-M  'C2/m'
_cell_length_a       7.67055
_cell_length_b       7.75894
_cell_length_c       8.19393
_cell_angle_alpha    80.4076
_cell_angle_beta     62.0956
_cell_angle_gamma    69.1456

_symmetry_Int_Tables_number  12
_chemical_formula_structural  ThTe2I2
_chemical_formula_sum  Th2Te4I4
_cell_volume  402.7298778058664
_cell_formula_units_Z  2
loop_
  _symmetry_equiv_pos_site_id
 _symmetry_equiv_pos_as_xyz
 1  'x, y, z'
loop_
 _atom_site_type_symbol
 _atom_site_label
 _atom_site_symmetry_multiplicity
 _atom_site_fract_x
 _atom_site_fract_y
 _atom_site_fract_z
 _atom_site_fract_occupancy
 I  I1  1  0.02228  0.25523  0.41594  1
 I  I2  1  0.56173  0.74483  0.41586  1
 I  I3  1  0.97772  0.74477  0.58406  1
 I  I4  1  0.43827  0.25517  0.58414  1
 Te  Te1  1  0.13202  0.65499  0.00002  1
 Te  Te2  1  0.86798  0.34501  -0.00002  1
 Te  Te3  1  0.65387  0.12112  0.99996  1
 Te  Te4  1  0.34613  0.87888  0.00004  1
 Th  Th1  1  0.85812  0.00002  0.28373  1
 Th  Th2  1  0.14188  -0.00002  0.71627  1
