CIF file written using JARVIS-Tools package.
data_Ca3Al2N4
_symmetry_space_group_name_H-M  'C2/c'
_cell_length_a       5.51591
_cell_length_b       6.71833
_cell_length_c       6.71833
_cell_angle_alpha    75.9302
_cell_angle_beta     88.4385
_cell_angle_gamma    88.4385

_symmetry_Int_Tables_number  15
_chemical_formula_structural  Ca3Al2N4
_chemical_formula_sum  Ca6Al4N8
_cell_volume  241.35292017093053
_cell_formula_units_Z  2
loop_
  _symmetry_equiv_pos_site_id
 _symmetry_equiv_pos_as_xyz
 1  'x, y, z'
loop_
 _atom_site_type_symbol
 _atom_site_label
 _atom_site_symmetry_multiplicity
 _atom_site_fract_x
 _atom_site_fract_y
 _atom_site_fract_z
 _atom_site_fract_occupancy
 Al  Al1  1  0.08937  0.58565  0.82314  1
 Al  Al2  1  0.91063  0.41435  0.17686  1
 Al  Al3  1  0.41063  0.17686  0.41435  1
 Al  Al4  1  0.58937  0.82314  0.58565  1
 Ca  Ca1  1  0.04507  0.02246  0.74756  1
 Ca  Ca2  1  0.45493  0.25244  0.97754  1
 Ca  Ca3  1  0.75000  0.39832  0.60168  1
 Ca  Ca4  1  0.25000  0.60168  0.39832  1
 Ca  Ca5  1  0.54507  0.74756  0.02246  1
 Ca  Ca6  1  0.95493  0.97754  0.25244  1
 N  N1  1  0.57964  0.41189  0.26305  1
 N  N2  1  0.01954  0.69787  0.05838  1
 N  N3  1  0.98046  0.30213  0.94162  1
 N  N4  1  0.92036  0.73695  0.58811  1
 N  N5  1  0.51954  0.05838  0.69787  1
 N  N6  1  0.42036  0.58811  0.73695  1
 N  N7  1  0.48046  0.94162  0.30213  1
 N  N8  1  0.07964  0.26305  0.41189  1
