CIF file written using JARVIS-Tools package.
data_Al3Te3I
_symmetry_space_group_name_H-M  'Pnma'
_cell_length_a       4.1419
_cell_length_b       11.3571
_cell_length_c       19.9044
_cell_angle_alpha    90
_cell_angle_beta     90
_cell_angle_gamma    90

_symmetry_Int_Tables_number  62
_chemical_formula_structural  Al3Te3I
_chemical_formula_sum  Al2Te2I4
_cell_volume  936.3003514030081
_cell_formula_units_Z  4
loop_
  _symmetry_equiv_pos_site_id
 _symmetry_equiv_pos_as_xyz
 1  'x, y, z'
loop_
 _atom_site_type_symbol
 _atom_site_label
 _atom_site_symmetry_multiplicity
 _atom_site_fract_x
 _atom_site_fract_y
 _atom_site_fract_z
 _atom_site_fract_occupancy
 Al  Al1  1  0.75000  0.83785  0.63295  1
 Al  Al2  1  0.75000  0.94982  0.10141  1
 Al  Al3  1  0.25000  0.05018  0.89859  1
 Al  Al4  1  0.75000  0.44982  0.39859  1
 Al  Al5  1  0.75000  0.82896  0.99227  1
 Al  Al6  1  0.25000  0.17104  0.00773  1
 Al  Al7  1  0.25000  0.55018  0.60141  1
 Al  Al8  1  0.25000  0.67104  0.49227  1
 Al  Al9  1  0.25000  0.66215  0.13295  1
 Al  Al10  1  0.75000  0.33785  0.86705  1
 Al  Al11  1  0.25000  0.16215  0.36705  1
 Al  Al12  1  0.75000  0.32896  0.50773  1
 I  I1  1  0.75000  0.05159  0.66927  1
 I  I2  1  0.75000  0.55159  0.83073  1
 I  I3  1  0.25000  0.44841  0.16927  1
 I  I4  1  0.25000  0.94841  0.33073  1
 Te  Te1  1  0.25000  0.17384  0.50106  1
 Te  Te2  1  0.75000  0.82616  0.49894  1
 Te  Te3  1  0.75000  0.90870  0.86478  1
 Te  Te4  1  0.75000  0.27129  0.30804  1
 Te  Te5  1  0.75000  0.40870  0.63522  1
 Te  Te6  1  0.75000  0.77129  0.19196  1
 Te  Te7  1  0.25000  0.22871  0.80804  1
 Te  Te8  1  0.25000  0.72871  0.69196  1
 Te  Te9  1  0.25000  0.59130  0.36478  1
 Te  Te10  1  0.25000  0.09130  0.13522  1
 Te  Te11  1  0.75000  0.32616  0.00106  1
 Te  Te12  1  0.25000  0.67384  -0.00106  1
