CIF file written using JARVIS-Tools package.
data_USi2Ir2
_symmetry_space_group_name_H-M  'P4/nmm'
_cell_length_a       4.11268
_cell_length_b       4.11268
_cell_length_c       9.87829
_cell_angle_alpha    90
_cell_angle_beta     90
_cell_angle_gamma    90

_symmetry_Int_Tables_number  129
_chemical_formula_structural  USi2Ir2
_chemical_formula_sum  U2Si4Ir4
_cell_volume  167.08296239114884
_cell_formula_units_Z  2
loop_
  _symmetry_equiv_pos_site_id
 _symmetry_equiv_pos_as_xyz
 1  'x, y, z'
loop_
 _atom_site_type_symbol
 _atom_site_label
 _atom_site_symmetry_multiplicity
 _atom_site_fract_x
 _atom_site_fract_y
 _atom_site_fract_z
 _atom_site_fract_occupancy
 Ir  Ir1  1  0.00000  0.50000  0.37088  1
 Ir  Ir2  1  0.50000  0.00000  0.62912  1
 Ir  Ir3  1  0.00000  0.00000  0.00000  1
 Ir  Ir4  1  0.50000  0.50000  0.00000  1
 Si  Si1  1  0.50000  0.00000  0.86671  1
 Si  Si2  1  0.00000  0.50000  0.13329  1
 Si  Si3  1  0.00000  0.00000  0.50000  1
 Si  Si4  1  0.50000  0.50000  0.50000  1
 U  U1  1  0.50000  0.00000  0.25377  1
 U  U2  1  0.00000  0.50000  0.74623  1
