CIF file written using JARVIS-Tools package.
data_HfV2Ga4
_symmetry_space_group_name_H-M  'I4/mmm'
_cell_length_a       5.19996
_cell_length_b       5.23796
_cell_length_c       5.23796
_cell_angle_alpha    75.7362
_cell_angle_beta     60.2397
_cell_angle_gamma    60.2397

_symmetry_Int_Tables_number  139
_chemical_formula_structural  HfV2Ga4
_chemical_formula_sum  HfV2Ga4
_cell_volume  107.51616141332096
_cell_formula_units_Z  1
loop_
  _symmetry_equiv_pos_site_id
 _symmetry_equiv_pos_as_xyz
 1  'x, y, z'
loop_
 _atom_site_type_symbol
 _atom_site_label
 _atom_site_symmetry_multiplicity
 _atom_site_fract_x
 _atom_site_fract_y
 _atom_site_fract_z
 _atom_site_fract_occupancy
 Ga  Ga1  1  0.30191  -0.00000  0.39618  1
 Ga  Ga2  1  0.69809  -0.00000  0.60382  1
 Ga  Ga3  1  0.69809  0.60382  -0.00000  1
 Ga  Ga4  1  0.30191  0.39618  -0.00000  1
 Hf  Hf1  1  0.00000  0.00000  0.00000  1
 V  V1  1  0.25000  0.50000  0.50000  1
 V  V2  1  0.75000  0.50000  0.50000  1
