CIF file written using JARVIS-Tools package.
data_Te3MoWS
_symmetry_space_group_name_H-M  'P3m1'
_cell_length_a       3.47051
_cell_length_b       3.47111
_cell_length_c       35.7296
_cell_angle_alpha    90.0018
_cell_angle_beta     90
_cell_angle_gamma    119.994

_symmetry_Int_Tables_number  156
_chemical_formula_structural  Te3MoWS
_chemical_formula_sum  Te6Mo2W2S2
_cell_volume  372.7735371869021
_cell_formula_units_Z  2
loop_
  _symmetry_equiv_pos_site_id
 _symmetry_equiv_pos_as_xyz
 1  'x, y, z'
loop_
 _atom_site_type_symbol
 _atom_site_label
 _atom_site_symmetry_multiplicity
 _atom_site_fract_x
 _atom_site_fract_y
 _atom_site_fract_z
 _atom_site_fract_occupancy
 Mo  Mo1  1  0.33328  0.66655  0.46312  1
 Mo  Mo2  1  0.66667  0.33333  0.27905  1
 S  S1  1  0.33328  0.66656  0.32054  1
 S  S2  1  0.33331  0.66662  0.23759  1
 Te  Te1  1  0.33331  0.66663  0.71768  1
 Te  Te2  1  0.66670  0.33340  0.04306  1
 Te  Te3  1  0.66659  0.33318  0.41132  1
 Te  Te4  1  0.66665  0.33331  0.14705  1
 Te  Te5  1  0.66677  0.33353  0.51485  1
 Te  Te6  1  0.33337  0.66675  0.61374  1
 W  W1  1  0.33329  0.66657  0.09499  1
 W  W2  1  0.66678  0.33357  0.66577  1
