CIF file written using JARVIS-Tools package.
data_HoSi2Pt2
_symmetry_space_group_name_H-M  'P4/nmm'
_cell_length_a       4.20546
_cell_length_b       4.20546
_cell_length_c       9.84334
_cell_angle_alpha    90
_cell_angle_beta     90
_cell_angle_gamma    90

_symmetry_Int_Tables_number  129
_chemical_formula_structural  HoSi2Pt2
_chemical_formula_sum  Ho2Si4Pt4
_cell_volume  174.08859325705131
_cell_formula_units_Z  2
loop_
  _symmetry_equiv_pos_site_id
 _symmetry_equiv_pos_as_xyz
 1  'x, y, z'
loop_
 _atom_site_type_symbol
 _atom_site_label
 _atom_site_symmetry_multiplicity
 _atom_site_fract_x
 _atom_site_fract_y
 _atom_site_fract_z
 _atom_site_fract_occupancy
 Ho  Ho1  1  0.50000  0.00000  0.74746  1
 Ho  Ho2  1  0.00000  0.50000  0.25254  1
 Pt  Pt1  1  0.00000  0.50000  0.62450  1
 Pt  Pt2  1  0.50000  0.50000  0.00000  1
 Pt  Pt3  1  0.00000  0.00000  0.00000  1
 Pt  Pt4  1  0.50000  0.00000  0.37550  1
 Si  Si1  1  0.50000  0.00000  0.13378  1
 Si  Si2  1  0.00000  0.00000  0.50000  1
 Si  Si3  1  0.00000  0.50000  0.86622  1
 Si  Si4  1  0.50000  0.50000  0.50000  1
