CIF file written using JARVIS-Tools package.
data_SrPrO3
_symmetry_space_group_name_H-M  'Pnma'
_cell_length_a       6.19074
_cell_length_b       6.39536
_cell_length_c       8.80505
_cell_angle_alpha    90
_cell_angle_beta     90
_cell_angle_gamma    90

_symmetry_Int_Tables_number  62
_chemical_formula_structural  SrPrO3
_chemical_formula_sum  Sr4Pr4O2
_cell_volume  348.60948374670096
_cell_formula_units_Z  4
loop_
  _symmetry_equiv_pos_site_id
 _symmetry_equiv_pos_as_xyz
 1  'x, y, z'
loop_
 _atom_site_type_symbol
 _atom_site_label
 _atom_site_symmetry_multiplicity
 _atom_site_fract_x
 _atom_site_fract_y
 _atom_site_fract_z
 _atom_site_fract_occupancy
 O  O1  1  0.13735  0.42946  0.25000  1
 O  O2  1  0.70251  0.29497  0.42604  1
 O  O3  1  0.36265  0.92946  0.25000  1
 O  O4  1  0.79749  0.79497  0.07396  1
 O  O5  1  0.29749  0.70503  0.92604  1
 O  O6  1  0.20251  0.20503  0.57396  1
 O  O7  1  0.79749  0.79497  0.42604  1
 O  O8  1  0.20251  0.20503  0.92604  1
 O  O9  1  0.70251  0.29497  0.07396  1
 O  O10  1  0.86265  0.57054  0.75000  1
 O  O11  1  0.63735  0.07054  0.75000  1
 O  O12  1  0.29749  0.70503  0.57396  1
 Pr  Pr1  1  0.00000  0.50000  0.50000  1
 Pr  Pr2  1  0.50000  0.00000  0.50000  1
 Pr  Pr3  1  0.50000  0.00000  0.00000  1
 Pr  Pr4  1  0.00000  0.50000  0.00000  1
 Sr  Sr1  1  0.02340  0.94678  0.75000  1
 Sr  Sr2  1  0.52340  0.55322  0.25000  1
 Sr  Sr3  1  0.47660  0.44678  0.75000  1
 Sr  Sr4  1  0.97660  0.05322  0.25000  1
