CIF file written using JARVIS-Tools package.
data_KO2
_symmetry_space_group_name_H-M  'I4/mmm'
_cell_length_a       3.87372
_cell_length_b       3.87372
_cell_length_c       4.32051
_cell_angle_alpha    116.634
_cell_angle_beta     116.634
_cell_angle_gamma    90.0001

_symmetry_Int_Tables_number  139
_chemical_formula_structural  KO2
_chemical_formula_sum  KO2
_cell_volume  50.1378716688698
_cell_formula_units_Z  1
loop_
  _symmetry_equiv_pos_site_id
 _symmetry_equiv_pos_as_xyz
 1  'x, y, z'
loop_
 _atom_site_type_symbol
 _atom_site_label
 _atom_site_symmetry_multiplicity
 _atom_site_fract_x
 _atom_site_fract_y
 _atom_site_fract_z
 _atom_site_fract_occupancy
 K  K1  1  0.00000  0.00000  0.00000  1
 O  O1  1  0.60145  0.60145  0.20290  1
 O  O2  1  0.39855  0.39855  0.79710  1
