CIF file written using JARVIS-Tools package.
data_U3Co2Ge7
_symmetry_space_group_name_H-M  'Cmmm'
_cell_length_a       4.18295
_cell_length_b       4.15546
_cell_length_c       12.6927
_cell_angle_alpha    99.4214
_cell_angle_beta     90
_cell_angle_gamma    90

_symmetry_Int_Tables_number  65
_chemical_formula_structural  U3Co2Ge7
_chemical_formula_sum  U3Co2Ge7
_cell_volume  217.6501778545625
_cell_formula_units_Z  1
loop_
  _symmetry_equiv_pos_site_id
 _symmetry_equiv_pos_as_xyz
 1  'x, y, z'
loop_
 _atom_site_type_symbol
 _atom_site_label
 _atom_site_symmetry_multiplicity
 _atom_site_fract_x
 _atom_site_fract_y
 _atom_site_fract_z
 _atom_site_fract_occupancy
 Co  Co1  1  0.50000  0.62835  0.25671  1
 Co  Co2  1  0.50000  0.37165  0.74329  1
 Ge  Ge1  1  0.50000  0.72022  0.44044  1
 Ge  Ge2  1  0.00000  0.00000  0.00000  1
 Ge  Ge3  1  0.00000  0.41121  0.82243  1
 Ge  Ge4  1  0.00000  0.58879  0.17757  1
 Ge  Ge5  1  0.50000  0.08802  0.17605  1
 Ge  Ge6  1  0.50000  0.91198  0.82395  1
 Ge  Ge7  1  0.50000  0.27978  0.55956  1
 U  U1  1  0.00000  0.81411  0.62821  1
 U  U2  1  0.00000  0.18589  0.37179  1
 U  U3  1  0.50000  0.50000  0.00000  1
