CIF file written using JARVIS-Tools package.
data_KWO3
_symmetry_space_group_name_H-M  'Pm-3m'
_cell_length_a       3.95653
_cell_length_b       3.95659
_cell_length_c       3.95657
_cell_angle_alpha    90
_cell_angle_beta     89.999
_cell_angle_gamma    90

_symmetry_Int_Tables_number  221
_chemical_formula_structural  KWO3
_chemical_formula_sum  KWO3
_cell_volume  61.93764393163462
_cell_formula_units_Z  1
loop_
  _symmetry_equiv_pos_site_id
 _symmetry_equiv_pos_as_xyz
 1  'x, y, z'
loop_
 _atom_site_type_symbol
 _atom_site_label
 _atom_site_symmetry_multiplicity
 _atom_site_fract_x
 _atom_site_fract_y
 _atom_site_fract_z
 _atom_site_fract_occupancy
 K  K1  1  0.99800  0.00000  0.99998  1
 O  O1  1  0.49801  0.50000  0.00001  1
 O  O2  1  0.49799  0.00000  0.49998  1
 O  O3  1  0.99800  0.50000  0.50003  1
 W  W1  1  0.49800  0.50000  0.50000  1
