CIF file written using JARVIS-Tools package.
data_SrBiClO2
_symmetry_space_group_name_H-M  'Cmcm'
_cell_length_a       5.66221
_cell_length_b       5.75484
_cell_length_c       6.84477
_cell_angle_alpha    114.858
_cell_angle_beta     89.9994
_cell_angle_gamma    90.0001

_symmetry_Int_Tables_number  63
_chemical_formula_structural  SrBiClO2
_chemical_formula_sum  Sr2Bi2Cl2O4
_cell_volume  202.37338934604958
_cell_formula_units_Z  2
loop_
  _symmetry_equiv_pos_site_id
 _symmetry_equiv_pos_as_xyz
 1  'x, y, z'
loop_
 _atom_site_type_symbol
 _atom_site_label
 _atom_site_symmetry_multiplicity
 _atom_site_fract_x
 _atom_site_fract_y
 _atom_site_fract_z
 _atom_site_fract_occupancy
 Bi  Bi1  1  0.75000  0.08383  0.16766  1
 Bi  Bi2  1  0.25000  0.91617  0.83234  1
 Cl  Cl1  1  0.75000  0.74480  0.48959  1
 Cl  Cl2  1  0.25000  0.25520  0.51041  1
 O  O1  1  0.50000  0.23627  0.00001  1
 O  O2  1  -0.00000  0.23627  0.00000  1
 O  O3  1  0.00000  0.76373  -0.00000  1
 O  O4  1  0.50000  0.76372  -0.00000  1
 Sr  Sr1  1  0.25000  0.60998  0.21995  1
 Sr  Sr2  1  0.75000  0.39002  0.78005  1
