CIF file written using JARVIS-Tools package.
data_RbOsO3
_symmetry_space_group_name_H-M  'Pm-3m'
_cell_length_a       3.97233
_cell_length_b       3.97233
_cell_length_c       3.9725
_cell_angle_alpha    90.0001
_cell_angle_beta     89.9999
_cell_angle_gamma    90.0001

_symmetry_Int_Tables_number  221
_chemical_formula_structural  RbOsO3
_chemical_formula_sum  RbOsO3
_cell_volume  62.68360814391528
_cell_formula_units_Z  1
loop_
  _symmetry_equiv_pos_site_id
 _symmetry_equiv_pos_as_xyz
 1  'x, y, z'
loop_
 _atom_site_type_symbol
 _atom_site_label
 _atom_site_symmetry_multiplicity
 _atom_site_fract_x
 _atom_site_fract_y
 _atom_site_fract_z
 _atom_site_fract_occupancy
 O  O1  1  -0.00000  0.48800  0.50201  1
 O  O2  1  0.50000  0.98801  0.50200  1
 O  O3  1  0.50000  0.48801  0.00201  1
 Os  Os1  1  0.50000  0.48800  0.50200  1
 Rb  Rb1  1  0.00000  0.98798  0.00199  1
