CIF file written using JARVIS-Tools package.
data_Co3Se4
_symmetry_space_group_name_H-M  'Fd-3m'
_cell_length_a       6.97133
_cell_length_b       6.97133
_cell_length_c       6.97133
_cell_angle_alpha    60
_cell_angle_beta     60
_cell_angle_gamma    60

_symmetry_Int_Tables_number  227
_chemical_formula_structural  Co3Se4
_chemical_formula_sum  Co6Se8
_cell_volume  239.57003531708082
_cell_formula_units_Z  2
loop_
  _symmetry_equiv_pos_site_id
 _symmetry_equiv_pos_as_xyz
 1  'x, y, z'
loop_
 _atom_site_type_symbol
 _atom_site_label
 _atom_site_symmetry_multiplicity
 _atom_site_fract_x
 _atom_site_fract_y
 _atom_site_fract_z
 _atom_site_fract_occupancy
 Co  Co1  1  0.12500  0.12500  0.12500  1
 Co  Co2  1  0.87500  0.87500  0.87500  1
 Co  Co3  1  0.50000  0.50000  0.50000  1
 Co  Co4  1  0.50000  0.50000  -0.00000  1
 Co  Co5  1  -0.00000  0.50000  0.50000  1
 Co  Co6  1  0.50000  0.00000  0.50000  1
 Se  Se1  1  0.25725  0.25725  0.25725  1
 Se  Se2  1  0.74275  0.74275  0.27176  1
 Se  Se3  1  0.27176  0.74275  0.74275  1
 Se  Se4  1  0.74275  0.27176  0.74275  1
 Se  Se5  1  0.72824  0.25725  0.25725  1
 Se  Se6  1  0.25725  0.72824  0.25725  1
 Se  Se7  1  0.25725  0.25725  0.72824  1
 Se  Se8  1  0.74275  0.74275  0.74275  1
