CIF file written using JARVIS-Tools package.
data_Ba3Nb2O8
_symmetry_space_group_name_H-M  'R-3m'
_cell_length_a       8.02526
_cell_length_b       8.02526
_cell_length_c       8.02526
_cell_angle_alpha    44.668
_cell_angle_beta     44.668
_cell_angle_gamma    44.668

_symmetry_Int_Tables_number  166
_chemical_formula_structural  Ba3Nb2O8
_chemical_formula_sum  Ba3Nb2O8
_cell_volume  232.33122495912434
_cell_formula_units_Z  1
loop_
  _symmetry_equiv_pos_site_id
 _symmetry_equiv_pos_as_xyz
 1  'x, y, z'
loop_
 _atom_site_type_symbol
 _atom_site_label
 _atom_site_symmetry_multiplicity
 _atom_site_fract_x
 _atom_site_fract_y
 _atom_site_fract_z
 _atom_site_fract_occupancy
 Ba  Ba1  1  0.00000  0.00000  0.00000  1
 Ba  Ba2  1  0.80029  0.80029  0.80029  1
 Ba  Ba3  1  0.19971  0.19971  0.19971  1
 Nb  Nb1  1  0.40595  0.40595  0.40595  1
 Nb  Nb2  1  0.59405  0.59405  0.59405  1
 O  O1  1  0.26719  0.26719  0.77090  1
 O  O2  1  0.77090  0.26719  0.26719  1
 O  O3  1  0.26719  0.77090  0.26719  1
 O  O4  1  0.73281  0.73281  0.22910  1
 O  O5  1  0.22910  0.73281  0.73281  1
 O  O6  1  0.73281  0.22910  0.73281  1
 O  O7  1  0.31959  0.31959  0.31959  1
 O  O8  1  0.68041  0.68041  0.68041  1
