CIF file written using JARVIS-Tools package.
data_YbBaSi4N7
_symmetry_space_group_name_H-M  'P6_3mc'
_cell_length_a       6.12206
_cell_length_b       6.12206
_cell_length_c       9.91759
_cell_angle_alpha    90
_cell_angle_beta     90
_cell_angle_gamma    120

_symmetry_Int_Tables_number  186
_chemical_formula_structural  YbBaSi4N7
_chemical_formula_sum  Yb2Ba2Si8N4
_cell_volume  321.9082047261639
_cell_formula_units_Z  2
loop_
  _symmetry_equiv_pos_site_id
 _symmetry_equiv_pos_as_xyz
 1  'x, y, z'
loop_
 _atom_site_type_symbol
 _atom_site_label
 _atom_site_symmetry_multiplicity
 _atom_site_fract_x
 _atom_site_fract_y
 _atom_site_fract_z
 _atom_site_fract_occupancy
 Ba  Ba1  1  0.33333  0.66667  0.63665  1
 Ba  Ba2  1  0.66667  0.33333  0.13665  1
 N  N1  1  0.48719  0.51281  0.90367  1
 N  N2  1  0.00000  0.00000  0.87522  1
 N  N3  1  0.84962  0.69923  0.62474  1
 N  N4  1  0.30077  0.15038  0.62474  1
 N  N5  1  0.69923  0.84962  0.12474  1
 N  N6  1  0.15038  0.30077  0.12474  1
 N  N7  1  0.15038  0.84962  0.12474  1
 N  N8  1  0.97439  0.48719  0.40367  1
 N  N9  1  0.48719  0.97439  0.90367  1
 N  N10  1  0.51281  0.02561  0.40367  1
 N  N11  1  0.51281  0.48719  0.40367  1
 N  N12  1  0.00000  0.00000  0.37522  1
 N  N13  1  0.84962  0.15038  0.62474  1
 N  N14  1  0.02561  0.51281  0.90367  1
 Si  Si1  1  0.34848  0.17424  0.45280  1
 Si  Si2  1  0.82576  0.17424  0.45280  1
 Si  Si3  1  0.17424  0.34848  0.95280  1
 Si  Si4  1  0.65152  0.82576  0.95280  1
 Si  Si5  1  0.82576  0.65152  0.45280  1
 Si  Si6  1  0.17424  0.82576  0.95280  1
 Si  Si7  1  0.00000  0.00000  0.18685  1
 Si  Si8  1  0.00000  0.00000  0.68685  1
 Yb  Yb1  1  0.33333  0.66667  0.26506  1
 Yb  Yb2  1  0.66667  0.33333  0.76506  1
