CIF file written using JARVIS-Tools package.
data_Ba2Si2CuO7
_symmetry_space_group_name_H-M  'C2/c'
_cell_length_a       6.82686
_cell_length_b       6.82686
_cell_length_c       8.60167
_cell_angle_alpha    102.795
_cell_angle_beta     102.795
_cell_angle_gamma    101.299

_symmetry_Int_Tables_number  15
_chemical_formula_structural  Ba2Si2CuO7
_chemical_formula_sum  Ba4Si4Cu2O4
_cell_volume  368.3594701888674
_cell_formula_units_Z  2
loop_
  _symmetry_equiv_pos_site_id
 _symmetry_equiv_pos_as_xyz
 1  'x, y, z'
loop_
 _atom_site_type_symbol
 _atom_site_label
 _atom_site_symmetry_multiplicity
 _atom_site_fract_x
 _atom_site_fract_y
 _atom_site_fract_z
 _atom_site_fract_occupancy
 Ba  Ba1  1  0.18692  0.26988  0.97145  1
 Ba  Ba2  1  0.26988  0.18692  0.47145  1
 Ba  Ba3  1  0.73012  0.81308  0.52855  1
 Ba  Ba4  1  0.81308  0.73012  0.02855  1
 Cu  Cu1  1  0.73900  0.26100  0.25000  1
 Cu  Cu2  1  0.26100  0.73900  0.75000  1
 O  O1  1  0.37256  0.03161  0.75747  1
 O  O2  1  0.77764  0.01612  0.86498  1
 O  O3  1  0.98388  0.22236  0.63502  1
 O  O4  1  0.32990  0.67010  0.25000  1
 O  O5  1  0.69104  0.38155  0.46156  1
 O  O6  1  0.62744  0.96839  0.24253  1
 O  O7  1  0.38155  0.69104  0.96156  1
 O  O8  1  0.01612  0.77764  0.36498  1
 O  O9  1  0.96839  0.62744  0.74253  1
 O  O10  1  0.30896  0.61845  0.53844  1
 O  O11  1  0.22236  0.98388  0.13502  1
 O  O12  1  0.03161  0.37256  0.25747  1
 O  O13  1  0.67010  0.32990  0.75000  1
 O  O14  1  0.61845  0.30896  0.03844  1
 Si  Si1  1  0.84140  0.38579  0.64088  1
 Si  Si2  1  0.15860  0.61421  0.35912  1
 Si  Si3  1  0.61421  0.15860  0.85912  1
 Si  Si4  1  0.38579  0.84140  0.14088  1
