CIF file written using JARVIS-Tools package.
data_Nd3Si2ClO8
_symmetry_space_group_name_H-M  'C2/c'
_cell_length_a       6.44073
_cell_length_b       7.78528
_cell_length_c       8.8263
_cell_angle_alpha    97.665
_cell_angle_beta     90
_cell_angle_gamma    114.434

_symmetry_Int_Tables_number  15
_chemical_formula_structural  Nd3Si2ClO8
_chemical_formula_sum  Nd6Si4Cl2O6
_cell_volume  398.5903380293478
_cell_formula_units_Z  2
loop_
  _symmetry_equiv_pos_site_id
 _symmetry_equiv_pos_as_xyz
 1  'x, y, z'
loop_
 _atom_site_type_symbol
 _atom_site_label
 _atom_site_symmetry_multiplicity
 _atom_site_fract_x
 _atom_site_fract_y
 _atom_site_fract_z
 _atom_site_fract_occupancy
 Cl  Cl1  1  0.52565  0.00000  0.25000  1
 Cl  Cl2  1  0.47435  -0.00000  0.75000  1
 Nd  Nd1  1  0.79096  0.37036  0.17115  1
 Nd  Nd2  1  0.42060  0.62964  0.32885  1
 Nd  Nd3  1  0.57940  0.37036  0.67115  1
 Nd  Nd4  1  0.92338  -0.00000  0.75000  1
 Nd  Nd5  1  0.20904  0.62964  0.82885  1
 Nd  Nd6  1  0.07662  0.00000  0.25000  1
 O  O1  1  0.09529  0.71243  0.35456  1
 O  O2  1  0.20500  0.52546  0.08139  1
 O  O3  1  0.94808  0.15364  0.03144  1
 O  O4  1  0.04212  0.30855  0.34374  1
 O  O5  1  0.38285  0.28757  0.14544  1
 O  O6  1  0.73358  0.69145  0.15626  1
 O  O7  1  0.95788  0.69145  0.65626  1
 O  O8  1  0.32046  0.52546  0.58139  1
 O  O9  1  0.61715  0.71243  0.85456  1
 O  O10  1  0.67954  0.47454  0.41861  1
 O  O11  1  0.79500  0.47454  0.91861  1
 O  O12  1  0.90471  0.28757  0.64544  1
 O  O13  1  0.05192  0.84636  0.96856  1
 O  O14  1  0.26642  0.30855  0.84374  1
 O  O15  1  0.79444  0.84636  0.46856  1
 O  O16  1  0.20556  0.15364  0.53144  1
 Si  Si1  1  0.10394  0.31614  0.52489  1
 Si  Si2  1  0.21220  0.31614  0.02489  1
 Si  Si3  1  0.78780  0.68386  0.97511  1
 Si  Si4  1  0.89606  0.68386  0.47511  1
