CIF file written using JARVIS-Tools package.
data_ScGa5Fe
_symmetry_space_group_name_H-M  'P4/mmm'
_cell_length_a       4.13578
_cell_length_b       4.13578
_cell_length_c       6.67018
_cell_angle_alpha    90
_cell_angle_beta     90
_cell_angle_gamma    90

_symmetry_Int_Tables_number  123
_chemical_formula_structural  ScGa5Fe
_chemical_formula_sum  ScGa5Fe
_cell_volume  114.09112556841978
_cell_formula_units_Z  1
loop_
  _symmetry_equiv_pos_site_id
 _symmetry_equiv_pos_as_xyz
 1  'x, y, z'
loop_
 _atom_site_type_symbol
 _atom_site_label
 _atom_site_symmetry_multiplicity
 _atom_site_fract_x
 _atom_site_fract_y
 _atom_site_fract_z
 _atom_site_fract_occupancy
 Fe  Fe1  1  0.00000  0.00000  0.50000  1
 Ga  Ga1  1  0.00000  0.50000  0.30436  1
 Ga  Ga2  1  0.00000  0.50000  0.69564  1
 Ga  Ga3  1  0.50000  0.00000  0.30436  1
 Ga  Ga4  1  0.50000  0.00000  0.69564  1
 Ga  Ga5  1  0.50000  0.50000  0.00000  1
 Sc  Sc1  1  0.00000  0.00000  0.00000  1
