CIF file written using JARVIS-Tools package.
data_Na4Al3Si3ClO12
_symmetry_space_group_name_H-M  'P-43n'
_cell_length_a       8.9256
_cell_length_b       8.9256
_cell_length_c       8.9256
_cell_angle_alpha    90
_cell_angle_beta     90
_cell_angle_gamma    90

_symmetry_Int_Tables_number  218
_chemical_formula_structural  Na4Al3Si3ClO12
_chemical_formula_sum  Na8Al6Si6Cl2O24
_cell_volume  711.0708526294472
_cell_formula_units_Z  2
loop_
  _symmetry_equiv_pos_site_id
 _symmetry_equiv_pos_as_xyz
 1  'x, y, z'
loop_
 _atom_site_type_symbol
 _atom_site_label
 _atom_site_symmetry_multiplicity
 _atom_site_fract_x
 _atom_site_fract_y
 _atom_site_fract_z
 _atom_site_fract_occupancy
 Al  Al1  1  0.50000  0.25000  0.00000  1
 Al  Al2  1  0.00000  0.50000  0.25000  1
 Al  Al3  1  0.25000  0.00000  0.50000  1
 Al  Al4  1  0.50000  0.75000  0.00000  1
 Al  Al5  1  0.00000  0.50000  0.75000  1
 Al  Al6  1  0.75000  0.00000  0.50000  1
 Cl  Cl1  1  0.50000  0.50000  0.50000  1
 Cl  Cl2  1  0.00000  0.00000  0.00000  1
 Na  Na1  1  0.32432  0.67568  0.32432  1
 Na  Na2  1  0.82432  0.82432  0.17568  1
 Na  Na3  1  0.17568  0.82432  0.82432  1
 Na  Na4  1  0.17568  0.17568  0.17568  1
 Na  Na5  1  0.67568  0.67568  0.67568  1
 Na  Na6  1  0.67568  0.32432  0.32432  1
 Na  Na7  1  0.82432  0.17568  0.82432  1
 Na  Na8  1  0.32432  0.32432  0.67568  1
 O  O1  1  0.14851  0.56624  0.86171  1
 O  O2  1  0.36171  0.06624  0.64851  1
 O  O3  1  0.64851  0.63829  0.93376  1
 O  O4  1  0.56624  0.86171  0.14851  1
 O  O5  1  0.13829  0.14851  0.43376  1
 O  O6  1  0.63829  0.93376  0.64851  1
 O  O7  1  0.63829  0.06624  0.35149  1
 O  O8  1  0.13829  0.85149  0.56624  1
 O  O9  1  0.43376  0.13829  0.14851  1
 O  O10  1  0.64851  0.36171  0.06624  1
 O  O11  1  0.86171  0.85149  0.43376  1
 O  O12  1  0.35149  0.63829  0.06624  1
 O  O13  1  0.06624  0.35149  0.63829  1
 O  O14  1  0.14851  0.43376  0.13829  1
 O  O15  1  0.35149  0.36171  0.93376  1
 O  O16  1  0.56624  0.13829  0.85149  1
 O  O17  1  0.93376  0.64851  0.63829  1
 O  O18  1  0.86171  0.14851  0.56624  1
 O  O19  1  0.85149  0.43376  0.86171  1
 O  O20  1  0.93376  0.35149  0.36171  1
 O  O21  1  0.85149  0.56624  0.13829  1
 O  O22  1  0.36171  0.93376  0.35149  1
 O  O23  1  0.06624  0.64851  0.36171  1
 O  O24  1  0.43376  0.86171  0.85149  1
 Si  Si1  1  0.50000  0.00000  0.25000  1
 Si  Si2  1  0.00000  0.25000  0.50000  1
 Si  Si3  1  0.25000  0.50000  0.00000  1
 Si  Si4  1  0.00000  0.75000  0.50000  1
 Si  Si5  1  0.75000  0.50000  0.00000  1
 Si  Si6  1  0.50000  0.00000  0.75000  1
