CIF file written using JARVIS-Tools package.
data_BaPPt
_symmetry_space_group_name_H-M  'P2_13'
_cell_length_a       6.61354
_cell_length_b       6.61354
_cell_length_c       6.61354
_cell_angle_alpha    90
_cell_angle_beta     90
_cell_angle_gamma    90

_symmetry_Int_Tables_number  198
_chemical_formula_structural  BaPPt
_chemical_formula_sum  Ba4P4Pt4
_cell_volume  289.269456214193
_cell_formula_units_Z  4
loop_
  _symmetry_equiv_pos_site_id
 _symmetry_equiv_pos_as_xyz
 1  'x, y, z'
loop_
 _atom_site_type_symbol
 _atom_site_label
 _atom_site_symmetry_multiplicity
 _atom_site_fract_x
 _atom_site_fract_y
 _atom_site_fract_z
 _atom_site_fract_occupancy
 Ba  Ba1  1  0.64013  0.35987  0.85987  1
 Ba  Ba2  1  0.35987  0.85987  0.64013  1
 Ba  Ba3  1  0.14013  0.14013  0.14013  1
 Ba  Ba4  1  0.85987  0.64013  0.35987  1
 P  P1  1  0.58210  0.91790  0.08210  1
 P  P2  1  0.08210  0.58210  0.91790  1
 P  P3  1  0.91790  0.08210  0.58210  1
 P  P4  1  0.41790  0.41790  0.41790  1
 Pt  Pt1  1  0.15160  0.34840  0.65160  1
 Pt  Pt2  1  0.65160  0.15160  0.34840  1
 Pt  Pt3  1  0.84840  0.84840  0.84840  1
 Pt  Pt4  1  0.34840  0.65160  0.15160  1
