CIF file written using JARVIS-Tools package.
data_ScB4Ir3
_symmetry_space_group_name_H-M  'P6_3/m'
_cell_length_a       7.65018
_cell_length_b       7.65018
_cell_length_c       3.469
_cell_angle_alpha    90
_cell_angle_beta     90
_cell_angle_gamma    120

_symmetry_Int_Tables_number  176
_chemical_formula_structural  ScB4Ir3
_chemical_formula_sum  Sc2B8Ir6
_cell_volume  175.824361306843
_cell_formula_units_Z  2
loop_
  _symmetry_equiv_pos_site_id
 _symmetry_equiv_pos_as_xyz
 1  'x, y, z'
loop_
 _atom_site_type_symbol
 _atom_site_label
 _atom_site_symmetry_multiplicity
 _atom_site_fract_x
 _atom_site_fract_y
 _atom_site_fract_z
 _atom_site_fract_occupancy
 B  B1  1  0.59991  0.54854  0.75000  1
 B  B2  1  0.05137  0.59991  0.25000  1
 B  B3  1  0.54854  0.94863  0.25000  1
 B  B4  1  0.45146  0.05137  0.75000  1
 B  B5  1  0.00000  0.00000  0.00000  1
 B  B6  1  0.40009  0.45146  0.25000  1
 B  B7  1  0.00000  0.00000  0.50000  1
 B  B8  1  0.94863  0.40009  0.75000  1
 Ir  Ir1  1  0.74487  0.07656  0.75000  1
 Ir  Ir2  1  0.33170  0.25513  0.75000  1
 Ir  Ir3  1  0.66830  0.74487  0.25000  1
 Ir  Ir4  1  0.07656  0.33170  0.25000  1
 Ir  Ir5  1  0.25513  0.92344  0.25000  1
 Ir  Ir6  1  0.92344  0.66830  0.75000  1
 Sc  Sc1  1  0.33333  0.66667  0.75000  1
 Sc  Sc2  1  0.66667  0.33333  0.25000  1
