CIF file written using JARVIS-Tools package.
data_CaAlSiO4F
_symmetry_space_group_name_H-M  'C2/c'
_cell_length_a       5.37771
_cell_length_b       5.3777
_cell_length_c       6.97633
_cell_angle_alpha    104.678
_cell_angle_beta     104.678
_cell_angle_gamma    105.828

_symmetry_Int_Tables_number  15
_chemical_formula_structural  CaAlSiO4F
_chemical_formula_sum  Ca2Al2Si2O8F2
_cell_volume  176.13459738904416
_cell_formula_units_Z  2
loop_
  _symmetry_equiv_pos_site_id
 _symmetry_equiv_pos_as_xyz
 1  'x, y, z'
loop_
 _atom_site_type_symbol
 _atom_site_label
 _atom_site_symmetry_multiplicity
 _atom_site_fract_x
 _atom_site_fract_y
 _atom_site_fract_z
 _atom_site_fract_occupancy
 Al  Al1  1  0.50000  0.50000  0.50000  1
 Al  Al2  1  0.50000  0.50000  0.00000  1
 Ca  Ca1  1  0.83578  0.16422  0.25000  1
 Ca  Ca2  1  0.16422  0.83578  0.75000  1
 F  F1  1  0.56845  0.43155  0.25000  1
 F  F2  1  0.43155  0.56845  0.75000  1
 O  O1  1  0.39338  0.80408  0.11122  1
 O  O2  1  0.19592  0.60662  0.38878  1
 O  O3  1  0.60662  0.19592  0.88878  1
 O  O4  1  0.80408  0.39338  0.61122  1
 O  O5  1  0.86921  0.73933  0.09136  1
 O  O6  1  0.13079  0.26067  0.90864  1
 O  O7  1  0.26067  0.13079  0.40864  1
 O  O8  1  0.73933  0.86921  0.59136  1
 Si  Si1  1  0.18540  0.81460  0.25000  1
 Si  Si2  1  0.81460  0.18540  0.75000  1
