CIF file written using JARVIS-Tools package.
data_MgFe6Ge6
_symmetry_space_group_name_H-M  'P6/mmm'
_cell_length_a       5.07963
_cell_length_b       5.07963
_cell_length_c       7.7696
_cell_angle_alpha    90
_cell_angle_beta     90
_cell_angle_gamma    120

_symmetry_Int_Tables_number  191
_chemical_formula_structural  MgFe6Ge6
_chemical_formula_sum  MgFe6Ge6
_cell_volume  173.61719797232115
_cell_formula_units_Z  1
loop_
  _symmetry_equiv_pos_site_id
 _symmetry_equiv_pos_as_xyz
 1  'x, y, z'
loop_
 _atom_site_type_symbol
 _atom_site_label
 _atom_site_symmetry_multiplicity
 _atom_site_fract_x
 _atom_site_fract_y
 _atom_site_fract_z
 _atom_site_fract_occupancy
 Fe  Fe1  1  0.50000  -0.00000  0.24913  1
 Fe  Fe2  1  0.50000  0.50000  0.24913  1
 Fe  Fe3  1  -0.00000  0.50000  0.24913  1
 Fe  Fe4  1  0.50000  -0.00000  0.75087  1
 Fe  Fe5  1  0.50000  0.50000  0.75087  1
 Fe  Fe6  1  -0.00000  0.50000  0.75087  1
 Ge  Ge1  1  0.00000  0.00000  0.33739  1
 Ge  Ge2  1  0.00000  0.00000  0.66261  1
 Ge  Ge3  1  0.33333  0.66667  0.00000  1
 Ge  Ge4  1  0.66667  0.33333  0.00000  1
 Ge  Ge5  1  0.33333  0.66667  0.50000  1
 Ge  Ge6  1  0.66667  0.33333  0.50000  1
 Mg  Mg1  1  0.00000  0.00000  0.00000  1
