CIF file written using JARVIS-Tools package.
data_BaAl2Si3N4O4
_symmetry_space_group_name_H-M  'Cmc2_1'
_cell_length_a       5.77423
_cell_length_b       7.3924
_cell_length_c       9.59465
_cell_angle_alpha    90
_cell_angle_beta     90
_cell_angle_gamma    112.989

_symmetry_Int_Tables_number  36
_chemical_formula_structural  BaAl2Si3N4O4
_chemical_formula_sum  Ba2Al4Si6N8O8
_cell_volume  377.02530371397023
_cell_formula_units_Z  2
loop_
  _symmetry_equiv_pos_site_id
 _symmetry_equiv_pos_as_xyz
 1  'x, y, z'
loop_
 _atom_site_type_symbol
 _atom_site_label
 _atom_site_symmetry_multiplicity
 _atom_site_fract_x
 _atom_site_fract_y
 _atom_site_fract_z
 _atom_site_fract_occupancy
 Al  Al1  1  0.47341  0.94681  0.25489  1
 Al  Al2  1  0.52659  0.05319  0.75489  1
 Al  Al3  1  0.28735  0.57470  0.03814  1
 Al  Al4  1  0.71265  0.42530  0.53814  1
 Ba  Ba1  1  0.98424  0.96849  0.50128  1
 Ba  Ba2  1  0.01576  0.03151  0.00128  1
 N  N1  1  0.28680  0.57360  0.84536  1
 N  N2  1  0.20820  0.41639  0.35113  1
 N  N3  1  0.71320  0.42640  0.34536  1
 N  N4  1  0.79180  0.58361  0.85113  1
 N  N5  1  0.95725  0.42208  0.08922  1
 N  N6  1  0.46484  0.42208  0.08922  1
 N  N7  1  0.04275  0.57792  0.58922  1
 N  N8  1  0.53516  0.57792  0.58922  1
 O  O1  1  0.59301  0.18602  0.91160  1
 O  O2  1  0.40734  0.81468  0.10139  1
 O  O3  1  0.80111  0.10034  0.26012  1
 O  O4  1  0.29923  0.10034  0.26012  1
 O  O5  1  0.19889  0.89966  0.76012  1
 O  O6  1  0.70077  0.89966  0.76012  1
 O  O7  1  0.40699  0.81398  0.41160  1
 O  O8  1  0.59266  0.18532  0.60139  1
 Si  Si1  1  0.57078  0.65212  0.76160  1
 Si  Si2  1  0.08134  0.65212  0.76160  1
 Si  Si3  1  0.42922  0.34788  0.26160  1
 Si  Si4  1  0.91866  0.34788  0.26160  1
 Si  Si5  1  0.70221  0.40443  0.98665  1
 Si  Si6  1  0.29779  0.59557  0.48665  1
