CIF file written using JARVIS-Tools package.
data_Ba2MgB6O12
_symmetry_space_group_name_H-M  'R-3'
_cell_length_a       6.88961
_cell_length_b       6.88952
_cell_length_c       6.88976
_cell_angle_alpha    62.2648
_cell_angle_beta     62.2644
_cell_angle_gamma    62.2651

_symmetry_Int_Tables_number  148
_chemical_formula_structural  Ba2MgB6O12
_chemical_formula_sum  Ba2MgB6O2
_cell_volume  242.93679563260037
_cell_formula_units_Z  1
loop_
  _symmetry_equiv_pos_site_id
 _symmetry_equiv_pos_as_xyz
 1  'x, y, z'
loop_
 _atom_site_type_symbol
 _atom_site_label
 _atom_site_symmetry_multiplicity
 _atom_site_fract_x
 _atom_site_fract_y
 _atom_site_fract_z
 _atom_site_fract_occupancy
 B  B1  1  0.36337  0.64496  0.75683  1
 B  B2  1  0.64496  0.75683  0.36337  1
 B  B3  1  0.75683  0.36337  0.64496  1
 B  B4  1  0.63663  0.35504  0.24317  1
 B  B5  1  0.35504  0.24317  0.63663  1
 B  B6  1  0.24317  0.63663  0.35504  1
 Ba  Ba1  1  0.21285  0.21285  0.21285  1
 Ba  Ba2  1  0.78715  0.78715  0.78715  1
 Mg  Mg1  1  0.00000  0.00000  0.00000  1
 O  O1  1  0.91575  0.15811  0.68792  1
 O  O2  1  0.57283  0.19641  0.46465  1
 O  O3  1  0.68792  0.91575  0.15811  1
 O  O4  1  0.08425  0.84189  0.31208  1
 O  O5  1  0.15811  0.68791  0.91575  1
 O  O6  1  0.80359  0.53535  0.42717  1
 O  O7  1  0.53535  0.42717  0.80359  1
 O  O8  1  0.42717  0.80359  0.53535  1
 O  O9  1  0.84189  0.31209  0.08425  1
 O  O10  1  0.46465  0.57283  0.19641  1
 O  O11  1  0.31208  0.08425  0.84189  1
 O  O12  1  0.19641  0.46465  0.57283  1
