CIF file written using JARVIS-Tools package.
data_DyIn3Cu2
_symmetry_space_group_name_H-M  'P6/mmm'
_cell_length_a       5.83976
_cell_length_b       5.83976
_cell_length_c       4.23725
_cell_angle_alpha    90
_cell_angle_beta     90
_cell_angle_gamma    120

_symmetry_Int_Tables_number  191
_chemical_formula_structural  DyIn3Cu2
_chemical_formula_sum  DyIn3Cu2
_cell_volume  125.14238985871641
_cell_formula_units_Z  1
loop_
  _symmetry_equiv_pos_site_id
 _symmetry_equiv_pos_as_xyz
 1  'x, y, z'
loop_
 _atom_site_type_symbol
 _atom_site_label
 _atom_site_symmetry_multiplicity
 _atom_site_fract_x
 _atom_site_fract_y
 _atom_site_fract_z
 _atom_site_fract_occupancy
 Cu  Cu1  1  0.66667  0.33333  0.00000  1
 Cu  Cu2  1  0.33333  0.66667  0.00000  1
 Dy  Dy1  1  0.00000  0.00000  0.00000  1
 In  In1  1  0.50000  -0.00000  0.50000  1
 In  In2  1  0.00000  0.50000  0.50000  1
 In  In3  1  0.50000  0.50000  0.50000  1
