data_image0
_chemical_formula_structural       Ba2Mn3O2Sb2
_chemical_formula_sum              "Ba2 Mn3 O2 Sb2"
_cell_length_a       4.41534
_cell_length_b       4.41534
_cell_length_c       10.9876
_cell_angle_alpha    101.591
_cell_angle_beta     101.591
_cell_angle_gamma    90

_space_group_name_H-M_alt    "P 1"
_space_group_IT_number       1

loop_
  _space_group_symop_operation_xyz
  'x, y, z'

loop_
  _atom_site_type_symbol
  _atom_site_label
  _atom_site_symmetry_multiplicity
  _atom_site_fract_x
  _atom_site_fract_y
  _atom_site_fract_z
  _atom_site_occupancy
  Ba  Ba1       1.0  0.58200  0.58200  0.16400  1.0000
  Ba  Ba2       1.0  0.41800  0.41800  0.83600  1.0000
  Mn  Mn1       1.0  0.00000  0.00000  0.00000  1.0000
  Mn  Mn2       1.0  0.75000  0.25000  0.50000  1.0000
  Mn  Mn3       1.0  0.25000  0.75000  0.50000  1.0000
  O   O1        1.0  0.50000  0.00000  0.00000  1.0000
  O   O2        1.0  0.00000  0.50000  0.00000  1.0000
  Sb  Sb1       1.0  0.16600  0.16600  0.33200  1.0000
  Sb  Sb2       1.0  0.83400  0.83400  0.66800  1.0000
