CIF file written using JARVIS-Tools package.
data_Sr3Hg2
_symmetry_space_group_name_H-M  'P4/mbm'
_cell_length_a       8.95964
_cell_length_b       8.95964
_cell_length_c       4.4509
_cell_angle_alpha    90
_cell_angle_beta     90
_cell_angle_gamma    90

_symmetry_Int_Tables_number  127
_chemical_formula_structural  Sr3Hg2
_chemical_formula_sum  Sr6Hg4
_cell_volume  357.29683586268493
_cell_formula_units_Z  2
loop_
  _symmetry_equiv_pos_site_id
 _symmetry_equiv_pos_as_xyz
 1  'x, y, z'
loop_
 _atom_site_type_symbol
 _atom_site_label
 _atom_site_symmetry_multiplicity
 _atom_site_fract_x
 _atom_site_fract_y
 _atom_site_fract_z
 _atom_site_fract_occupancy
 Hg  Hg1  1  0.14330  0.64330  0.00000  1
 Hg  Hg2  1  0.64330  0.85670  0.00000  1
 Hg  Hg3  1  0.35670  0.14330  0.00000  1
 Hg  Hg4  1  0.85670  0.35670  0.00000  1
 Sr  Sr1  1  0.50000  0.50000  0.00000  1
 Sr  Sr2  1  0.00000  0.00000  0.00000  1
 Sr  Sr3  1  0.34662  0.84662  0.50000  1
 Sr  Sr4  1  0.84662  0.65338  0.50000  1
 Sr  Sr5  1  0.65338  0.15338  0.50000  1
 Sr  Sr6  1  0.15338  0.34662  0.50000  1
