CIF file written using JARVIS-Tools package.
data_NbCl3O
_symmetry_space_group_name_H-M  'P-42_1m'
_cell_length_a       10.862
_cell_length_b       10.862
_cell_length_c       3.93604
_cell_angle_alpha    90
_cell_angle_beta     90
_cell_angle_gamma    90

_symmetry_Int_Tables_number  113
_chemical_formula_structural  NbCl3O
_chemical_formula_sum  Nb4Cl2O4
_cell_volume  464.3866747233866
_cell_formula_units_Z  4
loop_
  _symmetry_equiv_pos_site_id
 _symmetry_equiv_pos_as_xyz
 1  'x, y, z'
loop_
 _atom_site_type_symbol
 _atom_site_label
 _atom_site_symmetry_multiplicity
 _atom_site_fract_x
 _atom_site_fract_y
 _atom_site_fract_z
 _atom_site_fract_occupancy
 Cl  Cl1  1  0.39223  0.33893  0.75286  1
 Cl  Cl2  1  0.10657  0.39343  0.23948  1
 Cl  Cl3  1  0.83893  0.89223  0.75286  1
 Cl  Cl4  1  0.16107  0.10777  0.75286  1
 Cl  Cl5  1  0.10777  0.83893  0.24714  1
 Cl  Cl6  1  0.33893  0.60777  0.24714  1
 Cl  Cl7  1  0.66107  0.39223  0.24714  1
 Cl  Cl8  1  0.60657  0.10657  0.76052  1
 Cl  Cl9  1  0.89223  0.16107  0.24714  1
 Cl  Cl10  1  0.39343  0.89343  0.76052  1
 Cl  Cl11  1  0.60777  0.66107  0.75286  1
 Cl  Cl12  1  0.89343  0.60657  0.23948  1
 Nb  Nb1  1  0.62866  0.87134  0.70550  1
 Nb  Nb2  1  0.87134  0.37134  0.29450  1
 Nb  Nb3  1  0.37134  0.12866  0.70550  1
 Nb  Nb4  1  0.12866  0.62866  0.29450  1
 O  O1  1  0.11677  0.61677  0.75576  1
 O  O2  1  0.61677  0.88323  0.24424  1
 O  O3  1  0.38323  0.11677  0.24424  1
 O  O4  1  0.88323  0.38323  0.75576  1
