CIF file written using JARVIS-Tools package.
data_CaMgSi
_symmetry_space_group_name_H-M  'Pnma'
_cell_length_a       4.42195
_cell_length_b       7.45279
_cell_length_c       8.29627
_cell_angle_alpha    90
_cell_angle_beta     90
_cell_angle_gamma    90

_symmetry_Int_Tables_number  62
_chemical_formula_structural  CaMgSi
_chemical_formula_sum  Ca4Mg4Si4
_cell_volume  273.4101970565835
_cell_formula_units_Z  4
loop_
  _symmetry_equiv_pos_site_id
 _symmetry_equiv_pos_as_xyz
 1  'x, y, z'
loop_
 _atom_site_type_symbol
 _atom_site_label
 _atom_site_symmetry_multiplicity
 _atom_site_fract_x
 _atom_site_fract_y
 _atom_site_fract_z
 _atom_site_fract_occupancy
 Ca  Ca1  1  0.25000  0.01938  0.18082  1
 Ca  Ca2  1  0.75000  0.98062  0.81918  1
 Ca  Ca3  1  0.25000  0.51938  0.31918  1
 Ca  Ca4  1  0.75000  0.48062  0.68082  1
 Mg  Mg1  1  0.75000  0.85535  0.43629  1
 Mg  Mg2  1  0.25000  0.64465  0.93629  1
 Mg  Mg3  1  0.75000  0.35535  0.06371  1
 Mg  Mg4  1  0.25000  0.14465  0.56371  1
 Si  Si1  1  0.25000  0.26940  0.88492  1
 Si  Si2  1  0.75000  0.23060  0.38492  1
 Si  Si3  1  0.25000  0.76940  0.61508  1
 Si  Si4  1  0.75000  0.73060  0.11508  1
