CIF file written using JARVIS-Tools package.
data_Na4Al3Si3BrO12
_symmetry_space_group_name_H-M  'P-43n'
_cell_length_a       8.98093
_cell_length_b       8.98093
_cell_length_c       8.98093
_cell_angle_alpha    90
_cell_angle_beta     90
_cell_angle_gamma    90

_symmetry_Int_Tables_number  218
_chemical_formula_structural  Na4Al3Si3BrO12
_chemical_formula_sum  Na8Al6Si6Br2O24
_cell_volume  724.3747463611818
_cell_formula_units_Z  2
loop_
  _symmetry_equiv_pos_site_id
 _symmetry_equiv_pos_as_xyz
 1  'x, y, z'
loop_
 _atom_site_type_symbol
 _atom_site_label
 _atom_site_symmetry_multiplicity
 _atom_site_fract_x
 _atom_site_fract_y
 _atom_site_fract_z
 _atom_site_fract_occupancy
 Al  Al1  1  0.50000  0.00000  0.75000  1
 Al  Al2  1  0.50000  0.00000  0.25000  1
 Al  Al3  1  0.00000  0.25000  0.50000  1
 Al  Al4  1  0.75000  0.50000  0.00000  1
 Al  Al5  1  0.25000  0.50000  0.00000  1
 Al  Al6  1  0.00000  0.75000  0.50000  1
 Br  Br1  1  0.00000  0.00000  0.00000  1
 Br  Br2  1  0.50000  0.50000  0.50000  1
 Na  Na1  1  0.81639  0.18361  0.81639  1
 Na  Na2  1  0.81639  0.81639  0.18361  1
 Na  Na3  1  0.68361  0.31639  0.31639  1
 Na  Na4  1  0.31639  0.31639  0.68361  1
 Na  Na5  1  0.31639  0.68361  0.31639  1
 Na  Na6  1  0.68361  0.68361  0.68361  1
 Na  Na7  1  0.18361  0.81639  0.81639  1
 Na  Na8  1  0.18361  0.18361  0.18361  1
 O  O1  1  0.85050  0.13943  0.56193  1
 O  O2  1  0.35050  0.06193  0.63943  1
 O  O3  1  0.13943  0.56193  0.85050  1
 O  O4  1  0.86057  0.43807  0.85050  1
 O  O5  1  0.86057  0.56193  0.14950  1
 O  O6  1  0.06193  0.36057  0.64950  1
 O  O7  1  0.36057  0.35050  0.93807  1
 O  O8  1  0.35050  0.93807  0.36057  1
 O  O9  1  0.64950  0.93807  0.63943  1
 O  O10  1  0.63943  0.35050  0.06193  1
 O  O11  1  0.63943  0.64950  0.93807  1
 O  O12  1  0.85050  0.86057  0.43807  1
 O  O13  1  0.93807  0.63943  0.64950  1
 O  O14  1  0.56193  0.14950  0.86057  1
 O  O15  1  0.36057  0.64950  0.06193  1
 O  O16  1  0.56193  0.85050  0.13943  1
 O  O17  1  0.43807  0.14950  0.13943  1
 O  O18  1  0.14950  0.13943  0.43807  1
 O  O19  1  0.06193  0.63943  0.35050  1
 O  O20  1  0.93807  0.36057  0.35050  1
 O  O21  1  0.13943  0.43807  0.14950  1
 O  O22  1  0.43807  0.85050  0.86057  1
 O  O23  1  0.14950  0.86057  0.56193  1
 O  O24  1  0.64950  0.06193  0.36057  1
 Si  Si1  1  0.75000  0.00000  0.50000  1
 Si  Si2  1  0.25000  0.00000  0.50000  1
 Si  Si3  1  0.00000  0.50000  0.75000  1
 Si  Si4  1  0.00000  0.50000  0.25000  1
 Si  Si5  1  0.50000  0.75000  0.00000  1
 Si  Si6  1  0.50000  0.25000  0.00000  1
