CIF file written using JARVIS-Tools package.
data_Ba3Si2B6O16
_symmetry_space_group_name_H-M  'P-1'
_cell_length_a       5.06715
_cell_length_b       7.59262
_cell_length_c       8.60064
_cell_angle_alpha    102.814
_cell_angle_beta     102.318
_cell_angle_gamma    87.6335

_symmetry_Int_Tables_number  2
_chemical_formula_structural  Ba3Si2B6O16
_chemical_formula_sum  Ba3Si2B6O6
_cell_volume  315.216485230626
_cell_formula_units_Z  1
loop_
  _symmetry_equiv_pos_site_id
 _symmetry_equiv_pos_as_xyz
 1  'x, y, z'
loop_
 _atom_site_type_symbol
 _atom_site_label
 _atom_site_symmetry_multiplicity
 _atom_site_fract_x
 _atom_site_fract_y
 _atom_site_fract_z
 _atom_site_fract_occupancy
 B  B1  1  0.81593  0.75769  0.20349  1
 B  B2  1  0.03102  0.69328  0.47477  1
 B  B3  1  0.18407  0.24231  0.79651  1
 B  B4  1  0.96898  0.30672  0.52523  1
 B  B5  1  0.97829  0.09152  0.24821  1
 B  B6  1  0.02171  0.90848  0.75179  1
 Ba  Ba1  1  0.50000  -0.00000  0.50000  1
 Ba  Ba2  1  0.62034  0.58114  0.76654  1
 Ba  Ba3  1  0.37966  0.41886  0.23346  1
 O  O1  1  0.78374  0.17684  0.13405  1
 O  O2  1  0.85567  0.63628  0.32047  1
 O  O3  1  0.22177  0.02910  0.17358  1
 O  O4  1  0.14433  0.36372  0.67953  1
 O  O5  1  0.00389  0.29519  0.91603  1
 O  O6  1  0.99611  0.70481  0.08397  1
 O  O7  1  0.21626  0.82316  0.86595  1
 O  O8  1  0.90521  0.77092  0.60360  1
 O  O9  1  0.13336  0.05659  0.70455  1
 O  O10  1  0.52773  0.72515  0.11131  1
 O  O11  1  0.47227  0.27485  0.88869  1
 O  O12  1  0.09479  0.22908  0.39640  1
 O  O13  1  0.86664  0.94341  0.29545  1
 O  O14  1  0.29921  0.67454  0.49378  1
 O  O15  1  0.70079  0.32546  0.50622  1
 O  O16  1  0.77823  0.97090  0.82642  1
 Si  Si1  1  0.24093  0.82624  0.05922  1
 Si  Si2  1  0.75907  0.17376  0.94078  1
