CIF file written using JARVIS-Tools package.
data_Te2MoW3Se2S4
_symmetry_space_group_name_H-M  'P3m1'
_cell_length_a       3.32094
_cell_length_b       3.32114
_cell_length_c       38.7552
_cell_angle_alpha    89.9959
_cell_angle_beta     90
_cell_angle_gamma    119.998

_symmetry_Int_Tables_number  156
_chemical_formula_structural  Te2MoW3Se2S4
_chemical_formula_sum  Te2MoW3Se2S4
_cell_volume  370.1850987925001
_cell_formula_units_Z  1
loop_
  _symmetry_equiv_pos_site_id
 _symmetry_equiv_pos_as_xyz
 1  'x, y, z'
loop_
 _atom_site_type_symbol
 _atom_site_label
 _atom_site_symmetry_multiplicity
 _atom_site_fract_x
 _atom_site_fract_y
 _atom_site_fract_z
 _atom_site_fract_occupancy
 Mo  Mo1  1  0.66682  0.33364  0.28178  1
 S  S1  1  0.33330  0.66660  0.32106  1
 S  S2  1  0.66665  0.33330  0.05465  1
 S  S3  1  0.66665  0.33330  0.13353  1
 S  S4  1  0.33330  0.66661  0.24248  1
 Se  Se1  1  0.66674  0.33349  0.42455  1
 Se  Se2  1  0.66675  0.33349  0.51143  1
 Te  Te1  1  0.33327  0.66654  0.70842  1
 Te  Te2  1  0.33327  0.66653  0.60966  1
 W  W1  1  0.33327  0.66655  0.09390  1
 W  W2  1  0.33331  0.66663  0.46809  1
 W  W3  1  0.66667  0.33334  0.65920  1
