CIF file written using JARVIS-Tools package.
data_BaZnSO
_symmetry_space_group_name_H-M  'Cmcm'
_cell_length_a       3.97505
_cell_length_b       6.15638
_cell_length_c       6.79286
_cell_angle_alpha    90
_cell_angle_beta     107.013
_cell_angle_gamma    90

_symmetry_Int_Tables_number  63
_chemical_formula_structural  BaZnSO
_chemical_formula_sum  Ba2Zn2S2O2
_cell_volume  158.959723780275
_cell_formula_units_Z  2
loop_
  _symmetry_equiv_pos_site_id
 _symmetry_equiv_pos_as_xyz
 1  'x, y, z'
loop_
 _atom_site_type_symbol
 _atom_site_label
 _atom_site_symmetry_multiplicity
 _atom_site_fract_x
 _atom_site_fract_y
 _atom_site_fract_z
 _atom_site_fract_occupancy
 Ba  Ba1  1  0.60729  0.25000  0.21458  1
 Ba  Ba2  1  0.39271  0.75000  0.78542  1
 O  O1  1  -0.00000  0.50000  -0.00000  1
 O  O2  1  -0.00000  0.00000  -0.00000  1
 S  S1  1  0.69429  0.75000  0.38858  1
 S  S2  1  0.30571  0.25000  0.61142  1
 Zn  Zn1  1  0.09893  0.75000  0.19786  1
 Zn  Zn2  1  0.90107  0.25000  0.80214  1
