CIF file written using JARVIS-Tools package.
data_CrTe2
_symmetry_space_group_name_H-M  'P-3m1'
_cell_length_a       7.66756
_cell_length_b       7.66756
_cell_length_c       12.2833
_cell_angle_alpha    90
_cell_angle_beta     90
_cell_angle_gamma    120

_symmetry_Int_Tables_number  164
_chemical_formula_structural  CrTe2
_chemical_formula_sum  Cr8Te6
_cell_volume  625.4008781630083
_cell_formula_units_Z  8
loop_
  _symmetry_equiv_pos_site_id
 _symmetry_equiv_pos_as_xyz
 1  'x, y, z'
loop_
 _atom_site_type_symbol
 _atom_site_label
 _atom_site_symmetry_multiplicity
 _atom_site_fract_x
 _atom_site_fract_y
 _atom_site_fract_z
 _atom_site_fract_occupancy
 Cr  Cr1  1  0.00000  0.50000  0.74998  1
 Cr  Cr2  1  0.50000  0.50000  0.74998  1
 Cr  Cr3  1  0.00000  0.00000  0.74997  1
 Cr  Cr4  1  0.00000  0.00000  0.25003  1
 Cr  Cr5  1  0.50000  -0.00000  0.74998  1
 Cr  Cr6  1  0.50000  0.00000  0.25002  1
 Cr  Cr7  1  0.50000  0.50000  0.25002  1
 Cr  Cr8  1  -0.00000  0.50000  0.25002  1
 Te  Te1  1  0.16666  0.33333  0.87619  1
 Te  Te2  1  0.16667  0.33335  0.37624  1
 Te  Te3  1  0.33333  0.66667  0.62377  1
 Te  Te4  1  0.83333  0.66665  0.62376  1
 Te  Te5  1  0.16667  0.83333  0.37624  1
 Te  Te6  1  0.16666  0.83334  0.87619  1
 Te  Te7  1  0.33333  0.66667  0.12380  1
 Te  Te8  1  0.83333  0.16667  0.62376  1
 Te  Te9  1  0.33333  0.16666  0.12381  1
 Te  Te10  1  0.33335  0.16667  0.62376  1
 Te  Te11  1  0.66665  0.83333  0.37624  1
 Te  Te12  1  0.83334  0.16666  0.12381  1
 Te  Te13  1  0.66667  0.33333  0.37623  1
 Te  Te14  1  0.66667  0.33333  0.87620  1
 Te  Te15  1  0.66667  0.83334  0.87619  1
 Te  Te16  1  0.83334  0.66667  0.12381  1
