CIF file written using JARVIS-Tools package.
data_Cr4FeCuS8
_symmetry_space_group_name_H-M  'F-43m'
_cell_length_a       6.919
_cell_length_b       6.919
_cell_length_c       6.919
_cell_angle_alpha    60
_cell_angle_beta     60
_cell_angle_gamma    60

_symmetry_Int_Tables_number  216
_chemical_formula_structural  Cr4FeCuS8
_chemical_formula_sum  Cr4FeCuS8
_cell_volume  234.21466897765671
_cell_formula_units_Z  1
loop_
  _symmetry_equiv_pos_site_id
 _symmetry_equiv_pos_as_xyz
 1  'x, y, z'
loop_
 _atom_site_type_symbol
 _atom_site_label
 _atom_site_symmetry_multiplicity
 _atom_site_fract_x
 _atom_site_fract_y
 _atom_site_fract_z
 _atom_site_fract_occupancy
 Cr  Cr1  1  0.62423  0.62423  0.62423  1
 Cr  Cr2  1  0.62423  0.62423  0.12729  1
 Cr  Cr3  1  0.62423  0.12729  0.62423  1
 Cr  Cr4  1  0.12729  0.62423  0.62423  1
 Cu  Cu1  1  0.25000  0.25000  0.25000  1
 Fe  Fe1  1  0.00000  0.00000  0.00000  1
 S  S1  1  0.87159  0.38523  0.87159  1
 S  S2  1  0.38523  0.87159  0.87159  1
 S  S3  1  0.87159  0.87159  0.38523  1
 S  S4  1  0.87159  0.87159  0.87159  1
 S  S5  1  0.38302  0.85093  0.38302  1
 S  S6  1  0.85093  0.38302  0.38302  1
 S  S7  1  0.38302  0.38302  0.38302  1
 S  S8  1  0.38302  0.38302  0.85093  1
