CIF file written using JARVIS-Tools package.
data_Ho2MgGe2
_symmetry_space_group_name_H-M  'P4/mbm'
_cell_length_a       7.21163
_cell_length_b       7.21163
_cell_length_c       4.21401
_cell_angle_alpha    90
_cell_angle_beta     90
_cell_angle_gamma    90

_symmetry_Int_Tables_number  127
_chemical_formula_structural  Ho2MgGe2
_chemical_formula_sum  Ho4Mg2Ge4
_cell_volume  219.1605843074652
_cell_formula_units_Z  2
loop_
  _symmetry_equiv_pos_site_id
 _symmetry_equiv_pos_as_xyz
 1  'x, y, z'
loop_
 _atom_site_type_symbol
 _atom_site_label
 _atom_site_symmetry_multiplicity
 _atom_site_fract_x
 _atom_site_fract_y
 _atom_site_fract_z
 _atom_site_fract_occupancy
 Ge  Ge1  1  0.12475  0.62475  0.00000  1
 Ge  Ge2  1  0.37525  0.12475  0.00000  1
 Ge  Ge3  1  0.62475  0.87525  0.00000  1
 Ge  Ge4  1  0.87525  0.37525  0.00000  1
 Ho  Ho1  1  0.17712  0.32288  0.50000  1
 Ho  Ho2  1  0.32288  0.82288  0.50000  1
 Ho  Ho3  1  0.67712  0.17712  0.50000  1
 Ho  Ho4  1  0.82288  0.67712  0.50000  1
 Mg  Mg1  1  0.00000  0.00000  0.00000  1
 Mg  Mg2  1  0.50000  0.50000  0.00000  1
