CIF file written using JARVIS-Tools package.
data_Dy2Re2Si2C
_symmetry_space_group_name_H-M  'C2/m'
_cell_length_a       3.995
_cell_length_b       5.83572
_cell_length_c       5.99353
_cell_angle_alpha    71.7945
_cell_angle_beta     70.5323
_cell_angle_gamma    69.9836

_symmetry_Int_Tables_number  12
_chemical_formula_structural  Dy2Re2Si2C
_chemical_formula_sum  Dy2Re2Si2C
_cell_volume  120.64231534259355
_cell_formula_units_Z  1
loop_
  _symmetry_equiv_pos_site_id
 _symmetry_equiv_pos_as_xyz
 1  'x, y, z'
loop_
 _atom_site_type_symbol
 _atom_site_label
 _atom_site_symmetry_multiplicity
 _atom_site_fract_x
 _atom_site_fract_y
 _atom_site_fract_z
 _atom_site_fract_occupancy
 C  C1  1  0.00000  0.00000  0.00000  1
 Dy  Dy1  1  0.42780  0.84571  0.29869  1
 Dy  Dy2  1  0.57220  0.15429  0.70131  1
 Re  Re1  1  0.79287  0.32127  0.09298  1
 Re  Re2  1  0.20713  0.67873  0.90702  1
 Si  Si1  1  0.85787  0.60339  0.68086  1
 Si  Si2  1  0.14213  0.39661  0.31914  1
