CIF file written using JARVIS-Tools package.
data_Ba2Cu3Cl2O4
_symmetry_space_group_name_H-M  'I4/mmm'
_cell_length_a       5.56214
_cell_length_b       5.56214
_cell_length_c       8.03444
_cell_angle_alpha    110.252
_cell_angle_beta     110.252
_cell_angle_gamma    90

_symmetry_Int_Tables_number  139
_chemical_formula_structural  Ba2Cu3Cl2O4
_chemical_formula_sum  Ba2Cu3Cl2O4
_cell_volume  216.74680631268046
_cell_formula_units_Z  1
loop_
  _symmetry_equiv_pos_site_id
 _symmetry_equiv_pos_as_xyz
 1  'x, y, z'
loop_
 _atom_site_type_symbol
 _atom_site_label
 _atom_site_symmetry_multiplicity
 _atom_site_fract_x
 _atom_site_fract_y
 _atom_site_fract_z
 _atom_site_fract_occupancy
 Ba  Ba1  1  0.64045  0.64045  0.28090  1
 Ba  Ba2  1  0.35955  0.35955  0.71910  1
 Cl  Cl1  1  0.75000  0.25000  0.50000  1
 Cl  Cl2  1  0.25000  0.75000  0.50000  1
 Cu  Cu1  1  0.00000  0.00000  0.00000  1
 Cu  Cu2  1  0.00000  0.50000  -0.00000  1
 Cu  Cu3  1  0.50000  0.00000  -0.00000  1
 O  O1  1  0.75615  0.24385  0.00000  1
 O  O2  1  0.75615  0.75615  0.00000  1
 O  O3  1  0.24385  0.75615  -0.00000  1
 O  O4  1  0.24385  0.24385  -0.00000  1
