CIF file written using JARVIS-Tools package.
data_TbSiRu
_symmetry_space_group_name_H-M  'Pnma'
_cell_length_a       4.37819
_cell_length_b       7.03451
_cell_length_c       7.07357
_cell_angle_alpha    90
_cell_angle_beta     90
_cell_angle_gamma    90

_symmetry_Int_Tables_number  62
_chemical_formula_structural  TbSiRu
_chemical_formula_sum  Tb4Si4Ru4
_cell_volume  217.85487260289824
_cell_formula_units_Z  4
loop_
  _symmetry_equiv_pos_site_id
 _symmetry_equiv_pos_as_xyz
 1  'x, y, z'
loop_
 _atom_site_type_symbol
 _atom_site_label
 _atom_site_symmetry_multiplicity
 _atom_site_fract_x
 _atom_site_fract_y
 _atom_site_fract_z
 _atom_site_fract_occupancy
 Ru  Ru1  1  0.75000  0.84704  0.56806  1
 Ru  Ru2  1  0.25000  0.15296  0.43194  1
 Ru  Ru3  1  0.75000  0.34704  0.93194  1
 Ru  Ru4  1  0.25000  0.65296  0.06806  1
 Si  Si1  1  0.25000  0.30553  0.10648  1
 Si  Si2  1  0.75000  0.69447  0.89352  1
 Si  Si3  1  0.25000  0.80553  0.39352  1
 Si  Si4  1  0.75000  0.19447  0.60648  1
 Tb  Tb1  1  0.25000  0.98248  0.81471  1
 Tb  Tb2  1  0.75000  0.01752  0.18529  1
 Tb  Tb3  1  0.25000  0.48248  0.68529  1
 Tb  Tb4  1  0.75000  0.51752  0.31471  1
