CIF file written using JARVIS-Tools package.
data_V2C
_symmetry_space_group_name_H-M  'Pbcn'
_cell_length_a       4.53451
_cell_length_b       5.04475
_cell_length_c       5.76234
_cell_angle_alpha    90
_cell_angle_beta     90
_cell_angle_gamma    90

_symmetry_Int_Tables_number  60
_chemical_formula_structural  V2C
_chemical_formula_sum  V8C4
_cell_volume  131.81627585384368
_cell_formula_units_Z  4
loop_
  _symmetry_equiv_pos_site_id
 _symmetry_equiv_pos_as_xyz
 1  'x, y, z'
loop_
 _atom_site_type_symbol
 _atom_site_label
 _atom_site_symmetry_multiplicity
 _atom_site_fract_x
 _atom_site_fract_y
 _atom_site_fract_z
 _atom_site_fract_occupancy
 C  C1  1  0.50000  0.75000  0.87325  1
 C  C2  1  0.00000  0.25000  0.62675  1
 C  C3  1  0.50000  0.25000  0.12675  1
 C  C4  1  0.00000  0.75000  0.37325  1
 V  V1  1  0.24287  0.07584  0.88351  1
 V  V2  1  0.74287  0.92416  0.61649  1
 V  V3  1  0.25713  0.57584  0.61649  1
 V  V4  1  0.75713  0.42416  0.88351  1
 V  V5  1  0.24287  0.57584  0.11649  1
 V  V6  1  0.74287  0.42416  0.38351  1
 V  V7  1  0.25713  0.07584  0.38351  1
 V  V8  1  0.75713  0.92416  0.11649  1
