CIF file written using JARVIS-Tools package.
data_FeB2Mo2
_symmetry_space_group_name_H-M  'P4/mbm'
_cell_length_a       6.38614
_cell_length_b       6.38614
_cell_length_c       2.82427
_cell_angle_alpha    90
_cell_angle_beta     90
_cell_angle_gamma    90

_symmetry_Int_Tables_number  127
_chemical_formula_structural  FeB2Mo2
_chemical_formula_sum  Fe2B4Mo4
_cell_volume  115.18195210858183
_cell_formula_units_Z  2
loop_
  _symmetry_equiv_pos_site_id
 _symmetry_equiv_pos_as_xyz
 1  'x, y, z'
loop_
 _atom_site_type_symbol
 _atom_site_label
 _atom_site_symmetry_multiplicity
 _atom_site_fract_x
 _atom_site_fract_y
 _atom_site_fract_z
 _atom_site_fract_occupancy
 B  B1  1  0.34280  0.84280  0.50000  1
 B  B2  1  0.65720  0.15720  0.50000  1
 B  B3  1  0.84280  0.65720  0.50000  1
 B  B4  1  0.15720  0.34280  0.50000  1
 Fe  Fe1  1  0.50000  0.50000  0.00000  1
 Fe  Fe2  1  0.00000  0.00000  0.00000  1
 Mo  Mo1  1  0.64274  0.85726  0.00000  1
 Mo  Mo2  1  0.35726  0.14274  0.00000  1
 Mo  Mo3  1  0.85726  0.35726  0.00000  1
 Mo  Mo4  1  0.14274  0.64274  0.00000  1
