CIF file written using JARVIS-Tools package.
data_Sc2TcPt
_symmetry_space_group_name_H-M  'Fm-3m'
_cell_length_a       4.58481
_cell_length_b       4.58481
_cell_length_c       4.58481
_cell_angle_alpha    59.9969
_cell_angle_beta     59.9969
_cell_angle_gamma    59.9969

_symmetry_Int_Tables_number  225
_chemical_formula_structural  Sc2TcPt
_chemical_formula_sum  Sc2TcPt
_cell_volume  68.14244029226911
_cell_formula_units_Z  1
loop_
  _symmetry_equiv_pos_site_id
 _symmetry_equiv_pos_as_xyz
 1  'x, y, z'
loop_
 _atom_site_type_symbol
 _atom_site_label
 _atom_site_symmetry_multiplicity
 _atom_site_fract_x
 _atom_site_fract_y
 _atom_site_fract_z
 _atom_site_fract_occupancy
 Pt  Pt1  1  0.25000  0.25000  0.25000  1
 Sc  Sc1  1  0.49999  0.49999  0.49999  1
 Sc  Sc2  1  0.00001  0.00001  0.00001  1
 Tc  Tc1  1  0.75000  0.75000  0.75000  1
