CIF file written using JARVIS-Tools package.
data_Ti3B4
_symmetry_space_group_name_H-M  'Immm'
_cell_length_a       3.03839
_cell_length_b       3.27108
_cell_length_c       7.22718
_cell_angle_alpha    103.08
_cell_angle_beta     102.135
_cell_angle_gamma    90

_symmetry_Int_Tables_number  71
_chemical_formula_structural  Ti3B4
_chemical_formula_sum  Ti3B4
_cell_volume  68.3174580068074
_cell_formula_units_Z  1
loop_
  _symmetry_equiv_pos_site_id
 _symmetry_equiv_pos_as_xyz
 1  'x, y, z'
loop_
 _atom_site_type_symbol
 _atom_site_label
 _atom_site_symmetry_multiplicity
 _atom_site_fract_x
 _atom_site_fract_y
 _atom_site_fract_z
 _atom_site_fract_occupancy
 B  B1  1  0.86870  0.36870  0.73741  1
 B  B2  1  0.13130  0.63130  0.26259  1
 B  B3  1  0.43562  0.43562  0.87123  1
 B  B4  1  0.56438  0.56438  0.12877  1
 Ti  Ti1  1  0.68562  0.18562  0.37124  1
 Ti  Ti2  1  0.31438  0.81438  0.62876  1
 Ti  Ti3  1  0.00000  0.00000  0.00000  1
