CIF file written using JARVIS-Tools package.
data_Ru3W
_symmetry_space_group_name_H-M  'P6_3/mmc'
_cell_length_a       5.51082
_cell_length_b       5.51082
_cell_length_c       4.36739
_cell_angle_alpha    90
_cell_angle_beta     90
_cell_angle_gamma    120

_symmetry_Int_Tables_number  194
_chemical_formula_structural  Ru3W
_chemical_formula_sum  Ru6W2
_cell_volume  114.86423023301872
_cell_formula_units_Z  2
loop_
  _symmetry_equiv_pos_site_id
 _symmetry_equiv_pos_as_xyz
 1  'x, y, z'
loop_
 _atom_site_type_symbol
 _atom_site_label
 _atom_site_symmetry_multiplicity
 _atom_site_fract_x
 _atom_site_fract_y
 _atom_site_fract_z
 _atom_site_fract_occupancy
 Ru  Ru1  1  0.66657  0.83329  0.25000  1
 Ru  Ru2  1  0.16671  0.83329  0.25000  1
 Ru  Ru3  1  0.16671  0.33343  0.25000  1
 Ru  Ru4  1  0.33343  0.16671  0.75000  1
 Ru  Ru5  1  0.83329  0.16671  0.75000  1
 Ru  Ru6  1  0.83329  0.66657  0.75000  1
 W  W1  1  0.33333  0.66667  0.75000  1
 W  W2  1  0.66667  0.33333  0.25000  1
