CIF file written using JARVIS-Tools package.
data_Cr3C2
_symmetry_space_group_name_H-M  'Pnma'
_cell_length_a       2.7979
_cell_length_b       5.4833
_cell_length_c       11.4523
_cell_angle_alpha    90
_cell_angle_beta     90
_cell_angle_gamma    90

_symmetry_Int_Tables_number  62
_chemical_formula_structural  Cr3C2
_chemical_formula_sum  Cr2C8
_cell_volume  175.6983957270465
_cell_formula_units_Z  4
loop_
  _symmetry_equiv_pos_site_id
 _symmetry_equiv_pos_as_xyz
 1  'x, y, z'
loop_
 _atom_site_type_symbol
 _atom_site_label
 _atom_site_symmetry_multiplicity
 _atom_site_fract_x
 _atom_site_fract_y
 _atom_site_fract_z
 _atom_site_fract_occupancy
 C  C1  1  0.75000  0.74038  0.54785  1
 C  C2  1  0.25000  0.75962  0.04785  1
 C  C3  1  0.25000  0.90277  0.79615  1
 C  C4  1  0.75000  0.09723  0.20385  1
 C  C5  1  0.25000  0.40277  0.70385  1
 C  C6  1  0.75000  0.59723  0.29615  1
 C  C7  1  0.25000  0.25962  0.45215  1
 C  C8  1  0.75000  0.24038  0.95215  1
 Cr  Cr1  1  0.75000  0.18691  0.77379  1
 Cr  Cr2  1  0.25000  0.98561  0.59708  1
 Cr  Cr3  1  0.75000  0.01439  0.40292  1
 Cr  Cr4  1  0.25000  0.81309  0.22621  1
 Cr  Cr5  1  0.75000  0.86799  0.93134  1
 Cr  Cr6  1  0.25000  0.31309  0.27379  1
 Cr  Cr7  1  0.75000  0.68691  0.72621  1
 Cr  Cr8  1  0.25000  0.13201  0.06866  1
 Cr  Cr9  1  0.25000  0.63201  0.43134  1
 Cr  Cr10  1  0.75000  0.36799  0.56866  1
 Cr  Cr11  1  0.25000  0.48561  0.90292  1
 Cr  Cr12  1  0.75000  0.51439  0.09708  1
