CIF file written using JARVIS-Tools package.
data_Nd2Ti2S2O5
_symmetry_space_group_name_H-M  'I4/mmm'
_cell_length_a       3.86413
_cell_length_b       3.86414
_cell_length_c       11.9898
_cell_angle_alpha    99.2733
_cell_angle_beta     99.2733
_cell_angle_gamma    90

_symmetry_Int_Tables_number  139
_chemical_formula_structural  Nd2Ti2S2O5
_chemical_formula_sum  Nd2Ti2S2O5
_cell_volume  174.31515592370232
_cell_formula_units_Z  1
loop_
  _symmetry_equiv_pos_site_id
 _symmetry_equiv_pos_as_xyz
 1  'x, y, z'
loop_
 _atom_site_type_symbol
 _atom_site_label
 _atom_site_symmetry_multiplicity
 _atom_site_fract_x
 _atom_site_fract_y
 _atom_site_fract_z
 _atom_site_fract_occupancy
 Nd  Nd1  1  0.33404  0.33404  0.66809  1
 Nd  Nd2  1  0.66596  0.66596  0.33191  1
 O  O1  1  0.90327  0.40327  0.80654  1
 O  O2  1  0.09673  0.59673  0.19346  1
 O  O3  1  0.40327  0.90327  0.80654  1
 O  O4  1  0.59673  0.09673  0.19346  1
 O  O5  1  0.00000  0.00000  0.00000  1
 S  S1  1  0.20395  0.20395  0.40790  1
 S  S2  1  0.79605  0.79605  0.59210  1
 Ti  Ti1  1  0.07754  0.07754  0.15508  1
 Ti  Ti2  1  0.92246  0.92246  0.84493  1
