CIF file written using JARVIS-Tools package.
data_Li2BPd3
_symmetry_space_group_name_H-M  'P4_332'
_cell_length_a       6.81054
_cell_length_b       6.81054
_cell_length_c       6.81054
_cell_angle_alpha    90
_cell_angle_beta     90
_cell_angle_gamma    90

_symmetry_Int_Tables_number  212
_chemical_formula_structural  Li2BPd3
_chemical_formula_sum  Li8B4Pd2
_cell_volume  315.8959274548072
_cell_formula_units_Z  4
loop_
  _symmetry_equiv_pos_site_id
 _symmetry_equiv_pos_as_xyz
 1  'x, y, z'
loop_
 _atom_site_type_symbol
 _atom_site_label
 _atom_site_symmetry_multiplicity
 _atom_site_fract_x
 _atom_site_fract_y
 _atom_site_fract_z
 _atom_site_fract_occupancy
 B  B1  1  0.37500  0.12500  0.87500  1
 B  B2  1  0.87500  0.37500  0.12500  1
 B  B3  1  0.12500  0.87500  0.37500  1
 B  B4  1  0.62500  0.62500  0.62500  1
 Li  Li1  1  0.69623  0.80377  0.19623  1
 Li  Li2  1  0.80377  0.19623  0.69623  1
 Li  Li3  1  0.30377  0.30377  0.30377  1
 Li  Li4  1  0.19623  0.69623  0.80377  1
 Li  Li5  1  0.44623  0.55377  0.05377  1
 Li  Li6  1  0.55377  0.05377  0.44623  1
 Li  Li7  1  0.05377  0.44623  0.55377  1
 Li  Li8  1  0.94623  0.94623  0.94623  1
 Pd  Pd1  1  0.37500  0.69325  0.44325  1
 Pd  Pd2  1  0.62500  0.19325  0.05675  1
 Pd  Pd3  1  0.55675  0.87500  0.80675  1
 Pd  Pd4  1  0.69325  0.44325  0.37500  1
 Pd  Pd5  1  0.30675  0.94325  0.12500  1
 Pd  Pd6  1  0.05675  0.62500  0.19325  1
 Pd  Pd7  1  0.44325  0.37500  0.69325  1
 Pd  Pd8  1  0.19325  0.05675  0.62500  1
 Pd  Pd9  1  0.12500  0.30675  0.94325  1
 Pd  Pd10  1  0.87500  0.80675  0.55675  1
 Pd  Pd11  1  0.94325  0.12500  0.30675  1
 Pd  Pd12  1  0.80675  0.55675  0.87500  1
