CIF file written using JARVIS-Tools package.
data_KSbO3
_symmetry_space_group_name_H-M  'R-3'
_cell_length_a       6.85378
_cell_length_b       6.85378
_cell_length_c       6.8538
_cell_angle_alpha    46.9663
_cell_angle_beta     46.9662
_cell_angle_gamma    46.9661

_symmetry_Int_Tables_number  148
_chemical_formula_structural  KSbO3
_chemical_formula_sum  K2Sb2O6
_cell_volume  157.22952971744272
_cell_formula_units_Z  2
loop_
  _symmetry_equiv_pos_site_id
 _symmetry_equiv_pos_as_xyz
 1  'x, y, z'
loop_
 _atom_site_type_symbol
 _atom_site_label
 _atom_site_symmetry_multiplicity
 _atom_site_fract_x
 _atom_site_fract_y
 _atom_site_fract_z
 _atom_site_fract_occupancy
 K  K1  1  0.64155  0.64155  0.64155  1
 K  K2  1  0.35845  0.35845  0.35846  1
 O  O1  1  0.44210  0.03596  0.83182  1
 O  O2  1  0.55790  0.96404  0.16818  1
 O  O3  1  0.03596  0.83182  0.44210  1
 O  O4  1  0.96404  0.16818  0.55790  1
 O  O5  1  0.83182  0.44210  0.03596  1
 O  O6  1  0.16818  0.55790  0.96404  1
 Sb  Sb1  1  0.16357  0.16357  0.16357  1
 Sb  Sb2  1  0.83643  0.83643  0.83643  1
