CIF file written using JARVIS-Tools package.
data_Ca2In
_symmetry_space_group_name_H-M  'Pnma'
_cell_length_a       5.32749
_cell_length_b       7.16557
_cell_length_c       9.85837
_cell_angle_alpha    90
_cell_angle_beta     90
_cell_angle_gamma    90

_symmetry_Int_Tables_number  62
_chemical_formula_structural  Ca2In
_chemical_formula_sum  Ca8In4
_cell_volume  376.33795832888796
_cell_formula_units_Z  4
loop_
  _symmetry_equiv_pos_site_id
 _symmetry_equiv_pos_as_xyz
 1  'x, y, z'
loop_
 _atom_site_type_symbol
 _atom_site_label
 _atom_site_symmetry_multiplicity
 _atom_site_fract_x
 _atom_site_fract_y
 _atom_site_fract_z
 _atom_site_fract_occupancy
 Ca  Ca1  1  0.75000  0.96748  0.70259  1
 Ca  Ca2  1  0.25000  0.03252  0.29741  1
 Ca  Ca3  1  0.75000  0.46748  0.79741  1
 Ca  Ca4  1  0.25000  0.53252  0.20259  1
 Ca  Ca5  1  0.75000  0.82521  0.06756  1
 Ca  Ca6  1  0.25000  0.17479  0.93244  1
 Ca  Ca7  1  0.75000  0.32521  0.43244  1
 Ca  Ca8  1  0.25000  0.67479  0.56756  1
 In  In1  1  0.75000  0.77636  0.39106  1
 In  In2  1  0.25000  0.22364  0.60894  1
 In  In3  1  0.75000  0.27636  0.10894  1
 In  In4  1  0.25000  0.72364  0.89106  1
