CIF file written using JARVIS-Tools package.
data_Lu2IrRh
_symmetry_space_group_name_H-M  'Fm-3m'
_cell_length_a       4.72294
_cell_length_b       4.72279
_cell_length_c       4.72269
_cell_angle_alpha    60.0011
_cell_angle_beta     59.9993
_cell_angle_gamma    59.9976

_symmetry_Int_Tables_number  225
_chemical_formula_structural  Lu2IrRh
_chemical_formula_sum  Lu2IrRh
_cell_volume  74.48669796876042
_cell_formula_units_Z  1
loop_
  _symmetry_equiv_pos_site_id
 _symmetry_equiv_pos_as_xyz
 1  'x, y, z'
loop_
 _atom_site_type_symbol
 _atom_site_label
 _atom_site_symmetry_multiplicity
 _atom_site_fract_x
 _atom_site_fract_y
 _atom_site_fract_z
 _atom_site_fract_occupancy
 Ir  Ir1  1  0.24999  0.24999  0.25001  1
 Lu  Lu1  1  0.00001  1.00000  0.99999  1
 Lu  Lu2  1  0.50000  0.50001  0.49999  1
 Rh  Rh1  1  0.75001  0.75001  0.75001  1
