CIF file written using JARVIS-Tools package.
data_K4Al3Si3ClO12
_symmetry_space_group_name_H-M  'P-43n'
_cell_length_a       9.3478
_cell_length_b       9.3478
_cell_length_c       9.3478
_cell_angle_alpha    90
_cell_angle_beta     90
_cell_angle_gamma    90

_symmetry_Int_Tables_number  218
_chemical_formula_structural  K4Al3Si3ClO12
_chemical_formula_sum  K8Al6Si6Cl2O24
_cell_volume  816.8223324686734
_cell_formula_units_Z  2
loop_
  _symmetry_equiv_pos_site_id
 _symmetry_equiv_pos_as_xyz
 1  'x, y, z'
loop_
 _atom_site_type_symbol
 _atom_site_label
 _atom_site_symmetry_multiplicity
 _atom_site_fract_x
 _atom_site_fract_y
 _atom_site_fract_z
 _atom_site_fract_occupancy
 Al  Al1  1  0.00000  0.25000  0.50000  1
 Al  Al2  1  0.50000  0.00000  0.25000  1
 Al  Al3  1  0.50000  0.00000  0.75000  1
 Al  Al4  1  0.25000  0.50000  0.00000  1
 Al  Al5  1  0.00000  0.75000  0.50000  1
 Al  Al6  1  0.75000  0.50000  0.00000  1
 Cl  Cl1  1  0.50000  0.50000  0.50000  1
 Cl  Cl2  1  0.00000  0.00000  0.00000  1
 K  K1  1  0.68648  0.68648  0.68648  1
 K  K2  1  0.18648  0.18648  0.18648  1
 K  K3  1  0.31352  0.68648  0.31352  1
 K  K4  1  0.81352  0.18648  0.81352  1
 K  K5  1  0.68648  0.31352  0.31352  1
 K  K6  1  0.81352  0.81352  0.18648  1
 K  K7  1  0.18648  0.81352  0.81352  1
 K  K8  1  0.31352  0.31352  0.68648  1
 O  O1  1  0.52315  0.84636  0.14444  1
 O  O2  1  0.65364  0.97685  0.64444  1
 O  O3  1  0.14444  0.52315  0.84636  1
 O  O4  1  0.15364  0.85556  0.52315  1
 O  O5  1  0.84636  0.14444  0.52315  1
 O  O6  1  0.84636  0.85556  0.47685  1
 O  O7  1  0.15364  0.14444  0.47685  1
 O  O8  1  0.64444  0.65364  0.97685  1
 O  O9  1  0.02315  0.64444  0.34636  1
 O  O10  1  0.97685  0.64444  0.65364  1
 O  O11  1  0.65364  0.02315  0.35556  1
 O  O12  1  0.85556  0.47685  0.84636  1
 O  O13  1  0.35556  0.34636  0.97685  1
 O  O14  1  0.47685  0.84636  0.85556  1
 O  O15  1  0.34636  0.02315  0.64444  1
 O  O16  1  0.14444  0.47685  0.15364  1
 O  O17  1  0.47685  0.15364  0.14444  1
 O  O18  1  0.35556  0.65364  0.02315  1
 O  O19  1  0.64444  0.34636  0.02315  1
 O  O20  1  0.97685  0.35556  0.34636  1
 O  O21  1  0.02315  0.35556  0.65364  1
 O  O22  1  0.52315  0.15364  0.85556  1
 O  O23  1  0.85556  0.52315  0.15364  1
 O  O24  1  0.34636  0.97685  0.35556  1
 Si  Si1  1  0.75000  0.00000  0.50000  1
 Si  Si2  1  0.00000  0.50000  0.75000  1
 Si  Si3  1  0.00000  0.50000  0.25000  1
 Si  Si4  1  0.50000  0.25000  0.00000  1
 Si  Si5  1  0.50000  0.75000  0.00000  1
 Si  Si6  1  0.25000  0.00000  0.50000  1
