CIF file written using JARVIS-Tools package.
data_Sm4Mg3Co2
_symmetry_space_group_name_H-M  'P2/m'
_cell_length_a       7.54287
_cell_length_b       3.75356
_cell_length_c       8.23198
_cell_angle_alpha    90
_cell_angle_beta     109.61
_cell_angle_gamma    90

_symmetry_Int_Tables_number  10
_chemical_formula_structural  Sm4Mg3Co2
_chemical_formula_sum  Sm4Mg3Co2
_cell_volume  219.5508833830087
_cell_formula_units_Z  1
loop_
  _symmetry_equiv_pos_site_id
 _symmetry_equiv_pos_as_xyz
 1  'x, y, z'
loop_
 _atom_site_type_symbol
 _atom_site_label
 _atom_site_symmetry_multiplicity
 _atom_site_fract_x
 _atom_site_fract_y
 _atom_site_fract_z
 _atom_site_fract_occupancy
 Co  Co1  1  0.65189  0.00000  0.10856  1
 Co  Co2  1  0.34811  0.00000  0.89144  1
 Mg  Mg1  1  0.70474  0.00000  0.49760  1
 Mg  Mg2  1  0.00000  0.00000  0.00000  1
 Mg  Mg3  1  0.29526  0.00000  0.50240  1
 Sm  Sm1  1  0.60266  0.50000  0.82223  1
 Sm  Sm2  1  0.09558  0.50000  0.72412  1
 Sm  Sm3  1  0.39734  0.50000  0.17777  1
 Sm  Sm4  1  0.90442  0.50000  0.27588  1
