CIF file written using JARVIS-Tools package.
data_TmCu4Ag
_symmetry_space_group_name_H-M  'F-43m'
_cell_length_a       5.01661
_cell_length_b       5.01661
_cell_length_c       5.01661
_cell_angle_alpha    60
_cell_angle_beta     60
_cell_angle_gamma    60

_symmetry_Int_Tables_number  216
_chemical_formula_structural  TmCu4Ag
_chemical_formula_sum  TmCu4Ag
_cell_volume  89.2719013932097
_cell_formula_units_Z  1
loop_
  _symmetry_equiv_pos_site_id
 _symmetry_equiv_pos_as_xyz
 1  'x, y, z'
loop_
 _atom_site_type_symbol
 _atom_site_label
 _atom_site_symmetry_multiplicity
 _atom_site_fract_x
 _atom_site_fract_y
 _atom_site_fract_z
 _atom_site_fract_occupancy
 Ag  Ag1  1  0.00000  0.00000  0.00000  1
 Cu  Cu1  1  0.37428  0.37428  0.37428  1
 Cu  Cu2  1  0.87715  0.37428  0.37428  1
 Cu  Cu3  1  0.37428  0.87715  0.37428  1
 Cu  Cu4  1  0.37428  0.37428  0.87715  1
 Tm  Tm1  1  0.75000  0.75000  0.75000  1
