CIF file written using JARVIS-Tools package.
data_Mo3WSe2S6
_symmetry_space_group_name_H-M  'R3m'
_cell_length_a       3.22476
_cell_length_b       3.22476
_cell_length_c       25.4168
_cell_angle_alpha    86.3546
_cell_angle_beta     90
_cell_angle_gamma    120

_symmetry_Int_Tables_number  160
_chemical_formula_structural  Mo3WSe2S6
_chemical_formula_sum  Mo3WSe2S6
_cell_volume  228.28230648185016
_cell_formula_units_Z  1
loop_
  _symmetry_equiv_pos_site_id
 _symmetry_equiv_pos_as_xyz
 1  'x, y, z'
loop_
 _atom_site_type_symbol
 _atom_site_label
 _atom_site_symmetry_multiplicity
 _atom_site_fract_x
 _atom_site_fract_y
 _atom_site_fract_z
 _atom_site_fract_occupancy
 Mo  Mo1  1  0.29116  0.58233  0.00109  1
 Mo  Mo2  1  0.45898  0.91796  0.50048  1
 Mo  Mo3  1  0.54021  0.08042  0.25524  1
 S  S1  1  0.18639  0.37278  0.31657  1
 S  S2  1  0.35569  0.71138  0.80782  1
 S  S3  1  0.81280  0.62561  0.43916  1
 S  S4  1  0.77180  0.54359  0.56189  1
 S  S5  1  0.22740  0.45480  0.19381  1
 S  S6  1  0.39693  0.79387  0.68440  1
 Se  Se1  1  0.64703  0.29407  0.93362  1
 Se  Se2  1  0.60196  0.20391  0.06857  1
 W  W1  1  0.70965  0.41929  0.74610  1
