CIF file written using JARVIS-Tools package.
data_AsPO4
_symmetry_space_group_name_H-M  'Pnma'
_cell_length_a       5.10134
_cell_length_b       7.16103
_cell_length_c       8.3725
_cell_angle_alpha    90
_cell_angle_beta     90
_cell_angle_gamma    90

_symmetry_Int_Tables_number  62
_chemical_formula_structural  AsPO4
_chemical_formula_sum  As4P4O6
_cell_volume  305.8544389521106
_cell_formula_units_Z  4
loop_
  _symmetry_equiv_pos_site_id
 _symmetry_equiv_pos_as_xyz
 1  'x, y, z'
loop_
 _atom_site_type_symbol
 _atom_site_label
 _atom_site_symmetry_multiplicity
 _atom_site_fract_x
 _atom_site_fract_y
 _atom_site_fract_z
 _atom_site_fract_occupancy
 As  As1  1  0.25000  0.70234  0.74892  1
 As  As2  1  0.75000  0.29766  0.25108  1
 As  As3  1  0.75000  0.20234  0.75108  1
 As  As4  1  0.25000  0.79766  0.24892  1
 O  O1  1  0.25000  0.41642  0.41896  1
 O  O2  1  0.75000  0.58358  0.58104  1
 O  O3  1  0.75000  0.91642  0.08104  1
 O  O4  1  0.00473  0.18656  0.59506  1
 O  O5  1  0.25000  0.44545  0.73100  1
 O  O6  1  0.75000  0.55455  0.26900  1
 O  O7  1  0.25000  0.08358  0.91896  1
 O  O8  1  0.25000  0.05455  0.23100  1
 O  O9  1  0.00473  0.31344  0.09506  1
 O  O10  1  0.99527  0.81344  0.40494  1
 O  O11  1  0.75000  0.94545  0.76900  1
 O  O12  1  0.49527  0.18656  0.59506  1
 O  O13  1  0.99527  0.68656  0.90494  1
 O  O14  1  0.49527  0.31344  0.09506  1
 O  O15  1  0.50473  0.68656  0.90494  1
 O  O16  1  0.50473  0.81344  0.40494  1
 P  P1  1  0.25000  0.18154  0.07624  1
 P  P2  1  0.75000  0.81846  0.92376  1
 P  P3  1  0.75000  0.68154  0.42376  1
 P  P4  1  0.25000  0.31846  0.57624  1
