CIF file written using JARVIS-Tools package.
data_TeMo2SeS2
_symmetry_space_group_name_H-M  'P3m1'
_cell_length_a       3.31255
_cell_length_b       3.31255
_cell_length_c       35.3885
_cell_angle_alpha    90.0004
_cell_angle_beta     89.9995
_cell_angle_gamma    120

_symmetry_Int_Tables_number  156
_chemical_formula_structural  TeMo2SeS2
_chemical_formula_sum  Te2Mo4Se2S4
_cell_volume  336.29212395378926
_cell_formula_units_Z  2
loop_
  _symmetry_equiv_pos_site_id
 _symmetry_equiv_pos_as_xyz
 1  'x, y, z'
loop_
 _atom_site_type_symbol
 _atom_site_label
 _atom_site_symmetry_multiplicity
 _atom_site_fract_x
 _atom_site_fract_y
 _atom_site_fract_z
 _atom_site_fract_occupancy
 Mo  Mo1  1  0.33339  0.66673  0.10102  1
 Mo  Mo2  1  0.33331  0.66664  0.46490  1
 Mo  Mo3  1  0.66669  0.33335  0.27434  1
 Mo  Mo4  1  0.66660  0.33327  0.66270  1
 S  S1  1  0.33336  0.66669  0.31752  1
 S  S2  1  0.66672  0.33339  0.05784  1
 S  S3  1  0.66671  0.33339  0.14422  1
 S  S4  1  0.33337  0.66670  0.23116  1
 Se  Se1  1  0.33327  0.66662  0.71008  1
 Se  Se2  1  0.33327  0.66660  0.61523  1
 Te  Te1  1  0.66666  0.33332  0.41070  1
 Te  Te2  1  0.66663  0.33330  0.51905  1
