CIF file written using JARVIS-Tools package.
data_ErB4
_symmetry_space_group_name_H-M  'P4/mbm'
_cell_length_a       7.06072
_cell_length_b       7.06072
_cell_length_c       3.99621
_cell_angle_alpha    90
_cell_angle_beta     90
_cell_angle_gamma    90

_symmetry_Int_Tables_number  127
_chemical_formula_structural  ErB4
_chemical_formula_sum  Er4B6
_cell_volume  199.22611883123756
_cell_formula_units_Z  4
loop_
  _symmetry_equiv_pos_site_id
 _symmetry_equiv_pos_as_xyz
 1  'x, y, z'
loop_
 _atom_site_type_symbol
 _atom_site_label
 _atom_site_symmetry_multiplicity
 _atom_site_fract_x
 _atom_site_fract_y
 _atom_site_fract_z
 _atom_site_fract_occupancy
 B  B1  1  0.58691  0.08691  0.50000  1
 B  B2  1  0.32345  0.46141  0.50000  1
 B  B3  1  0.67655  0.53859  0.50000  1
 B  B4  1  0.53859  0.32345  0.50000  1
 B  B5  1  0.46141  0.67655  0.50000  1
 B  B6  1  0.00000  0.00000  0.20250  1
 B  B7  1  0.82345  0.03859  0.50000  1
 B  B8  1  0.50000  0.50000  0.79750  1
 B  B9  1  0.50000  0.50000  0.20250  1
 B  B10  1  0.96141  0.82345  0.50000  1
 B  B11  1  0.08691  0.41309  0.50000  1
 B  B12  1  0.91309  0.58691  0.50000  1
 B  B13  1  0.41309  0.91309  0.50000  1
 B  B14  1  0.03859  0.17655  0.50000  1
 B  B15  1  0.17655  0.96141  0.50000  1
 B  B16  1  0.00000  0.00000  0.79750  1
 Er  Er1  1  0.81886  0.31886  0.00000  1
 Er  Er2  1  0.31886  0.18114  0.00000  1
 Er  Er3  1  0.68114  0.81886  0.00000  1
 Er  Er4  1  0.18114  0.68114  0.00000  1
