CIF file written using JARVIS-Tools package.
data_Nd4Bi3
_symmetry_space_group_name_H-M  'I-43d'
_cell_length_a       8.38028
_cell_length_b       8.38028
_cell_length_c       8.38028
_cell_angle_alpha    109.471
_cell_angle_beta     109.471
_cell_angle_gamma    109.471

_symmetry_Int_Tables_number  220
_chemical_formula_structural  Nd4Bi3
_chemical_formula_sum  Nd8Bi6
_cell_volume  453.05803636851954
_cell_formula_units_Z  2
loop_
  _symmetry_equiv_pos_site_id
 _symmetry_equiv_pos_as_xyz
 1  'x, y, z'
loop_
 _atom_site_type_symbol
 _atom_site_label
 _atom_site_symmetry_multiplicity
 _atom_site_fract_x
 _atom_site_fract_y
 _atom_site_fract_z
 _atom_site_fract_occupancy
 Bi  Bi1  1  0.25000  0.62500  0.37500  1
 Bi  Bi2  1  0.37500  0.25000  0.62500  1
 Bi  Bi3  1  0.12500  0.75000  0.87500  1
 Bi  Bi4  1  0.87500  0.12500  0.75000  1
 Bi  Bi5  1  0.62500  0.37500  0.25000  1
 Bi  Bi6  1  0.75000  0.87500  0.12500  1
 Nd  Nd1  1  0.14323  0.14323  0.14323  1
 Nd  Nd2  1  0.85677  0.50000  -0.00000  1
 Nd  Nd3  1  0.00000  0.85677  0.50000  1
 Nd  Nd4  1  0.50000  -0.00000  0.85677  1
 Nd  Nd5  1  0.00000  0.35677  0.50000  1
 Nd  Nd6  1  0.50000  -0.00000  0.35677  1
 Nd  Nd7  1  0.35677  0.50000  -0.00000  1
 Nd  Nd8  1  0.64323  0.64323  0.64323  1
