CIF file written using JARVIS-Tools package.
data_LiO2
_symmetry_space_group_name_H-M  'Pnnm'
_cell_length_a       2.88714
_cell_length_b       3.91642
_cell_length_c       4.86079
_cell_angle_alpha    90
_cell_angle_beta     90
_cell_angle_gamma    90

_symmetry_Int_Tables_number  58
_chemical_formula_structural  LiO2
_chemical_formula_sum  Li2O4
_cell_volume  54.96232160411336
_cell_formula_units_Z  2
loop_
  _symmetry_equiv_pos_site_id
 _symmetry_equiv_pos_as_xyz
 1  'x, y, z'
loop_
 _atom_site_type_symbol
 _atom_site_label
 _atom_site_symmetry_multiplicity
 _atom_site_fract_x
 _atom_site_fract_y
 _atom_site_fract_z
 _atom_site_fract_occupancy
 Li  Li1  1  0.50000  0.50000  0.50000  1
 Li  Li2  1  0.00000  0.00000  0.00000  1
 O  O1  1  0.50000  0.63194  0.08876  1
 O  O2  1  0.50000  0.36806  0.91124  1
 O  O3  1  0.00000  0.13194  0.41124  1
 O  O4  1  0.00000  0.86806  0.58876  1
