CIF file written using JARVIS-Tools package.
data_BaPrO3
_symmetry_space_group_name_H-M  'Imma'
_cell_length_a       6.47198
_cell_length_b       6.43905
_cell_length_c       6.43905
_cell_angle_alpha    59.5997
_cell_angle_beta     59.8307
_cell_angle_gamma    59.8307

_symmetry_Int_Tables_number  74
_chemical_formula_structural  BaPrO3
_chemical_formula_sum  Ba2Pr2O6
_cell_volume  188.6799815172354
_cell_formula_units_Z  2
loop_
  _symmetry_equiv_pos_site_id
 _symmetry_equiv_pos_as_xyz
 1  'x, y, z'
loop_
 _atom_site_type_symbol
 _atom_site_label
 _atom_site_symmetry_multiplicity
 _atom_site_fract_x
 _atom_site_fract_y
 _atom_site_fract_z
 _atom_site_fract_occupancy
 Ba  Ba1  1  0.76821  0.25000  0.25000  1
 Ba  Ba2  1  0.23179  0.75000  0.75000  1
 O  O1  1  0.18828  0.31172  0.81172  1
 O  O2  1  0.81172  0.18828  0.68828  1
 O  O3  1  0.81172  0.68828  0.18828  1
 O  O4  1  0.18828  0.81172  0.31172  1
 O  O5  1  0.64677  0.75000  0.75000  1
 O  O6  1  0.35323  0.25000  0.25000  1
 Pr  Pr1  1  0.50000  -0.00000  0.00000  1
 Pr  Pr2  1  -0.00000  0.50000  0.50000  1
