CIF file written using JARVIS-Tools package.
data_NiBi3
_symmetry_space_group_name_H-M  'Pnma'
_cell_length_a       4.164
_cell_length_b       8.97017
_cell_length_c       11.5494
_cell_angle_alpha    90
_cell_angle_beta     90
_cell_angle_gamma    90

_symmetry_Int_Tables_number  62
_chemical_formula_structural  NiBi3
_chemical_formula_sum  Ni4Bi2
_cell_volume  431.39212004519203
_cell_formula_units_Z  4
loop_
  _symmetry_equiv_pos_site_id
 _symmetry_equiv_pos_as_xyz
 1  'x, y, z'
loop_
 _atom_site_type_symbol
 _atom_site_label
 _atom_site_symmetry_multiplicity
 _atom_site_fract_x
 _atom_site_fract_y
 _atom_site_fract_z
 _atom_site_fract_occupancy
 Bi  Bi1  1  0.75000  0.70075  0.88891  1
 Bi  Bi2  1  0.25000  0.29925  0.11109  1
 Bi  Bi3  1  0.75000  0.20075  0.61109  1
 Bi  Bi4  1  0.25000  0.79925  0.38891  1
 Bi  Bi5  1  0.75000  0.61967  0.59191  1
 Bi  Bi6  1  0.25000  0.38033  0.40809  1
 Bi  Bi7  1  0.75000  0.11967  0.90809  1
 Bi  Bi8  1  0.25000  0.88033  0.09191  1
 Bi  Bi9  1  0.25000  0.90918  0.67786  1
 Bi  Bi10  1  0.75000  0.09082  0.32214  1
 Bi  Bi11  1  0.25000  0.40918  0.82214  1
 Bi  Bi12  1  0.75000  0.59082  0.17786  1
 Ni  Ni1  1  0.25000  0.58936  0.01846  1
 Ni  Ni2  1  0.75000  0.41064  0.98154  1
 Ni  Ni3  1  0.25000  0.08936  0.48154  1
 Ni  Ni4  1  0.75000  0.91064  0.51846  1
