CIF file written using JARVIS-Tools package.
data_V5P3N
_symmetry_space_group_name_H-M  'P6_3/mcm'
_cell_length_a       6.87901
_cell_length_b       6.87901
_cell_length_c       5.1364
_cell_angle_alpha    90
_cell_angle_beta     90
_cell_angle_gamma    120

_symmetry_Int_Tables_number  193
_chemical_formula_structural  V5P3N
_chemical_formula_sum  V0P6N2
_cell_volume  210.49461935161293
_cell_formula_units_Z  2
loop_
  _symmetry_equiv_pos_site_id
 _symmetry_equiv_pos_as_xyz
 1  'x, y, z'
loop_
 _atom_site_type_symbol
 _atom_site_label
 _atom_site_symmetry_multiplicity
 _atom_site_fract_x
 _atom_site_fract_y
 _atom_site_fract_z
 _atom_site_fract_occupancy
 N  N1  1  0.00000  0.00000  0.50000  1
 N  N2  1  0.00000  0.00000  0.00000  1
 P  P1  1  0.00000  0.59548  0.25000  1
 P  P2  1  0.59548  0.59548  0.75000  1
 P  P3  1  -0.00000  0.40452  0.75000  1
 P  P4  1  0.40452  0.40452  0.25000  1
 P  P5  1  0.59548  0.00000  0.25000  1
 P  P6  1  0.40452  -0.00000  0.75000  1
 V  V1  1  0.76968  0.76968  0.25000  1
 V  V2  1  0.23032  0.23032  0.75000  1
 V  V3  1  0.23032  -0.00000  0.25000  1
 V  V4  1  0.66667  0.33333  0.50000  1
 V  V5  1  0.00000  0.76968  0.75000  1
 V  V6  1  0.33333  0.66667  0.50000  1
 V  V7  1  0.66667  0.33333  0.00000  1
 V  V8  1  0.33333  0.66667  0.00000  1
 V  V9  1  0.76968  0.00000  0.75000  1
 V  V10  1  -0.00000  0.23032  0.25000  1
