CIF file written using JARVIS-Tools package.
data_HoBi2ClO4
_symmetry_space_group_name_H-M  'P4/mmm'
_cell_length_a       3.88144
_cell_length_b       3.88144
_cell_length_c       8.9555
_cell_angle_alpha    90
_cell_angle_beta     90
_cell_angle_gamma    90

_symmetry_Int_Tables_number  123
_chemical_formula_structural  HoBi2ClO4
_chemical_formula_sum  HoBi2ClO4
_cell_volume  134.91942202264548
_cell_formula_units_Z  1
loop_
  _symmetry_equiv_pos_site_id
 _symmetry_equiv_pos_as_xyz
 1  'x, y, z'
loop_
 _atom_site_type_symbol
 _atom_site_label
 _atom_site_symmetry_multiplicity
 _atom_site_fract_x
 _atom_site_fract_y
 _atom_site_fract_z
 _atom_site_fract_occupancy
 Bi  Bi1  1  0.50000  0.50000  0.72006  1
 Bi  Bi2  1  0.50000  0.50000  0.27994  1
 Cl  Cl1  1  0.00000  0.00000  0.50000  1
 Ho  Ho1  1  0.00000  0.00000  0.00000  1
 O  O1  1  0.50000  0.00000  0.84724  1
 O  O2  1  0.50000  0.00000  0.15276  1
 O  O3  1  0.00000  0.50000  0.15276  1
 O  O4  1  0.00000  0.50000  0.84724  1
