CIF file written using JARVIS-Tools package.
data_DyAl7Au3
_symmetry_space_group_name_H-M  'R-3c'
_cell_length_a       8.4397
_cell_length_b       8.43971
_cell_length_c       8.43971
_cell_angle_alpha    57.4318
_cell_angle_beta     57.4317
_cell_angle_gamma    57.4318

_symmetry_Int_Tables_number  167
_chemical_formula_structural  DyAl7Au3
_chemical_formula_sum  Dy2Al4Au6
_cell_volume  399.95861797530614
_cell_formula_units_Z  2
loop_
  _symmetry_equiv_pos_site_id
 _symmetry_equiv_pos_as_xyz
 1  'x, y, z'
loop_
 _atom_site_type_symbol
 _atom_site_label
 _atom_site_symmetry_multiplicity
 _atom_site_fract_x
 _atom_site_fract_y
 _atom_site_fract_z
 _atom_site_fract_occupancy
 Al  Al1  1  0.85250  0.66815  0.06936  1
 Al  Al2  1  0.43064  0.83185  0.64750  1
 Al  Al3  1  0.83185  0.64750  0.43064  1
 Al  Al4  1  0.66815  0.06936  0.85250  1
 Al  Al5  1  0.06936  0.85250  0.66815  1
 Al  Al6  1  0.35250  0.56936  0.16815  1
 Al  Al7  1  0.56936  0.16815  0.35250  1
 Al  Al8  1  0.14750  0.33185  0.93064  1
 Al  Al9  1  0.75000  0.75000  0.75000  1
 Al  Al10  1  0.93064  0.14750  0.33185  1
 Al  Al11  1  0.33185  0.93064  0.14750  1
 Al  Al12  1  0.16815  0.35250  0.56936  1
 Al  Al13  1  0.64750  0.43064  0.83185  1
 Al  Al14  1  0.25000  0.25000  0.25000  1
 Au  Au1  1  0.75000  0.42605  0.07395  1
 Au  Au2  1  0.42605  0.07395  0.75000  1
 Au  Au3  1  0.07395  0.75000  0.42605  1
 Au  Au4  1  0.57395  0.92605  0.25000  1
 Au  Au5  1  0.92605  0.25000  0.57395  1
 Au  Au6  1  0.25000  0.57395  0.92605  1
 Dy  Dy1  1  0.50000  0.50000  0.50000  1
 Dy  Dy2  1  0.00000  0.00000  0.00000  1
