CIF file written using JARVIS-Tools package.
data_Mo2WS6
_symmetry_space_group_name_H-M  'P-6m2'
_cell_length_a       3.19136
_cell_length_b       3.19136
_cell_length_c       27.1885
_cell_angle_alpha    90
_cell_angle_beta     90
_cell_angle_gamma    120

_symmetry_Int_Tables_number  187
_chemical_formula_structural  Mo2WS6
_chemical_formula_sum  Mo2WS6
_cell_volume  239.81001004150198
_cell_formula_units_Z  1
loop_
  _symmetry_equiv_pos_site_id
 _symmetry_equiv_pos_as_xyz
 1  'x, y, z'
loop_
 _atom_site_type_symbol
 _atom_site_label
 _atom_site_symmetry_multiplicity
 _atom_site_fract_x
 _atom_site_fract_y
 _atom_site_fract_z
 _atom_site_fract_occupancy
 Mo  Mo1  1  0.33331  0.66663  0.11702  1
 Mo  Mo2  1  0.33331  0.66663  0.57694  1
 S  S1  1  0.33335  0.66671  0.40494  1
 S  S2  1  0.66665  0.33329  0.05944  1
 S  S3  1  0.66665  0.33329  0.51931  1
 S  S4  1  0.66665  0.33329  0.17465  1
 S  S5  1  0.66665  0.33329  0.63452  1
 S  S6  1  0.33335  0.66671  0.28902  1
 W  W1  1  0.66669  0.33337  0.34698  1
