CIF file written using JARVIS-Tools package.
data_NdSb12Os4
_symmetry_space_group_name_H-M  'Im-3'
_cell_length_a       8.18085
_cell_length_b       8.18085
_cell_length_c       8.18085
_cell_angle_alpha    109.471
_cell_angle_beta     109.471
_cell_angle_gamma    109.471

_symmetry_Int_Tables_number  204
_chemical_formula_structural  NdSb12Os4
_chemical_formula_sum  NdSb2Os4
_cell_volume  421.47722095837577
_cell_formula_units_Z  1
loop_
  _symmetry_equiv_pos_site_id
 _symmetry_equiv_pos_as_xyz
 1  'x, y, z'
loop_
 _atom_site_type_symbol
 _atom_site_label
 _atom_site_symmetry_multiplicity
 _atom_site_fract_x
 _atom_site_fract_y
 _atom_site_fract_z
 _atom_site_fract_occupancy
 Nd  Nd1  1  0.00000  0.00000  0.00000  1
 Os  Os1  1  0.00000  0.00000  0.50000  1
 Os  Os2  1  0.50000  0.50000  0.50000  1
 Os  Os3  1  -0.00000  0.50000  -0.00000  1
 Os  Os4  1  0.50000  0.00000  -0.00000  1
 Sb  Sb1  1  0.15631  0.81780  0.66149  1
 Sb  Sb2  1  0.66149  0.84369  0.50518  1
 Sb  Sb3  1  0.49482  0.33851  0.15631  1
 Sb  Sb4  1  0.66149  0.15631  0.81780  1
 Sb  Sb5  1  0.33851  0.15631  0.49482  1
 Sb  Sb6  1  0.18220  0.33851  0.84369  1
 Sb  Sb7  1  0.81780  0.66149  0.15631  1
 Sb  Sb8  1  0.33851  0.84369  0.18220  1
 Sb  Sb9  1  0.84369  0.50518  0.66149  1
 Sb  Sb10  1  0.50518  0.66149  0.84369  1
 Sb  Sb11  1  0.84369  0.18220  0.33851  1
 Sb  Sb12  1  0.15631  0.49482  0.33851  1
