CIF file written using JARVIS-Tools package.
data_CaRuO3
_symmetry_space_group_name_H-M  'Pnma'
_cell_length_a       5.32907
_cell_length_b       5.58691
_cell_length_c       7.67698
_cell_angle_alpha    90
_cell_angle_beta     90
_cell_angle_gamma    90

_symmetry_Int_Tables_number  62
_chemical_formula_structural  CaRuO3
_chemical_formula_sum  Ca4Ru4O2
_cell_volume  228.56707530020387
_cell_formula_units_Z  4
loop_
  _symmetry_equiv_pos_site_id
 _symmetry_equiv_pos_as_xyz
 1  'x, y, z'
loop_
 _atom_site_type_symbol
 _atom_site_label
 _atom_site_symmetry_multiplicity
 _atom_site_fract_x
 _atom_site_fract_y
 _atom_site_fract_z
 _atom_site_fract_occupancy
 Ca  Ca1  1  0.01719  0.43916  0.25000  1
 Ca  Ca2  1  0.51719  0.06084  0.75000  1
 Ca  Ca3  1  0.48281  0.93916  0.25000  1
 Ca  Ca4  1  0.98281  0.56084  0.75000  1
 O  O1  1  0.30481  0.20090  0.44981  1
 O  O2  1  0.40039  0.47042  0.75000  1
 O  O3  1  0.19519  0.70090  0.05019  1
 O  O4  1  0.69519  0.79910  0.94981  1
 O  O5  1  0.80481  0.29910  0.55019  1
 O  O6  1  0.19519  0.70090  0.44981  1
 O  O7  1  0.80481  0.29910  0.94981  1
 O  O8  1  0.09961  0.97042  0.75000  1
 O  O9  1  0.69519  0.79910  0.55019  1
 O  O10  1  0.59961  0.52958  0.25000  1
 O  O11  1  0.30481  0.20090  0.05019  1
 O  O12  1  0.90039  0.02958  0.25000  1
 Ru  Ru1  1  0.00000  0.00000  0.50000  1
 Ru  Ru2  1  0.50000  0.50000  0.50000  1
 Ru  Ru3  1  0.50000  0.50000  0.00000  1
 Ru  Ru4  1  0.00000  0.00000  0.00000  1
