CIF file written using JARVIS-Tools package.
data_K2RbMn2F7
_symmetry_space_group_name_H-M  'I4/mmm'
_cell_length_a       4.2214
_cell_length_b       4.2214
_cell_length_c       11.2671
_cell_angle_alpha    100.797
_cell_angle_beta     100.797
_cell_angle_gamma    90

_symmetry_Int_Tables_number  139
_chemical_formula_structural  K2RbMn2F7
_chemical_formula_sum  K2RbMn2F7
_cell_volume  193.60671647525103
_cell_formula_units_Z  1
loop_
  _symmetry_equiv_pos_site_id
 _symmetry_equiv_pos_as_xyz
 1  'x, y, z'
loop_
 _atom_site_type_symbol
 _atom_site_label
 _atom_site_symmetry_multiplicity
 _atom_site_fract_x
 _atom_site_fract_y
 _atom_site_fract_z
 _atom_site_fract_occupancy
 F  F1  1  0.90137  0.40137  0.80274  1
 F  F2  1  0.40137  0.90137  0.80274  1
 F  F3  1  0.19569  0.19569  0.39137  1
 F  F4  1  0.80431  0.80431  0.60863  1
 F  F5  1  0.00000  0.00000  0.00000  1
 F  F6  1  0.59863  0.09863  0.19726  1
 F  F7  1  0.09863  0.59863  0.19726  1
 K  K1  1  0.31443  0.31443  0.62886  1
 K  K2  1  0.68557  0.68557  0.37114  1
 Mn  Mn1  1  0.90066  0.90066  0.80132  1
 Mn  Mn2  1  0.09934  0.09934  0.19868  1
 Rb  Rb1  1  0.50000  0.50000  -0.00000  1
