CIF file written using JARVIS-Tools package.
data_NbSn2
_symmetry_space_group_name_H-M  'Fddd'
_cell_length_a       5.7244
_cell_length_b       5.74368
_cell_length_c       10.079
_cell_angle_alpha    81.8646
_cell_angle_beta     73.5023
_cell_angle_gamma    60.111

_symmetry_Int_Tables_number  70
_chemical_formula_structural  NbSn2
_chemical_formula_sum  Nb4Sn8
_cell_volume  275.4826162298446
_cell_formula_units_Z  4
loop_
  _symmetry_equiv_pos_site_id
 _symmetry_equiv_pos_as_xyz
 1  'x, y, z'
loop_
 _atom_site_type_symbol
 _atom_site_label
 _atom_site_symmetry_multiplicity
 _atom_site_fract_x
 _atom_site_fract_y
 _atom_site_fract_z
 _atom_site_fract_occupancy
 Nb  Nb1  1  0.00195  0.25000  0.99610  1
 Nb  Nb2  1  0.74805  0.25000  0.50390  1
 Nb  Nb3  1  0.99805  0.75000  0.00390  1
 Nb  Nb4  1  0.25195  0.75000  0.49610  1
 Sn  Sn1  1  0.04392  0.91216  0.25000  1
 Sn  Sn2  1  0.70608  0.58784  0.25000  1
 Sn  Sn3  1  0.95608  0.08784  0.75000  1
 Sn  Sn4  1  0.29392  0.41216  0.75000  1
 Sn  Sn5  1  0.29275  0.25000  0.41450  1
 Sn  Sn6  1  0.45725  0.25000  0.08550  1
 Sn  Sn7  1  0.70725  0.75000  0.58550  1
 Sn  Sn8  1  0.54275  0.75000  0.91450  1
