CIF file written using JARVIS-Tools package.
data_Bi2SeO2
_symmetry_space_group_name_H-M  'I4/mmm'
_cell_length_a       3.92233
_cell_length_b       3.92232
_cell_length_c       6.77101
_cell_angle_alpha    106.837
_cell_angle_beta     106.837
_cell_angle_gamma    90

_symmetry_Int_Tables_number  139
_chemical_formula_structural  Bi2SeO2
_chemical_formula_sum  Bi2SeO2
_cell_volume  95.0294769145536
_cell_formula_units_Z  1
loop_
  _symmetry_equiv_pos_site_id
 _symmetry_equiv_pos_as_xyz
 1  'x, y, z'
loop_
 _atom_site_type_symbol
 _atom_site_label
 _atom_site_symmetry_multiplicity
 _atom_site_fract_x
 _atom_site_fract_y
 _atom_site_fract_z
 _atom_site_fract_occupancy
 Bi  Bi1  1  0.35340  0.35340  0.70679  1
 Bi  Bi2  1  0.64660  0.64660  0.29321  1
 O  O1  1  0.75000  0.25000  0.50000  1
 O  O2  1  0.25000  0.75000  0.50000  1
 Se  Se1  1  0.00000  0.00000  0.00000  1
