CIF file written using JARVIS-Tools package.
data_Er2B4C
_symmetry_space_group_name_H-M  'Immm'
_cell_length_a       3.25154
_cell_length_b       5.21346
_cell_length_c       5.21346
_cell_angle_alpha    77.7898
_cell_angle_beta     71.8298
_cell_angle_gamma    71.8298

_symmetry_Int_Tables_number  71
_chemical_formula_structural  Er2B4C
_chemical_formula_sum  Er2B4C
_cell_volume  79.14154917595185
_cell_formula_units_Z  1
loop_
  _symmetry_equiv_pos_site_id
 _symmetry_equiv_pos_as_xyz
 1  'x, y, z'
loop_
 _atom_site_type_symbol
 _atom_site_label
 _atom_site_symmetry_multiplicity
 _atom_site_fract_x
 _atom_site_fract_y
 _atom_site_fract_z
 _atom_site_fract_occupancy
 B  B1  1  0.50000  0.36578  0.63422  1
 B  B2  1  0.50000  0.63422  0.36578  1
 B  B3  1  0.00000  0.77238  0.22762  1
 B  B4  1  0.00000  0.22762  0.77238  1
 C  C1  1  0.00000  0.00000  0.00000  1
 Er  Er1  1  0.26575  0.23425  0.23425  1
 Er  Er2  1  0.73425  0.76575  0.76575  1
