CIF file written using JARVIS-Tools package.
data_K5V3F14
_symmetry_space_group_name_H-M  'P4/mnc'
_cell_length_a       7.59373
_cell_length_b       7.59373
_cell_length_c       11.8358
_cell_angle_alpha    90
_cell_angle_beta     90
_cell_angle_gamma    90

_symmetry_Int_Tables_number  128
_chemical_formula_structural  K5V3F14
_chemical_formula_sum  K0V6F28
_cell_volume  682.5087762149368
_cell_formula_units_Z  2
loop_
  _symmetry_equiv_pos_site_id
 _symmetry_equiv_pos_as_xyz
 1  'x, y, z'
loop_
 _atom_site_type_symbol
 _atom_site_label
 _atom_site_symmetry_multiplicity
 _atom_site_fract_x
 _atom_site_fract_y
 _atom_site_fract_z
 _atom_site_fract_occupancy
 F  F1  1  0.54314  0.82200  0.38655  1
 F  F2  1  0.17800  0.54314  0.38655  1
 F  F3  1  0.82200  0.45686  0.38655  1
 F  F4  1  0.45686  0.17800  0.38655  1
 F  F5  1  0.95686  0.32200  0.88655  1
 F  F6  1  0.32200  0.04314  0.88655  1
 F  F7  1  0.55840  0.25004  0.00000  1
 F  F8  1  0.75004  0.05840  0.50000  1
 F  F9  1  0.94160  0.75004  0.50000  1
 F  F10  1  0.95686  0.32200  0.11345  1
 F  F11  1  0.05840  0.24996  0.50000  1
 F  F12  1  0.74996  0.55840  0.00000  1
 F  F13  1  0.24996  0.94160  0.50000  1
 F  F14  1  0.82200  0.45686  0.61345  1
 F  F15  1  0.44160  0.74996  0.00000  1
 F  F16  1  0.00000  0.00000  0.33321  1
 F  F17  1  0.50000  0.50000  0.16679  1
 F  F18  1  0.00000  0.00000  0.66679  1
 F  F19  1  0.50000  0.50000  0.83321  1
 F  F20  1  0.25004  0.44160  0.00000  1
 F  F21  1  0.04314  0.67800  0.11345  1
 F  F22  1  0.04314  0.67800  0.88655  1
 F  F23  1  0.67800  0.95686  0.11345  1
 F  F24  1  0.32200  0.04314  0.11345  1
 F  F25  1  0.54314  0.82200  0.61345  1
 F  F26  1  0.17800  0.54314  0.61345  1
 F  F27  1  0.45686  0.17800  0.61345  1
 F  F28  1  0.67800  0.95686  0.88655  1
 K  K1  1  0.71589  0.21589  0.75000  1
 K  K2  1  0.28411  0.78411  0.75000  1
 K  K3  1  0.78411  0.71589  0.75000  1
 K  K4  1  0.78411  0.71589  0.25000  1
 K  K5  1  0.28411  0.78411  0.25000  1
 K  K6  1  0.71589  0.21589  0.25000  1
 K  K7  1  0.21589  0.28411  0.25000  1
 K  K8  1  0.21589  0.28411  0.75000  1
 K  K9  1  0.50000  0.50000  0.50000  1
 K  K10  1  0.00000  0.00000  0.00000  1
 V  V1  1  0.00000  0.50000  0.00000  1
 V  V2  1  0.00000  0.50000  0.50000  1
 V  V3  1  0.00000  0.00000  0.50000  1
 V  V4  1  0.50000  0.50000  0.00000  1
 V  V5  1  0.50000  0.00000  0.00000  1
 V  V6  1  0.50000  0.00000  0.50000  1
