CIF file written using JARVIS-Tools package.
data_Cd2SiO4
_symmetry_space_group_name_H-M  'Fd-3m'
_cell_length_a       6.21092
_cell_length_b       6.21092
_cell_length_c       6.21093
_cell_angle_alpha    60
_cell_angle_beta     60
_cell_angle_gamma    60

_symmetry_Int_Tables_number  227
_chemical_formula_structural  Cd2SiO4
_chemical_formula_sum  Cd4Si2O8
_cell_volume  169.41609417886752
_cell_formula_units_Z  2
loop_
  _symmetry_equiv_pos_site_id
 _symmetry_equiv_pos_as_xyz
 1  'x, y, z'
loop_
 _atom_site_type_symbol
 _atom_site_label
 _atom_site_symmetry_multiplicity
 _atom_site_fract_x
 _atom_site_fract_y
 _atom_site_fract_z
 _atom_site_fract_occupancy
 Cd  Cd1  1  0.50000  0.00000  0.50000  1
 Cd  Cd2  1  -0.00000  0.50000  0.50000  1
 Cd  Cd3  1  0.50000  0.50000  0.50000  1
 Cd  Cd4  1  0.50000  0.50000  0.00000  1
 O  O1  1  0.76476  0.20571  0.76476  1
 O  O2  1  0.23524  0.23524  0.79429  1
 O  O3  1  0.23524  0.79429  0.23524  1
 O  O4  1  0.76476  0.76476  0.76476  1
 O  O5  1  0.79429  0.23524  0.23524  1
 O  O6  1  0.76476  0.76476  0.20571  1
 O  O7  1  0.23524  0.23524  0.23524  1
 O  O8  1  0.20571  0.76476  0.76476  1
 Si  Si1  1  0.87500  0.87500  0.87500  1
 Si  Si2  1  0.12500  0.12500  0.12500  1
