CIF file written using JARVIS-Tools package.
data_TeMoWSeS2
_symmetry_space_group_name_H-M  'P3m1'
_cell_length_a       3.3157
_cell_length_b       3.31572
_cell_length_c       34.4044
_cell_angle_alpha    89.9989
_cell_angle_beta     90
_cell_angle_gamma    120

_symmetry_Int_Tables_number  156
_chemical_formula_structural  TeMoWSeS2
_chemical_formula_sum  Te2Mo2W2Se2S4
_cell_volume  327.56513158358894
_cell_formula_units_Z  2
loop_
  _symmetry_equiv_pos_site_id
 _symmetry_equiv_pos_as_xyz
 1  'x, y, z'
loop_
 _atom_site_type_symbol
 _atom_site_label
 _atom_site_symmetry_multiplicity
 _atom_site_fract_x
 _atom_site_fract_y
 _atom_site_fract_z
 _atom_site_fract_occupancy
 Mo  Mo1  1  0.33332  0.66665  0.46348  1
 Mo  Mo2  1  0.66668  0.33336  0.28319  1
 S  S1  1  0.33334  0.66668  0.32761  1
 S  S2  1  0.66666  0.33333  0.41907  1
 S  S3  1  0.66666  0.33331  0.50787  1
 S  S4  1  0.33336  0.66671  0.23875  1
 Se  Se1  1  0.66667  0.33334  0.04730  1
 Se  Se2  1  0.66661  0.33322  0.14522  1
 Te  Te1  1  0.33338  0.66675  0.71590  1
 Te  Te2  1  0.33333  0.66666  0.60409  1
 W  W1  1  0.33331  0.66662  0.09623  1
 W  W2  1  0.66669  0.33337  0.66005  1
