CIF file written using JARVIS-Tools package.
data_TeMoS
_symmetry_space_group_name_H-M  'Pmmn'
_cell_length_a       3.37931
_cell_length_b       13.8044
_cell_length_c       5.81402
_cell_angle_alpha    89.9998
_cell_angle_beta     90
_cell_angle_gamma    90

_symmetry_Int_Tables_number  59
_chemical_formula_structural  TeMoS
_chemical_formula_sum  Te4Mo4S4
_cell_volume  271.21943725530394
_cell_formula_units_Z  4
loop_
  _symmetry_equiv_pos_site_id
 _symmetry_equiv_pos_as_xyz
 1  'x, y, z'
loop_
 _atom_site_type_symbol
 _atom_site_label
 _atom_site_symmetry_multiplicity
 _atom_site_fract_x
 _atom_site_fract_y
 _atom_site_fract_z
 _atom_site_fract_occupancy
 Mo  Mo1  1  0.00001  0.25000  0.31140  1
 Mo  Mo2  1  0.49999  0.75000  0.18862  1
 Mo  Mo3  1  0.50000  0.25000  0.77929  1
 Mo  Mo4  1  0.00000  0.75000  0.72069  1
 S  S1  1  0.50000  0.63857  0.86926  1
 S  S2  1  -0.00000  0.13856  0.63074  1
 S  S3  1  -0.00000  0.36144  0.63074  1
 S  S4  1  0.50000  0.86143  0.86926  1
 Te  Te1  1  0.99999  0.61562  0.37432  1
 Te  Te2  1  0.50001  0.11563  0.12568  1
 Te  Te3  1  0.50001  0.38437  0.12568  1
 Te  Te4  1  0.99999  0.88438  0.37432  1
