CIF file written using JARVIS-Tools package.
data_CaCrF5
_symmetry_space_group_name_H-M  'C2/c'
_cell_length_a       5.53506
_cell_length_b       5.53506
_cell_length_c       7.51957
_cell_angle_alpha    70.2192
_cell_angle_beta     70.2192
_cell_angle_gamma    71.5392

_symmetry_Int_Tables_number  15
_chemical_formula_structural  CaCrF5
_chemical_formula_sum  Ca2Cr2F0
_cell_volume  198.6054668633223
_cell_formula_units_Z  2
loop_
  _symmetry_equiv_pos_site_id
 _symmetry_equiv_pos_as_xyz
 1  'x, y, z'
loop_
 _atom_site_type_symbol
 _atom_site_label
 _atom_site_symmetry_multiplicity
 _atom_site_fract_x
 _atom_site_fract_y
 _atom_site_fract_z
 _atom_site_fract_occupancy
 Ca  Ca1  1  0.54631  0.45369  0.75000  1
 Ca  Ca2  1  0.45369  0.54631  0.25000  1
 Cr  Cr1  1  0.00000  0.00000  0.00000  1
 Cr  Cr2  1  -0.00000  -0.00000  0.50000  1
 F  F1  1  0.80156  0.74186  0.61860  1
 F  F2  1  0.25814  0.19844  0.88140  1
 F  F3  1  0.19844  0.25814  0.38140  1
 F  F4  1  0.74186  0.80156  0.11860  1
 F  F5  1  0.93546  0.06454  0.75000  1
 F  F6  1  0.06454  0.93546  0.25000  1
 F  F7  1  0.72339  0.31316  0.02554  1
 F  F8  1  0.68684  0.27661  0.47446  1
 F  F9  1  0.27661  0.68684  0.97446  1
 F  F10  1  0.31316  0.72339  0.52554  1
