CIF file written using JARVIS-Tools package.
data_Ta2Ni
_symmetry_space_group_name_H-M  'I4/mcm'
_cell_length_a       4.85933
_cell_length_b       5.02607
_cell_length_c       5.02607
_cell_angle_alpha    76.4857
_cell_angle_beta     61.0914
_cell_angle_gamma    61.0914

_symmetry_Int_Tables_number  140
_chemical_formula_structural  Ta2Ni
_chemical_formula_sum  Ta4Ni2
_cell_volume  94.06712186845999
_cell_formula_units_Z  2
loop_
  _symmetry_equiv_pos_site_id
 _symmetry_equiv_pos_as_xyz
 1  'x, y, z'
loop_
 _atom_site_type_symbol
 _atom_site_label
 _atom_site_symmetry_multiplicity
 _atom_site_fract_x
 _atom_site_fract_y
 _atom_site_fract_z
 _atom_site_fract_occupancy
 Ni  Ni1  1  0.25000  0.00000  0.00000  1
 Ni  Ni2  1  0.75000  0.00000  -0.00000  1
 Ta  Ta1  1  0.15826  0.50000  0.18347  1
 Ta  Ta2  1  0.34174  0.81653  0.50000  1
 Ta  Ta3  1  0.65826  0.18347  0.50000  1
 Ta  Ta4  1  0.84174  0.50000  0.81653  1
