CIF file written using JARVIS-Tools package.
data_YbAl7Au3
_symmetry_space_group_name_H-M  'R-3c'
_cell_length_a       8.50274
_cell_length_b       8.50274
_cell_length_c       8.50274
_cell_angle_alpha    56.8676
_cell_angle_beta     56.8676
_cell_angle_gamma    56.8676

_symmetry_Int_Tables_number  167
_chemical_formula_structural  YbAl7Au3
_chemical_formula_sum  Yb2Al4Au6
_cell_volume  403.2563620187176
_cell_formula_units_Z  2
loop_
  _symmetry_equiv_pos_site_id
 _symmetry_equiv_pos_as_xyz
 1  'x, y, z'
loop_
 _atom_site_type_symbol
 _atom_site_label
 _atom_site_symmetry_multiplicity
 _atom_site_fract_x
 _atom_site_fract_y
 _atom_site_fract_z
 _atom_site_fract_occupancy
 Al  Al1  1  0.85208  0.66717  0.06942  1
 Al  Al2  1  0.43058  0.83283  0.64792  1
 Al  Al3  1  0.83283  0.64792  0.43058  1
 Al  Al4  1  0.66717  0.06942  0.85208  1
 Al  Al5  1  0.06942  0.85208  0.66717  1
 Al  Al6  1  0.35208  0.56942  0.16717  1
 Al  Al7  1  0.56942  0.16717  0.35208  1
 Al  Al8  1  0.14792  0.33283  0.93058  1
 Al  Al9  1  0.75000  0.75000  0.75000  1
 Al  Al10  1  0.93058  0.14792  0.33283  1
 Al  Al11  1  0.33283  0.93058  0.14792  1
 Al  Al12  1  0.16717  0.35208  0.56942  1
 Al  Al13  1  0.64792  0.43058  0.83283  1
 Al  Al14  1  0.25000  0.25000  0.25000  1
 Au  Au1  1  0.75000  0.42507  0.07493  1
 Au  Au2  1  0.42507  0.07493  0.75000  1
 Au  Au3  1  0.07493  0.75000  0.42507  1
 Au  Au4  1  0.57493  0.92507  0.25000  1
 Au  Au5  1  0.92507  0.25000  0.57493  1
 Au  Au6  1  0.25000  0.57493  0.92507  1
 Yb  Yb1  1  0.50000  0.50000  0.50000  1
 Yb  Yb2  1  0.00000  0.00000  0.00000  1
