CIF file written using JARVIS-Tools package.
data_Li2NiF4
_symmetry_space_group_name_H-M  'Imma'
_cell_length_a       5.87393
_cell_length_b       5.87393
_cell_length_c       5.7997
_cell_angle_alpha    60.4171
_cell_angle_beta     60.4171
_cell_angle_gamma    61.0663

_symmetry_Int_Tables_number  74
_chemical_formula_structural  Li2NiF4
_chemical_formula_sum  Li4Ni2F8
_cell_volume  143.50917142800674
_cell_formula_units_Z  2
loop_
  _symmetry_equiv_pos_site_id
 _symmetry_equiv_pos_as_xyz
 1  'x, y, z'
loop_
 _atom_site_type_symbol
 _atom_site_label
 _atom_site_symmetry_multiplicity
 _atom_site_fract_x
 _atom_site_fract_y
 _atom_site_fract_z
 _atom_site_fract_occupancy
 F  F1  1  0.25277  0.25277  0.25952  1
 F  F2  1  0.25277  0.25277  0.73494  1
 F  F3  1  0.25623  0.72392  0.25993  1
 F  F4  1  0.72392  0.25623  0.25993  1
 F  F5  1  0.27608  0.74377  0.74007  1
 F  F6  1  0.74723  0.74723  0.26506  1
 F  F7  1  0.74377  0.27608  0.74007  1
 F  F8  1  0.74723  0.74723  0.74048  1
 Li  Li1  1  0.11295  0.11295  0.13705  1
 Li  Li2  1  0.50000  0.50000  -0.00000  1
 Li  Li3  1  0.50000  0.50000  0.50000  1
 Li  Li4  1  0.88705  0.88705  0.86295  1
 Ni  Ni1  1  0.50000  -0.00000  0.50000  1
 Ni  Ni2  1  -0.00000  0.50000  0.50000  1
