CIF file written using JARVIS-Tools package.
data_SrLiB3S6
_symmetry_space_group_name_H-M  'Cc'
_cell_length_a       7.77899
_cell_length_b       8.67281
_cell_length_c       8.67281
_cell_angle_alpha    60.4208
_cell_angle_beta     66.5752
_cell_angle_gamma    66.5752

_symmetry_Int_Tables_number  9
_chemical_formula_structural  SrLiB3S6
_chemical_formula_sum  Sr2Li2B6S2
_cell_volume  451.82196212243446
_cell_formula_units_Z  2
loop_
  _symmetry_equiv_pos_site_id
 _symmetry_equiv_pos_as_xyz
 1  'x, y, z'
loop_
 _atom_site_type_symbol
 _atom_site_label
 _atom_site_symmetry_multiplicity
 _atom_site_fract_x
 _atom_site_fract_y
 _atom_site_fract_z
 _atom_site_fract_occupancy
 B  B1  1  0.94340  0.01411  0.02658  1
 B  B2  1  0.04194  0.75849  0.83916  1
 B  B3  1  0.54194  0.83916  0.75849  1
 B  B4  1  0.02316  0.60459  0.24843  1
 B  B5  1  0.44340  0.02658  0.01411  1
 B  B6  1  0.52316  0.24843  0.60459  1
 Li  Li1  1  0.93657  0.48919  0.70599  1
 Li  Li2  1  0.43657  0.70599  0.48919  1
 S  S1  1  0.43644  0.25367  0.82985  1
 S  S2  1  0.49284  0.81349  0.99231  1
 S  S3  1  0.99284  0.99231  0.81349  1
 S  S4  1  0.57628  0.63771  0.73181  1
 S  S5  1  0.06348  0.55514  0.05264  1
 S  S6  1  0.58759  0.44129  0.40370  1
 S  S7  1  0.90538  0.23625  0.01702  1
 S  S8  1  0.08759  0.40370  0.44129  1
 S  S9  1  0.07628  0.73181  0.63771  1
 S  S10  1  0.93644  0.82985  0.25367  1
 S  S11  1  0.40538  0.01702  0.23625  1
 S  S12  1  0.56348  0.05264  0.55514  1
 Sr  Sr1  1  0.47441  0.38092  0.13781  1
 Sr  Sr2  1  0.97441  0.13781  0.38092  1
