CIF file written using JARVIS-Tools package.
data_FeNi2Se4
_symmetry_space_group_name_H-M  'C2/m'
_cell_length_a       3.60676
_cell_length_b       6.18778
_cell_length_c       6.24332
_cell_angle_alpha    117.631
_cell_angle_beta     106.789
_cell_angle_gamma    90

_symmetry_Int_Tables_number  12
_chemical_formula_structural  FeNi2Se4
_chemical_formula_sum  FeNi2Se4
_cell_volume  116.70144496559493
_cell_formula_units_Z  1
loop_
  _symmetry_equiv_pos_site_id
 _symmetry_equiv_pos_as_xyz
 1  'x, y, z'
loop_
 _atom_site_type_symbol
 _atom_site_label
 _atom_site_symmetry_multiplicity
 _atom_site_fract_x
 _atom_site_fract_y
 _atom_site_fract_z
 _atom_site_fract_occupancy
 Fe  Fe1  1  0.00000  0.00000  0.00000  1
 Ni  Ni1  1  0.26340  0.28964  0.52681  1
 Ni  Ni2  1  0.73660  0.71036  0.47319  1
 Se  Se1  1  0.11434  0.44843  0.22869  1
 Se  Se2  1  0.88566  0.55157  0.77131  1
 Se  Se3  1  0.36909  0.02663  0.73817  1
 Se  Se4  1  0.63091  0.97337  0.26183  1
