CIF file written using JARVIS-Tools package.
data_LiTi3Se6
_symmetry_space_group_name_H-M  'P-3m1'
_cell_length_a       3.58042
_cell_length_b       3.58042
_cell_length_c       18.6047
_cell_angle_alpha    90
_cell_angle_beta     90
_cell_angle_gamma    120

_symmetry_Int_Tables_number  164
_chemical_formula_structural  LiTi3Se6
_chemical_formula_sum  LiTi3Se6
_cell_volume  206.54751847341754
_cell_formula_units_Z  1
loop_
  _symmetry_equiv_pos_site_id
 _symmetry_equiv_pos_as_xyz
 1  'x, y, z'
loop_
 _atom_site_type_symbol
 _atom_site_label
 _atom_site_symmetry_multiplicity
 _atom_site_fract_x
 _atom_site_fract_y
 _atom_site_fract_z
 _atom_site_fract_occupancy
 Li  Li1  1  0.00000  0.00000  0.50000  1
 Se  Se1  1  0.33333  0.66667  0.59094  1
 Se  Se2  1  0.66667  0.33333  0.40906  1
 Se  Se3  1  0.33333  0.66667  0.24274  1
 Se  Se4  1  0.66667  0.33333  0.75726  1
 Se  Se5  1  0.33333  0.66667  0.91801  1
 Se  Se6  1  0.66667  0.33333  0.08199  1
 Ti  Ti1  1  0.00000  0.00000  0.00000  1
 Ti  Ti2  1  0.00000  0.00000  0.67713  1
 Ti  Ti3  1  0.00000  0.00000  0.32287  1
