CIF file written using JARVIS-Tools package.
data_Te2Mo
_symmetry_space_group_name_H-M  'P2_1/m'
_cell_length_a       6.3738
_cell_length_b       3.52485
_cell_length_c       14.1107
_cell_angle_alpha    90
_cell_angle_beta     92.467
_cell_angle_gamma    90

_symmetry_Int_Tables_number  11
_chemical_formula_structural  Te2Mo
_chemical_formula_sum  Te8Mo4
_cell_volume  316.7281389995596
_cell_formula_units_Z  4
loop_
  _symmetry_equiv_pos_site_id
 _symmetry_equiv_pos_as_xyz
 1  'x, y, z'
loop_
 _atom_site_type_symbol
 _atom_site_label
 _atom_site_symmetry_multiplicity
 _atom_site_fract_x
 _atom_site_fract_y
 _atom_site_fract_z
 _atom_site_fract_occupancy
 Mo  Mo1  1  0.18037  0.75000  0.00746  1
 Mo  Mo2  1  0.81963  0.25000  0.99254  1
 Mo  Mo3  1  0.32097  0.25000  0.50699  1
 Mo  Mo4  1  0.67903  0.75000  0.49301  1
 Te  Te1  1  0.58362  0.75000  0.10312  1
 Te  Te2  1  0.41638  0.25000  0.89688  1
 Te  Te3  1  0.09124  0.25000  0.14709  1
 Te  Te4  1  0.90876  0.75000  0.85291  1
 Te  Te5  1  0.56562  0.25000  0.35311  1
 Te  Te6  1  0.43438  0.75000  0.64689  1
 Te  Te7  1  0.06304  0.75000  0.39670  1
 Te  Te8  1  0.93696  0.25000  0.60330  1
