CIF file written using JARVIS-Tools package.
data_YMnF5
_symmetry_space_group_name_H-M  'Immm'
_cell_length_a       4.12062
_cell_length_b       5.68418
_cell_length_c       5.68417
_cell_angle_alpha    73.1165
_cell_angle_beta     68.7485
_cell_angle_gamma    68.7484

_symmetry_Int_Tables_number  71
_chemical_formula_structural  YMnF5
_chemical_formula_sum  YMnF5
_cell_volume  113.68997164784975
_cell_formula_units_Z  1
loop_
  _symmetry_equiv_pos_site_id
 _symmetry_equiv_pos_as_xyz
 1  'x, y, z'
loop_
 _atom_site_type_symbol
 _atom_site_label
 _atom_site_symmetry_multiplicity
 _atom_site_fract_x
 _atom_site_fract_y
 _atom_site_fract_z
 _atom_site_fract_occupancy
 F  F1  1  0.50000  0.82459  0.17541  1
 F  F2  1  0.50000  0.17541  0.82459  1
 F  F3  1  0.76925  0.23075  0.23075  1
 F  F4  1  0.23075  0.76925  0.76925  1
 F  F5  1  0.00000  0.50000  0.50000  1
 Mn  Mn1  1  0.00000  0.00000  0.00000  1
 Y  Y1  1  0.50000  0.50000  0.50000  1
