CIF file written using JARVIS-Tools package.
data_NbNiP2
_symmetry_space_group_name_H-M  'Pnma'
_cell_length_a       3.37749
_cell_length_b       5.45898
_cell_length_c       12.273
_cell_angle_alpha    90
_cell_angle_beta     90
_cell_angle_gamma    90

_symmetry_Int_Tables_number  62
_chemical_formula_structural  NbNiP2
_chemical_formula_sum  Nb4Ni4P8
_cell_volume  226.28577810605464
_cell_formula_units_Z  4
loop_
  _symmetry_equiv_pos_site_id
 _symmetry_equiv_pos_as_xyz
 1  'x, y, z'
loop_
 _atom_site_type_symbol
 _atom_site_label
 _atom_site_symmetry_multiplicity
 _atom_site_fract_x
 _atom_site_fract_y
 _atom_site_fract_z
 _atom_site_fract_occupancy
 Nb  Nb1  1  0.75000  0.98505  0.17002  1
 Nb  Nb2  1  0.25000  0.01495  0.82998  1
 Nb  Nb3  1  0.75000  0.48505  0.32998  1
 Nb  Nb4  1  0.25000  0.51495  0.67002  1
 Ni  Ni1  1  0.25000  0.51955  0.91394  1
 Ni  Ni2  1  0.25000  0.01955  0.58606  1
 Ni  Ni3  1  0.75000  0.48045  0.08606  1
 Ni  Ni4  1  0.75000  0.98045  0.41394  1
 P  P1  1  0.25000  0.69488  0.46343  1
 P  P2  1  0.75000  0.30512  0.53657  1
 P  P3  1  0.25000  0.19488  0.03657  1
 P  P4  1  0.75000  0.80512  0.96343  1
 P  P5  1  0.25000  0.63827  0.19068  1
 P  P6  1  0.75000  0.86173  0.69068  1
 P  P7  1  0.25000  0.13827  0.30932  1
 P  P8  1  0.75000  0.36173  0.80932  1
