CIF file written using JARVIS-Tools package.
data_PHPb2F10
_symmetry_space_group_name_H-M  'P-1'
_cell_length_a       4.59261
_cell_length_b       4.76885
_cell_length_c       8.83925
_cell_angle_alpha    86.5131
_cell_angle_beta     76.256
_cell_angle_gamma    82.481

_symmetry_Int_Tables_number  2
_chemical_formula_structural  PHPb2F10
_chemical_formula_sum  PHPb2F0
_cell_volume  186.3438715342282
_cell_formula_units_Z  1
loop_
  _symmetry_equiv_pos_site_id
 _symmetry_equiv_pos_as_xyz
 1  'x, y, z'
loop_
 _atom_site_type_symbol
 _atom_site_label
 _atom_site_symmetry_multiplicity
 _atom_site_fract_x
 _atom_site_fract_y
 _atom_site_fract_z
 _atom_site_fract_occupancy
 F  F1  1  0.67880  0.70577  0.03795  1
 F  F2  1  0.83719  0.23797  0.09778  1
 F  F3  1  0.07462  0.59578  0.16031  1
 F  F4  1  0.39078  0.52344  0.39444  1
 F  F5  1  0.78889  0.98223  0.41401  1
 F  F6  1  0.21111  0.01777  0.58599  1
 F  F7  1  0.60922  0.47656  0.60556  1
 F  F8  1  0.92538  0.40422  0.83969  1
 F  F9  1  0.16281  0.76203  0.90222  1
 F  F10  1  0.32120  0.29423  0.96205  1
 H  H1  1  0.50000  0.50000  0.50000  1
 P  P1  1  -0.00000  0.50000  0.00000  1
 Pb  Pb1  1  0.33023  0.02905  0.31025  1
 Pb  Pb2  1  0.66977  0.97095  0.68975  1
