CIF file written using JARVIS-Tools package.
data_Bi2Rh
_symmetry_space_group_name_H-M  'P2_1/c'
_cell_length_a       7.02442
_cell_length_b       6.92772
_cell_length_c       7.06468
_cell_angle_alpha    90
_cell_angle_beta     117.196
_cell_angle_gamma    90

_symmetry_Int_Tables_number  14
_chemical_formula_structural  Bi2Rh
_chemical_formula_sum  Bi8Rh4
_cell_volume  305.7828344388441
_cell_formula_units_Z  4
loop_
  _symmetry_equiv_pos_site_id
 _symmetry_equiv_pos_as_xyz
 1  'x, y, z'
loop_
 _atom_site_type_symbol
 _atom_site_label
 _atom_site_symmetry_multiplicity
 _atom_site_fract_x
 _atom_site_fract_y
 _atom_site_fract_z
 _atom_site_fract_occupancy
 Bi  Bi1  1  0.14535  0.35770  0.37127  1
 Bi  Bi2  1  0.85465  0.85770  0.12873  1
 Bi  Bi3  1  0.85465  0.64230  0.62873  1
 Bi  Bi4  1  0.14535  0.14230  0.87127  1
 Bi  Bi5  1  0.34717  0.85829  0.67192  1
 Bi  Bi6  1  0.65283  0.35829  0.82808  1
 Bi  Bi7  1  0.65283  0.14171  0.32808  1
 Bi  Bi8  1  0.34717  0.64171  0.17192  1
 Rh  Rh1  1  0.27126  0.49886  0.78544  1
 Rh  Rh2  1  0.72874  0.99886  0.71456  1
 Rh  Rh3  1  0.72874  0.50114  0.21456  1
 Rh  Rh4  1  0.27126  0.00114  0.28544  1
