CIF file written using JARVIS-Tools package.
data_V5SiB2
_symmetry_space_group_name_H-M  'I4/mcm'
_cell_length_a       5.78785
_cell_length_b       5.78786
_cell_length_c       6.77063
_cell_angle_alpha    115.305
_cell_angle_beta     115.304
_cell_angle_gamma    90

_symmetry_Int_Tables_number  140
_chemical_formula_structural  V5SiB2
_chemical_formula_sum  V0Si2B4
_cell_volume  180.68357837798033
_cell_formula_units_Z  2
loop_
  _symmetry_equiv_pos_site_id
 _symmetry_equiv_pos_as_xyz
 1  'x, y, z'
loop_
 _atom_site_type_symbol
 _atom_site_label
 _atom_site_symmetry_multiplicity
 _atom_site_fract_x
 _atom_site_fract_y
 _atom_site_fract_z
 _atom_site_fract_occupancy
 B  B1  1  0.61420  0.11420  0.00000  1
 B  B2  1  0.88580  0.61420  0.00000  1
 B  B3  1  0.11420  0.38580  -0.00000  1
 B  B4  1  0.38580  0.88580  -0.00000  1
 Si  Si1  1  0.75000  0.75000  0.50000  1
 Si  Si2  1  0.25000  0.25000  0.50000  1
 V  V1  1  0.19329  0.03351  0.72680  1
 V  V2  1  0.03351  0.53351  0.72680  1
 V  V3  1  0.69329  0.19328  0.72680  1
 V  V4  1  0.96649  0.46649  0.27320  1
 V  V5  1  0.53352  0.69328  0.72680  1
 V  V6  1  0.80671  0.96649  0.27320  1
 V  V7  1  0.46648  0.30672  0.27320  1
 V  V8  1  0.30671  0.80672  0.27320  1
 V  V9  1  0.50000  0.50000  -0.00000  1
 V  V10  1  0.00000  0.00000  0.00000  1
