CIF file written using JARVIS-Tools package.
data_Mn3Al10
_symmetry_space_group_name_H-M  'P6_3/mmc'
_cell_length_a       7.53231
_cell_length_b       7.53231
_cell_length_c       7.81437
_cell_angle_alpha    90
_cell_angle_beta     90
_cell_angle_gamma    120

_symmetry_Int_Tables_number  194
_chemical_formula_structural  Mn3Al10
_chemical_formula_sum  Mn6Al20
_cell_volume  383.95480257561303
_cell_formula_units_Z  2
loop_
  _symmetry_equiv_pos_site_id
 _symmetry_equiv_pos_as_xyz
 1  'x, y, z'
loop_
 _atom_site_type_symbol
 _atom_site_label
 _atom_site_symmetry_multiplicity
 _atom_site_fract_x
 _atom_site_fract_y
 _atom_site_fract_z
 _atom_site_fract_occupancy
 Al  Al1  1  0.60012  0.80006  0.93504  1
 Al  Al2  1  0.00000  0.00000  0.00000  1
 Al  Al3  1  0.00000  0.00000  0.50000  1
 Al  Al4  1  0.45711  0.91421  0.25000  1
 Al  Al5  1  0.54289  0.45711  0.75000  1
 Al  Al6  1  0.91421  0.45711  0.75000  1
 Al  Al7  1  0.08579  0.54289  0.25000  1
 Al  Al8  1  0.19994  0.39988  0.56496  1
 Al  Al9  1  0.54289  0.08579  0.75000  1
 Al  Al10  1  0.45711  0.54289  0.25000  1
 Al  Al11  1  0.80006  0.19994  0.43504  1
 Al  Al12  1  0.39988  0.19994  0.43504  1
 Al  Al13  1  0.19994  0.80006  0.56496  1
 Al  Al14  1  0.19994  0.80006  0.93504  1
 Al  Al15  1  0.80006  0.60012  0.06496  1
 Al  Al16  1  0.80006  0.19994  0.06496  1
 Al  Al17  1  0.80006  0.60012  0.43504  1
 Al  Al18  1  0.39988  0.19994  0.06496  1
 Al  Al19  1  0.60012  0.80006  0.56496  1
 Al  Al20  1  0.19994  0.39988  0.93504  1
 Mn  Mn1  1  0.87825  0.75651  0.75000  1
 Mn  Mn2  1  0.12175  0.87825  0.25000  1
 Mn  Mn3  1  0.75651  0.87825  0.25000  1
 Mn  Mn4  1  0.24349  0.12175  0.75000  1
 Mn  Mn5  1  0.87825  0.12175  0.75000  1
 Mn  Mn6  1  0.12175  0.24349  0.25000  1
