CIF file written using JARVIS-Tools package.
data_AgBr
_symmetry_space_group_name_H-M  'Fm-3m'
_cell_length_a       4.09218
_cell_length_b       4.09277
_cell_length_c       5.78673
_cell_angle_alpha    90
_cell_angle_beta     90.0128
_cell_angle_gamma    90

_symmetry_Int_Tables_number  225
_chemical_formula_structural  AgBr
_chemical_formula_sum  Ag2Br2
_cell_volume  96.91829377914327
_cell_formula_units_Z  2
loop_
  _symmetry_equiv_pos_site_id
 _symmetry_equiv_pos_as_xyz
 1  'x, y, z'
loop_
 _atom_site_type_symbol
 _atom_site_label
 _atom_site_symmetry_multiplicity
 _atom_site_fract_x
 _atom_site_fract_y
 _atom_site_fract_z
 _atom_site_fract_occupancy
 Ag  Ag1  1  0.75008  0.75000  0.74993  1
 Ag  Ag2  1  0.24992  0.25000  0.25007  1
 Br  Br1  1  0.25006  0.25000  0.75004  1
 Br  Br2  1  0.74994  0.75000  0.24996  1
