CIF file written using JARVIS-Tools package.
data_Zr2InCo2
_symmetry_space_group_name_H-M  'P4/mbm'
_cell_length_a       7.1904
_cell_length_b       7.1904
_cell_length_c       3.29339
_cell_angle_alpha    90
_cell_angle_beta     90
_cell_angle_gamma    90

_symmetry_Int_Tables_number  127
_chemical_formula_structural  Zr2InCo2
_chemical_formula_sum  Zr4In2Co4
_cell_volume  170.27419367382416
_cell_formula_units_Z  2
loop_
  _symmetry_equiv_pos_site_id
 _symmetry_equiv_pos_as_xyz
 1  'x, y, z'
loop_
 _atom_site_type_symbol
 _atom_site_label
 _atom_site_symmetry_multiplicity
 _atom_site_fract_x
 _atom_site_fract_y
 _atom_site_fract_z
 _atom_site_fract_occupancy
 Co  Co1  1  0.37310  0.12690  0.00000  1
 Co  Co2  1  0.12690  0.62690  0.00000  1
 Co  Co3  1  0.62690  0.87310  0.00000  1
 Co  Co4  1  0.87310  0.37310  0.00000  1
 In  In1  1  0.00000  0.00000  0.00000  1
 In  In2  1  0.50000  0.50000  0.00000  1
 Zr  Zr1  1  0.66819  0.16819  0.50000  1
 Zr  Zr2  1  0.16819  0.33181  0.50000  1
 Zr  Zr3  1  0.83181  0.66819  0.50000  1
 Zr  Zr4  1  0.33181  0.83181  0.50000  1
