CIF file written using JARVIS-Tools package.
data_PdF2
_symmetry_space_group_name_H-M  'Pa-3'
_cell_length_a       5.33239
_cell_length_b       5.33239
_cell_length_c       5.33239
_cell_angle_alpha    90
_cell_angle_beta     90
_cell_angle_gamma    90

_symmetry_Int_Tables_number  205
_chemical_formula_structural  PdF2
_chemical_formula_sum  Pd4F8
_cell_volume  151.6230386382454
_cell_formula_units_Z  4
loop_
  _symmetry_equiv_pos_site_id
 _symmetry_equiv_pos_as_xyz
 1  'x, y, z'
loop_
 _atom_site_type_symbol
 _atom_site_label
 _atom_site_symmetry_multiplicity
 _atom_site_fract_x
 _atom_site_fract_y
 _atom_site_fract_z
 _atom_site_fract_occupancy
 F  F1  1  0.34277  0.15723  0.84277  1
 F  F2  1  0.15723  0.84277  0.34277  1
 F  F3  1  0.84277  0.34277  0.15723  1
 F  F4  1  0.65723  0.65723  0.65723  1
 F  F5  1  0.34277  0.34277  0.34277  1
 F  F6  1  0.15723  0.65723  0.84277  1
 F  F7  1  0.84277  0.15723  0.65723  1
 F  F8  1  0.65723  0.84277  0.15723  1
 Pd  Pd1  1  0.00000  0.50000  0.50000  1
 Pd  Pd2  1  0.50000  0.50000  0.00000  1
 Pd  Pd3  1  0.50000  0.00000  0.50000  1
 Pd  Pd4  1  0.00000  0.00000  0.00000  1
