CIF file written using JARVIS-Tools package.
data_BaGePt
_symmetry_space_group_name_H-M  'P2_13'
_cell_length_a       6.83096
_cell_length_b       6.83096
_cell_length_c       6.83096
_cell_angle_alpha    90
_cell_angle_beta     90
_cell_angle_gamma    90

_symmetry_Int_Tables_number  198
_chemical_formula_structural  BaGePt
_chemical_formula_sum  Ba4Ge4Pt4
_cell_volume  318.7469457490898
_cell_formula_units_Z  4
loop_
  _symmetry_equiv_pos_site_id
 _symmetry_equiv_pos_as_xyz
 1  'x, y, z'
loop_
 _atom_site_type_symbol
 _atom_site_label
 _atom_site_symmetry_multiplicity
 _atom_site_fract_x
 _atom_site_fract_y
 _atom_site_fract_z
 _atom_site_fract_occupancy
 Ba  Ba1  1  0.13421  0.13421  0.13421  1
 Ba  Ba2  1  0.63421  0.36579  0.86579  1
 Ba  Ba3  1  0.36579  0.86579  0.63421  1
 Ba  Ba4  1  0.86579  0.63421  0.36579  1
 Ge  Ge1  1  0.33992  0.66008  0.16008  1
 Ge  Ge2  1  0.16008  0.33992  0.66008  1
 Ge  Ge3  1  0.66008  0.16008  0.33992  1
 Ge  Ge4  1  0.83992  0.83992  0.83992  1
 Pt  Pt1  1  0.41109  0.41109  0.41109  1
 Pt  Pt2  1  0.08891  0.58891  0.91109  1
 Pt  Pt3  1  0.91109  0.08891  0.58891  1
 Pt  Pt4  1  0.58891  0.91109  0.08891  1
