CIF file written using JARVIS-Tools package.
data_TaCr2
_symmetry_space_group_name_H-M  'P6_3/mmc'
_cell_length_a       4.88173
_cell_length_b       4.88173
_cell_length_c       8.02933
_cell_angle_alpha    90
_cell_angle_beta     90
_cell_angle_gamma    120

_symmetry_Int_Tables_number  194
_chemical_formula_structural  TaCr2
_chemical_formula_sum  Ta4Cr8
_cell_volume  165.71332016194515
_cell_formula_units_Z  4
loop_
  _symmetry_equiv_pos_site_id
 _symmetry_equiv_pos_as_xyz
 1  'x, y, z'
loop_
 _atom_site_type_symbol
 _atom_site_label
 _atom_site_symmetry_multiplicity
 _atom_site_fract_x
 _atom_site_fract_y
 _atom_site_fract_z
 _atom_site_fract_occupancy
 Cr  Cr1  1  0.16987  0.83013  0.25000  1
 Cr  Cr2  1  0.16987  0.33974  0.25000  1
 Cr  Cr3  1  0.33974  0.16987  0.75000  1
 Cr  Cr4  1  0.83013  0.16987  0.75000  1
 Cr  Cr5  1  0.00000  0.00000  0.00000  1
 Cr  Cr6  1  0.66026  0.83013  0.25000  1
 Cr  Cr7  1  0.83013  0.66026  0.75000  1
 Cr  Cr8  1  0.00000  0.00000  0.50000  1
 Ta  Ta1  1  0.33333  0.66667  0.56005  1
 Ta  Ta2  1  0.66667  0.33333  0.06005  1
 Ta  Ta3  1  0.66667  0.33333  0.43995  1
 Ta  Ta4  1  0.33333  0.66667  0.93995  1
