CIF file written using JARVIS-Tools package.
data_HfSb
_symmetry_space_group_name_H-M  'Cmcm'
_cell_length_a       3.79285
_cell_length_b       5.56346
_cell_length_c       14.0073
_cell_angle_alpha    90
_cell_angle_beta     90
_cell_angle_gamma    109.93

_symmetry_Int_Tables_number  63
_chemical_formula_structural  HfSb
_chemical_formula_sum  Hf6Sb6
_cell_volume  277.87177272605936
_cell_formula_units_Z  6
loop_
  _symmetry_equiv_pos_site_id
 _symmetry_equiv_pos_as_xyz
 1  'x, y, z'
loop_
 _atom_site_type_symbol
 _atom_site_label
 _atom_site_symmetry_multiplicity
 _atom_site_fract_x
 _atom_site_fract_y
 _atom_site_fract_z
 _atom_site_fract_occupancy
 Hf  Hf1  1  0.61233  0.22466  0.25000  1
 Hf  Hf2  1  0.38767  0.77534  0.75000  1
 Hf  Hf3  1  0.07152  0.14304  0.60839  1
 Hf  Hf4  1  0.92848  0.85696  0.39161  1
 Hf  Hf5  1  0.92848  0.85696  0.10839  1
 Hf  Hf6  1  0.07152  0.14304  0.89161  1
 Sb  Sb1  1  0.32525  0.65051  0.25000  1
 Sb  Sb2  1  0.67475  0.34949  0.75000  1
 Sb  Sb3  1  0.35858  0.71715  0.54961  1
 Sb  Sb4  1  0.64142  0.28285  0.45039  1
 Sb  Sb5  1  0.64142  0.28285  0.04961  1
 Sb  Sb6  1  0.35858  0.71715  0.95039  1
