CIF file written using JARVIS-Tools package.
data_AlCu2Re2
_symmetry_space_group_name_H-M  'P4/mbm'
_cell_length_a       5.91926
_cell_length_b       5.91926
_cell_length_c       3.92774
_cell_angle_alpha    90
_cell_angle_beta     90
_cell_angle_gamma    90

_symmetry_Int_Tables_number  127
_chemical_formula_structural  AlCu2Re2
_chemical_formula_sum  Al2Cu4Re4
_cell_volume  137.61862634401905
_cell_formula_units_Z  2
loop_
  _symmetry_equiv_pos_site_id
 _symmetry_equiv_pos_as_xyz
 1  'x, y, z'
loop_
 _atom_site_type_symbol
 _atom_site_label
 _atom_site_symmetry_multiplicity
 _atom_site_fract_x
 _atom_site_fract_y
 _atom_site_fract_z
 _atom_site_fract_occupancy
 Al  Al1  1  0.00000  0.00000  0.00000  1
 Al  Al2  1  0.50000  0.50000  0.00000  1
 Cu  Cu1  1  0.86351  0.36351  0.00000  1
 Cu  Cu2  1  0.36351  0.13649  0.00000  1
 Cu  Cu3  1  0.63649  0.86351  0.00000  1
 Cu  Cu4  1  0.13649  0.63649  0.00000  1
 Re  Re1  1  0.66343  0.16343  0.50000  1
 Re  Re2  1  0.16343  0.33657  0.50000  1
 Re  Re3  1  0.83657  0.66343  0.50000  1
 Re  Re4  1  0.33657  0.83657  0.50000  1
