CIF file written using JARVIS-Tools package.
data_V2P
_symmetry_space_group_name_H-M  'Pnma'
_cell_length_a       3.28044
_cell_length_b       6.19235
_cell_length_c       7.57904
_cell_angle_alpha    90
_cell_angle_beta     90
_cell_angle_gamma    90

_symmetry_Int_Tables_number  62
_chemical_formula_structural  V2P
_chemical_formula_sum  V8P4
_cell_volume  153.95770187336285
_cell_formula_units_Z  4
loop_
  _symmetry_equiv_pos_site_id
 _symmetry_equiv_pos_as_xyz
 1  'x, y, z'
loop_
 _atom_site_type_symbol
 _atom_site_label
 _atom_site_symmetry_multiplicity
 _atom_site_fract_x
 _atom_site_fract_y
 _atom_site_fract_z
 _atom_site_fract_occupancy
 P  P1  1  0.25000  0.74988  0.64173  1
 P  P2  1  0.75000  0.25012  0.35827  1
 P  P3  1  0.25000  0.24988  0.85827  1
 P  P4  1  0.75000  0.75012  0.14173  1
 V  V1  1  0.75000  0.04219  0.66711  1
 V  V2  1  0.25000  0.95781  0.33289  1
 V  V3  1  0.75000  0.54219  0.83289  1
 V  V4  1  0.25000  0.45781  0.16711  1
 V  V5  1  0.25000  0.36176  0.55864  1
 V  V6  1  0.75000  0.63824  0.44136  1
 V  V7  1  0.25000  0.86176  0.94136  1
 V  V8  1  0.75000  0.13824  0.05864  1
