CIF file written using JARVIS-Tools package.
data_Ca4Cl6O
_symmetry_space_group_name_H-M  'P6_3mc'
_cell_length_a       9.04234
_cell_length_b       9.04234
_cell_length_c       6.83067
_cell_angle_alpha    90
_cell_angle_beta     90
_cell_angle_gamma    120

_symmetry_Int_Tables_number  186
_chemical_formula_structural  Ca4Cl6O
_chemical_formula_sum  Ca8Cl2O2
_cell_volume  483.67738731527515
_cell_formula_units_Z  2
loop_
  _symmetry_equiv_pos_site_id
 _symmetry_equiv_pos_as_xyz
 1  'x, y, z'
loop_
 _atom_site_type_symbol
 _atom_site_label
 _atom_site_symmetry_multiplicity
 _atom_site_fract_x
 _atom_site_fract_y
 _atom_site_fract_z
 _atom_site_fract_occupancy
 Ca  Ca1  1  0.80214  0.19786  0.50053  1
 Ca  Ca2  1  0.19786  0.39572  0.00053  1
 Ca  Ca3  1  0.60428  0.80214  0.00053  1
 Ca  Ca4  1  0.39572  0.19786  0.50053  1
 Ca  Ca5  1  0.80214  0.60428  0.50053  1
 Ca  Ca6  1  0.19786  0.80214  0.00053  1
 Ca  Ca7  1  0.66667  0.33333  0.07203  1
 Ca  Ca8  1  0.33333  0.66667  0.57203  1
 Cl  Cl1  1  0.13646  0.86354  0.61526  1
 Cl  Cl2  1  0.86354  0.13646  0.11526  1
 Cl  Cl3  1  0.13646  0.27293  0.61526  1
 Cl  Cl4  1  0.27293  0.13646  0.11526  1
 Cl  Cl5  1  0.86354  0.72707  0.11526  1
 Cl  Cl6  1  0.72707  0.86354  0.61526  1
 Cl  Cl7  1  0.07213  0.53607  0.29156  1
 Cl  Cl8  1  0.53607  0.07213  0.79156  1
 Cl  Cl9  1  0.92787  0.46393  0.79156  1
 Cl  Cl10  1  0.46393  0.92787  0.29156  1
 Cl  Cl11  1  0.53607  0.46393  0.79156  1
 Cl  Cl12  1  0.46393  0.53607  0.29156  1
 O  O1  1  0.66667  0.33333  0.39444  1
 O  O2  1  0.33333  0.66667  0.89444  1
