CIF file written using JARVIS-Tools package.
data_Tb3Si2S8I
_symmetry_space_group_name_H-M  'C2/c'
_cell_length_a       7.62987
_cell_length_b       8.73028
_cell_length_c       10.6816
_cell_angle_alpha    98.668
_cell_angle_beta     90
_cell_angle_gamma    115.911

_symmetry_Int_Tables_number  15
_chemical_formula_structural  Tb3Si2S8I
_chemical_formula_sum  Tb6Si4S6I2
_cell_volume  630.937483676852
_cell_formula_units_Z  2
loop_
  _symmetry_equiv_pos_site_id
 _symmetry_equiv_pos_as_xyz
 1  'x, y, z'
loop_
 _atom_site_type_symbol
 _atom_site_label
 _atom_site_symmetry_multiplicity
 _atom_site_fract_x
 _atom_site_fract_y
 _atom_site_fract_z
 _atom_site_fract_occupancy
 I  I1  1  0.97642  -0.00000  0.75000  1
 I  I2  1  0.02358  0.00000  0.25000  1
 S  S1  1  0.61148  0.71421  0.35631  1
 S  S2  1  0.71670  0.56623  0.08677  1
 S  S3  1  0.25559  0.70729  0.17345  1
 S  S4  1  0.15048  0.43377  0.41323  1
 S  S5  1  0.74441  0.29271  0.82655  1
 S  S6  1  0.40111  0.13436  0.03013  1
 S  S7  1  0.45170  0.70729  0.67345  1
 S  S8  1  0.54830  0.29271  0.32655  1
 S  S9  1  0.10273  0.71421  0.85631  1
 S  S10  1  0.73325  0.13436  0.53013  1
 S  S11  1  0.28330  0.43377  0.91323  1
 S  S12  1  0.89727  0.28579  0.14369  1
 S  S13  1  0.84952  0.56623  0.58677  1
 S  S14  1  0.38852  0.28579  0.64369  1
 S  S15  1  0.26675  0.86564  0.46987  1
 S  S16  1  0.59889  0.86564  0.96987  1
 Si  Si1  1  0.38163  0.68492  0.47710  1
 Si  Si2  1  0.30329  0.68492  0.97710  1
 Si  Si3  1  0.61837  0.31508  0.52290  1
 Si  Si4  1  0.69671  0.31508  0.02290  1
 Tb  Tb1  1  0.38218  0.00000  0.75000  1
 Tb  Tb2  1  0.67387  0.59791  0.82035  1
 Tb  Tb3  1  0.61782  -0.00000  0.25000  1
 Tb  Tb4  1  0.07596  0.40209  0.67965  1
 Tb  Tb5  1  0.32613  0.40209  0.17965  1
 Tb  Tb6  1  0.92404  0.59791  0.32035  1
