CIF file written using JARVIS-Tools package.
data_K2InP2S7
_symmetry_space_group_name_H-M  'C2/m'
_cell_length_a       8.84498
_cell_length_b       8.84498
_cell_length_c       8.64079
_cell_angle_alpha    75.0657
_cell_angle_beta     104.934
_cell_angle_gamma    105.478

_symmetry_Int_Tables_number  12
_chemical_formula_structural  K2InP2S7
_chemical_formula_sum  K4In2P4S4
_cell_volume  616.3863106556853
_cell_formula_units_Z  2
loop_
  _symmetry_equiv_pos_site_id
 _symmetry_equiv_pos_as_xyz
 1  'x, y, z'
loop_
 _atom_site_type_symbol
 _atom_site_label
 _atom_site_symmetry_multiplicity
 _atom_site_fract_x
 _atom_site_fract_y
 _atom_site_fract_z
 _atom_site_fract_occupancy
 In  In1  1  0.31116  0.31116  0.50000  1
 In  In2  1  0.68884  0.68884  0.50000  1
 K  K1  1  0.38803  0.04384  0.15934  1
 K  K2  1  0.04384  0.38803  0.84066  1
 K  K3  1  0.61198  0.95616  0.84066  1
 K  K4  1  0.95616  0.61197  0.15934  1
 P  P1  1  0.06332  0.93669  0.44114  1
 P  P2  1  0.93669  0.06332  0.55886  1
 P  P3  1  0.61146  0.38854  0.82153  1
 P  P4  1  0.38854  0.61146  0.17847  1
 S  S1  1  0.30809  0.36683  0.19073  1
 S  S2  1  0.64433  0.35567  0.59821  1
 S  S3  1  0.69191  0.63316  0.80927  1
 S  S4  1  0.63316  0.69191  0.19073  1
 S  S5  1  0.00684  0.99316  0.19803  1
 S  S6  1  0.36683  0.30809  0.80927  1
 S  S7  1  0.73371  0.26629  0.02158  1
 S  S8  1  0.00791  0.30426  0.46358  1
 S  S9  1  0.69574  0.99209  0.46358  1
 S  S10  1  0.99209  0.69574  0.53642  1
 S  S11  1  0.99316  0.00684  0.80197  1
 S  S12  1  0.26629  0.73371  0.97842  1
 S  S13  1  0.30426  0.00791  0.53642  1
 S  S14  1  0.35567  0.64433  0.40179  1
