CIF file written using JARVIS-Tools package.
data_RbVCl3
_symmetry_space_group_name_H-M  'P6_3/mmc'
_cell_length_a       7.24473
_cell_length_b       7.24473
_cell_length_c       5.20606
_cell_angle_alpha    90
_cell_angle_beta     90
_cell_angle_gamma    120

_symmetry_Int_Tables_number  194
_chemical_formula_structural  RbVCl3
_chemical_formula_sum  Rb2V2Cl6
_cell_volume  236.638134845961
_cell_formula_units_Z  2
loop_
  _symmetry_equiv_pos_site_id
 _symmetry_equiv_pos_as_xyz
 1  'x, y, z'
loop_
 _atom_site_type_symbol
 _atom_site_label
 _atom_site_symmetry_multiplicity
 _atom_site_fract_x
 _atom_site_fract_y
 _atom_site_fract_z
 _atom_site_fract_occupancy
 Cl  Cl1  1  0.83412  0.16588  0.25000  1
 Cl  Cl2  1  0.16588  0.33175  0.75000  1
 Cl  Cl3  1  0.66825  0.83412  0.75000  1
 Cl  Cl4  1  0.33175  0.16588  0.25000  1
 Cl  Cl5  1  0.16588  0.83412  0.75000  1
 Cl  Cl6  1  0.83412  0.66825  0.25000  1
 Rb  Rb1  1  0.66667  0.33333  0.75000  1
 Rb  Rb2  1  0.33333  0.66667  0.25000  1
 V  V1  1  0.00000  0.00000  0.50000  1
 V  V2  1  0.00000  0.00000  0.00000  1
