CIF file written using JARVIS-Tools package.
data_Te2MoWSe2
_symmetry_space_group_name_H-M  'P3m1'
_cell_length_a       3.44402
_cell_length_b       3.44403
_cell_length_c       36.2924
_cell_angle_alpha    90.0047
_cell_angle_beta     89.9989
_cell_angle_gamma    120

_symmetry_Int_Tables_number  156
_chemical_formula_structural  Te2MoWSe2
_chemical_formula_sum  Te4Mo2W2Se4
_cell_volume  372.80194904889964
_cell_formula_units_Z  2
loop_
  _symmetry_equiv_pos_site_id
 _symmetry_equiv_pos_as_xyz
 1  'x, y, z'
loop_
 _atom_site_type_symbol
 _atom_site_label
 _atom_site_symmetry_multiplicity
 _atom_site_fract_x
 _atom_site_fract_y
 _atom_site_fract_z
 _atom_site_fract_occupancy
 Mo  Mo1  1  0.33334  0.66662  0.09671  1
 Mo  Mo2  1  0.66665  0.33337  0.66554  1
 Se  Se1  1  0.33334  0.66670  0.32074  1
 Se  Se2  1  0.66667  0.33325  0.05169  1
 Se  Se3  1  0.66670  0.33336  0.14176  1
 Se  Se4  1  0.33331  0.66661  0.23024  1
 Te  Te1  1  0.33333  0.66673  0.71670  1
 Te  Te2  1  0.66665  0.33328  0.41371  1
 Te  Te3  1  0.66670  0.33342  0.51669  1
 Te  Te4  1  0.33331  0.66667  0.61429  1
 W  W1  1  0.33334  0.66668  0.46519  1
 W  W2  1  0.66666  0.33332  0.27548  1
