CIF file written using JARVIS-Tools package.
data_Yb4Bi3
_symmetry_space_group_name_H-M  'I-43d'
_cell_length_a       8.27747
_cell_length_b       8.27747
_cell_length_c       8.27747
_cell_angle_alpha    109.471
_cell_angle_beta     109.471
_cell_angle_gamma    109.471

_symmetry_Int_Tables_number  220
_chemical_formula_structural  Yb4Bi3
_chemical_formula_sum  Yb8Bi6
_cell_volume  436.5867362347017
_cell_formula_units_Z  2
loop_
  _symmetry_equiv_pos_site_id
 _symmetry_equiv_pos_as_xyz
 1  'x, y, z'
loop_
 _atom_site_type_symbol
 _atom_site_label
 _atom_site_symmetry_multiplicity
 _atom_site_fract_x
 _atom_site_fract_y
 _atom_site_fract_z
 _atom_site_fract_occupancy
 Bi  Bi1  1  0.25000  0.62500  0.37500  1
 Bi  Bi2  1  0.37500  0.25000  0.62500  1
 Bi  Bi3  1  0.12500  0.75000  0.87500  1
 Bi  Bi4  1  0.87500  0.12500  0.75000  1
 Bi  Bi5  1  0.62500  0.37500  0.25000  1
 Bi  Bi6  1  0.75000  0.87500  0.12500  1
 Yb  Yb1  1  0.15104  0.15104  0.15104  1
 Yb  Yb2  1  0.84896  0.50000  -0.00000  1
 Yb  Yb3  1  0.00000  0.84896  0.50000  1
 Yb  Yb4  1  0.50000  -0.00000  0.84896  1
 Yb  Yb5  1  0.00000  0.34896  0.50000  1
 Yb  Yb6  1  0.50000  -0.00000  0.34896  1
 Yb  Yb7  1  0.34896  0.50000  -0.00000  1
 Yb  Yb8  1  0.65104  0.65104  0.65104  1
