CIF file written using JARVIS-Tools package.
data_KAg3Te2
_symmetry_space_group_name_H-M  'C2/m'
_cell_length_a       4.07522
_cell_length_b       9.73848
_cell_length_c       10.1161
_cell_angle_alpha    113.023
_cell_angle_beta     90
_cell_angle_gamma    102.077

_symmetry_Int_Tables_number  12
_chemical_formula_structural  KAg3Te2
_chemical_formula_sum  K2Ag6Te4
_cell_volume  359.8189697023552
_cell_formula_units_Z  2
loop_
  _symmetry_equiv_pos_site_id
 _symmetry_equiv_pos_as_xyz
 1  'x, y, z'
loop_
 _atom_site_type_symbol
 _atom_site_label
 _atom_site_symmetry_multiplicity
 _atom_site_fract_x
 _atom_site_fract_y
 _atom_site_fract_z
 _atom_site_fract_occupancy
 Ag  Ag1  1  0.68714  0.37428  0.43869  1
 Ag  Ag2  1  0.26708  0.53416  0.10350  1
 Ag  Ag3  1  0.58050  0.16099  0.59606  1
 Ag  Ag4  1  0.31286  0.62572  0.56131  1
 Ag  Ag5  1  0.41950  0.83901  0.40394  1
 Ag  Ag6  1  0.73292  0.46584  0.89650  1
 K  K1  1  0.39021  0.78041  0.95123  1
 K  K2  1  0.60979  0.21959  0.04877  1
 Te  Te1  1  0.52801  0.05601  0.28363  1
 Te  Te2  1  0.79675  0.59350  0.31472  1
 Te  Te3  1  0.47199  0.94399  0.71637  1
 Te  Te4  1  0.20325  0.40650  0.68528  1
