CIF file written using JARVIS-Tools package.
data_Nb3Au2
_symmetry_space_group_name_H-M  'I4/mmm'
_cell_length_a       3.42665
_cell_length_b       3.42665
_cell_length_c       8.04917
_cell_angle_alpha    102.29
_cell_angle_beta     102.29
_cell_angle_gamma    90

_symmetry_Int_Tables_number  139
_chemical_formula_structural  Nb3Au2
_chemical_formula_sum  Nb3Au2
_cell_volume  90.12905717568968
_cell_formula_units_Z  1
loop_
  _symmetry_equiv_pos_site_id
 _symmetry_equiv_pos_as_xyz
 1  'x, y, z'
loop_
 _atom_site_type_symbol
 _atom_site_label
 _atom_site_symmetry_multiplicity
 _atom_site_fract_x
 _atom_site_fract_y
 _atom_site_fract_z
 _atom_site_fract_occupancy
 Au  Au1  1  0.19909  0.19909  0.39818  1
 Au  Au2  1  0.80091  0.80091  0.60182  1
 Nb  Nb1  1  0.00000  0.00000  0.00000  1
 Nb  Nb2  1  0.40009  0.40009  0.80017  1
 Nb  Nb3  1  0.59991  0.59991  0.19983  1
