CIF file written using JARVIS-Tools package.
data_ZrTi2Ga4
_symmetry_space_group_name_H-M  'I4/mmm'
_cell_length_a       5.37872
_cell_length_b       5.37872
_cell_length_c       5.37872
_cell_angle_alpha    104.937
_cell_angle_beta     104.937
_cell_angle_gamma    118.98

_symmetry_Int_Tables_number  139
_chemical_formula_structural  ZrTi2Ga4
_chemical_formula_sum  ZrTi2Ga4
_cell_volume  117.27840747770937
_cell_formula_units_Z  1
loop_
  _symmetry_equiv_pos_site_id
 _symmetry_equiv_pos_as_xyz
 1  'x, y, z'
loop_
 _atom_site_type_symbol
 _atom_site_label
 _atom_site_symmetry_multiplicity
 _atom_site_fract_x
 _atom_site_fract_y
 _atom_site_fract_z
 _atom_site_fract_occupancy
 Ga  Ga1  1  0.69646  0.69646  0.39292  1
 Ga  Ga2  1  0.30354  0.30354  0.60708  1
 Ga  Ga3  1  0.30354  0.69646  0.00000  1
 Ga  Ga4  1  0.69646  0.30354  -0.00000  1
 Ti  Ti1  1  0.75000  0.25000  0.50000  1
 Ti  Ti2  1  0.25000  0.75000  0.50000  1
 Zr  Zr1  1  0.00000  0.00000  0.00000  1
