CIF file written using JARVIS-Tools package.
data_Yb3GeO
_symmetry_space_group_name_H-M  'C2/c'
_cell_length_a       6.53125
_cell_length_b       6.50219
_cell_length_c       6.52034
_cell_angle_alpha    120.096
_cell_angle_beta     120.055
_cell_angle_gamma    90

_symmetry_Int_Tables_number  15
_chemical_formula_structural  Yb3GeO
_chemical_formula_sum  Yb6Ge2O2
_cell_volume  195.34955112583285
_cell_formula_units_Z  2
loop_
  _symmetry_equiv_pos_site_id
 _symmetry_equiv_pos_as_xyz
 1  'x, y, z'
loop_
 _atom_site_type_symbol
 _atom_site_label
 _atom_site_symmetry_multiplicity
 _atom_site_fract_x
 _atom_site_fract_y
 _atom_site_fract_z
 _atom_site_fract_occupancy
 Ge  Ge1  1  0.24937  0.24165  0.49997  1
 Ge  Ge2  1  0.75060  0.74165  0.49997  1
 O  O1  1  0.49999  0.99167  0.00000  1
 O  O2  1  0.00001  0.49167  0.00000  1
 Yb  Yb1  1  0.28916  0.74162  0.50001  1
 Yb  Yb2  1  0.71085  0.24162  0.50001  1
 Yb  Yb3  1  0.78070  0.25064  0.03967  1
 Yb  Yb4  1  0.24110  0.23277  0.96035  1
 Yb  Yb5  1  0.21926  0.73277  0.96035  1
 Yb  Yb6  1  0.75897  0.75064  0.03967  1
