CIF file written using JARVIS-Tools package.
data_TiMn2Ge
_symmetry_space_group_name_H-M  'Fm-3m'
_cell_length_a       4.1488
_cell_length_b       4.14895
_cell_length_c       4.14895
_cell_angle_alpha    90.0025
_cell_angle_beta     120.001
_cell_angle_gamma    119.999

_symmetry_Int_Tables_number  225
_chemical_formula_structural  TiMn2Ge
_chemical_formula_sum  TiMn2Ge
_cell_volume  50.497532713083515
_cell_formula_units_Z  1
loop_
  _symmetry_equiv_pos_site_id
 _symmetry_equiv_pos_as_xyz
 1  'x, y, z'
loop_
 _atom_site_type_symbol
 _atom_site_label
 _atom_site_symmetry_multiplicity
 _atom_site_fract_x
 _atom_site_fract_y
 _atom_site_fract_z
 _atom_site_fract_occupancy
 Ge  Ge1  1  0.50000  0.50000  -0.00000  1
 Mn  Mn1  1  1.00000  0.74999  0.75000  1
 Mn  Mn2  1  0.00000  0.25001  0.25000  1
 Ti  Ti1  1  0.50000  0.00000  0.50000  1
