CIF file written using JARVIS-Tools package.
data_MoS2
_symmetry_space_group_name_H-M  'P6_3/mmc'
_cell_length_a       3.19159
_cell_length_b       3.19158
_cell_length_c       24.9483
_cell_angle_alpha    90
_cell_angle_beta     90
_cell_angle_gamma    120

_symmetry_Int_Tables_number  194
_chemical_formula_structural  MoS2
_chemical_formula_sum  Mo4S8
_cell_volume  220.08188061851067
_cell_formula_units_Z  4
loop_
  _symmetry_equiv_pos_site_id
 _symmetry_equiv_pos_as_xyz
 1  'x, y, z'
loop_
 _atom_site_type_symbol
 _atom_site_label
 _atom_site_symmetry_multiplicity
 _atom_site_fract_x
 _atom_site_fract_y
 _atom_site_fract_z
 _atom_site_fract_occupancy
 Mo  Mo1  1  0.66667  0.33333  0.24919  1
 Mo  Mo2  1  0.66667  0.33333  0.74925  1
 Mo  Mo3  1  0.33333  0.66667  -0.00077  1
 Mo  Mo4  1  0.33333  0.66667  0.49929  1
 S  S1  1  0.33333  0.66667  0.31199  1
 S  S2  1  0.33333  0.66667  0.81205  1
 S  S3  1  0.66667  0.33333  0.06203  1
 S  S4  1  0.66667  0.33333  0.56208  1
 S  S5  1  0.33333  0.66667  0.18640  1
 S  S6  1  0.33333  0.66667  0.68645  1
 S  S7  1  0.66667  0.33333  -0.06357  1
 S  S8  1  0.66667  0.33333  0.43649  1
