CIF file written using JARVIS-Tools package.
data_Tb3CuGeSe7
_symmetry_space_group_name_H-M  'P6_3'
_cell_length_a       10.3235
_cell_length_b       10.3235
_cell_length_c       6.10784
_cell_angle_alpha    90
_cell_angle_beta     90
_cell_angle_gamma    120

_symmetry_Int_Tables_number  173
_chemical_formula_structural  Tb3CuGeSe7
_chemical_formula_sum  Tb6Cu2Ge2Se4
_cell_volume  563.7312343353478
_cell_formula_units_Z  2
loop_
  _symmetry_equiv_pos_site_id
 _symmetry_equiv_pos_as_xyz
 1  'x, y, z'
loop_
 _atom_site_type_symbol
 _atom_site_label
 _atom_site_symmetry_multiplicity
 _atom_site_fract_x
 _atom_site_fract_y
 _atom_site_fract_z
 _atom_site_fract_occupancy
 Cu  Cu1  1  0.00000  0.00000  0.70322  1
 Cu  Cu2  1  0.00000  0.00000  0.20322  1
 Ge  Ge1  1  0.66667  0.33333  0.84077  1
 Ge  Ge2  1  0.33333  0.66667  0.34077  1
 Se  Se1  1  0.26352  0.15927  0.72165  1
 Se  Se2  1  0.89575  0.73648  0.72165  1
 Se  Se3  1  0.10425  0.26352  0.22165  1
 Se  Se4  1  0.42694  0.51834  0.50660  1
 Se  Se5  1  0.48166  0.90861  0.50660  1
 Se  Se6  1  0.73648  0.84073  0.22165  1
 Se  Se7  1  0.66667  0.33333  0.45403  1
 Se  Se8  1  0.57306  0.48166  0.00660  1
 Se  Se9  1  0.84073  0.10425  0.72165  1
 Se  Se10  1  0.09139  0.57306  0.50660  1
 Se  Se11  1  0.90861  0.42694  0.00660  1
 Se  Se12  1  0.15927  0.89575  0.22165  1
 Se  Se13  1  0.51834  0.09139  0.00660  1
 Se  Se14  1  0.33333  0.66667  0.95403  1
 Tb  Tb1  1  0.35667  0.21937  0.25818  1
 Tb  Tb2  1  0.13731  0.35667  0.75818  1
 Tb  Tb3  1  0.78063  0.13731  0.25818  1
 Tb  Tb4  1  0.21937  0.86269  0.75818  1
 Tb  Tb5  1  0.86269  0.64333  0.25818  1
 Tb  Tb6  1  0.64333  0.78063  0.75818  1
