CIF file written using JARVIS-Tools package.
data_Te4Mo2WS2
_symmetry_space_group_name_H-M  'R3m'
_cell_length_a       3.43859
_cell_length_b       3.43851
_cell_length_c       20.6807
_cell_angle_alpha    94.7982
_cell_angle_beta     90
_cell_angle_gamma    120.001

_symmetry_Int_Tables_number  160
_chemical_formula_structural  Te4Mo2WS2
_chemical_formula_sum  Te4Mo2WS2
_cell_volume  210.7702853513602
_cell_formula_units_Z  1
loop_
  _symmetry_equiv_pos_site_id
 _symmetry_equiv_pos_as_xyz
 1  'x, y, z'
loop_
 _atom_site_type_symbol
 _atom_site_label
 _atom_site_symmetry_multiplicity
 _atom_site_fract_x
 _atom_site_fract_y
 _atom_site_fract_z
 _atom_site_fract_occupancy
 Mo  Mo1  1  0.22586  0.45172  0.02546  1
 Mo  Mo2  1  0.66656  0.33313  0.34697  1
 S  S1  1  0.35755  0.71510  0.41941  1
 S  S2  1  0.30890  0.61781  0.27451  1
 Te  Te1  1  0.52885  0.05769  -0.06495  1
 Te  Te2  1  0.74366  0.48732  0.57747  1
 Te  Te3  1  0.58961  0.17922  0.11607  1
 Te  Te4  1  0.80474  0.60947  0.75943  1
 W  W1  1  0.44087  0.88175  0.66847  1
