CIF file written using JARVIS-Tools package.
data_NbSiIr
_symmetry_space_group_name_H-M  'Pnma'
_cell_length_a       3.83103
_cell_length_b       6.4887
_cell_length_c       7.34502
_cell_angle_alpha    90
_cell_angle_beta     90
_cell_angle_gamma    90

_symmetry_Int_Tables_number  62
_chemical_formula_structural  NbSiIr
_chemical_formula_sum  Nb4Si4Ir4
_cell_volume  182.58540270814265
_cell_formula_units_Z  4
loop_
  _symmetry_equiv_pos_site_id
 _symmetry_equiv_pos_as_xyz
 1  'x, y, z'
loop_
 _atom_site_type_symbol
 _atom_site_label
 _atom_site_symmetry_multiplicity
 _atom_site_fract_x
 _atom_site_fract_y
 _atom_site_fract_z
 _atom_site_fract_occupancy
 Ir  Ir1  1  0.25000  0.85350  0.93602  1
 Ir  Ir2  1  0.25000  0.35350  0.56398  1
 Ir  Ir3  1  0.75000  0.64650  0.43602  1
 Ir  Ir4  1  0.75000  0.14650  0.06398  1
 Nb  Nb1  1  0.75000  0.52385  0.82826  1
 Nb  Nb2  1  0.25000  0.97615  0.32826  1
 Nb  Nb3  1  0.75000  0.02385  0.67174  1
 Nb  Nb4  1  0.25000  0.47615  0.17174  1
 Si  Si1  1  0.25000  0.22996  0.87598  1
 Si  Si2  1  0.25000  0.72996  0.62402  1
 Si  Si3  1  0.75000  0.77004  0.12402  1
 Si  Si4  1  0.75000  0.27004  0.37598  1
