CIF file written using JARVIS-Tools package.
data_Na2Ti2As2O
_symmetry_space_group_name_H-M  'I4/mmm'
_cell_length_a       4.06665
_cell_length_b       4.06665
_cell_length_c       8.149
_cell_angle_alpha    104.449
_cell_angle_beta     104.449
_cell_angle_gamma    90

_symmetry_Int_Tables_number  139
_chemical_formula_structural  Na2Ti2As2O
_chemical_formula_sum  Na2Ti2As2O
_cell_volume  126.09606352280511
_cell_formula_units_Z  1
loop_
  _symmetry_equiv_pos_site_id
 _symmetry_equiv_pos_as_xyz
 1  'x, y, z'
loop_
 _atom_site_type_symbol
 _atom_site_label
 _atom_site_symmetry_multiplicity
 _atom_site_fract_x
 _atom_site_fract_y
 _atom_site_fract_z
 _atom_site_fract_occupancy
 As  As1  1  0.38073  0.38073  0.76146  1
 As  As2  1  0.61927  0.61927  0.23854  1
 Na  Na1  1  0.18141  0.18141  0.36282  1
 Na  Na2  1  0.81859  0.81859  0.63718  1
 O  O1  1  0.00000  0.00000  0.00000  1
 Ti  Ti1  1  0.00000  0.50000  0.00000  1
 Ti  Ti2  1  0.50000  0.00000  0.00000  1
