CIF file written using JARVIS-Tools package.
data_Bi3BrO4
_symmetry_space_group_name_H-M  'P4/mmm'
_cell_length_a       3.97899
_cell_length_b       5.62712
_cell_length_c       10.8968
_cell_angle_alpha    121.091
_cell_angle_beta     111.415
_cell_angle_gamma    44.9999

_symmetry_Int_Tables_number  123
_chemical_formula_structural  Bi3BrO4
_chemical_formula_sum  Bi3BrO4
_cell_volume  147.73831721261882
_cell_formula_units_Z  1
loop_
  _symmetry_equiv_pos_site_id
 _symmetry_equiv_pos_as_xyz
 1  'x, y, z'
loop_
 _atom_site_type_symbol
 _atom_site_label
 _atom_site_symmetry_multiplicity
 _atom_site_fract_x
 _atom_site_fract_y
 _atom_site_fract_z
 _atom_site_fract_occupancy
 Bi  Bi1  1  0.52114  0.76625  0.27684  1
 Bi  Bi2  1  0.52124  0.21251  0.72315  1
 Bi  Bi3  1  0.52114  0.98940  -0.00000  1
 Br  Br1  1  0.52097  0.48950  0.50001  1
 O  O1  1  0.02112  0.14885  0.15944  1
 O  O2  1  0.02117  0.32996  0.84056  1
 O  O3  1  0.02117  0.82995  0.84056  1
 O  O4  1  0.02112  0.64886  0.15944  1
