CIF file written using JARVIS-Tools package.
data_SiW3
_symmetry_space_group_name_H-M  'Im-3m'
_cell_length_a       5.21311
_cell_length_b       5.21311
_cell_length_c       5.21311
_cell_angle_alpha    90
_cell_angle_beta     90
_cell_angle_gamma    90

_symmetry_Int_Tables_number  229
_chemical_formula_structural  SiW3
_chemical_formula_sum  Si2W6
_cell_volume  141.6743773257738
_cell_formula_units_Z  2
loop_
  _symmetry_equiv_pos_site_id
 _symmetry_equiv_pos_as_xyz
 1  'x, y, z'
loop_
 _atom_site_type_symbol
 _atom_site_label
 _atom_site_symmetry_multiplicity
 _atom_site_fract_x
 _atom_site_fract_y
 _atom_site_fract_z
 _atom_site_fract_occupancy
 Si  Si1  1  0.00000  0.00000  0.00000  1
 Si  Si2  1  0.50000  0.50000  0.50000  1
 W  W1  1  0.00000  0.50000  0.50000  1
 W  W2  1  0.00000  0.50000  0.00000  1
 W  W3  1  0.00000  0.00000  0.50000  1
 W  W4  1  0.50000  0.00000  0.00000  1
 W  W5  1  0.50000  0.00000  0.50000  1
 W  W6  1  0.50000  0.50000  0.00000  1
