CIF file written using JARVIS-Tools package.
data_TmMg2
_symmetry_space_group_name_H-M  'P6_3/mmc'
_cell_length_a       5.97814
_cell_length_b       5.97814
_cell_length_c       9.66446
_cell_angle_alpha    90
_cell_angle_beta     90
_cell_angle_gamma    120

_symmetry_Int_Tables_number  194
_chemical_formula_structural  TmMg2
_chemical_formula_sum  Tm4Mg8
_cell_volume  299.11603172083596
_cell_formula_units_Z  4
loop_
  _symmetry_equiv_pos_site_id
 _symmetry_equiv_pos_as_xyz
 1  'x, y, z'
loop_
 _atom_site_type_symbol
 _atom_site_label
 _atom_site_symmetry_multiplicity
 _atom_site_fract_x
 _atom_site_fract_y
 _atom_site_fract_z
 _atom_site_fract_occupancy
 Mg  Mg1  1  0.17111  0.34222  0.25000  1
 Mg  Mg2  1  0.34222  0.17111  0.75000  1
 Mg  Mg3  1  0.82889  0.17111  0.75000  1
 Mg  Mg4  1  0.17111  0.82889  0.25000  1
 Mg  Mg5  1  0.00000  0.00000  0.00000  1
 Mg  Mg6  1  0.00000  0.00000  0.50000  1
 Mg  Mg7  1  0.82889  0.65778  0.75000  1
 Mg  Mg8  1  0.65778  0.82889  0.25000  1
 Tm  Tm1  1  0.66667  0.33333  0.06378  1
 Tm  Tm2  1  0.33333  0.66667  0.56378  1
 Tm  Tm3  1  0.33333  0.66667  0.93622  1
 Tm  Tm4  1  0.66667  0.33333  0.43622  1
