CIF file written using JARVIS-Tools package.
data_Tm5NiPb3
_symmetry_space_group_name_H-M  'P6_3/mcm'
_cell_length_a       8.98969
_cell_length_b       8.98969
_cell_length_c       6.58984
_cell_angle_alpha    90
_cell_angle_beta     90
_cell_angle_gamma    120

_symmetry_Int_Tables_number  193
_chemical_formula_structural  Tm5NiPb3
_chemical_formula_sum  Tm0Ni2Pb6
_cell_volume  461.20635358025083
_cell_formula_units_Z  2
loop_
  _symmetry_equiv_pos_site_id
 _symmetry_equiv_pos_as_xyz
 1  'x, y, z'
loop_
 _atom_site_type_symbol
 _atom_site_label
 _atom_site_symmetry_multiplicity
 _atom_site_fract_x
 _atom_site_fract_y
 _atom_site_fract_z
 _atom_site_fract_occupancy
 Ni  Ni1  1  0.00000  0.00000  0.50000  1
 Ni  Ni2  1  0.00000  0.00000  0.00000  1
 Pb  Pb1  1  0.39966  0.39966  0.25000  1
 Pb  Pb2  1  0.60034  0.60034  0.75000  1
 Pb  Pb3  1  -0.00000  0.39966  0.75000  1
 Pb  Pb4  1  0.00000  0.60034  0.25000  1
 Pb  Pb5  1  0.60034  0.00000  0.25000  1
 Pb  Pb6  1  0.39966  -0.00000  0.75000  1
 Tm  Tm1  1  0.76225  0.76225  0.25000  1
 Tm  Tm2  1  0.23775  0.23775  0.75000  1
 Tm  Tm3  1  -0.00000  0.76225  0.75000  1
 Tm  Tm4  1  0.33333  0.66667  0.00000  1
 Tm  Tm5  1  0.76225  -0.00000  0.75000  1
 Tm  Tm6  1  0.66667  0.33333  0.50000  1
 Tm  Tm7  1  0.00000  0.23775  0.25000  1
 Tm  Tm8  1  0.66667  0.33333  0.00000  1
 Tm  Tm9  1  0.33333  0.66667  0.50000  1
 Tm  Tm10  1  0.23775  0.00000  0.25000  1
