CIF file written using JARVIS-Tools package.
data_Nb3B2
_symmetry_space_group_name_H-M  'P4/mbm'
_cell_length_a       6.24229
_cell_length_b       6.24229
_cell_length_c       3.31942
_cell_angle_alpha    90
_cell_angle_beta     90
_cell_angle_gamma    90

_symmetry_Int_Tables_number  127
_chemical_formula_structural  Nb3B2
_chemical_formula_sum  Nb6B4
_cell_volume  129.3452691664062
_cell_formula_units_Z  2
loop_
  _symmetry_equiv_pos_site_id
 _symmetry_equiv_pos_as_xyz
 1  'x, y, z'
loop_
 _atom_site_type_symbol
 _atom_site_label
 _atom_site_symmetry_multiplicity
 _atom_site_fract_x
 _atom_site_fract_y
 _atom_site_fract_z
 _atom_site_fract_occupancy
 B  B1  1  0.10401  0.60401  0.00000  1
 B  B2  1  0.60401  0.89599  0.00000  1
 B  B3  1  0.39599  0.10401  0.00000  1
 B  B4  1  0.89599  0.39599  0.00000  1
 Nb  Nb1  1  0.00000  0.00000  0.00000  1
 Nb  Nb2  1  0.50000  0.50000  0.00000  1
 Nb  Nb3  1  0.32090  0.82090  0.50000  1
 Nb  Nb4  1  0.82090  0.67910  0.50000  1
 Nb  Nb5  1  0.17910  0.32090  0.50000  1
 Nb  Nb6  1  0.67910  0.17910  0.50000  1
