CIF file written using JARVIS-Tools package.
data_Ba2InClO3
_symmetry_space_group_name_H-M  'P4/nmm'
_cell_length_a       4.26352
_cell_length_b       4.26352
_cell_length_c       15.159
_cell_angle_alpha    90
_cell_angle_beta     90
_cell_angle_gamma    90

_symmetry_Int_Tables_number  129
_chemical_formula_structural  Ba2InClO3
_chemical_formula_sum  Ba4In2Cl2O6
_cell_volume  275.553895670152
_cell_formula_units_Z  2
loop_
  _symmetry_equiv_pos_site_id
 _symmetry_equiv_pos_as_xyz
 1  'x, y, z'
loop_
 _atom_site_type_symbol
 _atom_site_label
 _atom_site_symmetry_multiplicity
 _atom_site_fract_x
 _atom_site_fract_y
 _atom_site_fract_z
 _atom_site_fract_occupancy
 Ba  Ba1  1  0.00000  0.50000  0.09564  1
 Ba  Ba2  1  0.00000  0.50000  0.35374  1
 Ba  Ba3  1  0.50000  0.00000  0.64626  1
 Ba  Ba4  1  0.50000  0.00000  0.90436  1
 Cl  Cl1  1  0.00000  0.50000  0.57321  1
 Cl  Cl2  1  0.50000  0.00000  0.42679  1
 In  In1  1  0.00000  0.50000  0.78601  1
 In  In2  1  0.50000  0.00000  0.21399  1
 O  O1  1  0.50000  0.00000  0.07472  1
 O  O2  1  0.50000  0.50000  0.23868  1
 O  O3  1  0.00000  0.00000  0.76132  1
 O  O4  1  0.00000  0.50000  0.92528  1
 O  O5  1  0.50000  0.50000  0.76132  1
 O  O6  1  0.00000  0.00000  0.23868  1
