CIF file written using JARVIS-Tools package.
data_BaAl2Si2O8
_symmetry_space_group_name_H-M  'P-3'
_cell_length_a       5.34139
_cell_length_b       5.34139
_cell_length_c       7.86775
_cell_angle_alpha    90
_cell_angle_beta     90
_cell_angle_gamma    120

_symmetry_Int_Tables_number  147
_chemical_formula_structural  BaAl2Si2O8
_chemical_formula_sum  BaAl2Si2O8
_cell_volume  194.39710083435608
_cell_formula_units_Z  1
loop_
  _symmetry_equiv_pos_site_id
 _symmetry_equiv_pos_as_xyz
 1  'x, y, z'
loop_
 _atom_site_type_symbol
 _atom_site_label
 _atom_site_symmetry_multiplicity
 _atom_site_fract_x
 _atom_site_fract_y
 _atom_site_fract_z
 _atom_site_fract_occupancy
 Al  Al1  1  0.66667  0.33333  0.70585  1
 Al  Al2  1  0.33333  0.66667  0.29415  1
 Ba  Ba1  1  0.00000  0.00000  0.00000  1
 O  O1  1  0.66667  0.33333  0.48728  1
 O  O2  1  0.33333  0.66667  0.51272  1
 O  O3  1  0.56394  0.98882  0.79353  1
 O  O4  1  0.42488  0.43606  0.79353  1
 O  O5  1  0.01118  0.57512  0.79353  1
 O  O6  1  0.43606  0.01118  0.20647  1
 O  O7  1  0.57512  0.56394  0.20647  1
 O  O8  1  0.98882  0.42488  0.20647  1
 Si  Si1  1  0.66667  0.33333  0.28351  1
 Si  Si2  1  0.33333  0.66667  0.71649  1
