CIF file written using JARVIS-Tools package.
data_TbBa2BiO6
_symmetry_space_group_name_H-M  'C2/m'
_cell_length_a       6.1383
_cell_length_b       6.14007
_cell_length_c       6.15297
_cell_angle_alpha    60.4607
_cell_angle_beta     60.0764
_cell_angle_gamma    60.0078

_symmetry_Int_Tables_number  12
_chemical_formula_structural  TbBa2BiO6
_chemical_formula_sum  TbBa2BiO6
_cell_volume  164.64864733988443
_cell_formula_units_Z  1
loop_
  _symmetry_equiv_pos_site_id
 _symmetry_equiv_pos_as_xyz
 1  'x, y, z'
loop_
 _atom_site_type_symbol
 _atom_site_label
 _atom_site_symmetry_multiplicity
 _atom_site_fract_x
 _atom_site_fract_y
 _atom_site_fract_z
 _atom_site_fract_occupancy
 Ba  Ba1  1  0.75067  0.25338  0.24528  1
 Ba  Ba2  1  0.24933  0.74662  0.75472  1
 Bi  Bi1  1  0.50000  0.00000  -0.00000  1
 O  O1  1  0.71278  0.27548  0.78929  1
 O  O2  1  0.77755  0.72452  0.21072  1
 O  O3  1  0.22245  0.27548  0.78928  1
 O  O4  1  0.74365  0.81664  0.69606  1
 O  O5  1  0.25635  0.18336  0.30394  1
 O  O6  1  0.28722  0.72452  0.21071  1
 Tb  Tb1  1  -0.00000  0.50000  0.50000  1
