CIF file written using JARVIS-Tools package.
data_Si3Bi4O12
_symmetry_space_group_name_H-M  'I-43d'
_cell_length_a       8.96333
_cell_length_b       8.96334
_cell_length_c       8.96333
_cell_angle_alpha    109.471
_cell_angle_beta     109.471
_cell_angle_gamma    109.471

_symmetry_Int_Tables_number  220
_chemical_formula_structural  Si3Bi4O12
_chemical_formula_sum  Si6Bi8O24
_cell_volume  554.3534605308872
_cell_formula_units_Z  2
loop_
  _symmetry_equiv_pos_site_id
 _symmetry_equiv_pos_as_xyz
 1  'x, y, z'
loop_
 _atom_site_type_symbol
 _atom_site_label
 _atom_site_symmetry_multiplicity
 _atom_site_fract_x
 _atom_site_fract_y
 _atom_site_fract_z
 _atom_site_fract_occupancy
 Bi  Bi1  1  -0.00000  0.83865  0.50000  1
 Bi  Bi2  1  0.16135  0.16135  0.16135  1
 Bi  Bi3  1  0.50000  -0.00000  0.33865  1
 Bi  Bi4  1  0.50000  -0.00000  0.83865  1
 Bi  Bi5  1  0.83865  0.50000  -0.00000  1
 Bi  Bi6  1  -0.00000  0.33865  0.50000  1
 Bi  Bi7  1  0.33865  0.50000  -0.00000  1
 Bi  Bi8  1  0.66135  0.66135  0.66135  1
 O  O1  1  0.27109  0.92976  0.08072  1
 O  O2  1  0.65095  0.34132  0.07024  1
 O  O3  1  0.84132  0.15095  0.57024  1
 O  O4  1  0.15868  0.80963  0.72891  1
 O  O5  1  0.77109  0.58072  0.42976  1
 O  O6  1  0.91928  0.69037  0.84905  1
 O  O7  1  0.34905  0.19037  0.41928  1
 O  O8  1  0.19037  0.41928  0.34905  1
 O  O9  1  0.69037  0.84905  0.91928  1
 O  O10  1  0.92976  0.08072  0.27109  1
 O  O11  1  0.84905  0.91928  0.69037  1
 O  O12  1  0.41928  0.34905  0.19037  1
 O  O13  1  0.22891  0.30963  0.65868  1
 O  O14  1  0.72891  0.15868  0.80963  1
 O  O15  1  0.57024  0.84132  0.15095  1
 O  O16  1  0.07024  0.65095  0.34132  1
 O  O17  1  0.34132  0.07024  0.65095  1
 O  O18  1  0.15095  0.57024  0.84132  1
 O  O19  1  0.08072  0.27109  0.92976  1
 O  O20  1  0.80963  0.72891  0.15868  1
 O  O21  1  0.65868  0.22891  0.30963  1
 O  O22  1  0.30963  0.65868  0.22891  1
 O  O23  1  0.42976  0.77109  0.58072  1
 O  O24  1  0.58072  0.42976  0.77109  1
 Si  Si1  1  0.87500  0.12500  0.75000  1
 Si  Si2  1  0.12500  0.75000  0.87500  1
 Si  Si3  1  0.75000  0.87500  0.12500  1
 Si  Si4  1  0.37500  0.25000  0.62500  1
 Si  Si5  1  0.62500  0.37500  0.25000  1
 Si  Si6  1  0.25000  0.62500  0.37500  1
