CIF file written using JARVIS-Tools package.
data_KCu4AsS4
_symmetry_space_group_name_H-M  'P2_1'
_cell_length_a       6.54159
_cell_length_b       6.43284
_cell_length_c       9.61682
_cell_angle_alpha    90
_cell_angle_beta     102.584
_cell_angle_gamma    90

_symmetry_Int_Tables_number  4
_chemical_formula_structural  KCu4AsS4
_chemical_formula_sum  K2Cu8As2S8
_cell_volume  394.96407948225686
_cell_formula_units_Z  2
loop_
  _symmetry_equiv_pos_site_id
 _symmetry_equiv_pos_as_xyz
 1  'x, y, z'
loop_
 _atom_site_type_symbol
 _atom_site_label
 _atom_site_symmetry_multiplicity
 _atom_site_fract_x
 _atom_site_fract_y
 _atom_site_fract_z
 _atom_site_fract_occupancy
 As  As1  1  0.19724  0.88430  0.25014  1
 As  As2  1  0.80276  0.38430  0.74986  1
 Cu  Cu1  1  0.70605  0.88153  0.54431  1
 Cu  Cu2  1  0.92256  0.90921  0.87723  1
 Cu  Cu3  1  0.36793  0.03215  0.61407  1
 Cu  Cu4  1  0.63207  0.53215  0.38593  1
 Cu  Cu5  1  0.07744  0.40921  0.12277  1
 Cu  Cu6  1  0.02085  0.66560  0.48747  1
 Cu  Cu7  1  0.29395  0.38153  0.45569  1
 Cu  Cu8  1  0.97915  0.16560  0.51253  1
 K  K1  1  0.67580  0.02897  0.13797  1
 K  K2  1  0.32420  0.52897  0.86203  1
 S  S1  1  0.39023  0.62036  0.18725  1
 S  S2  1  0.93957  0.39959  0.33984  1
 S  S3  1  0.83659  0.58771  0.95133  1
 S  S4  1  0.06043  0.89959  0.66016  1
 S  S5  1  0.60977  0.12036  0.81275  1
 S  S6  1  0.16341  0.08771  0.04867  1
 S  S7  1  0.53788  0.58269  0.60269  1
 S  S8  1  0.46212  0.08269  0.39731  1
