CIF file written using JARVIS-Tools package.
data_Tc3Os
_symmetry_space_group_name_H-M  'P6_3/mmc'
_cell_length_a       5.52224
_cell_length_b       5.52224
_cell_length_c       4.38033
_cell_angle_alpha    90
_cell_angle_beta     90
_cell_angle_gamma    120

_symmetry_Int_Tables_number  194
_chemical_formula_structural  Tc3Os
_chemical_formula_sum  Tc6Os2
_cell_volume  115.68274420707489
_cell_formula_units_Z  2
loop_
  _symmetry_equiv_pos_site_id
 _symmetry_equiv_pos_as_xyz
 1  'x, y, z'
loop_
 _atom_site_type_symbol
 _atom_site_label
 _atom_site_symmetry_multiplicity
 _atom_site_fract_x
 _atom_site_fract_y
 _atom_site_fract_z
 _atom_site_fract_occupancy
 Os  Os1  1  0.66667  0.33333  0.75000  1
 Os  Os2  1  0.33333  0.66667  0.25000  1
 Tc  Tc1  1  0.83408  0.66815  0.25000  1
 Tc  Tc2  1  0.33185  0.16592  0.25000  1
 Tc  Tc3  1  0.83408  0.16592  0.25000  1
 Tc  Tc4  1  0.16592  0.33185  0.75000  1
 Tc  Tc5  1  0.66815  0.83408  0.75000  1
 Tc  Tc6  1  0.16592  0.83408  0.75000  1
