CIF file written using JARVIS-Tools package.
data_Ba5As3ClO12
_symmetry_space_group_name_H-M  'P6_3/m'
_cell_length_a       10.6512
_cell_length_b       10.6512
_cell_length_c       7.81785
_cell_angle_alpha    90
_cell_angle_beta     90
_cell_angle_gamma    120

_symmetry_Int_Tables_number  176
_chemical_formula_structural  Ba5As3ClO12
_chemical_formula_sum  Ba0As6Cl2O24
_cell_volume  768.0958636923477
_cell_formula_units_Z  2
loop_
  _symmetry_equiv_pos_site_id
 _symmetry_equiv_pos_as_xyz
 1  'x, y, z'
loop_
 _atom_site_type_symbol
 _atom_site_label
 _atom_site_symmetry_multiplicity
 _atom_site_fract_x
 _atom_site_fract_y
 _atom_site_fract_z
 _atom_site_fract_occupancy
 As  As1  1  0.96563  0.37170  0.75000  1
 As  As2  1  0.37170  0.40607  0.25000  1
 As  As3  1  0.59393  0.96563  0.25000  1
 As  As4  1  0.03437  0.62830  0.25000  1
 As  As5  1  0.40607  0.03437  0.75000  1
 As  As6  1  0.62830  0.59393  0.75000  1
 Ba  Ba1  1  0.25545  0.01249  0.25000  1
 Ba  Ba2  1  0.66667  0.33333  0.00100  1
 Ba  Ba3  1  0.66667  0.33333  0.49900  1
 Ba  Ba4  1  0.75703  0.74455  0.25000  1
 Ba  Ba5  1  0.24297  0.25545  0.75000  1
 Ba  Ba6  1  0.74455  0.98751  0.75000  1
 Ba  Ba7  1  0.33333  0.66667  0.99900  1
 Ba  Ba8  1  0.01249  0.75703  0.75000  1
 Ba  Ba9  1  0.33333  0.66667  0.50100  1
 Ba  Ba10  1  0.98751  0.24297  0.25000  1
 Cl  Cl1  1  0.00000  0.00000  0.00000  1
 Cl  Cl2  1  0.00000  0.00000  0.50000  1
 O  O1  1  0.59331  0.12128  0.75000  1
 O  O2  1  0.12128  0.52797  0.25000  1
 O  O3  1  0.84840  0.51923  0.25000  1
 O  O4  1  0.67083  0.15160  0.25000  1
 O  O5  1  0.64410  0.90515  0.07261  1
 O  O6  1  0.40669  0.87872  0.25000  1
 O  O7  1  0.64410  0.90515  0.42739  1
 O  O8  1  0.32917  0.84840  0.75000  1
 O  O9  1  0.73895  0.64410  0.92739  1
 O  O10  1  0.09485  0.73895  0.42739  1
 O  O11  1  0.35590  0.09485  0.57261  1
 O  O12  1  0.51923  0.67083  0.75000  1
 O  O13  1  0.90515  0.26105  0.92739  1
 O  O14  1  0.90515  0.26105  0.57261  1
 O  O15  1  0.48077  0.32917  0.25000  1
 O  O16  1  0.35590  0.09485  0.92739  1
 O  O17  1  0.73895  0.64410  0.57261  1
 O  O18  1  0.15160  0.48077  0.75000  1
 O  O19  1  0.26105  0.35590  0.07261  1
 O  O20  1  0.09485  0.73895  0.07261  1
 O  O21  1  0.26105  0.35590  0.42739  1
 O  O22  1  0.47203  0.59331  0.25000  1
 O  O23  1  0.87872  0.47203  0.75000  1
 O  O24  1  0.52797  0.40669  0.75000  1
