CIF file written using JARVIS-Tools package.
data_Al4Bi2O9
_symmetry_space_group_name_H-M  'Pbam'
_cell_length_a       5.75057
_cell_length_b       7.74216
_cell_length_c       8.22863
_cell_angle_alpha    90
_cell_angle_beta     90
_cell_angle_gamma    90

_symmetry_Int_Tables_number  55
_chemical_formula_structural  Al4Bi2O9
_chemical_formula_sum  Al8Bi4O8
_cell_volume  366.35355431307227
_cell_formula_units_Z  2
loop_
  _symmetry_equiv_pos_site_id
 _symmetry_equiv_pos_as_xyz
 1  'x, y, z'
loop_
 _atom_site_type_symbol
 _atom_site_label
 _atom_site_symmetry_multiplicity
 _atom_site_fract_x
 _atom_site_fract_y
 _atom_site_fract_z
 _atom_site_fract_occupancy
 Al  Al1  1  0.50000  0.14796  0.83805  1
 Al  Al2  1  0.50000  0.85204  0.16195  1
 Al  Al3  1  0.50000  0.64796  0.66195  1
 Al  Al4  1  0.50000  0.35204  0.33805  1
 Al  Al5  1  0.26032  0.00000  0.50000  1
 Al  Al6  1  0.73968  0.50000  0.00000  1
 Al  Al7  1  0.73968  0.00000  0.50000  1
 Al  Al8  1  0.26032  0.50000  0.00000  1
 Bi  Bi1  1  0.00000  0.33432  0.66745  1
 Bi  Bi2  1  0.00000  0.66568  0.33255  1
 Bi  Bi3  1  0.00000  0.83432  0.83255  1
 Bi  Bi4  1  0.00000  0.16568  0.16745  1
 O  O1  1  0.00000  0.35536  0.93421  1
 O  O2  1  0.00000  0.64464  0.06579  1
 O  O3  1  0.74932  0.87602  0.29276  1
 O  O4  1  0.00000  0.14464  0.43421  1
 O  O5  1  0.50000  0.36176  0.91443  1
 O  O6  1  0.50000  0.63824  0.08557  1
 O  O7  1  0.50000  0.86176  0.58557  1
 O  O8  1  0.00000  0.85536  0.56579  1
 O  O9  1  0.50000  0.50000  0.50000  1
 O  O10  1  0.25068  0.12398  0.70724  1
 O  O11  1  0.74932  0.37602  0.20724  1
 O  O12  1  0.74932  0.62398  0.79276  1
 O  O13  1  0.50000  0.00000  0.00000  1
 O  O14  1  0.50000  0.13824  0.41443  1
 O  O15  1  0.25068  0.37602  0.20724  1
 O  O16  1  0.25068  0.62398  0.79276  1
 O  O17  1  0.25068  0.87602  0.29276  1
 O  O18  1  0.74932  0.12398  0.70724  1
