CIF file written using JARVIS-Tools package.
data_Na2PtO3
_symmetry_space_group_name_H-M  'Fddd'
_cell_length_a       5.53081
_cell_length_b       5.5308
_cell_length_c       9.9999
_cell_angle_alpha    100.714
_cell_angle_beta     100.712
_cell_angle_gamma    109.137

_symmetry_Int_Tables_number  70
_chemical_formula_structural  Na2PtO3
_chemical_formula_sum  Na8Pt4O2
_cell_volume  273.7310836506339
_cell_formula_units_Z  4
loop_
  _symmetry_equiv_pos_site_id
 _symmetry_equiv_pos_as_xyz
 1  'x, y, z'
loop_
 _atom_site_type_symbol
 _atom_site_label
 _atom_site_symmetry_multiplicity
 _atom_site_fract_x
 _atom_site_fract_y
 _atom_site_fract_z
 _atom_site_fract_occupancy
 Na  Na1  1  0.61942  0.86942  0.73884  1
 Na  Na2  1  0.29551  0.54551  0.09102  1
 Na  Na3  1  0.38058  0.13058  0.26116  1
 Na  Na4  1  0.86942  0.61942  0.23884  1
 Na  Na5  1  0.54551  0.29551  0.59101  1
 Na  Na6  1  0.70449  0.45449  0.90898  1
 Na  Na7  1  0.13058  0.38058  0.76116  1
 Na  Na8  1  0.45449  0.70449  0.40899  1
 O  O1  1  0.24313  0.53267  0.57117  1
 O  O2  1  0.33542  0.08541  0.75000  1
 O  O3  1  0.46733  0.75686  0.92883  1
 O  O4  1  0.17196  0.96150  0.42883  1
 O  O5  1  0.96151  0.17196  0.92883  1
 O  O6  1  0.75687  0.46733  0.42883  1
 O  O7  1  0.03849  0.82804  0.07117  1
 O  O8  1  0.66458  0.91459  0.25000  1
 O  O9  1  0.08541  0.33541  0.25000  1
 O  O10  1  0.91459  0.66459  0.75000  1
 O  O11  1  0.82804  0.03850  0.57117  1
 O  O12  1  0.53267  0.24314  0.07117  1
 Pt  Pt1  1  0.95858  0.20858  0.41717  1
 Pt  Pt2  1  0.20859  0.95858  0.91717  1
 Pt  Pt3  1  0.79141  0.04142  0.08283  1
 Pt  Pt4  1  0.04142  0.79142  0.58283  1
