CIF file written using JARVIS-Tools package.
data_Sr3Ga3N5
_symmetry_space_group_name_H-M  'P-1'
_cell_length_a       5.99248
_cell_length_b       7.22475
_cell_length_c       8.73444
_cell_angle_alpha    108.28
_cell_angle_beta     103.913
_cell_angle_gamma    95.133

_symmetry_Int_Tables_number  2
_chemical_formula_structural  Sr3Ga3N5
_chemical_formula_sum  Sr6Ga6N0
_cell_volume  342.9114351317901
_cell_formula_units_Z  2
loop_
  _symmetry_equiv_pos_site_id
 _symmetry_equiv_pos_as_xyz
 1  'x, y, z'
loop_
 _atom_site_type_symbol
 _atom_site_label
 _atom_site_symmetry_multiplicity
 _atom_site_fract_x
 _atom_site_fract_y
 _atom_site_fract_z
 _atom_site_fract_occupancy
 Ga  Ga1  1  0.71016  0.95329  0.56713  1
 Ga  Ga2  1  0.12473  0.87683  0.71695  1
 Ga  Ga3  1  0.87527  0.12317  0.28305  1
 Ga  Ga4  1  0.90804  0.31549  0.97271  1
 Ga  Ga5  1  0.28984  0.04671  0.43287  1
 Ga  Ga6  1  0.09196  0.68451  0.02729  1
 N  N1  1  0.38851  0.94789  0.61998  1
 N  N2  1  0.26090  0.77494  0.89214  1
 N  N3  1  0.95717  0.10900  0.77676  1
 N  N4  1  0.15917  0.28994  0.47483  1
 N  N5  1  0.04283  0.89100  0.22324  1
 N  N6  1  0.73910  0.22506  0.10786  1
 N  N7  1  0.61149  0.05211  0.38002  1
 N  N8  1  0.84083  0.71006  0.52517  1
 N  N9  1  0.76501  0.52789  0.90448  1
 N  N10  1  0.23499  0.47211  0.09552  1
 Sr  Sr1  1  0.81684  0.40881  0.60783  1
 Sr  Sr2  1  0.34450  0.34611  0.79861  1
 Sr  Sr3  1  0.65550  0.65389  0.20139  1
 Sr  Sr4  1  0.18316  0.59119  0.39217  1
 Sr  Sr5  1  0.33191  0.13705  0.12694  1
 Sr  Sr6  1  0.66809  0.86295  0.87306  1
