CIF file written using JARVIS-Tools package.
data_UCl4
_symmetry_space_group_name_H-M  'I4_1/amd'
_cell_length_a       6.94214
_cell_length_b       6.94215
_cell_length_c       6.94214
_cell_angle_alpha    106.618
_cell_angle_beta     106.618
_cell_angle_gamma    115.342

_symmetry_Int_Tables_number  141
_chemical_formula_structural  UCl4
_chemical_formula_sum  U2Cl8
_cell_volume  255.4998266601111
_cell_formula_units_Z  2
loop_
  _symmetry_equiv_pos_site_id
 _symmetry_equiv_pos_as_xyz
 1  'x, y, z'
loop_
 _atom_site_type_symbol
 _atom_site_label
 _atom_site_symmetry_multiplicity
 _atom_site_fract_x
 _atom_site_fract_y
 _atom_site_fract_z
 _atom_site_fract_occupancy
 Cl  Cl1  1  0.20068  0.26247  0.56179  1
 Cl  Cl2  1  0.63889  0.20068  0.43821  1
 Cl  Cl3  1  0.36111  0.79932  0.56179  1
 Cl  Cl4  1  0.79932  0.73753  0.43821  1
 Cl  Cl5  1  0.79932  0.36111  0.06179  1
 Cl  Cl6  1  0.73753  0.79932  0.93821  1
 Cl  Cl7  1  0.20068  0.63889  0.93821  1
 Cl  Cl8  1  0.26247  0.20068  0.06179  1
 U  U1  1  0.87500  0.12500  0.75000  1
 U  U2  1  0.12500  0.87500  0.25000  1
