CIF file written using JARVIS-Tools package.
data_MnSiNi
_symmetry_space_group_name_H-M  'Pnma'
_cell_length_a       3.66465
_cell_length_b       5.37201
_cell_length_c       6.90924
_cell_angle_alpha    90
_cell_angle_beta     90
_cell_angle_gamma    90

_symmetry_Int_Tables_number  62
_chemical_formula_structural  MnSiNi
_chemical_formula_sum  Mn4Si4Ni4
_cell_volume  136.01892585981483
_cell_formula_units_Z  4
loop_
  _symmetry_equiv_pos_site_id
 _symmetry_equiv_pos_as_xyz
 1  'x, y, z'
loop_
 _atom_site_type_symbol
 _atom_site_label
 _atom_site_symmetry_multiplicity
 _atom_site_fract_x
 _atom_site_fract_y
 _atom_site_fract_z
 _atom_site_fract_occupancy
 Mn  Mn1  1  0.75000  0.46823  0.30840  1
 Mn  Mn2  1  0.25000  0.03177  0.80840  1
 Mn  Mn3  1  0.75000  0.96823  0.19160  1
 Mn  Mn4  1  0.25000  0.53177  0.69160  1
 Ni  Ni1  1  0.25000  0.65423  0.05984  1
 Ni  Ni2  1  0.25000  0.15423  0.44016  1
 Ni  Ni3  1  0.75000  0.84577  0.55984  1
 Ni  Ni4  1  0.75000  0.34577  0.94016  1
 Si  Si1  1  0.25000  0.23633  0.11951  1
 Si  Si2  1  0.25000  0.73633  0.38049  1
 Si  Si3  1  0.75000  0.76367  0.88049  1
 Si  Si4  1  0.75000  0.26367  0.61951  1
