CIF file written using JARVIS-Tools package.
data_SrBiBrO2
_symmetry_space_group_name_H-M  'Cmcm'
_cell_length_a       5.8212
_cell_length_b       5.7243
_cell_length_c       7.04319
_cell_angle_alpha    90
_cell_angle_beta     114.409
_cell_angle_gamma    90

_symmetry_Int_Tables_number  63
_chemical_formula_structural  SrBiBrO2
_chemical_formula_sum  Sr2Bi2Br2O4
_cell_volume  213.71714979722447
_cell_formula_units_Z  2
loop_
  _symmetry_equiv_pos_site_id
 _symmetry_equiv_pos_as_xyz
 1  'x, y, z'
loop_
 _atom_site_type_symbol
 _atom_site_label
 _atom_site_symmetry_multiplicity
 _atom_site_fract_x
 _atom_site_fract_y
 _atom_site_fract_z
 _atom_site_fract_occupancy
 Bi  Bi1  1  0.08061  0.25000  0.16123  1
 Bi  Bi2  1  0.91939  0.75000  0.83877  1
 Br  Br1  1  0.25491  0.75000  0.50986  1
 Br  Br2  1  0.74509  0.25000  0.49014  1
 O  O1  1  0.76485  0.00000  0.99999  1
 O  O2  1  0.23515  0.50000  0.00001  1
 O  O3  1  0.23515  -0.00000  0.00001  1
 O  O4  1  0.76485  0.50000  0.99999  1
 Sr  Sr1  1  0.60369  0.75000  0.20736  1
 Sr  Sr2  1  0.39631  0.25000  0.79264  1
