CIF file written using JARVIS-Tools package.
data_SiO2
_symmetry_space_group_name_H-M  'P4_2/mnm'
_cell_length_a       4.21892
_cell_length_b       4.21892
_cell_length_c       2.70293
_cell_angle_alpha    90
_cell_angle_beta     90
_cell_angle_gamma    90

_symmetry_Int_Tables_number  136
_chemical_formula_structural  SiO2
_chemical_formula_sum  Si2O4
_cell_volume  48.11024865699001
_cell_formula_units_Z  2
loop_
  _symmetry_equiv_pos_site_id
 _symmetry_equiv_pos_as_xyz
 1  'x, y, z'
loop_
 _atom_site_type_symbol
 _atom_site_label
 _atom_site_symmetry_multiplicity
 _atom_site_fract_x
 _atom_site_fract_y
 _atom_site_fract_z
 _atom_site_fract_occupancy
 O  O1  1  0.69403  0.69403  0.00000  1
 O  O2  1  0.19403  0.80597  0.50000  1
 O  O3  1  0.30597  0.30597  0.00000  1
 O  O4  1  0.80597  0.19403  0.50000  1
 Si  Si1  1  0.50000  0.50000  0.50000  1
 Si  Si2  1  0.00000  0.00000  0.00000  1
