CIF file written using JARVIS-Tools package.
data_PaTe3
_symmetry_space_group_name_H-M  'P6_3/mmc'
_cell_length_a       6.76876
_cell_length_b       6.76876
_cell_length_c       5.6307
_cell_angle_alpha    90
_cell_angle_beta     90
_cell_angle_gamma    120

_symmetry_Int_Tables_number  194
_chemical_formula_structural  PaTe3
_chemical_formula_sum  Pa2Te6
_cell_volume  223.4147844393074
_cell_formula_units_Z  2
loop_
  _symmetry_equiv_pos_site_id
 _symmetry_equiv_pos_as_xyz
 1  'x, y, z'
loop_
 _atom_site_type_symbol
 _atom_site_label
 _atom_site_symmetry_multiplicity
 _atom_site_fract_x
 _atom_site_fract_y
 _atom_site_fract_z
 _atom_site_fract_occupancy
 Pa  Pa1  1  0.66667  0.33333  0.75000  1
 Pa  Pa2  1  0.33333  0.66667  0.25000  1
 Te  Te1  1  0.82362  0.17638  0.25000  1
 Te  Te2  1  0.82362  0.64723  0.25000  1
 Te  Te3  1  0.35277  0.17638  0.25000  1
 Te  Te4  1  0.17638  0.82362  0.75000  1
 Te  Te5  1  0.17638  0.35277  0.75000  1
 Te  Te6  1  0.64723  0.82362  0.75000  1
