CIF file written using JARVIS-Tools package.
data_TiMo2S4
_symmetry_space_group_name_H-M  'C2/m'
_cell_length_a       3.21055
_cell_length_b       6.01165
_cell_length_c       6.75892
_cell_angle_alpha    112.63
_cell_angle_beta     103.739
_cell_angle_gamma    90

_symmetry_Int_Tables_number  12
_chemical_formula_structural  TiMo2S4
_chemical_formula_sum  TiMo2S4
_cell_volume  116.35425236437482
_cell_formula_units_Z  1
loop_
  _symmetry_equiv_pos_site_id
 _symmetry_equiv_pos_as_xyz
 1  'x, y, z'
loop_
 _atom_site_type_symbol
 _atom_site_label
 _atom_site_symmetry_multiplicity
 _atom_site_fract_x
 _atom_site_fract_y
 _atom_site_fract_z
 _atom_site_fract_occupancy
 Mo  Mo1  1  0.25860  0.31443  0.51719  1
 Mo  Mo2  1  0.74140  0.68557  0.48281  1
 S  S1  1  0.10878  0.44417  0.21757  1
 S  S2  1  0.89122  0.55583  0.78243  1
 S  S3  1  0.36262  0.02829  0.72524  1
 S  S4  1  0.63738  0.97171  0.27476  1
 Ti  Ti1  1  0.00000  0.00000  0.00000  1
