CIF file written using JARVIS-Tools package.
data_LuOs2
_symmetry_space_group_name_H-M  'P6_3/mmc'
_cell_length_a       5.28505
_cell_length_b       5.28505
_cell_length_c       8.75089
_cell_angle_alpha    90
_cell_angle_beta     90
_cell_angle_gamma    120

_symmetry_Int_Tables_number  194
_chemical_formula_structural  LuOs2
_chemical_formula_sum  Lu4Os8
_cell_volume  211.68066427849152
_cell_formula_units_Z  4
loop_
  _symmetry_equiv_pos_site_id
 _symmetry_equiv_pos_as_xyz
 1  'x, y, z'
loop_
 _atom_site_type_symbol
 _atom_site_label
 _atom_site_symmetry_multiplicity
 _atom_site_fract_x
 _atom_site_fract_y
 _atom_site_fract_z
 _atom_site_fract_occupancy
 Lu  Lu1  1  0.33333  0.66667  0.56590  1
 Lu  Lu2  1  0.66667  0.33333  0.43410  1
 Lu  Lu3  1  0.66667  0.33333  0.06590  1
 Lu  Lu4  1  0.33333  0.66667  0.93410  1
 Os  Os1  1  0.17258  0.82742  0.25000  1
 Os  Os2  1  0.17258  0.34516  0.25000  1
 Os  Os3  1  0.34516  0.17258  0.75000  1
 Os  Os4  1  0.82742  0.17258  0.75000  1
 Os  Os5  1  0.65484  0.82742  0.25000  1
 Os  Os6  1  0.00000  0.00000  0.00000  1
 Os  Os7  1  0.82742  0.65484  0.75000  1
 Os  Os8  1  0.00000  0.00000  0.50000  1
