CIF file written using JARVIS-Tools package.
data_LuCu2
_symmetry_space_group_name_H-M  'Imma'
_cell_length_a       4.23237
_cell_length_b       5.34419
_cell_length_c       5.34419
_cell_angle_alpha    76.3069
_cell_angle_beta     66.6731
_cell_angle_gamma    66.6731

_symmetry_Int_Tables_number  74
_chemical_formula_structural  LuCu2
_chemical_formula_sum  Lu2Cu4
_cell_volume  101.46560389516645
_cell_formula_units_Z  2
loop_
  _symmetry_equiv_pos_site_id
 _symmetry_equiv_pos_as_xyz
 1  'x, y, z'
loop_
 _atom_site_type_symbol
 _atom_site_label
 _atom_site_symmetry_multiplicity
 _atom_site_fract_x
 _atom_site_fract_y
 _atom_site_fract_z
 _atom_site_fract_occupancy
 Cu  Cu1  1  0.83552  0.11646  0.21249  1
 Cu  Cu2  1  0.16448  0.88354  0.78751  1
 Cu  Cu3  1  0.83552  0.71249  0.61646  1
 Cu  Cu4  1  0.16448  0.28751  0.38354  1
 Lu  Lu1  1  0.45525  0.29475  0.79475  1
 Lu  Lu2  1  0.54475  0.70525  0.20525  1
