CIF file written using JARVIS-Tools package.
data_TaAs
_symmetry_space_group_name_H-M  'I4_1md'
_cell_length_a       3.4696
_cell_length_b       3.4696
_cell_length_c       6.37701
_cell_angle_alpha    105.786
_cell_angle_beta     105.786
_cell_angle_gamma    90

_symmetry_Int_Tables_number  109
_chemical_formula_structural  TaAs
_chemical_formula_sum  Ta2As2
_cell_volume  70.8587432457976
_cell_formula_units_Z  2
loop_
  _symmetry_equiv_pos_site_id
 _symmetry_equiv_pos_as_xyz
 1  'x, y, z'
loop_
 _atom_site_type_symbol
 _atom_site_label
 _atom_site_symmetry_multiplicity
 _atom_site_fract_x
 _atom_site_fract_y
 _atom_site_fract_z
 _atom_site_fract_occupancy
 As  As1  1  0.41769  0.41769  0.83539  1
 As  As2  1  0.16769  0.66769  0.33539  1
 Ta  Ta1  1  0.00001  0.00001  0.00001  1
 Ta  Ta2  1  0.75001  0.25001  0.50001  1
