CIF file written using JARVIS-Tools package.
data_BaSm2FeS5
_symmetry_space_group_name_H-M  'I4/mcm'
_cell_length_a       7.78177
_cell_length_b       7.78178
_cell_length_c       8.68953
_cell_angle_alpha    116.601
_cell_angle_beta     116.6
_cell_angle_gamma    90

_symmetry_Int_Tables_number  140
_chemical_formula_structural  BaSm2FeS5
_chemical_formula_sum  Ba2Sm4Fe2S0
_cell_volume  407.25848372941823
_cell_formula_units_Z  2
loop_
  _symmetry_equiv_pos_site_id
 _symmetry_equiv_pos_as_xyz
 1  'x, y, z'
loop_
 _atom_site_type_symbol
 _atom_site_label
 _atom_site_symmetry_multiplicity
 _atom_site_fract_x
 _atom_site_fract_y
 _atom_site_fract_z
 _atom_site_fract_occupancy
 Ba  Ba1  1  0.25000  0.25000  0.50000  1
 Ba  Ba2  1  0.75000  0.75000  0.50000  1
 Fe  Fe1  1  0.25000  0.75000  0.50000  1
 Fe  Fe2  1  0.75000  0.25000  0.50000  1
 S  S1  1  0.21682  0.71682  0.73116  1
 S  S2  1  0.51434  0.01434  0.73116  1
 S  S3  1  0.71682  0.51434  0.73116  1
 S  S4  1  0.01434  0.21682  0.73116  1
 S  S5  1  0.28318  0.48566  0.26884  1
 S  S6  1  0.98566  0.78318  0.26884  1
 S  S7  1  0.50000  0.50000  0.00000  1
 S  S8  1  0.78318  0.28318  0.26884  1
 S  S9  1  0.48566  0.98566  0.26884  1
 S  S10  1  0.00000  0.00000  0.00000  1
 Sm  Sm1  1  0.83887  0.33887  0.00000  1
 Sm  Sm2  1  0.66113  0.83887  -0.00000  1
 Sm  Sm3  1  0.16113  0.66113  -0.00000  1
 Sm  Sm4  1  0.33887  0.16113  0.00000  1
