CIF file written using JARVIS-Tools package.
data_MoSe2
_symmetry_space_group_name_H-M  'R3m'
_cell_length_a       6.84111
_cell_length_b       6.84111
_cell_length_c       6.84111
_cell_angle_alpha    28.1873
_cell_angle_beta     28.1873
_cell_angle_gamma    28.1873

_symmetry_Int_Tables_number  160
_chemical_formula_structural  MoSe2
_chemical_formula_sum  MoSe2
_cell_volume  63.11157203495669
_cell_formula_units_Z  1
loop_
  _symmetry_equiv_pos_site_id
 _symmetry_equiv_pos_as_xyz
 1  'x, y, z'
loop_
 _atom_site_type_symbol
 _atom_site_label
 _atom_site_symmetry_multiplicity
 _atom_site_fract_x
 _atom_site_fract_y
 _atom_site_fract_z
 _atom_site_fract_occupancy
 Mo  Mo1  1  0.33320  0.33320  0.33320  1
 Se  Se1  1  0.58170  0.58170  0.58170  1
 Se  Se2  1  0.75144  0.75144  0.75144  1
