CIF file written using JARVIS-Tools package.
data_CaAlF5
_symmetry_space_group_name_H-M  'P2_1/c'
_cell_length_a       5.35711
_cell_length_b       9.92365
_cell_length_c       7.35808
_cell_angle_alpha    90
_cell_angle_beta     109.797
_cell_angle_gamma    90

_symmetry_Int_Tables_number  14
_chemical_formula_structural  CaAlF5
_chemical_formula_sum  Ca4Al4F20
_cell_volume  368.0517333395259
_cell_formula_units_Z  4
loop_
  _symmetry_equiv_pos_site_id
 _symmetry_equiv_pos_as_xyz
 1  'x, y, z'
loop_
 _atom_site_type_symbol
 _atom_site_label
 _atom_site_symmetry_multiplicity
 _atom_site_fract_x
 _atom_site_fract_y
 _atom_site_fract_z
 _atom_site_fract_occupancy
 Al  Al1  1  0.10524  0.75335  0.40031  1
 Al  Al2  1  0.89476  0.25335  0.09969  1
 Al  Al3  1  0.89476  0.24665  0.59969  1
 Al  Al4  1  0.10524  0.74665  0.90031  1
 Ca  Ca1  1  0.46999  0.98057  0.74459  1
 Ca  Ca2  1  0.53001  0.48057  0.75541  1
 Ca  Ca3  1  0.53001  0.01943  0.25541  1
 Ca  Ca4  1  0.46999  0.51943  0.24459  1
 F  F1  1  0.86314  0.21104  0.34094  1
 F  F2  1  0.38715  0.62754  0.94476  1
 F  F3  1  0.13686  0.78896  0.65906  1
 F  F4  1  0.34757  0.61763  0.49182  1
 F  F5  1  0.65243  0.38237  0.50818  1
 F  F6  1  0.65243  0.11763  0.00818  1
 F  F7  1  0.13686  0.71104  0.15906  1
 F  F8  1  0.34757  0.88237  0.99182  1
 F  F9  1  0.86314  0.28896  0.84094  1
 F  F10  1  0.61285  0.37246  0.05524  1
 F  F11  1  0.16260  0.35982  0.63886  1
 F  F12  1  0.89139  0.60682  0.81513  1
 F  F13  1  0.10861  0.39318  0.18487  1
 F  F14  1  0.83740  0.85982  0.86114  1
 F  F15  1  0.38715  0.87246  0.44476  1
 F  F16  1  0.16260  0.14018  0.13886  1
 F  F17  1  0.83740  0.64018  0.36114  1
 F  F18  1  0.10861  0.10682  0.68487  1
 F  F19  1  0.89139  0.89318  0.31513  1
 F  F20  1  0.61285  0.12754  0.55524  1
