CIF file written using JARVIS-Tools package.
data_TiSi2
_symmetry_space_group_name_H-M  'Immm'
_cell_length_a       3.44495
_cell_length_b       2.98698
_cell_length_c       4.80339
_cell_angle_alpha    108.117
_cell_angle_beta     111.015
_cell_angle_gamma    89.9997

_symmetry_Int_Tables_number  71
_chemical_formula_structural  TiSi2
_chemical_formula_sum  TiSi2
_cell_volume  43.50437934388594
_cell_formula_units_Z  1
loop_
  _symmetry_equiv_pos_site_id
 _symmetry_equiv_pos_as_xyz
 1  'x, y, z'
loop_
 _atom_site_type_symbol
 _atom_site_label
 _atom_site_symmetry_multiplicity
 _atom_site_fract_x
 _atom_site_fract_y
 _atom_site_fract_z
 _atom_site_fract_occupancy
 Si  Si1  1  0.33100  0.33099  0.66201  1
 Si  Si2  1  0.66900  0.66901  0.33799  1
 Ti  Ti1  1  0.00000  0.00000  0.00000  1
