CIF file written using JARVIS-Tools package.
data_NaPPdS4
_symmetry_space_group_name_H-M  'I4/mcm'
_cell_length_a       7.25126
_cell_length_b       7.25126
_cell_length_c       8.06234
_cell_angle_alpha    116.724
_cell_angle_beta     116.725
_cell_angle_gamma    90

_symmetry_Int_Tables_number  140
_chemical_formula_structural  NaPPdS4
_chemical_formula_sum  Na2P2Pd2S8
_cell_volume  327.1471609192264
_cell_formula_units_Z  2
loop_
  _symmetry_equiv_pos_site_id
 _symmetry_equiv_pos_as_xyz
 1  'x, y, z'
loop_
 _atom_site_type_symbol
 _atom_site_label
 _atom_site_symmetry_multiplicity
 _atom_site_fract_x
 _atom_site_fract_y
 _atom_site_fract_z
 _atom_site_fract_occupancy
 Na  Na1  1  0.75000  0.75000  0.50000  1
 Na  Na2  1  0.25000  0.25000  0.50000  1
 P  P1  1  0.25000  0.75000  0.50000  1
 P  P2  1  0.75000  0.25000  0.50000  1
 Pd  Pd1  1  0.50000  0.00000  -0.00000  1
 Pd  Pd2  1  -0.00000  0.50000  -0.00000  1
 S  S1  1  0.70603  0.20603  0.71762  1
 S  S2  1  0.98841  0.48841  0.28238  1
 S  S3  1  0.20603  0.01159  0.71762  1
 S  S4  1  0.51159  0.70603  0.71762  1
 S  S5  1  0.29397  0.79397  0.28238  1
 S  S6  1  0.79397  0.98841  0.28238  1
 S  S7  1  0.48841  0.29397  0.28238  1
 S  S8  1  0.01159  0.51159  0.71762  1
