CIF file written using JARVIS-Tools package.
data_TeMoWSe3
_symmetry_space_group_name_H-M  'P3m1'
_cell_length_a       3.38645
_cell_length_b       3.38646
_cell_length_c       36.1599
_cell_angle_alpha    90.0003
_cell_angle_beta     90.0004
_cell_angle_gamma    120

_symmetry_Int_Tables_number  156
_chemical_formula_structural  TeMoWSe3
_chemical_formula_sum  Te2Mo2W2Se6
_cell_volume  359.12675160723023
_cell_formula_units_Z  2
loop_
  _symmetry_equiv_pos_site_id
 _symmetry_equiv_pos_as_xyz
 1  'x, y, z'
loop_
 _atom_site_type_symbol
 _atom_site_label
 _atom_site_symmetry_multiplicity
 _atom_site_fract_x
 _atom_site_fract_y
 _atom_site_fract_z
 _atom_site_fract_occupancy
 Mo  Mo1  1  0.33333  0.66663  0.09671  1
 Mo  Mo2  1  0.66662  0.33330  0.27716  1
 Se  Se1  1  0.33329  0.66664  0.32292  1
 Se  Se2  1  0.33339  0.66670  0.70641  1
 Se  Se3  1  0.66666  0.33328  0.05102  1
 Se  Se4  1  0.66668  0.33331  0.14245  1
 Se  Se5  1  0.33328  0.66664  0.23143  1
 Se  Se6  1  0.33337  0.66668  0.61455  1
 Te  Te1  1  0.66666  0.33337  0.41617  1
 Te  Te2  1  0.66667  0.33336  0.52087  1
 W  W1  1  0.33333  0.66670  0.46852  1
 W  W2  1  0.66672  0.33336  0.66052  1
