CIF file written using JARVIS-Tools package.
data_Tl4CdI6
_symmetry_space_group_name_H-M  'P4/mnc'
_cell_length_a       9.23327
_cell_length_b       9.23327
_cell_length_c       9.68457
_cell_angle_alpha    90
_cell_angle_beta     90
_cell_angle_gamma    90

_symmetry_Int_Tables_number  128
_chemical_formula_structural  Tl4CdI6
_chemical_formula_sum  Tl8Cd2I2
_cell_volume  825.641308172864
_cell_formula_units_Z  2
loop_
  _symmetry_equiv_pos_site_id
 _symmetry_equiv_pos_as_xyz
 1  'x, y, z'
loop_
 _atom_site_type_symbol
 _atom_site_label
 _atom_site_symmetry_multiplicity
 _atom_site_fract_x
 _atom_site_fract_y
 _atom_site_fract_z
 _atom_site_fract_occupancy
 Cd  Cd1  1  0.00000  0.00000  0.00000  1
 Cd  Cd2  1  0.50000  0.50000  0.50000  1
 I  I1  1  0.31454  0.13863  0.00000  1
 I  I2  1  0.86137  0.31454  0.00000  1
 I  I3  1  0.00000  0.00000  0.29503  1
 I  I4  1  0.00000  0.00000  0.70497  1
 I  I5  1  0.13863  0.68546  0.00000  1
 I  I6  1  0.81454  0.36137  0.50000  1
 I  I7  1  0.18546  0.63863  0.50000  1
 I  I8  1  0.36137  0.18546  0.50000  1
 I  I9  1  0.63863  0.81454  0.50000  1
 I  I10  1  0.50000  0.50000  0.79503  1
 I  I11  1  0.68546  0.86137  0.00000  1
 I  I12  1  0.50000  0.50000  0.20497  1
 Tl  Tl1  1  0.64834  0.14834  0.75000  1
 Tl  Tl2  1  0.64834  0.14834  0.25000  1
 Tl  Tl3  1  0.85166  0.64834  0.25000  1
 Tl  Tl4  1  0.35166  0.85166  0.75000  1
 Tl  Tl5  1  0.35166  0.85166  0.25000  1
 Tl  Tl6  1  0.14834  0.35166  0.75000  1
 Tl  Tl7  1  0.85166  0.64834  0.75000  1
 Tl  Tl8  1  0.14834  0.35166  0.25000  1
