CIF file written using JARVIS-Tools package.
data_TeMoSe
_symmetry_space_group_name_H-M  'P3m1'
_cell_length_a       3.44444
_cell_length_b       3.44443
_cell_length_c       36.5695
_cell_angle_alpha    90.0007
_cell_angle_beta     90
_cell_angle_gamma    120

_symmetry_Int_Tables_number  156
_chemical_formula_structural  TeMoSe
_chemical_formula_sum  Te4Mo4Se4
_cell_volume  375.7380041722301
_cell_formula_units_Z  4
loop_
  _symmetry_equiv_pos_site_id
 _symmetry_equiv_pos_as_xyz
 1  'x, y, z'
loop_
 _atom_site_type_symbol
 _atom_site_label
 _atom_site_symmetry_multiplicity
 _atom_site_fract_x
 _atom_site_fract_y
 _atom_site_fract_z
 _atom_site_fract_occupancy
 Mo  Mo1  1  0.33332  0.66663  0.09465  1
 Mo  Mo2  1  0.33333  0.66665  0.46939  1
 Mo  Mo3  1  0.66667  0.33335  0.28203  1
 Mo  Mo4  1  0.66669  0.33337  0.65685  1
 Se  Se1  1  0.66665  0.33329  0.04998  1
 Se  Se2  1  0.66665  0.33330  0.42465  1
 Se  Se3  1  0.66665  0.33330  0.13940  1
 Se  Se4  1  0.66666  0.33333  0.51413  1
 Te  Te1  1  0.33335  0.66670  0.33287  1
 Te  Te2  1  0.33335  0.66670  0.70762  1
 Te  Te3  1  0.33333  0.66666  0.23119  1
 Te  Te4  1  0.33336  0.66671  0.60599  1
