CIF file written using JARVIS-Tools package.
data_Ga4Bi2O9
_symmetry_space_group_name_H-M  'Pbam'
_cell_length_a       5.98038
_cell_length_b       7.96396
_cell_length_c       8.43541
_cell_angle_alpha    90
_cell_angle_beta     90
_cell_angle_gamma    90

_symmetry_Int_Tables_number  55
_chemical_formula_structural  Ga4Bi2O9
_chemical_formula_sum  Ga8Bi4O8
_cell_volume  401.7576436408651
_cell_formula_units_Z  2
loop_
  _symmetry_equiv_pos_site_id
 _symmetry_equiv_pos_as_xyz
 1  'x, y, z'
loop_
 _atom_site_type_symbol
 _atom_site_label
 _atom_site_symmetry_multiplicity
 _atom_site_fract_x
 _atom_site_fract_y
 _atom_site_fract_z
 _atom_site_fract_occupancy
 Bi  Bi1  1  0.00000  0.82988  0.67157  1
 Bi  Bi2  1  0.00000  0.32988  0.82843  1
 Bi  Bi3  1  0.00000  0.67012  0.17157  1
 Bi  Bi4  1  0.00000  0.17012  0.32843  1
 Ga  Ga1  1  0.25751  0.00000  0.00000  1
 Ga  Ga2  1  0.74249  0.50000  0.50000  1
 Ga  Ga3  1  0.50000  0.14801  0.66476  1
 Ga  Ga4  1  0.25751  0.50000  0.50000  1
 Ga  Ga5  1  0.50000  0.35199  0.16476  1
 Ga  Ga6  1  0.50000  0.64801  0.83524  1
 Ga  Ga7  1  0.50000  0.85199  0.33524  1
 Ga  Ga8  1  0.74249  0.00000  0.00000  1
 O  O1  1  0.75850  0.12716  0.79140  1
 O  O2  1  0.50000  0.50000  0.00000  1
 O  O3  1  0.50000  0.00000  0.50000  1
 O  O4  1  0.50000  0.13209  0.09249  1
 O  O5  1  0.24150  0.12716  0.79140  1
 O  O6  1  0.75850  0.37284  0.29140  1
 O  O7  1  0.75850  0.62716  0.70860  1
 O  O8  1  0.24150  0.87284  0.20860  1
 O  O9  1  0.00000  0.84905  0.93424  1
 O  O10  1  0.24150  0.37284  0.29140  1
 O  O11  1  0.50000  0.36791  0.59249  1
 O  O12  1  0.50000  0.63209  0.40751  1
 O  O13  1  0.00000  0.15095  0.06576  1
 O  O14  1  0.75850  0.87284  0.20860  1
 O  O15  1  0.00000  0.65095  0.43424  1
 O  O16  1  0.00000  0.34905  0.56576  1
 O  O17  1  0.24150  0.62716  0.70860  1
 O  O18  1  0.50000  0.86791  0.90751  1
