CIF file written using JARVIS-Tools package.
data_SrBiIO2
_symmetry_space_group_name_H-M  'Cmcm'
_cell_length_a       5.92523
_cell_length_b       5.81749
_cell_length_c       7.38907
_cell_angle_alpha    90
_cell_angle_beta     113.637
_cell_angle_gamma    90

_symmetry_Int_Tables_number  63
_chemical_formula_structural  SrBiIO2
_chemical_formula_sum  Sr2Bi2I2O4
_cell_volume  233.33311422771024
_cell_formula_units_Z  2
loop_
  _symmetry_equiv_pos_site_id
 _symmetry_equiv_pos_as_xyz
 1  'x, y, z'
loop_
 _atom_site_type_symbol
 _atom_site_label
 _atom_site_symmetry_multiplicity
 _atom_site_fract_x
 _atom_site_fract_y
 _atom_site_fract_z
 _atom_site_fract_occupancy
 Bi  Bi1  1  0.92455  0.75000  0.84910  1
 Bi  Bi2  1  0.07545  0.25000  0.15090  1
 I  I1  1  0.25503  0.75000  0.51006  1
 I  I2  1  0.74497  0.25000  0.48994  1
 O  O1  1  0.23328  0.50000  0.00000  1
 O  O2  1  0.23328  0.00000  0.00000  1
 O  O3  1  0.76672  -0.00000  -0.00000  1
 O  O4  1  0.76672  0.50000  -0.00000  1
 Sr  Sr1  1  0.59405  0.75000  0.18810  1
 Sr  Sr2  1  0.40595  0.25000  0.81190  1
