CIF file written using JARVIS-Tools package.
data_K2MnNb6Cl18
_symmetry_space_group_name_H-M  'R-3'
_cell_length_a       9.95561
_cell_length_b       9.95561
_cell_length_c       9.9556
_cell_angle_alpha    54.7833
_cell_angle_beta     54.7833
_cell_angle_gamma    54.7833

_symmetry_Int_Tables_number  148
_chemical_formula_structural  K2MnNb6Cl18
_chemical_formula_sum  K2MnNb6Cl8
_cell_volume  612.9674084702707
_cell_formula_units_Z  1
loop_
  _symmetry_equiv_pos_site_id
 _symmetry_equiv_pos_as_xyz
 1  'x, y, z'
loop_
 _atom_site_type_symbol
 _atom_site_label
 _atom_site_symmetry_multiplicity
 _atom_site_fract_x
 _atom_site_fract_y
 _atom_site_fract_z
 _atom_site_fract_occupancy
 Cl  Cl1  1  0.57709  0.14954  0.43665  1
 Cl  Cl2  1  0.07036  0.78450  0.64256  1
 Cl  Cl3  1  0.97816  0.15115  0.69626  1
 Cl  Cl4  1  0.35744  0.92964  0.21550  1
 Cl  Cl5  1  0.85046  0.56335  0.42291  1
 Cl  Cl6  1  0.43665  0.57709  0.14954  1
 Cl  Cl7  1  0.69626  0.97816  0.15115  1
 Cl  Cl8  1  0.78450  0.64256  0.07036  1
 Cl  Cl9  1  0.42291  0.85046  0.56335  1
 Cl  Cl10  1  0.92964  0.21550  0.35744  1
 Cl  Cl11  1  0.30374  0.02184  0.84885  1
 Cl  Cl12  1  0.64256  0.07036  0.78450  1
 Cl  Cl13  1  0.02184  0.84885  0.30374  1
 Cl  Cl14  1  0.14954  0.43665  0.57709  1
 Cl  Cl15  1  0.84885  0.30374  0.02184  1
 Cl  Cl16  1  0.56335  0.42291  0.85046  1
 Cl  Cl17  1  0.21550  0.35744  0.92964  1
 Cl  Cl18  1  0.15115  0.69626  0.97816  1
 K  K1  1  0.72190  0.72190  0.72190  1
 K  K2  1  0.27810  0.27810  0.27810  1
 Mn  Mn1  1  0.00000  0.00000  0.00000  1
 Nb  Nb1  1  0.58953  0.70844  0.34418  1
 Nb  Nb2  1  0.34418  0.58953  0.70844  1
 Nb  Nb3  1  0.70844  0.34418  0.58953  1
 Nb  Nb4  1  0.65582  0.41047  0.29156  1
 Nb  Nb5  1  0.41047  0.29156  0.65582  1
 Nb  Nb6  1  0.29156  0.65582  0.41047  1
