CIF file written using JARVIS-Tools package.
data_Nd2CdNi2
_symmetry_space_group_name_H-M  'P4/mbm'
_cell_length_a       7.51942
_cell_length_b       7.51942
_cell_length_c       3.80819
_cell_angle_alpha    90
_cell_angle_beta     90
_cell_angle_gamma    90

_symmetry_Int_Tables_number  127
_chemical_formula_structural  Nd2CdNi2
_chemical_formula_sum  Nd4Cd2Ni4
_cell_volume  215.32129207522803
_cell_formula_units_Z  2
loop_
  _symmetry_equiv_pos_site_id
 _symmetry_equiv_pos_as_xyz
 1  'x, y, z'
loop_
 _atom_site_type_symbol
 _atom_site_label
 _atom_site_symmetry_multiplicity
 _atom_site_fract_x
 _atom_site_fract_y
 _atom_site_fract_z
 _atom_site_fract_occupancy
 Cd  Cd1  1  0.00000  0.00000  0.00000  1
 Cd  Cd2  1  0.50000  0.50000  0.00000  1
 Nd  Nd1  1  0.32265  0.82265  0.50000  1
 Nd  Nd2  1  0.82265  0.67735  0.50000  1
 Nd  Nd3  1  0.17735  0.32265  0.50000  1
 Nd  Nd4  1  0.67735  0.17735  0.50000  1
 Ni  Ni1  1  0.38304  0.11696  0.00000  1
 Ni  Ni2  1  0.88304  0.38304  0.00000  1
 Ni  Ni3  1  0.11696  0.61696  0.00000  1
 Ni  Ni4  1  0.61696  0.88304  0.00000  1
