CIF file written using JARVIS-Tools package.
data_Er2Re2Si2C
_symmetry_space_group_name_H-M  'C2/m'
_cell_length_a       3.97594
_cell_length_b       5.81185
_cell_length_c       5.9589
_cell_angle_alpha    71.5023
_cell_angle_beta     70.5118
_cell_angle_gamma    69.9979

_symmetry_Int_Tables_number  12
_chemical_formula_structural  Er2Re2Si2C
_chemical_formula_sum  Er2Re2Si2C
_cell_volume  118.72652132695859
_cell_formula_units_Z  1
loop_
  _symmetry_equiv_pos_site_id
 _symmetry_equiv_pos_as_xyz
 1  'x, y, z'
loop_
 _atom_site_type_symbol
 _atom_site_label
 _atom_site_symmetry_multiplicity
 _atom_site_fract_x
 _atom_site_fract_y
 _atom_site_fract_z
 _atom_site_fract_occupancy
 C  C1  1  0.00000  0.00000  0.00000  1
 Er  Er1  1  0.42781  0.84653  0.29785  1
 Er  Er2  1  0.57219  0.15347  0.70215  1
 Re  Re1  1  0.79228  0.32093  0.09450  1
 Re  Re2  1  0.20772  0.67907  0.90550  1
 Si  Si1  1  0.85890  0.60428  0.67792  1
 Si  Si2  1  0.14110  0.39572  0.32208  1
