CIF file written using JARVIS-Tools package.
data_Y3CuGeS7
_symmetry_space_group_name_H-M  'P6_3'
_cell_length_a       9.86364
_cell_length_b       9.86364
_cell_length_c       5.80749
_cell_angle_alpha    90
_cell_angle_beta     90
_cell_angle_gamma    120

_symmetry_Int_Tables_number  173
_chemical_formula_structural  Y3CuGeS7
_chemical_formula_sum  Y6Cu2Ge2S4
_cell_volume  489.31976789328564
_cell_formula_units_Z  2
loop_
  _symmetry_equiv_pos_site_id
 _symmetry_equiv_pos_as_xyz
 1  'x, y, z'
loop_
 _atom_site_type_symbol
 _atom_site_label
 _atom_site_symmetry_multiplicity
 _atom_site_fract_x
 _atom_site_fract_y
 _atom_site_fract_z
 _atom_site_fract_occupancy
 Cu  Cu1  1  0.00000  0.00000  0.19509  1
 Cu  Cu2  1  0.00000  0.00000  0.69509  1
 Ge  Ge1  1  0.66667  0.33333  0.83178  1
 Ge  Ge2  1  0.33333  0.66667  0.33178  1
 S  S1  1  0.16009  0.26053  0.21514  1
 S  S2  1  0.48050  0.57707  0.49449  1
 S  S3  1  0.83991  0.73947  0.71514  1
 S  S4  1  0.89956  0.16009  0.71514  1
 S  S5  1  0.10044  0.83991  0.21514  1
 S  S6  1  0.09657  0.51950  0.49449  1
 S  S7  1  0.90343  0.48050  0.99449  1
 S  S8  1  0.73947  0.89956  0.21514  1
 S  S9  1  0.66667  0.33333  0.45169  1
 S  S10  1  0.51950  0.42293  0.99449  1
 S  S11  1  0.26053  0.10044  0.71514  1
 S  S12  1  0.33333  0.66667  0.95169  1
 S  S13  1  0.42293  0.90343  0.49449  1
 S  S14  1  0.57707  0.09657  0.99449  1
 Y  Y1  1  0.22393  0.35791  0.75138  1
 Y  Y2  1  0.86601  0.22393  0.25138  1
 Y  Y3  1  0.64209  0.86601  0.75138  1
 Y  Y4  1  0.35791  0.13399  0.25138  1
 Y  Y5  1  0.77607  0.64209  0.25138  1
 Y  Y6  1  0.13399  0.77607  0.75138  1
