CIF file written using JARVIS-Tools package.
data_Li2CeAl
_symmetry_space_group_name_H-M  'Fm-3m'
_cell_length_a       4.78428
_cell_length_b       4.78433
_cell_length_c       4.78426
_cell_angle_alpha    59.9978
_cell_angle_beta     59.9981
_cell_angle_gamma    59.9978

_symmetry_Int_Tables_number  225
_chemical_formula_structural  Li2CeAl
_chemical_formula_sum  Li2CeAl
_cell_volume  77.4317471238769
_cell_formula_units_Z  1
loop_
  _symmetry_equiv_pos_site_id
 _symmetry_equiv_pos_as_xyz
 1  'x, y, z'
loop_
 _atom_site_type_symbol
 _atom_site_label
 _atom_site_symmetry_multiplicity
 _atom_site_fract_x
 _atom_site_fract_y
 _atom_site_fract_z
 _atom_site_fract_occupancy
 Al  Al1  1  0.25000  0.25000  0.25000  1
 Ce  Ce1  1  0.75000  0.75000  0.75000  1
 Li  Li1  1  -0.00000  -0.00000  -0.00000  1
 Li  Li2  1  0.50000  0.50000  0.50000  1
