CIF file written using JARVIS-Tools package.
data_KCaAl2F9
_symmetry_space_group_name_H-M  'C222_1'
_cell_length_a       7.14684
_cell_length_b       7.14684
_cell_length_c       22.6304
_cell_angle_alpha    90
_cell_angle_beta     90
_cell_angle_gamma    119.487

_symmetry_Int_Tables_number  20
_chemical_formula_structural  KCaAl2F9
_chemical_formula_sum  K6Ca6Al2F54
_cell_volume  1006.1687649128179
_cell_formula_units_Z  6
loop_
  _symmetry_equiv_pos_site_id
 _symmetry_equiv_pos_as_xyz
 1  'x, y, z'
loop_
 _atom_site_type_symbol
 _atom_site_label
 _atom_site_symmetry_multiplicity
 _atom_site_fract_x
 _atom_site_fract_y
 _atom_site_fract_z
 _atom_site_fract_occupancy
 Al  Al1  1  0.00262  0.48379  0.58650  1
 Al  Al2  1  0.52205  0.01942  0.25319  1
 Al  Al3  1  0.98058  0.47795  0.74681  1
 Al  Al4  1  0.48379  0.00262  0.91350  1
 Al  Al5  1  0.49544  0.51267  0.08005  1
 Al  Al6  1  0.99738  0.51621  0.08650  1
 Al  Al7  1  0.47795  0.98058  0.75319  1
 Al  Al8  1  0.01942  0.52205  0.24681  1
 Al  Al9  1  0.51267  0.49544  0.41995  1
 Al  Al10  1  0.50456  0.48733  0.58005  1
 Al  Al11  1  0.51621  0.99738  0.41350  1
 Al  Al12  1  0.48733  0.50456  0.91995  1
 Ca  Ca1  1  0.51689  0.51689  0.25000  1
 Ca  Ca2  1  0.98822  0.50115  0.91690  1
 Ca  Ca3  1  0.48311  0.48311  0.75000  1
 Ca  Ca4  1  0.01178  0.49885  0.41690  1
 Ca  Ca5  1  0.49885  0.01178  0.08310  1
 Ca  Ca6  1  0.50115  0.98822  0.58310  1
 F  F1  1  0.46559  0.55025  0.15676  1
 F  F2  1  0.88736  0.67465  0.22902  1
 F  F3  1  0.47737  0.52263  0.50000  1
 F  F4  1  0.40119  0.96555  0.67657  1
 F  F5  1  0.24864  0.70856  0.76225  1
 F  F6  1  0.73729  0.44944  0.56613  1
 F  F7  1  0.27439  0.52532  0.59943  1
 F  F8  1  0.44975  0.53441  0.84324  1
 F  F9  1  0.22507  0.32851  0.41361  1
 F  F10  1  0.79923  0.66489  0.42927  1
 F  F11  1  0.20077  0.33511  0.92927  1
 F  F12  1  0.53441  0.44975  0.65676  1
 F  F13  1  0.79686  0.13211  0.39409  1
 F  F14  1  0.35715  0.14089  0.23849  1
 F  F15  1  0.55025  0.46559  0.34324  1
 F  F16  1  0.64285  0.85911  0.73849  1
 F  F17  1  0.54794  0.98787  0.83358  1
 F  F18  1  0.01213  0.45206  0.16642  1
 F  F19  1  0.72561  0.47468  0.09943  1
 F  F20  1  0.59881  0.03445  0.17657  1
 F  F21  1  0.23277  0.87400  0.42921  1
 F  F22  1  0.47468  0.72561  0.40057  1
 F  F23  1  0.52263  0.47737  0.00000  1
 F  F24  1  0.52532  0.27439  0.90057  1
 F  F25  1  0.67465  0.88736  0.27098  1
 F  F26  1  0.12600  0.76723  0.57079  1
 F  F27  1  0.97643  0.58370  0.01080  1
 F  F28  1  0.86789  0.20314  0.60591  1
 F  F29  1  0.76723  0.12600  0.92921  1
 F  F30  1  0.26271  0.55056  0.06613  1
 F  F31  1  0.41630  0.02357  0.98920  1
 F  F32  1  0.45206  0.01213  0.33358  1
 F  F33  1  0.32535  0.11264  0.77098  1
 F  F34  1  0.98787  0.54794  0.66642  1
 F  F35  1  0.96555  0.40119  0.82343  1
 F  F36  1  0.13211  0.79686  0.10591  1
 F  F37  1  0.29144  0.75136  0.23775  1
 F  F38  1  0.03445  0.59881  0.32343  1
 F  F39  1  0.55056  0.26271  0.43387  1
 F  F40  1  0.66489  0.79923  0.07073  1
 F  F41  1  0.77493  0.67149  0.91361  1
 F  F42  1  0.70856  0.24864  0.73775  1
 F  F43  1  0.87400  0.23277  0.07079  1
 F  F44  1  0.58370  0.97643  0.48920  1
 F  F45  1  0.20314  0.86789  0.89409  1
 F  F46  1  0.02357  0.41630  0.51080  1
 F  F47  1  0.11264  0.32535  0.72902  1
 F  F48  1  0.33511  0.20077  0.57073  1
 F  F49  1  0.14089  0.35715  0.26151  1
 F  F50  1  0.85911  0.64285  0.76151  1
 F  F51  1  0.32851  0.22507  0.08639  1
 F  F52  1  0.75136  0.29144  0.26225  1
 F  F53  1  0.67149  0.77493  0.58639  1
 F  F54  1  0.44944  0.73729  0.93387  1
 K  K1  1  0.03846  0.99300  0.33354  1
 K  K2  1  0.99300  0.03846  0.16646  1
 K  K3  1  0.00700  0.96154  0.66646  1
 K  K4  1  0.99047  0.00953  0.50000  1
 K  K5  1  0.96154  0.00700  0.83354  1
 K  K6  1  0.00953  0.99047  0.00000  1
