CIF file written using JARVIS-Tools package.
data_CeCrSe2O
_symmetry_space_group_name_H-M  'C2/m'
_cell_length_a       3.85009
_cell_length_b       5.92478
_cell_length_c       8.09138
_cell_angle_alpha    91.5528
_cell_angle_beta     90.0024
_cell_angle_gamma    108.958

_symmetry_Int_Tables_number  12
_chemical_formula_structural  CeCrSe2O
_chemical_formula_sum  Ce2Cr2Se4O2
_cell_volume  174.48833205171192
_cell_formula_units_Z  2
loop_
  _symmetry_equiv_pos_site_id
 _symmetry_equiv_pos_as_xyz
 1  'x, y, z'
loop_
 _atom_site_type_symbol
 _atom_site_label
 _atom_site_symmetry_multiplicity
 _atom_site_fract_x
 _atom_site_fract_y
 _atom_site_fract_z
 _atom_site_fract_occupancy
 Ce  Ce1  1  0.22454  0.44907  0.80129  1
 Ce  Ce2  1  0.77546  0.55093  0.19871  1
 Cr  Cr1  1  -0.00000  -0.00000  0.50000  1
 Cr  Cr2  1  0.50000  -0.00000  0.00000  1
 O  O1  1  0.67056  0.34113  0.93800  1
 O  O2  1  0.32944  0.65887  0.06200  1
 Se  Se1  1  0.36030  0.72060  0.46816  1
 Se  Se2  1  0.04822  0.09643  0.19988  1
 Se  Se3  1  0.95178  0.90357  0.80012  1
 Se  Se4  1  0.63970  0.27940  0.53184  1
