CIF file written using JARVIS-Tools package.
data_MgIn2Te4
_symmetry_space_group_name_H-M  'I-42m'
_cell_length_a       6.29986
_cell_length_b       6.29986
_cell_length_c       7.72844
_cell_angle_alpha    114.053
_cell_angle_beta     114.053
_cell_angle_gamma    89.9998

_symmetry_Int_Tables_number  121
_chemical_formula_structural  MgIn2Te4
_chemical_formula_sum  MgIn2Te4
_cell_volume  250.64552758556837
_cell_formula_units_Z  1
loop_
  _symmetry_equiv_pos_site_id
 _symmetry_equiv_pos_as_xyz
 1  'x, y, z'
loop_
 _atom_site_type_symbol
 _atom_site_label
 _atom_site_symmetry_multiplicity
 _atom_site_fract_x
 _atom_site_fract_y
 _atom_site_fract_z
 _atom_site_fract_occupancy
 In  In1  1  0.25001  0.75005  0.50000  1
 In  In2  1  0.75005  0.25001  0.50000  1
 Mg  Mg1  1  0.99998  0.99998  0.00002  1
 Te  Te1  1  0.16344  0.61480  0.77818  1
 Te  Te2  1  0.38521  0.38521  0.22184  1
 Te  Te3  1  0.61480  0.16344  0.77818  1
 Te  Te4  1  0.83651  0.83651  0.22178  1
