CIF file written using JARVIS-Tools package.
data_Mn4Al11
_symmetry_space_group_name_H-M  'P-1'
_cell_length_a       5.04897
_cell_length_b       5.05656
_cell_length_c       8.77324
_cell_angle_alpha    105.345
_cell_angle_beta     90.1252
_cell_angle_gamma    100.444

_symmetry_Int_Tables_number  2
_chemical_formula_structural  Mn4Al11
_chemical_formula_sum  Mn4Al
_cell_volume  212.12282882912055
_cell_formula_units_Z  1
loop_
  _symmetry_equiv_pos_site_id
 _symmetry_equiv_pos_as_xyz
 1  'x, y, z'
loop_
 _atom_site_type_symbol
 _atom_site_label
 _atom_site_symmetry_multiplicity
 _atom_site_fract_x
 _atom_site_fract_y
 _atom_site_fract_z
 _atom_site_fract_occupancy
 Al  Al1  1  0.00000  0.00000  0.00000  1
 Al  Al2  1  0.94976  0.81583  0.67316  1
 Al  Al3  1  0.05024  0.18417  0.32684  1
 Al  Al4  1  0.79719  0.26482  0.63298  1
 Al  Al5  1  0.84411  0.53175  0.12719  1
 Al  Al6  1  0.15589  0.46825  0.87281  1
 Al  Al7  1  0.49488  0.89008  0.12424  1
 Al  Al8  1  0.50512  0.10992  0.87576  1
 Al  Al9  1  0.56525  0.32705  0.37353  1
 Al  Al10  1  0.43475  0.67295  0.62647  1
 Al  Al11  1  0.20281  0.73518  0.36702  1
 Mn  Mn1  1  0.28380  0.15097  0.59990  1
 Mn  Mn2  1  0.71620  0.84903  0.40010  1
 Mn  Mn3  1  0.66592  0.61192  0.86693  1
 Mn  Mn4  1  0.33408  0.38808  0.13307  1
