CIF file written using JARVIS-Tools package.
data_Zr3N2
_symmetry_space_group_name_H-M  'R-3c'
_cell_length_a       5.66153
_cell_length_b       5.66153
_cell_length_c       6.18523
_cell_angle_alpha    117.236
_cell_angle_beta     62.7635
_cell_angle_gamma    120

_symmetry_Int_Tables_number  167
_chemical_formula_structural  Zr3N2
_chemical_formula_sum  Zr6N4
_cell_volume  145.7606439861437
_cell_formula_units_Z  2
loop_
  _symmetry_equiv_pos_site_id
 _symmetry_equiv_pos_as_xyz
 1  'x, y, z'
loop_
 _atom_site_type_symbol
 _atom_site_label
 _atom_site_symmetry_multiplicity
 _atom_site_fract_x
 _atom_site_fract_y
 _atom_site_fract_z
 _atom_site_fract_occupancy
 N  N1  1  0.66124  0.33875  0.01626  1
 N  N2  1  0.83875  0.16124  0.48374  1
 N  N3  1  0.16125  0.83876  0.51626  1
 N  N4  1  0.33876  0.66125  0.98374  1
 Zr  Zr1  1  0.57538  0.74999  0.25001  1
 Zr  Zr2  1  0.92461  0.42461  0.25000  1
 Zr  Zr3  1  0.24999  0.07538  0.24999  1
 Zr  Zr4  1  0.75001  0.92462  0.75001  1
 Zr  Zr5  1  0.07539  0.57539  0.75000  1
 Zr  Zr6  1  0.42462  0.25001  0.74999  1
