CIF file written using JARVIS-Tools package.
data_Ge3Bi4O12
_symmetry_space_group_name_H-M  'I-43d'
_cell_length_a       9.15755
_cell_length_b       9.15755
_cell_length_c       9.15755
_cell_angle_alpha    109.471
_cell_angle_beta     109.471
_cell_angle_gamma    109.471

_symmetry_Int_Tables_number  220
_chemical_formula_structural  Ge3Bi4O12
_chemical_formula_sum  Ge6Bi8O24
_cell_volume  591.1742603341826
_cell_formula_units_Z  2
loop_
  _symmetry_equiv_pos_site_id
 _symmetry_equiv_pos_as_xyz
 1  'x, y, z'
loop_
 _atom_site_type_symbol
 _atom_site_label
 _atom_site_symmetry_multiplicity
 _atom_site_fract_x
 _atom_site_fract_y
 _atom_site_fract_z
 _atom_site_fract_occupancy
 Bi  Bi1  1  0.66713  0.66713  0.66713  1
 Bi  Bi2  1  0.83287  0.50000  0.00000  1
 Bi  Bi3  1  -0.00000  0.83287  0.50000  1
 Bi  Bi4  1  0.50000  0.00000  0.83287  1
 Bi  Bi5  1  -0.00000  0.33287  0.50000  1
 Bi  Bi6  1  0.50000  0.00000  0.33287  1
 Bi  Bi7  1  0.16713  0.16713  0.16713  1
 Bi  Bi8  1  0.33287  0.50000  0.00000  1
 Ge  Ge1  1  0.12500  0.75000  0.87500  1
 Ge  Ge2  1  0.37500  0.25000  0.62500  1
 Ge  Ge3  1  0.87500  0.12500  0.75000  1
 Ge  Ge4  1  0.62500  0.37500  0.25000  1
 Ge  Ge5  1  0.75000  0.87500  0.12500  1
 Ge  Ge6  1  0.25000  0.62500  0.37500  1
 O  O1  1  0.08518  0.28274  0.94941  1
 O  O2  1  0.63577  0.33333  0.05059  1
 O  O3  1  0.41482  0.36423  0.19756  1
 O  O4  1  0.30244  0.66667  0.21726  1
 O  O5  1  0.13577  0.55059  0.83333  1
 O  O6  1  0.94941  0.08518  0.28274  1
 O  O7  1  0.19756  0.41482  0.36423  1
 O  O8  1  0.36423  0.19756  0.41482  1
 O  O9  1  0.66667  0.21726  0.30244  1
 O  O10  1  0.83333  0.13577  0.55059  1
 O  O11  1  0.86423  0.91482  0.69756  1
 O  O12  1  0.33333  0.05059  0.63577  1
 O  O13  1  0.91482  0.69756  0.86423  1
 O  O14  1  0.71726  0.16667  0.80244  1
 O  O15  1  0.05059  0.63577  0.33333  1
 O  O16  1  0.78274  0.58518  0.44941  1
 O  O17  1  0.58518  0.44941  0.78274  1
 O  O18  1  0.44941  0.78274  0.58518  1
 O  O19  1  0.21726  0.30244  0.66667  1
 O  O20  1  0.55059  0.83333  0.13577  1
 O  O21  1  0.28274  0.94941  0.08518  1
 O  O22  1  0.16667  0.80244  0.71726  1
 O  O23  1  0.69756  0.86423  0.91482  1
 O  O24  1  0.80244  0.71726  0.16667  1
