CIF file written using JARVIS-Tools package.
data_NbSe2Cl2
_symmetry_space_group_name_H-M  'P-1'
_cell_length_a       6.39005
_cell_length_b       6.59608
_cell_length_c       7.30308
_cell_angle_alpha    66.8676
_cell_angle_beta     68.4265
_cell_angle_gamma    61.0074

_symmetry_Int_Tables_number  2
_chemical_formula_structural  NbSe2Cl2
_chemical_formula_sum  Nb2Se4Cl4
_cell_volume  241.50843803721526
_cell_formula_units_Z  2
loop_
  _symmetry_equiv_pos_site_id
 _symmetry_equiv_pos_as_xyz
 1  'x, y, z'
loop_
 _atom_site_type_symbol
 _atom_site_label
 _atom_site_symmetry_multiplicity
 _atom_site_fract_x
 _atom_site_fract_y
 _atom_site_fract_z
 _atom_site_fract_occupancy
 Cl  Cl1  1  0.83937  0.51366  0.21827  1
 Cl  Cl2  1  0.16063  0.48634  0.78173  1
 Cl  Cl3  1  0.42276  0.35302  0.21945  1
 Cl  Cl4  1  0.57724  0.64698  0.78055  1
 Nb  Nb1  1  0.87144  0.25868  0.00011  1
 Nb  Nb2  1  0.12856  0.74132  -0.00011  1
 Se  Se1  1  0.91355  0.89490  0.33595  1
 Se  Se2  1  0.08645  0.10510  0.66405  1
 Se  Se3  1  0.73080  0.04656  0.85307  1
 Se  Se4  1  0.26920  0.95344  0.14693  1
