CIF file written using JARVIS-Tools package.
data_K2Si3SnO9
_symmetry_space_group_name_H-M  'R3'
_cell_length_a       7.70248
_cell_length_b       7.70248
_cell_length_c       7.70249
_cell_angle_alpha    83.1858
_cell_angle_beta     83.1857
_cell_angle_gamma    83.1857

_symmetry_Int_Tables_number  146
_chemical_formula_structural  K2Si3SnO9
_chemical_formula_sum  K4Si6Sn2O8
_cell_volume  447.999943193852
_cell_formula_units_Z  2
loop_
  _symmetry_equiv_pos_site_id
 _symmetry_equiv_pos_as_xyz
 1  'x, y, z'
loop_
 _atom_site_type_symbol
 _atom_site_label
 _atom_site_symmetry_multiplicity
 _atom_site_fract_x
 _atom_site_fract_y
 _atom_site_fract_z
 _atom_site_fract_occupancy
 K  K1  1  0.78018  0.22097  0.99210  1
 K  K2  1  0.49987  0.49987  0.49987  1
 K  K3  1  0.99210  0.78018  0.22097  1
 K  K4  1  0.22097  0.99210  0.78018  1
 O  O1  1  0.31590  -0.00528  0.10906  1
 O  O2  1  0.34514  0.12474  0.44804  1
 O  O3  1  0.49487  0.67759  0.15728  1
 O  O4  1  0.59625  0.54038  0.84801  1
 O  O5  1  0.67759  0.15728  0.49487  1
 O  O6  1  0.44804  0.34514  0.12474  1
 O  O7  1  0.10906  0.31590  -0.00528  1
 O  O8  1  0.63507  0.92244  0.92077  1
 O  O9  1  0.92244  0.92077  0.63507  1
 O  O10  1  0.62106  0.95606  0.25656  1
 O  O11  1  0.54038  0.84801  0.59625  1
 O  O12  1  0.12474  0.44804  0.34514  1
 O  O13  1  0.84801  0.59625  0.54038  1
 O  O14  1  0.92077  0.63507  0.92244  1
 O  O15  1  0.15728  0.49487  0.67759  1
 O  O16  1  -0.00528  0.10906  0.31590  1
 O  O17  1  0.25656  0.62106  0.95606  1
 O  O18  1  0.95606  0.25656  0.62106  1
 Si  Si1  1  0.89093  0.10626  0.51340  1
 Si  Si2  1  0.02020  0.45191  0.54079  1
 Si  Si3  1  0.54079  0.02020  0.45191  1
 Si  Si4  1  0.51340  0.89093  0.10626  1
 Si  Si5  1  0.10626  0.51340  0.89093  1
 Si  Si6  1  0.45191  0.54079  0.02020  1
 Sn  Sn1  1  0.22352  0.22352  0.22352  1
 Sn  Sn2  1  0.74523  0.74523  0.74523  1
