CIF file written using JARVIS-Tools package.
data_Te2Mo3WSe4S2
_symmetry_space_group_name_H-M  'P3m1'
_cell_length_a       3.35263
_cell_length_b       3.35263
_cell_length_c       37.8214
_cell_angle_alpha    90.0003
_cell_angle_beta     90
_cell_angle_gamma    120

_symmetry_Int_Tables_number  156
_chemical_formula_structural  Te2Mo3WSe4S2
_chemical_formula_sum  Te2Mo3WSe4S2
_cell_volume  368.1638110766149
_cell_formula_units_Z  1
loop_
  _symmetry_equiv_pos_site_id
 _symmetry_equiv_pos_as_xyz
 1  'x, y, z'
loop_
 _atom_site_type_symbol
 _atom_site_label
 _atom_site_symmetry_multiplicity
 _atom_site_fract_x
 _atom_site_fract_y
 _atom_site_fract_z
 _atom_site_fract_occupancy
 Mo  Mo1  1  0.33331  0.66662  0.09389  1
 Mo  Mo2  1  0.33333  0.66666  0.46968  1
 Mo  Mo3  1  0.66670  0.33339  0.28180  1
 S  S1  1  0.66663  0.33326  0.42954  1
 S  S2  1  0.66663  0.33326  0.50983  1
 Se  Se1  1  0.33336  0.66672  0.70159  1
 Se  Se2  1  0.66664  0.33328  0.05005  1
 Se  Se3  1  0.66665  0.33329  0.13789  1
 Se  Se4  1  0.33336  0.66671  0.61321  1
 Te  Te1  1  0.33336  0.66672  0.33212  1
 Te  Te2  1  0.33336  0.66672  0.23165  1
 W  W1  1  0.66668  0.33337  0.65749  1
