CIF file written using JARVIS-Tools package.
data_ZrCuF6
_symmetry_space_group_name_H-M  'R-3'
_cell_length_a       5.181
_cell_length_b       5.60282
_cell_length_c       5.60514
_cell_angle_alpha    124.943
_cell_angle_beta     117.456
_cell_angle_gamma    90.0208

_symmetry_Int_Tables_number  148
_chemical_formula_structural  ZrCuF6
_chemical_formula_sum  ZrCuF6
_cell_volume  110.25268836148275
_cell_formula_units_Z  1
loop_
  _symmetry_equiv_pos_site_id
 _symmetry_equiv_pos_as_xyz
 1  'x, y, z'
loop_
 _atom_site_type_symbol
 _atom_site_label
 _atom_site_symmetry_multiplicity
 _atom_site_fract_x
 _atom_site_fract_y
 _atom_site_fract_z
 _atom_site_fract_occupancy
 Cu  Cu1  1  0.00000  0.00000  0.00000  1
 F  F1  1  0.88349  0.38224  0.13114  1
 F  F2  1  0.61740  0.75187  0.50089  1
 F  F3  1  0.11651  0.61776  -0.13114  1
 F  F4  1  0.38260  0.24813  0.49911  1
 F  F5  1  0.75220  0.88397  0.13472  1
 F  F6  1  0.24780  0.11603  0.86528  1
 Zr  Zr1  1  0.50000  0.50000  0.00000  1
