CIF file written using JARVIS-Tools package.
data_BaAlSi4N5O3
_symmetry_space_group_name_H-M  'Cmc2_1'
_cell_length_a       5.67454
_cell_length_b       7.45924
_cell_length_c       9.45979
_cell_angle_alpha    90
_cell_angle_beta     90
_cell_angle_gamma    112.357

_symmetry_Int_Tables_number  36
_chemical_formula_structural  BaAlSi4N5O3
_chemical_formula_sum  Ba2Al2Si8N0O6
_cell_volume  370.3144295295791
_cell_formula_units_Z  2
loop_
  _symmetry_equiv_pos_site_id
 _symmetry_equiv_pos_as_xyz
 1  'x, y, z'
loop_
 _atom_site_type_symbol
 _atom_site_label
 _atom_site_symmetry_multiplicity
 _atom_site_fract_x
 _atom_site_fract_y
 _atom_site_fract_z
 _atom_site_fract_occupancy
 Al  Al1  1  0.47116  0.94232  0.25683  1
 Al  Al2  1  0.52884  0.05768  0.75683  1
 Ba  Ba1  1  0.97436  0.94871  0.48684  1
 Ba  Ba2  1  0.02564  0.05129  0.98684  1
 N  N1  1  0.70957  0.41913  0.36043  1
 N  N2  1  0.40773  0.81547  0.42065  1
 N  N3  1  0.19983  0.39966  0.36469  1
 N  N4  1  0.80017  0.60034  0.86469  1
 N  N5  1  0.59227  0.18453  0.92065  1
 N  N6  1  0.29043  0.58087  0.86043  1
 N  N7  1  0.47206  0.44736  0.09967  1
 N  N8  1  0.02470  0.55264  0.59967  1
 N  N9  1  0.52794  0.55264  0.59967  1
 N  N10  1  0.97530  0.44736  0.09967  1
 O  O1  1  0.69435  0.89398  0.74769  1
 O  O2  1  0.40065  0.80130  0.10101  1
 O  O3  1  0.80038  0.10602  0.24769  1
 O  O4  1  0.30565  0.10602  0.24769  1
 O  O5  1  0.19962  0.89398  0.74769  1
 O  O6  1  0.59935  0.19870  0.60101  1
 Si  Si1  1  0.42353  0.34479  0.26823  1
 Si  Si2  1  0.29770  0.59539  0.48866  1
 Si  Si3  1  0.70230  0.40461  0.98866  1
 Si  Si4  1  0.92126  0.34479  0.26823  1
 Si  Si5  1  0.07874  0.65521  0.76823  1
 Si  Si6  1  0.57647  0.65521  0.76823  1
 Si  Si7  1  0.28910  0.57819  0.04590  1
 Si  Si8  1  0.71090  0.42181  0.54590  1
