CIF file written using JARVIS-Tools package.
data_BaNd2FeS5
_symmetry_space_group_name_H-M  'I4/mcm'
_cell_length_a       7.8684
_cell_length_b       7.8684
_cell_length_c       8.74008
_cell_angle_alpha    116.752
_cell_angle_beta     116.752
_cell_angle_gamma    90

_symmetry_Int_Tables_number  140
_chemical_formula_structural  BaNd2FeS5
_chemical_formula_sum  Ba2Nd4Fe2S0
_cell_volume  417.31047688875407
_cell_formula_units_Z  2
loop_
  _symmetry_equiv_pos_site_id
 _symmetry_equiv_pos_as_xyz
 1  'x, y, z'
loop_
 _atom_site_type_symbol
 _atom_site_label
 _atom_site_symmetry_multiplicity
 _atom_site_fract_x
 _atom_site_fract_y
 _atom_site_fract_z
 _atom_site_fract_occupancy
 Ba  Ba1  1  0.25000  0.25000  0.50000  1
 Ba  Ba2  1  0.75000  0.75000  0.50000  1
 Fe  Fe1  1  0.25000  0.75000  0.50000  1
 Fe  Fe2  1  0.75000  0.25000  0.50000  1
 Nd  Nd1  1  0.33885  0.16115  -0.00000  1
 Nd  Nd2  1  0.16115  0.66115  0.00000  1
 Nd  Nd3  1  0.66115  0.83885  0.00000  1
 Nd  Nd4  1  0.83885  0.33885  -0.00000  1
 S  S1  1  0.21501  0.71501  0.72768  1
 S  S2  1  0.51268  0.01268  0.72768  1
 S  S3  1  0.71501  0.51268  0.72768  1
 S  S4  1  0.01268  0.21501  0.72768  1
 S  S5  1  0.50000  0.50000  -0.00000  1
 S  S6  1  0.98732  0.78499  0.27232  1
 S  S7  1  0.48732  0.98732  0.27232  1
 S  S8  1  0.78499  0.28499  0.27232  1
 S  S9  1  0.28499  0.48732  0.27232  1
 S  S10  1  0.00000  0.00000  0.00000  1
