CIF file written using JARVIS-Tools package.
data_ThInAg2
_symmetry_space_group_name_H-M  'P-1'
_cell_length_a       5.15635
_cell_length_b       5.09438
_cell_length_c       4.92167
_cell_angle_alpha    93.9245
_cell_angle_beta     60.7889
_cell_angle_gamma    122.947

_symmetry_Int_Tables_number  2
_chemical_formula_structural  ThInAg2
_chemical_formula_sum  ThInAg2
_cell_volume  91.2064852049289
_cell_formula_units_Z  1
loop_
  _symmetry_equiv_pos_site_id
 _symmetry_equiv_pos_as_xyz
 1  'x, y, z'
loop_
 _atom_site_type_symbol
 _atom_site_label
 _atom_site_symmetry_multiplicity
 _atom_site_fract_x
 _atom_site_fract_y
 _atom_site_fract_z
 _atom_site_fract_occupancy
 Ag  Ag1  1  0.01017  0.49965  0.50160  1
 Ag  Ag2  1  -0.01017  0.00036  -0.00161  1
 In  In1  1  0.49999  0.75000  0.75001  1
 Th  Th1  1  0.50000  0.25000  0.25000  1
