CIF file written using JARVIS-Tools package.
data_K5V3O10
_symmetry_space_group_name_H-M  'P4_12_12'
_cell_length_a       8.16902
_cell_length_b       8.16902
_cell_length_c       18.776
_cell_angle_alpha    90
_cell_angle_beta     90
_cell_angle_gamma    90

_symmetry_Int_Tables_number  92
_chemical_formula_structural  K5V3O10
_chemical_formula_sum  K20V2O40
_cell_volume  1252.9799745919947
_cell_formula_units_Z  4
loop_
  _symmetry_equiv_pos_site_id
 _symmetry_equiv_pos_as_xyz
 1  'x, y, z'
loop_
 _atom_site_type_symbol
 _atom_site_label
 _atom_site_symmetry_multiplicity
 _atom_site_fract_x
 _atom_site_fract_y
 _atom_site_fract_z
 _atom_site_fract_occupancy
 K  K1  1  0.23529  0.23529  0.00000  1
 K  K2  1  0.99536  0.02750  0.61283  1
 K  K3  1  0.26471  0.73529  0.25000  1
 K  K4  1  0.73529  0.26471  0.75000  1
 K  K5  1  0.76471  0.76471  0.50000  1
 K  K6  1  0.52750  0.50464  0.36283  1
 K  K7  1  0.47250  0.49536  0.86283  1
 K  K8  1  0.50464  0.52750  0.63717  1
 K  K9  1  0.49536  0.47250  0.13717  1
 K  K10  1  0.51348  0.02056  0.38424  1
 K  K11  1  0.00464  0.97250  0.11283  1
 K  K12  1  0.02750  0.99536  0.38717  1
 K  K13  1  0.48652  0.97944  0.88424  1
 K  K14  1  0.02056  0.51348  0.61576  1
 K  K15  1  0.52056  0.98652  0.13424  1
 K  K16  1  0.47944  0.01348  0.63424  1
 K  K17  1  0.98652  0.52056  0.86576  1
 K  K18  1  0.01348  0.47944  0.36576  1
 K  K19  1  0.97944  0.48652  0.11576  1
 K  K20  1  0.97250  0.00464  0.88717  1
 O  O1  1  0.68195  0.59339  0.76437  1
 O  O2  1  0.40661  0.31805  0.73563  1
 O  O3  1  0.59339  0.68195  0.23563  1
 O  O4  1  0.71297  0.25766  0.32399  1
 O  O5  1  0.75766  0.78703  0.07399  1
 O  O6  1  0.25954  0.73292  0.10775  1
 O  O7  1  0.72083  0.47770  0.01417  1
 O  O8  1  0.25766  0.71297  0.67601  1
 O  O9  1  0.28703  0.74234  0.82399  1
 O  O10  1  0.18195  0.90661  0.98563  1
 O  O11  1  0.81805  0.09339  0.48563  1
 O  O12  1  0.44124  0.83730  0.51222  1
 O  O13  1  0.09339  0.81805  0.51437  1
 O  O14  1  0.31805  0.40661  0.26437  1
 O  O15  1  0.94124  0.66270  0.23778  1
 O  O16  1  0.05876  0.33730  0.73778  1
 O  O17  1  0.66270  0.94124  0.76222  1
 O  O18  1  0.16270  0.55876  0.98778  1
 O  O19  1  0.83730  0.44124  0.48778  1
 O  O20  1  0.55876  0.16270  0.01222  1
 O  O21  1  0.24234  0.21297  0.57399  1
 O  O22  1  0.33730  0.05876  0.26222  1
 O  O23  1  0.76708  0.75954  0.35775  1
 O  O24  1  0.90661  0.18195  0.01437  1
 O  O25  1  0.78703  0.75766  0.92601  1
 O  O26  1  0.77917  0.97770  0.23583  1
 O  O27  1  0.74234  0.28703  0.17601  1
 O  O28  1  0.21297  0.24234  0.42601  1
 O  O29  1  0.73292  0.25954  0.89225  1
 O  O30  1  0.26708  0.74046  0.39225  1
 O  O31  1  0.24046  0.23292  0.14225  1
 O  O32  1  0.23292  0.24046  0.85775  1
 O  O33  1  0.22083  0.02230  0.73583  1
 O  O34  1  0.75954  0.76708  0.64225  1
 O  O35  1  0.47770  0.72083  0.98583  1
 O  O36  1  0.52230  0.27917  0.48583  1
 O  O37  1  0.02230  0.22083  0.26417  1
 O  O38  1  0.27917  0.52230  0.51417  1
 O  O39  1  0.74046  0.26708  0.60775  1
 O  O40  1  0.97770  0.77917  0.76417  1
 V  V1  1  0.73720  0.27070  0.51651  1
 V  V2  1  0.77070  0.76280  0.26651  1
 V  V3  1  0.22930  0.23720  0.76651  1
 V  V4  1  0.76280  0.77070  0.73349  1
 V  V5  1  0.26280  0.72930  0.01651  1
 V  V6  1  0.23720  0.22930  0.23349  1
 V  V7  1  0.27070  0.73720  0.48349  1
 V  V8  1  0.19279  0.80721  0.75000  1
 V  V9  1  0.69279  0.69279  0.00000  1
 V  V10  1  0.30721  0.30721  0.50000  1
 V  V11  1  0.72930  0.26280  0.98349  1
 V  V12  1  0.80721  0.19279  0.25000  1
