CIF file written using JARVIS-Tools package.
data_PtPb4
_symmetry_space_group_name_H-M  'P4/nbm'
_cell_length_a       6.80064
_cell_length_b       6.80064
_cell_length_c       6.08327
_cell_angle_alpha    90
_cell_angle_beta     90
_cell_angle_gamma    90

_symmetry_Int_Tables_number  125
_chemical_formula_structural  PtPb4
_chemical_formula_sum  Pt2Pb8
_cell_volume  281.3430351860569
_cell_formula_units_Z  2
loop_
  _symmetry_equiv_pos_site_id
 _symmetry_equiv_pos_as_xyz
 1  'x, y, z'
loop_
 _atom_site_type_symbol
 _atom_site_label
 _atom_site_symmetry_multiplicity
 _atom_site_fract_x
 _atom_site_fract_y
 _atom_site_fract_z
 _atom_site_fract_occupancy
 Pb  Pb1  1  0.82707  0.67293  0.25266  1
 Pb  Pb2  1  0.32707  0.82707  0.25266  1
 Pb  Pb3  1  0.32707  0.17293  0.74734  1
 Pb  Pb4  1  0.67293  0.82707  0.74734  1
 Pb  Pb5  1  0.17293  0.67293  0.74734  1
 Pb  Pb6  1  0.82707  0.32707  0.74734  1
 Pb  Pb7  1  0.17293  0.32707  0.25266  1
 Pb  Pb8  1  0.67293  0.17293  0.25266  1
 Pt  Pt1  1  0.50000  0.50000  0.00000  1
 Pt  Pt2  1  0.00000  0.00000  0.00000  1
