CIF file written using JARVIS-Tools package.
data_Sm2Re2Si2C
_symmetry_space_group_name_H-M  'C2/m'
_cell_length_a       4.04536
_cell_length_b       5.90698
_cell_length_c       6.07383
_cell_angle_alpha    72.4979
_cell_angle_beta     70.5481
_cell_angle_gamma    69.9755

_symmetry_Int_Tables_number  12
_chemical_formula_structural  Sm2Re2Si2C
_chemical_formula_sum  Sm2Re2Si2C
_cell_volume  125.69342911995341
_cell_formula_units_Z  1
loop_
  _symmetry_equiv_pos_site_id
 _symmetry_equiv_pos_as_xyz
 1  'x, y, z'
loop_
 _atom_site_type_symbol
 _atom_site_label
 _atom_site_symmetry_multiplicity
 _atom_site_fract_x
 _atom_site_fract_y
 _atom_site_fract_z
 _atom_site_fract_occupancy
 C  C1  1  0.00000  0.00000  0.00000  1
 Re  Re1  1  0.79458  0.32081  0.09003  1
 Re  Re2  1  0.20542  0.67919  0.90997  1
 Si  Si1  1  0.85441  0.60134  0.68984  1
 Si  Si2  1  0.14559  0.39866  0.31016  1
 Sm  Sm1  1  0.42779  0.84336  0.30105  1
 Sm  Sm2  1  0.57221  0.15664  0.69895  1
