CIF file written using JARVIS-Tools package.
data_SnSe
_symmetry_space_group_name_H-M  'Pnma'
_cell_length_a       4.21335
_cell_length_b       4.5204
_cell_length_c       11.7782
_cell_angle_alpha    90
_cell_angle_beta     90
_cell_angle_gamma    90

_symmetry_Int_Tables_number  62
_chemical_formula_structural  SnSe
_chemical_formula_sum  Sn4Se4
_cell_volume  224.327325535381
_cell_formula_units_Z  4
loop_
  _symmetry_equiv_pos_site_id
 _symmetry_equiv_pos_as_xyz
 1  'x, y, z'
loop_
 _atom_site_type_symbol
 _atom_site_label
 _atom_site_symmetry_multiplicity
 _atom_site_fract_x
 _atom_site_fract_y
 _atom_site_fract_z
 _atom_site_fract_occupancy
 Se  Se1  1  0.75000  0.02777  0.35528  1
 Se  Se2  1  0.25000  0.97223  0.64472  1
 Se  Se3  1  0.25000  0.52777  0.14472  1
 Se  Se4  1  0.75000  0.47223  0.85528  1
 Sn  Sn1  1  0.75000  0.38571  0.62084  1
 Sn  Sn2  1  0.25000  0.61429  0.37916  1
 Sn  Sn3  1  0.25000  0.88571  0.87916  1
 Sn  Sn4  1  0.75000  0.11429  0.12084  1
