CIF file written using JARVIS-Tools package.
data_LiSn4Ru
_symmetry_space_group_name_H-M  'I4/mcm'
_cell_length_a       6.71197
_cell_length_b       6.71197
_cell_length_c       7.38848
_cell_angle_alpha    117.015
_cell_angle_beta     117.015
_cell_angle_gamma    89.9999

_symmetry_Int_Tables_number  140
_chemical_formula_structural  LiSn4Ru
_chemical_formula_sum  Li2Sn8Ru2
_cell_volume  255.1007226148686
_cell_formula_units_Z  2
loop_
  _symmetry_equiv_pos_site_id
 _symmetry_equiv_pos_as_xyz
 1  'x, y, z'
loop_
 _atom_site_type_symbol
 _atom_site_label
 _atom_site_symmetry_multiplicity
 _atom_site_fract_x
 _atom_site_fract_y
 _atom_site_fract_z
 _atom_site_fract_occupancy
 Li  Li1  1  0.00000  0.00000  0.00000  1
 Li  Li2  1  0.50000  0.50000  0.00000  1
 Ru  Ru1  1  0.25000  0.25000  0.50000  1
 Ru  Ru2  1  0.75000  0.75000  0.50000  1
 Sn  Sn1  1  0.52296  0.70328  0.72624  1
 Sn  Sn2  1  0.02296  0.52296  0.72624  1
 Sn  Sn3  1  0.70328  0.20328  0.72624  1
 Sn  Sn4  1  0.29672  0.79672  0.27376  1
 Sn  Sn5  1  0.97704  0.47704  0.27376  1
 Sn  Sn6  1  0.47704  0.29672  0.27376  1
 Sn  Sn7  1  0.79672  0.97704  0.27376  1
 Sn  Sn8  1  0.20328  0.02296  0.72624  1
