CIF file written using JARVIS-Tools package.
data_SiO2
_symmetry_space_group_name_H-M  'P4_12_12'
_cell_length_a       4.96768
_cell_length_b       4.96768
_cell_length_c       6.85228
_cell_angle_alpha    90
_cell_angle_beta     90
_cell_angle_gamma    90

_symmetry_Int_Tables_number  92
_chemical_formula_structural  SiO2
_chemical_formula_sum  Si4O8
_cell_volume  169.099488459136
_cell_formula_units_Z  4
loop_
  _symmetry_equiv_pos_site_id
 _symmetry_equiv_pos_as_xyz
 1  'x, y, z'
loop_
 _atom_site_type_symbol
 _atom_site_label
 _atom_site_symmetry_multiplicity
 _atom_site_fract_x
 _atom_site_fract_y
 _atom_site_fract_z
 _atom_site_fract_occupancy
 O  O1  1  0.87647  0.76484  0.31178  1
 O  O2  1  0.12353  0.23516  0.81178  1
 O  O3  1  0.76484  0.87647  0.68822  1
 O  O4  1  0.26484  0.62353  0.06178  1
 O  O5  1  0.23516  0.12353  0.18822  1
 O  O6  1  0.37647  0.73516  0.43822  1
 O  O7  1  0.62353  0.26484  0.93822  1
 O  O8  1  0.73516  0.37647  0.56178  1
 Si  Si1  1  0.68986  0.68986  0.50000  1
 Si  Si2  1  0.81014  0.18986  0.75000  1
 Si  Si3  1  0.18986  0.81014  0.25000  1
 Si  Si4  1  0.31014  0.31014  0.00000  1
