CIF file written using JARVIS-Tools package.
data_ThCl4
_symmetry_space_group_name_H-M  'I4_1/a'
_cell_length_a       6.39627
_cell_length_b       6.3964
_cell_length_c       7.92358
_cell_angle_alpha    113.808
_cell_angle_beta     113.804
_cell_angle_gamma    89.9975

_symmetry_Int_Tables_number  88
_chemical_formula_structural  ThCl4
_chemical_formula_sum  Th2Cl8
_cell_volume  266.17456869131775
_cell_formula_units_Z  2
loop_
  _symmetry_equiv_pos_site_id
 _symmetry_equiv_pos_as_xyz
 1  'x, y, z'
loop_
 _atom_site_type_symbol
 _atom_site_label
 _atom_site_symmetry_multiplicity
 _atom_site_fract_x
 _atom_site_fract_y
 _atom_site_fract_z
 _atom_site_fract_occupancy
 Cl  Cl1  1  0.46018  0.32480  0.59683  1
 Cl  Cl2  1  0.72796  0.03982  0.90317  1
 Cl  Cl3  1  0.82480  0.63665  0.09683  1
 Cl  Cl4  1  0.27204  0.96018  0.09683  1
 Cl  Cl5  1  0.17520  0.36335  0.90317  1
 Cl  Cl6  1  0.53982  0.67520  0.40317  1
 Cl  Cl7  1  0.86336  0.22797  0.40317  1
 Cl  Cl8  1  0.13664  0.77203  0.59683  1
 Th  Th1  1  0.12500  0.37500  0.25000  1
 Th  Th2  1  0.87500  0.62500  0.75000  1
