CIF file written using JARVIS-Tools package.
data_BaCuTe2O7
_symmetry_space_group_name_H-M  'Ama2'
_cell_length_a       5.55782
_cell_length_b       7.29583
_cell_length_c       8.62664
_cell_angle_alpha    115.016
_cell_angle_beta     90
_cell_angle_gamma    90

_symmetry_Int_Tables_number  40
_chemical_formula_structural  BaCuTe2O7
_chemical_formula_sum  Ba2Cu2Te4O4
_cell_volume  316.98693236586746
_cell_formula_units_Z  2
loop_
  _symmetry_equiv_pos_site_id
 _symmetry_equiv_pos_as_xyz
 1  'x, y, z'
loop_
 _atom_site_type_symbol
 _atom_site_label
 _atom_site_symmetry_multiplicity
 _atom_site_fract_x
 _atom_site_fract_y
 _atom_site_fract_z
 _atom_site_fract_occupancy
 Ba  Ba1  1  0.25000  0.21661  0.41667  1
 Ba  Ba2  1  0.75000  0.79994  0.58333  1
 Cu  Cu1  1  0.25000  0.63358  0.26927  1
 Cu  Cu2  1  0.75000  0.36431  0.73073  1
 O  O1  1  0.25000  0.46351  0.96479  1
 O  O2  1  0.99783  0.47898  0.31642  1
 O  O3  1  0.25000  0.87027  0.72851  1
 O  O4  1  0.75000  0.49872  0.03521  1
 O  O5  1  0.50000  0.13505  0.00000  1
 O  O6  1  0.50217  0.47898  0.31642  1
 O  O7  1  0.49315  0.84081  0.29254  1
 O  O8  1  0.00685  0.84081  0.29254  1
 O  O9  1  0.50685  0.54827  0.70746  1
 O  O10  1  0.00217  0.16257  0.68358  1
 O  O11  1  0.99315  0.54827  0.70746  1
 O  O12  1  0.49783  0.16257  0.68358  1
 O  O13  1  0.75000  0.14176  0.27149  1
 O  O14  1  0.00000  0.13505  0.00000  1
 Te  Te1  1  0.25000  0.17018  0.84404  1
 Te  Te2  1  0.25000  0.68056  0.85813  1
 Te  Te3  1  0.75000  0.82243  0.14187  1
 Te  Te4  1  0.75000  0.32614  0.15596  1
