CIF file written using JARVIS-Tools package.
data_MgB2C2
_symmetry_space_group_name_H-M  'Cmce'
_cell_length_a       7.21586
_cell_length_b       7.21586
_cell_length_c       7.42801
_cell_angle_alpha    90
_cell_angle_beta     90
_cell_angle_gamma    98.1817

_symmetry_Int_Tables_number  64
_chemical_formula_structural  MgB2C2
_chemical_formula_sum  Mg8B6C6
_cell_volume  382.830274623944
_cell_formula_units_Z  8
loop_
  _symmetry_equiv_pos_site_id
 _symmetry_equiv_pos_as_xyz
 1  'x, y, z'
loop_
 _atom_site_type_symbol
 _atom_site_label
 _atom_site_symmetry_multiplicity
 _atom_site_fract_x
 _atom_site_fract_y
 _atom_site_fract_z
 _atom_site_fract_occupancy
 B  B1  1  0.46850  0.21317  0.24442  1
 B  B2  1  0.84423  0.34423  0.25000  1
 B  B3  1  0.03150  0.28683  0.74442  1
 B  B4  1  0.71317  0.96850  0.25558  1
 B  B5  1  0.78683  0.53150  0.75558  1
 B  B6  1  0.96850  0.71317  0.25558  1
 B  B7  1  0.28683  0.03150  0.74442  1
 B  B8  1  0.21317  0.46850  0.24442  1
 B  B9  1  0.34423  0.84423  0.25000  1
 B  B10  1  0.15577  0.65577  0.75000  1
 B  B11  1  0.53150  0.78683  0.75558  1
 B  B12  1  0.65577  0.15577  0.75000  1
 B  B13  1  0.91173  0.91173  0.77528  1
 B  B14  1  0.08827  0.08827  0.22472  1
 B  B15  1  0.41173  0.41173  0.72472  1
 B  B16  1  0.58827  0.58827  0.27528  1
 C  C1  1  0.82329  0.32329  0.75000  1
 C  C2  1  0.44989  0.20093  0.72427  1
 C  C3  1  0.79907  0.55011  0.27573  1
 C  C4  1  0.70093  0.94989  0.77573  1
 C  C5  1  0.17671  0.67671  0.25000  1
 C  C6  1  0.05011  0.29907  0.22427  1
 C  C7  1  0.55011  0.79907  0.27573  1
 C  C8  1  0.20093  0.44989  0.72427  1
 C  C9  1  0.29907  0.05011  0.22427  1
 C  C10  1  0.32329  0.82329  0.75000  1
 C  C11  1  0.92066  0.92066  0.23170  1
 C  C12  1  0.94989  0.70093  0.77573  1
 C  C13  1  0.42066  0.42066  0.26830  1
 C  C14  1  0.07934  0.07934  0.76830  1
 C  C15  1  0.67671  0.17671  0.25000  1
 C  C16  1  0.57934  0.57934  0.73170  1
 Mg  Mg1  1  0.34716  0.65284  0.50000  1
 Mg  Mg2  1  0.72025  0.72025  0.01054  1
 Mg  Mg3  1  0.77975  0.77975  0.51054  1
 Mg  Mg4  1  0.22025  0.22025  0.48946  1
 Mg  Mg5  1  0.27975  0.27975  0.98946  1
 Mg  Mg6  1  0.65284  0.34716  0.50000  1
 Mg  Mg7  1  0.84716  0.15284  0.00000  1
 Mg  Mg8  1  0.15284  0.84716  0.00000  1
