CIF file written using JARVIS-Tools package.
data_PrNiSn
_symmetry_space_group_name_H-M  'Pnma'
_cell_length_a       4.63613
_cell_length_b       7.59387
_cell_length_c       7.59064
_cell_angle_alpha    90
_cell_angle_beta     90
_cell_angle_gamma    90

_symmetry_Int_Tables_number  62
_chemical_formula_structural  PrNiSn
_chemical_formula_sum  Pr4Ni4Sn4
_cell_volume  267.2376534238805
_cell_formula_units_Z  4
loop_
  _symmetry_equiv_pos_site_id
 _symmetry_equiv_pos_as_xyz
 1  'x, y, z'
loop_
 _atom_site_type_symbol
 _atom_site_label
 _atom_site_symmetry_multiplicity
 _atom_site_fract_x
 _atom_site_fract_y
 _atom_site_fract_z
 _atom_site_fract_occupancy
 Ni  Ni1  1  0.75000  0.58053  0.31406  1
 Ni  Ni2  1  0.75000  0.91947  0.81406  1
 Ni  Ni3  1  0.25000  0.08053  0.18594  1
 Ni  Ni4  1  0.25000  0.41947  0.68594  1
 Pr  Pr1  1  0.25000  0.80452  0.47731  1
 Pr  Pr2  1  0.75000  0.19548  0.52269  1
 Pr  Pr3  1  0.75000  0.30452  0.02269  1
 Pr  Pr4  1  0.25000  0.69548  0.97731  1
 Sn  Sn1  1  0.75000  0.59296  0.68510  1
 Sn  Sn2  1  0.75000  0.90704  0.18510  1
 Sn  Sn3  1  0.25000  0.09296  0.81490  1
 Sn  Sn4  1  0.25000  0.40704  0.31490  1
