CIF file written using JARVIS-Tools package.
data_BaGa2B2O7
_symmetry_space_group_name_H-M  'Cmcm'
_cell_length_a       5.84434
_cell_length_b       7.36108
_cell_length_c       7.36107
_cell_angle_alpha    106.539
_cell_angle_beta     90
_cell_angle_gamma    90

_symmetry_Int_Tables_number  63
_chemical_formula_structural  BaGa2B2O7
_chemical_formula_sum  Ba2Ga4B4O4
_cell_volume  303.57538794333226
_cell_formula_units_Z  2
loop_
  _symmetry_equiv_pos_site_id
 _symmetry_equiv_pos_as_xyz
 1  'x, y, z'
loop_
 _atom_site_type_symbol
 _atom_site_label
 _atom_site_symmetry_multiplicity
 _atom_site_fract_x
 _atom_site_fract_y
 _atom_site_fract_z
 _atom_site_fract_occupancy
 B  B1  1  0.25000  0.50482  0.28247  1
 B  B2  1  0.75000  0.49518  0.71753  1
 B  B3  1  0.75000  0.71753  0.49518  1
 B  B4  1  0.25000  0.28247  0.50482  1
 Ba  Ba1  1  0.75000  0.19575  0.19575  1
 Ba  Ba2  1  0.25000  0.80425  0.80425  1
 Ga  Ga1  1  0.75000  0.12659  0.70980  1
 Ga  Ga2  1  0.25000  0.29020  0.87341  1
 Ga  Ga3  1  0.75000  0.70980  0.12659  1
 Ga  Ga4  1  0.25000  0.87341  0.29020  1
 O  O1  1  0.50000  0.13251  0.86749  1
 O  O2  1  0.25000  0.41405  0.68010  1
 O  O3  1  0.00000  0.86749  0.13251  1
 O  O4  1  0.75000  0.31990  0.58595  1
 O  O5  1  0.50000  0.86749  0.13251  1
 O  O6  1  0.75000  0.66559  0.66559  1
 O  O7  1  0.75000  0.90570  0.50784  1
 O  O8  1  0.25000  0.09430  0.49216  1
 O  O9  1  0.25000  0.68010  0.41405  1
 O  O10  1  0.75000  0.50784  0.90570  1
 O  O11  1  0.00000  0.13251  0.86749  1
 O  O12  1  0.75000  0.58595  0.31990  1
 O  O13  1  0.25000  0.33441  0.33441  1
 O  O14  1  0.25000  0.49216  0.09430  1
