CIF file written using JARVIS-Tools package.
data_TmMn6Ga2Sn4
_symmetry_space_group_name_H-M  'P6/mmm'
_cell_length_a       5.34853
_cell_length_b       5.34853
_cell_length_c       8.73865
_cell_angle_alpha    90
_cell_angle_beta     90
_cell_angle_gamma    120

_symmetry_Int_Tables_number  191
_chemical_formula_structural  TmMn6Ga2Sn4
_chemical_formula_sum  TmMn6Ga2Sn4
_cell_volume  216.49247688427434
_cell_formula_units_Z  1
loop_
  _symmetry_equiv_pos_site_id
 _symmetry_equiv_pos_as_xyz
 1  'x, y, z'
loop_
 _atom_site_type_symbol
 _atom_site_label
 _atom_site_symmetry_multiplicity
 _atom_site_fract_x
 _atom_site_fract_y
 _atom_site_fract_z
 _atom_site_fract_occupancy
 Ga  Ga1  1  0.33333  0.66667  0.00000  1
 Ga  Ga2  1  0.66667  0.33333  0.00000  1
 Mn  Mn1  1  0.50000  -0.00000  0.23496  1
 Mn  Mn2  1  0.00000  0.50000  0.76504  1
 Mn  Mn3  1  0.50000  0.50000  0.76504  1
 Mn  Mn4  1  0.50000  0.50000  0.23496  1
 Mn  Mn5  1  0.00000  0.50000  0.23496  1
 Mn  Mn6  1  0.50000  -0.00000  0.76504  1
 Sn  Sn1  1  0.00000  0.00000  0.33085  1
 Sn  Sn2  1  0.00000  0.00000  0.66915  1
 Sn  Sn3  1  0.66667  0.33333  0.50000  1
 Sn  Sn4  1  0.33333  0.66667  0.50000  1
 Tm  Tm1  1  0.00000  0.00000  0.00000  1
