CIF file written using JARVIS-Tools package.
data_Li5CoO4
_symmetry_space_group_name_H-M  'Aea2'
_cell_length_a       6.37677
_cell_length_b       6.37677
_cell_length_c       4.69561
_cell_angle_alpha    90
_cell_angle_beta     90.0001
_cell_angle_gamma    85.6478

_symmetry_Int_Tables_number  41
_chemical_formula_structural  Li5CoO4
_chemical_formula_sum  Li0Co2O8
_cell_volume  190.38757793013377
_cell_formula_units_Z  2
loop_
  _symmetry_equiv_pos_site_id
 _symmetry_equiv_pos_as_xyz
 1  'x, y, z'
loop_
 _atom_site_type_symbol
 _atom_site_label
 _atom_site_symmetry_multiplicity
 _atom_site_fract_x
 _atom_site_fract_y
 _atom_site_fract_z
 _atom_site_fract_occupancy
 Co  Co1  1  0.75687  0.25687  0.75000  1
 Co  Co2  1  0.25687  0.75687  0.25000  1
 Li  Li1  1  0.04142  0.95089  0.77858  1
 Li  Li2  1  0.21422  0.28138  0.69652  1
 Li  Li3  1  0.28137  0.21422  0.19652  1
 Li  Li4  1  0.45089  0.54142  0.72142  1
 Li  Li5  1  0.48205  0.98205  0.75000  1
 Li  Li6  1  0.54142  0.45089  0.22142  1
 Li  Li7  1  0.71422  0.78137  0.30348  1
 Li  Li8  1  0.78138  0.71422  0.80348  1
 Li  Li9  1  0.95089  0.04142  0.27858  1
 Li  Li10  1  0.98205  0.48205  0.25000  1
 O  O1  1  0.76570  0.98440  0.58490  1
 O  O2  1  0.73796  0.50109  0.51902  1
 O  O3  1  0.00109  0.23796  0.98098  1
 O  O4  1  0.23796  0.00109  0.48098  1
 O  O5  1  0.26570  0.48440  0.41510  1
 O  O6  1  0.48440  0.26570  0.91510  1
 O  O7  1  0.50109  0.73796  0.01902  1
 O  O8  1  0.98440  0.76570  0.08490  1
