CIF file written using JARVIS-Tools package.
data_BPO4
_symmetry_space_group_name_H-M  'I-4'
_cell_length_a       4.35842
_cell_length_b       4.35842
_cell_length_c       4.55508
_cell_angle_alpha    118.582
_cell_angle_beta     118.582
_cell_angle_gamma    90

_symmetry_Int_Tables_number  82
_chemical_formula_structural  BPO4
_chemical_formula_sum  BPO4
_cell_volume  63.7162160443617
_cell_formula_units_Z  1
loop_
  _symmetry_equiv_pos_site_id
 _symmetry_equiv_pos_as_xyz
 1  'x, y, z'
loop_
 _atom_site_type_symbol
 _atom_site_label
 _atom_site_symmetry_multiplicity
 _atom_site_fract_x
 _atom_site_fract_y
 _atom_site_fract_z
 _atom_site_fract_occupancy
 B  B1  1  0.25000  0.75000  0.50000  1
 O  O1  1  0.13190  0.73266  0.74614  1
 O  O2  1  0.26734  0.38576  0.25386  1
 O  O3  1  0.61424  0.01348  0.74614  1
 O  O4  1  0.98652  0.86810  0.25386  1
 P  P1  1  0.00000  0.00000  0.00000  1
