CIF file written using JARVIS-Tools package.
data_NdZnSn
_symmetry_space_group_name_H-M  'P6_3/mmc'
_cell_length_a       4.56905
_cell_length_b       4.56905
_cell_length_c       16.5518
_cell_angle_alpha    90
_cell_angle_beta     90
_cell_angle_gamma    120

_symmetry_Int_Tables_number  194
_chemical_formula_structural  NdZnSn
_chemical_formula_sum  Nd4Zn4Sn4
_cell_volume  299.24407792633457
_cell_formula_units_Z  4
loop_
  _symmetry_equiv_pos_site_id
 _symmetry_equiv_pos_as_xyz
 1  'x, y, z'
loop_
 _atom_site_type_symbol
 _atom_site_label
 _atom_site_symmetry_multiplicity
 _atom_site_fract_x
 _atom_site_fract_y
 _atom_site_fract_z
 _atom_site_fract_occupancy
 Nd  Nd1  1  0.00000  0.00000  0.75000  1
 Nd  Nd2  1  0.00000  0.00000  0.25000  1
 Nd  Nd3  1  0.00000  0.00000  0.50000  1
 Nd  Nd4  1  0.00000  0.00000  0.00000  1
 Sn  Sn1  1  0.66667  0.33333  0.11484  1
 Sn  Sn2  1  0.66667  0.33333  0.38516  1
 Sn  Sn3  1  0.33333  0.66667  0.88516  1
 Sn  Sn4  1  0.33333  0.66667  0.61484  1
 Zn  Zn1  1  0.66667  0.33333  0.84181  1
 Zn  Zn2  1  0.66667  0.33333  0.65819  1
 Zn  Zn3  1  0.33333  0.66667  0.15819  1
 Zn  Zn4  1  0.33333  0.66667  0.34181  1
