CIF file written using JARVIS-Tools package.
data_NaZr2CuF11
_symmetry_space_group_name_H-M  'P-1'
_cell_length_a       5.74493
_cell_length_b       5.41198
_cell_length_c       7.84666
_cell_angle_alpha    71.6848
_cell_angle_beta     112.493
_cell_angle_gamma    106.12

_symmetry_Int_Tables_number  2
_chemical_formula_structural  NaZr2CuF11
_chemical_formula_sum  NaZr2CuF
_cell_volume  210.51067060162467
_cell_formula_units_Z  1
loop_
  _symmetry_equiv_pos_site_id
 _symmetry_equiv_pos_as_xyz
 1  'x, y, z'
loop_
 _atom_site_type_symbol
 _atom_site_label
 _atom_site_symmetry_multiplicity
 _atom_site_fract_x
 _atom_site_fract_y
 _atom_site_fract_z
 _atom_site_fract_occupancy
 Cu  Cu1  1  -0.00000  -0.00000  0.50000  1
 F  F1  1  0.32897  0.79385  0.11876  1
 F  F2  1  0.15085  0.26513  0.65082  1
 F  F3  1  0.80763  0.78796  0.72713  1
 F  F4  1  0.67103  0.20615  0.88124  1
 F  F5  1  0.29253  0.37606  -0.03292  1
 F  F6  1  0.84915  0.73487  0.34918  1
 F  F7  1  0.70808  0.18333  0.35094  1
 F  F8  1  0.29192  0.81667  0.64906  1
 F  F9  1  0.19237  0.21204  0.27287  1
 F  F10  1  0.50000  0.50000  0.50000  1
 F  F11  1  0.70747  0.62394  0.03292  1
 Na  Na1  1  0.00000  0.00000  0.00000  1
 Zr  Zr1  1  0.49642  0.51286  0.76382  1
 Zr  Zr2  1  0.50358  0.48714  0.23618  1
