CIF file written using JARVIS-Tools package.
data_Na4Al3Si3IO12
_symmetry_space_group_name_H-M  'P-43n'
_cell_length_a       9.06015
_cell_length_b       9.06015
_cell_length_c       9.06015
_cell_angle_alpha    90
_cell_angle_beta     90
_cell_angle_gamma    90

_symmetry_Int_Tables_number  218
_chemical_formula_structural  Na4Al3Si3IO12
_chemical_formula_sum  Na8Al6Si6I2O24
_cell_volume  743.7150125308256
_cell_formula_units_Z  2
loop_
  _symmetry_equiv_pos_site_id
 _symmetry_equiv_pos_as_xyz
 1  'x, y, z'
loop_
 _atom_site_type_symbol
 _atom_site_label
 _atom_site_symmetry_multiplicity
 _atom_site_fract_x
 _atom_site_fract_y
 _atom_site_fract_z
 _atom_site_fract_occupancy
 Al  Al1  1  0.00000  0.25000  0.50000  1
 Al  Al2  1  0.50000  0.00000  0.75000  1
 Al  Al3  1  0.25000  0.50000  0.00000  1
 Al  Al4  1  0.50000  0.00000  0.25000  1
 Al  Al5  1  0.00000  0.75000  0.50000  1
 Al  Al6  1  0.75000  0.50000  0.00000  1
 I  I1  1  0.50000  0.50000  0.50000  1
 I  I2  1  0.00000  0.00000  0.00000  1
 Na  Na1  1  0.19619  0.19619  0.19619  1
 Na  Na2  1  0.30381  0.69619  0.30381  1
 Na  Na3  1  0.69619  0.69619  0.69619  1
 Na  Na4  1  0.80381  0.19619  0.80381  1
 Na  Na5  1  0.19619  0.80381  0.80381  1
 Na  Na6  1  0.30381  0.30381  0.69619  1
 Na  Na7  1  0.80381  0.80381  0.19619  1
 Na  Na8  1  0.69619  0.30381  0.30381  1
 O  O1  1  0.85892  0.55514  0.15092  1
 O  O2  1  0.14108  0.55514  0.84908  1
 O  O3  1  0.84908  0.85892  0.44486  1
 O  O4  1  0.94486  0.35892  0.34908  1
 O  O5  1  0.05514  0.64108  0.34908  1
 O  O6  1  0.85892  0.44486  0.84908  1
 O  O7  1  0.35892  0.34908  0.94486  1
 O  O8  1  0.15092  0.85892  0.55514  1
 O  O9  1  0.14108  0.44486  0.15092  1
 O  O10  1  0.64108  0.65092  0.94486  1
 O  O11  1  0.34908  0.05514  0.64108  1
 O  O12  1  0.94486  0.64108  0.65092  1
 O  O13  1  0.15092  0.14108  0.44486  1
 O  O14  1  0.34908  0.94486  0.35892  1
 O  O15  1  0.55514  0.84908  0.14108  1
 O  O16  1  0.05514  0.35892  0.65092  1
 O  O17  1  0.84908  0.14108  0.55514  1
 O  O18  1  0.44486  0.15092  0.14108  1
 O  O19  1  0.35892  0.65092  0.05514  1
 O  O20  1  0.65092  0.94486  0.64108  1
 O  O21  1  0.64108  0.34908  0.05514  1
 O  O22  1  0.65092  0.05514  0.35892  1
 O  O23  1  0.55514  0.15092  0.85892  1
 O  O24  1  0.44486  0.84908  0.85892  1
 Si  Si1  1  0.00000  0.50000  0.75000  1
 Si  Si2  1  0.00000  0.50000  0.25000  1
 Si  Si3  1  0.50000  0.25000  0.00000  1
 Si  Si4  1  0.75000  0.00000  0.50000  1
 Si  Si5  1  0.25000  0.00000  0.50000  1
 Si  Si6  1  0.50000  0.75000  0.00000  1
