CIF file written using JARVIS-Tools package.
data_SiO2
_symmetry_space_group_name_H-M  'P3_121'
_cell_length_a       4.9377
_cell_length_b       4.9377
_cell_length_c       5.44983
_cell_angle_alpha    90
_cell_angle_beta     90
_cell_angle_gamma    120

_symmetry_Int_Tables_number  152
_chemical_formula_structural  SiO2
_chemical_formula_sum  Si3O6
_cell_volume  115.06979173238526
_cell_formula_units_Z  3
loop_
  _symmetry_equiv_pos_site_id
 _symmetry_equiv_pos_as_xyz
 1  'x, y, z'
loop_
 _atom_site_type_symbol
 _atom_site_label
 _atom_site_symmetry_multiplicity
 _atom_site_fract_x
 _atom_site_fract_y
 _atom_site_fract_z
 _atom_site_fract_occupancy
 O  O1  1  0.58809  0.72562  0.21941  1
 O  O2  1  0.13753  0.41191  0.88607  1
 O  O3  1  0.27438  0.86247  0.55274  1
 O  O4  1  0.72562  0.58809  0.78059  1
 O  O5  1  0.86247  0.27438  0.44726  1
 O  O6  1  0.41191  0.13753  0.11393  1
 Si  Si1  1  0.46559  0.46559  0.00000  1
 Si  Si2  1  0.53441  -0.00000  0.33333  1
 Si  Si3  1  -0.00000  0.53441  0.66667  1
