CIF file written using JARVIS-Tools package.
data_Mg4P6Rh7
_symmetry_space_group_name_H-M  'Im-3m'
_cell_length_a       6.85508
_cell_length_b       6.85508
_cell_length_c       6.85508
_cell_angle_alpha    109.471
_cell_angle_beta     109.471
_cell_angle_gamma    109.471

_symmetry_Int_Tables_number  229
_chemical_formula_structural  Mg4P6Rh7
_chemical_formula_sum  Mg4P6Rh7
_cell_volume  247.97925737495729
_cell_formula_units_Z  1
loop_
  _symmetry_equiv_pos_site_id
 _symmetry_equiv_pos_as_xyz
 1  'x, y, z'
loop_
 _atom_site_type_symbol
 _atom_site_label
 _atom_site_symmetry_multiplicity
 _atom_site_fract_x
 _atom_site_fract_y
 _atom_site_fract_z
 _atom_site_fract_occupancy
 Mg  Mg1  1  0.50000  0.50000  0.50000  1
 Mg  Mg2  1  0.50000  0.00000  -0.00000  1
 Mg  Mg3  1  -0.00000  0.50000  -0.00000  1
 Mg  Mg4  1  0.00000  0.00000  0.50000  1
 P  P1  1  0.68216  0.00000  0.68216  1
 P  P2  1  0.68216  0.68216  0.00000  1
 P  P3  1  0.31784  0.31784  -0.00000  1
 P  P4  1  0.31784  0.00000  0.31784  1
 P  P5  1  0.00000  0.31784  0.31784  1
 P  P6  1  -0.00000  0.68216  0.68216  1
 Rh  Rh1  1  0.75000  0.50000  0.25000  1
 Rh  Rh2  1  0.50000  0.75000  0.25000  1
 Rh  Rh3  1  0.00000  0.00000  0.00000  1
 Rh  Rh4  1  0.50000  0.25000  0.75000  1
 Rh  Rh5  1  0.75000  0.25000  0.50000  1
 Rh  Rh6  1  0.25000  0.50000  0.75000  1
 Rh  Rh7  1  0.25000  0.75000  0.50000  1
