CIF file written using JARVIS-Tools package.
data_U2Mo2C3
_symmetry_space_group_name_H-M  'C2/m'
_cell_length_a       3.19535
_cell_length_b       5.62647
_cell_length_c       6.14484
_cell_angle_alpha    110.882
_cell_angle_beta     105.07
_cell_angle_gamma    90

_symmetry_Int_Tables_number  12
_chemical_formula_structural  U2Mo2C3
_chemical_formula_sum  U2Mo2C3
_cell_volume  99.14207998528921
_cell_formula_units_Z  1
loop_
  _symmetry_equiv_pos_site_id
 _symmetry_equiv_pos_as_xyz
 1  'x, y, z'
loop_
 _atom_site_type_symbol
 _atom_site_label
 _atom_site_symmetry_multiplicity
 _atom_site_fract_x
 _atom_site_fract_y
 _atom_site_fract_z
 _atom_site_fract_occupancy
 C  C1  1  0.25022  0.75391  0.50043  1
 C  C2  1  0.74978  0.24609  0.49957  1
 C  C3  1  0.00000  0.00000  0.00000  1
 Mo  Mo1  1  0.15409  0.33733  0.30818  1
 Mo  Mo2  1  0.84591  0.66267  0.69182  1
 U  U1  1  0.39556  0.18608  0.79113  1
 U  U2  1  0.60444  0.81392  0.20887  1
