CIF file written using JARVIS-Tools package.
data_LiIO3
_symmetry_space_group_name_H-M  'P6_3'
_cell_length_a       5.4565
_cell_length_b       5.4565
_cell_length_c       5.10307
_cell_angle_alpha    90
_cell_angle_beta     90
_cell_angle_gamma    120

_symmetry_Int_Tables_number  173
_chemical_formula_structural  LiIO3
_chemical_formula_sum  Li2I2O6
_cell_volume  131.58050439399452
_cell_formula_units_Z  2
loop_
  _symmetry_equiv_pos_site_id
 _symmetry_equiv_pos_as_xyz
 1  'x, y, z'
loop_
 _atom_site_type_symbol
 _atom_site_label
 _atom_site_symmetry_multiplicity
 _atom_site_fract_x
 _atom_site_fract_y
 _atom_site_fract_z
 _atom_site_fract_occupancy
 I  I1  1  0.66667  0.33333  0.48957  1
 I  I2  1  0.33333  0.66667  0.98957  1
 Li  Li1  1  0.00000  0.00000  0.42309  1
 Li  Li2  1  0.00000  0.00000  0.92309  1
 O  O1  1  0.25741  0.33959  0.16121  1
 O  O2  1  0.66041  0.91782  0.16121  1
 O  O3  1  0.74259  0.66041  0.66121  1
 O  O4  1  0.33959  0.08218  0.66121  1
 O  O5  1  0.91782  0.25741  0.66121  1
 O  O6  1  0.08218  0.74259  0.16121  1
