CIF file written using JARVIS-Tools package.
data_TiCuSi
_symmetry_space_group_name_H-M  'Pnma'
_cell_length_a       3.75441
_cell_length_b       6.22979
_cell_length_c       7.17961
_cell_angle_alpha    90
_cell_angle_beta     90
_cell_angle_gamma    90

_symmetry_Int_Tables_number  62
_chemical_formula_structural  TiCuSi
_chemical_formula_sum  Ti4Cu4Si4
_cell_volume  167.9252797531615
_cell_formula_units_Z  4
loop_
  _symmetry_equiv_pos_site_id
 _symmetry_equiv_pos_as_xyz
 1  'x, y, z'
loop_
 _atom_site_type_symbol
 _atom_site_label
 _atom_site_symmetry_multiplicity
 _atom_site_fract_x
 _atom_site_fract_y
 _atom_site_fract_z
 _atom_site_fract_occupancy
 Cu  Cu1  1  0.25000  0.65430  0.06792  1
 Cu  Cu2  1  0.25000  0.15430  0.43208  1
 Cu  Cu3  1  0.75000  0.84570  0.56792  1
 Cu  Cu4  1  0.75000  0.34570  0.93208  1
 Si  Si1  1  0.25000  0.26621  0.11738  1
 Si  Si2  1  0.25000  0.76621  0.38262  1
 Si  Si3  1  0.75000  0.73379  0.88262  1
 Si  Si4  1  0.75000  0.23379  0.61738  1
 Ti  Ti1  1  0.75000  0.48028  0.31804  1
 Ti  Ti2  1  0.25000  0.01972  0.81804  1
 Ti  Ti3  1  0.75000  0.98028  0.18196  1
 Ti  Ti4  1  0.25000  0.51972  0.68196  1
