CIF file written using JARVIS-Tools package.
data_Pr3NbCl6O4
_symmetry_space_group_name_H-M  'P6_3/m'
_cell_length_a       12.7865
_cell_length_b       12.7865
_cell_length_c       4.00628
_cell_angle_alpha    90
_cell_angle_beta     90
_cell_angle_gamma    120

_symmetry_Int_Tables_number  176
_chemical_formula_structural  Pr3NbCl6O4
_chemical_formula_sum  Pr6Nb2Cl2O8
_cell_volume  567.247783615502
_cell_formula_units_Z  2
loop_
  _symmetry_equiv_pos_site_id
 _symmetry_equiv_pos_as_xyz
 1  'x, y, z'
loop_
 _atom_site_type_symbol
 _atom_site_label
 _atom_site_symmetry_multiplicity
 _atom_site_fract_x
 _atom_site_fract_y
 _atom_site_fract_z
 _atom_site_fract_occupancy
 Cl  Cl1  1  0.55507  0.62754  0.75000  1
 Cl  Cl2  1  0.10004  0.24472  0.25000  1
 Cl  Cl3  1  0.07247  0.44493  0.75000  1
 Cl  Cl4  1  0.44493  0.37246  0.25000  1
 Cl  Cl5  1  0.85532  0.10004  0.75000  1
 Cl  Cl6  1  0.75528  0.85532  0.25000  1
 Cl  Cl7  1  0.89996  0.75528  0.75000  1
 Cl  Cl8  1  0.24472  0.14468  0.75000  1
 Cl  Cl9  1  0.14468  0.89996  0.25000  1
 Cl  Cl10  1  0.37246  0.92753  0.75000  1
 Cl  Cl11  1  0.62754  0.07247  0.25000  1
 Cl  Cl12  1  0.92753  0.55507  0.25000  1
 Nb  Nb1  1  0.33333  0.66667  0.25000  1
 Nb  Nb2  1  0.66667  0.33333  0.75000  1
 O  O1  1  0.66667  0.33333  0.25000  1
 O  O2  1  0.69321  0.49460  0.75000  1
 O  O3  1  0.30679  0.50540  0.25000  1
 O  O4  1  0.80139  0.30679  0.75000  1
 O  O5  1  0.49460  0.80139  0.25000  1
 O  O6  1  0.19861  0.69321  0.25000  1
 O  O7  1  0.33333  0.66667  0.75000  1
 O  O8  1  0.50540  0.19861  0.75000  1
 Pr  Pr1  1  0.71882  0.60578  0.25000  1
 Pr  Pr2  1  0.28118  0.39422  0.75000  1
 Pr  Pr3  1  0.60578  0.88696  0.75000  1
 Pr  Pr4  1  0.11304  0.71882  0.75000  1
 Pr  Pr5  1  0.39422  0.11304  0.25000  1
 Pr  Pr6  1  0.88696  0.28118  0.25000  1
