CIF file written using JARVIS-Tools package.
data_PH6NO4
_symmetry_space_group_name_H-M  'I-42d'
_cell_length_a       6.47341
_cell_length_b       6.4734
_cell_length_c       6.4734
_cell_angle_alpha    107.79
_cell_angle_beta     110.318
_cell_angle_gamma    110.318

_symmetry_Int_Tables_number  122
_chemical_formula_structural  PH6NO4
_chemical_formula_sum  P2H2N2O8
_cell_volume  208.6879302992032
_cell_formula_units_Z  2
loop_
  _symmetry_equiv_pos_site_id
 _symmetry_equiv_pos_as_xyz
 1  'x, y, z'
loop_
 _atom_site_type_symbol
 _atom_site_label
 _atom_site_symmetry_multiplicity
 _atom_site_fract_x
 _atom_site_fract_y
 _atom_site_fract_z
 _atom_site_fract_occupancy
 H  H1  1  0.59695  0.15500  0.78786  1
 H  H2  1  0.86713  0.55908  0.46214  1
 H  H3  1  0.40305  0.19092  0.55805  1
 H  H4  1  0.90305  0.30805  0.44092  1
 H  H5  1  0.63287  0.44195  0.84500  1
 H  H6  1  0.09695  0.53786  0.40500  1
 H  H7  1  0.39828  0.37500  0.27328  1
 H  H8  1  0.13287  0.59500  0.69195  1
 H  H9  1  0.60172  0.87500  0.97672  1
 H  H10  1  0.89828  0.02328  0.62500  1
 H  H11  1  0.10172  0.72672  0.12500  1
 H  H12  1  0.36713  0.21214  0.80908  1
 N  N1  1  0.50000  0.25000  0.75000  1
 N  N2  1  0.00000  0.50000  0.50000  1
 O  O1  1  0.76202  0.02643  0.96271  1
 O  O2  1  0.23798  0.20069  0.26441  1
 O  O3  1  0.26202  0.71271  0.27643  1
 O  O4  1  0.06372  0.03729  0.79931  1
 O  O5  1  0.56372  0.54931  0.28729  1
 O  O6  1  0.93628  0.73559  0.97357  1
 O  O7  1  0.73798  0.01441  0.45069  1
 O  O8  1  0.43628  0.72357  0.98559  1
 P  P1  1  0.00000  0.00000  0.00000  1
 P  P2  1  0.50000  0.75000  0.25000  1
