CIF file written using JARVIS-Tools package.
data_Na4Ga3Si3ClO12
_symmetry_space_group_name_H-M  'P-43n'
_cell_length_a       9.00254
_cell_length_b       9.00254
_cell_length_c       9.00254
_cell_angle_alpha    90
_cell_angle_beta     90
_cell_angle_gamma    90

_symmetry_Int_Tables_number  218
_chemical_formula_structural  Na4Ga3Si3ClO12
_chemical_formula_sum  Na8Ga6Si6Cl2O24
_cell_volume  729.6184816973695
_cell_formula_units_Z  2
loop_
  _symmetry_equiv_pos_site_id
 _symmetry_equiv_pos_as_xyz
 1  'x, y, z'
loop_
 _atom_site_type_symbol
 _atom_site_label
 _atom_site_symmetry_multiplicity
 _atom_site_fract_x
 _atom_site_fract_y
 _atom_site_fract_z
 _atom_site_fract_occupancy
 Cl  Cl1  1  0.50000  0.50000  0.50000  1
 Cl  Cl2  1  0.00000  0.00000  0.00000  1
 Ga  Ga1  1  0.75000  0.00000  0.50000  1
 Ga  Ga2  1  0.50000  0.75000  0.00000  1
 Ga  Ga3  1  0.50000  0.25000  0.00000  1
 Ga  Ga4  1  0.00000  0.50000  0.75000  1
 Ga  Ga5  1  0.25000  0.00000  0.50000  1
 Ga  Ga6  1  0.00000  0.50000  0.25000  1
 Na  Na1  1  0.82849  0.82849  0.17151  1
 Na  Na2  1  0.82849  0.17151  0.82849  1
 Na  Na3  1  0.67151  0.67151  0.67151  1
 Na  Na4  1  0.17151  0.17151  0.17151  1
 Na  Na5  1  0.32849  0.67151  0.32849  1
 Na  Na6  1  0.32849  0.32849  0.67151  1
 Na  Na7  1  0.17151  0.82849  0.82849  1
 Na  Na8  1  0.67151  0.32849  0.32849  1
 O  O1  1  0.57626  0.13302  0.84954  1
 O  O2  1  0.84954  0.42374  0.86698  1
 O  O3  1  0.13302  0.84954  0.57626  1
 O  O4  1  0.86698  0.15046  0.57626  1
 O  O5  1  0.86698  0.84954  0.42374  1
 O  O6  1  0.34954  0.36698  0.92374  1
 O  O7  1  0.42374  0.86698  0.84954  1
 O  O8  1  0.07626  0.65046  0.36698  1
 O  O9  1  0.92374  0.65046  0.63302  1
 O  O10  1  0.63302  0.07626  0.34954  1
 O  O11  1  0.63302  0.92374  0.65046  1
 O  O12  1  0.13302  0.15046  0.42374  1
 O  O13  1  0.65046  0.63302  0.92374  1
 O  O14  1  0.36698  0.92374  0.34954  1
 O  O15  1  0.84954  0.57626  0.13302  1
 O  O16  1  0.07626  0.34954  0.63302  1
 O  O17  1  0.92374  0.34954  0.36698  1
 O  O18  1  0.65046  0.36698  0.07626  1
 O  O19  1  0.34954  0.63302  0.07626  1
 O  O20  1  0.57626  0.86698  0.15046  1
 O  O21  1  0.15046  0.42374  0.13302  1
 O  O22  1  0.15046  0.57626  0.86698  1
 O  O23  1  0.36698  0.07626  0.65046  1
 O  O24  1  0.42374  0.13302  0.15046  1
 Si  Si1  1  0.25000  0.50000  0.00000  1
 Si  Si2  1  0.50000  0.00000  0.75000  1
 Si  Si3  1  0.50000  0.00000  0.25000  1
 Si  Si4  1  0.75000  0.50000  0.00000  1
 Si  Si5  1  0.00000  0.75000  0.50000  1
 Si  Si6  1  0.00000  0.25000  0.50000  1
