CIF file written using JARVIS-Tools package.
data_Re3As7
_symmetry_space_group_name_H-M  'Im-3m'
_cell_length_a       7.7035
_cell_length_b       7.7035
_cell_length_c       7.7035
_cell_angle_alpha    109.471
_cell_angle_beta     109.471
_cell_angle_gamma    109.471

_symmetry_Int_Tables_number  229
_chemical_formula_structural  Re3As7
_chemical_formula_sum  Re6As4
_cell_volume  351.91863160219805
_cell_formula_units_Z  2
loop_
  _symmetry_equiv_pos_site_id
 _symmetry_equiv_pos_as_xyz
 1  'x, y, z'
loop_
 _atom_site_type_symbol
 _atom_site_label
 _atom_site_symmetry_multiplicity
 _atom_site_fract_x
 _atom_site_fract_y
 _atom_site_fract_z
 _atom_site_fract_occupancy
 As  As1  1  0.00000  0.66818  -0.00000  1
 As  As2  1  0.75000  0.50000  0.25000  1
 As  As3  1  0.25000  0.50000  0.75000  1
 As  As4  1  0.75000  0.25000  0.50000  1
 As  As5  1  0.25000  0.75000  0.50000  1
 As  As6  1  0.50000  0.25000  0.75000  1
 As  As7  1  0.33182  0.33182  0.33182  1
 As  As8  1  0.33182  -0.00000  0.00000  1
 As  As9  1  0.50000  0.75000  0.25000  1
 As  As10  1  0.00000  0.00000  0.33182  1
 As  As11  1  -0.00000  -0.00000  0.66818  1
 As  As12  1  0.66818  0.00000  -0.00000  1
 As  As13  1  0.66818  0.66818  0.66818  1
 As  As14  1  -0.00000  0.33182  0.00000  1
 Re  Re1  1  0.34004  0.34004  -0.00000  1
 Re  Re2  1  -0.00000  0.34004  0.34004  1
 Re  Re3  1  0.34004  -0.00000  0.34004  1
 Re  Re4  1  0.65996  0.00000  0.65996  1
 Re  Re5  1  0.65996  0.65996  0.00000  1
 Re  Re6  1  0.00000  0.65996  0.65996  1
