CIF file written using JARVIS-Tools package.
data_Co2P
_symmetry_space_group_name_H-M  'Pnma'
_cell_length_a       3.5192
_cell_length_b       5.54574
_cell_length_c       6.60417
_cell_angle_alpha    90
_cell_angle_beta     90
_cell_angle_gamma    90

_symmetry_Int_Tables_number  62
_chemical_formula_structural  Co2P
_chemical_formula_sum  Co8P4
_cell_volume  128.89080888053275
_cell_formula_units_Z  4
loop_
  _symmetry_equiv_pos_site_id
 _symmetry_equiv_pos_as_xyz
 1  'x, y, z'
loop_
 _atom_site_type_symbol
 _atom_site_label
 _atom_site_symmetry_multiplicity
 _atom_site_fract_x
 _atom_site_fract_y
 _atom_site_fract_z
 _atom_site_fract_occupancy
 Co  Co1  1  0.75000  0.03142  0.66664  1
 Co  Co2  1  0.25000  0.96858  0.33336  1
 Co  Co3  1  0.75000  0.53142  0.83336  1
 Co  Co4  1  0.25000  0.46858  0.16664  1
 Co  Co5  1  0.25000  0.35636  0.56632  1
 Co  Co6  1  0.75000  0.64364  0.43368  1
 Co  Co7  1  0.25000  0.85636  0.93368  1
 Co  Co8  1  0.75000  0.14364  0.06632  1
 P  P1  1  0.25000  0.74906  0.62018  1
 P  P2  1  0.75000  0.25094  0.37982  1
 P  P3  1  0.25000  0.24906  0.87982  1
 P  P4  1  0.75000  0.75094  0.12018  1
