CIF file written using JARVIS-Tools package.
data_CrSbP2O8
_symmetry_space_group_name_H-M  'P2_1/m'
_cell_length_a       4.84138
_cell_length_b       5.78501
_cell_length_c       10.9553
_cell_angle_alpha    90
_cell_angle_beta     81.3101
_cell_angle_gamma    90

_symmetry_Int_Tables_number  11
_chemical_formula_structural  CrSbP2O8
_chemical_formula_sum  Cr2Sb2P4O6
_cell_volume  303.3067580246432
_cell_formula_units_Z  2
loop_
  _symmetry_equiv_pos_site_id
 _symmetry_equiv_pos_as_xyz
 1  'x, y, z'
loop_
 _atom_site_type_symbol
 _atom_site_label
 _atom_site_symmetry_multiplicity
 _atom_site_fract_x
 _atom_site_fract_y
 _atom_site_fract_z
 _atom_site_fract_occupancy
 Cr  Cr1  1  0.56328  0.25000  0.19868  1
 Cr  Cr2  1  0.43672  0.75000  0.80132  1
 O  O1  1  0.31620  0.25000  0.07387  1
 O  O2  1  0.30167  0.75000  0.10651  1
 O  O3  1  0.75491  0.96411  0.12431  1
 O  O4  1  0.69833  0.25000  0.89349  1
 O  O5  1  0.28360  0.04358  0.30951  1
 O  O6  1  0.28360  0.45642  0.30951  1
 O  O7  1  0.75491  0.53589  0.12431  1
 O  O8  1  0.91482  0.75000  0.48682  1
 O  O9  1  0.08518  0.25000  0.51318  1
 O  O10  1  0.18804  0.75000  0.66988  1
 O  O11  1  0.71640  0.95642  0.69049  1
 O  O12  1  0.71640  0.54358  0.69049  1
 O  O13  1  0.24509  0.46411  0.87569  1
 O  O14  1  0.24509  0.03589  0.87569  1
 O  O15  1  0.81196  0.25000  0.33012  1
 O  O16  1  0.68380  0.75000  0.92613  1
 P  P1  1  0.37867  0.25000  0.93312  1
 P  P2  1  0.90505  0.75000  0.62335  1
 P  P3  1  0.09495  0.25000  0.37665  1
 P  P4  1  0.62133  0.75000  0.06688  1
 Sb  Sb1  1  0.98006  0.25000  0.73403  1
 Sb  Sb2  1  0.01994  0.75000  0.26597  1
