CIF file written using JARVIS-Tools package.
data_DyTi2Ga4
_symmetry_space_group_name_H-M  'I4/mmm'
_cell_length_a       5.46325
_cell_length_b       5.48742
_cell_length_c       5.48742
_cell_angle_alpha    75.6526
_cell_angle_beta     60.1457
_cell_angle_gamma    60.1457

_symmetry_Int_Tables_number  139
_chemical_formula_structural  DyTi2Ga4
_chemical_formula_sum  DyTi2Ga4
_cell_volume  123.7427765326242
_cell_formula_units_Z  1
loop_
  _symmetry_equiv_pos_site_id
 _symmetry_equiv_pos_as_xyz
 1  'x, y, z'
loop_
 _atom_site_type_symbol
 _atom_site_label
 _atom_site_symmetry_multiplicity
 _atom_site_fract_x
 _atom_site_fract_y
 _atom_site_fract_z
 _atom_site_fract_occupancy
 Dy  Dy1  1  0.00000  0.00000  0.00000  1
 Ga  Ga1  1  0.30299  0.00000  0.39403  1
 Ga  Ga2  1  0.69701  0.00000  0.60597  1
 Ga  Ga3  1  0.69701  0.60597  0.00000  1
 Ga  Ga4  1  0.30299  0.39403  0.00000  1
 Ti  Ti1  1  0.25000  0.50000  0.50000  1
 Ti  Ti2  1  0.75000  0.50000  0.50000  1
