CIF file written using JARVIS-Tools package.
data_V5As3
_symmetry_space_group_name_H-M  'I4/mcm'
_cell_length_a       4.941
_cell_length_b       7.1518
_cell_length_c       7.1518
_cell_angle_alpha    83.1467
_cell_angle_beta     69.7914
_cell_angle_gamma    69.7915

_symmetry_Int_Tables_number  140
_chemical_formula_structural  V5As3
_chemical_formula_sum  V0As6
_cell_volume  222.56705322787164
_cell_formula_units_Z  2
loop_
  _symmetry_equiv_pos_site_id
 _symmetry_equiv_pos_as_xyz
 1  'x, y, z'
loop_
 _atom_site_type_symbol
 _atom_site_label
 _atom_site_symmetry_multiplicity
 _atom_site_fract_x
 _atom_site_fract_y
 _atom_site_fract_z
 _atom_site_fract_occupancy
 As  As1  1  0.83627  0.50000  0.82746  1
 As  As2  1  0.66373  0.17254  0.50000  1
 As  As3  1  0.33627  0.82746  0.50000  1
 As  As4  1  0.16373  0.50000  0.17254  1
 As  As5  1  0.75000  0.00000  -0.00000  1
 As  As6  1  0.25000  0.00000  -0.00000  1
 V  V1  1  0.57832  0.69328  0.15008  1
 V  V2  1  0.42168  0.30672  0.84992  1
 V  V3  1  0.72840  0.84992  0.69328  1
 V  V4  1  0.27160  0.15008  0.30672  1
 V  V5  1  0.92168  0.84992  0.30672  1
 V  V6  1  0.22840  0.69328  0.84992  1
 V  V7  1  0.25000  0.50000  0.50000  1
 V  V8  1  0.75000  0.50000  0.50000  1
 V  V9  1  0.07832  0.15008  0.69328  1
 V  V10  1  0.77160  0.30672  0.15008  1
