CIF file written using JARVIS-Tools package.
data_K3PS4
_symmetry_space_group_name_H-M  'Pnma'
_cell_length_a       8.98098
_cell_length_b       9.07817
_cell_length_c       10.4702
_cell_angle_alpha    90
_cell_angle_beta     90
_cell_angle_gamma    90

_symmetry_Int_Tables_number  62
_chemical_formula_structural  K3PS4
_chemical_formula_sum  K2P4S6
_cell_volume  853.6443166305676
_cell_formula_units_Z  4
loop_
  _symmetry_equiv_pos_site_id
 _symmetry_equiv_pos_as_xyz
 1  'x, y, z'
loop_
 _atom_site_type_symbol
 _atom_site_label
 _atom_site_symmetry_multiplicity
 _atom_site_fract_x
 _atom_site_fract_y
 _atom_site_fract_z
 _atom_site_fract_occupancy
 K  K1  1  0.64630  0.41445  0.25000  1
 K  K2  1  0.85370  0.91445  0.75000  1
 K  K3  1  0.14630  0.08555  0.25000  1
 K  K4  1  0.35370  0.58555  0.75000  1
 K  K5  1  0.45067  0.79748  0.04254  1
 K  K6  1  0.04933  0.29748  0.95746  1
 K  K7  1  0.95067  0.70252  0.45746  1
 K  K8  1  0.54933  0.20252  0.54254  1
 K  K9  1  0.54933  0.20252  0.95746  1
 K  K10  1  0.95067  0.70252  0.04254  1
 K  K11  1  0.04933  0.29748  0.54254  1
 K  K12  1  0.45067  0.79748  0.45746  1
 P  P1  1  0.72075  0.97970  0.25000  1
 P  P2  1  0.77925  0.47970  0.75000  1
 P  P3  1  0.22075  0.52030  0.25000  1
 P  P4  1  0.27925  0.02030  0.75000  1
 S  S1  1  0.66682  0.54108  0.58699  1
 S  S2  1  0.69771  0.75384  0.25000  1
 S  S3  1  0.80229  0.25384  0.75000  1
 S  S4  1  0.19771  0.74616  0.25000  1
 S  S5  1  0.30229  0.24616  0.75000  1
 S  S6  1  0.51222  0.07883  0.25000  1
 S  S7  1  0.01222  0.42117  0.25000  1
 S  S8  1  0.48778  0.92117  0.75000  1
 S  S9  1  0.66682  0.54108  0.91301  1
 S  S10  1  0.33318  0.45892  0.41301  1
 S  S11  1  0.16682  0.95892  0.58699  1
 S  S12  1  0.16682  0.95892  0.91301  1
 S  S13  1  0.33318  0.45892  0.08699  1
 S  S14  1  0.98778  0.57883  0.75000  1
 S  S15  1  0.83318  0.04108  0.08699  1
 S  S16  1  0.83318  0.04108  0.41301  1
