CIF file written using JARVIS-Tools package.
data_Te6MoW3Se2
_symmetry_space_group_name_H-M  'P3m1'
_cell_length_a       3.50484
_cell_length_b       3.50486
_cell_length_c       37.698
_cell_angle_alpha    90
_cell_angle_beta     89.999
_cell_angle_gamma    120

_symmetry_Int_Tables_number  156
_chemical_formula_structural  Te6MoW3Se2
_chemical_formula_sum  Te6MoW3Se2
_cell_volume  401.04036935528165
_cell_formula_units_Z  1
loop_
  _symmetry_equiv_pos_site_id
 _symmetry_equiv_pos_as_xyz
 1  'x, y, z'
loop_
 _atom_site_type_symbol
 _atom_site_label
 _atom_site_symmetry_multiplicity
 _atom_site_fract_x
 _atom_site_fract_y
 _atom_site_fract_z
 _atom_site_fract_occupancy
 Mo  Mo1  1  0.66666  0.33332  0.27755  1
 Se  Se1  1  0.66666  0.33332  0.05373  1
 Se  Se2  1  0.66665  0.33331  0.13977  1
 Te  Te1  1  0.33331  0.66664  0.32624  1
 Te  Te2  1  0.33331  0.66666  0.70883  1
 Te  Te3  1  0.66668  0.33333  0.41973  1
 Te  Te4  1  0.66668  0.33337  0.51755  1
 Te  Te5  1  0.33333  0.66664  0.22887  1
 Te  Te6  1  0.33337  0.66673  0.61109  1
 W  W1  1  0.33332  0.66666  0.09671  1
 W  W2  1  0.33334  0.66667  0.46865  1
 W  W3  1  0.66668  0.33336  0.66001  1
