CIF file written using JARVIS-Tools package.
data_Na9ZrP4ClO16
_symmetry_space_group_name_H-M  'P1'
_cell_length_a       5.38733
_cell_length_b       9.07299
_cell_length_c       9.15851
_cell_angle_alpha    111.118
_cell_angle_beta     91.5879
_cell_angle_gamma    90.7208

_symmetry_Int_Tables_number  1
_chemical_formula_structural  Na9ZrP4ClO16
_chemical_formula_sum  Na9ZrP4ClO6
_cell_volume  417.31280562584004
_cell_formula_units_Z  1
loop_
  _symmetry_equiv_pos_site_id
 _symmetry_equiv_pos_as_xyz
 1  'x, y, z'
loop_
 _atom_site_type_symbol
 _atom_site_label
 _atom_site_symmetry_multiplicity
 _atom_site_fract_x
 _atom_site_fract_y
 _atom_site_fract_z
 _atom_site_fract_occupancy
 Cl  Cl1  1  0.01278  0.50458  0.49117  1
 Na  Na1  1  0.53267  0.64066  0.40721  1
 Na  Na2  1  0.43964  0.97961  0.37476  1
 Na  Na3  1  0.46209  0.56083  0.02488  1
 Na  Na4  1  0.05518  0.83406  0.57374  1
 Na  Na5  1  0.45598  0.35780  0.59471  1
 Na  Na6  1  0.93371  0.18348  0.40692  1
 Na  Na7  1  0.95116  0.56077  0.81793  1
 Na  Na8  1  0.04114  0.43275  0.14749  1
 Na  Na9  1  0.52958  0.09993  0.78357  1
 O  O1  1  0.79082  0.83557  0.36965  1
 O  O2  1  0.67672  0.87707  0.91864  1
 O  O3  1  0.21336  0.80329  0.87425  1
 O  O4  1  0.98595  0.06879  0.79920  1
 O  O5  1  0.51344  0.21332  0.33487  1
 O  O6  1  0.79754  0.20168  0.11764  1
 O  O7  1  0.86915  0.65068  0.08804  1
 O  O8  1  0.02589  0.94258  0.19649  1
 O  O9  1  0.47286  0.81510  0.65435  1
 O  O10  1  0.53210  0.59682  0.77458  1
 O  O11  1  0.21229  0.13405  0.59438  1
 O  O12  1  0.17130  0.34829  0.86308  1
 O  O13  1  0.33599  0.13605  0.05739  1
 O  O14  1  0.22523  0.73918  0.28614  1
 O  O15  1  0.78867  0.25087  0.68003  1
 O  O16  1  0.48304  0.41596  0.19621  1
 P  P1  1  0.97226  0.78550  0.23425  1
 P  P2  1  0.52838  0.24610  0.18267  1
 P  P3  1  0.47699  0.76792  0.79888  1
 P  P4  1  0.04031  0.20702  0.73447  1
 Zr  Zr1  1  0.00675  0.00069  0.99741  1
