CIF file written using JARVIS-Tools package.
data_MgSi2
_symmetry_space_group_name_H-M  'Imma'
_cell_length_a       3.91737
_cell_length_b       5.59088
_cell_length_c       5.59088
_cell_angle_alpha    71.5702
_cell_angle_beta     69.4921
_cell_angle_gamma    69.4921

_symmetry_Int_Tables_number  74
_chemical_formula_structural  MgSi2
_chemical_formula_sum  Mg2Si4
_cell_volume  104.77709032252369
_cell_formula_units_Z  2
loop_
  _symmetry_equiv_pos_site_id
 _symmetry_equiv_pos_as_xyz
 1  'x, y, z'
loop_
 _atom_site_type_symbol
 _atom_site_label
 _atom_site_symmetry_multiplicity
 _atom_site_fract_x
 _atom_site_fract_y
 _atom_site_fract_z
 _atom_site_fract_occupancy
 Mg  Mg1  1  0.41685  0.33315  0.83315  1
 Mg  Mg2  1  0.58315  0.66685  0.16685  1
 Si  Si1  1  0.85331  0.08841  0.20497  1
 Si  Si2  1  0.14669  0.91159  0.79503  1
 Si  Si3  1  0.85331  0.70497  0.58841  1
 Si  Si4  1  0.14669  0.29503  0.41159  1
