CIF file written using JARVIS-Tools package.
data_NaVO3
_symmetry_space_group_name_H-M  'Pnma'
_cell_length_a       3.6209
_cell_length_b       5.30468
_cell_length_c       14.3873
_cell_angle_alpha    90
_cell_angle_beta     90
_cell_angle_gamma    90

_symmetry_Int_Tables_number  62
_chemical_formula_structural  NaVO3
_chemical_formula_sum  Na4V4O2
_cell_volume  276.3474806603819
_cell_formula_units_Z  4
loop_
  _symmetry_equiv_pos_site_id
 _symmetry_equiv_pos_as_xyz
 1  'x, y, z'
loop_
 _atom_site_type_symbol
 _atom_site_label
 _atom_site_symmetry_multiplicity
 _atom_site_fract_x
 _atom_site_fract_y
 _atom_site_fract_z
 _atom_site_fract_occupancy
 Na  Na1  1  0.25000  0.86905  0.33010  1
 Na  Na2  1  0.75000  0.13095  0.66990  1
 Na  Na3  1  0.75000  0.36905  0.16990  1
 Na  Na4  1  0.25000  0.63095  0.83010  1
 O  O1  1  0.25000  0.43221  0.68689  1
 O  O2  1  0.25000  0.06779  0.18689  1
 O  O3  1  0.25000  0.49406  0.44758  1
 O  O4  1  0.75000  0.50594  0.55242  1
 O  O5  1  0.75000  0.10545  0.39510  1
 O  O6  1  0.75000  -0.00594  0.05242  1
 O  O7  1  0.75000  0.56779  0.31311  1
 O  O8  1  0.25000  0.89455  0.60490  1
 O  O9  1  0.75000  0.39455  0.89510  1
 O  O10  1  0.25000  0.60545  0.10490  1
 O  O11  1  0.75000  0.93221  0.81311  1
 O  O12  1  0.25000  0.00594  0.94758  1
 V  V1  1  0.75000  0.41300  0.41543  1
 V  V2  1  0.25000  0.58700  0.58457  1
 V  V3  1  0.25000  0.91300  0.08457  1
 V  V4  1  0.75000  0.08700  0.91543  1
