CIF file written using JARVIS-Tools package.
data_UGeIr
_symmetry_space_group_name_H-M  'Pnma'
_cell_length_a       4.33232
_cell_length_b       6.71214
_cell_length_c       7.68655
_cell_angle_alpha    90
_cell_angle_beta     90
_cell_angle_gamma    90

_symmetry_Int_Tables_number  62
_chemical_formula_structural  UGeIr
_chemical_formula_sum  U4Ge4Ir4
_cell_volume  223.5181864332633
_cell_formula_units_Z  4
loop_
  _symmetry_equiv_pos_site_id
 _symmetry_equiv_pos_as_xyz
 1  'x, y, z'
loop_
 _atom_site_type_symbol
 _atom_site_label
 _atom_site_symmetry_multiplicity
 _atom_site_fract_x
 _atom_site_fract_y
 _atom_site_fract_z
 _atom_site_fract_occupancy
 Ge  Ge1  1  0.25000  0.81872  0.91380  1
 Ge  Ge2  1  0.75000  0.18128  0.08620  1
 Ge  Ge3  1  0.25000  0.31872  0.58620  1
 Ge  Ge4  1  0.75000  0.68128  0.41380  1
 Ir  Ir1  1  0.75000  0.77123  0.08533  1
 Ir  Ir2  1  0.25000  0.22877  0.91467  1
 Ir  Ir3  1  0.75000  0.27123  0.41467  1
 Ir  Ir4  1  0.25000  0.72877  0.58533  1
 U  U1  1  0.25000  0.49404  0.20123  1
 U  U2  1  0.75000  0.50596  0.79877  1
 U  U3  1  0.25000  0.99404  0.29877  1
 U  U4  1  0.75000  0.00596  0.70123  1
