CIF file written using JARVIS-Tools package.
data_NbS2Cl2
_symmetry_space_group_name_H-M  'C2/m'
_cell_length_a       6.29751
_cell_length_b       6.42709
_cell_length_c       6.68379
_cell_angle_alpha    79.8544
_cell_angle_beta     68.9276
_cell_angle_gamma    60.6647

_symmetry_Int_Tables_number  12
_chemical_formula_structural  NbS2Cl2
_chemical_formula_sum  Nb2S4Cl4
_cell_volume  220.0633924971668
_cell_formula_units_Z  2
loop_
  _symmetry_equiv_pos_site_id
 _symmetry_equiv_pos_as_xyz
 1  'x, y, z'
loop_
 _atom_site_type_symbol
 _atom_site_label
 _atom_site_symmetry_multiplicity
 _atom_site_fract_x
 _atom_site_fract_y
 _atom_site_fract_z
 _atom_site_fract_occupancy
 Cl  Cl1  1  0.01514  0.41451  0.23255  1
 Cl  Cl2  1  0.57035  0.41451  0.76745  1
 Cl  Cl3  1  0.98486  0.58549  0.76745  1
 Cl  Cl4  1  0.42965  0.58549  0.23255  1
 Nb  Nb1  1  0.87021  0.25957  0.00000  1
 Nb  Nb2  1  0.12979  0.74043  -0.00000  1
 S  S1  1  0.84620  0.00000  0.32876  1
 S  S2  1  0.15380  -0.00000  0.67124  1
 S  S3  1  0.34690  0.00000  0.85675  1
 S  S4  1  0.65310  -0.00000  0.14325  1
