CIF file written using JARVIS-Tools package.
data_Sr2CuI2O2
_symmetry_space_group_name_H-M  'I4/mmm'
_cell_length_a       4.05343
_cell_length_b       4.05342
_cell_length_c       10.3438
_cell_angle_alpha    101.299
_cell_angle_beta     101.299
_cell_angle_gamma    90

_symmetry_Int_Tables_number  139
_chemical_formula_structural  Sr2CuI2O2
_chemical_formula_sum  Sr2CuI2O2
_cell_volume  163.29616509322014
_cell_formula_units_Z  1
loop_
  _symmetry_equiv_pos_site_id
 _symmetry_equiv_pos_as_xyz
 1  'x, y, z'
loop_
 _atom_site_type_symbol
 _atom_site_label
 _atom_site_symmetry_multiplicity
 _atom_site_fract_x
 _atom_site_fract_y
 _atom_site_fract_z
 _atom_site_fract_occupancy
 Cu  Cu1  1  0.00001  0.00001  0.00003  1
 I  I1  1  0.17097  0.17097  0.34193  1
 I  I2  1  0.82902  0.82902  0.65804  1
 O  O1  1  0.50000  0.00000  0.00000  1
 O  O2  1  0.00000  0.50000  0.00000  1
 Sr  Sr1  1  0.41618  0.41618  0.83237  1
 Sr  Sr2  1  0.58381  0.58381  0.16762  1
