CIF file written using JARVIS-Tools package.
data_RbH2OF
_symmetry_space_group_name_H-M  'Pnma'
_cell_length_a       4.16962
_cell_length_b       7.95764
_cell_length_c       8.36384
_cell_angle_alpha    90
_cell_angle_beta     90
_cell_angle_gamma    90

_symmetry_Int_Tables_number  62
_chemical_formula_structural  RbH2OF
_chemical_formula_sum  Rb4H8O4F4
_cell_volume  277.51536047961486
_cell_formula_units_Z  4
loop_
  _symmetry_equiv_pos_site_id
 _symmetry_equiv_pos_as_xyz
 1  'x, y, z'
loop_
 _atom_site_type_symbol
 _atom_site_label
 _atom_site_symmetry_multiplicity
 _atom_site_fract_x
 _atom_site_fract_y
 _atom_site_fract_z
 _atom_site_fract_occupancy
 F  F1  1  0.25000  0.39802  0.85985  1
 F  F2  1  0.75000  0.10198  0.35985  1
 F  F3  1  0.75000  0.60198  0.14015  1
 F  F4  1  0.25000  0.89802  0.64015  1
 H  H1  1  0.44124  0.53161  0.23551  1
 H  H2  1  0.55876  0.96839  0.73551  1
 H  H3  1  0.94124  0.46839  0.76449  1
 H  H4  1  0.05876  0.03161  0.26449  1
 H  H5  1  0.44124  0.03161  0.26449  1
 H  H6  1  0.05876  0.53161  0.23551  1
 H  H7  1  0.55876  0.46839  0.76449  1
 H  H8  1  0.94124  0.96839  0.73551  1
 O  O1  1  0.75000  0.50648  0.70163  1
 O  O2  1  0.25000  0.49352  0.29837  1
 O  O3  1  0.75000  0.00648  0.79837  1
 O  O4  1  0.25000  0.99352  0.20163  1
 Rb  Rb1  1  0.25000  0.24379  0.54607  1
 Rb  Rb2  1  0.75000  0.75621  0.45393  1
 Rb  Rb3  1  0.25000  0.74379  0.95393  1
 Rb  Rb4  1  0.75000  0.25621  0.04607  1
