CIF file written using JARVIS-Tools package.
data_AgHg2PO4
_symmetry_space_group_name_H-M  'Pbam'
_cell_length_a       6.29341
_cell_length_b       8.68822
_cell_length_c       9.31436
_cell_angle_alpha    90
_cell_angle_beta     90
_cell_angle_gamma    90

_symmetry_Int_Tables_number  55
_chemical_formula_structural  AgHg2PO4
_chemical_formula_sum  Ag4Hg8P4O6
_cell_volume  509.29550392840304
_cell_formula_units_Z  4
loop_
  _symmetry_equiv_pos_site_id
 _symmetry_equiv_pos_as_xyz
 1  'x, y, z'
loop_
 _atom_site_type_symbol
 _atom_site_label
 _atom_site_symmetry_multiplicity
 _atom_site_fract_x
 _atom_site_fract_y
 _atom_site_fract_z
 _atom_site_fract_occupancy
 Ag  Ag1  1  0.00000  0.52641  0.15197  1
 Ag  Ag2  1  0.00000  0.02641  0.34803  1
 Ag  Ag3  1  0.00000  0.97359  0.65197  1
 Ag  Ag4  1  0.00000  0.47359  0.84803  1
 Hg  Hg1  1  0.78787  0.75338  0.47235  1
 Hg  Hg2  1  0.21213  0.25338  0.02765  1
 Hg  Hg3  1  0.21213  0.24662  0.52765  1
 Hg  Hg4  1  0.21213  0.74662  0.97235  1
 Hg  Hg5  1  0.78787  0.25338  0.02765  1
 Hg  Hg6  1  0.78787  0.74662  0.97235  1
 Hg  Hg7  1  0.21213  0.75338  0.47235  1
 Hg  Hg8  1  0.78787  0.24662  0.52765  1
 O  O1  1  0.50000  0.88471  0.36967  1
 O  O2  1  0.70799  0.55418  0.29820  1
 O  O3  1  0.29201  0.05418  0.20180  1
 O  O4  1  0.50000  0.11529  0.63033  1
 O  O5  1  0.50000  0.83316  0.09777  1
 O  O6  1  0.50000  0.16684  0.90223  1
 O  O7  1  0.70799  0.44582  0.70180  1
 O  O8  1  0.29201  0.94582  0.79820  1
 O  O9  1  0.70799  0.94582  0.79820  1
 O  O10  1  0.29201  0.44582  0.70180  1
 O  O11  1  0.29201  0.55418  0.29820  1
 O  O12  1  0.70799  0.05418  0.20180  1
 O  O13  1  0.50000  0.38471  0.13033  1
 O  O14  1  0.50000  0.66684  0.59777  1
 O  O15  1  0.50000  0.33316  0.40223  1
 O  O16  1  0.50000  0.61529  0.86967  1
 P  P1  1  0.50000  0.45994  0.28187  1
 P  P2  1  0.50000  0.95994  0.21813  1
 P  P3  1  0.50000  0.04006  0.78187  1
 P  P4  1  0.50000  0.54006  0.71813  1
