CIF file written using JARVIS-Tools package.
data_Al5Rh2
_symmetry_space_group_name_H-M  'P6_3/mmc'
_cell_length_a       7.97159
_cell_length_b       7.97159
_cell_length_c       7.90148
_cell_angle_alpha    90
_cell_angle_beta     90
_cell_angle_gamma    120

_symmetry_Int_Tables_number  194
_chemical_formula_structural  Al5Rh2
_chemical_formula_sum  Al20Rh8
_cell_volume  434.83929408804784
_cell_formula_units_Z  4
loop_
  _symmetry_equiv_pos_site_id
 _symmetry_equiv_pos_as_xyz
 1  'x, y, z'
loop_
 _atom_site_type_symbol
 _atom_site_label
 _atom_site_symmetry_multiplicity
 _atom_site_fract_x
 _atom_site_fract_y
 _atom_site_fract_z
 _atom_site_fract_occupancy
 Al  Al1  1  0.00000  0.00000  0.00000  1
 Al  Al2  1  0.05676  0.52838  0.75000  1
 Al  Al3  1  0.52838  0.47162  0.25000  1
 Al  Al4  1  0.47162  0.94324  0.75000  1
 Al  Al5  1  0.00000  0.00000  0.50000  1
 Al  Al6  1  0.94324  0.47162  0.25000  1
 Al  Al7  1  0.52838  0.05676  0.25000  1
 Al  Al8  1  0.80753  0.61505  0.55863  1
 Al  Al9  1  0.19247  0.80753  0.05863  1
 Al  Al10  1  0.80753  0.19247  0.94137  1
 Al  Al11  1  0.47162  0.52838  0.75000  1
 Al  Al12  1  0.61505  0.80753  0.05863  1
 Al  Al13  1  0.38495  0.19247  0.55863  1
 Al  Al14  1  0.19247  0.80753  0.44137  1
 Al  Al15  1  0.61505  0.80753  0.44137  1
 Al  Al16  1  0.38495  0.19247  0.94137  1
 Al  Al17  1  0.19247  0.38495  0.44137  1
 Al  Al18  1  0.80753  0.61505  0.94137  1
 Al  Al19  1  0.19247  0.38495  0.05863  1
 Al  Al20  1  0.80753  0.19247  0.55863  1
 Rh  Rh1  1  0.73864  0.86932  0.75000  1
 Rh  Rh2  1  0.13068  0.26136  0.75000  1
 Rh  Rh3  1  0.33333  0.66667  0.25000  1
 Rh  Rh4  1  0.66667  0.33333  0.75000  1
 Rh  Rh5  1  0.13068  0.86932  0.75000  1
 Rh  Rh6  1  0.86932  0.73864  0.25000  1
 Rh  Rh7  1  0.26136  0.13068  0.25000  1
 Rh  Rh8  1  0.86932  0.13068  0.25000  1
