CIF file written using JARVIS-Tools package.
data_Mg2PHO5
_symmetry_space_group_name_H-M  'Pnma'
_cell_length_a       6.17667
_cell_length_b       7.42015
_cell_length_c       8.28965
_cell_angle_alpha    90
_cell_angle_beta     90
_cell_angle_gamma    90

_symmetry_Int_Tables_number  62
_chemical_formula_structural  Mg2PHO5
_chemical_formula_sum  Mg8P4H4O20
_cell_volume  379.9297701162848
_cell_formula_units_Z  4
loop_
  _symmetry_equiv_pos_site_id
 _symmetry_equiv_pos_as_xyz
 1  'x, y, z'
loop_
 _atom_site_type_symbol
 _atom_site_label
 _atom_site_symmetry_multiplicity
 _atom_site_fract_x
 _atom_site_fract_y
 _atom_site_fract_z
 _atom_site_fract_occupancy
 H  H1  1  0.25000  0.76788  0.44723  1
 H  H2  1  0.75000  0.23212  0.55277  1
 H  H3  1  0.25000  0.73212  0.94723  1
 H  H4  1  0.75000  0.26788  0.05277  1
 Mg  Mg1  1  0.25000  0.57759  0.17780  1
 Mg  Mg2  1  0.75000  0.42241  0.82220  1
 Mg  Mg3  1  0.75000  0.07759  0.32220  1
 Mg  Mg4  1  0.25000  0.92241  0.67780  1
 Mg  Mg5  1  0.50000  0.00000  0.00000  1
 Mg  Mg6  1  0.00000  0.00000  0.00000  1
 Mg  Mg7  1  0.50000  0.50000  0.50000  1
 Mg  Mg8  1  0.00000  0.50000  0.50000  1
 O  O1  1  0.75000  0.18651  0.95940  1
 O  O2  1  0.25000  0.05992  0.48004  1
 O  O3  1  0.75000  0.94008  0.51996  1
 O  O4  1  0.75000  0.55992  0.01996  1
 O  O5  1  0.25000  0.68651  0.54060  1
 O  O6  1  0.95439  0.87552  0.77834  1
 O  O7  1  0.75000  0.31349  0.45940  1
 O  O8  1  0.75000  0.87293  0.13437  1
 O  O9  1  0.25000  0.81349  0.04060  1
 O  O10  1  0.25000  0.44008  0.98004  1
 O  O11  1  0.04561  0.37552  0.72166  1
 O  O12  1  0.75000  0.62707  0.63437  1
 O  O13  1  0.04561  0.12448  0.22166  1
 O  O14  1  0.45439  0.37552  0.72166  1
 O  O15  1  0.95439  0.62448  0.27834  1
 O  O16  1  0.25000  0.37293  0.36563  1
 O  O17  1  0.45439  0.12448  0.22166  1
 O  O18  1  0.54561  0.62448  0.27834  1
 O  O19  1  0.54561  0.87552  0.77834  1
 O  O20  1  0.25000  0.12707  0.86563  1
 P  P1  1  0.25000  0.16623  0.32372  1
 P  P2  1  0.75000  0.83377  0.67628  1
 P  P3  1  0.75000  0.66623  0.17628  1
 P  P4  1  0.25000  0.33377  0.82372  1
