CIF file written using JARVIS-Tools package.
data_Sn3As4
_symmetry_space_group_name_H-M  'P-43m'
_cell_length_a       5.85136
_cell_length_b       5.85136
_cell_length_c       5.85151
_cell_angle_alpha    90
_cell_angle_beta     90
_cell_angle_gamma    90

_symmetry_Int_Tables_number  215
_chemical_formula_structural  Sn3As4
_chemical_formula_sum  Sn3As4
_cell_volume  200.34625132973736
_cell_formula_units_Z  1
loop_
  _symmetry_equiv_pos_site_id
 _symmetry_equiv_pos_as_xyz
 1  'x, y, z'
loop_
 _atom_site_type_symbol
 _atom_site_label
 _atom_site_symmetry_multiplicity
 _atom_site_fract_x
 _atom_site_fract_y
 _atom_site_fract_z
 _atom_site_fract_occupancy
 As  As1  1  0.28793  0.28793  0.78792  1
 As  As2  1  0.71207  0.71207  0.78792  1
 As  As3  1  0.71207  0.28793  0.21208  1
 As  As4  1  0.28793  0.71207  0.21208  1
 Sn  Sn1  1  0.00000  0.00000  0.00000  1
 Sn  Sn2  1  0.00000  0.50000  0.50000  1
 Sn  Sn3  1  0.50000  0.00000  0.50000  1
