CIF file written using JARVIS-Tools package.
data_RbMgH3
_symmetry_space_group_name_H-M  'P6_3/mmc'
_cell_length_a       5.89102
_cell_length_b       5.89102
_cell_length_c       14.2937
_cell_angle_alpha    90
_cell_angle_beta     90
_cell_angle_gamma    120

_symmetry_Int_Tables_number  194
_chemical_formula_structural  RbMgH3
_chemical_formula_sum  Rb6Mg6H8
_cell_volume  429.59238434283327
_cell_formula_units_Z  6
loop_
  _symmetry_equiv_pos_site_id
 _symmetry_equiv_pos_as_xyz
 1  'x, y, z'
loop_
 _atom_site_type_symbol
 _atom_site_label
 _atom_site_symmetry_multiplicity
 _atom_site_fract_x
 _atom_site_fract_y
 _atom_site_fract_z
 _atom_site_fract_occupancy
 H  H1  1  0.16607  0.83393  0.92015  1
 H  H2  1  0.52275  0.04549  0.25000  1
 H  H3  1  0.04549  0.52275  0.75000  1
 H  H4  1  0.33214  0.16607  0.42015  1
 H  H5  1  0.52275  0.47725  0.25000  1
 H  H6  1  0.95451  0.47725  0.25000  1
 H  H7  1  0.47725  0.95451  0.75000  1
 H  H8  1  0.33214  0.16607  0.07985  1
 H  H9  1  0.47725  0.52275  0.75000  1
 H  H10  1  0.83393  0.16607  0.07985  1
 H  H11  1  0.16607  0.33214  0.92015  1
 H  H12  1  0.66786  0.83393  0.57985  1
 H  H13  1  0.83393  0.66786  0.42015  1
 H  H14  1  0.66786  0.83393  0.92015  1
 H  H15  1  0.16607  0.33214  0.57985  1
 H  H16  1  0.83393  0.16607  0.42015  1
 H  H17  1  0.16607  0.83393  0.57985  1
 H  H18  1  0.83393  0.66786  0.07985  1
 Mg  Mg1  1  0.33333  0.66667  0.84617  1
 Mg  Mg2  1  0.66667  0.33333  0.15383  1
 Mg  Mg3  1  0.33333  0.66667  0.65383  1
 Mg  Mg4  1  0.66667  0.33333  0.34617  1
 Mg  Mg5  1  0.00000  0.00000  0.50000  1
 Mg  Mg6  1  0.00000  0.00000  0.00000  1
 Rb  Rb1  1  0.66667  0.33333  0.90396  1
 Rb  Rb2  1  0.33333  0.66667  0.40396  1
 Rb  Rb3  1  0.33333  0.66667  0.09604  1
 Rb  Rb4  1  0.66667  0.33333  0.59604  1
 Rb  Rb5  1  0.00000  0.00000  0.75000  1
 Rb  Rb6  1  0.00000  0.00000  0.25000  1
