CIF file written using JARVIS-Tools package.
data_Ca2AgWO6
_symmetry_space_group_name_H-M  'P2_1/c'
_cell_length_a       5.58808
_cell_length_b       5.9668
_cell_length_c       9.38385
_cell_angle_alpha    90
_cell_angle_beta     125.379
_cell_angle_gamma    90

_symmetry_Int_Tables_number  14
_chemical_formula_structural  Ca2AgWO6
_chemical_formula_sum  Ca4Ag2W2O2
_cell_volume  255.10705559704277
_cell_formula_units_Z  2
loop_
  _symmetry_equiv_pos_site_id
 _symmetry_equiv_pos_as_xyz
 1  'x, y, z'
loop_
 _atom_site_type_symbol
 _atom_site_label
 _atom_site_symmetry_multiplicity
 _atom_site_fract_x
 _atom_site_fract_y
 _atom_site_fract_z
 _atom_site_fract_occupancy
 Ag  Ag1  1  0.50000  0.00000  0.00000  1
 Ag  Ag2  1  0.50000  0.50000  0.50000  1
 Ca  Ca1  1  0.26852  0.06853  0.25304  1
 Ca  Ca2  1  0.73148  0.56853  0.24696  1
 Ca  Ca3  1  0.73148  0.93147  0.74696  1
 Ca  Ca4  1  0.26852  0.43147  0.75304  1
 O  O1  1  0.77940  0.27628  0.43157  1
 O  O2  1  0.12104  0.05391  0.73977  1
 O  O3  1  0.22060  0.72372  0.56843  1
 O  O4  1  0.77940  0.22372  0.93157  1
 O  O5  1  0.22060  0.77628  0.06843  1
 O  O6  1  0.65994  0.66252  0.94872  1
 O  O7  1  0.12104  0.44609  0.23977  1
 O  O8  1  0.34006  0.33748  0.05128  1
 O  O9  1  0.34006  0.16252  0.55128  1
 O  O10  1  0.87896  0.94609  0.26023  1
 O  O11  1  0.65994  0.83748  0.44872  1
 O  O12  1  0.87896  0.55391  0.76023  1
 W  W1  1  0.00000  0.50000  0.00000  1
 W  W2  1  0.00000  0.00000  0.50000  1
