CIF file written using JARVIS-Tools package.
data_YbNiSn
_symmetry_space_group_name_H-M  'Pnma'
_cell_length_a       4.43096
_cell_length_b       7.09452
_cell_length_c       7.65864
_cell_angle_alpha    90
_cell_angle_beta     90
_cell_angle_gamma    90

_symmetry_Int_Tables_number  62
_chemical_formula_structural  YbNiSn
_chemical_formula_sum  Yb4Ni4Sn4
_cell_volume  240.7533413391735
_cell_formula_units_Z  4
loop_
  _symmetry_equiv_pos_site_id
 _symmetry_equiv_pos_as_xyz
 1  'x, y, z'
loop_
 _atom_site_type_symbol
 _atom_site_label
 _atom_site_symmetry_multiplicity
 _atom_site_fract_x
 _atom_site_fract_y
 _atom_site_fract_z
 _atom_site_fract_occupancy
 Ni  Ni1  1  0.75000  0.28906  0.89409  1
 Ni  Ni2  1  0.25000  0.21094  0.39409  1
 Ni  Ni3  1  0.75000  0.78906  0.60591  1
 Ni  Ni4  1  0.25000  0.71094  0.10591  1
 Sn  Sn1  1  0.25000  0.83163  0.42553  1
 Sn  Sn2  1  0.75000  0.66837  0.92553  1
 Sn  Sn3  1  0.25000  0.33163  0.07447  1
 Sn  Sn4  1  0.75000  0.16837  0.57447  1
 Yb  Yb1  1  0.25000  0.97487  0.81549  1
 Yb  Yb2  1  0.75000  0.02513  0.18451  1
 Yb  Yb3  1  0.25000  0.47487  0.68451  1
 Yb  Yb4  1  0.75000  0.52513  0.31549  1
