CIF file written using JARVIS-Tools package.
data_BaPb2C2O6F2
_symmetry_space_group_name_H-M  'R-3m'
_cell_length_a       8.31907
_cell_length_b       8.31907
_cell_length_c       8.31907
_cell_angle_alpha    36.5447
_cell_angle_beta     36.5447
_cell_angle_gamma    36.5448

_symmetry_Int_Tables_number  166
_chemical_formula_structural  BaPb2C2O6F2
_chemical_formula_sum  BaPb2C2O6F2
_cell_volume  182.75860756202232
_cell_formula_units_Z  1
loop_
  _symmetry_equiv_pos_site_id
 _symmetry_equiv_pos_as_xyz
 1  'x, y, z'
loop_
 _atom_site_type_symbol
 _atom_site_label
 _atom_site_symmetry_multiplicity
 _atom_site_fract_x
 _atom_site_fract_y
 _atom_site_fract_z
 _atom_site_fract_occupancy
 Ba  Ba1  1  0.00000  0.00000  0.00000  1
 C  C1  1  0.43116  0.43116  0.43116  1
 C  C2  1  0.56884  0.56884  0.56884  1
 F  F1  1  0.31136  0.31136  0.31136  1
 F  F2  1  0.68864  0.68864  0.68864  1
 O  O1  1  0.71918  0.28860  0.28860  1
 O  O2  1  0.28082  0.71140  0.71140  1
 O  O3  1  0.28860  0.28860  0.71918  1
 O  O4  1  0.71140  0.71140  0.28082  1
 O  O5  1  0.71140  0.28082  0.71140  1
 O  O6  1  0.28860  0.71918  0.28860  1
 Pb  Pb1  1  0.21448  0.21448  0.21448  1
 Pb  Pb2  1  0.78552  0.78552  0.78552  1
