CIF file written using JARVIS-Tools package.
data_LiNdGeO4
_symmetry_space_group_name_H-M  'Pbcn'
_cell_length_a       5.14474
_cell_length_b       5.42351
_cell_length_c       12.0156
_cell_angle_alpha    90
_cell_angle_beta     90
_cell_angle_gamma    90

_symmetry_Int_Tables_number  60
_chemical_formula_structural  LiNdGeO4
_chemical_formula_sum  Li4Nd4Ge4O6
_cell_volume  335.26662167255904
_cell_formula_units_Z  4
loop_
  _symmetry_equiv_pos_site_id
 _symmetry_equiv_pos_as_xyz
 1  'x, y, z'
loop_
 _atom_site_type_symbol
 _atom_site_label
 _atom_site_symmetry_multiplicity
 _atom_site_fract_x
 _atom_site_fract_y
 _atom_site_fract_z
 _atom_site_fract_occupancy
 Ge  Ge1  1  0.00000  0.75000  0.39014  1
 Ge  Ge2  1  0.50000  0.75000  0.89014  1
 Ge  Ge3  1  0.50000  0.25000  0.10986  1
 Ge  Ge4  1  0.00000  0.25000  0.60986  1
 Li  Li1  1  0.50000  0.25000  0.73487  1
 Li  Li2  1  0.00000  0.25000  0.23487  1
 Li  Li3  1  0.00000  0.75000  0.76513  1
 Li  Li4  1  0.50000  0.75000  0.26513  1
 Nd  Nd1  1  0.50000  0.75000  0.61350  1
 Nd  Nd2  1  0.00000  0.25000  0.88650  1
 Nd  Nd3  1  0.00000  0.75000  0.11350  1
 Nd  Nd4  1  0.50000  0.25000  0.38650  1
 O  O1  1  0.32232  0.45356  0.20306  1
 O  O2  1  0.24935  0.58307  0.95785  1
 O  O3  1  0.74935  0.41693  0.54215  1
 O  O4  1  0.67768  0.54644  0.79694  1
 O  O5  1  0.67768  0.04644  0.20306  1
 O  O6  1  0.82232  0.04644  0.70306  1
 O  O7  1  0.25065  0.58307  0.45785  1
 O  O8  1  0.75065  0.91693  0.95785  1
 O  O9  1  0.82232  0.54644  0.29694  1
 O  O10  1  0.25065  0.08307  0.54215  1
 O  O11  1  0.24935  0.08307  0.04215  1
 O  O12  1  0.17768  0.95356  0.29694  1
 O  O13  1  0.32232  0.95356  0.79694  1
 O  O14  1  0.75065  0.41693  0.04215  1
 O  O15  1  0.74935  0.91693  0.45785  1
 O  O16  1  0.17768  0.45356  0.70306  1
