CIF file written using JARVIS-Tools package.
data_Lu2Ni3B6
_symmetry_space_group_name_H-M  'Cmmm'
_cell_length_a       3.4429
_cell_length_b       5.73483
_cell_length_c       5.73483
_cell_angle_alpha    96.6985
_cell_angle_beta     90
_cell_angle_gamma    90

_symmetry_Int_Tables_number  65
_chemical_formula_structural  Lu2Ni3B6
_chemical_formula_sum  Lu2Ni3B6
_cell_volume  112.45809590490151
_cell_formula_units_Z  1
loop_
  _symmetry_equiv_pos_site_id
 _symmetry_equiv_pos_as_xyz
 1  'x, y, z'
loop_
 _atom_site_type_symbol
 _atom_site_label
 _atom_site_symmetry_multiplicity
 _atom_site_fract_x
 _atom_site_fract_y
 _atom_site_fract_z
 _atom_site_fract_occupancy
 B  B1  1  0.50000  0.61227  0.61227  1
 B  B2  1  0.50000  0.38773  0.38773  1
 B  B3  1  0.50000  0.91532  0.61253  1
 B  B4  1  0.50000  0.08468  0.38747  1
 B  B5  1  0.50000  0.61253  0.91532  1
 B  B6  1  0.50000  0.38747  0.08468  1
 Lu  Lu1  1  0.00000  0.72481  0.27519  1
 Lu  Lu2  1  0.00000  0.27519  0.72481  1
 Ni  Ni1  1  0.00000  0.77246  0.77246  1
 Ni  Ni2  1  0.00000  0.22754  0.22754  1
 Ni  Ni3  1  0.50000  0.00000  0.00000  1
