CIF file written using JARVIS-Tools package.
data_H8C2NCl
_symmetry_space_group_name_H-M  'P2_1/m'
_cell_length_a       4.39759
_cell_length_b       5.91804
_cell_length_c       8.08127
_cell_angle_alpha    90
_cell_angle_beta     92.6491
_cell_angle_gamma    90

_symmetry_Int_Tables_number  11
_chemical_formula_structural  H8C2NCl
_chemical_formula_sum  H6C4N2Cl2
_cell_volume  210.09130589812918
_cell_formula_units_Z  2
loop_
  _symmetry_equiv_pos_site_id
 _symmetry_equiv_pos_as_xyz
 1  'x, y, z'
loop_
 _atom_site_type_symbol
 _atom_site_label
 _atom_site_symmetry_multiplicity
 _atom_site_fract_x
 _atom_site_fract_y
 _atom_site_fract_z
 _atom_site_fract_occupancy
 C  C1  1  0.06089  0.75000  0.71482  1
 C  C2  1  0.84748  0.75000  0.56171  1
 C  C3  1  0.93911  0.25000  0.28518  1
 C  C4  1  0.15252  0.25000  0.43829  1
 Cl  Cl1  1  0.60334  0.25000  0.83890  1
 Cl  Cl2  1  0.39666  0.75000  0.16110  1
 H  H1  1  0.79370  0.09859  0.27918  1
 H  H2  1  0.96832  0.25000  0.02519  1
 H  H3  1  0.29883  0.40094  0.44095  1
 H  H4  1  0.97794  0.75000  0.44880  1
 H  H5  1  0.03168  0.75000  0.97481  1
 H  H6  1  0.70117  0.59906  0.55905  1
 H  H7  1  0.25241  0.39472  0.12687  1
 H  H8  1  0.70117  0.90094  0.55905  1
 H  H9  1  0.74759  0.60528  0.87313  1
 H  H10  1  0.20630  0.90141  0.72082  1
 H  H11  1  0.20630  0.59859  0.72082  1
 H  H12  1  0.79370  0.40141  0.27918  1
 H  H13  1  0.29883  0.09906  0.44095  1
 H  H14  1  0.25241  0.10528  0.12687  1
 H  H15  1  0.74759  0.89472  0.87313  1
 H  H16  1  0.02206  0.25000  0.55120  1
 N  N1  1  0.11625  0.25000  0.13132  1
 N  N2  1  0.88375  0.75000  0.86868  1
