CIF file written using JARVIS-Tools package.
data_CoPtF6
_symmetry_space_group_name_H-M  'R-3'
_cell_length_a       5.34202
_cell_length_b       5.34202
_cell_length_c       5.34202
_cell_angle_alpha    54.0398
_cell_angle_beta     54.0398
_cell_angle_gamma    54.0399

_symmetry_Int_Tables_number  148
_chemical_formula_structural  CoPtF6
_chemical_formula_sum  CoPtF6
_cell_volume  92.7910707322277
_cell_formula_units_Z  1
loop_
  _symmetry_equiv_pos_site_id
 _symmetry_equiv_pos_as_xyz
 1  'x, y, z'
loop_
 _atom_site_type_symbol
 _atom_site_label
 _atom_site_symmetry_multiplicity
 _atom_site_fract_x
 _atom_site_fract_y
 _atom_site_fract_z
 _atom_site_fract_occupancy
 Co  Co1  1  0.50000  0.50000  0.50000  1
 F  F1  1  0.73863  0.41954  0.10063  1
 F  F2  1  0.41954  0.10063  0.73863  1
 F  F3  1  0.58046  0.89937  0.26137  1
 F  F4  1  0.26137  0.58046  0.89937  1
 F  F5  1  0.10063  0.73863  0.41954  1
 F  F6  1  0.89937  0.26137  0.58046  1
 Pt  Pt1  1  0.00000  0.00000  0.00000  1
