CIF file written using JARVIS-Tools package.
data_PrRe4Si2
_symmetry_space_group_name_H-M  'Cmmm'
_cell_length_a       4.1329
_cell_length_b       4.17488
_cell_length_c       7.38933
_cell_angle_alpha    106.409
_cell_angle_beta     90
_cell_angle_gamma    90

_symmetry_Int_Tables_number  65
_chemical_formula_structural  PrRe4Si2
_chemical_formula_sum  PrRe4Si2
_cell_volume  122.30491893712824
_cell_formula_units_Z  1
loop_
  _symmetry_equiv_pos_site_id
 _symmetry_equiv_pos_as_xyz
 1  'x, y, z'
loop_
 _atom_site_type_symbol
 _atom_site_label
 _atom_site_symmetry_multiplicity
 _atom_site_fract_x
 _atom_site_fract_y
 _atom_site_fract_z
 _atom_site_fract_occupancy
 Pr  Pr1  1  0.00000  0.00000  0.00000  1
 Re  Re1  1  0.50000  0.18888  0.37776  1
 Re  Re2  1  0.50000  0.81112  0.62224  1
 Re  Re3  1  0.00000  0.30363  0.60727  1
 Re  Re4  1  0.00000  0.69637  0.39273  1
 Si  Si1  1  0.50000  0.41106  0.82213  1
 Si  Si2  1  0.50000  0.58894  0.17787  1
