CIF file written using JARVIS-Tools package.
data_LiVFeO4
_symmetry_space_group_name_H-M  'Imma'
_cell_length_a       5.71528
_cell_length_b       5.6696
_cell_length_c       5.6696
_cell_angle_alpha    62.8158
_cell_angle_beta     59.7331
_cell_angle_gamma    59.7331

_symmetry_Int_Tables_number  74
_chemical_formula_structural  LiVFeO4
_chemical_formula_sum  Li2V2Fe2O8
_cell_volume  131.8803622230185
_cell_formula_units_Z  2
loop_
  _symmetry_equiv_pos_site_id
 _symmetry_equiv_pos_as_xyz
 1  'x, y, z'
loop_
 _atom_site_type_symbol
 _atom_site_label
 _atom_site_symmetry_multiplicity
 _atom_site_fract_x
 _atom_site_fract_y
 _atom_site_fract_z
 _atom_site_fract_occupancy
 Fe  Fe1  1  0.50000  -0.00000  0.50000  1
 Fe  Fe2  1  0.50000  0.50000  -0.00000  1
 Li  Li1  1  0.12957  0.12043  0.12043  1
 Li  Li2  1  0.87043  0.87957  0.87957  1
 O  O1  1  0.27338  0.25540  0.25540  1
 O  O2  1  0.25234  0.27304  0.72228  1
 O  O3  1  0.25234  0.72228  0.27304  1
 O  O4  1  0.71581  0.25540  0.25540  1
 O  O5  1  0.28419  0.74460  0.74460  1
 O  O6  1  0.74766  0.72696  0.27772  1
 O  O7  1  0.74766  0.27772  0.72696  1
 O  O8  1  0.72662  0.74460  0.74460  1
 V  V1  1  0.00000  0.50000  0.50000  1
 V  V2  1  0.50000  0.50000  0.50000  1
