CIF file written using JARVIS-Tools package.
data_LiTiAsO5
_symmetry_space_group_name_H-M  'Pnma'
_cell_length_a       6.66184
_cell_length_b       7.50053
_cell_length_c       7.55446
_cell_angle_alpha    90
_cell_angle_beta     90
_cell_angle_gamma    90

_symmetry_Int_Tables_number  62
_chemical_formula_structural  LiTiAsO5
_chemical_formula_sum  Li4Ti4As4O20
_cell_volume  377.47673232004865
_cell_formula_units_Z  4
loop_
  _symmetry_equiv_pos_site_id
 _symmetry_equiv_pos_as_xyz
 1  'x, y, z'
loop_
 _atom_site_type_symbol
 _atom_site_label
 _atom_site_symmetry_multiplicity
 _atom_site_fract_x
 _atom_site_fract_y
 _atom_site_fract_z
 _atom_site_fract_occupancy
 As  As1  1  0.75000  0.63248  0.12716  1
 As  As2  1  0.75000  0.86752  0.62716  1
 As  As3  1  0.25000  0.13248  0.37284  1
 As  As4  1  0.25000  0.36752  0.87284  1
 Li  Li1  1  0.00000  0.00000  0.00000  1
 Li  Li2  1  0.50000  0.00000  0.00000  1
 Li  Li3  1  0.00000  0.50000  0.50000  1
 Li  Li4  1  0.50000  0.50000  0.50000  1
 O  O1  1  0.54471  0.76834  0.12574  1
 O  O2  1  0.04471  0.23166  0.87426  1
 O  O3  1  0.75000  0.98897  0.43473  1
 O  O4  1  0.25000  0.83244  0.88492  1
 O  O5  1  0.04471  0.26834  0.37426  1
 O  O6  1  0.54471  0.73166  0.62574  1
 O  O7  1  0.95529  0.76834  0.12574  1
 O  O8  1  0.45529  0.23166  0.87426  1
 O  O9  1  0.45529  0.26834  0.37426  1
 O  O10  1  0.95529  0.73166  0.62574  1
 O  O11  1  0.75000  0.33244  0.61508  1
 O  O12  1  0.75000  0.50241  0.31487  1
 O  O13  1  0.25000  0.00241  0.18513  1
 O  O14  1  0.25000  0.49759  0.68513  1
 O  O15  1  0.75000  0.16756  0.11508  1
 O  O16  1  0.25000  0.48897  0.06527  1
 O  O17  1  0.75000  0.51103  0.93473  1
 O  O18  1  0.25000  0.66756  0.38492  1
 O  O19  1  0.75000  -0.00241  0.81487  1
 O  O20  1  0.25000  0.01103  0.56527  1
 Ti  Ti1  1  0.75000  0.27468  0.83752  1
 Ti  Ti2  1  0.25000  0.72532  0.16248  1
 Ti  Ti3  1  0.25000  0.77468  0.66248  1
 Ti  Ti4  1  0.75000  0.22532  0.33752  1
