CIF file written using JARVIS-Tools package.
data_Fe3C
_symmetry_space_group_name_H-M  'Pnma'
_cell_length_a       4.6434
_cell_length_b       5.02436
_cell_length_c       6.99876
_cell_angle_alpha    90
_cell_angle_beta     90
_cell_angle_gamma    90

_symmetry_Int_Tables_number  62
_chemical_formula_structural  Fe3C
_chemical_formula_sum  Fe2C4
_cell_volume  163.28174825160661
_cell_formula_units_Z  4
loop_
  _symmetry_equiv_pos_site_id
 _symmetry_equiv_pos_as_xyz
 1  'x, y, z'
loop_
 _atom_site_type_symbol
 _atom_site_label
 _atom_site_symmetry_multiplicity
 _atom_site_fract_x
 _atom_site_fract_y
 _atom_site_fract_z
 _atom_site_fract_occupancy
 C  C1  1  0.00000  0.00000  0.50000  1
 C  C2  1  0.50000  0.50000  0.50000  1
 C  C3  1  0.50000  0.50000  0.00000  1
 C  C4  1  0.00000  0.00000  0.00000  1
 Fe  Fe1  1  0.34958  0.16679  0.42191  1
 Fe  Fe2  1  0.15042  0.66679  0.07809  1
 Fe  Fe3  1  0.84958  0.33321  0.92191  1
 Fe  Fe4  1  0.34021  0.44757  0.75000  1
 Fe  Fe5  1  0.15042  0.66679  0.42191  1
 Fe  Fe6  1  0.34958  0.16679  0.07809  1
 Fe  Fe7  1  0.15979  0.94757  0.75000  1
 Fe  Fe8  1  0.65042  0.83321  0.92191  1
 Fe  Fe9  1  0.84958  0.33321  0.57809  1
 Fe  Fe10  1  0.65979  0.55243  0.25000  1
 Fe  Fe11  1  0.65042  0.83321  0.57809  1
 Fe  Fe12  1  0.84021  0.05243  0.25000  1
