CIF file written using JARVIS-Tools package.
data_Ba3WCl2O5
_symmetry_space_group_name_H-M  'Cmcm'
_cell_length_a       5.83985
_cell_length_b       7.50446
_cell_length_c       11.6037
_cell_angle_alpha    90
_cell_angle_beta     90
_cell_angle_gamma    112.898

_symmetry_Int_Tables_number  63
_chemical_formula_structural  Ba3WCl2O5
_chemical_formula_sum  Ba6W2Cl4O0
_cell_volume  468.4580162852045
_cell_formula_units_Z  2
loop_
  _symmetry_equiv_pos_site_id
 _symmetry_equiv_pos_as_xyz
 1  'x, y, z'
loop_
 _atom_site_type_symbol
 _atom_site_label
 _atom_site_symmetry_multiplicity
 _atom_site_fract_x
 _atom_site_fract_y
 _atom_site_fract_z
 _atom_site_fract_occupancy
 Ba  Ba1  1  0.65035  0.30070  0.95676  1
 Ba  Ba2  1  0.34965  0.69930  0.45676  1
 Ba  Ba3  1  0.65035  0.30070  0.54324  1
 Ba  Ba4  1  0.90766  0.81532  0.75000  1
 Ba  Ba5  1  0.34965  0.69930  0.04324  1
 Ba  Ba6  1  0.09234  0.18468  0.25000  1
 Cl  Cl1  1  0.00000  0.00000  0.00000  1
 Cl  Cl2  1  0.00000  0.00000  0.50000  1
 Cl  Cl3  1  0.49374  0.98749  0.75000  1
 Cl  Cl4  1  0.50626  0.01251  0.25000  1
 O  O1  1  0.49666  0.44163  0.13661  1
 O  O2  1  0.94497  0.44163  0.36339  1
 O  O3  1  0.94497  0.44163  0.13661  1
 O  O4  1  0.11511  0.23022  0.75000  1
 O  O5  1  0.50334  0.55837  0.63661  1
 O  O6  1  0.05503  0.55837  0.86339  1
 O  O7  1  0.88489  0.76978  0.25000  1
 O  O8  1  0.05503  0.55837  0.63661  1
 O  O9  1  0.50334  0.55837  0.86339  1
 O  O10  1  0.49666  0.44163  0.36339  1
 W  W1  1  0.24311  0.48622  0.75000  1
 W  W2  1  0.75689  0.51378  0.25000  1
