CIF file written using JARVIS-Tools package.
data_Re2P
_symmetry_space_group_name_H-M  'Pnma'
_cell_length_a       2.97675
_cell_length_b       5.58344
_cell_length_c       10.1745
_cell_angle_alpha    90
_cell_angle_beta     90
_cell_angle_gamma    90

_symmetry_Int_Tables_number  62
_chemical_formula_structural  Re2P
_chemical_formula_sum  Re8P4
_cell_volume  169.1047678431827
_cell_formula_units_Z  4
loop_
  _symmetry_equiv_pos_site_id
 _symmetry_equiv_pos_as_xyz
 1  'x, y, z'
loop_
 _atom_site_type_symbol
 _atom_site_label
 _atom_site_symmetry_multiplicity
 _atom_site_fract_x
 _atom_site_fract_y
 _atom_site_fract_z
 _atom_site_fract_occupancy
 P  P1  1  0.25000  0.90248  0.60275  1
 P  P2  1  0.75000  0.09752  0.39725  1
 P  P3  1  0.25000  0.40248  0.89725  1
 P  P4  1  0.75000  0.59752  0.10275  1
 Re  Re1  1  0.75000  0.14708  0.78713  1
 Re  Re2  1  0.25000  0.85292  0.21287  1
 Re  Re3  1  0.75000  0.64708  0.71287  1
 Re  Re4  1  0.25000  0.35292  0.28713  1
 Re  Re5  1  0.25000  0.32639  0.56491  1
 Re  Re6  1  0.75000  0.67361  0.43509  1
 Re  Re7  1  0.25000  0.82639  0.93509  1
 Re  Re8  1  0.75000  0.17361  0.06491  1
