CIF file written using JARVIS-Tools package.
data_LiScAs2O7
_symmetry_space_group_name_H-M  'C2'
_cell_length_a       4.9167
_cell_length_b       5.4936
_cell_length_c       5.49361
_cell_angle_alpha    103.092
_cell_angle_beta     98.7321
_cell_angle_gamma    98.7332

_symmetry_Int_Tables_number  5
_chemical_formula_structural  LiScAs2O7
_chemical_formula_sum  LiScAs2O7
_cell_volume  140.15427810742108
_cell_formula_units_Z  1
loop_
  _symmetry_equiv_pos_site_id
 _symmetry_equiv_pos_as_xyz
 1  'x, y, z'
loop_
 _atom_site_type_symbol
 _atom_site_label
 _atom_site_symmetry_multiplicity
 _atom_site_fract_x
 _atom_site_fract_y
 _atom_site_fract_z
 _atom_site_fract_occupancy
 As  As1  1  0.90872  0.18110  0.25363  1
 As  As2  1  0.09129  0.74637  0.81891  1
 Li  Li1  1  0.50000  0.24829  0.75170  1
 O  O1  1  0.22051  0.33565  0.44853  1
 O  O2  1  0.75211  0.96316  0.38613  1
 O  O3  1  -0.00000  0.03978  0.96022  1
 O  O4  1  0.31723  0.86163  0.64573  1
 O  O5  1  0.68277  0.35427  0.13837  1
 O  O6  1  0.77948  0.55148  0.66435  1
 O  O7  1  0.24789  0.61387  0.03685  1
 Sc  Sc1  1  0.50000  0.62876  0.37124  1
