CIF file written using JARVIS-Tools package.
data_KNO3
_symmetry_space_group_name_H-M  'R3m'
_cell_length_a       4.24531
_cell_length_b       4.24531
_cell_length_c       4.24531
_cell_angle_alpha    80.7015
_cell_angle_beta     80.7015
_cell_angle_gamma    80.7015

_symmetry_Int_Tables_number  160
_chemical_formula_structural  KNO3
_chemical_formula_sum  KNO3
_cell_volume  73.78986206612063
_cell_formula_units_Z  1
loop_
  _symmetry_equiv_pos_site_id
 _symmetry_equiv_pos_as_xyz
 1  'x, y, z'
loop_
 _atom_site_type_symbol
 _atom_site_label
 _atom_site_symmetry_multiplicity
 _atom_site_fract_x
 _atom_site_fract_y
 _atom_site_fract_z
 _atom_site_fract_occupancy
 K  K1  1  0.00503  0.00503  0.00503  1
 N  N1  1  0.43352  0.43352  0.43352  1
 O  O1  1  0.56511  0.16522  0.56511  1
 O  O2  1  0.56511  0.56511  0.16522  1
 O  O3  1  0.16522  0.56511  0.56511  1
