CIF file written using JARVIS-Tools package.
data_SeO2
_symmetry_space_group_name_H-M  'Pmc2_1'
_cell_length_a       4.551
_cell_length_b       5.16454
_cell_length_c       7.37841
_cell_angle_alpha    90
_cell_angle_beta     90
_cell_angle_gamma    90

_symmetry_Int_Tables_number  26
_chemical_formula_structural  SeO2
_chemical_formula_sum  Se4O8
_cell_volume  173.42055978333167
_cell_formula_units_Z  4
loop_
  _symmetry_equiv_pos_site_id
 _symmetry_equiv_pos_as_xyz
 1  'x, y, z'
loop_
 _atom_site_type_symbol
 _atom_site_label
 _atom_site_symmetry_multiplicity
 _atom_site_fract_x
 _atom_site_fract_y
 _atom_site_fract_z
 _atom_site_fract_occupancy
 O  O1  1  0.26690  0.00000  0.67429  1
 O  O2  1  0.14904  0.25124  0.33643  1
 O  O3  1  0.85096  0.25124  0.83643  1
 O  O4  1  0.61023  0.50000  0.45848  1
 O  O5  1  0.38977  0.50000  0.95848  1
 O  O6  1  0.14904  0.74876  0.33643  1
 O  O7  1  0.73310  0.00000  0.17429  1
 O  O8  1  0.85096  0.74876  0.83643  1
 Se  Se1  1  0.74417  0.50000  0.00313  1
 Se  Se2  1  0.87371  0.00000  0.38103  1
 Se  Se3  1  0.25583  0.50000  0.50313  1
 Se  Se4  1  0.12629  0.00000  0.88103  1
