CIF file written using JARVIS-Tools package.
data_PuSi3
_symmetry_space_group_name_H-M  'P6_3/mmc'
_cell_length_a       5.9297
_cell_length_b       5.9297
_cell_length_c       4.50303
_cell_angle_alpha    90
_cell_angle_beta     90
_cell_angle_gamma    120

_symmetry_Int_Tables_number  194
_chemical_formula_structural  PuSi3
_chemical_formula_sum  Pu2Si6
_cell_volume  137.12003027791695
_cell_formula_units_Z  2
loop_
  _symmetry_equiv_pos_site_id
 _symmetry_equiv_pos_as_xyz
 1  'x, y, z'
loop_
 _atom_site_type_symbol
 _atom_site_label
 _atom_site_symmetry_multiplicity
 _atom_site_fract_x
 _atom_site_fract_y
 _atom_site_fract_z
 _atom_site_fract_occupancy
 Pu  Pu1  1  0.66667  0.33333  0.25000  1
 Pu  Pu2  1  0.33333  0.66667  0.75000  1
 Si  Si1  1  0.85535  0.71069  0.75000  1
 Si  Si2  1  0.85535  0.14465  0.75000  1
 Si  Si3  1  0.28931  0.14465  0.75000  1
 Si  Si4  1  0.14465  0.28931  0.25000  1
 Si  Si5  1  0.14465  0.85535  0.25000  1
 Si  Si6  1  0.71069  0.85535  0.25000  1
