CIF file written using JARVIS-Tools package.
data_TaSnRu2
_symmetry_space_group_name_H-M  'I4/mmm'
_cell_length_a       4.64507
_cell_length_b       4.31645
_cell_length_c       4.64501
_cell_angle_alpha    62.3156
_cell_angle_beta     55.373
_cell_angle_gamma    62.3133

_symmetry_Int_Tables_number  139
_chemical_formula_structural  TaSnRu2
_chemical_formula_sum  TaSnRu2
_cell_volume  65.23987391928065
_cell_formula_units_Z  1
loop_
  _symmetry_equiv_pos_site_id
 _symmetry_equiv_pos_as_xyz
 1  'x, y, z'
loop_
 _atom_site_type_symbol
 _atom_site_label
 _atom_site_symmetry_multiplicity
 _atom_site_fract_x
 _atom_site_fract_y
 _atom_site_fract_z
 _atom_site_fract_occupancy
 Ru  Ru1  1  -0.00000  0.00000  0.00000  1
 Ru  Ru2  1  0.50002  0.49998  0.50002  1
 Sn  Sn1  1  0.25001  0.24999  0.25001  1
 Ta  Ta1  1  0.74997  0.75002  0.74997  1
