CIF file written using JARVIS-Tools package.
data_Rb3YF6
_symmetry_space_group_name_H-M  'I4/mmm'
_cell_length_a       6.95663
_cell_length_b       6.95663
_cell_length_c       6.90386
_cell_angle_alpha    120.253
_cell_angle_beta     120.253
_cell_angle_gamma    89.9999

_symmetry_Int_Tables_number  139
_chemical_formula_structural  Rb3YF6
_chemical_formula_sum  Rb3YF6
_cell_volume  234.43190495408984
_cell_formula_units_Z  1
loop_
  _symmetry_equiv_pos_site_id
 _symmetry_equiv_pos_as_xyz
 1  'x, y, z'
loop_
 _atom_site_type_symbol
 _atom_site_label
 _atom_site_symmetry_multiplicity
 _atom_site_fract_x
 _atom_site_fract_y
 _atom_site_fract_z
 _atom_site_fract_occupancy
 F  F1  1  0.69044  0.00000  0.00000  1
 F  F2  1  0.00000  0.69044  0.00000  1
 F  F3  1  -0.00000  0.30956  -0.00000  1
 F  F4  1  0.30956  -0.00000  -0.00000  1
 F  F5  1  0.22951  0.22951  0.45902  1
 F  F6  1  0.77049  0.77049  0.54098  1
 Rb  Rb1  1  0.75000  0.25000  0.50000  1
 Rb  Rb2  1  0.25000  0.75000  0.50000  1
 Rb  Rb3  1  0.50000  0.50000  0.00000  1
 Y  Y1  1  0.00000  0.00000  0.00000  1
