CIF file written using JARVIS-Tools package.
data_CaGe2
_symmetry_space_group_name_H-M  'R-3m'
_cell_length_a       4.00982
_cell_length_b       4.00982
_cell_length_c       5.70115
_cell_angle_alpha    69.4107
_cell_angle_beta     69.4106
_cell_angle_gamma    60

_symmetry_Int_Tables_number  166
_chemical_formula_structural  CaGe2
_chemical_formula_sum  CaGe2
_cell_volume  72.54600625210799
_cell_formula_units_Z  1
loop_
  _symmetry_equiv_pos_site_id
 _symmetry_equiv_pos_as_xyz
 1  'x, y, z'
loop_
 _atom_site_type_symbol
 _atom_site_label
 _atom_site_symmetry_multiplicity
 _atom_site_fract_x
 _atom_site_fract_y
 _atom_site_fract_z
 _atom_site_fract_occupancy
 Ca  Ca1  1  0.00000  0.00000  0.00000  1
 Ge  Ge1  1  0.79690  0.79690  0.60931  1
 Ge  Ge2  1  0.20310  0.20310  0.39069  1
