CIF file written using JARVIS-Tools package.
data_HfPd5
_symmetry_space_group_name_H-M  'Cmmm'
_cell_length_a       4.01275
_cell_length_b       6.22919
_cell_length_c       4.01696
_cell_angle_alpha    90
_cell_angle_beta     90
_cell_angle_gamma    108.79

_symmetry_Int_Tables_number  65
_chemical_formula_structural  HfPd5
_chemical_formula_sum  HfPd5
_cell_volume  95.05773967794435
_cell_formula_units_Z  1
loop_
  _symmetry_equiv_pos_site_id
 _symmetry_equiv_pos_as_xyz
 1  'x, y, z'
loop_
 _atom_site_type_symbol
 _atom_site_label
 _atom_site_symmetry_multiplicity
 _atom_site_fract_x
 _atom_site_fract_y
 _atom_site_fract_z
 _atom_site_fract_occupancy
 Hf  Hf1  1  0.00000  0.00000  0.00000  1
 Pd  Pd1  1  0.66323  0.32646  0.00000  1
 Pd  Pd2  1  0.33677  0.67354  0.00000  1
 Pd  Pd3  1  0.50000  0.00000  0.50000  1
 Pd  Pd4  1  0.16618  0.33235  0.50000  1
 Pd  Pd5  1  0.83382  0.66765  0.50000  1
