CIF file written using JARVIS-Tools package.
data_BrO2F
_symmetry_space_group_name_H-M  'Cc'
_cell_length_a       6.33528
_cell_length_b       6.38566
_cell_length_c       6.33529
_cell_angle_alpha    48.2084
_cell_angle_beta     47.6494
_cell_angle_gamma    48.2084

_symmetry_Int_Tables_number  9
_chemical_formula_structural  BrO2F
_chemical_formula_sum  Br2O4F2
_cell_volume  129.75429105345347
_cell_formula_units_Z  2
loop_
  _symmetry_equiv_pos_site_id
 _symmetry_equiv_pos_as_xyz
 1  'x, y, z'
loop_
 _atom_site_type_symbol
 _atom_site_label
 _atom_site_symmetry_multiplicity
 _atom_site_fract_x
 _atom_site_fract_y
 _atom_site_fract_z
 _atom_site_fract_occupancy
 Br  Br1  1  0.27680  0.22127  0.24573  1
 Br  Br2  1  0.74573  0.72127  0.77680  1
 F  F1  1  0.78163  0.10909  0.48645  1
 F  F2  1  0.98645  0.60909  0.28163  1
 O  O1  1  0.08912  0.50495  0.77746  1
 O  O2  1  0.49120  0.78589  0.09401  1
 O  O3  1  0.27746  0.00495  0.58912  1
 O  O4  1  0.59401  0.28589  0.99120  1
