CIF file written using JARVIS-Tools package.
data_Te2Mo3WSe2S4
_symmetry_space_group_name_H-M  'P3m1'
_cell_length_a       3.31847
_cell_length_b       3.31853
_cell_length_c       38.7442
_cell_angle_alpha    89.9979
_cell_angle_beta     90
_cell_angle_gamma    120

_symmetry_Int_Tables_number  156
_chemical_formula_structural  Te2Mo3WSe2S4
_chemical_formula_sum  Te2Mo3WSe2S4
_cell_volume  369.5069625913293
_cell_formula_units_Z  1
loop_
  _symmetry_equiv_pos_site_id
 _symmetry_equiv_pos_as_xyz
 1  'x, y, z'
loop_
 _atom_site_type_symbol
 _atom_site_label
 _atom_site_symmetry_multiplicity
 _atom_site_fract_x
 _atom_site_fract_y
 _atom_site_fract_z
 _atom_site_fract_occupancy
 Mo  Mo1  1  0.33332  0.66664  0.09290  1
 Mo  Mo2  1  0.33329  0.66658  0.46998  1
 Mo  Mo3  1  0.66667  0.33334  0.28245  1
 S  S1  1  0.33332  0.66664  0.69696  1
 S  S2  1  0.66667  0.33334  0.43057  1
 S  S3  1  0.66666  0.33332  0.50947  1
 S  S4  1  0.33333  0.66665  0.61784  1
 Se  Se1  1  0.66669  0.33339  0.04989  1
 Se  Se2  1  0.66668  0.33336  0.13618  1
 Te  Te1  1  0.33333  0.66665  0.33199  1
 Te  Te2  1  0.33334  0.66668  0.23301  1
 W  W1  1  0.66670  0.33341  0.65750  1
