CIF file written using JARVIS-Tools package.
data_SbBr3
_symmetry_space_group_name_H-M  'Pnma'
_cell_length_a       4.22503
_cell_length_b       9.95952
_cell_length_c       12.5828
_cell_angle_alpha    90
_cell_angle_beta     90
_cell_angle_gamma    90

_symmetry_Int_Tables_number  62
_chemical_formula_structural  SbBr3
_chemical_formula_sum  Sb4Br2
_cell_volume  529.4728991998576
_cell_formula_units_Z  4
loop_
  _symmetry_equiv_pos_site_id
 _symmetry_equiv_pos_as_xyz
 1  'x, y, z'
loop_
 _atom_site_type_symbol
 _atom_site_label
 _atom_site_symmetry_multiplicity
 _atom_site_fract_x
 _atom_site_fract_y
 _atom_site_fract_z
 _atom_site_fract_occupancy
 Br  Br1  1  0.53811  0.31764  0.88410  1
 Br  Br2  1  0.03811  0.18236  0.11590  1
 Br  Br3  1  0.46189  0.81764  0.61590  1
 Br  Br4  1  0.96189  0.68236  0.38410  1
 Br  Br5  1  0.96801  0.49997  0.65474  1
 Br  Br6  1  0.46801  0.00003  0.34526  1
 Br  Br7  1  0.03199  -0.00003  0.84526  1
 Br  Br8  1  0.53199  0.50003  0.15474  1
 Br  Br9  1  0.96202  0.31773  0.38409  1
 Br  Br10  1  0.46202  0.18227  0.61591  1
 Br  Br11  1  0.03798  0.81773  0.11591  1
 Br  Br12  1  0.53798  0.68227  0.88409  1
 Sb  Sb1  1  0.20604  0.49995  0.98143  1
 Sb  Sb2  1  0.70604  0.00005  0.01857  1
 Sb  Sb3  1  0.79396  -0.00005  0.51857  1
 Sb  Sb4  1  0.29396  0.50005  0.48143  1
