CIF file written using JARVIS-Tools package.
data_Li2MnCr3O8
_symmetry_space_group_name_H-M  'R-3m'
_cell_length_a       5.81352
_cell_length_b       5.81352
_cell_length_c       5.81352
_cell_angle_alpha    60.1956
_cell_angle_beta     60.1956
_cell_angle_gamma    60.1956

_symmetry_Int_Tables_number  166
_chemical_formula_structural  Li2MnCr3O8
_chemical_formula_sum  Li2MnCr3O8
_cell_volume  139.54751432914784
_cell_formula_units_Z  1
loop_
  _symmetry_equiv_pos_site_id
 _symmetry_equiv_pos_as_xyz
 1  'x, y, z'
loop_
 _atom_site_type_symbol
 _atom_site_label
 _atom_site_symmetry_multiplicity
 _atom_site_fract_x
 _atom_site_fract_y
 _atom_site_fract_z
 _atom_site_fract_occupancy
 Cr  Cr1  1  -0.00000  0.50000  0.50000  1
 Cr  Cr2  1  0.50000  0.00000  0.50000  1
 Cr  Cr3  1  0.50000  0.50000  -0.00000  1
 Li  Li1  1  0.12694  0.12694  0.12694  1
 Li  Li2  1  0.87306  0.87306  0.87306  1
 Mn  Mn1  1  0.50000  0.50000  0.50000  1
 O  O1  1  0.26316  0.26316  0.26316  1
 O  O2  1  0.26562  0.26562  0.71244  1
 O  O3  1  0.26562  0.71244  0.26562  1
 O  O4  1  0.71244  0.26562  0.26562  1
 O  O5  1  0.28756  0.73438  0.73438  1
 O  O6  1  0.73438  0.28756  0.73438  1
 O  O7  1  0.73438  0.73438  0.28756  1
 O  O8  1  0.73684  0.73684  0.73684  1
