CIF file written using JARVIS-Tools package.
data_MoW2Se2S4
_symmetry_space_group_name_H-M  'R3m'
_cell_length_a       3.23772
_cell_length_b       3.23767
_cell_length_c       19.187
_cell_angle_alpha    85.1222
_cell_angle_beta     90
_cell_angle_gamma    120.001

_symmetry_Int_Tables_number  160
_chemical_formula_structural  MoW2Se2S4
_chemical_formula_sum  MoW2Se2S4
_cell_volume  173.3425114975746
_cell_formula_units_Z  1
loop_
  _symmetry_equiv_pos_site_id
 _symmetry_equiv_pos_as_xyz
 1  'x, y, z'
loop_
 _atom_site_type_symbol
 _atom_site_label
 _atom_site_symmetry_multiplicity
 _atom_site_fract_x
 _atom_site_fract_y
 _atom_site_fract_z
 _atom_site_fract_occupancy
 Mo  Mo1  1  0.44597  0.89193  0.00917  1
 S  S1  1  0.80661  0.61322  0.92791  1
 S  S2  1  0.58113  0.16225  0.60343  1
 S  S3  1  0.75197  0.50394  0.09047  1
 S  S4  1  0.52619  0.05237  0.76680  1
 Se  Se1  1  0.30349  0.60698  0.43652  1
 Se  Se2  1  0.36391  0.72782  0.25674  1
 W  W1  1  0.22030  0.44061  0.68516  1
 W  W2  1  0.66704  0.33408  0.34663  1
