CIF file written using JARVIS-Tools package.
data_Te4Mo3WS4
_symmetry_space_group_name_H-M  'Cm'
_cell_length_a       3.36622
_cell_length_b       3.36609
_cell_length_c       32.8277
_cell_angle_alpha    90.2218
_cell_angle_beta     90
_cell_angle_gamma    120.001

_symmetry_Int_Tables_number  8
_chemical_formula_structural  Te4Mo3WS4
_chemical_formula_sum  Te4Mo3WS4
_cell_volume  322.1291979016427
_cell_formula_units_Z  1
loop_
  _symmetry_equiv_pos_site_id
 _symmetry_equiv_pos_as_xyz
 1  'x, y, z'
loop_
 _atom_site_type_symbol
 _atom_site_label
 _atom_site_symmetry_multiplicity
 _atom_site_fract_x
 _atom_site_fract_y
 _atom_site_fract_z
 _atom_site_fract_occupancy
 Mo  Mo1  1  0.33321  0.66641  0.07155  1
 Mo  Mo2  1  0.33447  0.66894  0.47539  1
 Mo  Mo3  1  0.66666  0.33332  0.27422  1
 S  S1  1  0.33449  0.66897  0.32022  1
 S  S2  1  0.33357  0.66714  0.72800  1
 S  S3  1  0.33234  0.66467  0.22818  1
 S  S4  1  0.33095  0.66191  0.63543  1
 Te  Te1  1  0.66494  0.32988  0.01391  1
 Te  Te2  1  0.66649  0.33297  0.41764  1
 Te  Te3  1  0.66821  0.33641  0.12933  1
 Te  Te4  1  0.66917  0.33834  0.53313  1
 W  W1  1  0.66551  0.33102  0.68174  1
