CIF file written using JARVIS-Tools package.
data_Yb3Ag2
_symmetry_space_group_name_H-M  'P4/mbm'
_cell_length_a       8.01226
_cell_length_b       8.01226
_cell_length_c       4.11471
_cell_angle_alpha    90
_cell_angle_beta     90
_cell_angle_gamma    90

_symmetry_Int_Tables_number  127
_chemical_formula_structural  Yb3Ag2
_chemical_formula_sum  Yb6Ag4
_cell_volume  264.14916384861294
_cell_formula_units_Z  2
loop_
  _symmetry_equiv_pos_site_id
 _symmetry_equiv_pos_as_xyz
 1  'x, y, z'
loop_
 _atom_site_type_symbol
 _atom_site_label
 _atom_site_symmetry_multiplicity
 _atom_site_fract_x
 _atom_site_fract_y
 _atom_site_fract_z
 _atom_site_fract_occupancy
 Ag  Ag1  1  0.86780  0.36780  0.00000  1
 Ag  Ag2  1  0.13220  0.63220  0.00000  1
 Ag  Ag3  1  0.36780  0.13220  0.00000  1
 Ag  Ag4  1  0.63220  0.86780  0.00000  1
 Yb  Yb1  1  0.33815  0.83815  0.50000  1
 Yb  Yb2  1  0.83815  0.66185  0.50000  1
 Yb  Yb3  1  0.00000  0.00000  0.00000  1
 Yb  Yb4  1  0.66185  0.16185  0.50000  1
 Yb  Yb5  1  0.16185  0.33815  0.50000  1
 Yb  Yb6  1  0.50000  0.50000  0.00000  1
