CIF file written using JARVIS-Tools package.
data_LiMnPO4
_symmetry_space_group_name_H-M  'P2_1/c'
_cell_length_a       5.25875
_cell_length_b       6.10212
_cell_length_c       10.5054
_cell_angle_alpha    90
_cell_angle_beta     116.14
_cell_angle_gamma    90

_symmetry_Int_Tables_number  14
_chemical_formula_structural  LiMnPO4
_chemical_formula_sum  Li4Mn4P4O6
_cell_volume  302.6331491836974
_cell_formula_units_Z  4
loop_
  _symmetry_equiv_pos_site_id
 _symmetry_equiv_pos_as_xyz
 1  'x, y, z'
loop_
 _atom_site_type_symbol
 _atom_site_label
 _atom_site_symmetry_multiplicity
 _atom_site_fract_x
 _atom_site_fract_y
 _atom_site_fract_z
 _atom_site_fract_occupancy
 Li  Li1  1  0.09420  0.35909  -0.07175  1
 Li  Li2  1  0.90580  0.85909  0.57175  1
 Li  Li3  1  0.09420  0.14091  0.42825  1
 Li  Li4  1  0.90580  0.64091  0.07175  1
 Mn  Mn1  1  0.55259  0.38982  0.33105  1
 Mn  Mn2  1  0.44741  0.88982  0.16895  1
 Mn  Mn3  1  0.55259  0.11018  0.83105  1
 Mn  Mn4  1  0.44741  0.61018  0.66895  1
 O  O1  1  0.24744  0.66516  0.26308  1
 O  O2  1  0.21518  0.06247  0.95266  1
 O  O3  1  0.19078  0.66037  -0.02389  1
 O  O4  1  0.22117  0.14610  0.22778  1
 O  O5  1  0.78482  0.56247  0.54734  1
 O  O6  1  0.75256  0.33484  0.73692  1
 O  O7  1  0.24744  0.83484  0.76308  1
 O  O8  1  0.80922  0.16037  0.52389  1
 O  O9  1  0.75256  0.16516  0.23692  1
 O  O10  1  0.19078  0.83963  0.47611  1
 O  O11  1  0.78482  0.93753  0.04734  1
 O  O12  1  0.80922  0.33963  0.02389  1
 O  O13  1  0.22117  0.35390  0.72778  1
 O  O14  1  0.21518  0.43753  0.45266  1
 O  O15  1  0.77883  0.64610  0.27222  1
 O  O16  1  0.77883  0.85390  0.77222  1
 P  P1  1  0.89469  0.34870  0.63369  1
 P  P2  1  0.10531  0.84870  0.86631  1
 P  P3  1  0.89469  0.15130  0.13369  1
 P  P4  1  0.10531  0.65130  0.36631  1
