data_image0
_chemical_formula_structural       Al2Ge4Sr3
_chemical_formula_sum              "Al2 Ge4 Sr3"
_cell_length_a       4.20076
_cell_length_b       6.68964
_cell_length_c       8.91742
_cell_angle_alpha    109.167
_cell_angle_beta     90
_cell_angle_gamma    108.299

_space_group_name_H-M_alt    "P 1"
_space_group_IT_number       1

loop_
  _space_group_symop_operation_xyz
  'x, y, z'

loop_
  _atom_site_type_symbol
  _atom_site_label
  _atom_site_symmetry_multiplicity
  _atom_site_fract_x
  _atom_site_fract_y
  _atom_site_fract_z
  _atom_site_occupancy
  Al  Al1       1.0  0.70500  0.41000  0.35000  1.0000
  Al  Al2       1.0  0.29500  0.59000  0.65000  1.0000
  Ge  Ge1       1.0  0.71200  0.42300  0.05560  1.0000
  Ge  Ge2       1.0  0.10600  0.21200  0.39100  1.0000
  Ge  Ge3       1.0  0.89400  0.78800  0.60900  1.0000
  Ge  Ge4       1.0  0.28800  0.57700  0.94400  1.0000
  Sr  Sr1       1.0  0.00000  0.00000  0.00000  1.0000
  Sr  Sr2       1.0  0.39400  0.78900  0.31300  1.0000
  Sr  Sr3       1.0  0.60600  0.21100  0.68700  1.0000
