CIF file written using JARVIS-Tools package.
data_Li2Cr3TeO8
_symmetry_space_group_name_H-M  'R-3m'
_cell_length_a       6.13982
_cell_length_b       6.13982
_cell_length_c       6.13982
_cell_angle_alpha    57.5753
_cell_angle_beta     57.5753
_cell_angle_gamma    57.5753

_symmetry_Int_Tables_number  166
_chemical_formula_structural  Li2Cr3TeO8
_chemical_formula_sum  Li2Cr3TeO8
_cell_volume  154.5403149005573
_cell_formula_units_Z  1
loop_
  _symmetry_equiv_pos_site_id
 _symmetry_equiv_pos_as_xyz
 1  'x, y, z'
loop_
 _atom_site_type_symbol
 _atom_site_label
 _atom_site_symmetry_multiplicity
 _atom_site_fract_x
 _atom_site_fract_y
 _atom_site_fract_z
 _atom_site_fract_occupancy
 Cr  Cr1  1  0.00000  0.50000  0.50000  1
 Cr  Cr2  1  0.50000  0.00000  0.50000  1
 Cr  Cr3  1  0.50000  0.50000  0.00000  1
 Li  Li1  1  0.12587  0.12587  0.12587  1
 Li  Li2  1  0.87413  0.87413  0.87413  1
 O  O1  1  0.26548  0.26548  0.26548  1
 O  O2  1  0.25306  0.25306  0.71563  1
 O  O3  1  0.25306  0.71563  0.25306  1
 O  O4  1  0.71563  0.25306  0.25306  1
 O  O5  1  0.28437  0.74694  0.74694  1
 O  O6  1  0.74694  0.28437  0.74694  1
 O  O7  1  0.74694  0.74694  0.28437  1
 O  O8  1  0.73452  0.73452  0.73452  1
 Te  Te1  1  0.50000  0.50000  0.50000  1
