CIF file written using JARVIS-Tools package.
data_TmSbPb2O6
_symmetry_space_group_name_H-M  'C2/c'
_cell_length_a       5.87839
_cell_length_b       5.87837
_cell_length_c       10.1777
_cell_angle_alpha    73.8777
_cell_angle_beta     106.123
_cell_angle_gamma    120.192

_symmetry_Int_Tables_number  15
_chemical_formula_structural  TmSbPb2O6
_chemical_formula_sum  Tm2Sb2Pb4O2
_cell_volume  287.9658403984932
_cell_formula_units_Z  2
loop_
  _symmetry_equiv_pos_site_id
 _symmetry_equiv_pos_as_xyz
 1  'x, y, z'
loop_
 _atom_site_type_symbol
 _atom_site_label
 _atom_site_symmetry_multiplicity
 _atom_site_fract_x
 _atom_site_fract_y
 _atom_site_fract_z
 _atom_site_fract_occupancy
 O  O1  1  0.30989  0.11400  0.08542  1
 O  O2  1  0.35898  0.66532  0.62146  1
 O  O3  1  0.69011  0.88600  0.91458  1
 O  O4  1  0.64102  0.33468  0.37854  1
 O  O5  1  0.33468  0.64101  0.12147  1
 O  O6  1  0.66532  0.35899  0.87853  1
 O  O7  1  0.87949  0.17808  0.64923  1
 O  O8  1  0.82192  0.12052  0.14923  1
 O  O9  1  0.12051  0.82192  0.35077  1
 O  O10  1  0.88600  0.69011  0.58542  1
 O  O11  1  0.11400  0.30989  0.41458  1
 O  O12  1  0.17807  0.87948  0.85077  1
 Pb  Pb1  1  0.35693  0.09398  0.62712  1
 Pb  Pb2  1  0.09398  0.35693  0.87288  1
 Pb  Pb3  1  0.64307  0.90602  0.37288  1
 Pb  Pb4  1  0.90602  0.64307  0.12712  1
 Sb  Sb1  1  -0.00000  0.50000  0.50000  1
 Sb  Sb2  1  0.50000  -0.00000  0.00000  1
 Tm  Tm1  1  0.75076  0.75077  0.75000  1
 Tm  Tm2  1  0.24924  0.24923  0.25000  1
