CIF file written using JARVIS-Tools package.
data_Te2MoWSe2
_symmetry_space_group_name_H-M  'P3m1'
_cell_length_a       3.44228
_cell_length_b       3.44227
_cell_length_c       38.9119
_cell_angle_alpha    89.9999
_cell_angle_beta     90
_cell_angle_gamma    120

_symmetry_Int_Tables_number  156
_chemical_formula_structural  Te2MoWSe2
_chemical_formula_sum  Te4Mo2W2Se4
_cell_volume  399.30422388598254
_cell_formula_units_Z  2
loop_
  _symmetry_equiv_pos_site_id
 _symmetry_equiv_pos_as_xyz
 1  'x, y, z'
loop_
 _atom_site_type_symbol
 _atom_site_label
 _atom_site_symmetry_multiplicity
 _atom_site_fract_x
 _atom_site_fract_y
 _atom_site_fract_z
 _atom_site_fract_occupancy
 Mo  Mo1  1  0.33331  0.66662  0.09396  1
 Mo  Mo2  1  0.66669  0.33338  0.28172  1
 Se  Se1  1  0.33336  0.66673  0.32385  1
 Se  Se2  1  0.66664  0.33328  0.42746  1
 Se  Se3  1  0.66665  0.33329  0.51183  1
 Se  Se4  1  0.33336  0.66671  0.23981  1
 Te  Te1  1  0.33336  0.66671  0.70537  1
 Te  Te2  1  0.66664  0.33327  0.04636  1
 Te  Te3  1  0.66663  0.33327  0.14171  1
 Te  Te4  1  0.33336  0.66672  0.60953  1
 W  W1  1  0.33331  0.66662  0.46964  1
 W  W2  1  0.66670  0.33339  0.65752  1
