CIF file written using JARVIS-Tools package.
data_LiMnVO4
_symmetry_space_group_name_H-M  'Pnma'
_cell_length_a       4.93192
_cell_length_b       6.16247
_cell_length_c       10.4787
_cell_angle_alpha    90
_cell_angle_beta     90
_cell_angle_gamma    90

_symmetry_Int_Tables_number  62
_chemical_formula_structural  LiMnVO4
_chemical_formula_sum  Li4Mn4V4O6
_cell_volume  318.47638114573346
_cell_formula_units_Z  4
loop_
  _symmetry_equiv_pos_site_id
 _symmetry_equiv_pos_as_xyz
 1  'x, y, z'
loop_
 _atom_site_type_symbol
 _atom_site_label
 _atom_site_symmetry_multiplicity
 _atom_site_fract_x
 _atom_site_fract_y
 _atom_site_fract_z
 _atom_site_fract_occupancy
 Li  Li1  1  0.00000  0.00000  0.00000  1
 Li  Li2  1  0.50000  0.00000  0.50000  1
 Li  Li3  1  0.00000  0.50000  0.00000  1
 Li  Li4  1  0.50000  0.50000  0.50000  1
 Mn  Mn1  1  0.97709  0.25000  0.72862  1
 Mn  Mn2  1  0.52291  0.25000  0.22862  1
 Mn  Mn3  1  0.47709  0.75000  0.77138  1
 Mn  Mn4  1  0.02291  0.75000  0.27138  1
 O  O1  1  0.22492  0.02608  0.33597  1
 O  O2  1  0.29036  0.25000  0.06392  1
 O  O3  1  0.72050  0.25000  0.40601  1
 O  O4  1  0.27508  0.02608  0.83597  1
 O  O5  1  0.20964  0.25000  0.56392  1
 O  O6  1  0.77508  0.97392  0.66403  1
 O  O7  1  0.22492  0.47392  0.33597  1
 O  O8  1  0.77950  0.25000  0.90601  1
 O  O9  1  0.72492  0.52608  0.16403  1
 O  O10  1  0.27950  0.75000  0.59399  1
 O  O11  1  0.79036  0.75000  0.43608  1
 O  O12  1  0.70964  0.75000  0.93608  1
 O  O13  1  0.27508  0.47392  0.83597  1
 O  O14  1  0.22050  0.75000  0.09399  1
 O  O15  1  0.77508  0.52608  0.66403  1
 O  O16  1  0.72492  0.97392  0.16403  1
 V  V1  1  0.42536  0.25000  0.91102  1
 V  V2  1  0.07464  0.25000  0.41102  1
 V  V3  1  0.92536  0.75000  0.58898  1
 V  V4  1  0.57464  0.75000  0.08898  1
