CIF file written using JARVIS-Tools package.
data_Rb2Zr2O5
_symmetry_space_group_name_H-M  'P4/mmm'
_cell_length_a       4.09509
_cell_length_b       4.09509
_cell_length_c       9.05919
_cell_angle_alpha    90
_cell_angle_beta     90
_cell_angle_gamma    90

_symmetry_Int_Tables_number  123
_chemical_formula_structural  Rb2Zr2O5
_chemical_formula_sum  Rb2Zr2O5
_cell_volume  151.92024168807382
_cell_formula_units_Z  1
loop_
  _symmetry_equiv_pos_site_id
 _symmetry_equiv_pos_as_xyz
 1  'x, y, z'
loop_
 _atom_site_type_symbol
 _atom_site_label
 _atom_site_symmetry_multiplicity
 _atom_site_fract_x
 _atom_site_fract_y
 _atom_site_fract_z
 _atom_site_fract_occupancy
 O  O1  1  0.50000  0.00000  0.23147  1
 O  O2  1  0.50000  0.00000  0.76853  1
 O  O3  1  0.00000  0.50000  0.23147  1
 O  O4  1  0.00000  0.50000  0.76853  1
 O  O5  1  0.50000  0.50000  0.50000  1
 Rb  Rb1  1  0.00000  0.00000  0.00000  1
 Rb  Rb2  1  0.00000  0.00000  0.50000  1
 Zr  Zr1  1  0.50000  0.50000  0.27640  1
 Zr  Zr2  1  0.50000  0.50000  0.72360  1
