CIF file written using JARVIS-Tools package.
data_SnP2S6
_symmetry_space_group_name_H-M  'R3'
_cell_length_a       7.3759
_cell_length_b       7.3759
_cell_length_c       7.3759
_cell_angle_alpha    48.5517
_cell_angle_beta     48.5517
_cell_angle_gamma    48.5517

_symmetry_Int_Tables_number  146
_chemical_formula_structural  SnP2S6
_chemical_formula_sum  SnP2S6
_cell_volume  206.79579445852997
_cell_formula_units_Z  1
loop_
  _symmetry_equiv_pos_site_id
 _symmetry_equiv_pos_as_xyz
 1  'x, y, z'
loop_
 _atom_site_type_symbol
 _atom_site_label
 _atom_site_symmetry_multiplicity
 _atom_site_fract_x
 _atom_site_fract_y
 _atom_site_fract_z
 _atom_site_fract_occupancy
 P  P1  1  0.27589  0.27589  0.27589  1
 P  P2  1  0.39150  0.39150  0.39150  1
 S  S1  1  0.24979  0.57030  0.92244  1
 S  S2  1  0.92244  0.24979  0.57030  1
 S  S3  1  0.57030  0.92244  0.24979  1
 S  S4  1  0.74077  0.42550  0.09159  1
 S  S5  1  0.09159  0.74077  0.42550  1
 S  S6  1  0.42550  0.09159  0.74077  1
 Sn  Sn1  1  0.66626  0.66626  0.66626  1
