CIF file written using JARVIS-Tools package.
data_AlH12Cl3O6
_symmetry_space_group_name_H-M  'R-3c'
_cell_length_a       7.89642
_cell_length_b       7.89643
_cell_length_c       7.89643
_cell_angle_alpha    98.8399
_cell_angle_beta     98.8399
_cell_angle_gamma    98.8399

_symmetry_Int_Tables_number  167
_chemical_formula_structural  AlH12Cl3O6
_chemical_formula_sum  Al2H24Cl6O2
_cell_volume  472.7508456835539
_cell_formula_units_Z  2
loop_
  _symmetry_equiv_pos_site_id
 _symmetry_equiv_pos_as_xyz
 1  'x, y, z'
loop_
 _atom_site_type_symbol
 _atom_site_label
 _atom_site_symmetry_multiplicity
 _atom_site_fract_x
 _atom_site_fract_y
 _atom_site_fract_z
 _atom_site_fract_occupancy
 Al  Al1  1  0.50000  0.50000  0.50000  1
 Al  Al2  1  0.00000  0.00000  0.00000  1
 Cl  Cl1  1  0.75000  0.47698  0.02302  1
 Cl  Cl2  1  0.02302  0.75000  0.47698  1
 Cl  Cl3  1  0.47698  0.02302  0.75000  1
 Cl  Cl4  1  0.97698  0.25000  0.52302  1
 Cl  Cl5  1  0.25000  0.52302  0.97698  1
 Cl  Cl6  1  0.52302  0.97698  0.25000  1
 H  H1  1  0.58684  0.79423  0.39247  1
 H  H2  1  0.72024  0.46213  0.76249  1
 H  H3  1  0.39247  0.58684  0.79423  1
 H  H4  1  0.91316  0.10753  0.70577  1
 H  H5  1  0.70577  0.91316  0.10753  1
 H  H6  1  0.20577  0.60753  0.41316  1
 H  H7  1  0.60753  0.41316  0.20577  1
 H  H8  1  0.41316  0.20577  0.60753  1
 H  H9  1  0.10753  0.70577  0.91316  1
 H  H10  1  0.89247  0.29423  0.08684  1
 H  H11  1  0.79423  0.39247  0.58684  1
 H  H12  1  0.08684  0.89247  0.29423  1
 H  H13  1  0.26249  0.96213  0.22024  1
 H  H14  1  0.22024  0.26249  0.96213  1
 H  H15  1  0.53787  0.23751  0.27976  1
 H  H16  1  0.27976  0.53787  0.23751  1
 H  H17  1  0.77976  0.73751  0.03787  1
 H  H18  1  0.23751  0.27976  0.53787  1
 H  H19  1  0.73751  0.03787  0.77976  1
 H  H20  1  0.76249  0.72024  0.46213  1
 H  H21  1  0.46213  0.76249  0.72024  1
 H  H22  1  0.96213  0.22024  0.26249  1
 H  H23  1  0.29423  0.08684  0.89247  1
 H  H24  1  0.03787  0.77976  0.73751  1
 O  O1  1  0.70382  0.45345  0.63266  1
 O  O2  1  0.45345  0.63266  0.70382  1
 O  O3  1  0.63266  0.70382  0.45345  1
 O  O4  1  0.86734  0.04655  0.79618  1
 O  O5  1  0.79618  0.86734  0.04655  1
 O  O6  1  0.13266  0.95345  0.20382  1
 O  O7  1  0.95345  0.20382  0.13266  1
 O  O8  1  0.36734  0.29618  0.54655  1
 O  O9  1  0.54655  0.36734  0.29618  1
 O  O10  1  0.29618  0.54655  0.36734  1
 O  O11  1  0.20382  0.13266  0.95345  1
 O  O12  1  0.04655  0.79618  0.86734  1
