CIF file written using JARVIS-Tools package.
data_U2Fe12P7
_symmetry_space_group_name_H-M  'P-6'
_cell_length_a       8.99106
_cell_length_b       8.99106
_cell_length_c       3.60587
_cell_angle_alpha    90
_cell_angle_beta     90
_cell_angle_gamma    120

_symmetry_Int_Tables_number  174
_chemical_formula_structural  U2Fe12P7
_chemical_formula_sum  U2Fe2P7
_cell_volume  252.44257014949488
_cell_formula_units_Z  1
loop_
  _symmetry_equiv_pos_site_id
 _symmetry_equiv_pos_as_xyz
 1  'x, y, z'
loop_
 _atom_site_type_symbol
 _atom_site_label
 _atom_site_symmetry_multiplicity
 _atom_site_fract_x
 _atom_site_fract_y
 _atom_site_fract_z
 _atom_site_fract_occupancy
 Fe  Fe1  1  0.12442  0.85028  0.00000  1
 Fe  Fe2  1  0.87721  0.77078  0.50000  1
 Fe  Fe3  1  0.89356  0.12279  0.50000  1
 Fe  Fe4  1  0.22922  0.10644  0.50000  1
 Fe  Fe5  1  0.93009  0.36949  0.00000  1
 Fe  Fe6  1  0.43940  0.06991  0.00000  1
 Fe  Fe7  1  0.63051  0.56060  0.00000  1
 Fe  Fe8  1  0.55786  0.93806  0.50000  1
 Fe  Fe9  1  0.38020  0.44214  0.50000  1
 Fe  Fe10  1  0.72585  0.87558  0.00000  1
 Fe  Fe11  1  0.14972  0.27415  0.00000  1
 Fe  Fe12  1  0.06194  0.61980  0.50000  1
 P  P1  1  0.00000  0.00000  0.00000  1
 P  P2  1  0.29163  0.89516  0.50000  1
 P  P3  1  0.60353  0.70837  0.50000  1
 P  P4  1  0.89525  0.59791  0.00000  1
 P  P5  1  0.70265  0.10475  0.00000  1
 P  P6  1  0.40209  0.29735  0.00000  1
 P  P7  1  0.10484  0.39647  0.50000  1
 U  U1  1  0.66667  0.33333  0.50000  1
 U  U2  1  0.33333  0.66667  0.00000  1
