CIF file written using JARVIS-Tools package.
data_Te2MoW2Se2S2
_symmetry_space_group_name_H-M  'Cm'
_cell_length_a       3.35283
_cell_length_b       3.3529
_cell_length_c       20.1643
_cell_angle_alpha    85.1939
_cell_angle_beta     90
_cell_angle_gamma    119.999

_symmetry_Int_Tables_number  8
_chemical_formula_structural  Te2MoW2Se2S2
_chemical_formula_sum  Te2MoW2Se2S2
_cell_volume  195.39162308395476
_cell_formula_units_Z  1
loop_
  _symmetry_equiv_pos_site_id
 _symmetry_equiv_pos_as_xyz
 1  'x, y, z'
loop_
 _atom_site_type_symbol
 _atom_site_label
 _atom_site_symmetry_multiplicity
 _atom_site_fract_x
 _atom_site_fract_y
 _atom_site_fract_z
 _atom_site_fract_occupancy
 Mo  Mo1  1  0.44628  0.89256  0.00936  1
 S  S1  1  0.58320  0.16640  0.59840  1
 S  S2  1  0.53219  0.06439  0.75016  1
 Se  Se1  1  0.30131  0.60262  0.44069  1
 Se  Se2  1  0.35738  0.71475  0.27392  1
 Te  Te1  1  0.81142  0.62284  0.91472  1
 Te  Te2  1  0.74779  0.49558  0.10399  1
 W  W1  1  0.22436  0.44872  0.67430  1
 W  W2  1  0.66267  0.32534  0.35731  1
