CIF file written using JARVIS-Tools package.
data_TiP2
_symmetry_space_group_name_H-M  'Pnma'
_cell_length_a       3.38027
_cell_length_b       6.22742
_cell_length_c       8.30496
_cell_angle_alpha    90
_cell_angle_beta     90
_cell_angle_gamma    90

_symmetry_Int_Tables_number  62
_chemical_formula_structural  TiP2
_chemical_formula_sum  Ti4P8
_cell_volume  174.82221809705413
_cell_formula_units_Z  4
loop_
  _symmetry_equiv_pos_site_id
 _symmetry_equiv_pos_as_xyz
 1  'x, y, z'
loop_
 _atom_site_type_symbol
 _atom_site_label
 _atom_site_symmetry_multiplicity
 _atom_site_fract_x
 _atom_site_fract_y
 _atom_site_fract_z
 _atom_site_fract_occupancy
 P  P1  1  0.25000  0.41552  0.13913  1
 P  P2  1  0.75000  0.58448  0.86087  1
 P  P3  1  0.25000  0.91552  0.36087  1
 P  P4  1  0.75000  0.08448  0.63913  1
 P  P5  1  0.75000  0.12094  0.04025  1
 P  P6  1  0.25000  0.87906  0.95975  1
 P  P7  1  0.75000  0.62094  0.45975  1
 P  P8  1  0.25000  0.37906  0.54025  1
 Ti  Ti1  1  0.25000  0.76648  0.66575  1
 Ti  Ti2  1  0.75000  0.23352  0.33425  1
 Ti  Ti3  1  0.25000  0.26648  0.83425  1
 Ti  Ti4  1  0.75000  0.73352  0.16575  1
