CIF file written using JARVIS-Tools package.
data_NbSe3
_symmetry_space_group_name_H-M  'P2_1/m'
_cell_length_a       10.1656
_cell_length_b       3.52096
_cell_length_c       15.8448
_cell_angle_alpha    90
_cell_angle_beta     109.445
_cell_angle_gamma    90

_symmetry_Int_Tables_number  11
_chemical_formula_structural  NbSe3
_chemical_formula_sum  Nb6Se8
_cell_volume  534.7825686190631
_cell_formula_units_Z  6
loop_
  _symmetry_equiv_pos_site_id
 _symmetry_equiv_pos_as_xyz
 1  'x, y, z'
loop_
 _atom_site_type_symbol
 _atom_site_label
 _atom_site_symmetry_multiplicity
 _atom_site_fract_x
 _atom_site_fract_y
 _atom_site_fract_z
 _atom_site_fract_occupancy
 Nb  Nb1  1  0.70565  0.25000  0.53868  1
 Nb  Nb2  1  0.29435  0.75000  0.46132  1
 Nb  Nb3  1  0.31894  0.25000  0.20717  1
 Nb  Nb4  1  0.68106  0.75000  0.79283  1
 Nb  Nb5  1  0.34601  0.25000  0.88254  1
 Nb  Nb6  1  0.65399  0.75000  0.11746  1
 Se  Se1  1  0.24714  0.25000  0.57613  1
 Se  Se2  1  0.75286  0.75000  0.42387  1
 Se  Se3  1  0.44402  0.25000  0.40590  1
 Se  Se4  1  0.55598  0.75000  0.59410  1
 Se  Se5  1  0.08465  0.25000  0.42446  1
 Se  Se6  1  0.52809  0.75000  0.24845  1
 Se  Se7  1  0.55608  0.75000  0.93257  1
 Se  Se8  1  0.91535  0.75000  0.57554  1
 Se  Se9  1  0.19614  0.75000  0.76262  1
 Se  Se10  1  0.83175  0.25000  0.08468  1
 Se  Se11  1  0.44392  0.25000  0.06743  1
 Se  Se12  1  0.80386  0.25000  0.23738  1
 Se  Se13  1  0.16755  0.75000  0.08832  1
 Se  Se14  1  0.83245  0.25000  0.91168  1
 Se  Se15  1  0.18147  0.75000  0.27618  1
 Se  Se16  1  0.81853  0.25000  0.72382  1
 Se  Se17  1  0.16825  0.75000  0.91532  1
 Se  Se18  1  0.47191  0.25000  0.75155  1
