CIF file written using JARVIS-Tools package.
data_Na2LiN
_symmetry_space_group_name_H-M  'P6/mmm'
_cell_length_a       4.44725
_cell_length_b       4.44725
_cell_length_c       3.81829
_cell_angle_alpha    90
_cell_angle_beta     90
_cell_angle_gamma    120

_symmetry_Int_Tables_number  191
_chemical_formula_structural  Na2LiN
_chemical_formula_sum  Na2LiN
_cell_volume  65.40043819759393
_cell_formula_units_Z  1
loop_
  _symmetry_equiv_pos_site_id
 _symmetry_equiv_pos_as_xyz
 1  'x, y, z'
loop_
 _atom_site_type_symbol
 _atom_site_label
 _atom_site_symmetry_multiplicity
 _atom_site_fract_x
 _atom_site_fract_y
 _atom_site_fract_z
 _atom_site_fract_occupancy
 Li  Li1  1  0.00000  0.00000  0.50000  1
 N  N1  1  0.00000  0.00000  0.00000  1
 Na  Na1  1  0.66667  0.33333  0.00000  1
 Na  Na2  1  0.33333  0.66667  0.00000  1
