CIF file written using JARVIS-Tools package.
data_UP2S6
_symmetry_space_group_name_H-M  'P4_2/m'
_cell_length_a       6.88676
_cell_length_b       6.88676
_cell_length_c       9.73979
_cell_angle_alpha    90
_cell_angle_beta     90
_cell_angle_gamma    90

_symmetry_Int_Tables_number  84
_chemical_formula_structural  UP2S6
_chemical_formula_sum  U2P4S2
_cell_volume  461.93410278901064
_cell_formula_units_Z  2
loop_
  _symmetry_equiv_pos_site_id
 _symmetry_equiv_pos_as_xyz
 1  'x, y, z'
loop_
 _atom_site_type_symbol
 _atom_site_label
 _atom_site_symmetry_multiplicity
 _atom_site_fract_x
 _atom_site_fract_y
 _atom_site_fract_z
 _atom_site_fract_occupancy
 P  P1  1  0.06216  0.34431  0.50000  1
 P  P2  1  0.93784  0.65569  0.50000  1
 P  P3  1  0.34431  0.93784  0.00000  1
 P  P4  1  0.65569  0.06216  0.00000  1
 S  S1  1  0.68804  0.21910  0.82467  1
 S  S2  1  0.21910  0.31196  0.67533  1
 S  S3  1  0.68804  0.21910  0.17533  1
 S  S4  1  0.78090  0.68804  0.67533  1
 S  S5  1  0.82055  0.16887  0.50000  1
 S  S6  1  0.16887  0.17945  0.00000  1
 S  S7  1  0.31196  0.78090  0.17533  1
 S  S8  1  0.21910  0.31196  0.32467  1
 S  S9  1  0.17945  0.83113  0.50000  1
 S  S10  1  0.31196  0.78090  0.82467  1
 S  S11  1  0.78090  0.68804  0.32467  1
 S  S12  1  0.83113  0.82055  0.00000  1
 U  U1  1  0.00000  0.00000  0.25000  1
 U  U2  1  0.00000  0.00000  0.75000  1
