CIF file written using JARVIS-Tools package.
data_Si3N2
_symmetry_space_group_name_H-M  'Pm-3m'
_cell_length_a       6.71353
_cell_length_b       6.71353
_cell_length_c       6.71353
_cell_angle_alpha    90
_cell_angle_beta     90
_cell_angle_gamma    90

_symmetry_Int_Tables_number  221
_chemical_formula_structural  Si3N2
_chemical_formula_sum  Si2N8
_cell_volume  302.5882982412174
_cell_formula_units_Z  4
loop_
  _symmetry_equiv_pos_site_id
 _symmetry_equiv_pos_as_xyz
 1  'x, y, z'
loop_
 _atom_site_type_symbol
 _atom_site_label
 _atom_site_symmetry_multiplicity
 _atom_site_fract_x
 _atom_site_fract_y
 _atom_site_fract_z
 _atom_site_fract_occupancy
 N  N1  1  0.27887  0.72113  0.27887  1
 N  N2  1  0.27887  0.27887  0.72113  1
 N  N3  1  0.72113  0.27887  0.72113  1
 N  N4  1  0.27887  0.72113  0.72113  1
 N  N5  1  0.27887  0.27887  0.27887  1
 N  N6  1  0.72113  0.72113  0.27887  1
 N  N7  1  0.72113  0.27887  0.27887  1
 N  N8  1  0.72113  0.72113  0.72113  1
 Si  Si1  1  0.50000  0.17837  0.82163  1
 Si  Si2  1  0.17837  0.17837  0.50000  1
 Si  Si3  1  0.82163  0.82163  0.50000  1
 Si  Si4  1  0.50000  0.82163  0.17837  1
 Si  Si5  1  0.17837  0.50000  0.82163  1
 Si  Si6  1  0.50000  0.17837  0.17837  1
 Si  Si7  1  0.50000  0.82163  0.82163  1
 Si  Si8  1  0.82163  0.50000  0.17837  1
 Si  Si9  1  0.82163  0.50000  0.82163  1
 Si  Si10  1  0.17837  0.50000  0.17837  1
 Si  Si11  1  0.82163  0.17837  0.50000  1
 Si  Si12  1  0.17837  0.82163  0.50000  1
