CIF file written using JARVIS-Tools package.
data_Nb3SnS6
_symmetry_space_group_name_H-M  'P6_3/mcm'
_cell_length_a       5.84964
_cell_length_b       5.84964
_cell_length_c       14.5605
_cell_angle_alpha    90
_cell_angle_beta     90
_cell_angle_gamma    120

_symmetry_Int_Tables_number  193
_chemical_formula_structural  Nb3SnS6
_chemical_formula_sum  Nb6Sn2S2
_cell_volume  431.486133390711
_cell_formula_units_Z  2
loop_
  _symmetry_equiv_pos_site_id
 _symmetry_equiv_pos_as_xyz
 1  'x, y, z'
loop_
 _atom_site_type_symbol
 _atom_site_label
 _atom_site_symmetry_multiplicity
 _atom_site_fract_x
 _atom_site_fract_y
 _atom_site_fract_z
 _atom_site_fract_occupancy
 Nb  Nb1  1  0.00000  0.00000  0.25000  1
 Nb  Nb2  1  0.00000  0.00000  0.75000  1
 Nb  Nb3  1  0.33333  0.66667  0.25000  1
 Nb  Nb4  1  0.66667  0.33333  0.75000  1
 Nb  Nb5  1  0.66667  0.33333  0.25000  1
 Nb  Nb6  1  0.33333  0.66667  0.75000  1
 S  S1  1  0.00000  0.33628  0.14196  1
 S  S2  1  0.00000  0.33628  0.35804  1
 S  S3  1  0.33628  0.00000  0.14196  1
 S  S4  1  0.66372  -0.00000  0.64196  1
 S  S5  1  0.66372  0.66372  0.14196  1
 S  S6  1  -0.00000  0.66372  0.64196  1
 S  S7  1  0.66372  -0.00000  0.85804  1
 S  S8  1  0.33628  0.33628  0.85804  1
 S  S9  1  0.33628  0.00000  0.35804  1
 S  S10  1  0.66372  0.66372  0.35804  1
 S  S11  1  0.33628  0.33628  0.64196  1
 S  S12  1  -0.00000  0.66372  0.85804  1
 Sn  Sn1  1  0.00000  0.00000  0.00000  1
 Sn  Sn2  1  0.00000  0.00000  0.50000  1
