CIF file written using JARVIS-Tools package.
data_BaSrTa2O7
_symmetry_space_group_name_H-M  'Immm'
_cell_length_a       4.023
_cell_length_b       7.89224
_cell_length_c       11.1141
_cell_angle_alpha    110.797
_cell_angle_beta     100.427
_cell_angle_gamma    90

_symmetry_Int_Tables_number  71
_chemical_formula_structural  BaSrTa2O7
_chemical_formula_sum  Ba2Sr2Ta4O4
_cell_volume  323.6465273599489
_cell_formula_units_Z  2
loop_
  _symmetry_equiv_pos_site_id
 _symmetry_equiv_pos_as_xyz
 1  'x, y, z'
loop_
 _atom_site_type_symbol
 _atom_site_label
 _atom_site_symmetry_multiplicity
 _atom_site_fract_x
 _atom_site_fract_y
 _atom_site_fract_z
 _atom_site_fract_occupancy
 Ba  Ba1  1  0.73885  0.23885  0.47770  1
 Ba  Ba2  1  0.26115  0.76115  0.52230  1
 O  O1  1  0.92125  0.92125  0.84251  1
 O  O2  1  0.40771  0.15438  0.81543  1
 O  O3  1  0.80685  0.60549  0.61370  1
 O  O4  1  0.80685  0.00821  0.61370  1
 O  O5  1  -0.00000  0.71057  0.00000  1
 O  O6  1  0.59229  0.33895  0.18457  1
 O  O7  1  0.19315  0.39451  0.38630  1
 O  O8  1  0.00000  0.28943  -0.00000  1
 O  O9  1  0.19315  0.99179  0.38630  1
 O  O10  1  0.88636  0.38636  0.77272  1
 O  O11  1  0.07875  0.07875  0.15749  1
 O  O12  1  0.59229  0.84562  0.18457  1
 O  O13  1  0.40771  0.66105  0.81543  1
 O  O14  1  0.11364  0.61364  0.22728  1
 Sr  Sr1  1  0.50000  0.00000  -0.00000  1
 Sr  Sr2  1  0.50000  0.50000  0.00000  1
 Ta  Ta1  1  0.89717  0.64921  0.79433  1
 Ta  Ta2  1  0.89717  0.14512  0.79433  1
 Ta  Ta3  1  0.10283  0.35079  0.20567  1
 Ta  Ta4  1  0.10283  0.85488  0.20567  1
