CIF file written using JARVIS-Tools package.
data_YbFe4Ge2
_symmetry_space_group_name_H-M  'P4_2/mnm'
_cell_length_a       7.15589
_cell_length_b       7.15589
_cell_length_c       3.82302
_cell_angle_alpha    90
_cell_angle_beta     90
_cell_angle_gamma    90

_symmetry_Int_Tables_number  136
_chemical_formula_structural  YbFe4Ge2
_chemical_formula_sum  Yb2Fe8Ge4
_cell_volume  195.76406139635236
_cell_formula_units_Z  2
loop_
  _symmetry_equiv_pos_site_id
 _symmetry_equiv_pos_as_xyz
 1  'x, y, z'
loop_
 _atom_site_type_symbol
 _atom_site_label
 _atom_site_symmetry_multiplicity
 _atom_site_fract_x
 _atom_site_fract_y
 _atom_site_fract_z
 _atom_site_fract_occupancy
 Fe  Fe1  1  0.41241  0.85993  0.50000  1
 Fe  Fe2  1  0.85993  0.41241  0.50000  1
 Fe  Fe3  1  0.64007  0.91241  0.00000  1
 Fe  Fe4  1  0.08759  0.35993  0.00000  1
 Fe  Fe5  1  0.35993  0.08759  0.00000  1
 Fe  Fe6  1  0.58759  0.14007  0.50000  1
 Fe  Fe7  1  0.14007  0.58759  0.50000  1
 Fe  Fe8  1  0.91241  0.64007  0.00000  1
 Ge  Ge1  1  0.28338  0.28338  0.50000  1
 Ge  Ge2  1  0.78338  0.21662  0.00000  1
 Ge  Ge3  1  0.21662  0.78338  0.00000  1
 Ge  Ge4  1  0.71662  0.71662  0.50000  1
 Yb  Yb1  1  0.00000  0.00000  0.50000  1
 Yb  Yb2  1  0.50000  0.50000  0.00000  1
