CIF file written using JARVIS-Tools package.
data_NdCr2Si2
_symmetry_space_group_name_H-M  'C2/m'
_cell_length_a       3.94456
_cell_length_b       3.93866
_cell_length_c       6.09789
_cell_angle_alpha    73.8891
_cell_angle_beta     110.359
_cell_angle_gamma    88.2229

_symmetry_Int_Tables_number  12
_chemical_formula_structural  NdCr2Si2
_chemical_formula_sum  NdCr2Si2
_cell_volume  84.47181219009428
_cell_formula_units_Z  1
loop_
  _symmetry_equiv_pos_site_id
 _symmetry_equiv_pos_as_xyz
 1  'x, y, z'
loop_
 _atom_site_type_symbol
 _atom_site_label
 _atom_site_symmetry_multiplicity
 _atom_site_fract_x
 _atom_site_fract_y
 _atom_site_fract_z
 _atom_site_fract_occupancy
 Cr  Cr1  1  0.70394  0.79625  0.50020  1
 Cr  Cr2  1  0.29606  0.20375  0.49980  1
 Nd  Nd1  1  0.00000  0.00000  0.00000  1
 Si  Si1  1  0.35402  0.59687  0.75719  1
 Si  Si2  1  0.64598  0.40313  0.24281  1
