CIF file written using JARVIS-Tools package.
data_Na4Bi2O5
_symmetry_space_group_name_H-M  'P-1'
_cell_length_a       4.98241
_cell_length_b       8.86592
_cell_length_c       9.02197
_cell_angle_alpha    66.9751
_cell_angle_beta     74.4612
_cell_angle_gamma    73.5032

_symmetry_Int_Tables_number  2
_chemical_formula_structural  Na4Bi2O5
_chemical_formula_sum  Na8Bi4O0
_cell_volume  346.087302839899
_cell_formula_units_Z  2
loop_
  _symmetry_equiv_pos_site_id
 _symmetry_equiv_pos_as_xyz
 1  'x, y, z'
loop_
 _atom_site_type_symbol
 _atom_site_label
 _atom_site_symmetry_multiplicity
 _atom_site_fract_x
 _atom_site_fract_y
 _atom_site_fract_z
 _atom_site_fract_occupancy
 Bi  Bi1  1  0.76062  0.12559  0.86816  1
 Bi  Bi2  1  0.41848  0.43819  0.23284  1
 Bi  Bi3  1  0.58152  0.56181  0.76716  1
 Bi  Bi4  1  0.23938  0.87441  0.13184  1
 Na  Na1  1  0.92023  0.20290  0.45245  1
 Na  Na2  1  0.41186  0.99399  0.67421  1
 Na  Na3  1  0.07977  0.79710  0.54755  1
 Na  Na4  1  0.09164  0.29752  0.03938  1
 Na  Na5  1  0.90836  0.70248  0.96062  1
 Na  Na6  1  0.24993  0.38085  0.62403  1
 Na  Na7  1  0.58814  0.00601  0.32579  1
 Na  Na8  1  0.75007  0.61915  0.37597  1
 O  O1  1  0.11190  0.02647  0.27491  1
 O  O2  1  0.75057  0.38105  0.64242  1
 O  O3  1  0.14913  0.54521  0.79447  1
 O  O4  1  0.24943  0.61895  0.35758  1
 O  O5  1  0.88810  0.97353  0.72509  1
 O  O6  1  0.41662  0.22365  0.44043  1
 O  O7  1  0.19664  0.12159  0.88098  1
 O  O8  1  0.80336  0.87841  0.11902  1
 O  O9  1  0.58338  0.77635  0.55957  1
 O  O10  1  0.85087  0.45479  0.20553  1
