data_image0
_chemical_formula_structural       Pt3Rb2S4
_chemical_formula_sum              "Pt3 Rb2 S4"
_cell_length_a       6.37052
_cell_length_b       6.37052
_cell_length_c       7.3365
_cell_angle_alpha    103.083
_cell_angle_beta     103.083
_cell_angle_gamma    118.595

_space_group_name_H-M_alt    "P 1"
_space_group_IT_number       1

loop_
  _space_group_symop_operation_xyz
  'x, y, z'

loop_
  _atom_site_type_symbol
  _atom_site_label
  _atom_site_symmetry_multiplicity
  _atom_site_fract_x
  _atom_site_fract_y
  _atom_site_fract_z
  _atom_site_occupancy
  Pt  Pt1       1.0  0.00000  0.00000  0.00000  1.0000
  Pt  Pt2       1.0  0.50000  0.00000  0.00000  1.0000
  Pt  Pt3       1.0  0.00000  0.50000  0.00000  1.0000
  Rb  Rb1       1.0  0.65200  0.65200  0.30400  1.0000
  Rb  Rb2       1.0  0.34800  0.34800  0.69600  1.0000
  S   S1        1.0  0.94400  0.28100  0.22500  1.0000
  S   S2        1.0  0.28100  0.94400  0.22500  1.0000
  S   S3        1.0  0.71900  0.05620  0.77500  1.0000
  S   S4        1.0  0.05620  0.71900  0.77500  1.0000
