CIF file written using JARVIS-Tools package.
data_ZrMnSi
_symmetry_space_group_name_H-M  'Pnma'
_cell_length_a       4.08463
_cell_length_b       6.49966
_cell_length_c       6.92124
_cell_angle_alpha    90
_cell_angle_beta     90
_cell_angle_gamma    90

_symmetry_Int_Tables_number  62
_chemical_formula_structural  ZrMnSi
_chemical_formula_sum  Zr4Mn4Si4
_cell_volume  183.75028663254676
_cell_formula_units_Z  4
loop_
  _symmetry_equiv_pos_site_id
 _symmetry_equiv_pos_as_xyz
 1  'x, y, z'
loop_
 _atom_site_type_symbol
 _atom_site_label
 _atom_site_symmetry_multiplicity
 _atom_site_fract_x
 _atom_site_fract_y
 _atom_site_fract_z
 _atom_site_fract_occupancy
 Mn  Mn1  1  0.75000  0.34056  0.93878  1
 Mn  Mn2  1  0.25000  0.15944  0.43878  1
 Mn  Mn3  1  0.75000  0.84056  0.56122  1
 Mn  Mn4  1  0.25000  0.65944  0.06122  1
 Si  Si1  1  0.25000  0.29389  0.10522  1
 Si  Si2  1  0.25000  0.79389  0.39478  1
 Si  Si3  1  0.75000  0.70611  0.89478  1
 Si  Si4  1  0.75000  0.20611  0.60522  1
 Zr  Zr1  1  0.25000  0.48684  0.69626  1
 Zr  Zr2  1  0.25000  -0.01316  0.80374  1
 Zr  Zr3  1  0.75000  0.01316  0.19626  1
 Zr  Zr4  1  0.75000  0.51316  0.30374  1
