CIF file written using JARVIS-Tools package.
data_Lu2Cr2C3
_symmetry_space_group_name_H-M  'C2/m'
_cell_length_a       3.28661
_cell_length_b       5.43855
_cell_length_c       5.45899
_cell_angle_alpha    105.748
_cell_angle_beta     107.519
_cell_angle_gamma    90

_symmetry_Int_Tables_number  12
_chemical_formula_structural  Lu2Cr2C3
_chemical_formula_sum  Lu2Cr2C3
_cell_volume  89.20176784944185
_cell_formula_units_Z  1
loop_
  _symmetry_equiv_pos_site_id
 _symmetry_equiv_pos_as_xyz
 1  'x, y, z'
loop_
 _atom_site_type_symbol
 _atom_site_label
 _atom_site_symmetry_multiplicity
 _atom_site_fract_x
 _atom_site_fract_y
 _atom_site_fract_z
 _atom_site_fract_occupancy
 C  C1  1  0.28002  0.23804  0.56004  1
 C  C2  1  0.71998  0.76196  0.43996  1
 C  C3  1  0.00000  0.00000  0.00000  1
 Cr  Cr1  1  0.84550  0.11671  0.69101  1
 Cr  Cr2  1  0.15450  0.88329  0.30899  1
 Lu  Lu1  1  0.60872  0.31612  0.21745  1
 Lu  Lu2  1  0.39128  0.68388  0.78255  1
