CIF file written using JARVIS-Tools package.
data_Na3Ni2SbO6
_symmetry_space_group_name_H-M  'C2/m'
_cell_length_a       5.35984
_cell_length_b       5.35984
_cell_length_c       5.6105
_cell_angle_alpha    99.0799
_cell_angle_beta     99.08
_cell_angle_gamma    119.988

_symmetry_Int_Tables_number  12
_chemical_formula_structural  Na3Ni2SbO6
_chemical_formula_sum  Na3Ni2SbO6
_cell_volume  132.46727096714636
_cell_formula_units_Z  1
loop_
  _symmetry_equiv_pos_site_id
 _symmetry_equiv_pos_as_xyz
 1  'x, y, z'
loop_
 _atom_site_type_symbol
 _atom_site_label
 _atom_site_symmetry_multiplicity
 _atom_site_fract_x
 _atom_site_fract_y
 _atom_site_fract_z
 _atom_site_fract_occupancy
 Na  Na1  1  0.50000  0.50000  0.50000  1
 Na  Na2  1  0.17625  0.82375  0.50000  1
 Na  Na3  1  0.82375  0.17625  0.50000  1
 Ni  Ni1  1  0.33382  0.66618  1.00000  1
 Ni  Ni2  1  0.66618  0.33382  1.00000  1
 O  O1  1  0.06830  0.38947  0.20524  1
 O  O2  1  0.25209  0.25209  0.79354  1
 O  O3  1  0.74791  0.74791  0.20646  1
 O  O4  1  0.38947  0.06830  0.20524  1
 O  O5  1  0.61053  0.93169  0.79476  1
 O  O6  1  0.93169  0.61053  0.79476  1
 Sb  Sb1  1  0.00000  0.00000  0.00000  1
