CIF file written using JARVIS-Tools package.
data_MnSb2S4
_symmetry_space_group_name_H-M  'C2/m'
_cell_length_a       3.84021
_cell_length_b       6.59807
_cell_length_c       13.6514
_cell_angle_alpha    87.2506
_cell_angle_beta     81.9144
_cell_angle_gamma    73.0815

_symmetry_Int_Tables_number  12
_chemical_formula_structural  MnSb2S4
_chemical_formula_sum  Mn2Sb4S8
_cell_volume  327.62867951450676
_cell_formula_units_Z  2
loop_
  _symmetry_equiv_pos_site_id
 _symmetry_equiv_pos_as_xyz
 1  'x, y, z'
loop_
 _atom_site_type_symbol
 _atom_site_label
 _atom_site_symmetry_multiplicity
 _atom_site_fract_x
 _atom_site_fract_y
 _atom_site_fract_z
 _atom_site_fract_occupancy
 Mn  Mn1  1  0.00000  0.50000  0.50000  1
 Mn  Mn2  1  0.00000  0.00000  0.00000  1
 S  S1  1  0.39250  0.76080  0.45420  1
 S  S2  1  0.60750  0.23920  0.54580  1
 S  S3  1  0.00891  0.15134  0.83083  1
 S  S4  1  0.99109  0.84866  0.16917  1
 S  S5  1  0.34379  0.27258  0.03984  1
 S  S6  1  0.65621  0.72742  0.96016  1
 S  S7  1  0.16343  0.34775  0.32540  1
 S  S8  1  0.83657  0.65225  0.67460  1
 Sb  Sb1  1  0.35385  0.42628  0.86601  1
 Sb  Sb2  1  0.64615  0.57372  0.13399  1
 Sb  Sb3  1  0.22668  0.91880  0.62783  1
 Sb  Sb4  1  0.77332  0.08120  0.37217  1
