CIF file written using JARVIS-Tools package.
data_Sm3Si2Cl5O6
_symmetry_space_group_name_H-M  'C2/m'
_cell_length_a       7.51131
_cell_length_b       7.51132
_cell_length_c       11.9037
_cell_angle_alpha    80.6164
_cell_angle_beta     80.6164
_cell_angle_gamma    89.038

_symmetry_Int_Tables_number  12
_chemical_formula_structural  Sm3Si2Cl5O6
_chemical_formula_sum  Sm6Si4Cl0O2
_cell_volume  653.7175300036841
_cell_formula_units_Z  2
loop_
  _symmetry_equiv_pos_site_id
 _symmetry_equiv_pos_as_xyz
 1  'x, y, z'
loop_
 _atom_site_type_symbol
 _atom_site_label
 _atom_site_symmetry_multiplicity
 _atom_site_fract_x
 _atom_site_fract_y
 _atom_site_fract_z
 _atom_site_fract_occupancy
 Cl  Cl1  1  0.24013  0.24013  0.32859  1
 Cl  Cl2  1  0.68758  0.09950  0.42068  1
 Cl  Cl3  1  0.90050  0.31242  0.57932  1
 Cl  Cl4  1  0.09950  0.68758  0.42068  1
 Cl  Cl5  1  0.31940  0.31940  0.99573  1
 Cl  Cl6  1  0.75987  0.75987  0.67141  1
 Cl  Cl7  1  0.31242  0.90050  0.57932  1
 Cl  Cl8  1  0.38642  0.38642  0.64023  1
 Cl  Cl9  1  0.61358  0.61358  0.35977  1
 Cl  Cl10  1  0.68060  0.68060  0.00427  1
 O  O1  1  0.30398  0.86843  0.17287  1
 O  O2  1  0.14522  0.85478  0.00000  1
 O  O3  1  0.86843  0.30398  0.17287  1
 O  O4  1  0.13157  0.69602  0.82713  1
 O  O5  1  0.60876  0.04231  0.17266  1
 O  O6  1  0.04231  0.60876  0.17266  1
 O  O7  1  0.95769  0.39124  0.82734  1
 O  O8  1  0.04720  0.04720  0.80953  1
 O  O9  1  0.85478  0.14522  -0.00000  1
 O  O10  1  0.39124  0.95769  0.82734  1
 O  O11  1  0.95280  0.95280  0.19047  1
 O  O12  1  0.69602  0.13157  0.82713  1
 Si  Si1  1  0.10927  0.81779  0.14343  1
 Si  Si2  1  0.81779  0.10927  0.14343  1
 Si  Si3  1  0.18221  0.89073  0.85657  1
 Si  Si4  1  0.89073  0.18221  0.85657  1
 Sm  Sm1  1  -0.00000  0.50000  -0.00000  1
 Sm  Sm2  1  0.58673  0.08121  0.66698  1
 Sm  Sm3  1  0.08121  0.58673  0.66698  1
 Sm  Sm4  1  0.41327  0.91879  0.33302  1
 Sm  Sm5  1  0.50000  -0.00000  -0.00000  1
 Sm  Sm6  1  0.91879  0.41327  0.33302  1
