CIF file written using JARVIS-Tools package.
data_TmSiRu
_symmetry_space_group_name_H-M  'Pnma'
_cell_length_a       4.3028
_cell_length_b       6.90311
_cell_length_c       7.08802
_cell_angle_alpha    90
_cell_angle_beta     90
_cell_angle_gamma    90

_symmetry_Int_Tables_number  62
_chemical_formula_structural  TmSiRu
_chemical_formula_sum  Tm4Si4Ru4
_cell_volume  210.53343917559974
_cell_formula_units_Z  4
loop_
  _symmetry_equiv_pos_site_id
 _symmetry_equiv_pos_as_xyz
 1  'x, y, z'
loop_
 _atom_site_type_symbol
 _atom_site_label
 _atom_site_symmetry_multiplicity
 _atom_site_fract_x
 _atom_site_fract_y
 _atom_site_fract_z
 _atom_site_fract_occupancy
 Ru  Ru1  1  0.75000  0.84415  0.56565  1
 Ru  Ru2  1  0.25000  0.15585  0.43435  1
 Ru  Ru3  1  0.75000  0.34415  0.93435  1
 Ru  Ru4  1  0.25000  0.65585  0.06565  1
 Si  Si1  1  0.25000  0.30150  0.10676  1
 Si  Si2  1  0.75000  0.69850  0.89324  1
 Si  Si3  1  0.25000  0.80150  0.39324  1
 Si  Si4  1  0.75000  0.19850  0.60676  1
 Tm  Tm1  1  0.25000  0.98709  0.81221  1
 Tm  Tm2  1  0.75000  0.01291  0.18779  1
 Tm  Tm3  1  0.25000  0.48709  0.68779  1
 Tm  Tm4  1  0.75000  0.51291  0.31221  1
