CIF file written using JARVIS-Tools package.
data_NaUBO5
_symmetry_space_group_name_H-M  'Pbcm'
_cell_length_a       5.84599
_cell_length_b       6.86164
_cell_length_c       10.6664
_cell_angle_alpha    90
_cell_angle_beta     90
_cell_angle_gamma    90

_symmetry_Int_Tables_number  57
_chemical_formula_structural  NaUBO5
_chemical_formula_sum  Na4U4B4O20
_cell_volume  427.8618487514137
_cell_formula_units_Z  4
loop_
  _symmetry_equiv_pos_site_id
 _symmetry_equiv_pos_as_xyz
 1  'x, y, z'
loop_
 _atom_site_type_symbol
 _atom_site_label
 _atom_site_symmetry_multiplicity
 _atom_site_fract_x
 _atom_site_fract_y
 _atom_site_fract_z
 _atom_site_fract_occupancy
 B  B1  1  0.79464  0.75000  0.85085  1
 B  B2  1  0.79464  0.25000  0.64915  1
 B  B3  1  0.20536  0.75000  0.35085  1
 B  B4  1  0.20536  0.25000  0.14915  1
 Na  Na1  1  0.61052  0.00000  0.25000  1
 Na  Na2  1  0.38948  0.00000  0.75000  1
 Na  Na3  1  0.61052  0.50000  0.25000  1
 Na  Na4  1  0.38948  0.50000  0.75000  1
 O  O1  1  0.86552  0.58186  0.91137  1
 O  O2  1  0.14836  0.75000  0.67289  1
 O  O3  1  0.86552  0.91814  0.91137  1
 O  O4  1  0.85164  0.75000  0.17289  1
 O  O5  1  0.13448  0.08186  0.08863  1
 O  O6  1  0.67797  0.75000  0.73933  1
 O  O7  1  0.13448  0.91814  0.41137  1
 O  O8  1  0.32203  0.25000  0.26067  1
 O  O9  1  0.65466  0.25000  0.04707  1
 O  O10  1  0.86552  0.08186  0.58863  1
 O  O11  1  0.13448  0.58186  0.41137  1
 O  O12  1  0.67797  0.25000  0.76067  1
 O  O13  1  0.86552  0.41814  0.58863  1
 O  O14  1  0.14836  0.25000  0.82711  1
 O  O15  1  0.65466  0.75000  0.45293  1
 O  O16  1  0.13448  0.41814  0.08863  1
 O  O17  1  0.34534  0.75000  0.95293  1
 O  O18  1  0.34534  0.25000  0.54707  1
 O  O19  1  0.32203  0.75000  0.23933  1
 O  O20  1  0.85164  0.25000  0.32711  1
 U  U1  1  0.10288  0.75000  0.06495  1
 U  U2  1  0.89712  0.25000  0.93505  1
 U  U3  1  0.10288  0.25000  0.43505  1
 U  U4  1  0.89712  0.75000  0.56495  1
