CIF file written using JARVIS-Tools package.
data_BaBiClO2
_symmetry_space_group_name_H-M  'Cmcm'
_cell_length_a       5.9515
_cell_length_b       5.77293
_cell_length_c       7.16141
_cell_angle_alpha    90
_cell_angle_beta     114.552
_cell_angle_gamma    90

_symmetry_Int_Tables_number  63
_chemical_formula_structural  BaBiClO2
_chemical_formula_sum  Ba2Bi2Cl2O4
_cell_volume  223.8012736734984
_cell_formula_units_Z  2
loop_
  _symmetry_equiv_pos_site_id
 _symmetry_equiv_pos_as_xyz
 1  'x, y, z'
loop_
 _atom_site_type_symbol
 _atom_site_label
 _atom_site_symmetry_multiplicity
 _atom_site_fract_x
 _atom_site_fract_y
 _atom_site_fract_z
 _atom_site_fract_occupancy
 Ba  Ba1  1  0.38017  0.25000  0.76033  1
 Ba  Ba2  1  0.61983  0.75000  0.23967  1
 Bi  Bi1  1  0.07726  0.25000  0.15453  1
 Bi  Bi2  1  0.92274  0.75000  0.84547  1
 Cl  Cl1  1  0.74632  0.25000  0.49263  1
 Cl  Cl2  1  0.25368  0.75000  0.50737  1
 O  O1  1  0.22839  0.50001  -0.00000  1
 O  O2  1  0.77161  0.49999  0.00000  1
 O  O3  1  0.22839  -0.00001  -0.00000  1
 O  O4  1  0.77161  0.00001  0.00000  1
