CIF file written using JARVIS-Tools package.
data_C
_symmetry_space_group_name_H-M  'P6/mmm'
_cell_length_a       2.46463
_cell_length_b       2.46464
_cell_length_c       3.56933
_cell_angle_alpha    89.9999
_cell_angle_beta     90.0002
_cell_angle_gamma    120

_symmetry_Int_Tables_number  191
_chemical_formula_structural  C
_chemical_formula_sum  C2
_cell_volume  18.776848199752333
_cell_formula_units_Z  2
loop_
  _symmetry_equiv_pos_site_id
 _symmetry_equiv_pos_as_xyz
 1  'x, y, z'
loop_
 _atom_site_type_symbol
 _atom_site_label
 _atom_site_symmetry_multiplicity
 _atom_site_fract_x
 _atom_site_fract_y
 _atom_site_fract_z
 _atom_site_fract_occupancy
 C  C1  1  0.83333  0.66667  -0.00000  1
 C  C2  1  0.16667  0.33333  0.00000  1
