CIF file written using JARVIS-Tools package.
data_DyCoSn
_symmetry_space_group_name_H-M  'Pnma'
_cell_length_a       4.58115
_cell_length_b       7.29202
_cell_length_c       7.21225
_cell_angle_alpha    90
_cell_angle_beta     90
_cell_angle_gamma    90

_symmetry_Int_Tables_number  62
_chemical_formula_structural  DyCoSn
_chemical_formula_sum  Dy4Co4Sn4
_cell_volume  240.93137837438582
_cell_formula_units_Z  4
loop_
  _symmetry_equiv_pos_site_id
 _symmetry_equiv_pos_as_xyz
 1  'x, y, z'
loop_
 _atom_site_type_symbol
 _atom_site_label
 _atom_site_symmetry_multiplicity
 _atom_site_fract_x
 _atom_site_fract_y
 _atom_site_fract_z
 _atom_site_fract_occupancy
 Co  Co1  1  0.25000  0.93791  0.66363  1
 Co  Co2  1  0.75000  0.43791  0.83637  1
 Co  Co3  1  0.25000  0.56209  0.16363  1
 Co  Co4  1  0.75000  0.06209  0.33637  1
 Dy  Dy1  1  0.75000  0.69956  0.52350  1
 Dy  Dy2  1  0.25000  0.30044  0.47650  1
 Dy  Dy3  1  0.75000  0.80044  0.02350  1
 Dy  Dy4  1  0.25000  0.19956  0.97650  1
 Sn  Sn1  1  0.75000  0.39468  0.20023  1
 Sn  Sn2  1  0.25000  0.89468  0.29977  1
 Sn  Sn3  1  0.75000  0.10532  0.70023  1
 Sn  Sn4  1  0.25000  0.60532  0.79977  1
