CIF file written using JARVIS-Tools package.
data_KNb4O5F
_symmetry_space_group_name_H-M  'P4/mmm'
_cell_length_a       4.2089
_cell_length_b       4.2089
_cell_length_c       8.46137
_cell_angle_alpha    90
_cell_angle_beta     90
_cell_angle_gamma    90

_symmetry_Int_Tables_number  123
_chemical_formula_structural  KNb4O5F
_chemical_formula_sum  KNb4O5F
_cell_volume  149.8920789064944
_cell_formula_units_Z  1
loop_
  _symmetry_equiv_pos_site_id
 _symmetry_equiv_pos_as_xyz
 1  'x, y, z'
loop_
 _atom_site_type_symbol
 _atom_site_label
 _atom_site_symmetry_multiplicity
 _atom_site_fract_x
 _atom_site_fract_y
 _atom_site_fract_z
 _atom_site_fract_occupancy
 F  F1  1  0.50000  0.50000  0.50000  1
 K  K1  1  0.00000  0.00000  0.50000  1
 Nb  Nb1  1  0.50000  0.50000  0.23844  1
 Nb  Nb2  1  0.50000  0.50000  0.76156  1
 Nb  Nb3  1  0.50000  0.00000  0.00000  1
 Nb  Nb4  1  0.00000  0.50000  0.00000  1
 O  O1  1  0.00000  0.50000  0.25141  1
 O  O2  1  0.00000  0.50000  0.74859  1
 O  O3  1  0.50000  0.00000  0.25141  1
 O  O4  1  0.00000  0.00000  0.00000  1
 O  O5  1  0.50000  0.00000  0.74859  1
