CIF file written using JARVIS-Tools package.
data_DySiIr
_symmetry_space_group_name_H-M  'Pnma'
_cell_length_a       4.25693
_cell_length_b       6.88014
_cell_length_c       7.41305
_cell_angle_alpha    90
_cell_angle_beta     90
_cell_angle_gamma    90

_symmetry_Int_Tables_number  62
_chemical_formula_structural  DySiIr
_chemical_formula_sum  Dy4Si4Ir4
_cell_volume  217.1156508780059
_cell_formula_units_Z  4
loop_
  _symmetry_equiv_pos_site_id
 _symmetry_equiv_pos_as_xyz
 1  'x, y, z'
loop_
 _atom_site_type_symbol
 _atom_site_label
 _atom_site_symmetry_multiplicity
 _atom_site_fract_x
 _atom_site_fract_y
 _atom_site_fract_z
 _atom_site_fract_occupancy
 Dy  Dy1  1  0.75000  0.50116  0.81298  1
 Dy  Dy2  1  0.25000  0.99884  0.31298  1
 Dy  Dy3  1  0.75000  0.00116  0.68702  1
 Dy  Dy4  1  0.25000  0.49884  0.18702  1
 Ir  Ir1  1  0.25000  0.65988  0.57110  1
 Ir  Ir2  1  0.25000  0.15988  0.92890  1
 Ir  Ir3  1  0.75000  0.84012  0.07110  1
 Ir  Ir4  1  0.75000  0.34012  0.42890  1
 Si  Si1  1  0.25000  0.79953  0.89270  1
 Si  Si2  1  0.25000  0.29953  0.60730  1
 Si  Si3  1  0.75000  0.20047  0.10730  1
 Si  Si4  1  0.75000  0.70047  0.39270  1
