CIF file written using JARVIS-Tools package.
data_RbMnSe2
_symmetry_space_group_name_H-M  'I-4m2'
_cell_length_a       3.98146
_cell_length_b       3.98145
_cell_length_c       7.56551
_cell_angle_alpha    105.256
_cell_angle_beta     105.256
_cell_angle_gamma    90

_symmetry_Int_Tables_number  119
_chemical_formula_structural  RbMnSe2
_chemical_formula_sum  RbMnSe2
_cell_volume  111.3152906399787
_cell_formula_units_Z  1
loop_
  _symmetry_equiv_pos_site_id
 _symmetry_equiv_pos_as_xyz
 1  'x, y, z'
loop_
 _atom_site_type_symbol
 _atom_site_label
 _atom_site_symmetry_multiplicity
 _atom_site_fract_x
 _atom_site_fract_y
 _atom_site_fract_z
 _atom_site_fract_occupancy
 Mn  Mn1  1  0.25000  0.75000  0.50000  1
 Rb  Rb1  1  0.00000  0.00000  0.00000  1
 Se  Se1  1  0.65025  0.65025  0.30049  1
 Se  Se2  1  0.34975  0.34975  0.69951  1
