CIF file written using JARVIS-Tools package.
data_Ge
_symmetry_space_group_name_H-M  'R-3'
_cell_length_a       6.13197
_cell_length_b       6.13196
_cell_length_c       6.13197
_cell_angle_alpha    109.972
_cell_angle_beta     109.972
_cell_angle_gamma    109.972

_symmetry_Int_Tables_number  148
_chemical_formula_structural  Ge
_chemical_formula_sum  Ge8
_cell_volume  174.12178237949962
_cell_formula_units_Z  8
loop_
  _symmetry_equiv_pos_site_id
 _symmetry_equiv_pos_as_xyz
 1  'x, y, z'
loop_
 _atom_site_type_symbol
 _atom_site_label
 _atom_site_symmetry_multiplicity
 _atom_site_fract_x
 _atom_site_fract_y
 _atom_site_fract_z
 _atom_site_fract_occupancy
 Ge  Ge1  1  0.28517  0.28517  0.28517  1
 Ge  Ge2  1  0.71483  0.71483  0.71483  1
 Ge  Ge3  1  0.46870  0.97188  0.27657  1
 Ge  Ge4  1  0.27657  0.46870  0.97188  1
 Ge  Ge5  1  0.97188  0.27657  0.46870  1
 Ge  Ge6  1  0.53130  0.02812  0.72343  1
 Ge  Ge7  1  0.72343  0.53130  0.02812  1
 Ge  Ge8  1  0.02812  0.72343  0.53130  1
