CIF file written using JARVIS-Tools package.
data_Tb3Mn4Ge4
_symmetry_space_group_name_H-M  'Immm'
_cell_length_a       4.11636
_cell_length_b       7.0489
_cell_length_c       7.96477
_cell_angle_alpha    116.262
_cell_angle_beta     104.974
_cell_angle_gamma    90.0016

_symmetry_Int_Tables_number  71
_chemical_formula_structural  Tb3Mn4Ge4
_chemical_formula_sum  Tb3Mn4Ge4
_cell_volume  198.46085629860767
_cell_formula_units_Z  1
loop_
  _symmetry_equiv_pos_site_id
 _symmetry_equiv_pos_as_xyz
 1  'x, y, z'
loop_
 _atom_site_type_symbol
 _atom_site_label
 _atom_site_symmetry_multiplicity
 _atom_site_fract_x
 _atom_site_fract_y
 _atom_site_fract_z
 _atom_site_fract_occupancy
 Ge  Ge1  1  0.22410  0.72237  0.44100  1
 Ge  Ge2  1  0.50364  0.20303  0.00006  1
 Ge  Ge3  1  0.50363  0.80078  0.00004  1
 Ge  Ge4  1  0.78321  0.28140  0.55911  1
 Mn  Mn1  1  0.32565  0.13442  0.64402  1
 Mn  Mn2  1  0.68164  0.49046  0.35610  1
 Mn  Mn3  1  0.32568  0.51332  0.64402  1
 Mn  Mn4  1  0.68164  0.86936  0.35607  1
 Tb  Tb1  1  0.87956  0.87785  0.75190  1
 Tb  Tb2  1  0.00364  0.50192  0.00006  1
 Tb  Tb3  1  0.12772  0.12597  0.24820  1
