CIF file written using JARVIS-Tools package.
data_HoSiIr
_symmetry_space_group_name_H-M  'Pnma'
_cell_length_a       4.2393
_cell_length_b       6.84128
_cell_length_c       7.41689
_cell_angle_alpha    90
_cell_angle_beta     90
_cell_angle_gamma    90

_symmetry_Int_Tables_number  62
_chemical_formula_structural  HoSiIr
_chemical_formula_sum  Ho4Si4Ir4
_cell_volume  215.10653701214426
_cell_formula_units_Z  4
loop_
  _symmetry_equiv_pos_site_id
 _symmetry_equiv_pos_as_xyz
 1  'x, y, z'
loop_
 _atom_site_type_symbol
 _atom_site_label
 _atom_site_symmetry_multiplicity
 _atom_site_fract_x
 _atom_site_fract_y
 _atom_site_fract_z
 _atom_site_fract_occupancy
 Ho  Ho1  1  0.75000  0.49974  0.81254  1
 Ho  Ho2  1  0.25000  0.00026  0.31254  1
 Ho  Ho3  1  0.75000  0.99974  0.68746  1
 Ho  Ho4  1  0.25000  0.50026  0.18746  1
 Ir  Ir1  1  0.25000  0.66034  0.57011  1
 Ir  Ir2  1  0.25000  0.16034  0.92989  1
 Ir  Ir3  1  0.75000  0.83966  0.07011  1
 Ir  Ir4  1  0.75000  0.33966  0.42989  1
 Si  Si1  1  0.25000  0.79834  0.89181  1
 Si  Si2  1  0.25000  0.29834  0.60819  1
 Si  Si3  1  0.75000  0.20166  0.10819  1
 Si  Si4  1  0.75000  0.70166  0.39181  1
