CIF file written using JARVIS-Tools package.
data_Ti2VS4
_symmetry_space_group_name_H-M  'C2/m'
_cell_length_a       3.37724
_cell_length_b       5.99561
_cell_length_c       6.71169
_cell_angle_alpha    115.952
_cell_angle_beta     104.572
_cell_angle_gamma    90

_symmetry_Int_Tables_number  12
_chemical_formula_structural  Ti2VS4
_chemical_formula_sum  Ti2VS4
_cell_volume  117.31722758656161
_cell_formula_units_Z  1
loop_
  _symmetry_equiv_pos_site_id
 _symmetry_equiv_pos_as_xyz
 1  'x, y, z'
loop_
 _atom_site_type_symbol
 _atom_site_label
 _atom_site_symmetry_multiplicity
 _atom_site_fract_x
 _atom_site_fract_y
 _atom_site_fract_z
 _atom_site_fract_occupancy
 S  S1  1  0.11707  0.44725  0.23415  1
 S  S2  1  0.88293  0.55275  0.76585  1
 S  S3  1  0.37204  0.03609  0.74409  1
 S  S4  1  0.62796  0.96391  0.25591  1
 Ti  Ti1  1  0.25543  0.27760  0.51086  1
 Ti  Ti2  1  0.74457  0.72240  0.48914  1
 V  V1  1  0.00000  0.00000  0.00000  1
