CIF file written using JARVIS-Tools package.
data_FeSb3
_symmetry_space_group_name_H-M  'Im-3'
_cell_length_a       7.96439
_cell_length_b       7.96439
_cell_length_c       7.96439
_cell_angle_alpha    109.471
_cell_angle_beta     109.471
_cell_angle_gamma    109.471

_symmetry_Int_Tables_number  204
_chemical_formula_structural  FeSb3
_chemical_formula_sum  Fe4Sb2
_cell_volume  388.896290556322
_cell_formula_units_Z  4
loop_
  _symmetry_equiv_pos_site_id
 _symmetry_equiv_pos_as_xyz
 1  'x, y, z'
loop_
 _atom_site_type_symbol
 _atom_site_label
 _atom_site_symmetry_multiplicity
 _atom_site_fract_x
 _atom_site_fract_y
 _atom_site_fract_z
 _atom_site_fract_occupancy
 Fe  Fe1  1  0.50000  0.50000  0.50000  1
 Fe  Fe2  1  0.50000  0.00000  0.00000  1
 Fe  Fe3  1  -0.00000  -0.00000  0.50000  1
 Fe  Fe4  1  0.00000  0.50000  -0.00000  1
 Sb  Sb1  1  0.66940  0.84061  0.51001  1
 Sb  Sb2  1  0.84061  0.51001  0.66940  1
 Sb  Sb3  1  0.51001  0.66940  0.84061  1
 Sb  Sb4  1  0.66940  0.15939  0.82879  1
 Sb  Sb5  1  0.84061  0.17121  0.33060  1
 Sb  Sb6  1  0.15939  0.82879  0.66940  1
 Sb  Sb7  1  0.17121  0.33060  0.84061  1
 Sb  Sb8  1  0.15939  0.48999  0.33060  1
 Sb  Sb9  1  0.33060  0.15939  0.48999  1
 Sb  Sb10  1  0.48999  0.33060  0.15939  1
 Sb  Sb11  1  0.33060  0.84061  0.17121  1
 Sb  Sb12  1  0.82879  0.66940  0.15939  1
