CIF file written using JARVIS-Tools package.
data_Si3H
_symmetry_space_group_name_H-M  'R-3m'
_cell_length_a       3.88065
_cell_length_b       3.88066
_cell_length_c       11.4957
_cell_angle_alpha    80.2818
_cell_angle_beta     80.2827
_cell_angle_gamma    60.0001

_symmetry_Int_Tables_number  166
_chemical_formula_structural  Si3H
_chemical_formula_sum  Si6H2
_cell_volume  147.051041563605
_cell_formula_units_Z  2
loop_
  _symmetry_equiv_pos_site_id
 _symmetry_equiv_pos_as_xyz
 1  'x, y, z'
loop_
 _atom_site_type_symbol
 _atom_site_label
 _atom_site_symmetry_multiplicity
 _atom_site_fract_x
 _atom_site_fract_y
 _atom_site_fract_z
 _atom_site_fract_occupancy
 H  H1  1  0.81647  0.81654  0.55052  1
 H  H2  1  0.18353  0.18346  0.44948  1
 Si  Si1  1  0.41597  0.41591  0.75216  1
 Si  Si2  1  0.58403  0.58409  0.24784  1
 Si  Si3  1  0.34524  0.34524  0.96428  1
 Si  Si4  1  0.65476  0.65476  0.03572  1
 Si  Si5  1  0.77199  0.77195  0.68408  1
 Si  Si6  1  0.22801  0.22805  0.31592  1
