CIF file written using JARVIS-Tools package.
data_BaMgTe2O7
_symmetry_space_group_name_H-M  'Ama2'
_cell_length_a       5.63937
_cell_length_b       7.38286
_cell_length_c       8.48282
_cell_angle_alpha    64.2042
_cell_angle_beta     90
_cell_angle_gamma    90

_symmetry_Int_Tables_number  40
_chemical_formula_structural  BaMgTe2O7
_chemical_formula_sum  Ba2Mg2Te4O4
_cell_volume  317.9848613326103
_cell_formula_units_Z  2
loop_
  _symmetry_equiv_pos_site_id
 _symmetry_equiv_pos_as_xyz
 1  'x, y, z'
loop_
 _atom_site_type_symbol
 _atom_site_label
 _atom_site_symmetry_multiplicity
 _atom_site_fract_x
 _atom_site_fract_y
 _atom_site_fract_z
 _atom_site_fract_occupancy
 Ba  Ba1  1  0.75000  0.66474  0.41536  1
 Ba  Ba2  1  0.25000  0.08010  0.58464  1
 Mg  Mg1  1  0.75000  0.23938  0.23818  1
 Mg  Mg2  1  0.25000  0.47756  0.76182  1
 O  O1  1  0.00000  0.99105  -0.00000  1
 O  O2  1  0.50000  0.99105  -0.00000  1
 O  O3  1  0.75000  0.00812  0.72229  1
 O  O4  1  0.25000  0.73040  0.27771  1
 O  O5  1  0.50676  0.41608  0.28825  1
 O  O6  1  0.25000  0.32326  0.02618  1
 O  O7  1  0.00505  0.02529  0.31368  1
 O  O8  1  0.49495  0.02529  0.31368  1
 O  O9  1  0.99495  0.33897  0.68632  1
 O  O10  1  0.99324  0.41608  0.28825  1
 O  O11  1  0.00676  0.70433  0.71175  1
 O  O12  1  0.49324  0.70433  0.71175  1
 O  O13  1  0.50505  0.33897  0.68632  1
 O  O14  1  0.75000  0.34944  0.97382  1
 Te  Te1  1  0.75000  0.70123  0.85343  1
 Te  Te2  1  0.75000  0.18909  0.84273  1
 Te  Te3  1  0.25000  0.03182  0.15727  1
 Te  Te4  1  0.25000  0.55465  0.14657  1
