CIF file written using JARVIS-Tools package.
data_ThGe2Os2
_symmetry_space_group_name_H-M  'I4/mmm'
_cell_length_a       4.3303
_cell_length_b       4.33031
_cell_length_c       5.86946
_cell_angle_alpha    111.647
_cell_angle_beta     111.647
_cell_angle_gamma    90.0001

_symmetry_Int_Tables_number  139
_chemical_formula_structural  ThGe2Os2
_chemical_formula_sum  ThGe2Os2
_cell_volume  93.8980423610718
_cell_formula_units_Z  1
loop_
  _symmetry_equiv_pos_site_id
 _symmetry_equiv_pos_as_xyz
 1  'x, y, z'
loop_
 _atom_site_type_symbol
 _atom_site_label
 _atom_site_symmetry_multiplicity
 _atom_site_fract_x
 _atom_site_fract_y
 _atom_site_fract_z
 _atom_site_fract_occupancy
 Ge  Ge1  1  0.37113  0.37113  0.74227  1
 Ge  Ge2  1  0.62887  0.62887  0.25773  1
 Os  Os1  1  0.75000  0.25000  0.50000  1
 Os  Os2  1  0.25000  0.75000  0.50000  1
 Th  Th1  1  0.00000  0.00000  0.00000  1
