CIF file written using JARVIS-Tools package.
data_TiMn2P12
_symmetry_space_group_name_H-M  'C2/c'
_cell_length_a       5.83157
_cell_length_b       8.59849
_cell_length_c       10.7164
_cell_angle_alpha    113.683
_cell_angle_beta     90
_cell_angle_gamma    109.822

_symmetry_Int_Tables_number  15
_chemical_formula_structural  TiMn2P12
_chemical_formula_sum  Ti2Mn4P24
_cell_volume  457.11819215831423
_cell_formula_units_Z  2
loop_
  _symmetry_equiv_pos_site_id
 _symmetry_equiv_pos_as_xyz
 1  'x, y, z'
loop_
 _atom_site_type_symbol
 _atom_site_label
 _atom_site_symmetry_multiplicity
 _atom_site_fract_x
 _atom_site_fract_y
 _atom_site_fract_z
 _atom_site_fract_occupancy
 Mn  Mn1  1  0.37202  0.36465  0.54647  1
 Mn  Mn2  1  0.99264  0.36465  0.04647  1
 Mn  Mn3  1  0.62798  0.63535  0.45353  1
 Mn  Mn4  1  0.00736  0.63535  0.95353  1
 P  P1  1  0.56809  0.23502  0.00710  1
 P  P2  1  0.04768  0.45268  0.57497  1
 P  P3  1  0.40500  0.45268  0.07497  1
 P  P4  1  0.95232  0.54732  0.42503  1
 P  P5  1  0.58399  0.87512  0.83266  1
 P  P6  1  0.70888  0.12488  0.66734  1
 P  P7  1  0.98103  0.31212  0.24307  1
 P  P8  1  0.66890  0.68788  0.25693  1
 P  P9  1  0.01897  0.68788  0.75693  1
 P  P10  1  0.33110  0.31212  0.74307  1
 P  P11  1  0.01683  0.93457  0.07234  1
 P  P12  1  0.08226  0.06543  0.42766  1
 P  P13  1  0.33307  0.76498  0.49290  1
 P  P14  1  0.59500  0.54732  0.92503  1
 P  P15  1  0.91774  0.93457  0.57234  1
 P  P16  1  0.66693  0.23502  0.50710  1
 P  P17  1  0.43191  0.76498  0.99290  1
 P  P18  1  0.99560  0.64298  0.16367  1
 P  P19  1  0.35262  0.35702  0.33633  1
 P  P20  1  0.00440  0.35702  0.83633  1
 P  P21  1  0.64738  0.64298  0.66367  1
 P  P22  1  0.29112  0.87512  0.33266  1
 P  P23  1  0.41601  0.12488  0.16734  1
 P  P24  1  0.98317  0.06543  0.92766  1
 Ti  Ti1  1  0.69731  0.00000  0.25000  1
 Ti  Ti2  1  0.30269  -0.00000  0.75000  1
