CIF file written using JARVIS-Tools package.
data_Pa2S3
_symmetry_space_group_name_H-M  'R-3c'
_cell_length_a       6.78832
_cell_length_b       6.78832
_cell_length_c       7.41201
_cell_angle_alpha    117.253
_cell_angle_beta     62.7466
_cell_angle_gamma    120

_symmetry_Int_Tables_number  167
_chemical_formula_structural  Pa2S3
_chemical_formula_sum  Pa4S6
_cell_volume  251.0610944994383
_cell_formula_units_Z  2
loop_
  _symmetry_equiv_pos_site_id
 _symmetry_equiv_pos_as_xyz
 1  'x, y, z'
loop_
 _atom_site_type_symbol
 _atom_site_label
 _atom_site_symmetry_multiplicity
 _atom_site_fract_x
 _atom_site_fract_y
 _atom_site_fract_z
 _atom_site_fract_occupancy
 Pa  Pa1  1  0.65801  0.34199  0.02597  1
 Pa  Pa2  1  0.84199  0.15801  0.47403  1
 Pa  Pa3  1  0.15801  0.84199  0.52597  1
 Pa  Pa4  1  0.34199  0.65801  0.97403  1
 S  S1  1  0.25000  0.06519  0.25000  1
 S  S2  1  0.93481  0.43481  0.25000  1
 S  S3  1  0.56519  0.75000  0.25000  1
 S  S4  1  0.43481  0.25000  0.75000  1
 S  S5  1  0.06519  0.56519  0.75000  1
 S  S6  1  0.75000  0.93481  0.75000  1
