CIF file written using JARVIS-Tools package.
data_TeMoWSeS2
_symmetry_space_group_name_H-M  'P3m1'
_cell_length_a       3.31246
_cell_length_b       3.31248
_cell_length_c       37.4471
_cell_angle_alpha    90.0003
_cell_angle_beta     90
_cell_angle_gamma    120

_symmetry_Int_Tables_number  156
_chemical_formula_structural  TeMoWSeS2
_chemical_formula_sum  Te2Mo2W2Se2S4
_cell_volume  355.8393149722313
_cell_formula_units_Z  2
loop_
  _symmetry_equiv_pos_site_id
 _symmetry_equiv_pos_as_xyz
 1  'x, y, z'
loop_
 _atom_site_type_symbol
 _atom_site_label
 _atom_site_symmetry_multiplicity
 _atom_site_fract_x
 _atom_site_fract_y
 _atom_site_fract_z
 _atom_site_fract_occupancy
 Mo  Mo1  1  0.33331  0.66662  0.09399  1
 Mo  Mo2  1  0.33326  0.66653  0.46962  1
 S  S1  1  0.33336  0.66673  0.32288  1
 S  S2  1  0.66666  0.33331  0.42882  1
 S  S3  1  0.66666  0.33331  0.51046  1
 S  S4  1  0.33336  0.66672  0.24075  1
 Se  Se1  1  0.66664  0.33327  0.04924  1
 Se  Se2  1  0.66665  0.33330  0.13882  1
 Te  Te1  1  0.33336  0.66672  0.70887  1
 Te  Te2  1  0.33336  0.66672  0.60603  1
 W  W1  1  0.66669  0.33339  0.28179  1
 W  W2  1  0.66670  0.33339  0.65748  1
