CIF file written using JARVIS-Tools package.
data_Mo2WSe4S2
_symmetry_space_group_name_H-M  'P-6m2'
_cell_length_a       3.27825
_cell_length_b       3.27824
_cell_length_c       27.2529
_cell_angle_alpha    90
_cell_angle_beta     90
_cell_angle_gamma    120

_symmetry_Int_Tables_number  187
_chemical_formula_structural  Mo2WSe4S2
_chemical_formula_sum  Mo2WSe4S2
_cell_volume  253.64510415905943
_cell_formula_units_Z  1
loop_
  _symmetry_equiv_pos_site_id
 _symmetry_equiv_pos_as_xyz
 1  'x, y, z'
loop_
 _atom_site_type_symbol
 _atom_site_label
 _atom_site_symmetry_multiplicity
 _atom_site_fract_x
 _atom_site_fract_y
 _atom_site_fract_z
 _atom_site_fract_occupancy
 Mo  Mo1  1  0.33332  0.66665  0.11161  1
 Mo  Mo2  1  0.33332  0.66665  0.58236  1
 S  S1  1  0.33333  0.66665  0.40374  1
 S  S2  1  0.33333  0.66665  0.29022  1
 Se  Se1  1  0.66666  0.33332  0.04964  1
 Se  Se2  1  0.66666  0.33332  0.52032  1
 Se  Se3  1  0.66666  0.33332  0.17364  1
 Se  Se4  1  0.66666  0.33332  0.64433  1
 W  W1  1  0.66667  0.33334  0.34698  1
