CIF file written using JARVIS-Tools package.
data_Cr23C6
_symmetry_space_group_name_H-M  'Fm-3m'
_cell_length_a       7.45198
_cell_length_b       7.45198
_cell_length_c       7.45198
_cell_angle_alpha    60
_cell_angle_beta     60
_cell_angle_gamma    60

_symmetry_Int_Tables_number  225
_chemical_formula_structural  Cr23C6
_chemical_formula_sum  Cr23C6
_cell_volume  292.6178444200656
_cell_formula_units_Z  1
loop_
  _symmetry_equiv_pos_site_id
 _symmetry_equiv_pos_as_xyz
 1  'x, y, z'
loop_
 _atom_site_type_symbol
 _atom_site_label
 _atom_site_symmetry_multiplicity
 _atom_site_fract_x
 _atom_site_fract_y
 _atom_site_fract_z
 _atom_site_fract_occupancy
 C  C1  1  0.27746  0.72254  0.72254  1
 C  C2  1  0.72254  0.27746  0.72254  1
 C  C3  1  0.27746  0.27746  0.72254  1
 C  C4  1  0.72254  0.72254  0.27746  1
 C  C5  1  0.72254  0.27746  0.27746  1
 C  C6  1  0.27746  0.72254  0.27746  1
 Cr  Cr1  1  0.00000  0.33932  0.66068  1
 Cr  Cr2  1  0.61924  0.14227  0.61924  1
 Cr  Cr3  1  0.85773  0.38076  0.38076  1
 Cr  Cr4  1  0.38076  0.85773  0.38076  1
 Cr  Cr5  1  0.38076  0.38076  0.85773  1
 Cr  Cr6  1  0.61924  0.61924  0.61924  1
 Cr  Cr7  1  0.66068  0.33932  0.00000  1
 Cr  Cr8  1  0.66068  0.00000  -0.00000  1
 Cr  Cr9  1  0.66068  0.00000  0.33932  1
 Cr  Cr10  1  0.00000  0.33932  0.00000  1
 Cr  Cr11  1  0.00000  0.00000  0.66068  1
 Cr  Cr12  1  0.00000  0.00000  0.33932  1
 Cr  Cr13  1  -0.00000  0.66068  0.33932  1
 Cr  Cr14  1  0.33932  0.00000  0.66068  1
 Cr  Cr15  1  -0.00000  0.66068  -0.00000  1
 Cr  Cr16  1  0.33932  0.00000  0.00000  1
 Cr  Cr17  1  0.33932  0.66068  -0.00000  1
 Cr  Cr18  1  0.14227  0.61924  0.61924  1
 Cr  Cr19  1  0.61924  0.61924  0.14227  1
 Cr  Cr20  1  0.38076  0.38076  0.38076  1
 Cr  Cr21  1  0.75000  0.75000  0.75000  1
 Cr  Cr22  1  0.25000  0.25000  0.25000  1
 Cr  Cr23  1  0.00000  0.00000  0.00000  1
