CIF file written using JARVIS-Tools package.
data_Ag2BiO3
_symmetry_space_group_name_H-M  'Pnna'
_cell_length_a       6.14503
_cell_length_b       6.27441
_cell_length_c       9.80528
_cell_angle_alpha    90
_cell_angle_beta     90
_cell_angle_gamma    90

_symmetry_Int_Tables_number  52
_chemical_formula_structural  Ag2BiO3
_chemical_formula_sum  Ag8Bi4O2
_cell_volume  378.05655686808706
_cell_formula_units_Z  4
loop_
  _symmetry_equiv_pos_site_id
 _symmetry_equiv_pos_as_xyz
 1  'x, y, z'
loop_
 _atom_site_type_symbol
 _atom_site_label
 _atom_site_symmetry_multiplicity
 _atom_site_fract_x
 _atom_site_fract_y
 _atom_site_fract_z
 _atom_site_fract_occupancy
 Ag  Ag1  1  0.72067  0.75000  0.25000  1
 Ag  Ag2  1  0.50000  0.00000  0.50000  1
 Ag  Ag3  1  0.22067  0.75000  0.75000  1
 Ag  Ag4  1  0.77933  0.25000  0.25000  1
 Ag  Ag5  1  0.00000  0.00000  0.50000  1
 Ag  Ag6  1  0.27933  0.25000  0.75000  1
 Ag  Ag7  1  0.00000  0.50000  0.00000  1
 Ag  Ag8  1  0.50000  0.50000  0.00000  1
 Bi  Bi1  1  0.25000  0.50000  0.39605  1
 Bi  Bi2  1  0.75000  0.50000  0.60395  1
 Bi  Bi3  1  0.75000  0.00000  0.89605  1
 Bi  Bi4  1  0.25000  0.00000  0.10395  1
 O  O1  1  0.56571  0.31373  0.43539  1
 O  O2  1  0.86042  0.75000  0.75000  1
 O  O3  1  0.43429  0.68627  0.56461  1
 O  O4  1  0.56571  0.18627  0.06461  1
 O  O5  1  0.93429  0.81373  0.06461  1
 O  O6  1  0.43429  0.81373  0.93539  1
 O  O7  1  0.93429  0.68627  0.43539  1
 O  O8  1  0.36042  0.75000  0.25000  1
 O  O9  1  0.06571  0.18627  0.93539  1
 O  O10  1  0.13958  0.25000  0.25000  1
 O  O11  1  0.63958  0.25000  0.75000  1
 O  O12  1  0.06571  0.31373  0.56461  1
