data_image0
_chemical_formula_structural       Eu2H6Mg
_chemical_formula_sum              "Eu2 H6 Mg1"
_cell_length_a       5.24256
_cell_length_b       5.24256
_cell_length_c       4.0177
_cell_angle_alpha    90
_cell_angle_beta     89.9998
_cell_angle_gamma    120

_space_group_name_H-M_alt    "P 1"
_space_group_IT_number       1

loop_
  _space_group_symop_operation_xyz
  'x, y, z'

loop_
  _atom_site_type_symbol
  _atom_site_label
  _atom_site_symmetry_multiplicity
  _atom_site_fract_x
  _atom_site_fract_y
  _atom_site_fract_z
  _atom_site_occupancy
  Eu  Eu1       1.0  0.33300  0.66700  0.26300  1.0000
  Eu  Eu2       1.0  0.66700  0.33300  0.73700  1.0000
  H   H1        1.0  0.81900  0.18100  0.24100  1.0000
  H   H2        1.0  0.81900  0.63800  0.24100  1.0000
  H   H3        1.0  0.36200  0.18100  0.24100  1.0000
  H   H4        1.0  0.63800  0.81900  0.75900  1.0000
  H   H5        1.0  0.18100  0.36200  0.75900  1.0000
  H   H6        1.0  0.18100  0.81900  0.75900  1.0000
  Mg  Mg1       1.0  0.00000  0.00000  0.00000  1.0000
