CIF file written using JARVIS-Tools package.
data_BaCaI4
_symmetry_space_group_name_H-M  'Pnna'
_cell_length_a       9.98725
_cell_length_b       10.4292
_cell_length_c       10.2487
_cell_angle_alpha    90
_cell_angle_beta     90
_cell_angle_gamma    90

_symmetry_Int_Tables_number  52
_chemical_formula_structural  BaCaI4
_chemical_formula_sum  Ba4Ca4I6
_cell_volume  1067.4972722842715
_cell_formula_units_Z  4
loop_
  _symmetry_equiv_pos_site_id
 _symmetry_equiv_pos_as_xyz
 1  'x, y, z'
loop_
 _atom_site_type_symbol
 _atom_site_label
 _atom_site_symmetry_multiplicity
 _atom_site_fract_x
 _atom_site_fract_y
 _atom_site_fract_z
 _atom_site_fract_occupancy
 Ba  Ba1  1  0.83293  0.25000  0.75000  1
 Ba  Ba2  1  0.66707  0.25000  0.25000  1
 Ba  Ba3  1  0.33293  0.75000  0.75000  1
 Ba  Ba4  1  0.16707  0.75000  0.25000  1
 Ca  Ca1  1  0.75000  0.73087  0.00000  1
 Ca  Ca2  1  0.75000  0.76913  0.50000  1
 Ca  Ca3  1  0.25000  0.23087  0.50000  1
 Ca  Ca4  1  0.25000  0.26913  0.00000  1
 I  I1  1  0.95340  0.28562  0.05285  1
 I  I2  1  0.95340  0.21438  0.44715  1
 I  I3  1  0.79812  0.93488  0.22677  1
 I  I4  1  0.04660  0.78562  0.55285  1
 I  I5  1  0.70188  0.93488  0.77323  1
 I  I6  1  0.70188  0.56512  0.72677  1
 I  I7  1  0.79812  0.56512  0.27323  1
 I  I8  1  0.29812  0.43488  0.27323  1
 I  I9  1  0.45340  0.71438  0.05285  1
 I  I10  1  0.45340  0.78562  0.44715  1
 I  I11  1  0.54660  0.21438  0.55285  1
 I  I12  1  0.29812  0.06512  0.22677  1
 I  I13  1  0.20188  0.43488  0.72677  1
 I  I14  1  0.20188  0.06512  0.77323  1
 I  I15  1  0.54660  0.28562  0.94715  1
 I  I16  1  0.04660  0.71438  0.94715  1
