CIF file written using JARVIS-Tools package.
data_MoW2Se2S4
_symmetry_space_group_name_H-M  'R3m'
_cell_length_a       3.2377
_cell_length_b       3.23767
_cell_length_c       19.1925
_cell_angle_alpha    94.8693
_cell_angle_beta     90
_cell_angle_gamma    120

_symmetry_Int_Tables_number  160
_chemical_formula_structural  MoW2Se2S4
_chemical_formula_sum  MoW2Se2S4
_cell_volume  173.39437000989213
_cell_formula_units_Z  1
loop_
  _symmetry_equiv_pos_site_id
 _symmetry_equiv_pos_as_xyz
 1  'x, y, z'
loop_
 _atom_site_type_symbol
 _atom_site_label
 _atom_site_symmetry_multiplicity
 _atom_site_fract_x
 _atom_site_fract_y
 _atom_site_fract_z
 _atom_site_fract_occupancy
 Mo  Mo1  1  0.22295  0.44590  0.01713  1
 S  S1  1  0.35944  0.71888  0.42432  1
 S  S2  1  0.52902  0.05805  0.93590  1
 S  S3  1  0.58356  0.16713  0.09840  1
 S  S4  1  0.30460  0.60921  0.26095  1
 Se  Se1  1  0.74819  0.49637  0.59131  1
 Se  Se2  1  0.80848  0.61697  0.77102  1
 W  W1  1  0.44500  0.89000  0.68118  1
 W  W2  1  0.66535  0.33070  0.34263  1
