CIF file written using JARVIS-Tools package.
data_Ba2CuBrO2
_symmetry_space_group_name_H-M  'R-3m'
_cell_length_a       10.1205
_cell_length_b       10.1205
_cell_length_c       10.1205
_cell_angle_alpha    24.7046
_cell_angle_beta     24.7046
_cell_angle_gamma    24.7046

_symmetry_Int_Tables_number  166
_chemical_formula_structural  Ba2CuBrO2
_chemical_formula_sum  Ba2CuBrO2
_cell_volume  159.23385187453988
_cell_formula_units_Z  1
loop_
  _symmetry_equiv_pos_site_id
 _symmetry_equiv_pos_as_xyz
 1  'x, y, z'
loop_
 _atom_site_type_symbol
 _atom_site_label
 _atom_site_symmetry_multiplicity
 _atom_site_fract_x
 _atom_site_fract_y
 _atom_site_fract_z
 _atom_site_fract_occupancy
 Ba  Ba1  1  0.74775  0.74775  0.74775  1
 Ba  Ba2  1  0.25225  0.25225  0.25225  1
 Br  Br1  1  0.00000  0.00000  0.00000  1
 Cu  Cu1  1  0.50000  0.50000  0.50000  1
 O  O1  1  0.43841  0.43841  0.43841  1
 O  O2  1  0.56159  0.56159  0.56159  1
