CIF file written using JARVIS-Tools package.
data_SnHgF6
_symmetry_space_group_name_H-M  'R-3'
_cell_length_a       5.92091
_cell_length_b       5.92091
_cell_length_c       5.92091
_cell_angle_alpha    52.6607
_cell_angle_beta     52.6607
_cell_angle_gamma    52.6607

_symmetry_Int_Tables_number  148
_chemical_formula_structural  SnHgF6
_chemical_formula_sum  SnHgF6
_cell_volume  121.49817472906383
_cell_formula_units_Z  1
loop_
  _symmetry_equiv_pos_site_id
 _symmetry_equiv_pos_as_xyz
 1  'x, y, z'
loop_
 _atom_site_type_symbol
 _atom_site_label
 _atom_site_symmetry_multiplicity
 _atom_site_fract_x
 _atom_site_fract_y
 _atom_site_fract_z
 _atom_site_fract_occupancy
 F  F1  1  0.05943  0.39523  0.77492  1
 F  F2  1  0.39523  0.77492  0.05943  1
 F  F3  1  0.77492  0.05943  0.39523  1
 F  F4  1  0.22508  0.94057  0.60477  1
 F  F5  1  0.60477  0.22508  0.94057  1
 F  F6  1  0.94057  0.60477  0.22508  1
 Hg  Hg1  1  0.50000  0.50000  0.50000  1
 Sn  Sn1  1  0.00000  0.00000  0.00000  1
