CIF file written using JARVIS-Tools package.
data_NaSmSe2O7
_symmetry_space_group_name_H-M  'P2_1/c'
_cell_length_a       8.26776
_cell_length_b       6.96358
_cell_length_c       10.6633
_cell_angle_alpha    90
_cell_angle_beta     90.8773
_cell_angle_gamma    90

_symmetry_Int_Tables_number  14
_chemical_formula_structural  NaSmSe2O7
_chemical_formula_sum  Na4Sm4Se8O28
_cell_volume  613.851347045246
_cell_formula_units_Z  4
loop_
  _symmetry_equiv_pos_site_id
 _symmetry_equiv_pos_as_xyz
 1  'x, y, z'
loop_
 _atom_site_type_symbol
 _atom_site_label
 _atom_site_symmetry_multiplicity
 _atom_site_fract_x
 _atom_site_fract_y
 _atom_site_fract_z
 _atom_site_fract_occupancy
 Na  Na1  1  0.81264  0.37209  0.06579  1
 Na  Na2  1  0.68736  0.87209  0.93421  1
 Na  Na3  1  0.18736  0.62791  0.93421  1
 Na  Na4  1  0.31264  0.12791  0.06579  1
 O  O1  1  0.66097  0.99423  0.41124  1
 O  O2  1  0.35782  0.11707  0.33438  1
 O  O3  1  0.56389  0.34102  0.44746  1
 O  O4  1  0.05017  0.31482  0.94774  1
 O  O5  1  0.64279  0.55980  0.18697  1
 O  O6  1  0.57841  0.27483  0.69416  1
 O  O7  1  0.06389  0.15898  0.44746  1
 O  O8  1  0.14218  0.61707  0.66562  1
 O  O9  1  0.83903  0.49423  0.58876  1
 O  O10  1  0.67628  0.52858  0.88122  1
 O  O11  1  0.32372  0.47142  0.11878  1
 O  O12  1  0.92159  0.77483  0.30584  1
 O  O13  1  0.33903  0.00577  0.58876  1
 O  O14  1  0.42159  0.72517  0.30584  1
 O  O15  1  0.64218  0.88293  0.66562  1
 O  O16  1  0.93611  0.84102  0.55254  1
 O  O17  1  0.07841  0.22517  0.69416  1
 O  O18  1  0.35721  0.44020  0.81303  1
 O  O19  1  0.55017  0.18518  0.94774  1
 O  O20  1  0.44983  0.81482  0.05226  1
 O  O21  1  0.14279  0.94020  0.18697  1
 O  O22  1  0.17628  0.97142  0.88122  1
 O  O23  1  0.85782  0.38293  0.33438  1
 O  O24  1  0.82372  0.02858  0.11878  1
 O  O25  1  0.94983  0.68518  0.05226  1
 O  O26  1  0.43611  0.65898  0.55254  1
 O  O27  1  0.85721  0.05980  0.81303  1
 O  O28  1  0.16097  0.50577  0.41124  1
 Se  Se1  1  0.04592  0.14185  0.84074  1
 Se  Se2  1  0.05786  0.32985  0.32566  1
 Se  Se3  1  0.55786  0.17015  0.32566  1
 Se  Se4  1  0.45408  0.64185  0.15926  1
 Se  Se5  1  0.44214  0.82985  0.67434  1
 Se  Se6  1  0.54592  0.35815  0.84074  1
 Se  Se7  1  0.95408  0.85815  0.15926  1
 Se  Se8  1  0.94214  0.67015  0.67434  1
 Sm  Sm1  1  0.69343  0.64895  0.41591  1
 Sm  Sm2  1  0.80657  0.14895  0.58409  1
 Sm  Sm3  1  0.30657  0.35105  0.58409  1
 Sm  Sm4  1  0.19343  0.85105  0.41591  1
