CIF file written using JARVIS-Tools package.
data_Mo3WSe2S6
_symmetry_space_group_name_H-M  'P3m1'
_cell_length_a       3.22342
_cell_length_b       3.22344
_cell_length_c       34.0424
_cell_angle_alpha    90.0001
_cell_angle_beta     90
_cell_angle_gamma    120

_symmetry_Int_Tables_number  156
_chemical_formula_structural  Mo3WSe2S6
_chemical_formula_sum  Mo3WSe2S6
_cell_volume  306.3291346540833
_cell_formula_units_Z  1
loop_
  _symmetry_equiv_pos_site_id
 _symmetry_equiv_pos_as_xyz
 1  'x, y, z'
loop_
 _atom_site_type_symbol
 _atom_site_label
 _atom_site_symmetry_multiplicity
 _atom_site_fract_x
 _atom_site_fract_y
 _atom_site_fract_z
 _atom_site_fract_occupancy
 Mo  Mo1  1  0.33331  0.66661  0.09338  1
 Mo  Mo2  1  0.33334  0.66667  0.47194  1
 Mo  Mo3  1  0.66668  0.33335  0.28268  1
 S  S1  1  0.33334  0.66669  0.70084  1
 S  S2  1  0.66664  0.33328  0.04770  1
 S  S3  1  0.66667  0.33334  0.42621  1
 S  S4  1  0.66664  0.33328  0.13912  1
 S  S5  1  0.66667  0.33334  0.51766  1
 S  S6  1  0.33335  0.66669  0.60894  1
 Se  Se1  1  0.33335  0.66669  0.33294  1
 Se  Se2  1  0.33334  0.66667  0.23243  1
 W  W1  1  0.66668  0.33336  0.65491  1
