CIF file written using JARVIS-Tools package.
data_Te2MoWS2
_symmetry_space_group_name_H-M  'P3m1'
_cell_length_a       3.36738
_cell_length_b       3.3672
_cell_length_c       38.2766
_cell_angle_alpha    90
_cell_angle_beta     90
_cell_angle_gamma    120.002

_symmetry_Int_Tables_number  156
_chemical_formula_structural  Te2MoWS2
_chemical_formula_sum  Te4Mo2W2S4
_cell_volume  375.8528842462487
_cell_formula_units_Z  2
loop_
  _symmetry_equiv_pos_site_id
 _symmetry_equiv_pos_as_xyz
 1  'x, y, z'
loop_
 _atom_site_type_symbol
 _atom_site_label
 _atom_site_symmetry_multiplicity
 _atom_site_fract_x
 _atom_site_fract_y
 _atom_site_fract_z
 _atom_site_fract_occupancy
 Mo  Mo1  1  0.33333  0.66665  0.09392  1
 Mo  Mo2  1  0.33331  0.66662  0.46968  1
 S  S1  1  0.66664  0.33328  0.05445  1
 S  S2  1  0.66665  0.33329  0.43021  1
 S  S3  1  0.66664  0.33327  0.13343  1
 S  S4  1  0.66664  0.33328  0.50914  1
 Te  Te1  1  0.33336  0.66671  0.33146  1
 Te  Te2  1  0.33335  0.66671  0.70707  1
 Te  Te3  1  0.33335  0.66671  0.23213  1
 Te  Te4  1  0.33335  0.66671  0.60791  1
 W  W1  1  0.66669  0.33339  0.28180  1
 W  W2  1  0.66669  0.33339  0.65754  1
