CIF file written using JARVIS-Tools package.
data_RbGeIO6
_symmetry_space_group_name_H-M  'P312'
_cell_length_a       5.10549
_cell_length_b       5.10553
_cell_length_c       6.36138
_cell_angle_alpha    90.0006
_cell_angle_beta     90.0001
_cell_angle_gamma    60.0004

_symmetry_Int_Tables_number  149
_chemical_formula_structural  RbGeIO6
_chemical_formula_sum  RbGeIO6
_cell_volume  143.60233928822552
_cell_formula_units_Z  1
loop_
  _symmetry_equiv_pos_site_id
 _symmetry_equiv_pos_as_xyz
 1  'x, y, z'
loop_
 _atom_site_type_symbol
 _atom_site_label
 _atom_site_symmetry_multiplicity
 _atom_site_fract_x
 _atom_site_fract_y
 _atom_site_fract_z
 _atom_site_fract_occupancy
 Ge  Ge1  1  0.33333  0.33333  0.50000  1
 I  I1  1  0.66667  0.66667  0.50000  1
 O  O1  1  0.99785  0.61782  0.32886  1
 O  O2  1  0.61782  0.99785  0.67113  1
 O  O3  1  0.38433  0.61782  0.67113  1
 O  O4  1  0.99785  0.38433  0.67113  1
 O  O5  1  0.61782  0.38433  0.32887  1
 O  O6  1  0.38433  0.99785  0.32887  1
 Rb  Rb1  1  1.00000  0.00000  -0.00000  1
