CIF file written using JARVIS-Tools package.
data_TeMoWSe2S
_symmetry_space_group_name_H-M  'P3m1'
_cell_length_a       3.35021
_cell_length_b       3.35015
_cell_length_c       36.1482
_cell_angle_alpha    90.0111
_cell_angle_beta     89.997
_cell_angle_gamma    120

_symmetry_Int_Tables_number  156
_chemical_formula_structural  TeMoWSe2S
_chemical_formula_sum  Te2Mo2W2Se4S2
_cell_volume  351.3621346961473
_cell_formula_units_Z  2
loop_
  _symmetry_equiv_pos_site_id
 _symmetry_equiv_pos_as_xyz
 1  'x, y, z'
loop_
 _atom_site_type_symbol
 _atom_site_label
 _atom_site_symmetry_multiplicity
 _atom_site_fract_x
 _atom_site_fract_y
 _atom_site_fract_z
 _atom_site_fract_occupancy
 Mo  Mo1  1  0.33330  0.66661  0.09980  1
 Mo  Mo2  1  0.66668  0.33338  0.27488  1
 S  S1  1  0.66659  0.33315  0.05785  1
 S  S2  1  0.66666  0.33338  0.14178  1
 Se  Se1  1  0.33338  0.66682  0.32095  1
 Se  Se2  1  0.33338  0.66679  0.70706  1
 Se  Se3  1  0.33333  0.66662  0.22879  1
 Se  Se4  1  0.33329  0.66651  0.61446  1
 Te  Te1  1  0.66663  0.33323  0.41460  1
 Te  Te2  1  0.66674  0.33353  0.52030  1
 W  W1  1  0.33336  0.66671  0.46746  1
 W  W2  1  0.66665  0.33328  0.66080  1
