CIF file written using JARVIS-Tools package.
data_Sr5Cr3O12F
_symmetry_space_group_name_H-M  'P6_3/m'
_cell_length_a       9.99355
_cell_length_b       9.99355
_cell_length_c       7.46549
_cell_angle_alpha    90
_cell_angle_beta     90
_cell_angle_gamma    120

_symmetry_Int_Tables_number  176
_chemical_formula_structural  Sr5Cr3O12F
_chemical_formula_sum  Sr0Cr6O24F2
_cell_volume  645.6964384896969
_cell_formula_units_Z  2
loop_
  _symmetry_equiv_pos_site_id
 _symmetry_equiv_pos_as_xyz
 1  'x, y, z'
loop_
 _atom_site_type_symbol
 _atom_site_label
 _atom_site_symmetry_multiplicity
 _atom_site_fract_x
 _atom_site_fract_y
 _atom_site_fract_z
 _atom_site_fract_occupancy
 Cr  Cr1  1  0.63200  0.60091  0.75000  1
 Cr  Cr2  1  0.39909  0.03109  0.75000  1
 Cr  Cr3  1  0.03109  0.63200  0.25000  1
 Cr  Cr4  1  0.36800  0.39909  0.25000  1
 Cr  Cr5  1  0.96891  0.36800  0.75000  1
 Cr  Cr6  1  0.60091  0.96891  0.25000  1
 F  F1  1  0.00000  0.00000  0.25000  1
 F  F2  1  0.00000  0.00000  0.75000  1
 O  O1  1  0.34266  0.09301  0.93289  1
 O  O2  1  0.34266  0.09301  0.56711  1
 O  O3  1  0.09301  0.75036  0.43289  1
 O  O4  1  0.47086  0.59762  0.25000  1
 O  O5  1  0.75036  0.65734  0.93289  1
 O  O6  1  0.65734  0.90699  0.43289  1
 O  O7  1  0.87324  0.47086  0.75000  1
 O  O8  1  0.31553  0.83373  0.75000  1
 O  O9  1  0.24964  0.34266  0.06711  1
 O  O10  1  0.09301  0.75036  0.06711  1
 O  O11  1  0.90699  0.24964  0.93289  1
 O  O12  1  0.52914  0.40238  0.75000  1
 O  O13  1  0.90699  0.24964  0.56711  1
 O  O14  1  0.59762  0.12676  0.75000  1
 O  O15  1  0.24964  0.34266  0.43289  1
 O  O16  1  0.68447  0.16627  0.25000  1
 O  O17  1  0.48180  0.31553  0.25000  1
 O  O18  1  0.16627  0.48180  0.75000  1
 O  O19  1  0.83373  0.51820  0.25000  1
 O  O20  1  0.75036  0.65734  0.56711  1
 O  O21  1  0.40238  0.87324  0.25000  1
 O  O22  1  0.12676  0.52914  0.25000  1
 O  O23  1  0.65734  0.90699  0.06711  1
 O  O24  1  0.51820  0.68447  0.75000  1
 Sr  Sr1  1  0.76057  0.74972  0.25000  1
 Sr  Sr2  1  0.01084  0.76057  0.75000  1
 Sr  Sr3  1  0.23943  0.25028  0.75000  1
 Sr  Sr4  1  0.74972  0.98916  0.75000  1
 Sr  Sr5  1  0.66667  0.33333  -0.00049  1
 Sr  Sr6  1  0.33333  0.66667  0.49951  1
 Sr  Sr7  1  0.66667  0.33333  0.50049  1
 Sr  Sr8  1  0.33333  0.66667  0.00049  1
 Sr  Sr9  1  0.98916  0.23943  0.25000  1
 Sr  Sr10  1  0.25028  0.01084  0.25000  1
