CIF file written using JARVIS-Tools package.
data_TaCo2
_symmetry_space_group_name_H-M  'P6_3/mmc'
_cell_length_a       4.751
_cell_length_b       4.751
_cell_length_c       7.73979
_cell_angle_alpha    90
_cell_angle_beta     90
_cell_angle_gamma    120

_symmetry_Int_Tables_number  194
_chemical_formula_structural  TaCo2
_chemical_formula_sum  Ta4Co8
_cell_volume  151.2968813715261
_cell_formula_units_Z  4
loop_
  _symmetry_equiv_pos_site_id
 _symmetry_equiv_pos_as_xyz
 1  'x, y, z'
loop_
 _atom_site_type_symbol
 _atom_site_label
 _atom_site_symmetry_multiplicity
 _atom_site_fract_x
 _atom_site_fract_y
 _atom_site_fract_z
 _atom_site_fract_occupancy
 Co  Co1  1  0.83195  0.66389  0.25000  1
 Co  Co2  1  0.83195  0.16805  0.25000  1
 Co  Co3  1  0.16805  0.33611  0.75000  1
 Co  Co4  1  0.66389  0.83195  0.75000  1
 Co  Co5  1  0.33611  0.16805  0.25000  1
 Co  Co6  1  0.00000  0.00000  0.00000  1
 Co  Co7  1  0.16805  0.83195  0.75000  1
 Co  Co8  1  0.00000  0.00000  0.50000  1
 Ta  Ta1  1  0.33333  0.66667  0.06539  1
 Ta  Ta2  1  0.66667  0.33333  0.93461  1
 Ta  Ta3  1  0.33333  0.66667  0.43461  1
 Ta  Ta4  1  0.66667  0.33333  0.56539  1
