CIF file written using JARVIS-Tools package.
data_Sr3CoC3N3
_symmetry_space_group_name_H-M  'P6_3/m'
_cell_length_a       8.70598
_cell_length_b       8.70598
_cell_length_c       5.39604
_cell_angle_alpha    90
_cell_angle_beta     90
_cell_angle_gamma    120

_symmetry_Int_Tables_number  176
_chemical_formula_structural  Sr3CoC3N3
_chemical_formula_sum  Sr6Co2C6N6
_cell_volume  354.1936614821055
_cell_formula_units_Z  2
loop_
  _symmetry_equiv_pos_site_id
 _symmetry_equiv_pos_as_xyz
 1  'x, y, z'
loop_
 _atom_site_type_symbol
 _atom_site_label
 _atom_site_symmetry_multiplicity
 _atom_site_fract_x
 _atom_site_fract_y
 _atom_site_fract_z
 _atom_site_fract_occupancy
 C  C1  1  0.30484  0.85304  0.75000  1
 C  C2  1  0.45180  0.30484  0.25000  1
 C  C3  1  0.69516  0.14696  0.25000  1
 C  C4  1  0.14696  0.45180  0.75000  1
 C  C5  1  0.85304  0.54820  0.25000  1
 C  C6  1  0.54820  0.69516  0.75000  1
 Co  Co1  1  0.33333  0.66667  0.75000  1
 Co  Co2  1  0.66667  0.33333  0.25000  1
 N  N1  1  0.29641  0.27437  0.25000  1
 N  N2  1  0.70359  0.72563  0.75000  1
 N  N3  1  0.02203  0.29641  0.75000  1
 N  N4  1  0.97797  0.70359  0.25000  1
 N  N5  1  0.27437  0.97797  0.75000  1
 N  N6  1  0.72563  0.02203  0.25000  1
 Sr  Sr1  1  0.06382  0.37056  0.25000  1
 Sr  Sr2  1  0.93618  0.62944  0.75000  1
 Sr  Sr3  1  0.62944  0.69326  0.25000  1
 Sr  Sr4  1  0.30674  0.93618  0.25000  1
 Sr  Sr5  1  0.69326  0.06382  0.75000  1
 Sr  Sr6  1  0.37056  0.30674  0.75000  1
