CIF file written using JARVIS-Tools package.
data_Te4MoW3Se4
_symmetry_space_group_name_H-M  'P3m1'
_cell_length_a       3.44104
_cell_length_b       3.44103
_cell_length_c       39.0162
_cell_angle_alpha    89.9999
_cell_angle_beta     90
_cell_angle_gamma    120

_symmetry_Int_Tables_number  156
_chemical_formula_structural  Te4MoW3Se4
_chemical_formula_sum  Te4MoW3Se4
_cell_volume  400.08723515010945
_cell_formula_units_Z  1
loop_
  _symmetry_equiv_pos_site_id
 _symmetry_equiv_pos_as_xyz
 1  'x, y, z'
loop_
 _atom_site_type_symbol
 _atom_site_label
 _atom_site_symmetry_multiplicity
 _atom_site_fract_x
 _atom_site_fract_y
 _atom_site_fract_z
 _atom_site_fract_occupancy
 Mo  Mo1  1  0.66669  0.33338  0.28180  1
 Se  Se1  1  0.66664  0.33329  0.05198  1
 Se  Se2  1  0.66665  0.33329  0.42757  1
 Se  Se3  1  0.66664  0.33328  0.13601  1
 Se  Se4  1  0.66665  0.33329  0.51175  1
 Te  Te1  1  0.33335  0.66671  0.32942  1
 Te  Te2  1  0.33335  0.66671  0.70526  1
 Te  Te3  1  0.33335  0.66671  0.23418  1
 Te  Te4  1  0.33336  0.66672  0.60965  1
 W  W1  1  0.33331  0.66662  0.09393  1
 W  W2  1  0.33331  0.66662  0.46966  1
 W  W3  1  0.66669  0.33338  0.65753  1
