CIF file written using JARVIS-Tools package.
data_TbSiPt
_symmetry_space_group_name_H-M  'Pnma'
_cell_length_a       4.30835
_cell_length_b       7.05394
_cell_length_c       7.49434
_cell_angle_alpha    90
_cell_angle_beta     90
_cell_angle_gamma    90

_symmetry_Int_Tables_number  62
_chemical_formula_structural  TbSiPt
_chemical_formula_sum  Tb4Si4Pt4
_cell_volume  227.75913618187286
_cell_formula_units_Z  4
loop_
  _symmetry_equiv_pos_site_id
 _symmetry_equiv_pos_as_xyz
 1  'x, y, z'
loop_
 _atom_site_type_symbol
 _atom_site_label
 _atom_site_symmetry_multiplicity
 _atom_site_fract_x
 _atom_site_fract_y
 _atom_site_fract_z
 _atom_site_fract_occupancy
 Pt  Pt1  1  0.25000  0.70122  0.58543  1
 Pt  Pt2  1  0.25000  0.20122  0.91457  1
 Pt  Pt3  1  0.75000  0.79878  0.08543  1
 Pt  Pt4  1  0.75000  0.29878  0.41457  1
 Si  Si1  1  0.25000  0.81359  0.91249  1
 Si  Si2  1  0.25000  0.31359  0.58751  1
 Si  Si3  1  0.75000  0.18641  0.08751  1
 Si  Si4  1  0.75000  0.68641  0.41249  1
 Tb  Tb1  1  0.75000  0.50388  0.79994  1
 Tb  Tb2  1  0.25000  0.99612  0.29994  1
 Tb  Tb3  1  0.75000  0.00388  0.70006  1
 Tb  Tb4  1  0.25000  0.49612  0.20006  1
