CIF file written using JARVIS-Tools package.
data_YbNi2P2
_symmetry_space_group_name_H-M  'I4/mmm'
_cell_length_a       3.9069
_cell_length_b       3.90689
_cell_length_c       5.36591
_cell_angle_alpha    111.349
_cell_angle_beta     111.349
_cell_angle_gamma    90

_symmetry_Int_Tables_number  139
_chemical_formula_structural  YbNi2P2
_chemical_formula_sum  YbNi2P2
_cell_volume  70.21536284106051
_cell_formula_units_Z  1
loop_
  _symmetry_equiv_pos_site_id
 _symmetry_equiv_pos_as_xyz
 1  'x, y, z'
loop_
 _atom_site_type_symbol
 _atom_site_label
 _atom_site_symmetry_multiplicity
 _atom_site_fract_x
 _atom_site_fract_y
 _atom_site_fract_z
 _atom_site_fract_occupancy
 Ni  Ni1  1  0.75000  0.25000  0.50000  1
 Ni  Ni2  1  0.25000  0.75000  0.50000  1
 P  P1  1  0.37707  0.37707  0.75414  1
 P  P2  1  0.62293  0.62293  0.24586  1
 Yb  Yb1  1  0.00000  0.00000  0.00000  1
