CIF file written using JARVIS-Tools package.
data_YbMg2
_symmetry_space_group_name_H-M  'P6_3/mmc'
_cell_length_a       6.17462
_cell_length_b       6.17462
_cell_length_c       9.99739
_cell_angle_alpha    90
_cell_angle_beta     90
_cell_angle_gamma    120

_symmetry_Int_Tables_number  194
_chemical_formula_structural  YbMg2
_chemical_formula_sum  Yb4Mg8
_cell_volume  330.0945978550076
_cell_formula_units_Z  4
loop_
  _symmetry_equiv_pos_site_id
 _symmetry_equiv_pos_as_xyz
 1  'x, y, z'
loop_
 _atom_site_type_symbol
 _atom_site_label
 _atom_site_symmetry_multiplicity
 _atom_site_fract_x
 _atom_site_fract_y
 _atom_site_fract_z
 _atom_site_fract_occupancy
 Mg  Mg1  1  0.16875  0.33750  0.25000  1
 Mg  Mg2  1  0.33750  0.16875  0.75000  1
 Mg  Mg3  1  0.83125  0.16875  0.75000  1
 Mg  Mg4  1  0.16875  0.83125  0.25000  1
 Mg  Mg5  1  0.00000  0.00000  0.00000  1
 Mg  Mg6  1  0.00000  0.00000  0.50000  1
 Mg  Mg7  1  0.83125  0.66250  0.75000  1
 Mg  Mg8  1  0.66250  0.83125  0.25000  1
 Yb  Yb1  1  0.66667  0.33333  0.06102  1
 Yb  Yb2  1  0.33333  0.66667  0.56102  1
 Yb  Yb3  1  0.33333  0.66667  0.93898  1
 Yb  Yb4  1  0.66667  0.33333  0.43898  1
