CIF file written using JARVIS-Tools package.
data_YMnO3
_symmetry_space_group_name_H-M  'P6_3cm'
_cell_length_a       5.86962
_cell_length_b       5.86962
_cell_length_c       11.9269
_cell_angle_alpha    90
_cell_angle_beta     90
_cell_angle_gamma    120

_symmetry_Int_Tables_number  185
_chemical_formula_structural  YMnO3
_chemical_formula_sum  Y6Mn6O8
_cell_volume  355.8584454683788
_cell_formula_units_Z  6
loop_
  _symmetry_equiv_pos_site_id
 _symmetry_equiv_pos_as_xyz
 1  'x, y, z'
loop_
 _atom_site_type_symbol
 _atom_site_label
 _atom_site_symmetry_multiplicity
 _atom_site_fract_x
 _atom_site_fract_y
 _atom_site_fract_z
 _atom_site_fract_occupancy
 Mn  Mn1  1  -0.00000  0.66346  0.50141  1
 Mn  Mn2  1  0.00000  0.33654  0.00141  1
 Mn  Mn3  1  0.66346  -0.00000  0.50141  1
 Mn  Mn4  1  0.33654  0.00000  0.00141  1
 Mn  Mn5  1  0.33654  0.33654  0.50141  1
 Mn  Mn6  1  0.66346  0.66346  0.00141  1
 O  O1  1  0.66667  0.33333  0.51600  1
 O  O2  1  0.36630  0.00000  0.84190  1
 O  O3  1  0.00000  0.00000  0.48260  1
 O  O4  1  0.00000  0.70053  0.66171  1
 O  O5  1  0.00000  0.00000  0.98260  1
 O  O6  1  0.33333  0.66667  0.01600  1
 O  O7  1  0.70053  0.70053  0.16171  1
 O  O8  1  0.33333  0.66667  0.51600  1
 O  O9  1  0.66667  0.33333  0.01600  1
 O  O10  1  -0.00000  0.63370  0.34190  1
 O  O11  1  0.63370  0.63370  0.84190  1
 O  O12  1  0.70053  0.00000  0.66171  1
 O  O13  1  0.29947  -0.00000  0.16171  1
 O  O14  1  0.29947  0.29947  0.66171  1
 O  O15  1  0.36630  0.36630  0.34190  1
 O  O16  1  -0.00000  0.29947  0.16171  1
 O  O17  1  0.00000  0.36630  0.84190  1
 O  O18  1  0.63370  -0.00000  0.34190  1
 Y  Y1  1  0.00000  0.00000  0.28294  1
 Y  Y2  1  0.00000  0.00000  0.78294  1
 Y  Y3  1  0.33333  0.66667  0.23120  1
 Y  Y4  1  0.66667  0.33333  0.73120  1
 Y  Y5  1  0.33333  0.66667  0.73120  1
 Y  Y6  1  0.66667  0.33333  0.23120  1
