CIF file written using JARVIS-Tools package.
data_NdMn2O5
_symmetry_space_group_name_H-M  'Pbam'
_cell_length_a       5.53173
_cell_length_b       7.45555
_cell_length_c       8.68621
_cell_angle_alpha    90
_cell_angle_beta     90
_cell_angle_gamma    90

_symmetry_Int_Tables_number  55
_chemical_formula_structural  NdMn2O5
_chemical_formula_sum  Nd4Mn8O20
_cell_volume  358.237278414448
_cell_formula_units_Z  4
loop_
  _symmetry_equiv_pos_site_id
 _symmetry_equiv_pos_as_xyz
 1  'x, y, z'
loop_
 _atom_site_type_symbol
 _atom_site_label
 _atom_site_symmetry_multiplicity
 _atom_site_fract_x
 _atom_site_fract_y
 _atom_site_fract_z
 _atom_site_fract_occupancy
 Mn  Mn1  1  0.50000  0.11043  0.85777  1
 Mn  Mn2  1  0.50000  0.38957  0.35777  1
 Mn  Mn3  1  0.50000  0.88957  0.14223  1
 Mn  Mn4  1  0.50000  0.61043  0.64223  1
 Mn  Mn5  1  0.27243  0.00000  0.50000  1
 Mn  Mn6  1  0.72757  0.00000  0.50000  1
 Mn  Mn7  1  0.27243  0.50000  0.00000  1
 Mn  Mn8  1  0.72757  0.50000  0.00000  1
 Nd  Nd1  1  0.00000  0.35122  0.67377  1
 Nd  Nd2  1  0.00000  0.85122  0.82623  1
 Nd  Nd3  1  0.00000  0.64878  0.32623  1
 Nd  Nd4  1  0.00000  0.14878  0.17377  1
 O  O1  1  0.26213  0.41254  0.21045  1
 O  O2  1  0.26213  0.91254  0.28955  1
 O  O3  1  0.26213  0.08746  0.71045  1
 O  O4  1  0.73787  0.41254  0.21045  1
 O  O5  1  0.00000  0.65487  0.04994  1
 O  O6  1  0.73787  0.08746  0.71045  1
 O  O7  1  0.73787  0.91254  0.28955  1
 O  O8  1  0.26213  0.58746  0.78955  1
 O  O9  1  0.73787  0.58746  0.78955  1
 O  O10  1  0.28200  0.50000  0.50000  1
 O  O11  1  0.50000  0.17490  0.43800  1
 O  O12  1  0.28200  0.00000  0.00000  1
 O  O13  1  0.71800  0.50000  0.50000  1
 O  O14  1  0.71800  0.00000  0.00000  1
 O  O15  1  0.50000  0.32510  0.93800  1
 O  O16  1  0.00000  0.15487  0.45006  1
 O  O17  1  0.00000  0.84513  0.54994  1
 O  O18  1  0.50000  0.82510  0.56200  1
 O  O19  1  0.50000  0.67490  0.06200  1
 O  O20  1  0.00000  0.34513  0.95006  1
