CIF file written using JARVIS-Tools package.
data_Pd2N
_symmetry_space_group_name_H-M  'P4/mmm'
_cell_length_a       2.64761
_cell_length_b       2.64761
_cell_length_c       14.672
_cell_angle_alpha    90
_cell_angle_beta     90
_cell_angle_gamma    90

_symmetry_Int_Tables_number  123
_chemical_formula_structural  Pd2N
_chemical_formula_sum  Pd4N2
_cell_volume  102.84839911016834
_cell_formula_units_Z  2
loop_
  _symmetry_equiv_pos_site_id
 _symmetry_equiv_pos_as_xyz
 1  'x, y, z'
loop_
 _atom_site_type_symbol
 _atom_site_label
 _atom_site_symmetry_multiplicity
 _atom_site_fract_x
 _atom_site_fract_y
 _atom_site_fract_z
 _atom_site_fract_occupancy
 N  N1  1  0.50000  0.50000  0.96214  1
 N  N2  1  0.50000  0.50000  0.03786  1
 Pd  Pd1  1  0.00000  0.00000  0.58756  1
 Pd  Pd2  1  0.00000  0.00000  0.41244  1
 Pd  Pd3  1  0.00000  0.00000  0.23783  1
 Pd  Pd4  1  0.00000  0.00000  0.76217  1
