CIF file written using JARVIS-Tools package.
data_VCuO3
_symmetry_space_group_name_H-M  'Cm'
_cell_length_a       3.18832
_cell_length_b       4.46513
_cell_length_c       5.62217
_cell_angle_alpha    112.568
_cell_angle_beta     106.352
_cell_angle_gamma    89.9681

_symmetry_Int_Tables_number  8
_chemical_formula_structural  VCuO3
_chemical_formula_sum  VCuO3
_cell_volume  70.39628679639623
_cell_formula_units_Z  1
loop_
  _symmetry_equiv_pos_site_id
 _symmetry_equiv_pos_as_xyz
 1  'x, y, z'
loop_
 _atom_site_type_symbol
 _atom_site_label
 _atom_site_symmetry_multiplicity
 _atom_site_fract_x
 _atom_site_fract_y
 _atom_site_fract_z
 _atom_site_fract_occupancy
 Cu  Cu1  1  0.40386  0.00697  0.46195  1
 O  O1  1  0.85491  0.20829  0.36287  1
 O  O2  1  0.58154  0.00373  0.81255  1
 O  O3  1  0.24251  0.55803  0.13728  1
 V  V1  1  0.72577  0.33728  0.10325  1
