CIF file written using JARVIS-Tools package.
data_Te7Mo4S
_symmetry_space_group_name_H-M  'Cm'
_cell_length_a       14.599
_cell_length_b       14.5911
_cell_length_c       14.5911
_cell_angle_alpha    166.145
_cell_angle_beta     27.8866
_cell_angle_gamma    155.917

_symmetry_Int_Tables_number  8
_chemical_formula_structural  Te7Mo4S
_chemical_formula_sum  Te7Mo4S
_cell_volume  303.6100903207381
_cell_formula_units_Z  1
loop_
  _symmetry_equiv_pos_site_id
 _symmetry_equiv_pos_as_xyz
 1  'x, y, z'
loop_
 _atom_site_type_symbol
 _atom_site_label
 _atom_site_symmetry_multiplicity
 _atom_site_fract_x
 _atom_site_fract_y
 _atom_site_fract_z
 _atom_site_fract_occupancy
 Mo  Mo1  1  0.45761  0.33325  0.12435  1
 Mo  Mo2  1  0.53246  0.65396  0.87850  1
 Mo  Mo3  1  0.95913  0.33510  0.62403  1
 Mo  Mo4  1  0.05557  0.67722  0.37835  1
 S  S1  1  0.26082  0.33158  0.92923  1
 Te  Te1  1  0.64933  0.33407  0.31528  1
 Te  Te2  1  0.22876  0.66945  0.55931  1
 Te  Te3  1  0.35600  0.66703  0.68894  1
 Te  Te4  1  0.77565  0.33319  0.44246  1
 Te  Te5  1  0.14246  0.33122  0.81128  1
 Te  Te6  1  0.72632  0.66661  0.05972  1
 Te  Te7  1  0.85590  0.66733  0.18855  1
