CIF file written using JARVIS-Tools package.
data_Ba2YCu3O6
_symmetry_space_group_name_H-M  'Pmm2'
_cell_length_a       3.9056
_cell_length_b       3.87832
_cell_length_c       11.7407
_cell_angle_alpha    90
_cell_angle_beta     90
_cell_angle_gamma    90

_symmetry_Int_Tables_number  25
_chemical_formula_structural  Ba2YCu3O6
_chemical_formula_sum  Ba2YCu3O6
_cell_volume  177.83845677524695
_cell_formula_units_Z  1
loop_
  _symmetry_equiv_pos_site_id
 _symmetry_equiv_pos_as_xyz
 1  'x, y, z'
loop_
 _atom_site_type_symbol
 _atom_site_label
 _atom_site_symmetry_multiplicity
 _atom_site_fract_x
 _atom_site_fract_y
 _atom_site_fract_z
 _atom_site_fract_occupancy
 Ba  Ba1  1  0.50000  0.50000  0.82273  1
 Ba  Ba2  1  0.50000  0.50000  0.16981  1
 Cu  Cu1  1  0.00000  0.00000  0.64760  1
 Cu  Cu2  1  0.00000  0.00000  0.34740  1
 Cu  Cu3  1  0.00000  0.00000  0.00154  1
 O  O1  1  0.00000  0.50000  0.00346  1
 O  O2  1  0.50000  0.00000  0.62866  1
 O  O3  1  0.50000  0.00000  0.38286  1
 O  O4  1  0.00000  0.50000  0.59678  1
 O  O5  1  0.00000  0.00000  0.83765  1
 O  O6  1  0.00000  0.00000  0.17110  1
 Y  Y1  1  0.50000  0.50000  0.51206  1
