CIF file written using JARVIS-Tools package.
data_Ho4CdCo
_symmetry_space_group_name_H-M  'F-43m'
_cell_length_a       9.36515
_cell_length_b       9.36515
_cell_length_c       9.36515
_cell_angle_alpha    60
_cell_angle_beta     60
_cell_angle_gamma    60

_symmetry_Int_Tables_number  216
_chemical_formula_structural  Ho4CdCo
_chemical_formula_sum  Ho6Cd4Co4
_cell_volume  580.803659635427
_cell_formula_units_Z  4
loop_
  _symmetry_equiv_pos_site_id
 _symmetry_equiv_pos_as_xyz
 1  'x, y, z'
loop_
 _atom_site_type_symbol
 _atom_site_label
 _atom_site_symmetry_multiplicity
 _atom_site_fract_x
 _atom_site_fract_y
 _atom_site_fract_z
 _atom_site_fract_occupancy
 Cd  Cd1  1  0.41879  0.41879  0.41879  1
 Cd  Cd2  1  0.41879  0.74364  0.41879  1
 Cd  Cd3  1  0.74364  0.41879  0.41879  1
 Cd  Cd4  1  0.41879  0.41879  0.74364  1
 Co  Co1  1  0.85906  0.85906  0.42281  1
 Co  Co2  1  0.42281  0.85906  0.85906  1
 Co  Co3  1  0.85906  0.85906  0.85906  1
 Co  Co4  1  0.85906  0.42281  0.85906  1
 Ho  Ho1  1  0.43770  0.06230  0.43770  1
 Ho  Ho2  1  0.18830  0.18830  0.81170  1
 Ho  Ho3  1  0.06230  0.06230  0.43770  1
 Ho  Ho4  1  0.06230  0.43770  0.06230  1
 Ho  Ho5  1  0.06230  0.43770  0.43770  1
 Ho  Ho6  1  0.43770  0.43770  0.06230  1
 Ho  Ho7  1  0.65341  0.65341  0.65341  1
 Ho  Ho8  1  0.81170  0.81170  0.18830  1
 Ho  Ho9  1  0.81170  0.18830  0.18830  1
 Ho  Ho10  1  0.65341  0.65341  0.03978  1
 Ho  Ho11  1  0.18830  0.81170  0.18830  1
 Ho  Ho12  1  0.43770  0.06230  0.06230  1
 Ho  Ho13  1  0.81170  0.18830  0.81170  1
 Ho  Ho14  1  0.03978  0.65341  0.65341  1
 Ho  Ho15  1  0.65341  0.03978  0.65341  1
 Ho  Ho16  1  0.18830  0.81170  0.81170  1
