CIF file written using JARVIS-Tools package.
data_TeMo2Se2S
_symmetry_space_group_name_H-M  'P3m1'
_cell_length_a       3.34827
_cell_length_b       3.34826
_cell_length_c       35.2196
_cell_angle_alpha    90.0001
_cell_angle_beta     89.9979
_cell_angle_gamma    120

_symmetry_Int_Tables_number  156
_chemical_formula_structural  TeMo2Se2S
_chemical_formula_sum  Te2Mo4Se4S2
_cell_volume  341.9443825189104
_cell_formula_units_Z  2
loop_
  _symmetry_equiv_pos_site_id
 _symmetry_equiv_pos_as_xyz
 1  'x, y, z'
loop_
 _atom_site_type_symbol
 _atom_site_label
 _atom_site_symmetry_multiplicity
 _atom_site_fract_x
 _atom_site_fract_y
 _atom_site_fract_z
 _atom_site_fract_occupancy
 Mo  Mo1  1  0.33340  0.66665  0.09633  1
 Mo  Mo2  1  0.33331  0.66667  0.46647  1
 Mo  Mo3  1  0.66670  0.33333  0.27603  1
 Mo  Mo4  1  0.66659  0.33336  0.66411  1
 S  S1  1  0.33333  0.66662  0.31913  1
 S  S2  1  0.33340  0.66671  0.23294  1
 Se  Se1  1  0.33325  0.66669  0.71137  1
 Se  Se2  1  0.66674  0.33329  0.04907  1
 Se  Se3  1  0.66673  0.33333  0.14364  1
 Se  Se4  1  0.33327  0.66669  0.61677  1
 Te  Te1  1  0.66666  0.33334  0.41245  1
 Te  Te2  1  0.66663  0.33334  0.52044  1
