CIF file written using JARVIS-Tools package.
data_YZnSn
_symmetry_space_group_name_H-M  'P6_3/mmc'
_cell_length_a       4.49034
_cell_length_b       4.49034
_cell_length_c       15.9985
_cell_angle_alpha    90
_cell_angle_beta     90
_cell_angle_gamma    120

_symmetry_Int_Tables_number  194
_chemical_formula_structural  YZnSn
_chemical_formula_sum  Y4Zn4Sn4
_cell_volume  279.3622451498226
_cell_formula_units_Z  4
loop_
  _symmetry_equiv_pos_site_id
 _symmetry_equiv_pos_as_xyz
 1  'x, y, z'
loop_
 _atom_site_type_symbol
 _atom_site_label
 _atom_site_symmetry_multiplicity
 _atom_site_fract_x
 _atom_site_fract_y
 _atom_site_fract_z
 _atom_site_fract_occupancy
 Sn  Sn1  1  0.66667  0.33333  0.38722  1
 Sn  Sn2  1  0.33333  0.66667  0.88722  1
 Sn  Sn3  1  0.33333  0.66667  0.61278  1
 Sn  Sn4  1  0.66667  0.33333  0.11278  1
 Y  Y1  1  0.00000  0.00000  0.00000  1
 Y  Y2  1  0.00000  0.00000  0.75000  1
 Y  Y3  1  0.00000  0.00000  0.50000  1
 Y  Y4  1  0.00000  0.00000  0.25000  1
 Zn  Zn1  1  0.33333  0.66667  0.16153  1
 Zn  Zn2  1  0.66667  0.33333  0.66153  1
 Zn  Zn3  1  0.33333  0.66667  0.33847  1
 Zn  Zn4  1  0.66667  0.33333  0.83847  1
