CIF file written using JARVIS-Tools package.
data_Ge3N2
_symmetry_space_group_name_H-M  'Pm-3m'
_cell_length_a       7.09792
_cell_length_b       7.09792
_cell_length_c       7.09792
_cell_angle_alpha    90
_cell_angle_beta     90
_cell_angle_gamma    90

_symmetry_Int_Tables_number  221
_chemical_formula_structural  Ge3N2
_chemical_formula_sum  Ge2N8
_cell_volume  357.59620033545815
_cell_formula_units_Z  4
loop_
  _symmetry_equiv_pos_site_id
 _symmetry_equiv_pos_as_xyz
 1  'x, y, z'
loop_
 _atom_site_type_symbol
 _atom_site_label
 _atom_site_symmetry_multiplicity
 _atom_site_fract_x
 _atom_site_fract_y
 _atom_site_fract_z
 _atom_site_fract_occupancy
 Ge  Ge1  1  0.82370  0.82370  0.50000  1
 Ge  Ge2  1  0.50000  0.17630  0.82370  1
 Ge  Ge3  1  0.17630  0.17630  0.50000  1
 Ge  Ge4  1  0.82370  0.17630  0.50000  1
 Ge  Ge5  1  0.50000  0.82370  0.17630  1
 Ge  Ge6  1  0.17630  0.50000  0.82370  1
 Ge  Ge7  1  0.17630  0.82370  0.50000  1
 Ge  Ge8  1  0.50000  0.82370  0.82370  1
 Ge  Ge9  1  0.82370  0.50000  0.17630  1
 Ge  Ge10  1  0.82370  0.50000  0.82370  1
 Ge  Ge11  1  0.17630  0.50000  0.17630  1
 Ge  Ge12  1  0.50000  0.17630  0.17630  1
 N  N1  1  0.72258  0.72258  0.72258  1
 N  N2  1  0.72258  0.27742  0.27742  1
 N  N3  1  0.72258  0.72258  0.27742  1
 N  N4  1  0.27742  0.27742  0.27742  1
 N  N5  1  0.27742  0.72258  0.72258  1
 N  N6  1  0.72258  0.27742  0.72258  1
 N  N7  1  0.27742  0.27742  0.72258  1
 N  N8  1  0.27742  0.72258  0.27742  1
