CIF file written using JARVIS-Tools package.
data_Ti2ReB2
_symmetry_space_group_name_H-M  'P4/mbm'
_cell_length_a       5.94712
_cell_length_b       5.94712
_cell_length_c       3.18341
_cell_angle_alpha    90
_cell_angle_beta     90
_cell_angle_gamma    90

_symmetry_Int_Tables_number  127
_chemical_formula_structural  Ti2ReB2
_chemical_formula_sum  Ti4Re2B4
_cell_volume  112.59155534514447
_cell_formula_units_Z  2
loop_
  _symmetry_equiv_pos_site_id
 _symmetry_equiv_pos_as_xyz
 1  'x, y, z'
loop_
 _atom_site_type_symbol
 _atom_site_label
 _atom_site_symmetry_multiplicity
 _atom_site_fract_x
 _atom_site_fract_y
 _atom_site_fract_z
 _atom_site_fract_occupancy
 B  B1  1  0.10709  0.60709  0.00000  1
 B  B2  1  0.60709  0.89291  0.00000  1
 B  B3  1  0.39291  0.10709  0.00000  1
 B  B4  1  0.89291  0.39291  0.00000  1
 Re  Re1  1  0.50000  0.50000  0.00000  1
 Re  Re2  1  0.00000  0.00000  0.00000  1
 Ti  Ti1  1  0.81918  0.68082  0.50000  1
 Ti  Ti2  1  0.31918  0.81918  0.50000  1
 Ti  Ti3  1  0.18082  0.31918  0.50000  1
 Ti  Ti4  1  0.68082  0.18082  0.50000  1
