CIF file written using JARVIS-Tools package.
data_Mg3P2
_symmetry_space_group_name_H-M  'Ia-3'
_cell_length_a       10.438
_cell_length_b       10.438
_cell_length_c       10.438
_cell_angle_alpha    109.471
_cell_angle_beta     109.471
_cell_angle_gamma    109.471

_symmetry_Int_Tables_number  206
_chemical_formula_structural  Mg3P2
_chemical_formula_sum  Mg24P6
_cell_volume  875.455195523692
_cell_formula_units_Z  8
loop_
  _symmetry_equiv_pos_site_id
 _symmetry_equiv_pos_as_xyz
 1  'x, y, z'
loop_
 _atom_site_type_symbol
 _atom_site_label
 _atom_site_symmetry_multiplicity
 _atom_site_fract_x
 _atom_site_fract_y
 _atom_site_fract_z
 _atom_site_fract_occupancy
 Mg  Mg1  1  0.52593  0.76645  0.53326  1
 Mg  Mg2  1  0.73355  0.25948  0.76681  1
 Mg  Mg3  1  0.73319  0.99267  0.96674  1
 Mg  Mg4  1  0.76645  0.53326  0.52593  1
 Mg  Mg5  1  0.53326  0.52593  0.76645  1
 Mg  Mg6  1  0.50733  0.24052  0.97407  1
 Mg  Mg7  1  0.96674  0.73319  0.99267  1
 Mg  Mg8  1  0.25948  0.76681  0.73355  1
 Mg  Mg9  1  0.99267  0.96674  0.73319  1
 Mg  Mg10  1  0.97407  0.50733  0.24052  1
 Mg  Mg11  1  0.76681  0.73355  0.25948  1
 Mg  Mg12  1  0.46674  0.47407  0.23355  1
 Mg  Mg13  1  0.24052  0.97407  0.50733  1
 Mg  Mg14  1  0.00733  0.03326  0.26681  1
 Mg  Mg15  1  0.47407  0.23355  0.46674  1
 Mg  Mg16  1  0.02593  0.49267  0.75948  1
 Mg  Mg17  1  0.23319  0.26645  0.74052  1
 Mg  Mg18  1  0.23355  0.46674  0.47407  1
 Mg  Mg19  1  0.26681  0.00733  0.03326  1
 Mg  Mg20  1  0.26645  0.74052  0.23319  1
 Mg  Mg21  1  0.03326  0.26681  0.00733  1
 Mg  Mg22  1  0.49267  0.75948  0.02593  1
 Mg  Mg23  1  0.74052  0.23319  0.26645  1
 Mg  Mg24  1  0.75948  0.02593  0.49267  1
 P  P1  1  0.02356  0.75000  0.77356  1
 P  P2  1  0.27356  0.52356  0.75000  1
 P  P3  1  0.50000  0.50000  0.50000  1
 P  P4  1  0.00000  0.00000  0.50000  1
 P  P5  1  -0.00000  0.50000  -0.00000  1
 P  P6  1  0.25000  0.22644  0.97644  1
 P  P7  1  0.50000  0.00000  0.00000  1
 P  P8  1  0.47644  0.25000  0.72644  1
 P  P9  1  0.75000  0.27356  0.52356  1
 P  P10  1  0.75000  0.77356  0.02356  1
 P  P11  1  0.72644  0.47644  0.25000  1
 P  P12  1  0.97644  0.25000  0.22644  1
 P  P13  1  0.77356  0.02356  0.75000  1
 P  P14  1  0.52356  0.75000  0.27356  1
 P  P15  1  0.22644  0.97644  0.25000  1
 P  P16  1  0.25000  0.72644  0.47644  1
