CIF file written using JARVIS-Tools package.
data_InAgW2O8
_symmetry_space_group_name_H-M  'P2/c'
_cell_length_a       5.09242
_cell_length_b       5.88379
_cell_length_c       10.2727
_cell_angle_alpha    90
_cell_angle_beta     91.0638
_cell_angle_gamma    90

_symmetry_Int_Tables_number  13
_chemical_formula_structural  InAgW2O8
_chemical_formula_sum  In2Ag2W4O6
_cell_volume  307.74564267969834
_cell_formula_units_Z  2
loop_
  _symmetry_equiv_pos_site_id
 _symmetry_equiv_pos_as_xyz
 1  'x, y, z'
loop_
 _atom_site_type_symbol
 _atom_site_label
 _atom_site_symmetry_multiplicity
 _atom_site_fract_x
 _atom_site_fract_y
 _atom_site_fract_z
 _atom_site_fract_occupancy
 Ag  Ag1  1  0.25000  0.31159  -0.00000  1
 Ag  Ag2  1  0.75000  0.68841  -0.00000  1
 In  In1  1  0.25000  0.31304  0.50000  1
 In  In2  1  0.75000  0.68696  0.50000  1
 O  O1  1  0.94952  0.89781  0.36783  1
 O  O2  1  0.88421  0.36877  0.85523  1
 O  O3  1  0.05048  0.10219  0.63217  1
 O  O4  1  0.11579  0.63123  0.14477  1
 O  O5  1  0.39516  0.62217  0.38404  1
 O  O6  1  0.93847  0.90425  0.83153  1
 O  O7  1  0.06153  0.09575  0.16847  1
 O  O8  1  0.56153  0.90425  0.16847  1
 O  O9  1  0.55048  0.89781  0.63217  1
 O  O10  1  0.38421  0.63123  0.85523  1
 O  O11  1  0.43847  0.09575  0.83153  1
 O  O12  1  0.89516  0.37783  0.38404  1
 O  O13  1  0.60484  0.37783  0.61596  1
 O  O14  1  0.10484  0.62217  0.61596  1
 O  O15  1  0.44952  0.10219  0.36783  1
 O  O16  1  0.61579  0.36877  0.14477  1
 W  W1  1  0.24609  0.82290  0.74197  1
 W  W2  1  0.25391  0.82290  0.25803  1
 W  W3  1  0.75391  0.17710  0.25803  1
 W  W4  1  0.74609  0.17710  0.74197  1
