CIF file written using JARVIS-Tools package.
data_NbI2O
_symmetry_space_group_name_H-M  'C2'
_cell_length_a       3.93212
_cell_length_b       7.57937
_cell_length_c       7.95394
_cell_angle_alpha    104.901
_cell_angle_beta     104.312
_cell_angle_gamma    90.002

_symmetry_Int_Tables_number  5
_chemical_formula_structural  NbI2O
_chemical_formula_sum  Nb2I4O2
_cell_volume  221.45621142202552
_cell_formula_units_Z  2
loop_
  _symmetry_equiv_pos_site_id
 _symmetry_equiv_pos_as_xyz
 1  'x, y, z'
loop_
 _atom_site_type_symbol
 _atom_site_label
 _atom_site_symmetry_multiplicity
 _atom_site_fract_x
 _atom_site_fract_y
 _atom_site_fract_z
 _atom_site_fract_occupancy
 I  I1  1  0.15816  0.58611  0.31024  1
 I  I2  1  0.12882  0.06781  0.25611  1
 I  I3  1  0.87265  0.93219  0.74389  1
 I  I4  1  0.84786  0.41389  0.68976  1
 Nb  Nb1  1  0.02030  0.70813  0.99887  1
 Nb  Nb2  1  0.02148  0.29187  0.00113  1
 O  O1  1  0.50539  0.71304  0.99808  1
 O  O2  1  0.50734  0.28695  0.00192  1
