CIF file written using JARVIS-Tools package.
data_ZrZn
_symmetry_space_group_name_H-M  'Pm-3m'
_cell_length_a       3.33488
_cell_length_b       3.33482
_cell_length_c       3.33411
_cell_angle_alpha    89.8923
_cell_angle_beta     89.8894
_cell_angle_gamma    89.889

_symmetry_Int_Tables_number  221
_chemical_formula_structural  ZrZn
_chemical_formula_sum  ZrZn
_cell_volume  37.079272676529364
_cell_formula_units_Z  1
loop_
  _symmetry_equiv_pos_site_id
 _symmetry_equiv_pos_as_xyz
 1  'x, y, z'
loop_
 _atom_site_type_symbol
 _atom_site_label
 _atom_site_symmetry_multiplicity
 _atom_site_fract_x
 _atom_site_fract_y
 _atom_site_fract_z
 _atom_site_fract_occupancy
 Zn  Zn1  1  0.00000  0.00001  0.00000  1
 Zr  Zr1  1  0.50000  0.49999  0.50000  1
