CIF file written using JARVIS-Tools package.
data_Zn2Si3Pb4SO15
_symmetry_space_group_name_H-M  'P2_1'
_cell_length_a       11.3666
_cell_length_b       5.26554
_cell_length_c       12.6859
_cell_angle_alpha    90
_cell_angle_beta     107.861
_cell_angle_gamma    90

_symmetry_Int_Tables_number  4
_chemical_formula_structural  Zn2Si3Pb4SO15
_chemical_formula_sum  Zn4Si6Pb8S2O30
_cell_volume  722.6762451393511
_cell_formula_units_Z  2
loop_
  _symmetry_equiv_pos_site_id
 _symmetry_equiv_pos_as_xyz
 1  'x, y, z'
loop_
 _atom_site_type_symbol
 _atom_site_label
 _atom_site_symmetry_multiplicity
 _atom_site_fract_x
 _atom_site_fract_y
 _atom_site_fract_z
 _atom_site_fract_occupancy
 O  O1  1  0.59655  0.76846  0.07021  1
 O  O2  1  0.52332  0.82391  0.66589  1
 O  O3  1  0.21489  0.26789  0.06997  1
 O  O4  1  0.89629  0.01269  0.09292  1
 O  O5  1  0.95730  0.03527  0.92292  1
 O  O6  1  0.06443  0.79317  0.35689  1
 O  O7  1  0.35661  0.88187  0.35069  1
 O  O8  1  0.48107  0.40480  0.76524  1
 O  O9  1  0.60294  0.91938  0.45295  1
 O  O10  1  0.93557  0.29317  0.64311  1
 O  O11  1  0.65497  0.24159  0.16405  1
 O  O12  1  0.23957  0.30831  0.72786  1
 O  O13  1  0.64339  0.38187  0.64931  1
 O  O14  1  0.11764  0.40302  0.50766  1
 O  O15  1  0.51893  0.90480  0.23476  1
 O  O16  1  0.76446  0.22468  0.93082  1
 O  O17  1  0.81144  0.87582  0.67072  1
 O  O18  1  0.76043  0.80831  0.27214  1
 O  O19  1  0.34503  0.74159  0.83595  1
 O  O20  1  0.94449  0.33984  0.31283  1
 O  O21  1  0.18856  0.37582  0.32928  1
 O  O22  1  0.78511  0.76789  0.93003  1
 O  O23  1  0.40345  0.26846  0.92979  1
 O  O24  1  0.23554  0.72468  0.06918  1
 O  O25  1  0.88236  0.90302  0.49234  1
 O  O26  1  0.47668  0.32391  0.33411  1
 O  O27  1  0.10371  0.51269  0.90708  1
 O  O28  1  0.05551  0.83984  0.68717  1
 O  O29  1  0.39706  0.41938  0.54705  1
 O  O30  1  0.04270  0.53527  0.07708  1
 Pb  Pb1  1  0.81478  0.48808  0.12793  1
 Pb  Pb2  1  0.54578  0.95441  0.88458  1
 Pb  Pb3  1  0.15055  0.99258  0.21654  1
 Pb  Pb4  1  0.45422  0.45441  0.11542  1
 Pb  Pb5  1  0.84945  0.49258  0.78346  1
 Pb  Pb6  1  0.73253  0.58751  0.43429  1
 Pb  Pb7  1  0.18522  0.98808  0.87207  1
 Pb  Pb8  1  0.26747  0.08751  0.56571  1
 S  S1  1  0.14551  0.50888  0.03101  1
 S  S2  1  0.85449  0.00888  0.96899  1
 Si  Si1  1  0.51345  0.51519  0.65305  1
 Si  Si2  1  0.48655  0.01519  0.34695  1
 Si  Si3  1  0.63770  0.94107  0.18345  1
 Si  Si4  1  0.07696  0.48383  0.37582  1
 Si  Si5  1  0.92304  0.98383  0.62418  1
 Si  Si6  1  0.36230  0.44107  0.81655  1
 Zn  Zn1  1  0.35868  0.51618  0.38728  1
 Zn  Zn2  1  0.08238  0.49590  0.64446  1
 Zn  Zn3  1  0.91762  0.99590  0.35554  1
 Zn  Zn4  1  0.64132  0.01618  0.61272  1
