CIF file written using JARVIS-Tools package.
data_O
_symmetry_space_group_name_H-M  'R-3c'
_cell_length_a       6.13497
_cell_length_b       6.13497
_cell_length_c       6.13497
_cell_angle_alpha    39.6742
_cell_angle_beta     39.6741
_cell_angle_gamma    39.6741

_symmetry_Int_Tables_number  167
_chemical_formula_structural  O
_chemical_formula_sum  O6
_cell_volume  84.74546241883685
_cell_formula_units_Z  6
loop_
  _symmetry_equiv_pos_site_id
 _symmetry_equiv_pos_as_xyz
 1  'x, y, z'
loop_
 _atom_site_type_symbol
 _atom_site_label
 _atom_site_symmetry_multiplicity
 _atom_site_fract_x
 _atom_site_fract_y
 _atom_site_fract_z
 _atom_site_fract_occupancy
 O  O1  1  0.11523  0.91398  0.71092  1
 O  O2  1  0.91398  0.71092  0.11523  1
 O  O3  1  0.71092  0.11523  0.91398  1
 O  O4  1  0.21092  0.41398  0.61523  1
 O  O5  1  0.61523  0.21092  0.41398  1
 O  O6  1  0.41398  0.61523  0.21092  1
