CIF file written using JARVIS-Tools package.
data_Ba2CaB2O6
_symmetry_space_group_name_H-M  'C2/m'
_cell_length_a       5.4877
_cell_length_b       5.59625
_cell_length_c       6.57859
_cell_angle_alpha    65.519
_cell_angle_beta     65.3496
_cell_angle_gamma    60.6389

_symmetry_Int_Tables_number  12
_chemical_formula_structural  Ba2CaB2O6
_chemical_formula_sum  Ba2CaB2O6
_cell_volume  154.3141719232337
_cell_formula_units_Z  1
loop_
  _symmetry_equiv_pos_site_id
 _symmetry_equiv_pos_as_xyz
 1  'x, y, z'
loop_
 _atom_site_type_symbol
 _atom_site_label
 _atom_site_symmetry_multiplicity
 _atom_site_fract_x
 _atom_site_fract_y
 _atom_site_fract_z
 _atom_site_fract_occupancy
 B  B1  1  0.56288  0.62897  0.24526  1
 B  B2  1  0.43712  0.37103  0.75474  1
 Ba  Ba1  1  0.21198  0.26065  0.31539  1
 Ba  Ba2  1  0.78802  0.73935  0.68461  1
 Ca  Ca1  1  0.00000  -0.00000  -0.00000  1
 O  O1  1  0.72274  0.37866  0.17586  1
 O  O2  1  0.73653  0.23852  0.72664  1
 O  O3  1  0.70170  0.76150  0.27333  1
 O  O4  1  0.27726  0.62134  0.82414  1
 O  O5  1  0.29830  0.23850  0.72667  1
 O  O6  1  0.26347  0.76148  0.27336  1
