CIF file written using JARVIS-Tools package.
data_Ba2InBiS5
_symmetry_space_group_name_H-M  'Cmc2_1'
_cell_length_a       4.20668
_cell_length_b       9.48027
_cell_length_c       12.8504
_cell_angle_alpha    90
_cell_angle_beta     90
_cell_angle_gamma    77.1814

_symmetry_Int_Tables_number  36
_chemical_formula_structural  Ba2InBiS5
_chemical_formula_sum  Ba4In2Bi2S0
_cell_volume  499.70847921334445
_cell_formula_units_Z  2
loop_
  _symmetry_equiv_pos_site_id
 _symmetry_equiv_pos_as_xyz
 1  'x, y, z'
loop_
 _atom_site_type_symbol
 _atom_site_label
 _atom_site_symmetry_multiplicity
 _atom_site_fract_x
 _atom_site_fract_y
 _atom_site_fract_z
 _atom_site_fract_occupancy
 Ba  Ba1  1  0.13026  0.73948  0.18919  1
 Ba  Ba2  1  0.88774  0.22453  0.31463  1
 Ba  Ba3  1  0.86974  0.26052  0.68920  1
 Ba  Ba4  1  0.11226  0.77547  0.81463  1
 Bi  Bi1  1  0.21717  0.56566  0.47841  1
 Bi  Bi2  1  0.78283  0.43434  0.97841  1
 In  In1  1  0.44476  0.11047  0.05579  1
 In  In2  1  0.55524  0.88953  0.55579  1
 S  S1  1  0.28414  0.43172  0.83380  1
 S  S2  1  0.31550  0.36901  0.13293  1
 S  S3  1  0.50474  0.99052  0.22530  1
 S  S4  1  0.64107  0.71786  0.99922  1
 S  S5  1  0.49526  0.00948  0.72530  1
 S  S6  1  0.35893  0.28214  0.49922  1
 S  S7  1  0.68450  0.63099  0.63293  1
 S  S8  1  0.71586  0.56828  0.33380  1
 S  S9  1  0.04560  0.90879  0.44676  1
 S  S10  1  0.95440  0.09121  0.94676  1
