CIF file written using JARVIS-Tools package.
data_MgTa2N3
_symmetry_space_group_name_H-M  'P6_3/mcm'
_cell_length_a       5.23996
_cell_length_b       5.23996
_cell_length_c       10.5025
_cell_angle_alpha    90
_cell_angle_beta     90
_cell_angle_gamma    120

_symmetry_Int_Tables_number  193
_chemical_formula_structural  MgTa2N3
_chemical_formula_sum  Mg4Ta8N2
_cell_volume  249.7347673505244
_cell_formula_units_Z  4
loop_
  _symmetry_equiv_pos_site_id
 _symmetry_equiv_pos_as_xyz
 1  'x, y, z'
loop_
 _atom_site_type_symbol
 _atom_site_label
 _atom_site_symmetry_multiplicity
 _atom_site_fract_x
 _atom_site_fract_y
 _atom_site_fract_z
 _atom_site_fract_occupancy
 Mg  Mg1  1  0.66667  0.33333  0.50000  1
 Mg  Mg2  1  0.66667  0.33333  0.00000  1
 Mg  Mg3  1  0.33333  0.66667  0.00000  1
 Mg  Mg4  1  0.33333  0.66667  0.50000  1
 N  N1  1  0.67012  -0.00000  0.38011  1
 N  N2  1  0.32988  0.32988  0.38011  1
 N  N3  1  0.32988  0.32988  0.11989  1
 N  N4  1  0.32988  0.00000  0.88011  1
 N  N5  1  0.32988  0.00000  0.61989  1
 N  N6  1  -0.00000  0.67012  0.11989  1
 N  N7  1  -0.00000  0.67012  0.38011  1
 N  N8  1  0.00000  0.32988  0.61989  1
 N  N9  1  0.00000  0.32988  0.88011  1
 N  N10  1  0.67012  0.67012  0.88011  1
 N  N11  1  0.67012  -0.00000  0.11989  1
 N  N12  1  0.67012  0.67012  0.61989  1
 Ta  Ta1  1  0.66402  0.66402  0.25000  1
 Ta  Ta2  1  0.66402  -0.00000  0.75000  1
 Ta  Ta3  1  -0.00000  0.66402  0.75000  1
 Ta  Ta4  1  0.33598  0.33598  0.75000  1
 Ta  Ta5  1  0.00000  0.00000  0.50000  1
 Ta  Ta6  1  0.00000  0.33598  0.25000  1
 Ta  Ta7  1  0.33598  0.00000  0.25000  1
 Ta  Ta8  1  0.00000  0.00000  0.00000  1
