CIF file written using JARVIS-Tools package.
data_Ge2Pt3
_symmetry_space_group_name_H-M  'Cmcm'
_cell_length_a       3.56178
_cell_length_b       6.39545
_cell_length_c       7.66667
_cell_angle_alpha    90
_cell_angle_beta     90
_cell_angle_gamma    106.168

_symmetry_Int_Tables_number  63
_chemical_formula_structural  Ge2Pt3
_chemical_formula_sum  Ge4Pt6
_cell_volume  167.73306237548104
_cell_formula_units_Z  2
loop_
  _symmetry_equiv_pos_site_id
 _symmetry_equiv_pos_as_xyz
 1  'x, y, z'
loop_
 _atom_site_type_symbol
 _atom_site_label
 _atom_site_symmetry_multiplicity
 _atom_site_fract_x
 _atom_site_fract_y
 _atom_site_fract_z
 _atom_site_fract_occupancy
 Ge  Ge1  1  0.50000  0.00000  0.00000  1
 Ge  Ge2  1  0.50000  0.00000  0.50000  1
 Ge  Ge3  1  0.75631  0.51263  0.75000  1
 Ge  Ge4  1  0.24369  0.48737  0.25000  1
 Pt  Pt1  1  0.96593  0.93186  0.75000  1
 Pt  Pt2  1  0.03407  0.06814  0.25000  1
 Pt  Pt3  1  0.16042  0.32085  0.94007  1
 Pt  Pt4  1  0.83958  0.67915  0.05993  1
 Pt  Pt5  1  0.83958  0.67915  0.44007  1
 Pt  Pt6  1  0.16042  0.32085  0.55993  1
