CIF file written using JARVIS-Tools package.
data_KSrCO3F
_symmetry_space_group_name_H-M  'P-6m2'
_cell_length_a       5.27126
_cell_length_b       5.27126
_cell_length_c       4.71837
_cell_angle_alpha    90
_cell_angle_beta     90
_cell_angle_gamma    120

_symmetry_Int_Tables_number  187
_chemical_formula_structural  KSrCO3F
_chemical_formula_sum  KSrCO3F
_cell_volume  113.5406981816245
_cell_formula_units_Z  1
loop_
  _symmetry_equiv_pos_site_id
 _symmetry_equiv_pos_as_xyz
 1  'x, y, z'
loop_
 _atom_site_type_symbol
 _atom_site_label
 _atom_site_symmetry_multiplicity
 _atom_site_fract_x
 _atom_site_fract_y
 _atom_site_fract_z
 _atom_site_fract_occupancy
 C  C1  1  0.33333  0.66667  0.50000  1
 F  F1  1  0.66667  0.33333  0.00000  1
 K  K1  1  0.00000  0.00000  0.00000  1
 O  O1  1  0.19095  0.38189  0.50000  1
 O  O2  1  0.19095  0.80905  0.50000  1
 O  O3  1  0.61811  0.80905  0.50000  1
 Sr  Sr1  1  0.66667  0.33333  0.50000  1
