CIF file written using JARVIS-Tools package.
data_Te2Mo3WS6
_symmetry_space_group_name_H-M  'P3m1'
_cell_length_a       3.2833
_cell_length_b       3.28337
_cell_length_c       36.2953
_cell_angle_alpha    90.0067
_cell_angle_beta     90
_cell_angle_gamma    119.999

_symmetry_Int_Tables_number  156
_chemical_formula_structural  Te2Mo3WS6
_chemical_formula_sum  Te2Mo3WS6
_cell_volume  338.85596995047825
_cell_formula_units_Z  1
loop_
  _symmetry_equiv_pos_site_id
 _symmetry_equiv_pos_as_xyz
 1  'x, y, z'
loop_
 _atom_site_type_symbol
 _atom_site_label
 _atom_site_symmetry_multiplicity
 _atom_site_fract_x
 _atom_site_fract_y
 _atom_site_fract_z
 _atom_site_fract_occupancy
 Mo  Mo1  1  0.33331  0.66663  0.09393  1
 Mo  Mo2  1  0.33330  0.66660  0.46956  1
 Mo  Mo3  1  0.66670  0.33340  0.28176  1
 S  S1  1  0.33336  0.66673  0.32425  1
 S  S2  1  0.66660  0.33321  0.05169  1
 S  S3  1  0.66661  0.33322  0.42715  1
 S  S4  1  0.66668  0.33337  0.13638  1
 S  S5  1  0.66669  0.33338  0.51188  1
 S  S6  1  0.33330  0.66659  0.23937  1
 Te  Te1  1  0.33343  0.66687  0.71093  1
 Te  Te2  1  0.33330  0.66661  0.60417  1
 W  W1  1  0.66669  0.33339  0.65768  1
