CIF file written using JARVIS-Tools package.
data_Ba5As3
_symmetry_space_group_name_H-M  'P6_3/mcm'
_cell_length_a       9.5355
_cell_length_b       9.5355
_cell_length_c       7.63424
_cell_angle_alpha    90
_cell_angle_beta     90
_cell_angle_gamma    120

_symmetry_Int_Tables_number  193
_chemical_formula_structural  Ba5As3
_chemical_formula_sum  Ba0As6
_cell_volume  601.1513859110728
_cell_formula_units_Z  2
loop_
  _symmetry_equiv_pos_site_id
 _symmetry_equiv_pos_as_xyz
 1  'x, y, z'
loop_
 _atom_site_type_symbol
 _atom_site_label
 _atom_site_symmetry_multiplicity
 _atom_site_fract_x
 _atom_site_fract_y
 _atom_site_fract_z
 _atom_site_fract_occupancy
 As  As1  1  0.00000  0.39189  0.25000  1
 As  As2  1  0.39189  0.39189  0.75000  1
 As  As3  1  0.60811  -0.00000  0.75000  1
 As  As4  1  0.39189  0.00000  0.25000  1
 As  As5  1  0.60811  0.60811  0.25000  1
 As  As6  1  -0.00000  0.60811  0.75000  1
 Ba  Ba1  1  0.74257  -0.00000  0.25000  1
 Ba  Ba2  1  0.25743  0.00000  0.75000  1
 Ba  Ba3  1  0.74257  0.74257  0.75000  1
 Ba  Ba4  1  -0.00000  0.74257  0.25000  1
 Ba  Ba5  1  0.25743  0.25743  0.25000  1
 Ba  Ba6  1  0.00000  0.25743  0.75000  1
 Ba  Ba7  1  0.33333  0.66667  0.50000  1
 Ba  Ba8  1  0.66667  0.33333  0.00000  1
 Ba  Ba9  1  0.66667  0.33333  0.50000  1
 Ba  Ba10  1  0.33333  0.66667  0.00000  1
