CIF file written using JARVIS-Tools package.
data_HgSeO3
_symmetry_space_group_name_H-M  'Pnma'
_cell_length_a       6.08368
_cell_length_b       6.15813
_cell_length_c       8.32036
_cell_angle_alpha    90
_cell_angle_beta     90
_cell_angle_gamma    90

_symmetry_Int_Tables_number  62
_chemical_formula_structural  HgSeO3
_chemical_formula_sum  Hg4Se4O2
_cell_volume  311.71466693426305
_cell_formula_units_Z  4
loop_
  _symmetry_equiv_pos_site_id
 _symmetry_equiv_pos_as_xyz
 1  'x, y, z'
loop_
 _atom_site_type_symbol
 _atom_site_label
 _atom_site_symmetry_multiplicity
 _atom_site_fract_x
 _atom_site_fract_y
 _atom_site_fract_z
 _atom_site_fract_occupancy
 Hg  Hg1  1  0.50000  0.00000  0.00000  1
 Hg  Hg2  1  0.00000  0.50000  0.00000  1
 Hg  Hg3  1  0.00000  0.50000  0.50000  1
 Hg  Hg4  1  0.50000  0.00000  0.50000  1
 O  O1  1  0.12020  0.19881  0.91327  1
 O  O2  1  0.76148  0.64504  0.75000  1
 O  O3  1  0.37980  0.69881  0.58673  1
 O  O4  1  0.87980  0.80119  0.41327  1
 O  O5  1  0.62020  0.30119  0.08673  1
 O  O6  1  0.37980  0.69881  0.91327  1
 O  O7  1  0.62020  0.30119  0.41327  1
 O  O8  1  0.73852  0.14504  0.75000  1
 O  O9  1  0.87980  0.80119  0.08673  1
 O  O10  1  0.23852  0.35496  0.25000  1
 O  O11  1  0.12020  0.19881  0.58673  1
 O  O12  1  0.26148  0.85496  0.25000  1
 Se  Se1  1  0.00021  0.05635  0.75000  1
 Se  Se2  1  0.50021  0.44365  0.25000  1
 Se  Se3  1  0.49979  0.55635  0.75000  1
 Se  Se4  1  -0.00021  0.94365  0.25000  1
