CIF file written using JARVIS-Tools package.
data_CdHg2SO6
_symmetry_space_group_name_H-M  'P-1'
_cell_length_a       6.8633
_cell_length_b       7.31232
_cell_length_c       7.4403
_cell_angle_alpha    73.1501
_cell_angle_beta     65.6284
_cell_angle_gamma    63.0561

_symmetry_Int_Tables_number  2
_chemical_formula_structural  CdHg2SO6
_chemical_formula_sum  Cd2Hg4S2O2
_cell_volume  300.76509817186405
_cell_formula_units_Z  2
loop_
  _symmetry_equiv_pos_site_id
 _symmetry_equiv_pos_as_xyz
 1  'x, y, z'
loop_
 _atom_site_type_symbol
 _atom_site_label
 _atom_site_symmetry_multiplicity
 _atom_site_fract_x
 _atom_site_fract_y
 _atom_site_fract_z
 _atom_site_fract_occupancy
 Cd  Cd1  1  0.67119  0.87124  0.77509  1
 Cd  Cd2  1  0.32881  0.12876  0.22491  1
 Hg  Hg1  1  0.16290  0.36172  0.77978  1
 Hg  Hg2  1  0.33458  0.63523  0.22041  1
 Hg  Hg3  1  0.66542  0.36477  0.77959  1
 Hg  Hg4  1  0.83710  0.63828  0.22022  1
 O  O1  1  0.03216  0.11398  0.16913  1
 O  O2  1  0.31705  0.69156  0.58146  1
 O  O3  1  0.54556  0.79848  0.13653  1
 O  O4  1  0.34139  0.82589  0.83082  1
 O  O5  1  0.96784  0.88602  0.83087  1
 O  O6  1  0.80015  0.93561  0.43328  1
 O  O7  1  0.14264  0.46719  0.27332  1
 O  O8  1  0.19985  0.06439  0.56672  1
 O  O9  1  0.45444  0.20152  0.86347  1
 O  O10  1  0.68295  0.30844  0.41854  1
 O  O11  1  0.85736  0.53281  0.72668  1
 O  O12  1  0.65861  0.17411  0.16918  1
 S  S1  1  0.79204  0.13517  0.30096  1
 S  S2  1  0.20796  0.86483  0.69904  1
