CIF file written using JARVIS-Tools package.
data_DyZnPO
_symmetry_space_group_name_H-M  'R-3m'
_cell_length_a       10.3882
_cell_length_b       10.3882
_cell_length_c       10.3882
_cell_angle_alpha    21.6018
_cell_angle_beta     21.6018
_cell_angle_gamma    21.6018

_symmetry_Int_Tables_number  166
_chemical_formula_structural  DyZnPO
_chemical_formula_sum  Dy2Zn2P2O2
_cell_volume  133.14445878994906
_cell_formula_units_Z  2
loop_
  _symmetry_equiv_pos_site_id
 _symmetry_equiv_pos_as_xyz
 1  'x, y, z'
loop_
 _atom_site_type_symbol
 _atom_site_label
 _atom_site_symmetry_multiplicity
 _atom_site_fract_x
 _atom_site_fract_y
 _atom_site_fract_z
 _atom_site_fract_occupancy
 Dy  Dy1  1  0.37962  0.37962  0.37962  1
 Dy  Dy2  1  0.62038  0.62038  0.62038  1
 O  O1  1  0.30547  0.30547  0.30547  1
 O  O2  1  0.69453  0.69453  0.69453  1
 P  P1  1  0.11132  0.11132  0.11132  1
 P  P2  1  0.88868  0.88868  0.88868  1
 Zn  Zn1  1  0.19653  0.19653  0.19653  1
 Zn  Zn2  1  0.80347  0.80347  0.80347  1
