CIF file written using JARVIS-Tools package.
data_NiF3
_symmetry_space_group_name_H-M  'R-3'
_cell_length_a       5.15447
_cell_length_b       5.15447
_cell_length_c       5.15447
_cell_angle_alpha    55.0511
_cell_angle_beta     55.051
_cell_angle_gamma    55.0511

_symmetry_Int_Tables_number  148
_chemical_formula_structural  NiF3
_chemical_formula_sum  Ni2F6
_cell_volume  85.68773805629782
_cell_formula_units_Z  2
loop_
  _symmetry_equiv_pos_site_id
 _symmetry_equiv_pos_as_xyz
 1  'x, y, z'
loop_
 _atom_site_type_symbol
 _atom_site_label
 _atom_site_symmetry_multiplicity
 _atom_site_fract_x
 _atom_site_fract_y
 _atom_site_fract_z
 _atom_site_fract_occupancy
 F  F1  1  0.61054  0.24409  0.89906  1
 F  F2  1  0.89906  0.61054  0.24409  1
 F  F3  1  0.24409  0.89906  0.61054  1
 F  F4  1  0.38946  0.75591  0.10094  1
 F  F5  1  0.10094  0.38946  0.75591  1
 F  F6  1  0.75591  0.10094  0.38946  1
 Ni  Ni1  1  0.00000  0.00000  0.00000  1
 Ni  Ni2  1  0.50000  0.50000  0.50000  1
