CIF file written using JARVIS-Tools package.
data_ZnPPd5
_symmetry_space_group_name_H-M  'P4/mmm'
_cell_length_a       3.92581
_cell_length_b       3.92581
_cell_length_c       6.87705
_cell_angle_alpha    90
_cell_angle_beta     90
_cell_angle_gamma    90

_symmetry_Int_Tables_number  123
_chemical_formula_structural  ZnPPd5
_chemical_formula_sum  ZnPPd5
_cell_volume  105.98879489354778
_cell_formula_units_Z  1
loop_
  _symmetry_equiv_pos_site_id
 _symmetry_equiv_pos_as_xyz
 1  'x, y, z'
loop_
 _atom_site_type_symbol
 _atom_site_label
 _atom_site_symmetry_multiplicity
 _atom_site_fract_x
 _atom_site_fract_y
 _atom_site_fract_z
 _atom_site_fract_occupancy
 P  P1  1  0.00000  0.00000  0.50000  1
 Pd  Pd1  1  0.00000  0.50000  0.29162  1
 Pd  Pd2  1  0.00000  0.50000  0.70838  1
 Pd  Pd3  1  0.50000  0.00000  0.29162  1
 Pd  Pd4  1  0.50000  0.00000  0.70838  1
 Pd  Pd5  1  0.00000  0.00000  0.00000  1
 Zn  Zn1  1  0.50000  0.50000  0.00000  1
