CIF file written using JARVIS-Tools package.
data_Dy7Te2Ir2
_symmetry_space_group_name_H-M  'Imm2'
_cell_length_a       3.93605
_cell_length_b       9.39527
_cell_length_c       9.39527
_cell_angle_alpha    59.9742
_cell_angle_beta     77.9087
_cell_angle_gamma    77.9087

_symmetry_Int_Tables_number  44
_chemical_formula_structural  Dy7Te2Ir2
_chemical_formula_sum  Dy7Te2Ir2
_cell_volume  291.884229926042
_cell_formula_units_Z  1
loop_
  _symmetry_equiv_pos_site_id
 _symmetry_equiv_pos_as_xyz
 1  'x, y, z'
loop_
 _atom_site_type_symbol
 _atom_site_label
 _atom_site_symmetry_multiplicity
 _atom_site_fract_x
 _atom_site_fract_y
 _atom_site_fract_z
 _atom_site_fract_occupancy
 Dy  Dy1  1  0.18329  0.71397  0.91944  1
 Dy  Dy2  1  0.14802  0.10989  0.59408  1
 Dy  Dy3  1  0.50000  0.02376  0.97624  1
 Dy  Dy4  1  0.36841  0.73758  0.52561  1
 Dy  Dy5  1  0.63159  0.47439  0.26242  1
 Dy  Dy6  1  0.81671  0.08056  0.28603  1
 Dy  Dy7  1  0.85198  0.40592  0.89011  1
 Ir  Ir1  1  0.26064  0.33449  0.14423  1
 Ir  Ir2  1  0.73936  0.85577  0.66551  1
 Te  Te1  1  -0.00000  0.75883  0.24117  1
 Te  Te2  1  0.50000  0.35871  0.64129  1
