CIF file written using JARVIS-Tools package.
data_CaSiO3
_symmetry_space_group_name_H-M  'Pnma'
_cell_length_a       5.09186
_cell_length_b       5.11084
_cell_length_c       7.17421
_cell_angle_alpha    90
_cell_angle_beta     90
_cell_angle_gamma    90

_symmetry_Int_Tables_number  62
_chemical_formula_structural  CaSiO3
_chemical_formula_sum  Ca4Si4O2
_cell_volume  186.6991895115401
_cell_formula_units_Z  4
loop_
  _symmetry_equiv_pos_site_id
 _symmetry_equiv_pos_as_xyz
 1  'x, y, z'
loop_
 _atom_site_type_symbol
 _atom_site_label
 _atom_site_symmetry_multiplicity
 _atom_site_fract_x
 _atom_site_fract_y
 _atom_site_fract_z
 _atom_site_fract_occupancy
 Ca  Ca1  1  0.49925  0.99914  0.25000  1
 Ca  Ca2  1  0.50075  0.00086  0.75000  1
 Ca  Ca3  1  0.99925  0.50086  0.25000  1
 Ca  Ca4  1  0.00075  0.49914  0.75000  1
 O  O1  1  0.74864  0.75136  0.48118  1
 O  O2  1  0.74864  0.75136  0.01882  1
 O  O3  1  0.99987  0.96328  0.75000  1
 O  O4  1  0.75136  0.25136  0.51882  1
 O  O5  1  0.25136  0.24864  0.98118  1
 O  O6  1  0.50013  0.46328  0.25000  1
 O  O7  1  0.75136  0.25136  0.98118  1
 O  O8  1  0.25136  0.24864  0.51882  1
 O  O9  1  0.00013  0.03672  0.25000  1
 O  O10  1  0.24864  0.74864  0.48118  1
 O  O11  1  0.49987  0.53672  0.75000  1
 O  O12  1  0.24864  0.74864  0.01882  1
 Si  Si1  1  0.50000  0.50000  0.50000  1
 Si  Si2  1  0.50000  0.50000  0.00000  1
 Si  Si3  1  0.00000  0.00000  0.00000  1
 Si  Si4  1  0.00000  0.00000  0.50000  1
