CIF file written using JARVIS-Tools package.
data_NdAl
_symmetry_space_group_name_H-M  'Pbcm'
_cell_length_a       5.75983
_cell_length_b       5.9884
_cell_length_c       11.836
_cell_angle_alpha    90
_cell_angle_beta     90
_cell_angle_gamma    90

_symmetry_Int_Tables_number  57
_chemical_formula_structural  NdAl
_chemical_formula_sum  Nd8Al8
_cell_volume  408.24976930957484
_cell_formula_units_Z  8
loop_
  _symmetry_equiv_pos_site_id
 _symmetry_equiv_pos_as_xyz
 1  'x, y, z'
loop_
 _atom_site_type_symbol
 _atom_site_label
 _atom_site_symmetry_multiplicity
 _atom_site_fract_x
 _atom_site_fract_y
 _atom_site_fract_z
 _atom_site_fract_occupancy
 Al  Al1  1  0.00000  0.92765  0.25000  1
 Al  Al2  1  0.00000  0.07235  0.75000  1
 Al  Al3  1  0.25000  0.66577  0.10093  1
 Al  Al4  1  0.25000  0.33423  0.60093  1
 Al  Al5  1  0.50000  0.92765  0.25000  1
 Al  Al6  1  0.50000  0.07235  0.75000  1
 Al  Al7  1  0.75000  0.66577  0.39907  1
 Al  Al8  1  0.75000  0.33423  0.89907  1
 Nd  Nd1  1  0.25000  0.16319  0.01052  1
 Nd  Nd2  1  0.25000  0.40352  0.33323  1
 Nd  Nd3  1  0.25000  0.83681  0.51052  1
 Nd  Nd4  1  0.25000  0.59648  0.83323  1
 Nd  Nd5  1  0.75000  0.40352  0.16677  1
 Nd  Nd6  1  0.75000  0.16319  0.48948  1
 Nd  Nd7  1  0.75000  0.59648  0.66677  1
 Nd  Nd8  1  0.75000  0.83681  0.98948  1
