CIF file written using JARVIS-Tools package.
data_Li2CrCl4
_symmetry_space_group_name_H-M  'C2/m'
_cell_length_a       3.71053
_cell_length_b       6.18904
_cell_length_c       6.18903
_cell_angle_alpha    107.72
_cell_angle_beta     91.8031
_cell_angle_gamma    91.8031

_symmetry_Int_Tables_number  12
_chemical_formula_structural  Li2CrCl4
_chemical_formula_sum  Li2CrCl4
_cell_volume  135.1921701257696
_cell_formula_units_Z  1
loop_
  _symmetry_equiv_pos_site_id
 _symmetry_equiv_pos_as_xyz
 1  'x, y, z'
loop_
 _atom_site_type_symbol
 _atom_site_label
 _atom_site_symmetry_multiplicity
 _atom_site_fract_x
 _atom_site_fract_y
 _atom_site_fract_z
 _atom_site_fract_occupancy
 Cl  Cl1  1  0.54712  0.75385  0.75385  1
 Cl  Cl2  1  0.00000  0.75943  0.24057  1
 Cl  Cl3  1  0.45288  0.24615  0.24615  1
 Cl  Cl4  1  -0.00000  0.24057  0.75943  1
 Cr  Cr1  1  0.00000  0.00000  0.00000  1
 Li  Li1  1  0.50000  -0.00000  0.50000  1
 Li  Li2  1  0.50000  0.50000  -0.00000  1
