CIF file written using JARVIS-Tools package.
data_TiPt3
_symmetry_space_group_name_H-M  'P6_3/mmc'
_cell_length_a       5.60487
_cell_length_b       5.60487
_cell_length_c       4.52999
_cell_angle_alpha    90
_cell_angle_beta     90
_cell_angle_gamma    120

_symmetry_Int_Tables_number  194
_chemical_formula_structural  TiPt3
_chemical_formula_sum  Ti2Pt6
_cell_volume  123.24234536577433
_cell_formula_units_Z  2
loop_
  _symmetry_equiv_pos_site_id
 _symmetry_equiv_pos_as_xyz
 1  'x, y, z'
loop_
 _atom_site_type_symbol
 _atom_site_label
 _atom_site_symmetry_multiplicity
 _atom_site_fract_x
 _atom_site_fract_y
 _atom_site_fract_z
 _atom_site_fract_occupancy
 Pt  Pt1  1  0.16762  0.83238  0.75000  1
 Pt  Pt2  1  0.66476  0.83238  0.75000  1
 Pt  Pt3  1  0.16762  0.33524  0.75000  1
 Pt  Pt4  1  0.83238  0.16762  0.25000  1
 Pt  Pt5  1  0.33524  0.16762  0.25000  1
 Pt  Pt6  1  0.83238  0.66476  0.25000  1
 Ti  Ti1  1  0.33333  0.66667  0.25000  1
 Ti  Ti2  1  0.66667  0.33333  0.75000  1
