CIF file written using JARVIS-Tools package.
data_NaPrSe2O8
_symmetry_space_group_name_H-M  'P-1'
_cell_length_a       6.66375
_cell_length_b       7.17704
_cell_length_c       7.36806
_cell_angle_alpha    98.531
_cell_angle_beta     97.6845
_cell_angle_gamma    89.0471

_symmetry_Int_Tables_number  2
_chemical_formula_structural  NaPrSe2O8
_chemical_formula_sum  Na2Pr2Se4O6
_cell_volume  345.35397787040057
_cell_formula_units_Z  2
loop_
  _symmetry_equiv_pos_site_id
 _symmetry_equiv_pos_as_xyz
 1  'x, y, z'
loop_
 _atom_site_type_symbol
 _atom_site_label
 _atom_site_symmetry_multiplicity
 _atom_site_fract_x
 _atom_site_fract_y
 _atom_site_fract_z
 _atom_site_fract_occupancy
 Na  Na1  1  0.07598  0.68663  0.27896  1
 Na  Na2  1  0.92402  0.31337  0.72104  1
 O  O1  1  0.44115  0.90582  0.32185  1
 O  O2  1  0.74221  0.25641  0.39520  1
 O  O3  1  0.96255  0.98623  0.75929  1
 O  O4  1  0.72143  0.71288  0.12033  1
 O  O5  1  0.67550  0.11208  0.04667  1
 O  O6  1  0.03745  0.01377  0.24071  1
 O  O7  1  0.41066  0.53377  0.23517  1
 O  O8  1  0.58934  0.46623  0.76483  1
 O  O9  1  0.32450  0.88792  0.95333  1
 O  O10  1  0.99481  0.64706  0.84364  1
 O  O11  1  0.55885  0.09418  0.67815  1
 O  O12  1  0.27857  0.28712  0.87967  1
 O  O13  1  0.26741  0.30599  0.51704  1
 O  O14  1  0.25779  0.74359  0.60480  1
 O  O15  1  0.00519  0.35294  0.15636  1
 O  O16  1  0.73259  0.69401  0.48296  1
 Pr  Pr1  1  0.35681  0.19313  0.19840  1
 Pr  Pr2  1  0.64319  0.80687  0.80160  1
 Se  Se1  1  0.86671  0.18472  0.21646  1
 Se  Se2  1  0.57701  0.71130  0.28863  1
 Se  Se3  1  0.42299  0.28870  0.71137  1
 Se  Se4  1  0.13329  0.81528  0.78354  1
