CIF file written using JARVIS-Tools package.
data_NaCdSb
_symmetry_space_group_name_H-M  'Pnma'
_cell_length_a       4.76583
_cell_length_b       8.00283
_cell_length_c       8.60644
_cell_angle_alpha    90
_cell_angle_beta     90
_cell_angle_gamma    90

_symmetry_Int_Tables_number  62
_chemical_formula_structural  NaCdSb
_chemical_formula_sum  Na4Cd4Sb4
_cell_volume  328.25061857532603
_cell_formula_units_Z  4
loop_
  _symmetry_equiv_pos_site_id
 _symmetry_equiv_pos_as_xyz
 1  'x, y, z'
loop_
 _atom_site_type_symbol
 _atom_site_label
 _atom_site_symmetry_multiplicity
 _atom_site_fract_x
 _atom_site_fract_y
 _atom_site_fract_z
 _atom_site_fract_occupancy
 Cd  Cd1  1  0.75000  0.34994  0.07808  1
 Cd  Cd2  1  0.25000  0.65006  0.92192  1
 Cd  Cd3  1  0.75000  0.84994  0.42192  1
 Cd  Cd4  1  0.25000  0.15006  0.57808  1
 Na  Na1  1  0.75000  0.48520  0.68139  1
 Na  Na2  1  0.25000  0.51480  0.31861  1
 Na  Na3  1  0.75000  0.98520  0.81861  1
 Na  Na4  1  0.25000  0.01480  0.18139  1
 Sb  Sb1  1  0.75000  0.72637  0.10381  1
 Sb  Sb2  1  0.25000  0.27363  0.89619  1
 Sb  Sb3  1  0.75000  0.22637  0.39619  1
 Sb  Sb4  1  0.25000  0.77363  0.60381  1
