CIF file written using JARVIS-Tools package.
data_TiInCo2
_symmetry_space_group_name_H-M  'Fm-3m'
_cell_length_a       4.28611
_cell_length_b       4.28626
_cell_length_c       4.28629
_cell_angle_alpha    59.9974
_cell_angle_beta     60.0024
_cell_angle_gamma    60.002

_symmetry_Int_Tables_number  225
_chemical_formula_structural  TiInCo2
_chemical_formula_sum  TiInCo2
_cell_volume  55.681747769735225
_cell_formula_units_Z  1
loop_
  _symmetry_equiv_pos_site_id
 _symmetry_equiv_pos_as_xyz
 1  'x, y, z'
loop_
 _atom_site_type_symbol
 _atom_site_label
 _atom_site_symmetry_multiplicity
 _atom_site_fract_x
 _atom_site_fract_y
 _atom_site_fract_z
 _atom_site_fract_occupancy
 Co  Co1  1  0.50001  0.50000  0.50001  1
 Co  Co2  1  0.99999  0.00001  0.99999  1
 In  In1  1  0.25000  0.25000  0.25000  1
 Ti  Ti1  1  0.75000  0.75000  0.75000  1
