CIF file written using JARVIS-Tools package.
data_Ge
_symmetry_space_group_name_H-M  'P6_3/mmc'
_cell_length_a       4.05328
_cell_length_b       4.0532
_cell_length_c       6.69875
_cell_angle_alpha    90
_cell_angle_beta     90
_cell_angle_gamma    120.001

_symmetry_Int_Tables_number  194
_chemical_formula_structural  Ge
_chemical_formula_sum  Ge4
_cell_volume  95.30740874448406
_cell_formula_units_Z  4
loop_
  _symmetry_equiv_pos_site_id
 _symmetry_equiv_pos_as_xyz
 1  'x, y, z'
loop_
 _atom_site_type_symbol
 _atom_site_label
 _atom_site_symmetry_multiplicity
 _atom_site_fract_x
 _atom_site_fract_y
 _atom_site_fract_z
 _atom_site_fract_occupancy
 Ge  Ge1  1  0.66667  0.33334  0.50049  1
 Ge  Ge2  1  0.33333  0.66666  0.00049  1
 Ge  Ge3  1  0.66667  0.33334  0.87451  1
 Ge  Ge4  1  0.33333  0.66666  0.37451  1
