CIF file written using JARVIS-Tools package.
data_K2CdC4N4
_symmetry_space_group_name_H-M  'Fd-3m'
_cell_length_a       9.07798
_cell_length_b       9.07798
_cell_length_c       9.07798
_cell_angle_alpha    60
_cell_angle_beta     60
_cell_angle_gamma    60

_symmetry_Int_Tables_number  227
_chemical_formula_structural  K2CdC4N4
_chemical_formula_sum  K4Cd2C8N8
_cell_volume  528.9957674713332
_cell_formula_units_Z  2
loop_
  _symmetry_equiv_pos_site_id
 _symmetry_equiv_pos_as_xyz
 1  'x, y, z'
loop_
 _atom_site_type_symbol
 _atom_site_label
 _atom_site_symmetry_multiplicity
 _atom_site_fract_x
 _atom_site_fract_y
 _atom_site_fract_z
 _atom_site_fract_occupancy
 C  C1  1  0.82637  0.22454  0.22454  1
 C  C2  1  0.22454  0.22454  0.22454  1
 C  C3  1  0.77546  0.77546  0.77546  1
 C  C4  1  0.22454  0.22454  0.82637  1
 C  C5  1  0.77546  0.77546  0.17363  1
 C  C6  1  0.22454  0.82637  0.22454  1
 C  C7  1  0.17363  0.77546  0.77546  1
 C  C8  1  0.77546  0.17363  0.77546  1
 Cd  Cd1  1  0.12500  0.12500  0.12500  1
 Cd  Cd2  1  0.87500  0.87500  0.87500  1
 K  K1  1  -0.00000  0.50000  0.50000  1
 K  K2  1  0.50000  0.50000  0.50000  1
 K  K3  1  0.50000  0.50000  0.00000  1
 K  K4  1  0.50000  0.00000  0.50000  1
 N  N1  1  0.33140  0.72287  0.72287  1
 N  N2  1  0.72287  0.33140  0.72287  1
 N  N3  1  0.72287  0.72287  0.72287  1
 N  N4  1  0.27713  0.66860  0.27713  1
 N  N5  1  0.27713  0.27713  0.66860  1
 N  N6  1  0.27713  0.27713  0.27713  1
 N  N7  1  0.72287  0.72287  0.33140  1
 N  N8  1  0.66860  0.27713  0.27713  1
