CIF file written using JARVIS-Tools package.
data_PbCl2
_symmetry_space_group_name_H-M  'P4_2/mnm'
_cell_length_a       6.73991
_cell_length_b       6.73991
_cell_length_c       4.43833
_cell_angle_alpha    90
_cell_angle_beta     90
_cell_angle_gamma    90

_symmetry_Int_Tables_number  136
_chemical_formula_structural  PbCl2
_chemical_formula_sum  Pb2Cl4
_cell_volume  201.61715294754018
_cell_formula_units_Z  2
loop_
  _symmetry_equiv_pos_site_id
 _symmetry_equiv_pos_as_xyz
 1  'x, y, z'
loop_
 _atom_site_type_symbol
 _atom_site_label
 _atom_site_symmetry_multiplicity
 _atom_site_fract_x
 _atom_site_fract_y
 _atom_site_fract_z
 _atom_site_fract_occupancy
 Cl  Cl1  1  0.30247  0.30247  0.00000  1
 Cl  Cl2  1  0.69753  0.69753  0.00000  1
 Cl  Cl3  1  0.19753  0.80247  0.50000  1
 Cl  Cl4  1  0.80247  0.19753  0.50000  1
 Pb  Pb1  1  0.00000  0.00000  0.00000  1
 Pb  Pb2  1  0.50000  0.50000  0.50000  1
