CIF file written using JARVIS-Tools package.
data_MnNbP
_symmetry_space_group_name_H-M  'Pnma'
_cell_length_a       3.67106
_cell_length_b       6.13938
_cell_length_c       7.05659
_cell_angle_alpha    90
_cell_angle_beta     90
_cell_angle_gamma    90

_symmetry_Int_Tables_number  62
_chemical_formula_structural  MnNbP
_chemical_formula_sum  Mn4Nb4P4
_cell_volume  159.04191869749533
_cell_formula_units_Z  4
loop_
  _symmetry_equiv_pos_site_id
 _symmetry_equiv_pos_as_xyz
 1  'x, y, z'
loop_
 _atom_site_type_symbol
 _atom_site_label
 _atom_site_symmetry_multiplicity
 _atom_site_fract_x
 _atom_site_fract_y
 _atom_site_fract_z
 _atom_site_fract_occupancy
 Mn  Mn1  1  0.75000  0.85127  0.56029  1
 Mn  Mn2  1  0.25000  0.14873  0.43971  1
 Mn  Mn3  1  0.75000  0.35127  0.93971  1
 Mn  Mn4  1  0.25000  0.64873  0.06029  1
 Nb  Nb1  1  0.25000  0.52256  0.67794  1
 Nb  Nb2  1  0.75000  0.47744  0.32206  1
 Nb  Nb3  1  0.25000  0.02256  0.82206  1
 Nb  Nb4  1  0.75000  0.97744  0.17794  1
 P  P1  1  0.25000  0.28098  0.12110  1
 P  P2  1  0.75000  0.71902  0.87890  1
 P  P3  1  0.25000  0.78098  0.37890  1
 P  P4  1  0.75000  0.21902  0.62110  1
