CIF file written using JARVIS-Tools package.
data_NbFeB
_symmetry_space_group_name_H-M  'P-6m2'
_cell_length_a       6.37242
_cell_length_b       6.37242
_cell_length_c       2.97402
_cell_angle_alpha    90
_cell_angle_beta     90
_cell_angle_gamma    120

_symmetry_Int_Tables_number  187
_chemical_formula_structural  NbFeB
_chemical_formula_sum  Nb3Fe3B3
_cell_volume  104.58850056267516
_cell_formula_units_Z  3
loop_
  _symmetry_equiv_pos_site_id
 _symmetry_equiv_pos_as_xyz
 1  'x, y, z'
loop_
 _atom_site_type_symbol
 _atom_site_label
 _atom_site_symmetry_multiplicity
 _atom_site_fract_x
 _atom_site_fract_y
 _atom_site_fract_z
 _atom_site_fract_occupancy
 B  B1  1  0.00000  0.00000  0.50000  1
 B  B2  1  0.66667  0.33333  0.50000  1
 B  B3  1  0.33333  0.66667  0.50000  1
 Fe  Fe1  1  0.33332  0.33332  0.50000  1
 Fe  Fe2  1  0.66668  0.00000  0.50000  1
 Fe  Fe3  1  0.00000  0.66668  0.50000  1
 Nb  Nb1  1  -0.00000  0.33337  0.00000  1
 Nb  Nb2  1  0.33337  -0.00000  0.00000  1
 Nb  Nb3  1  0.66663  0.66663  0.00000  1
