CIF file written using JARVIS-Tools package.
data_Ba3BiCl3O3
_symmetry_space_group_name_H-M  'Pnma'
_cell_length_a       7.08987
_cell_length_b       12.1631
_cell_length_c       12.0848
_cell_angle_alpha    90
_cell_angle_beta     90
_cell_angle_gamma    90

_symmetry_Int_Tables_number  62
_chemical_formula_structural  Ba3BiCl3O3
_chemical_formula_sum  Ba2Bi4Cl2O2
_cell_volume  1042.129345466778
_cell_formula_units_Z  4
loop_
  _symmetry_equiv_pos_site_id
 _symmetry_equiv_pos_as_xyz
 1  'x, y, z'
loop_
 _atom_site_type_symbol
 _atom_site_label
 _atom_site_symmetry_multiplicity
 _atom_site_fract_x
 _atom_site_fract_y
 _atom_site_fract_z
 _atom_site_fract_occupancy
 Ba  Ba1  1  0.17370  0.06890  0.88852  1
 Ba  Ba2  1  0.34777  0.75000  0.02718  1
 Ba  Ba3  1  0.67370  0.06890  0.61148  1
 Ba  Ba4  1  0.17370  0.43110  0.88852  1
 Ba  Ba5  1  0.32630  0.93110  0.38852  1
 Ba  Ba6  1  0.67370  0.43110  0.61148  1
 Ba  Ba7  1  0.65223  0.25000  0.97282  1
 Ba  Ba8  1  0.32630  0.56890  0.38852  1
 Ba  Ba9  1  0.82630  0.93110  0.11148  1
 Ba  Ba10  1  0.15223  0.25000  0.52718  1
 Ba  Ba11  1  0.84777  0.75000  0.47282  1
 Ba  Ba12  1  0.82630  0.56890  0.11148  1
 Bi  Bi1  1  0.09819  0.25000  0.13182  1
 Bi  Bi2  1  0.59819  0.25000  0.36818  1
 Bi  Bi3  1  0.90181  0.75000  0.86818  1
 Bi  Bi4  1  0.40181  0.75000  0.63182  1
 Cl  Cl1  1  0.61263  0.99562  0.86425  1
 Cl  Cl2  1  0.91849  0.25000  0.76594  1
 Cl  Cl3  1  0.88737  0.00438  0.36425  1
 Cl  Cl4  1  0.08151  0.75000  0.23406  1
 Cl  Cl5  1  0.11263  0.50438  0.63575  1
 Cl  Cl6  1  0.58151  0.75000  0.26594  1
 Cl  Cl7  1  0.88737  0.49562  0.36425  1
 Cl  Cl8  1  0.61263  0.50438  0.86425  1
 Cl  Cl9  1  0.41849  0.25000  0.73406  1
 Cl  Cl10  1  0.11263  0.99562  0.63575  1
 Cl  Cl11  1  0.38737  0.49562  0.13575  1
 Cl  Cl12  1  0.38737  0.00438  0.13575  1
 O  O1  1  0.21102  0.75000  0.49876  1
 O  O2  1  0.07047  0.87302  0.94446  1
 O  O3  1  0.42953  0.37302  0.44446  1
 O  O4  1  0.92953  0.12698  0.05554  1
 O  O5  1  0.57047  0.62698  0.55554  1
 O  O6  1  0.78898  0.25000  0.50124  1
 O  O7  1  0.92953  0.37302  0.05554  1
 O  O8  1  0.57047  0.87302  0.55554  1
 O  O9  1  0.42953  0.12698  0.44446  1
 O  O10  1  0.71102  0.75000  0.00124  1
 O  O11  1  0.28898  0.25000  0.99876  1
 O  O12  1  0.07047  0.62698  0.94446  1
