CIF file written using JARVIS-Tools package.
data_InSiPt5
_symmetry_space_group_name_H-M  'P4/mmm'
_cell_length_a       3.99587
_cell_length_b       3.99587
_cell_length_c       7.17382
_cell_angle_alpha    90
_cell_angle_beta     90
_cell_angle_gamma    90

_symmetry_Int_Tables_number  123
_chemical_formula_structural  InSiPt5
_chemical_formula_sum  InSiPt5
_cell_volume  114.5441311946731
_cell_formula_units_Z  1
loop_
  _symmetry_equiv_pos_site_id
 _symmetry_equiv_pos_as_xyz
 1  'x, y, z'
loop_
 _atom_site_type_symbol
 _atom_site_label
 _atom_site_symmetry_multiplicity
 _atom_site_fract_x
 _atom_site_fract_y
 _atom_site_fract_z
 _atom_site_fract_occupancy
 In  In1  1  0.50000  0.50000  0.00000  1
 Pt  Pt1  1  0.00000  0.50000  0.29631  1
 Pt  Pt2  1  0.00000  0.50000  0.70369  1
 Pt  Pt3  1  0.50000  0.00000  0.29631  1
 Pt  Pt4  1  0.50000  0.00000  0.70369  1
 Pt  Pt5  1  0.00000  0.00000  0.00000  1
 Si  Si1  1  0.00000  0.00000  0.50000  1
