CIF file written using JARVIS-Tools package.
data_RuClO2F6
_symmetry_space_group_name_H-M  'P2/c'
_cell_length_a       7.08322
_cell_length_b       5.67805
_cell_length_c       9.51501
_cell_angle_alpha    90
_cell_angle_beta     132.642
_cell_angle_gamma    90

_symmetry_Int_Tables_number  13
_chemical_formula_structural  RuClO2F6
_chemical_formula_sum  Ru2Cl2O4F2
_cell_volume  281.5023267899076
_cell_formula_units_Z  2
loop_
  _symmetry_equiv_pos_site_id
 _symmetry_equiv_pos_as_xyz
 1  'x, y, z'
loop_
 _atom_site_type_symbol
 _atom_site_label
 _atom_site_symmetry_multiplicity
 _atom_site_fract_x
 _atom_site_fract_y
 _atom_site_fract_z
 _atom_site_fract_occupancy
 Cl  Cl1  1  0.00000  0.36306  0.25000  1
 Cl  Cl2  1  -0.00000  0.63694  0.75000  1
 F  F1  1  0.62552  0.25660  0.19523  1
 F  F2  1  0.37448  0.74340  0.80477  1
 F  F3  1  0.80487  0.98753  0.00864  1
 F  F4  1  0.37448  0.25660  0.30477  1
 F  F5  1  0.36099  0.21598  0.79887  1
 F  F6  1  0.19513  0.01247  -0.00864  1
 F  F7  1  0.63901  0.78402  0.20113  1
 F  F8  1  0.19513  0.98753  0.49136  1
 F  F9  1  0.63901  0.21598  0.70113  1
 F  F10  1  0.62552  0.74340  0.69523  1
 F  F11  1  0.80487  0.01247  0.50864  1
 F  F12  1  0.36099  0.78402  0.29887  1
 O  O1  1  0.12947  0.49486  0.42218  1
 O  O2  1  0.12947  0.50514  0.92218  1
 O  O3  1  0.87053  0.49486  0.07782  1
 O  O4  1  0.87053  0.50514  0.57782  1
 Ru  Ru1  1  0.50000  -0.01191  0.75000  1
 Ru  Ru2  1  0.50000  0.01191  0.25000  1
