CIF file written using JARVIS-Tools package.
data_K3PO4
_symmetry_space_group_name_H-M  'Pnma'
_cell_length_a       5.94752
_cell_length_b       8.08411
_cell_length_c       11.2172
_cell_angle_alpha    90
_cell_angle_beta     90
_cell_angle_gamma    90

_symmetry_Int_Tables_number  62
_chemical_formula_structural  K3PO4
_chemical_formula_sum  K2P4O6
_cell_volume  539.326683898374
_cell_formula_units_Z  4
loop_
  _symmetry_equiv_pos_site_id
 _symmetry_equiv_pos_as_xyz
 1  'x, y, z'
loop_
 _atom_site_type_symbol
 _atom_site_label
 _atom_site_symmetry_multiplicity
 _atom_site_fract_x
 _atom_site_fract_y
 _atom_site_fract_z
 _atom_site_fract_occupancy
 K  K1  1  0.80462  0.49250  0.64450  1
 K  K2  1  0.69538  0.00750  0.14450  1
 K  K3  1  0.19538  0.50750  0.35550  1
 K  K4  1  0.69538  0.49250  0.14450  1
 K  K5  1  0.36179  0.25000  0.57005  1
 K  K6  1  0.30462  0.99250  0.85550  1
 K  K7  1  0.80462  0.00750  0.64450  1
 K  K8  1  0.63821  0.75000  0.42995  1
 K  K9  1  0.13821  0.25000  0.07005  1
 K  K10  1  0.30462  0.50750  0.85550  1
 K  K11  1  0.19538  0.99250  0.35550  1
 K  K12  1  0.86179  0.75000  0.92995  1
 O  O1  1  0.44742  0.75000  0.00650  1
 O  O2  1  0.07554  0.75000  0.73186  1
 O  O3  1  0.05258  0.75000  0.50650  1
 O  O4  1  0.63274  0.09155  0.38936  1
 O  O5  1  0.13274  0.90845  0.11064  1
 O  O6  1  0.86726  0.40845  0.88936  1
 O  O7  1  0.13274  0.59155  0.11064  1
 O  O8  1  0.36726  0.90845  0.61064  1
 O  O9  1  0.63274  0.40845  0.38936  1
 O  O10  1  0.42446  0.75000  0.23186  1
 O  O11  1  0.55258  0.25000  0.99350  1
 O  O12  1  0.86726  0.09155  0.88936  1
 O  O13  1  0.36726  0.59155  0.61064  1
 O  O14  1  0.94742  0.25000  0.49350  1
 O  O15  1  0.57554  0.25000  0.76814  1
 O  O16  1  0.92446  0.25000  0.26814  1
 P  P1  1  0.78168  0.25000  0.38497  1
 P  P2  1  0.28168  0.75000  0.11503  1
 P  P3  1  0.21832  0.75000  0.61503  1
 P  P4  1  0.71832  0.25000  0.88497  1
