CIF file written using JARVIS-Tools package.
data_Ga
_symmetry_space_group_name_H-M  'Cmce'
_cell_length_a       3.0945
_cell_length_b       3.0945
_cell_length_c       8.11252
_cell_angle_alpha    90
_cell_angle_beta     90
_cell_angle_gamma    98.0521

_symmetry_Int_Tables_number  64
_chemical_formula_structural  Ga
_chemical_formula_sum  Ga4
_cell_volume  76.91897644575137
_cell_formula_units_Z  4
loop_
  _symmetry_equiv_pos_site_id
 _symmetry_equiv_pos_as_xyz
 1  'x, y, z'
loop_
 _atom_site_type_symbol
 _atom_site_label
 _atom_site_symmetry_multiplicity
 _atom_site_fract_x
 _atom_site_fract_y
 _atom_site_fract_z
 _atom_site_fract_occupancy
 Ga  Ga1  1  0.74884  0.25116  0.37500  1
 Ga  Ga2  1  0.25116  0.74884  0.62500  1
 Ga  Ga3  1  0.75116  0.24884  0.87500  1
 Ga  Ga4  1  0.24884  0.75116  0.12500  1
