CIF file written using JARVIS-Tools package.
data_CeSi2Ir3
_symmetry_space_group_name_H-M  'Imma'
_cell_length_a       5.63182
_cell_length_b       6.70572
_cell_length_c       6.70572
_cell_angle_alpha    65.6186
_cell_angle_beta     65.17
_cell_angle_gamma    65.17

_symmetry_Int_Tables_number  74
_chemical_formula_structural  CeSi2Ir3
_chemical_formula_sum  Ce2Si4Ir6
_cell_volume  199.8065148796106
_cell_formula_units_Z  2
loop_
  _symmetry_equiv_pos_site_id
 _symmetry_equiv_pos_as_xyz
 1  'x, y, z'
loop_
 _atom_site_type_symbol
 _atom_site_label
 _atom_site_symmetry_multiplicity
 _atom_site_fract_x
 _atom_site_fract_y
 _atom_site_fract_z
 _atom_site_fract_occupancy
 Ce  Ce1  1  0.96606  0.75000  0.75000  1
 Ce  Ce2  1  0.03394  0.25000  0.25000  1
 Ir  Ir1  1  0.50000  0.21787  0.78213  1
 Ir  Ir2  1  0.50000  0.50000  -0.00000  1
 Ir  Ir3  1  0.00000  0.28213  0.71787  1
 Ir  Ir4  1  0.50000  0.78213  0.21787  1
 Ir  Ir5  1  -0.00000  0.71787  0.28213  1
 Ir  Ir6  1  0.50000  -0.00000  0.50000  1
 Si  Si1  1  0.61814  0.58050  0.58050  1
 Si  Si2  1  0.72086  0.08050  0.08050  1
 Si  Si3  1  0.38186  0.41950  0.41950  1
 Si  Si4  1  0.27914  0.91950  0.91950  1
