CIF file written using JARVIS-Tools package.
data_Ca3SiBr2
_symmetry_space_group_name_H-M  'I4/mmm'
_cell_length_a       4.23159
_cell_length_b       4.23159
_cell_length_c       9.83288
_cell_angle_alpha    102.426
_cell_angle_beta     102.426
_cell_angle_gamma    90

_symmetry_Int_Tables_number  139
_chemical_formula_structural  Ca3SiBr2
_chemical_formula_sum  Ca3SiBr2
_cell_volume  167.72105697239624
_cell_formula_units_Z  1
loop_
  _symmetry_equiv_pos_site_id
 _symmetry_equiv_pos_as_xyz
 1  'x, y, z'
loop_
 _atom_site_type_symbol
 _atom_site_label
 _atom_site_symmetry_multiplicity
 _atom_site_fract_x
 _atom_site_fract_y
 _atom_site_fract_z
 _atom_site_fract_occupancy
 Br  Br1  1  0.81570  0.81570  0.63140  1
 Br  Br2  1  0.18430  0.18430  0.36860  1
 Ca  Ca1  1  0.00000  0.00000  0.00000  1
 Ca  Ca2  1  0.64808  0.64808  0.29616  1
 Ca  Ca3  1  0.35192  0.35192  0.70384  1
 Si  Si1  1  0.50000  0.50000  0.00000  1
