CIF file written using JARVIS-Tools package.
data_Y3Al7Cu2
_symmetry_space_group_name_H-M  'R-3m'
_cell_length_a       5.51012
_cell_length_b       5.51013
_cell_length_c       9.0676
_cell_angle_alpha    107.688
_cell_angle_beta     90
_cell_angle_gamma    60

_symmetry_Int_Tables_number  166
_chemical_formula_structural  Y3Al7Cu2
_chemical_formula_sum  Y3Al7Cu2
_cell_volume  223.26622709258012
_cell_formula_units_Z  1
loop_
  _symmetry_equiv_pos_site_id
 _symmetry_equiv_pos_as_xyz
 1  'x, y, z'
loop_
 _atom_site_type_symbol
 _atom_site_label
 _atom_site_symmetry_multiplicity
 _atom_site_fract_x
 _atom_site_fract_y
 _atom_site_fract_z
 _atom_site_fract_occupancy
 Al  Al1  1  0.41832  0.16335  0.23550  1
 Al  Al2  1  0.41832  0.65383  0.23550  1
 Al  Al3  1  0.92785  0.65383  0.23550  1
 Al  Al4  1  0.50000  1.00000  0.50000  1
 Al  Al5  1  0.07215  0.34618  0.76450  1
 Al  Al6  1  0.58168  0.34618  0.76450  1
 Al  Al7  1  0.58168  0.83665  0.76450  1
 Cu  Cu1  1  0.66459  0.67083  0.00624  1
 Cu  Cu2  1  0.33541  0.32917  0.99376  1
 Y  Y1  1  0.00000  0.00000  0.00000  1
 Y  Y2  1  0.85829  0.28341  0.42512  1
 Y  Y3  1  0.14171  0.71659  0.57488  1
