CIF file written using JARVIS-Tools package.
data_Na3CrF6
_symmetry_space_group_name_H-M  'P2_1/c'
_cell_length_a       5.47211
_cell_length_b       5.7381
_cell_length_c       9.57039
_cell_angle_alpha    90
_cell_angle_beta     124.324
_cell_angle_gamma    90

_symmetry_Int_Tables_number  14
_chemical_formula_structural  Na3CrF6
_chemical_formula_sum  Na6Cr2F2
_cell_volume  248.1750753107164
_cell_formula_units_Z  2
loop_
  _symmetry_equiv_pos_site_id
 _symmetry_equiv_pos_as_xyz
 1  'x, y, z'
loop_
 _atom_site_type_symbol
 _atom_site_label
 _atom_site_symmetry_multiplicity
 _atom_site_fract_x
 _atom_site_fract_y
 _atom_site_fract_z
 _atom_site_fract_occupancy
 Cr  Cr1  1  -0.00000  0.50000  0.50000  1
 Cr  Cr2  1  0.00000  0.00000  0.00000  1
 F  F1  1  0.10656  0.05512  0.22697  1
 F  F2  1  0.76122  0.22050  0.42827  1
 F  F3  1  0.89344  0.94488  0.77303  1
 F  F4  1  0.23878  0.77950  0.57173  1
 F  F5  1  0.76122  0.27950  0.92827  1
 F  F6  1  0.23878  0.72050  0.07173  1
 F  F7  1  0.65890  0.82235  0.94580  1
 F  F8  1  0.65890  0.67765  0.44580  1
 F  F9  1  0.10656  0.44488  0.72697  1
 F  F10  1  0.34110  0.32235  0.55420  1
 F  F11  1  0.89344  0.55512  0.27303  1
 F  F12  1  0.34110  0.17765  0.05420  1
 Na  Na1  1  0.50000  0.00000  0.50000  1
 Na  Na2  1  0.50000  0.50000  -0.00000  1
 Na  Na3  1  0.72630  0.93769  0.24552  1
 Na  Na4  1  0.27370  0.43769  0.25448  1
 Na  Na5  1  0.27370  0.06231  0.75448  1
 Na  Na6  1  0.72630  0.56231  0.74552  1
