CIF file written using JARVIS-Tools package.
data_SiO2
_symmetry_space_group_name_H-M  'P2_1'
_cell_length_a       4.89942
_cell_length_b       8.16138
_cell_length_c       5.06932
_cell_angle_alpha    90
_cell_angle_beta     118.846
_cell_angle_gamma    90

_symmetry_Int_Tables_number  4
_chemical_formula_structural  SiO2
_chemical_formula_sum  Si4O8
_cell_volume  177.55057943005013
_cell_formula_units_Z  4
loop_
  _symmetry_equiv_pos_site_id
 _symmetry_equiv_pos_as_xyz
 1  'x, y, z'
loop_
 _atom_site_type_symbol
 _atom_site_label
 _atom_site_symmetry_multiplicity
 _atom_site_fract_x
 _atom_site_fract_y
 _atom_site_fract_z
 _atom_site_fract_occupancy
 O  O1  1  0.42461  0.94438  0.56694  1
 O  O2  1  0.65109  0.75084  0.30249  1
 O  O3  1  0.14116  0.55695  0.56476  1
 O  O4  1  0.71715  0.50124  0.99879  1
 O  O5  1  0.57539  0.44438  0.43306  1
 O  O6  1  0.34891  0.25084  0.69751  1
 O  O7  1  0.85884  0.05695  0.43524  1
 O  O8  1  0.28285  0.00124  0.00121  1
 Si  Si1  1  0.55606  0.93772  0.32710  1
 Si  Si2  1  0.77018  0.56396  0.32539  1
 Si  Si3  1  0.44394  0.43772  0.67290  1
 Si  Si4  1  0.22982  0.06396  0.67461  1
