CIF file written using JARVIS-Tools package.
data_MnCr2Se4
_symmetry_space_group_name_H-M  'C2/m'
_cell_length_a       3.70239
_cell_length_b       6.39324
_cell_length_c       6.9939
_cell_angle_alpha    117.069
_cell_angle_beta     105.348
_cell_angle_gamma    90

_symmetry_Int_Tables_number  12
_chemical_formula_structural  MnCr2Se4
_chemical_formula_sum  MnCr2Se4
_cell_volume  140.75078269643615
_cell_formula_units_Z  1
loop_
  _symmetry_equiv_pos_site_id
 _symmetry_equiv_pos_as_xyz
 1  'x, y, z'
loop_
 _atom_site_type_symbol
 _atom_site_label
 _atom_site_symmetry_multiplicity
 _atom_site_fract_x
 _atom_site_fract_y
 _atom_site_fract_z
 _atom_site_fract_occupancy
 Cr  Cr1  1  0.25822  0.27236  0.51645  1
 Cr  Cr2  1  0.74178  0.72764  0.48355  1
 Mn  Mn1  1  0.00000  0.00000  0.00000  1
 Se  Se1  1  0.12649  0.45653  0.25298  1
 Se  Se2  1  0.87351  0.54347  0.74702  1
 Se  Se3  1  0.36536  0.02783  0.73073  1
 Se  Se4  1  0.63464  0.97217  0.26927  1
