CIF file written using JARVIS-Tools package.
data_HfSiRh
_symmetry_space_group_name_H-M  'Pnma'
_cell_length_a       3.92488
_cell_length_b       6.51695
_cell_length_c       7.45898
_cell_angle_alpha    90
_cell_angle_beta     90
_cell_angle_gamma    90

_symmetry_Int_Tables_number  62
_chemical_formula_structural  HfSiRh
_chemical_formula_sum  Hf4Si4Rh4
_cell_volume  190.78754416543543
_cell_formula_units_Z  4
loop_
  _symmetry_equiv_pos_site_id
 _symmetry_equiv_pos_as_xyz
 1  'x, y, z'
loop_
 _atom_site_type_symbol
 _atom_site_label
 _atom_site_symmetry_multiplicity
 _atom_site_fract_x
 _atom_site_fract_y
 _atom_site_fract_z
 _atom_site_fract_occupancy
 Hf  Hf1  1  0.25000  0.52050  0.18470  1
 Hf  Hf2  1  0.75000  0.47950  0.81530  1
 Hf  Hf3  1  0.25000  0.02050  0.31530  1
 Hf  Hf4  1  0.75000  0.97950  0.68470  1
 Rh  Rh1  1  0.75000  0.84979  0.06666  1
 Rh  Rh2  1  0.25000  0.15021  0.93334  1
 Rh  Rh3  1  0.75000  0.34979  0.43334  1
 Rh  Rh4  1  0.25000  0.65021  0.56666  1
 Si  Si1  1  0.25000  0.77263  0.88312  1
 Si  Si2  1  0.75000  0.22737  0.11688  1
 Si  Si3  1  0.25000  0.27263  0.61688  1
 Si  Si4  1  0.75000  0.72737  0.38312  1
