CIF file written using JARVIS-Tools package.
data_Rb2CuF4
_symmetry_space_group_name_H-M  'I4/mmm'
_cell_length_a       4.15217
_cell_length_b       4.15217
_cell_length_c       7.3794
_cell_angle_alpha    106.34
_cell_angle_beta     106.34
_cell_angle_gamma    90

_symmetry_Int_Tables_number  139
_chemical_formula_structural  Rb2CuF4
_chemical_formula_sum  Rb2CuF4
_cell_volume  116.72134397994412
_cell_formula_units_Z  1
loop_
  _symmetry_equiv_pos_site_id
 _symmetry_equiv_pos_as_xyz
 1  'x, y, z'
loop_
 _atom_site_type_symbol
 _atom_site_label
 _atom_site_symmetry_multiplicity
 _atom_site_fract_x
 _atom_site_fract_y
 _atom_site_fract_z
 _atom_site_fract_occupancy
 Cu  Cu1  1  0.00000  0.00000  0.00000  1
 F  F1  1  0.14753  0.14753  0.29506  1
 F  F2  1  0.85247  0.85247  0.70494  1
 F  F3  1  0.00000  0.50000  0.00000  1
 F  F4  1  0.50000  0.00000  0.00000  1
 Rb  Rb1  1  0.35449  0.35449  0.70898  1
 Rb  Rb2  1  0.64551  0.64551  0.29102  1
