CIF file written using JARVIS-Tools package.
data_KZn4Sb3O12
_symmetry_space_group_name_H-M  'R3'
_cell_length_a       6.81628
_cell_length_b       6.81627
_cell_length_c       6.81627
_cell_angle_alpha    107.702
_cell_angle_beta     107.702
_cell_angle_gamma    107.702

_symmetry_Int_Tables_number  146
_chemical_formula_structural  KZn4Sb3O12
_chemical_formula_sum  KZn4Sb3O2
_cell_volume  258.5289498465401
_cell_formula_units_Z  1
loop_
  _symmetry_equiv_pos_site_id
 _symmetry_equiv_pos_as_xyz
 1  'x, y, z'
loop_
 _atom_site_type_symbol
 _atom_site_label
 _atom_site_symmetry_multiplicity
 _atom_site_fract_x
 _atom_site_fract_y
 _atom_site_fract_z
 _atom_site_fract_occupancy
 K  K1  1  0.50888  0.50888  0.50888  1
 O  O1  1  0.89180  0.65481  0.96269  1
 O  O2  1  0.53451  0.73447  0.16185  1
 O  O3  1  0.25265  0.72921  0.39110  1
 O  O4  1  0.72921  0.39110  0.25265  1
 O  O5  1  0.65481  0.96269  0.89180  1
 O  O6  1  0.39110  0.25265  0.72921  1
 O  O7  1  0.98640  0.11699  0.31945  1
 O  O8  1  0.31945  0.98640  0.11699  1
 O  O9  1  0.11699  0.31945  0.98640  1
 O  O10  1  0.73447  0.16185  0.53451  1
 O  O11  1  0.96269  0.89180  0.65481  1
 O  O12  1  0.16185  0.53451  0.73447  1
 Sb  Sb1  1  0.65272  0.06715  0.19314  1
 Sb  Sb2  1  0.19313  0.65272  0.06715  1
 Sb  Sb3  1  0.06715  0.19313  0.65272  1
 Zn  Zn1  1  0.98750  0.98750  0.98750  1
 Zn  Zn2  1  0.63736  0.50803  0.02541  1
 Zn  Zn3  1  0.50803  0.02541  0.63736  1
 Zn  Zn4  1  0.02541  0.63736  0.50803  1
