CIF file written using JARVIS-Tools package.
data_Nd3IrO7
_symmetry_space_group_name_H-M  'Cmcm'
_cell_length_a       6.64661
_cell_length_b       6.64661
_cell_length_c       7.56934
_cell_angle_alpha    90
_cell_angle_beta     90
_cell_angle_gamma    111.757

_symmetry_Int_Tables_number  63
_chemical_formula_structural  Nd3IrO7
_chemical_formula_sum  Nd6Ir2O4
_cell_volume  310.57283308447774
_cell_formula_units_Z  2
loop_
  _symmetry_equiv_pos_site_id
 _symmetry_equiv_pos_as_xyz
 1  'x, y, z'
loop_
 _atom_site_type_symbol
 _atom_site_label
 _atom_site_symmetry_multiplicity
 _atom_site_fract_x
 _atom_site_fract_y
 _atom_site_fract_z
 _atom_site_fract_occupancy
 Ir  Ir1  1  0.50000  0.50000  0.50000  1
 Ir  Ir2  1  0.50000  0.50000  0.00000  1
 Nd  Nd1  1  0.52945  0.08579  0.25000  1
 Nd  Nd2  1  0.47055  0.91421  0.75000  1
 Nd  Nd3  1  0.08579  0.52945  0.25000  1
 Nd  Nd4  1  0.91421  0.47055  0.75000  1
 Nd  Nd5  1  0.00000  0.00000  0.50000  1
 Nd  Nd6  1  0.00000  0.00000  0.00000  1
 O  O1  1  0.40920  0.40920  0.25000  1
 O  O2  1  0.10422  0.84130  0.75000  1
 O  O3  1  0.89578  0.15870  0.25000  1
 O  O4  1  0.84130  0.10422  0.75000  1
 O  O5  1  0.15870  0.89578  0.25000  1
 O  O6  1  0.18687  0.43957  0.95903  1
 O  O7  1  0.81313  0.56043  0.04097  1
 O  O8  1  0.43957  0.18687  0.95903  1
 O  O9  1  0.59080  0.59080  0.75000  1
 O  O10  1  0.56043  0.81313  0.45903  1
 O  O11  1  0.56043  0.81313  0.04097  1
 O  O12  1  0.43957  0.18687  0.54097  1
 O  O13  1  0.81313  0.56043  0.45903  1
 O  O14  1  0.18687  0.43957  0.54097  1
