CIF file written using JARVIS-Tools package.
data_Pr2Ti2S2O5
_symmetry_space_group_name_H-M  'I4/mmm'
_cell_length_a       3.88144
_cell_length_b       3.88141
_cell_length_c       12.0373
_cell_angle_alpha    99.2779
_cell_angle_beta     99.2781
_cell_angle_gamma    90

_symmetry_Int_Tables_number  139
_chemical_formula_structural  Pr2Ti2S2O5
_chemical_formula_sum  Pr2Ti2S2O5
_cell_volume  176.57014611988672
_cell_formula_units_Z  1
loop_
  _symmetry_equiv_pos_site_id
 _symmetry_equiv_pos_as_xyz
 1  'x, y, z'
loop_
 _atom_site_type_symbol
 _atom_site_label
 _atom_site_symmetry_multiplicity
 _atom_site_fract_x
 _atom_site_fract_y
 _atom_site_fract_z
 _atom_site_fract_occupancy
 O  O1  1  0.59598  0.09598  0.19196  1
 O  O2  1  0.40402  0.90402  0.80804  1
 O  O3  1  -0.00000  -0.00000  0.00000  1
 O  O4  1  0.90402  0.40402  0.80804  1
 O  O5  1  0.09598  0.59598  0.19196  1
 Pr  Pr1  1  0.66572  0.66572  0.33143  1
 Pr  Pr2  1  0.33428  0.33428  0.66857  1
 S  S1  1  0.79636  0.79636  0.59272  1
 S  S2  1  0.20364  0.20364  0.40728  1
 Ti  Ti1  1  0.07719  0.07719  0.15438  1
 Ti  Ti2  1  0.92281  0.92281  0.84562  1
