CIF file written using JARVIS-Tools package.
data_UB4
_symmetry_space_group_name_H-M  'P4/mbm'
_cell_length_a       7.04689
_cell_length_b       7.04689
_cell_length_c       3.97585
_cell_angle_alpha    90
_cell_angle_beta     90
_cell_angle_gamma    90

_symmetry_Int_Tables_number  127
_chemical_formula_structural  UB4
_chemical_formula_sum  U4B6
_cell_volume  197.4352777028154
_cell_formula_units_Z  4
loop_
  _symmetry_equiv_pos_site_id
 _symmetry_equiv_pos_as_xyz
 1  'x, y, z'
loop_
 _atom_site_type_symbol
 _atom_site_label
 _atom_site_symmetry_multiplicity
 _atom_site_fract_x
 _atom_site_fract_y
 _atom_site_fract_z
 _atom_site_fract_occupancy
 B  B1  1  0.03854  0.17862  0.50000  1
 B  B2  1  0.00000  0.00000  0.19975  1
 B  B3  1  0.50000  0.50000  0.80025  1
 B  B4  1  0.00000  0.00000  0.80025  1
 B  B5  1  0.50000  0.50000  0.19975  1
 B  B6  1  0.58728  0.08728  0.50000  1
 B  B7  1  0.67862  0.53854  0.50000  1
 B  B8  1  0.08728  0.41272  0.50000  1
 B  B9  1  0.41272  0.91272  0.50000  1
 B  B10  1  0.32138  0.46146  0.50000  1
 B  B11  1  0.17862  0.96146  0.50000  1
 B  B12  1  0.82138  0.03854  0.50000  1
 B  B13  1  0.96146  0.82138  0.50000  1
 B  B14  1  0.46146  0.67862  0.50000  1
 B  B15  1  0.53854  0.32138  0.50000  1
 B  B16  1  0.91272  0.58728  0.50000  1
 U  U1  1  0.18906  0.68906  0.00000  1
 U  U2  1  0.68906  0.81094  0.00000  1
 U  U3  1  0.31094  0.18906  0.00000  1
 U  U4  1  0.81094  0.31094  0.00000  1
