CIF file written using JARVIS-Tools package.
data_ScNiP
_symmetry_space_group_name_H-M  'Pnma'
_cell_length_a       3.74686
_cell_length_b       6.35863
_cell_length_c       7.10261
_cell_angle_alpha    90
_cell_angle_beta     90
_cell_angle_gamma    90

_symmetry_Int_Tables_number  62
_chemical_formula_structural  ScNiP
_chemical_formula_sum  Sc4Ni4P4
_cell_volume  169.21890832839057
_cell_formula_units_Z  4
loop_
  _symmetry_equiv_pos_site_id
 _symmetry_equiv_pos_as_xyz
 1  'x, y, z'
loop_
 _atom_site_type_symbol
 _atom_site_label
 _atom_site_symmetry_multiplicity
 _atom_site_fract_x
 _atom_site_fract_y
 _atom_site_fract_z
 _atom_site_fract_occupancy
 Ni  Ni1  1  0.25000  0.64148  0.56140  1
 Ni  Ni2  1  0.25000  0.14148  0.93860  1
 Ni  Ni3  1  0.75000  0.85852  0.06140  1
 Ni  Ni4  1  0.75000  0.35852  0.43860  1
 P  P1  1  0.25000  0.76447  0.88162  1
 P  P2  1  0.25000  0.26447  0.61838  1
 P  P3  1  0.75000  0.23553  0.11838  1
 P  P4  1  0.75000  0.73553  0.38162  1
 Sc  Sc1  1  0.75000  0.47827  0.81442  1
 Sc  Sc2  1  0.25000  0.02173  0.31442  1
 Sc  Sc3  1  0.75000  0.97827  0.68558  1
 Sc  Sc4  1  0.25000  0.52173  0.18558  1
