CIF file written using JARVIS-Tools package.
data_Rb2NpO4
_symmetry_space_group_name_H-M  'I4/mmm'
_cell_length_a       4.33201
_cell_length_b       4.33201
_cell_length_c       7.62826
_cell_angle_alpha    106.496
_cell_angle_beta     106.496
_cell_angle_gamma    90

_symmetry_Int_Tables_number  139
_chemical_formula_structural  Rb2NpO4
_chemical_formula_sum  Rb2NpO4
_cell_volume  131.10529625472896
_cell_formula_units_Z  1
loop_
  _symmetry_equiv_pos_site_id
 _symmetry_equiv_pos_as_xyz
 1  'x, y, z'
loop_
 _atom_site_type_symbol
 _atom_site_label
 _atom_site_symmetry_multiplicity
 _atom_site_fract_x
 _atom_site_fract_y
 _atom_site_fract_z
 _atom_site_fract_occupancy
 Np  Np1  1  0.00000  0.00000  0.00000  1
 O  O1  1  0.13907  0.13907  0.27814  1
 O  O2  1  0.86093  0.86093  0.72186  1
 O  O3  1  0.00000  0.50000  0.00000  1
 O  O4  1  0.50000  0.00000  0.00000  1
 Rb  Rb1  1  0.34564  0.34564  0.69129  1
 Rb  Rb2  1  0.65436  0.65436  0.30871  1
