CIF file written using JARVIS-Tools package.
data_InSbS3
_symmetry_space_group_name_H-M  'Pnma'
_cell_length_a       3.88272
_cell_length_b       9.44448
_cell_length_c       13.2187
_cell_angle_alpha    90
_cell_angle_beta     90
_cell_angle_gamma    90

_symmetry_Int_Tables_number  62
_chemical_formula_structural  InSbS3
_chemical_formula_sum  In4Sb4S2
_cell_volume  484.731429029807
_cell_formula_units_Z  4
loop_
  _symmetry_equiv_pos_site_id
 _symmetry_equiv_pos_as_xyz
 1  'x, y, z'
loop_
 _atom_site_type_symbol
 _atom_site_label
 _atom_site_symmetry_multiplicity
 _atom_site_fract_x
 _atom_site_fract_y
 _atom_site_fract_z
 _atom_site_fract_occupancy
 In  In1  1  0.25000  0.15321  0.04386  1
 In  In2  1  0.75000  0.84679  0.95614  1
 In  In3  1  0.25000  0.65321  0.45614  1
 In  In4  1  0.75000  0.34679  0.54386  1
 S  S1  1  0.75000  0.68910  0.79175  1
 S  S2  1  0.25000  0.81090  0.29175  1
 S  S3  1  0.75000  0.18910  0.70825  1
 S  S4  1  0.25000  0.65858  0.02002  1
 S  S5  1  0.75000  0.34142  0.97998  1
 S  S6  1  0.25000  0.15858  0.47998  1
 S  S7  1  0.75000  0.84142  0.52002  1
 S  S8  1  0.75000  0.00113  0.11753  1
 S  S9  1  0.75000  0.50113  0.38247  1
 S  S10  1  0.25000  -0.00113  0.88247  1
 S  S11  1  0.25000  0.31090  0.20825  1
 S  S12  1  0.25000  0.49887  0.61753  1
 Sb  Sb1  1  0.75000  0.47573  0.14928  1
 Sb  Sb2  1  0.75000  0.97573  0.35072  1
 Sb  Sb3  1  0.25000  0.02427  0.64928  1
 Sb  Sb4  1  0.25000  0.52427  0.85072  1
