CIF file written using JARVIS-Tools package.
data_YbB4Os
_symmetry_space_group_name_H-M  'Pbam'
_cell_length_a       3.55973
_cell_length_b       5.9452
_cell_length_c       11.504
_cell_angle_alpha    90
_cell_angle_beta     90
_cell_angle_gamma    90

_symmetry_Int_Tables_number  55
_chemical_formula_structural  YbB4Os
_chemical_formula_sum  Yb4B6Os4
_cell_volume  243.4633591821628
_cell_formula_units_Z  4
loop_
  _symmetry_equiv_pos_site_id
 _symmetry_equiv_pos_as_xyz
 1  'x, y, z'
loop_
 _atom_site_type_symbol
 _atom_site_label
 _atom_site_symmetry_multiplicity
 _atom_site_fract_x
 _atom_site_fract_y
 _atom_site_fract_z
 _atom_site_fract_occupancy
 B  B1  1  0.50000  0.36430  0.46983  1
 B  B2  1  0.50000  0.28681  0.31480  1
 B  B3  1  0.50000  0.71319  0.68520  1
 B  B4  1  0.50000  0.78681  0.18520  1
 B  B5  1  0.50000  0.21319  0.81480  1
 B  B6  1  0.50000  0.52558  0.80804  1
 B  B7  1  0.50000  0.63570  0.53017  1
 B  B8  1  0.50000  0.86430  0.03017  1
 B  B9  1  0.50000  0.13570  0.96983  1
 B  B10  1  0.50000  0.38639  0.04749  1
 B  B11  1  0.50000  0.61361  0.95251  1
 B  B12  1  0.50000  0.88639  0.45251  1
 B  B13  1  0.50000  0.11361  0.54749  1
 B  B14  1  0.50000  0.47442  0.19196  1
 B  B15  1  0.50000  0.02558  0.69196  1
 B  B16  1  0.50000  0.97442  0.30804  1
 Os  Os1  1  0.00000  0.13667  0.41122  1
 Os  Os2  1  0.00000  0.86333  0.58878  1
 Os  Os3  1  0.00000  0.36333  0.91122  1
 Os  Os4  1  0.00000  0.63667  0.08878  1
 Yb  Yb1  1  0.00000  0.37083  0.65002  1
 Yb  Yb2  1  0.00000  0.62917  0.34998  1
 Yb  Yb3  1  0.00000  0.87083  0.84998  1
 Yb  Yb4  1  0.00000  0.12917  0.15002  1
