CIF file written using JARVIS-Tools package.
data_Ho2Fe2Si2C
_symmetry_space_group_name_H-M  'C2/m'
_cell_length_a       3.90947
_cell_length_b       5.62699
_cell_length_c       5.63309
_cell_angle_alpha    73.2137
_cell_angle_beta     69.6954
_cell_angle_gamma    69.6725

_symmetry_Int_Tables_number  12
_chemical_formula_structural  Ho2Fe2Si2C
_chemical_formula_sum  Ho2Fe2Si2C
_cell_volume  106.96845595680084
_cell_formula_units_Z  1
loop_
  _symmetry_equiv_pos_site_id
 _symmetry_equiv_pos_as_xyz
 1  'x, y, z'
loop_
 _atom_site_type_symbol
 _atom_site_label
 _atom_site_symmetry_multiplicity
 _atom_site_fract_x
 _atom_site_fract_y
 _atom_site_fract_z
 _atom_site_fract_occupancy
 C  C1  1  0.00000  0.00000  0.00000  1
 Fe  Fe1  1  0.79898  0.30645  0.09560  1
 Fe  Fe2  1  0.20102  0.69355  0.90440  1
 Ho  Ho1  1  0.44055  0.82585  0.29305  1
 Ho  Ho2  1  0.55945  0.17415  0.70695  1
 Si  Si1  1  0.83832  0.60879  0.71457  1
 Si  Si2  1  0.16168  0.39121  0.28543  1
