CIF file written using JARVIS-Tools package.
data_PbCO3
_symmetry_space_group_name_H-M  'Pnma'
_cell_length_a       5.22911
_cell_length_b       6.08014
_cell_length_c       8.55908
_cell_angle_alpha    90
_cell_angle_beta     90
_cell_angle_gamma    90

_symmetry_Int_Tables_number  62
_chemical_formula_structural  PbCO3
_chemical_formula_sum  Pb4C4O2
_cell_volume  272.1249973296949
_cell_formula_units_Z  4
loop_
  _symmetry_equiv_pos_site_id
 _symmetry_equiv_pos_as_xyz
 1  'x, y, z'
loop_
 _atom_site_type_symbol
 _atom_site_label
 _atom_site_symmetry_multiplicity
 _atom_site_fract_x
 _atom_site_fract_y
 _atom_site_fract_z
 _atom_site_fract_occupancy
 C  C1  1  0.25000  0.91058  0.26140  1
 C  C2  1  0.75000  0.58942  0.76140  1
 C  C3  1  0.25000  0.41058  0.23860  1
 C  C4  1  0.75000  0.08942  0.73860  1
 O  O1  1  0.03504  0.90881  0.18510  1
 O  O2  1  0.46496  0.90881  0.18510  1
 O  O3  1  0.96496  0.09119  0.81490  1
 O  O4  1  0.03504  0.40881  0.31490  1
 O  O5  1  0.53504  0.59119  0.68510  1
 O  O6  1  0.25000  0.90059  0.41289  1
 O  O7  1  0.75000  0.09941  0.58711  1
 O  O8  1  0.25000  0.40059  0.08711  1
 O  O9  1  0.53504  0.09119  0.81490  1
 O  O10  1  0.46496  0.40881  0.31490  1
 O  O11  1  0.96496  0.59119  0.68510  1
 O  O12  1  0.75000  0.59941  0.91289  1
 Pb  Pb1  1  0.25000  0.25542  0.58329  1
 Pb  Pb2  1  0.25000  0.75542  0.91671  1
 Pb  Pb3  1  0.75000  0.24458  0.08329  1
 Pb  Pb4  1  0.75000  0.74458  0.41671  1
