CIF file written using JARVIS-Tools package.
data_Na
_symmetry_space_group_name_H-M  'I-43d'
_cell_length_a       7.23187
_cell_length_b       7.23186
_cell_length_c       7.23186
_cell_angle_alpha    109.471
_cell_angle_beta     109.471
_cell_angle_gamma    109.471

_symmetry_Int_Tables_number  220
_chemical_formula_structural  Na
_chemical_formula_sum  Na8
_cell_volume  291.1581050901932
_cell_formula_units_Z  8
loop_
  _symmetry_equiv_pos_site_id
 _symmetry_equiv_pos_as_xyz
 1  'x, y, z'
loop_
 _atom_site_type_symbol
 _atom_site_label
 _atom_site_symmetry_multiplicity
 _atom_site_fract_x
 _atom_site_fract_y
 _atom_site_fract_z
 _atom_site_fract_occupancy
 Na  Na1  1  0.49951  0.50000  -0.00000  1
 Na  Na2  1  -0.00000  0.49951  0.50000  1
 Na  Na3  1  0.50000  0.00000  0.99951  1
 Na  Na4  1  -0.00000  0.99951  0.50000  1
 Na  Na5  1  0.50000  0.00000  0.49951  1
 Na  Na6  1  0.99951  0.50000  -0.00000  1
 Na  Na7  1  0.50049  0.50049  0.50049  1
 Na  Na8  1  0.00049  0.00049  0.00049  1
