CIF file written using JARVIS-Tools package.
data_Yb2C3
_symmetry_space_group_name_H-M  'I-43d'
_cell_length_a       7.17973
_cell_length_b       7.17972
_cell_length_c       7.17972
_cell_angle_alpha    109.471
_cell_angle_beta     109.471
_cell_angle_gamma    109.471

_symmetry_Int_Tables_number  220
_chemical_formula_structural  Yb2C3
_chemical_formula_sum  Yb8C2
_cell_volume  284.9058299810342
_cell_formula_units_Z  4
loop_
  _symmetry_equiv_pos_site_id
 _symmetry_equiv_pos_as_xyz
 1  'x, y, z'
loop_
 _atom_site_type_symbol
 _atom_site_label
 _atom_site_symmetry_multiplicity
 _atom_site_fract_x
 _atom_site_fract_y
 _atom_site_fract_z
 _atom_site_fract_occupancy
 C  C1  1  0.04748  0.75000  0.79748  1
 C  C2  1  0.75000  0.95252  0.20252  1
 C  C3  1  0.29748  0.25000  0.54748  1
 C  C4  1  0.54748  0.29748  0.25000  1
 C  C5  1  0.20252  0.75000  0.95252  1
 C  C6  1  0.95252  0.20252  0.75000  1
 C  C7  1  0.25000  0.70252  0.45252  1
 C  C8  1  0.70252  0.45252  0.25000  1
 C  C9  1  0.75000  0.79748  0.04748  1
 C  C10  1  0.45252  0.25000  0.70252  1
 C  C11  1  0.79748  0.04748  0.75000  1
 C  C12  1  0.25000  0.54748  0.29748  1
 Yb  Yb1  1  0.88653  0.50000  -0.00000  1
 Yb  Yb2  1  0.61347  0.61347  0.61347  1
 Yb  Yb3  1  0.38653  0.50000  -0.00000  1
 Yb  Yb4  1  0.50000  -0.00000  0.38653  1
 Yb  Yb5  1  -0.00000  0.38653  0.50000  1
 Yb  Yb6  1  0.50000  -0.00000  0.88653  1
 Yb  Yb7  1  -0.00000  0.88653  0.50000  1
 Yb  Yb8  1  0.11347  0.11347  0.11347  1
