CIF file written using JARVIS-Tools package.
data_Hf6Al16Rh7
_symmetry_space_group_name_H-M  'Fm-3m'
_cell_length_a       8.69994
_cell_length_b       8.69994
_cell_length_c       8.69994
_cell_angle_alpha    60
_cell_angle_beta     60
_cell_angle_gamma    60

_symmetry_Int_Tables_number  225
_chemical_formula_structural  Hf6Al16Rh7
_chemical_formula_sum  Hf6Al6Rh7
_cell_volume  465.6239286151004
_cell_formula_units_Z  1
loop_
  _symmetry_equiv_pos_site_id
 _symmetry_equiv_pos_as_xyz
 1  'x, y, z'
loop_
 _atom_site_type_symbol
 _atom_site_label
 _atom_site_symmetry_multiplicity
 _atom_site_fract_x
 _atom_site_fract_y
 _atom_site_fract_z
 _atom_site_fract_occupancy
 Al  Al1  1  0.66196  0.01412  0.66196  1
 Al  Al2  1  0.01412  0.66196  0.66196  1
 Al  Al3  1  0.33804  0.33804  0.33804  1
 Al  Al4  1  0.33804  0.33804  0.98588  1
 Al  Al5  1  0.98588  0.33804  0.33804  1
 Al  Al6  1  0.33804  0.98588  0.33804  1
 Al  Al7  1  0.35867  0.88044  0.88044  1
 Al  Al8  1  0.88044  0.35867  0.88044  1
 Al  Al9  1  0.88044  0.88044  0.35867  1
 Al  Al10  1  0.88044  0.88044  0.88044  1
 Al  Al11  1  0.11955  0.64134  0.11955  1
 Al  Al12  1  0.64134  0.11955  0.11955  1
 Al  Al13  1  0.11955  0.11955  0.64134  1
 Al  Al14  1  0.11955  0.11955  0.11955  1
 Al  Al15  1  0.66196  0.66196  0.66196  1
 Al  Al16  1  0.66196  0.66196  0.01412  1
 Hf  Hf1  1  0.68332  0.31667  0.31667  1
 Hf  Hf2  1  0.68332  0.68332  0.31667  1
 Hf  Hf3  1  0.68332  0.31667  0.68332  1
 Hf  Hf4  1  0.31667  0.31667  0.68332  1
 Hf  Hf5  1  0.31667  0.68332  0.31667  1
 Hf  Hf6  1  0.31667  0.68332  0.68332  1
 Rh  Rh1  1  0.50000  0.00000  0.50000  1
 Rh  Rh2  1  0.00000  0.00000  0.00000  1
 Rh  Rh3  1  0.50000  -0.00000  0.00000  1
 Rh  Rh4  1  -0.00000  0.50000  0.50000  1
 Rh  Rh5  1  -0.00000  0.50000  0.00000  1
 Rh  Rh6  1  -0.00000  0.00000  0.50000  1
 Rh  Rh7  1  0.50000  0.50000  0.00000  1
