CIF file written using JARVIS-Tools package.
data_YbEr2S4
_symmetry_space_group_name_H-M  'Pnma'
_cell_length_a       3.84087
_cell_length_b       12.8013
_cell_length_c       12.9592
_cell_angle_alpha    90
_cell_angle_beta     90
_cell_angle_gamma    90

_symmetry_Int_Tables_number  62
_chemical_formula_structural  YbEr2S4
_chemical_formula_sum  Yb4Er8S6
_cell_volume  637.1774465093417
_cell_formula_units_Z  4
loop_
  _symmetry_equiv_pos_site_id
 _symmetry_equiv_pos_as_xyz
 1  'x, y, z'
loop_
 _atom_site_type_symbol
 _atom_site_label
 _atom_site_symmetry_multiplicity
 _atom_site_fract_x
 _atom_site_fract_y
 _atom_site_fract_z
 _atom_site_fract_occupancy
 Er  Er1  1  0.75000  0.39231  0.91636  1
 Er  Er2  1  0.25000  0.14634  0.79803  1
 Er  Er3  1  0.75000  0.35366  0.29803  1
 Er  Er4  1  0.75000  0.85366  0.20197  1
 Er  Er5  1  0.25000  0.64634  0.70197  1
 Er  Er6  1  0.25000  0.10769  0.41636  1
 Er  Er7  1  0.25000  0.60769  0.08364  1
 Er  Er8  1  0.75000  0.89231  0.58364  1
 S  S1  1  0.25000  0.71659  0.26407  1
 S  S2  1  0.75000  0.78341  0.76407  1
 S  S3  1  0.25000  0.47099  0.38399  1
 S  S4  1  0.25000  0.75649  0.52406  1
 S  S5  1  0.75000  0.02901  0.88399  1
 S  S6  1  0.75000  0.24351  0.47594  1
 S  S7  1  0.75000  0.52901  0.61601  1
 S  S8  1  0.25000  0.97099  0.11601  1
 S  S9  1  0.25000  0.21659  0.23593  1
 S  S10  1  0.25000  0.25649  0.97594  1
 S  S11  1  0.75000  0.46545  0.11829  1
 S  S12  1  0.25000  0.03455  0.61829  1
 S  S13  1  0.75000  0.74351  0.02406  1
 S  S14  1  0.75000  0.28341  0.73593  1
 S  S15  1  0.75000  0.96545  0.38171  1
 S  S16  1  0.25000  0.53455  0.88171  1
 Yb  Yb1  1  0.25000  0.36910  0.58341  1
 Yb  Yb2  1  0.75000  0.13090  0.08341  1
 Yb  Yb3  1  0.25000  0.86910  0.91659  1
 Yb  Yb4  1  0.75000  0.63090  0.41659  1
