CIF file written using JARVIS-Tools package.
data_Pr3AgGeS7
_symmetry_space_group_name_H-M  'P6_3'
_cell_length_a       10.3764
_cell_length_b       5.85656
_cell_length_c       10.3767
_cell_angle_alpha    90
_cell_angle_beta     120
_cell_angle_gamma    90

_symmetry_Int_Tables_number  173
_chemical_formula_structural  Pr3AgGeS7
_chemical_formula_sum  Pr6Ag2Ge2S4
_cell_volume  546.1065810137785
_cell_formula_units_Z  2
loop_
  _symmetry_equiv_pos_site_id
 _symmetry_equiv_pos_as_xyz
 1  'x, y, z'
loop_
 _atom_site_type_symbol
 _atom_site_label
 _atom_site_symmetry_multiplicity
 _atom_site_fract_x
 _atom_site_fract_y
 _atom_site_fract_z
 _atom_site_fract_occupancy
 Ag  Ag1  1  0.00000  0.70259  -0.00000  1
 Ag  Ag2  1  -0.00000  0.20259  0.00000  1
 Ge  Ge1  1  0.66667  0.32511  0.33334  1
 Ge  Ge2  1  0.33333  0.82511  0.66666  1
 Pr  Pr1  1  0.87403  0.74264  0.23321  1
 Pr  Pr2  1  0.12597  0.24264  0.76679  1
 Pr  Pr3  1  0.35918  0.74264  0.12597  1
 Pr  Pr4  1  0.76679  0.74264  0.64083  1
 Pr  Pr5  1  0.23321  0.24264  0.35917  1
 Pr  Pr6  1  0.64082  0.24264  0.87403  1
 S  S1  1  0.66666  0.94818  0.33334  1
 S  S2  1  0.17453  0.72746  0.26916  1
 S  S3  1  0.58592  0.48094  0.10649  1
 S  S4  1  0.41408  0.98094  0.89351  1
 S  S5  1  0.52057  0.48095  0.41409  1
 S  S6  1  0.33334  0.44818  0.66666  1
 S  S7  1  0.26917  0.22746  0.09463  1
 S  S8  1  0.47943  0.98095  0.58591  1
 S  S9  1  0.90537  0.22745  0.17454  1
 S  S10  1  0.09463  0.72745  0.82546  1
 S  S11  1  0.89352  0.48095  0.47943  1
 S  S12  1  0.82547  0.22746  0.73084  1
 S  S13  1  0.10648  0.98095  0.52057  1
 S  S14  1  0.73083  0.72746  0.90537  1
