CIF file written using JARVIS-Tools package.
data_LiAlSiO4
_symmetry_space_group_name_H-M  'P6_222'
_cell_length_a       5.34598
_cell_length_b       5.34598
_cell_length_c       11.0897
_cell_angle_alpha    90
_cell_angle_beta     90
_cell_angle_gamma    120

_symmetry_Int_Tables_number  180
_chemical_formula_structural  LiAlSiO4
_chemical_formula_sum  Li3Al3Si3O2
_cell_volume  274.47762498718157
_cell_formula_units_Z  3
loop_
  _symmetry_equiv_pos_site_id
 _symmetry_equiv_pos_as_xyz
 1  'x, y, z'
loop_
 _atom_site_type_symbol
 _atom_site_label
 _atom_site_symmetry_multiplicity
 _atom_site_fract_x
 _atom_site_fract_y
 _atom_site_fract_z
 _atom_site_fract_occupancy
 Al  Al1  1  0.50000  0.50000  0.83333  1
 Al  Al2  1  -0.00000  0.50000  0.16667  1
 Al  Al3  1  0.50000  -0.00000  0.50000  1
 Li  Li1  1  0.00000  0.00000  0.83333  1
 Li  Li2  1  0.00000  0.00000  0.16667  1
 Li  Li3  1  0.00000  0.00000  0.50000  1
 O  O1  1  0.78633  0.18462  0.08461  1
 O  O2  1  0.81538  0.21367  0.58206  1
 O  O3  1  0.18462  0.78633  0.58206  1
 O  O4  1  0.39829  0.21367  0.41794  1
 O  O5  1  0.60171  0.78633  0.41794  1
 O  O6  1  0.81538  0.60171  0.75127  1
 O  O7  1  0.21367  0.39829  0.24873  1
 O  O8  1  0.39829  0.18462  0.91539  1
 O  O9  1  0.78633  0.60171  0.24873  1
 O  O10  1  0.21367  0.81538  0.08461  1
 O  O11  1  0.18462  0.39829  0.75127  1
 O  O12  1  0.60171  0.81538  0.91539  1
 Si  Si1  1  0.50000  0.50000  0.33333  1
 Si  Si2  1  0.50000  -0.00000  0.00000  1
 Si  Si3  1  -0.00000  0.50000  0.66667  1
