CIF file written using JARVIS-Tools package.
data_W
_symmetry_space_group_name_H-M  'Pm-3n'
_cell_length_a       5.08196
_cell_length_b       5.08196
_cell_length_c       5.08196
_cell_angle_alpha    90
_cell_angle_beta     90
_cell_angle_gamma    90

_symmetry_Int_Tables_number  223
_chemical_formula_structural  W
_chemical_formula_sum  W8
_cell_volume  131.24807433878587
_cell_formula_units_Z  8
loop_
  _symmetry_equiv_pos_site_id
 _symmetry_equiv_pos_as_xyz
 1  'x, y, z'
loop_
 _atom_site_type_symbol
 _atom_site_label
 _atom_site_symmetry_multiplicity
 _atom_site_fract_x
 _atom_site_fract_y
 _atom_site_fract_z
 _atom_site_fract_occupancy
 W  W1  1  0.25000  0.00000  0.50000  1
 W  W2  1  0.75000  0.00000  0.50000  1
 W  W3  1  0.00000  0.50000  0.25000  1
 W  W4  1  0.00000  0.50000  0.75000  1
 W  W5  1  0.50000  0.75000  0.00000  1
 W  W6  1  0.50000  0.25000  0.00000  1
 W  W7  1  0.00000  0.00000  0.00000  1
 W  W8  1  0.50000  0.50000  0.50000  1
