CIF file written using JARVIS-Tools package.
data_PbCl2O4
_symmetry_space_group_name_H-M  'Ccce'
_cell_length_a       6.04932
_cell_length_b       6.03434
_cell_length_c       6.91839
_cell_angle_alpha    90
_cell_angle_beta     115.925
_cell_angle_gamma    90

_symmetry_Int_Tables_number  68
_chemical_formula_structural  PbCl2O4
_chemical_formula_sum  Pb2Cl4O8
_cell_volume  227.13261849903134
_cell_formula_units_Z  2
loop_
  _symmetry_equiv_pos_site_id
 _symmetry_equiv_pos_as_xyz
 1  'x, y, z'
loop_
 _atom_site_type_symbol
 _atom_site_label
 _atom_site_symmetry_multiplicity
 _atom_site_fract_x
 _atom_site_fract_y
 _atom_site_fract_z
 _atom_site_fract_occupancy
 Cl  Cl1  1  0.06975  0.25000  0.13950  1
 Cl  Cl2  1  0.56975  0.75000  0.13950  1
 Cl  Cl3  1  0.93025  0.75000  0.86050  1
 Cl  Cl4  1  0.43025  0.25000  0.86050  1
 O  O1  1  0.20329  0.09788  0.71681  1
 O  O2  1  0.51352  0.40212  0.71681  1
 O  O3  1  0.70329  0.90212  0.71681  1
 O  O4  1  0.79671  0.90212  0.28319  1
 O  O5  1  0.48648  0.59788  0.28319  1
 O  O6  1  0.98648  0.40212  0.28319  1
 O  O7  1  0.29671  0.09788  0.28319  1
 O  O8  1  0.01352  0.59788  0.71681  1
 Pb  Pb1  1  0.75000  0.25000  0.50000  1
 Pb  Pb2  1  0.25000  0.75000  0.50000  1
