CIF file written using JARVIS-Tools package.
data_ZrPbS3
_symmetry_space_group_name_H-M  'Pnma'
_cell_length_a       3.80354
_cell_length_b       9.11361
_cell_length_c       13.9478
_cell_angle_alpha    90
_cell_angle_beta     90
_cell_angle_gamma    90

_symmetry_Int_Tables_number  62
_chemical_formula_structural  ZrPbS3
_chemical_formula_sum  Zr4Pb4S2
_cell_volume  483.48672449589543
_cell_formula_units_Z  4
loop_
  _symmetry_equiv_pos_site_id
 _symmetry_equiv_pos_as_xyz
 1  'x, y, z'
loop_
 _atom_site_type_symbol
 _atom_site_label
 _atom_site_symmetry_multiplicity
 _atom_site_fract_x
 _atom_site_fract_y
 _atom_site_fract_z
 _atom_site_fract_occupancy
 Pb  Pb1  1  0.75000  0.48475  0.17458  1
 Pb  Pb2  1  0.75000  0.98475  0.32542  1
 Pb  Pb3  1  0.25000  0.01525  0.67458  1
 Pb  Pb4  1  0.25000  0.51525  0.82542  1
 S  S1  1  0.75000  0.22682  0.71624  1
 S  S2  1  0.75000  0.49100  0.39437  1
 S  S3  1  0.25000  0.00900  0.89437  1
 S  S4  1  0.75000  0.99100  0.10563  1
 S  S5  1  0.25000  0.66780  0.01257  1
 S  S6  1  0.75000  0.33220  0.98743  1
 S  S7  1  0.25000  0.16780  0.48743  1
 S  S8  1  0.25000  0.27318  0.21624  1
 S  S9  1  0.25000  0.50900  0.60563  1
 S  S10  1  0.75000  0.72682  0.78376  1
 S  S11  1  0.25000  0.77318  0.28376  1
 S  S12  1  0.75000  0.83220  0.51257  1
 Zr  Zr1  1  0.25000  0.66807  0.45118  1
 Zr  Zr2  1  0.75000  0.33193  0.54882  1
 Zr  Zr3  1  0.25000  0.16807  0.04882  1
 Zr  Zr4  1  0.75000  0.83193  0.95118  1
