CIF file written using JARVIS-Tools package.
data_K
_symmetry_space_group_name_H-M  'P2_1/m'
_cell_length_a       4.58683
_cell_length_b       4.59475
_cell_length_c       8.86001
_cell_angle_alpha    104.374
_cell_angle_beta     121.356
_cell_angle_gamma    61.781

_symmetry_Int_Tables_number  11
_chemical_formula_structural  K
_chemical_formula_sum  K2
_cell_volume  140.50330829092823
_cell_formula_units_Z  2
loop_
  _symmetry_equiv_pos_site_id
 _symmetry_equiv_pos_as_xyz
 1  'x, y, z'
loop_
 _atom_site_type_symbol
 _atom_site_label
 _atom_site_symmetry_multiplicity
 _atom_site_fract_x
 _atom_site_fract_y
 _atom_site_fract_z
 _atom_site_fract_occupancy
 K  K1  1  0.08135  0.31486  0.75608  1
 K  K2  1  0.92998  0.67008  0.25609  1
