CIF file written using JARVIS-Tools package.
data_V3S4
_symmetry_space_group_name_H-M  'C2/m'
_cell_length_a       3.07386
_cell_length_b       6.27436
_cell_length_c       11.9096
_cell_angle_alpha    96.2936
_cell_angle_beta     82.5853
_cell_angle_gamma    75.8209

_symmetry_Int_Tables_number  12
_chemical_formula_structural  V3S4
_chemical_formula_sum  V6S8
_cell_volume  218.43882465585068
_cell_formula_units_Z  2
loop_
  _symmetry_equiv_pos_site_id
 _symmetry_equiv_pos_as_xyz
 1  'x, y, z'
loop_
 _atom_site_type_symbol
 _atom_site_label
 _atom_site_symmetry_multiplicity
 _atom_site_fract_x
 _atom_site_fract_y
 _atom_site_fract_z
 _atom_site_fract_occupancy
 S  S1  1  0.33895  0.18386  0.13823  1
 S  S2  1  0.33894  0.68387  0.63824  1
 S  S3  1  0.59571  0.68170  0.12688  1
 S  S4  1  0.59573  0.18165  0.62689  1
 S  S5  1  0.66105  0.31614  0.36177  1
 S  S6  1  0.66105  0.81613  0.86176  1
 S  S7  1  0.40429  0.81830  0.37312  1
 S  S8  1  0.40427  0.31836  0.87311  1
 V  V1  1  0.91088  0.94872  0.22952  1
 V  V2  1  0.91090  0.44870  0.72951  1
 V  V3  1  0.00004  0.99991  0.00002  1
 V  V4  1  0.99997  0.50009  0.49998  1
 V  V5  1  0.08912  0.55128  0.27048  1
 V  V6  1  0.08910  0.05130  0.77049  1
