CIF file written using JARVIS-Tools package.
data_Sr
_symmetry_space_group_name_H-M  'I4/mcm'
_cell_length_a       7.05921
_cell_length_b       6.66898
_cell_length_c       6.66897
_cell_angle_alpha    73.733
_cell_angle_beta     58.0448
_cell_angle_gamma    58.0447

_symmetry_Int_Tables_number  140
_chemical_formula_structural  Sr
_chemical_formula_sum  Sr4
_cell_volume  226.01551551381687
_cell_formula_units_Z  4
loop_
  _symmetry_equiv_pos_site_id
 _symmetry_equiv_pos_as_xyz
 1  'x, y, z'
loop_
 _atom_site_type_symbol
 _atom_site_label
 _atom_site_symmetry_multiplicity
 _atom_site_fract_x
 _atom_site_fract_y
 _atom_site_fract_z
 _atom_site_fract_occupancy
 Sr  Sr1  1  0.32924  0.84153  0.50000  1
 Sr  Sr2  1  0.67076  0.15847  0.50000  1
 Sr  Sr3  1  0.17076  0.50000  0.15847  1
 Sr  Sr4  1  0.82924  0.50000  0.84153  1
