CIF file written using JARVIS-Tools package.
data_FeTeCl7
_symmetry_space_group_name_H-M  'P1'
_cell_length_a       6.42258
_cell_length_b       8.28881
_cell_length_c       9.79335
_cell_angle_alpha    85.2823
_cell_angle_beta     77.5551
_cell_angle_gamma    82.5612

_symmetry_Int_Tables_number  1
_chemical_formula_structural  FeTeCl7
_chemical_formula_sum  Fe2Te2Cl4
_cell_volume  504.0239760428323
_cell_formula_units_Z  2
loop_
  _symmetry_equiv_pos_site_id
 _symmetry_equiv_pos_as_xyz
 1  'x, y, z'
loop_
 _atom_site_type_symbol
 _atom_site_label
 _atom_site_symmetry_multiplicity
 _atom_site_fract_x
 _atom_site_fract_y
 _atom_site_fract_z
 _atom_site_fract_occupancy
 Cl  Cl1  1  0.09873  0.59856  0.50893  1
 Cl  Cl2  1  0.83743  0.17143  0.06635  1
 Cl  Cl3  1  0.29045  0.32906  0.22000  1
 Cl  Cl4  1  0.48965  0.90583  0.27785  1
 Cl  Cl5  1  0.40107  0.04726  0.93888  1
 Cl  Cl6  1  0.97502  0.91814  0.77575  1
 Cl  Cl7  1  0.05920  0.74815  0.13420  1
 Cl  Cl8  1  0.64594  0.62298  0.00136  1
 Cl  Cl9  1  0.91409  0.04600  0.43363  1
 Cl  Cl10  1  0.55232  0.75771  0.66353  1
 Cl  Cl11  1  0.65997  0.48580  0.37391  1
 Cl  Cl12  1  0.73104  0.33650  0.71527  1
 Cl  Cl13  1  0.31898  0.17687  0.57627  1
 Cl  Cl14  1  0.17876  0.47548  0.86991  1
 Fe  Fe1  1  0.75968  0.54270  0.56699  1
 Fe  Fe2  1  0.49764  0.11666  0.12027  1
 Te  Te1  1  0.19138  0.92964  0.54870  1
 Te  Te2  1  0.94564  0.50033  0.09059  1
