CIF file written using JARVIS-Tools package.
data_PPbSe3
_symmetry_space_group_name_H-M  'P2_1/c'
_cell_length_a       7.0469
_cell_length_b       7.70042
_cell_length_c       9.81686
_cell_angle_alpha    90
_cell_angle_beta     91.9043
_cell_angle_gamma    90

_symmetry_Int_Tables_number  14
_chemical_formula_structural  PPbSe3
_chemical_formula_sum  P4Pb4Se2
_cell_volume  532.4086201121595
_cell_formula_units_Z  4
loop_
  _symmetry_equiv_pos_site_id
 _symmetry_equiv_pos_as_xyz
 1  'x, y, z'
loop_
 _atom_site_type_symbol
 _atom_site_label
 _atom_site_symmetry_multiplicity
 _atom_site_fract_x
 _atom_site_fract_y
 _atom_site_fract_z
 _atom_site_fract_occupancy
 P  P1  1  0.83638  0.14112  0.71540  1
 P  P2  1  0.33638  0.85888  0.21540  1
 P  P3  1  0.71616  0.35885  0.84279  1
 P  P4  1  0.21616  0.64115  0.34279  1
 Pb  Pb1  1  0.31210  0.13999  0.53208  1
 Pb  Pb2  1  0.74047  0.63996  0.52617  1
 Pb  Pb3  1  0.81210  0.86001  0.03208  1
 Pb  Pb4  1  0.24047  0.36004  0.02617  1
 Se  Se1  1  0.95461  0.54393  0.23381  1
 Se  Se2  1  0.94157  0.55938  0.83475  1
 Se  Se3  1  0.45461  0.45607  0.73381  1
 Se  Se4  1  0.16659  0.75215  0.54680  1
 Se  Se5  1  0.11095  0.05940  0.22343  1
 Se  Se6  1  0.44157  0.44062  0.33475  1
 Se  Se7  1  0.59793  0.95608  0.32438  1
 Se  Se8  1  0.61095  0.94060  0.72343  1
 Se  Se9  1  0.09793  0.04392  0.82438  1
 Se  Se10  1  0.88594  0.25212  0.51139  1
 Se  Se11  1  0.66659  0.24785  0.04680  1
 Se  Se12  1  0.38594  0.74788  0.01139  1
