CIF file written using JARVIS-Tools package.
data_U2SnRu2
_symmetry_space_group_name_H-M  'P4/mbm'
_cell_length_a       7.56811
_cell_length_b       7.56811
_cell_length_c       3.4916
_cell_angle_alpha    90
_cell_angle_beta     90
_cell_angle_gamma    90

_symmetry_Int_Tables_number  127
_chemical_formula_structural  U2SnRu2
_chemical_formula_sum  U4Sn2Ru4
_cell_volume  199.98580943400265
_cell_formula_units_Z  2
loop_
  _symmetry_equiv_pos_site_id
 _symmetry_equiv_pos_as_xyz
 1  'x, y, z'
loop_
 _atom_site_type_symbol
 _atom_site_label
 _atom_site_symmetry_multiplicity
 _atom_site_fract_x
 _atom_site_fract_y
 _atom_site_fract_z
 _atom_site_fract_occupancy
 Ru  Ru1  1  0.36322  0.13678  0.00000  1
 Ru  Ru2  1  0.86322  0.36322  0.00000  1
 Ru  Ru3  1  0.13678  0.63678  0.00000  1
 Ru  Ru4  1  0.63678  0.86322  0.00000  1
 Sn  Sn1  1  0.00000  0.00000  0.00000  1
 Sn  Sn2  1  0.50000  0.50000  0.00000  1
 U  U1  1  0.33342  0.83342  0.50000  1
 U  U2  1  0.83342  0.66658  0.50000  1
 U  U3  1  0.16658  0.33342  0.50000  1
 U  U4  1  0.66658  0.16658  0.50000  1
