CIF file written using JARVIS-Tools package.
data_Yb2Co12P7
_symmetry_space_group_name_H-M  'P-6'
_cell_length_a       9.02294
_cell_length_b       9.02294
_cell_length_c       3.55154
_cell_angle_alpha    90
_cell_angle_beta     90
_cell_angle_gamma    120

_symmetry_Int_Tables_number  174
_chemical_formula_structural  Yb2Co12P7
_chemical_formula_sum  Yb2Co2P7
_cell_volume  250.40551155765496
_cell_formula_units_Z  1
loop_
  _symmetry_equiv_pos_site_id
 _symmetry_equiv_pos_as_xyz
 1  'x, y, z'
loop_
 _atom_site_type_symbol
 _atom_site_label
 _atom_site_symmetry_multiplicity
 _atom_site_fract_x
 _atom_site_fract_y
 _atom_site_fract_z
 _atom_site_fract_occupancy
 Co  Co1  1  0.24166  0.10680  0.50000  1
 Co  Co2  1  0.86514  0.75834  0.50000  1
 Co  Co3  1  0.62283  0.56337  0.00000  1
 Co  Co4  1  0.56321  0.94574  0.50000  1
 Co  Co5  1  0.43663  0.05946  0.00000  1
 Co  Co6  1  0.11956  0.84735  0.00000  1
 Co  Co7  1  0.05426  0.61747  0.50000  1
 Co  Co8  1  0.15265  0.27221  0.00000  1
 Co  Co9  1  0.89320  0.13486  0.50000  1
 Co  Co10  1  0.94054  0.37717  0.00000  1
 Co  Co11  1  0.72779  0.88044  0.00000  1
 Co  Co12  1  0.38253  0.43679  0.50000  1
 P  P1  1  0.59699  0.70817  0.50000  1
 P  P2  1  0.70803  0.11368  0.00000  1
 P  P3  1  0.29183  0.88883  0.50000  1
 P  P4  1  0.00000  0.00000  0.00000  1
 P  P5  1  0.11117  0.40301  0.50000  1
 P  P6  1  0.88632  0.59435  0.00000  1
 P  P7  1  0.40565  0.29197  0.00000  1
 Yb  Yb1  1  0.33333  0.66667  0.00000  1
 Yb  Yb2  1  0.66667  0.33333  0.50000  1
