CIF file written using JARVIS-Tools package.
data_ErAl3Ni2
_symmetry_space_group_name_H-M  'P6/mmm'
_cell_length_a       8.98944
_cell_length_b       8.98944
_cell_length_c       4.06088
_cell_angle_alpha    90
_cell_angle_beta     90
_cell_angle_gamma    120

_symmetry_Int_Tables_number  191
_chemical_formula_structural  ErAl3Ni2
_chemical_formula_sum  Er3Al9Ni6
_cell_volume  284.1949642485099
_cell_formula_units_Z  3
loop_
  _symmetry_equiv_pos_site_id
 _symmetry_equiv_pos_as_xyz
 1  'x, y, z'
loop_
 _atom_site_type_symbol
 _atom_site_label
 _atom_site_symmetry_multiplicity
 _atom_site_fract_x
 _atom_site_fract_y
 _atom_site_fract_z
 _atom_site_fract_occupancy
 Al  Al1  1  0.50000  0.50000  0.50000  1
 Al  Al2  1  0.00000  0.70357  0.00000  1
 Al  Al3  1  0.00000  0.50000  0.50000  1
 Al  Al4  1  -0.00000  0.29643  0.00000  1
 Al  Al5  1  0.29643  0.29643  0.00000  1
 Al  Al6  1  0.70357  0.00000  0.00000  1
 Al  Al7  1  0.70357  0.70357  0.00000  1
 Al  Al8  1  0.29643  -0.00000  0.00000  1
 Al  Al9  1  0.50000  -0.00000  0.50000  1
 Er  Er1  1  0.66667  0.33333  0.00000  1
 Er  Er2  1  0.00000  0.00000  0.50000  1
 Er  Er3  1  0.33333  0.66667  0.00000  1
 Ni  Ni1  1  0.81748  0.18252  0.50000  1
 Ni  Ni2  1  0.36503  0.18252  0.50000  1
 Ni  Ni3  1  0.18252  0.36503  0.50000  1
 Ni  Ni4  1  0.18252  0.81748  0.50000  1
 Ni  Ni5  1  0.63497  0.81748  0.50000  1
 Ni  Ni6  1  0.81748  0.63497  0.50000  1
