CIF file written using JARVIS-Tools package.
data_Li4HN
_symmetry_space_group_name_H-M  'C2/c'
_cell_length_a       4.80924
_cell_length_b       4.82195
_cell_length_c       5.96697
_cell_angle_alpha    113.702
_cell_angle_beta     113.633
_cell_angle_gamma    90.2944

_symmetry_Int_Tables_number  15
_chemical_formula_structural  Li4HN
_chemical_formula_sum  Li8H2N2
_cell_volume  113.77192543575468
_cell_formula_units_Z  2
loop_
  _symmetry_equiv_pos_site_id
 _symmetry_equiv_pos_as_xyz
 1  'x, y, z'
loop_
 _atom_site_type_symbol
 _atom_site_label
 _atom_site_symmetry_multiplicity
 _atom_site_fract_x
 _atom_site_fract_y
 _atom_site_fract_z
 _atom_site_fract_occupancy
 H  H1  1  0.37337  0.62338  0.74675  1
 H  H2  1  0.62663  0.37662  0.25325  1
 Li  Li1  1  0.82778  0.47259  0.06746  1
 Li  Li2  1  0.47495  0.23930  0.56640  1
 Li  Li3  1  0.90856  0.17292  0.43362  1
 Li  Li4  1  0.76032  0.90515  0.93255  1
 Li  Li5  1  0.23968  0.09485  0.06745  1
 Li  Li6  1  0.09144  0.82708  0.56638  1
 Li  Li7  1  0.52505  0.76070  0.43360  1
 Li  Li8  1  0.17222  0.52741  0.93254  1
 N  N1  1  0.87526  0.12526  0.75052  1
 N  N2  1  0.12474  0.87474  0.24948  1
