CIF file written using JARVIS-Tools package.
data_CuBiW2O8
_symmetry_space_group_name_H-M  'P-1'
_cell_length_a       5.05341
_cell_length_b       6.10671
_cell_length_c       6.17915
_cell_angle_alpha    109.495
_cell_angle_beta     91.7094
_cell_angle_gamma    112.763

_symmetry_Int_Tables_number  2
_chemical_formula_structural  CuBiW2O8
_chemical_formula_sum  CuBiW2O8
_cell_volume  162.95936006735553
_cell_formula_units_Z  1
loop_
  _symmetry_equiv_pos_site_id
 _symmetry_equiv_pos_as_xyz
 1  'x, y, z'
loop_
 _atom_site_type_symbol
 _atom_site_label
 _atom_site_symmetry_multiplicity
 _atom_site_fract_x
 _atom_site_fract_y
 _atom_site_fract_z
 _atom_site_fract_occupancy
 Bi  Bi1  1  0.36162  0.90135  0.28872  1
 Cu  Cu1  1  0.86125  0.90109  0.78830  1
 O  O1  1  0.32994  0.21128  0.62614  1
 O  O2  1  0.82378  0.19855  0.81093  1
 O  O3  1  0.36169  0.64860  0.51217  1
 O  O4  1  0.85740  0.62846  0.21783  1
 O  O5  1  0.86591  0.17428  0.35950  1
 O  O6  1  0.39312  0.59133  0.95134  1
 O  O7  1  0.89927  0.60404  0.76636  1
 O  O8  1  0.36168  0.15416  0.06542  1
 W  W1  1  0.11688  0.42275  0.62074  1
 W  W2  1  0.60626  0.37991  0.95667  1
