CIF file written using JARVIS-Tools package.
data_Mg3Al9FeSi5
_symmetry_space_group_name_H-M  'P-62m'
_cell_length_a       6.66151
_cell_length_b       6.66151
_cell_length_c       7.91326
_cell_angle_alpha    90
_cell_angle_beta     90
_cell_angle_gamma    120

_symmetry_Int_Tables_number  189
_chemical_formula_structural  Mg3Al9FeSi5
_chemical_formula_sum  Mg3Al9FeSi5
_cell_volume  304.1106464926572
_cell_formula_units_Z  1
loop_
  _symmetry_equiv_pos_site_id
 _symmetry_equiv_pos_as_xyz
 1  'x, y, z'
loop_
 _atom_site_type_symbol
 _atom_site_label
 _atom_site_symmetry_multiplicity
 _atom_site_fract_x
 _atom_site_fract_y
 _atom_site_fract_z
 _atom_site_fract_occupancy
 Al  Al1  1  -0.00000  0.25000  0.22258  1
 Al  Al2  1  0.00000  0.62576  0.00000  1
 Al  Al3  1  0.75000  0.75000  0.77742  1
 Al  Al4  1  0.75000  0.75000  0.22258  1
 Al  Al5  1  0.25000  -0.00000  0.77742  1
 Al  Al6  1  0.25000  -0.00000  0.22258  1
 Al  Al7  1  -0.00000  0.25000  0.77742  1
 Al  Al8  1  0.37424  0.37424  0.00000  1
 Al  Al9  1  0.62576  0.00000  0.00000  1
 Fe  Fe1  1  0.00000  0.00000  0.00000  1
 Mg  Mg1  1  0.00000  0.58463  0.50000  1
 Mg  Mg2  1  0.41537  0.41537  0.50000  1
 Mg  Mg3  1  0.58463  0.00000  0.50000  1
 Si  Si1  1  0.33333  0.66667  0.24096  1
 Si  Si2  1  0.66667  0.33333  0.75904  1
 Si  Si3  1  0.66667  0.33333  0.24096  1
 Si  Si4  1  0.00000  0.00000  0.50000  1
 Si  Si5  1  0.33333  0.66667  0.75904  1
