CIF file written using JARVIS-Tools package.
data_RbPS3
_symmetry_space_group_name_H-M  'Immm'
_cell_length_a       6.953
_cell_length_b       7.14257
_cell_length_c       7.14258
_cell_angle_alpha    71.5387
_cell_angle_beta     60.8742
_cell_angle_gamma    60.8742

_symmetry_Int_Tables_number  71
_chemical_formula_structural  RbPS3
_chemical_formula_sum  Rb2P2S6
_cell_volume  269.20042719317854
_cell_formula_units_Z  2
loop_
  _symmetry_equiv_pos_site_id
 _symmetry_equiv_pos_as_xyz
 1  'x, y, z'
loop_
 _atom_site_type_symbol
 _atom_site_label
 _atom_site_symmetry_multiplicity
 _atom_site_fract_x
 _atom_site_fract_y
 _atom_site_fract_z
 _atom_site_fract_occupancy
 P  P1  1  0.16089  0.33911  0.33911  1
 P  P2  1  0.83911  0.66089  0.66089  1
 Rb  Rb1  1  0.50000  0.73664  0.26336  1
 Rb  Rb2  1  0.50000  0.26336  0.73664  1
 S  S1  1  -0.00000  0.31111  0.68889  1
 S  S2  1  0.02490  0.22968  0.22968  1
 S  S3  1  0.48426  0.77032  0.77032  1
 S  S4  1  0.00000  0.68889  0.31111  1
 S  S5  1  0.51574  0.22968  0.22968  1
 S  S6  1  0.97510  0.77032  0.77032  1
