CIF file written using JARVIS-Tools package.
data_P
_symmetry_space_group_name_H-M  'Cmce'
_cell_length_a       3.34124
_cell_length_b       4.46864
_cell_length_c       5.6109
_cell_angle_alpha    90
_cell_angle_beta     107.322
_cell_angle_gamma    90

_symmetry_Int_Tables_number  64
_chemical_formula_structural  P
_chemical_formula_sum  P4
_cell_volume  79.97581368226693
_cell_formula_units_Z  4
loop_
  _symmetry_equiv_pos_site_id
 _symmetry_equiv_pos_as_xyz
 1  'x, y, z'
loop_
 _atom_site_type_symbol
 _atom_site_label
 _atom_site_symmetry_multiplicity
 _atom_site_fract_x
 _atom_site_fract_y
 _atom_site_fract_z
 _atom_site_fract_occupancy
 P  P1  1  0.39925  0.91785  0.79849  1
 P  P2  1  0.60075  0.08215  0.20151  1
 P  P3  1  0.10075  0.41785  0.20151  1
 P  P4  1  0.89925  0.58215  0.79849  1
