CIF file written using JARVIS-Tools package.
data_ScGeRh2
_symmetry_space_group_name_H-M  'Fm-3m'
_cell_length_a       4.41662
_cell_length_b       4.41662
_cell_length_c       4.41662
_cell_angle_alpha    59.9962
_cell_angle_beta     59.9962
_cell_angle_gamma    59.9962

_symmetry_Int_Tables_number  225
_chemical_formula_structural  ScGeRh2
_chemical_formula_sum  ScGeRh2
_cell_volume  60.91377057924187
_cell_formula_units_Z  1
loop_
  _symmetry_equiv_pos_site_id
 _symmetry_equiv_pos_as_xyz
 1  'x, y, z'
loop_
 _atom_site_type_symbol
 _atom_site_label
 _atom_site_symmetry_multiplicity
 _atom_site_fract_x
 _atom_site_fract_y
 _atom_site_fract_z
 _atom_site_fract_occupancy
 Ge  Ge1  1  0.25000  0.25000  0.25000  1
 Rh  Rh1  1  -0.00002  -0.00002  -0.00002  1
 Rh  Rh2  1  0.50002  0.50002  0.50002  1
 Sc  Sc1  1  0.75000  0.75000  0.75000  1
