CIF file written using JARVIS-Tools package.
data_CeAl4Co
_symmetry_space_group_name_H-M  'Pmma'
_cell_length_a       4.04585
_cell_length_b       6.80729
_cell_length_c       7.62664
_cell_angle_alpha    90
_cell_angle_beta     90
_cell_angle_gamma    90

_symmetry_Int_Tables_number  51
_chemical_formula_structural  CeAl4Co
_chemical_formula_sum  Ce2Al8Co2
_cell_volume  210.04784654439513
_cell_formula_units_Z  2
loop_
  _symmetry_equiv_pos_site_id
 _symmetry_equiv_pos_as_xyz
 1  'x, y, z'
loop_
 _atom_site_type_symbol
 _atom_site_label
 _atom_site_symmetry_multiplicity
 _atom_site_fract_x
 _atom_site_fract_y
 _atom_site_fract_z
 _atom_site_fract_occupancy
 Al  Al1  1  0.50000  0.30516  0.56892  1
 Al  Al2  1  0.50000  0.69484  0.43108  1
 Al  Al3  1  0.50000  0.30516  0.93108  1
 Al  Al4  1  0.50000  0.69484  0.06892  1
 Al  Al5  1  0.00000  0.00000  0.00000  1
 Al  Al6  1  0.00000  0.00000  0.50000  1
 Al  Al7  1  0.50000  0.04532  0.25000  1
 Al  Al8  1  0.50000  0.95468  0.75000  1
 Ce  Ce1  1  0.00000  0.61686  0.75000  1
 Ce  Ce2  1  0.00000  0.38314  0.25000  1
 Co  Co1  1  0.00000  0.19466  0.75000  1
 Co  Co2  1  0.00000  0.80534  0.25000  1
