CIF file written using JARVIS-Tools package.
data_KBa4Sb3O
_symmetry_space_group_name_H-M  'I4/mcm'
_cell_length_a       8.87384
_cell_length_b       8.87384
_cell_length_c       10.4338
_cell_angle_alpha    115.166
_cell_angle_beta     115.166
_cell_angle_gamma    90

_symmetry_Int_Tables_number  140
_chemical_formula_structural  KBa4Sb3O
_chemical_formula_sum  K2Ba8Sb6O2
_cell_volume  656.4369439342793
_cell_formula_units_Z  2
loop_
  _symmetry_equiv_pos_site_id
 _symmetry_equiv_pos_as_xyz
 1  'x, y, z'
loop_
 _atom_site_type_symbol
 _atom_site_label
 _atom_site_symmetry_multiplicity
 _atom_site_fract_x
 _atom_site_fract_y
 _atom_site_fract_z
 _atom_site_fract_occupancy
 Ba  Ba1  1  0.49384  0.31379  0.30763  1
 Ba  Ba2  1  0.50616  0.68621  0.69237  1
 Ba  Ba3  1  0.18621  0.00616  0.69237  1
 Ba  Ba4  1  0.00616  0.50616  0.69237  1
 Ba  Ba5  1  0.68621  0.18621  0.69237  1
 Ba  Ba6  1  0.31379  0.81379  0.30763  1
 Ba  Ba7  1  0.99384  0.49384  0.30763  1
 Ba  Ba8  1  0.81379  0.99384  0.30763  1
 K  K1  1  0.00000  0.00000  0.00000  1
 K  K2  1  0.50000  0.50000  0.00000  1
 O  O1  1  0.25000  0.75000  0.50000  1
 O  O2  1  0.75000  0.25000  0.50000  1
 Sb  Sb1  1  0.11708  0.38292  0.00000  1
 Sb  Sb2  1  0.75000  0.75000  0.50000  1
 Sb  Sb3  1  0.38292  0.88292  -0.00000  1
 Sb  Sb4  1  0.61708  0.11708  0.00000  1
 Sb  Sb5  1  0.88292  0.61708  -0.00000  1
 Sb  Sb6  1  0.25000  0.25000  0.50000  1
