CIF file written using JARVIS-Tools package.
data_SnPCl9
_symmetry_space_group_name_H-M  'Cmme'
_cell_length_a       6.19572
_cell_length_b       10.2204
_cell_length_c       10.2204
_cell_angle_alpha    108.663
_cell_angle_beta     90
_cell_angle_gamma    90

_symmetry_Int_Tables_number  67
_chemical_formula_structural  SnPCl9
_chemical_formula_sum  Sn2P2Cl8
_cell_volume  613.151312393454
_cell_formula_units_Z  2
loop_
  _symmetry_equiv_pos_site_id
 _symmetry_equiv_pos_as_xyz
 1  'x, y, z'
loop_
 _atom_site_type_symbol
 _atom_site_label
 _atom_site_symmetry_multiplicity
 _atom_site_fract_x
 _atom_site_fract_y
 _atom_site_fract_z
 _atom_site_fract_occupancy
 Cl  Cl1  1  0.26962  0.56871  0.06871  1
 Cl  Cl2  1  0.73038  0.06871  0.56871  1
 Cl  Cl3  1  0.31520  0.22387  0.08761  1
 Cl  Cl4  1  0.68480  0.77613  0.91239  1
 Cl  Cl5  1  0.68480  0.72387  0.58761  1
 Cl  Cl6  1  0.68480  0.41239  0.27613  1
 Cl  Cl7  1  0.12515  0.89879  0.10121  1
 Cl  Cl8  1  0.27075  0.25000  0.75000  1
 Cl  Cl9  1  0.31520  0.27613  0.41239  1
 Cl  Cl10  1  0.31520  0.91239  0.77613  1
 Cl  Cl11  1  0.87485  0.10121  0.89879  1
 Cl  Cl12  1  0.26962  0.93129  0.43129  1
 Cl  Cl13  1  0.31520  0.58761  0.72387  1
 Cl  Cl14  1  0.72925  0.75000  0.25000  1
 Cl  Cl15  1  0.12515  0.60121  0.39879  1
 Cl  Cl16  1  0.73038  0.43129  0.93129  1
 Cl  Cl17  1  0.87485  0.39879  0.60121  1
 Cl  Cl18  1  0.68480  0.08761  0.22387  1
 P  P1  1  0.50000  0.25000  0.25000  1
 P  P2  1  0.50000  0.75000  0.75000  1
 Sn  Sn1  1  0.11353  0.75000  0.25000  1
 Sn  Sn2  1  0.88647  0.25000  0.75000  1
