CIF file written using JARVIS-Tools package.
data_Te2MoW3Se4S2
_symmetry_space_group_name_H-M  'P3m1'
_cell_length_a       3.34492
_cell_length_b       3.34491
_cell_length_c       35.1494
_cell_angle_alpha    89.9984
_cell_angle_beta     90.0015
_cell_angle_gamma    120

_symmetry_Int_Tables_number  156
_chemical_formula_structural  Te2MoW3Se4S2
_chemical_formula_sum  Te2MoW3Se4S2
_cell_volume  340.57970780009566
_cell_formula_units_Z  1
loop_
  _symmetry_equiv_pos_site_id
 _symmetry_equiv_pos_as_xyz
 1  'x, y, z'
loop_
 _atom_site_type_symbol
 _atom_site_label
 _atom_site_symmetry_multiplicity
 _atom_site_fract_x
 _atom_site_fract_y
 _atom_site_fract_z
 _atom_site_fract_occupancy
 Mo  Mo1  1  0.66674  0.33341  0.27739  1
 S  S1  1  0.66658  0.33340  0.04210  1
 S  S2  1  0.66658  0.33338  0.12888  1
 Se  Se1  1  0.33340  0.66669  0.71153  1
 Se  Se2  1  0.66658  0.33311  0.42849  1
 Se  Se3  1  0.66661  0.33312  0.52386  1
 Se  Se4  1  0.33344  0.66680  0.61623  1
 Te  Te1  1  0.33342  0.66673  0.33147  1
 Te  Te2  1  0.33339  0.66676  0.22326  1
 W  W1  1  0.33326  0.66674  0.08546  1
 W  W2  1  0.33326  0.66644  0.47619  1
 W  W3  1  0.66676  0.33342  0.66390  1
