CIF file written using JARVIS-Tools package.
data_RbBiF4
_symmetry_space_group_name_H-M  'Fd-3m'
_cell_length_a       8.47493
_cell_length_b       8.47489
_cell_length_c       8.47489
_cell_angle_alpha    60.0006
_cell_angle_beta     59.9996
_cell_angle_gamma    59.9996

_symmetry_Int_Tables_number  227
_chemical_formula_structural  RbBiF4
_chemical_formula_sum  Rb4Bi4F6
_cell_volume  430.41661596648714
_cell_formula_units_Z  4
loop_
  _symmetry_equiv_pos_site_id
 _symmetry_equiv_pos_as_xyz
 1  'x, y, z'
loop_
 _atom_site_type_symbol
 _atom_site_label
 _atom_site_symmetry_multiplicity
 _atom_site_fract_x
 _atom_site_fract_y
 _atom_site_fract_z
 _atom_site_fract_occupancy
 Bi  Bi1  1  0.50000  0.50000  0.00000  1
 Bi  Bi2  1  0.00000  0.50000  0.50000  1
 Bi  Bi3  1  0.50000  0.50000  0.50000  1
 Bi  Bi4  1  0.50000  0.00000  0.50000  1
 F  F1  1  0.87500  0.87500  0.87500  1
 F  F2  1  0.83927  0.41073  0.83927  1
 F  F3  1  0.83927  0.41073  0.41073  1
 F  F4  1  0.58927  0.16073  0.58927  1
 F  F5  1  0.83927  0.83927  0.41073  1
 F  F6  1  0.41073  0.83927  0.83927  1
 F  F7  1  0.16073  0.58927  0.16073  1
 F  F8  1  0.58927  0.58927  0.16073  1
 F  F9  1  0.12500  0.12500  0.12500  1
 F  F10  1  0.37500  0.37500  0.37500  1
 F  F11  1  0.16072  0.16073  0.58927  1
 F  F12  1  0.41073  0.41073  0.83927  1
 F  F13  1  0.41073  0.83927  0.41073  1
 F  F14  1  0.62500  0.62500  0.62500  1
 F  F15  1  0.16073  0.58927  0.58927  1
 F  F16  1  0.58927  0.16073  0.16073  1
 Rb  Rb1  1  0.00000  0.00001  0.49999  1
 Rb  Rb2  1  0.49999  0.00001  0.00000  1
 Rb  Rb3  1  0.00001  0.00000  0.00000  1
 Rb  Rb4  1  0.00001  0.49999  0.00000  1
