CIF file written using JARVIS-Tools package.
data_DySeClO3
_symmetry_space_group_name_H-M  'Pnma'
_cell_length_a       6.96515
_cell_length_b       7.12438
_cell_length_c       8.87115
_cell_angle_alpha    90
_cell_angle_beta     90
_cell_angle_gamma    90

_symmetry_Int_Tables_number  62
_chemical_formula_structural  DySeClO3
_chemical_formula_sum  Dy4Se4Cl4O2
_cell_volume  440.20757818258244
_cell_formula_units_Z  4
loop_
  _symmetry_equiv_pos_site_id
 _symmetry_equiv_pos_as_xyz
 1  'x, y, z'
loop_
 _atom_site_type_symbol
 _atom_site_label
 _atom_site_symmetry_multiplicity
 _atom_site_fract_x
 _atom_site_fract_y
 _atom_site_fract_z
 _atom_site_fract_occupancy
 Cl  Cl1  1  0.75000  0.05017  0.17968  1
 Cl  Cl2  1  0.25000  0.44983  0.67968  1
 Cl  Cl3  1  0.75000  0.55017  0.32032  1
 Cl  Cl4  1  0.25000  0.94983  0.82032  1
 Dy  Dy1  1  0.75000  0.39564  0.03932  1
 Dy  Dy2  1  0.25000  0.10436  0.53932  1
 Dy  Dy3  1  0.25000  0.60436  0.96068  1
 Dy  Dy4  1  0.75000  0.89564  0.46068  1
 O  O1  1  0.57226  0.64773  0.93505  1
 O  O2  1  0.42774  0.35227  0.06495  1
 O  O3  1  0.25000  0.25056  0.31921  1
 O  O4  1  0.92774  0.14773  0.56495  1
 O  O5  1  0.25000  0.75056  0.18079  1
 O  O6  1  0.07226  0.85227  0.43505  1
 O  O7  1  0.07226  0.35227  0.06495  1
 O  O8  1  0.42774  0.85227  0.43505  1
 O  O9  1  0.92774  0.64773  0.93505  1
 O  O10  1  0.75000  0.24944  0.81921  1
 O  O11  1  0.57226  0.14773  0.56495  1
 O  O12  1  0.75000  0.74944  0.68079  1
 Se  Se1  1  0.75000  0.30033  0.63218  1
 Se  Se2  1  0.25000  0.19967  0.13218  1
 Se  Se3  1  0.75000  0.80033  0.86782  1
 Se  Se4  1  0.25000  0.69967  0.36782  1
