CIF file written using JARVIS-Tools package.
data_Te4MoW3Se2S2
_symmetry_space_group_name_H-M  'P3m1'
_cell_length_a       3.40758
_cell_length_b       3.40758
_cell_length_c       39.8986
_cell_angle_alpha    89.9967
_cell_angle_beta     90
_cell_angle_gamma    120

_symmetry_Int_Tables_number  156
_chemical_formula_structural  Te4MoW3Se2S2
_chemical_formula_sum  Te4MoW3Se2S2
_cell_volume  401.2176260946355
_cell_formula_units_Z  1
loop_
  _symmetry_equiv_pos_site_id
 _symmetry_equiv_pos_as_xyz
 1  'x, y, z'
loop_
 _atom_site_type_symbol
 _atom_site_label
 _atom_site_symmetry_multiplicity
 _atom_site_fract_x
 _atom_site_fract_y
 _atom_site_fract_z
 _atom_site_fract_occupancy
 Mo  Mo1  1  0.33332  0.66663  0.09366  1
 S  S1  1  0.33337  0.66674  0.69518  1
 S  S2  1  0.33338  0.66675  0.61980  1
 Se  Se1  1  0.66666  0.33333  0.05261  1
 Se  Se2  1  0.66663  0.33326  0.13495  1
 Te  Te1  1  0.33331  0.66661  0.32803  1
 Te  Te2  1  0.66666  0.33332  0.42364  1
 Te  Te3  1  0.66664  0.33329  0.51806  1
 Te  Te4  1  0.33335  0.66669  0.23364  1
 W  W1  1  0.33332  0.66664  0.47083  1
 W  W2  1  0.66666  0.33333  0.28079  1
 W  W3  1  0.66671  0.33342  0.65758  1
