CIF file written using JARVIS-Tools package.
data_Sm2Fe2Si2C
_symmetry_space_group_name_H-M  'C2/m'
_cell_length_a       3.97457
_cell_length_b       5.72909
_cell_length_c       5.78907
_cell_angle_alpha    73.5219
_cell_angle_beta     69.9231
_cell_angle_gamma    69.7037

_symmetry_Int_Tables_number  12
_chemical_formula_structural  Sm2Fe2Si2C
_chemical_formula_sum  Sm2Fe2Si2C
_cell_volume  114.0789733512888
_cell_formula_units_Z  1
loop_
  _symmetry_equiv_pos_site_id
 _symmetry_equiv_pos_as_xyz
 1  'x, y, z'
loop_
 _atom_site_type_symbol
 _atom_site_label
 _atom_site_symmetry_multiplicity
 _atom_site_fract_x
 _atom_site_fract_y
 _atom_site_fract_z
 _atom_site_fract_occupancy
 C  C1  1  0.00000  0.00000  0.00000  1
 Fe  Fe1  1  0.80266  0.30453  0.09015  1
 Fe  Fe2  1  0.19734  0.69547  0.90985  1
 Si  Si1  1  0.82903  0.61222  0.72973  1
 Si  Si2  1  0.17097  0.38778  0.27027  1
 Sm  Sm1  1  0.44075  0.82176  0.29673  1
 Sm  Sm2  1  0.55925  0.17824  0.70327  1
