CIF file written using JARVIS-Tools package.
data_K2SnAu2S4
_symmetry_space_group_name_H-M  'P-1'
_cell_length_a       7.2661
_cell_length_b       8.2173
_cell_length_c       9.21972
_cell_angle_alpha    71.978
_cell_angle_beta     82.823
_cell_angle_gamma    68.992

_symmetry_Int_Tables_number  2
_chemical_formula_structural  K2SnAu2S4
_chemical_formula_sum  K4Sn2Au4S8
_cell_volume  488.6246168431138
_cell_formula_units_Z  2
loop_
  _symmetry_equiv_pos_site_id
 _symmetry_equiv_pos_as_xyz
 1  'x, y, z'
loop_
 _atom_site_type_symbol
 _atom_site_label
 _atom_site_symmetry_multiplicity
 _atom_site_fract_x
 _atom_site_fract_y
 _atom_site_fract_z
 _atom_site_fract_occupancy
 Au  Au1  1  0.52675  0.72384  0.82675  1
 Au  Au2  1  0.25773  0.66932  0.57942  1
 Au  Au3  1  0.47325  0.27616  0.17325  1
 Au  Au4  1  0.74227  0.33068  0.42058  1
 K  K1  1  0.77708  0.81939  0.42425  1
 K  K2  1  0.97290  0.74125  0.91963  1
 K  K3  1  0.02710  0.25875  0.08037  1
 K  K4  1  0.22292  0.18061  0.57575  1
 S  S1  1  0.71663  0.07131  0.06592  1
 S  S2  1  0.23242  0.91687  0.36642  1
 S  S3  1  0.72857  0.58767  0.22027  1
 S  S4  1  0.76758  0.08313  0.63358  1
 S  S5  1  0.28337  0.92869  0.93408  1
 S  S6  1  0.21317  0.49466  0.25401  1
 S  S7  1  0.27143  0.41233  0.77973  1
 S  S8  1  0.78683  0.50534  0.74599  1
 Sn  Sn1  1  0.37291  0.72584  0.19241  1
 Sn  Sn2  1  0.62709  0.27416  0.80759  1
