CIF file written using JARVIS-Tools package.
data_Ag2HgSI2
_symmetry_space_group_name_H-M  'Cmc2_1'
_cell_length_a       7.23445
_cell_length_b       7.56605
_cell_length_c       7.88003
_cell_angle_alpha    118.691
_cell_angle_beta     90
_cell_angle_gamma    90

_symmetry_Int_Tables_number  36
_chemical_formula_structural  Ag2HgSI2
_chemical_formula_sum  Ag4Hg2S2I4
_cell_volume  378.36806089028795
_cell_formula_units_Z  2
loop_
  _symmetry_equiv_pos_site_id
 _symmetry_equiv_pos_as_xyz
 1  'x, y, z'
loop_
 _atom_site_type_symbol
 _atom_site_label
 _atom_site_symmetry_multiplicity
 _atom_site_fract_x
 _atom_site_fract_y
 _atom_site_fract_z
 _atom_site_fract_occupancy
 Ag  Ag1  1  0.77184  0.17862  0.67290  1
 Ag  Ag2  1  0.77184  0.50572  0.32710  1
 Ag  Ag3  1  0.27184  0.49428  0.67290  1
 Ag  Ag4  1  0.27184  0.82138  0.32710  1
 Hg  Hg1  1  0.40643  0.02577  0.00000  1
 Hg  Hg2  1  0.90643  0.97423  -0.00000  1
 I  I1  1  0.17251  0.13894  0.69016  1
 I  I2  1  0.17251  0.44878  0.30984  1
 I  I3  1  0.67251  0.86106  0.30984  1
 I  I4  1  0.67251  0.55122  0.69016  1
 S  S1  1  0.67906  0.20857  0.00000  1
 S  S2  1  0.17906  0.79143  -0.00000  1
