CIF file written using JARVIS-Tools package.
data_PrBPt4
_symmetry_space_group_name_H-M  'P6/mmm'
_cell_length_a       5.51303
_cell_length_b       5.51303
_cell_length_c       7.71573
_cell_angle_alpha    90
_cell_angle_beta     90
_cell_angle_gamma    120

_symmetry_Int_Tables_number  191
_chemical_formula_structural  PrBPt4
_chemical_formula_sum  Pr2B2Pt8
_cell_volume  203.089940467193
_cell_formula_units_Z  2
loop_
  _symmetry_equiv_pos_site_id
 _symmetry_equiv_pos_as_xyz
 1  'x, y, z'
loop_
 _atom_site_type_symbol
 _atom_site_label
 _atom_site_symmetry_multiplicity
 _atom_site_fract_x
 _atom_site_fract_y
 _atom_site_fract_z
 _atom_site_fract_occupancy
 B  B1  1  0.66667  0.33333  0.50000  1
 B  B2  1  0.33333  0.66667  0.50000  1
 Pr  Pr1  1  0.00000  0.00000  0.50000  1
 Pr  Pr2  1  0.00000  0.00000  0.00000  1
 Pt  Pt1  1  0.66667  0.33333  0.00000  1
 Pt  Pt2  1  0.50000  0.00000  0.69998  1
 Pt  Pt3  1  0.50000  0.50000  0.69998  1
 Pt  Pt4  1  0.50000  0.50000  0.30002  1
 Pt  Pt5  1  0.50000  0.00000  0.30002  1
 Pt  Pt6  1  0.00000  0.50000  0.30002  1
 Pt  Pt7  1  0.33333  0.66667  0.00000  1
 Pt  Pt8  1  0.00000  0.50000  0.69998  1
