CIF file written using JARVIS-Tools package.
data_CdBiClO2
_symmetry_space_group_name_H-M  'P2_1/m'
_cell_length_a       6.13902
_cell_length_b       4.22043
_cell_length_c       7.62575
_cell_angle_alpha    90
_cell_angle_beta     100.327
_cell_angle_gamma    90

_symmetry_Int_Tables_number  11
_chemical_formula_structural  CdBiClO2
_chemical_formula_sum  Cd2Bi2Cl2O4
_cell_volume  194.3773663923427
_cell_formula_units_Z  2
loop_
  _symmetry_equiv_pos_site_id
 _symmetry_equiv_pos_as_xyz
 1  'x, y, z'
loop_
 _atom_site_type_symbol
 _atom_site_label
 _atom_site_symmetry_multiplicity
 _atom_site_fract_x
 _atom_site_fract_y
 _atom_site_fract_z
 _atom_site_fract_occupancy
 Bi  Bi1  1  0.69375  0.25000  0.40422  1
 Bi  Bi2  1  0.30625  0.75000  0.59578  1
 Cd  Cd1  1  0.34344  0.75000  0.09814  1
 Cd  Cd2  1  0.65656  0.25000  0.90186  1
 Cl  Cl1  1  0.03438  0.25000  0.80630  1
 Cl  Cl2  1  0.96562  0.75000  0.19370  1
 O  O1  1  0.48726  0.25000  0.14460  1
 O  O2  1  0.51274  0.75000  0.85540  1
 O  O3  1  0.54844  0.75000  0.40852  1
 O  O4  1  0.45156  0.25000  0.59148  1
