CIF file written using JARVIS-Tools package.
data_Sr2MnGaO5
_symmetry_space_group_name_H-M  'Ima2'
_cell_length_a       5.43616
_cell_length_b       5.61044
_cell_length_c       8.92002
_cell_angle_alpha    108.33
_cell_angle_beta     107.741
_cell_angle_gamma    90

_symmetry_Int_Tables_number  46
_chemical_formula_structural  Sr2MnGaO5
_chemical_formula_sum  Sr4Mn2Ga2O0
_cell_volume  244.58364680688314
_cell_formula_units_Z  2
loop_
  _symmetry_equiv_pos_site_id
 _symmetry_equiv_pos_as_xyz
 1  'x, y, z'
loop_
 _atom_site_type_symbol
 _atom_site_label
 _atom_site_symmetry_multiplicity
 _atom_site_fract_x
 _atom_site_fract_y
 _atom_site_fract_z
 _atom_site_fract_occupancy
 Ga  Ga1  1  0.78408  0.81904  0.50000  1
 Ga  Ga2  1  0.28408  0.18096  0.50000  1
 Mn  Mn1  1  0.49429  0.50000  0.00000  1
 Mn  Mn2  1  0.99429  0.00000  0.00000  1
 O  O1  1  0.75191  0.75393  0.01253  1
 O  O2  1  0.13070  0.87614  0.50000  1
 O  O3  1  0.33240  0.40393  0.71394  1
 O  O4  1  0.61846  0.59607  0.28606  1
 O  O5  1  0.83240  0.81001  0.71394  1
 O  O6  1  0.11846  0.18999  0.28606  1
 O  O7  1  0.73938  0.24607  0.98747  1
 O  O8  1  0.63070  0.12386  0.50000  1
 O  O9  1  0.23938  0.24140  0.98747  1
 O  O10  1  0.25191  0.75860  0.01253  1
 Sr  Sr1  1  0.88754  0.40486  0.77929  1
 Sr  Sr2  1  0.10824  0.59514  0.22071  1
 Sr  Sr3  1  0.60824  0.12557  0.22071  1
 Sr  Sr4  1  0.38754  0.87443  0.77929  1
