CIF file written using JARVIS-Tools package.
data_Nd3CuSiS7
_symmetry_space_group_name_H-M  'P6_3'
_cell_length_a       10.1849
_cell_length_b       10.1849
_cell_length_c       5.77782
_cell_angle_alpha    90
_cell_angle_beta     90
_cell_angle_gamma    120

_symmetry_Int_Tables_number  173
_chemical_formula_structural  Nd3CuSiS7
_chemical_formula_sum  Nd6Cu2Si2S4
_cell_volume  519.0440522732118
_cell_formula_units_Z  2
loop_
  _symmetry_equiv_pos_site_id
 _symmetry_equiv_pos_as_xyz
 1  'x, y, z'
loop_
 _atom_site_type_symbol
 _atom_site_label
 _atom_site_symmetry_multiplicity
 _atom_site_fract_x
 _atom_site_fract_y
 _atom_site_fract_z
 _atom_site_fract_occupancy
 Cu  Cu1  1  0.00000  0.00000  0.22355  1
 Cu  Cu2  1  0.00000  0.00000  0.72355  1
 Nd  Nd1  1  0.23208  0.87469  0.74778  1
 Nd  Nd2  1  0.35739  0.23208  0.24778  1
 Nd  Nd3  1  0.12531  0.35739  0.74778  1
 Nd  Nd4  1  0.76792  0.12531  0.24778  1
 Nd  Nd5  1  0.87469  0.64261  0.24778  1
 Nd  Nd6  1  0.64261  0.76792  0.74778  1
 S  S1  1  0.52435  0.11115  0.97603  1
 S  S2  1  0.08840  0.25352  0.23367  1
 S  S3  1  0.11115  0.58680  0.47603  1
 S  S4  1  0.47565  0.88885  0.47603  1
 S  S5  1  0.16512  0.91160  0.23367  1
 S  S6  1  0.83488  0.08840  0.73367  1
 S  S7  1  0.91160  0.74648  0.73367  1
 S  S8  1  0.41320  0.52435  0.47603  1
 S  S9  1  0.58680  0.47565  0.97603  1
 S  S10  1  0.74648  0.83488  0.23367  1
 S  S11  1  0.66667  0.33333  0.46647  1
 S  S12  1  0.88885  0.41320  0.97603  1
 S  S13  1  0.33333  0.66667  0.96647  1
 S  S14  1  0.25352  0.16512  0.73367  1
 Si  Si1  1  0.33333  0.66667  0.33226  1
 Si  Si2  1  0.66667  0.33333  0.83226  1
