CIF file written using JARVIS-Tools package.
data_KLiBeF4
_symmetry_space_group_name_H-M  'P6_3'
_cell_length_a       5.0542
_cell_length_b       5.0542
_cell_length_c       8.65079
_cell_angle_alpha    90
_cell_angle_beta     90
_cell_angle_gamma    120

_symmetry_Int_Tables_number  173
_chemical_formula_structural  KLiBeF4
_chemical_formula_sum  K2Li2Be2F8
_cell_volume  191.37817014779657
_cell_formula_units_Z  2
loop_
  _symmetry_equiv_pos_site_id
 _symmetry_equiv_pos_as_xyz
 1  'x, y, z'
loop_
 _atom_site_type_symbol
 _atom_site_label
 _atom_site_symmetry_multiplicity
 _atom_site_fract_x
 _atom_site_fract_y
 _atom_site_fract_z
 _atom_site_fract_occupancy
 Be  Be1  1  0.33333  0.66667  0.80411  1
 Be  Be2  1  0.66667  0.33333  0.30411  1
 F  F1  1  0.33513  0.37282  0.74852  1
 F  F2  1  0.96231  0.33513  0.24852  1
 F  F3  1  0.33333  0.66667  0.98556  1
 F  F4  1  0.66667  0.33333  0.48556  1
 F  F5  1  0.03769  0.66487  0.74852  1
 F  F6  1  0.66487  0.62718  0.24852  1
 F  F7  1  0.37282  0.03769  0.24852  1
 F  F8  1  0.62718  0.96231  0.74852  1
 K  K1  1  0.00000  0.00000  0.50218  1
 K  K2  1  0.00000  0.00000  0.00218  1
 Li  Li1  1  0.66667  0.33333  0.69657  1
 Li  Li2  1  0.33333  0.66667  0.19657  1
