CIF file written using JARVIS-Tools package.
data_Tb2C3
_symmetry_space_group_name_H-M  'I-43d'
_cell_length_a       7.16533
_cell_length_b       7.16533
_cell_length_c       7.16533
_cell_angle_alpha    109.471
_cell_angle_beta     109.471
_cell_angle_gamma    109.471

_symmetry_Int_Tables_number  220
_chemical_formula_structural  Tb2C3
_chemical_formula_sum  Tb8C2
_cell_volume  283.1955251900772
_cell_formula_units_Z  4
loop_
  _symmetry_equiv_pos_site_id
 _symmetry_equiv_pos_as_xyz
 1  'x, y, z'
loop_
 _atom_site_type_symbol
 _atom_site_label
 _atom_site_symmetry_multiplicity
 _atom_site_fract_x
 _atom_site_fract_y
 _atom_site_fract_z
 _atom_site_fract_occupancy
 C  C1  1  0.04453  0.75000  0.79453  1
 C  C2  1  0.75000  0.95547  0.20547  1
 C  C3  1  0.29453  0.25000  0.54453  1
 C  C4  1  0.54453  0.29453  0.25000  1
 C  C5  1  0.20547  0.75000  0.95547  1
 C  C6  1  0.95547  0.20547  0.75000  1
 C  C7  1  0.25000  0.70547  0.45547  1
 C  C8  1  0.70547  0.45547  0.25000  1
 C  C9  1  0.75000  0.79453  0.04453  1
 C  C10  1  0.45547  0.25000  0.70547  1
 C  C11  1  0.79453  0.04453  0.75000  1
 C  C12  1  0.25000  0.54453  0.29453  1
 Tb  Tb1  1  0.89807  0.50000  0.00000  1
 Tb  Tb2  1  0.60193  0.60193  0.60193  1
 Tb  Tb3  1  0.39807  0.50000  0.00000  1
 Tb  Tb4  1  0.50000  0.00000  0.39807  1
 Tb  Tb5  1  -0.00000  0.39807  0.50000  1
 Tb  Tb6  1  0.50000  0.00000  0.89807  1
 Tb  Tb7  1  -0.00000  0.89807  0.50000  1
 Tb  Tb8  1  0.10193  0.10193  0.10193  1
