CIF file written using JARVIS-Tools package.
data_LaNiSb
_symmetry_space_group_name_H-M  'F-43m'
_cell_length_a       4.88371
_cell_length_b       4.88369
_cell_length_c       4.88368
_cell_angle_alpha    60.0003
_cell_angle_beta     60.0002
_cell_angle_gamma    59.9998

_symmetry_Int_Tables_number  216
_chemical_formula_structural  LaNiSb
_chemical_formula_sum  LaNiSb
_cell_volume  82.3630031959402
_cell_formula_units_Z  1
loop_
  _symmetry_equiv_pos_site_id
 _symmetry_equiv_pos_as_xyz
 1  'x, y, z'
loop_
 _atom_site_type_symbol
 _atom_site_label
 _atom_site_symmetry_multiplicity
 _atom_site_fract_x
 _atom_site_fract_y
 _atom_site_fract_z
 _atom_site_fract_occupancy
 La  La1  1  -0.00000  0.00000  0.00000  1
 Ni  Ni1  1  0.50000  0.50000  0.50000  1
 Sb  Sb1  1  0.25000  0.25000  0.25000  1
