CIF file written using JARVIS-Tools package.
data_Li5Si2BiO8
_symmetry_space_group_name_H-M  'C2'
_cell_length_a       5.38713
_cell_length_b       5.38713
_cell_length_c       6.40578
_cell_angle_alpha    89.1424
_cell_angle_beta     90.8576
_cell_angle_gamma    87.4751

_symmetry_Int_Tables_number  5
_chemical_formula_structural  Li5Si2BiO8
_chemical_formula_sum  Li5Si2BiO8
_cell_volume  185.67982761345553
_cell_formula_units_Z  1
loop_
  _symmetry_equiv_pos_site_id
 _symmetry_equiv_pos_as_xyz
 1  'x, y, z'
loop_
 _atom_site_type_symbol
 _atom_site_label
 _atom_site_symmetry_multiplicity
 _atom_site_fract_x
 _atom_site_fract_y
 _atom_site_fract_z
 _atom_site_fract_occupancy
 Bi  Bi1  1  0.68053  0.68053  0.25000  1
 Li  Li1  1  0.18628  0.83055  0.52985  1
 Li  Li2  1  0.67358  0.67358  0.75000  1
 Li  Li3  1  0.32493  0.32493  0.75000  1
 Li  Li4  1  0.28864  0.28864  0.25000  1
 Li  Li5  1  0.83055  0.18628  0.97015  1
 O  O1  1  0.32085  0.69973  0.79621  1
 O  O2  1  0.25353  0.69936  0.22024  1
 O  O3  1  0.13821  0.20918  0.50376  1
 O  O4  1  0.81054  0.86831  0.53437  1
 O  O5  1  0.20918  0.13821  0.99624  1
 O  O6  1  0.86831  0.81054  0.96563  1
 O  O7  1  0.69973  0.32085  0.70379  1
 O  O8  1  0.69936  0.25353  0.27976  1
 Si  Si1  1  0.17700  0.83878  0.98604  1
 Si  Si2  1  0.83878  0.17700  0.51396  1
