CIF file written using JARVIS-Tools package.
data_K2NaTlO3
_symmetry_space_group_name_H-M  'P2_1/c'
_cell_length_a       6.3281
_cell_length_b       6.98389
_cell_length_c       12.0957
_cell_angle_alpha    90
_cell_angle_beta     96.0718
_cell_angle_gamma    90

_symmetry_Int_Tables_number  14
_chemical_formula_structural  K2NaTlO3
_chemical_formula_sum  K8Na4Tl4O2
_cell_volume  531.5659564287204
_cell_formula_units_Z  4
loop_
  _symmetry_equiv_pos_site_id
 _symmetry_equiv_pos_as_xyz
 1  'x, y, z'
loop_
 _atom_site_type_symbol
 _atom_site_label
 _atom_site_symmetry_multiplicity
 _atom_site_fract_x
 _atom_site_fract_y
 _atom_site_fract_z
 _atom_site_fract_occupancy
 K  K1  1  0.57384  0.16587  0.14112  1
 K  K2  1  0.92919  0.64320  0.86005  1
 K  K3  1  0.07081  0.14320  0.63995  1
 K  K4  1  0.57384  0.33413  0.64112  1
 K  K5  1  0.42616  0.66587  0.35888  1
 K  K6  1  0.07081  0.35680  0.13995  1
 K  K7  1  0.42616  0.83413  0.85888  1
 K  K8  1  0.92919  0.85680  0.36005  1
 Na  Na1  1  0.36163  0.37484  0.91240  1
 Na  Na2  1  0.63837  0.62516  0.08760  1
 Na  Na3  1  0.63837  0.87484  0.58760  1
 Na  Na4  1  0.36163  0.12516  0.41240  1
 O  O1  1  0.75737  0.99206  0.75392  1
 O  O2  1  0.75737  0.50794  0.25392  1
 O  O3  1  0.24263  0.00794  0.24608  1
 O  O4  1  0.20579  0.40011  0.46413  1
 O  O5  1  0.20579  0.09989  0.96413  1
 O  O6  1  0.79421  0.90011  0.03587  1
 O  O7  1  0.27725  0.61573  0.03160  1
 O  O8  1  0.79421  0.59989  0.53587  1
 O  O9  1  0.72275  0.11573  0.46840  1
 O  O10  1  0.24263  0.49206  0.74608  1
 O  O11  1  0.27725  0.88427  0.53160  1
 O  O12  1  0.72275  0.38427  0.96840  1
 Tl  Tl1  1  0.14293  0.63144  0.59365  1
 Tl  Tl2  1  0.14293  0.86856  0.09365  1
 Tl  Tl3  1  0.85707  0.36856  0.40635  1
 Tl  Tl4  1  0.85707  0.13144  0.90635  1
