CIF file written using JARVIS-Tools package.
data_PrTa3O9
_symmetry_space_group_name_H-M  'P2_1/m'
_cell_length_a       5.46034
_cell_length_b       7.60964
_cell_length_c       8.26402
_cell_angle_alpha    90
_cell_angle_beta     92.3794
_cell_angle_gamma    90

_symmetry_Int_Tables_number  11
_chemical_formula_structural  PrTa3O9
_chemical_formula_sum  Pr2Ta6O8
_cell_volume  343.0841105024422
_cell_formula_units_Z  2
loop_
  _symmetry_equiv_pos_site_id
 _symmetry_equiv_pos_as_xyz
 1  'x, y, z'
loop_
 _atom_site_type_symbol
 _atom_site_label
 _atom_site_symmetry_multiplicity
 _atom_site_fract_x
 _atom_site_fract_y
 _atom_site_fract_z
 _atom_site_fract_occupancy
 O  O1  1  0.84658  0.55543  0.21344  1
 O  O2  1  0.68201  0.95003  0.87928  1
 O  O3  1  0.31799  0.04997  0.12072  1
 O  O4  1  0.15342  0.05543  0.78656  1
 O  O5  1  0.35246  0.75000  0.66172  1
 O  O6  1  0.64754  0.25000  0.33828  1
 O  O7  1  0.15342  0.44457  0.78656  1
 O  O8  1  0.68201  0.54997  0.87928  1
 O  O9  1  0.26742  0.03797  0.46663  1
 O  O10  1  0.08708  0.75000  0.98435  1
 O  O11  1  0.84658  0.94457  0.21344  1
 O  O12  1  0.44206  0.75000  0.31027  1
 O  O13  1  0.91292  0.25000  0.01565  1
 O  O14  1  0.55794  0.25000  0.68973  1
 O  O15  1  0.31799  0.45003  0.12072  1
 O  O16  1  0.73258  0.96203  0.53337  1
 O  O17  1  0.26742  0.46203  0.46663  1
 O  O18  1  0.73258  0.53797  0.53337  1
 Pr  Pr1  1  0.03318  0.75000  0.43489  1
 Pr  Pr2  1  0.96682  0.25000  0.56511  1
 Ta  Ta1  1  0.00000  0.50000  0.00000  1
 Ta  Ta2  1  0.47379  0.50721  0.69975  1
 Ta  Ta3  1  0.00000  0.00000  0.00000  1
 Ta  Ta4  1  0.47379  0.99279  0.69975  1
 Ta  Ta5  1  0.52621  0.00721  0.30025  1
 Ta  Ta6  1  0.52621  0.49279  0.30025  1
