CIF file written using JARVIS-Tools package.
data_Bi
_symmetry_space_group_name_H-M  'I4/mcm'
_cell_length_a       4.23416
_cell_length_b       6.50972
_cell_length_c       6.50972
_cell_angle_alpha    83.9325
_cell_angle_beta     71.0275
_cell_angle_gamma    71.0274

_symmetry_Int_Tables_number  140
_chemical_formula_structural  Bi
_chemical_formula_sum  Bi4
_cell_volume  160.46267164418478
_cell_formula_units_Z  4
loop_
  _symmetry_equiv_pos_site_id
 _symmetry_equiv_pos_as_xyz
 1  'x, y, z'
loop_
 _atom_site_type_symbol
 _atom_site_label
 _atom_site_symmetry_multiplicity
 _atom_site_fract_x
 _atom_site_fract_y
 _atom_site_fract_z
 _atom_site_fract_occupancy
 Bi  Bi1  1  0.85156  0.50000  0.79666  1
 Bi  Bi2  1  0.14844  0.50000  0.20334  1
 Bi  Bi3  1  0.64844  0.20334  0.50000  1
 Bi  Bi4  1  0.35156  0.79666  0.50000  1
