CIF file written using JARVIS-Tools package.
data_YSn6Ru4
_symmetry_space_group_name_H-M  'I-42m'
_cell_length_a       6.91815
_cell_length_b       6.91815
_cell_length_c       6.95215
_cell_angle_alpha    119.838
_cell_angle_beta     119.838
_cell_angle_gamma    90

_symmetry_Int_Tables_number  121
_chemical_formula_structural  YSn6Ru4
_chemical_formula_sum  YSn6Ru4
_cell_volume  236.42458382890163
_cell_formula_units_Z  1
loop_
  _symmetry_equiv_pos_site_id
 _symmetry_equiv_pos_as_xyz
 1  'x, y, z'
loop_
 _atom_site_type_symbol
 _atom_site_label
 _atom_site_symmetry_multiplicity
 _atom_site_fract_x
 _atom_site_fract_y
 _atom_site_fract_z
 _atom_site_fract_occupancy
 Ru  Ru1  1  0.59925  0.24837  0.84762  1
 Ru  Ru2  1  0.40075  0.40075  0.15238  1
 Ru  Ru3  1  0.24837  0.59925  0.84762  1
 Ru  Ru4  1  0.75163  0.75163  0.15238  1
 Sn  Sn1  1  0.53431  0.88034  0.41464  1
 Sn  Sn2  1  0.88034  0.53431  0.41464  1
 Sn  Sn3  1  0.11966  0.11966  0.58536  1
 Sn  Sn4  1  0.50000  0.00000  -0.00000  1
 Sn  Sn5  1  0.46569  0.46569  0.58536  1
 Sn  Sn6  1  0.00000  0.50000  -0.00000  1
 Y  Y1  1  0.00000  0.00000  0.00000  1
