CIF file written using JARVIS-Tools package.
data_Nd3NbO7
_symmetry_space_group_name_H-M  'Pnma'
_cell_length_a       7.66346
_cell_length_b       7.69168
_cell_length_c       11.0082
_cell_angle_alpha    90
_cell_angle_beta     90
_cell_angle_gamma    90

_symmetry_Int_Tables_number  62
_chemical_formula_structural  Nd3NbO7
_chemical_formula_sum  Nd2Nb4O28
_cell_volume  648.8753574422161
_cell_formula_units_Z  4
loop_
  _symmetry_equiv_pos_site_id
 _symmetry_equiv_pos_as_xyz
 1  'x, y, z'
loop_
 _atom_site_type_symbol
 _atom_site_label
 _atom_site_symmetry_multiplicity
 _atom_site_fract_x
 _atom_site_fract_y
 _atom_site_fract_z
 _atom_site_fract_occupancy
 Nb  Nb1  1  0.49593  0.75269  0.25000  1
 Nb  Nb2  1  0.99593  0.74731  0.25000  1
 Nb  Nb3  1  0.00407  0.25269  0.75000  1
 Nb  Nb4  1  0.50407  0.24731  0.75000  1
 Nd  Nd1  1  0.24925  0.95341  0.47532  1
 Nd  Nd2  1  0.74925  0.54659  0.02468  1
 Nd  Nd3  1  0.24925  0.95341  0.02468  1
 Nd  Nd4  1  0.01241  0.79043  0.75000  1
 Nd  Nd5  1  0.48759  0.29043  0.25000  1
 Nd  Nd6  1  0.51241  0.70957  0.75000  1
 Nd  Nd7  1  0.75075  0.04659  0.52468  1
 Nd  Nd8  1  0.75075  0.04659  0.97532  1
 Nd  Nd9  1  0.98759  0.20957  0.25000  1
 Nd  Nd10  1  0.25075  0.45341  0.52468  1
 Nd  Nd11  1  0.74925  0.54659  0.47532  1
 Nd  Nd12  1  0.25075  0.45341  0.97532  1
 O  O1  1  0.74349  0.27287  0.11774  1
 O  O2  1  0.45526  0.09151  0.61361  1
 O  O3  1  0.24349  0.22713  0.38226  1
 O  O4  1  0.46199  0.55047  0.37336  1
 O  O5  1  0.25270  0.83350  0.25000  1
 O  O6  1  0.75270  0.66650  0.25000  1
 O  O7  1  0.96199  0.94953  0.37336  1
 O  O8  1  0.53801  0.44953  0.62664  1
 O  O9  1  0.96199  0.94953  0.12664  1
 O  O10  1  0.03801  0.05047  0.62664  1
 O  O11  1  0.45526  0.09151  0.88639  1
 O  O12  1  0.75651  0.77287  0.61774  1
 O  O13  1  0.25651  0.72713  0.61774  1
 O  O14  1  0.46199  0.55047  0.12664  1
 O  O15  1  0.54474  0.90849  0.38639  1
 O  O16  1  0.04474  0.59151  0.11361  1
 O  O17  1  0.95526  0.40849  0.61361  1
 O  O18  1  0.24349  0.22713  0.11774  1
 O  O19  1  0.54474  0.90849  0.11361  1
 O  O20  1  0.74730  0.16650  0.75000  1
 O  O21  1  0.74349  0.27287  0.38226  1
 O  O22  1  0.75651  0.77287  0.88226  1
 O  O23  1  0.25651  0.72713  0.88226  1
 O  O24  1  0.53801  0.44953  0.87336  1
 O  O25  1  0.04474  0.59151  0.38639  1
 O  O26  1  0.24730  0.33350  0.75000  1
 O  O27  1  0.95526  0.40849  0.88639  1
 O  O28  1  0.03801  0.05047  0.87336  1
