CIF file written using JARVIS-Tools package.
data_MnF2
_symmetry_space_group_name_H-M  'P4/nbm'
_cell_length_a       5.23217
_cell_length_b       5.23203
_cell_length_c       5.20053
_cell_angle_alpha    89.9921
_cell_angle_beta     89.9937
_cell_angle_gamma    90.0002

_symmetry_Int_Tables_number  125
_chemical_formula_structural  MnF2
_chemical_formula_sum  Mn4F8
_cell_volume  142.36374243727778
_cell_formula_units_Z  4
loop_
  _symmetry_equiv_pos_site_id
 _symmetry_equiv_pos_as_xyz
 1  'x, y, z'
loop_
 _atom_site_type_symbol
 _atom_site_label
 _atom_site_symmetry_multiplicity
 _atom_site_fract_x
 _atom_site_fract_y
 _atom_site_fract_z
 _atom_site_fract_occupancy
 F  F1  1  0.27993  0.72013  0.74450  1
 F  F2  1  0.72007  0.27989  0.74454  1
 F  F3  1  0.77982  0.77977  0.74524  1
 F  F4  1  0.22019  0.22025  0.74515  1
 F  F5  1  0.72006  0.72011  0.25553  1
 F  F6  1  0.77981  0.22022  0.25482  1
 F  F7  1  0.22018  0.77973  0.25479  1
 F  F8  1  0.27991  0.27985  0.25542  1
 Mn  Mn1  1  0.50003  0.50006  -0.00001  1
 Mn  Mn2  1  0.00000  0.00001  0.00000  1
 Mn  Mn3  1  -0.00001  0.49998  0.50000  1
 Mn  Mn4  1  0.49999  0.00000  0.50001  1
