CIF file written using JARVIS-Tools package.
data_SiO2
_symmetry_space_group_name_H-M  'I4_122'
_cell_length_a       5.79414
_cell_length_b       5.79414
_cell_length_c       12.0995
_cell_angle_alpha    103.853
_cell_angle_beta     103.853
_cell_angle_gamma    90

_symmetry_Int_Tables_number  98
_chemical_formula_structural  SiO2
_chemical_formula_sum  Si8O6
_cell_volume  382.20734240291495
_cell_formula_units_Z  8
loop_
  _symmetry_equiv_pos_site_id
 _symmetry_equiv_pos_as_xyz
 1  'x, y, z'
loop_
 _atom_site_type_symbol
 _atom_site_label
 _atom_site_symmetry_multiplicity
 _atom_site_fract_x
 _atom_site_fract_y
 _atom_site_fract_z
 _atom_site_fract_occupancy
 O  O1  1  0.93533  0.43533  0.87066  1
 O  O2  1  0.56467  0.06467  0.12934  1
 O  O3  1  0.97404  0.02596  0.50000  1
 O  O4  1  0.87500  0.85775  0.25000  1
 O  O5  1  0.30724  0.80724  0.61448  1
 O  O6  1  0.55724  0.55724  0.11448  1
 O  O7  1  0.22404  0.22404  -0.00000  1
 O  O8  1  0.14225  0.12500  0.75000  1
 O  O9  1  0.18533  0.18533  0.37066  1
 O  O10  1  0.44276  0.44276  0.88552  1
 O  O11  1  0.52596  0.47404  0.50000  1
 O  O12  1  0.60775  0.62500  0.75000  1
 O  O13  1  0.81467  0.81467  0.62934  1
 O  O14  1  0.19276  0.69276  0.38552  1
 O  O15  1  0.77596  0.77596  0.00000  1
 O  O16  1  0.37500  0.39225  0.25000  1
 Si  Si1  1  0.18715  0.31019  0.87707  1
 Si  Si2  1  0.06008  0.93981  0.62293  1
 Si  Si3  1  0.68981  0.81285  0.12293  1
 Si  Si4  1  0.06019  0.93992  0.37707  1
 Si  Si5  1  0.68992  0.56688  0.87707  1
 Si  Si6  1  0.56285  0.68312  0.62293  1
 Si  Si7  1  0.31688  0.43715  0.37707  1
 Si  Si8  1  0.43312  0.31008  0.12293  1
