CIF file written using JARVIS-Tools package.
data_BeBr2
_symmetry_space_group_name_H-M  'Ibam'
_cell_length_a       5.55286
_cell_length_b       5.46976
_cell_length_c       6.48664
_cell_angle_alpha    114.937
_cell_angle_beta     115.342
_cell_angle_gamma    90

_symmetry_Int_Tables_number  72
_chemical_formula_structural  BeBr2
_chemical_formula_sum  Be2Br4
_cell_volume  157.49540735034483
_cell_formula_units_Z  2
loop_
  _symmetry_equiv_pos_site_id
 _symmetry_equiv_pos_as_xyz
 1  'x, y, z'
loop_
 _atom_site_type_symbol
 _atom_site_label
 _atom_site_symmetry_multiplicity
 _atom_site_fract_x
 _atom_site_fract_y
 _atom_site_fract_z
 _atom_site_fract_occupancy
 Be  Be1  1  0.25000  -0.00000  0.00000  1
 Be  Be2  1  0.75000  -0.00000  0.00000  1
 Br  Br1  1  0.11613  0.33549  0.23225  1
 Br  Br2  1  0.88387  0.66451  0.76775  1
 Br  Br3  1  0.38387  0.10323  0.76775  1
 Br  Br4  1  0.61613  0.89677  0.23225  1
