CIF file written using JARVIS-Tools package.
data_ScZn2
_symmetry_space_group_name_H-M  'P6_3/mmc'
_cell_length_a       5.26794
_cell_length_b       5.26794
_cell_length_c       8.43018
_cell_angle_alpha    90
_cell_angle_beta     90
_cell_angle_gamma    120

_symmetry_Int_Tables_number  194
_chemical_formula_structural  ScZn2
_chemical_formula_sum  Sc4Zn8
_cell_volume  202.60467486359457
_cell_formula_units_Z  4
loop_
  _symmetry_equiv_pos_site_id
 _symmetry_equiv_pos_as_xyz
 1  'x, y, z'
loop_
 _atom_site_type_symbol
 _atom_site_label
 _atom_site_symmetry_multiplicity
 _atom_site_fract_x
 _atom_site_fract_y
 _atom_site_fract_z
 _atom_site_fract_occupancy
 Sc  Sc1  1  0.33333  0.66667  0.43800  1
 Sc  Sc2  1  0.66667  0.33333  0.93800  1
 Sc  Sc3  1  0.66667  0.33333  0.56200  1
 Sc  Sc4  1  0.33333  0.66667  0.06200  1
 Zn  Zn1  1  0.00000  0.00000  0.00000  1
 Zn  Zn2  1  0.00000  0.00000  0.50000  1
 Zn  Zn3  1  0.17142  0.82858  0.75000  1
 Zn  Zn4  1  0.82858  0.65716  0.25000  1
 Zn  Zn5  1  0.34284  0.17142  0.25000  1
 Zn  Zn6  1  0.65716  0.82858  0.75000  1
 Zn  Zn7  1  0.17142  0.34284  0.75000  1
 Zn  Zn8  1  0.82858  0.17142  0.25000  1
