CIF file written using JARVIS-Tools package.
data_ScCoC2
_symmetry_space_group_name_H-M  'P4/nmm'
_cell_length_a       3.36547
_cell_length_b       3.36547
_cell_length_c       7.17625
_cell_angle_alpha    90
_cell_angle_beta     90
_cell_angle_gamma    90

_symmetry_Int_Tables_number  129
_chemical_formula_structural  ScCoC2
_chemical_formula_sum  Sc2Co2C4
_cell_volume  81.28079225413077
_cell_formula_units_Z  2
loop_
  _symmetry_equiv_pos_site_id
 _symmetry_equiv_pos_as_xyz
 1  'x, y, z'
loop_
 _atom_site_type_symbol
 _atom_site_label
 _atom_site_symmetry_multiplicity
 _atom_site_fract_x
 _atom_site_fract_y
 _atom_site_fract_z
 _atom_site_fract_occupancy
 C  C1  1  0.00000  0.50000  0.15137  1
 C  C2  1  0.50000  0.00000  0.65274  1
 C  C3  1  0.50000  0.00000  0.84863  1
 C  C4  1  0.00000  0.50000  0.34726  1
 Co  Co1  1  0.00000  0.00000  0.00000  1
 Co  Co2  1  0.50000  0.50000  0.00000  1
 Sc  Sc1  1  0.50000  0.00000  0.34600  1
 Sc  Sc2  1  0.00000  0.50000  0.65400  1
