CIF file written using JARVIS-Tools package.
data_AsI2F6
_symmetry_space_group_name_H-M  'C2/m'
_cell_length_a       5.8867
_cell_length_b       7.92053
_cell_length_c       7.92053
_cell_angle_alpha    79.6951
_cell_angle_beta     78.2651
_cell_angle_gamma    78.2651

_symmetry_Int_Tables_number  12
_chemical_formula_structural  AsI2F6
_chemical_formula_sum  As2I4F2
_cell_volume  350.36255698086677
_cell_formula_units_Z  2
loop_
  _symmetry_equiv_pos_site_id
 _symmetry_equiv_pos_as_xyz
 1  'x, y, z'
loop_
 _atom_site_type_symbol
 _atom_site_label
 _atom_site_symmetry_multiplicity
 _atom_site_fract_x
 _atom_site_fract_y
 _atom_site_fract_z
 _atom_site_fract_occupancy
 As  As1  1  0.56516  0.68964  0.68964  1
 As  As2  1  0.43484  0.31036  0.31036  1
 F  F1  1  0.62704  0.20813  0.45705  1
 F  F2  1  0.76079  0.84149  0.59481  1
 F  F3  1  0.27684  0.45453  0.45453  1
 F  F4  1  0.62704  0.45705  0.20813  1
 F  F5  1  0.72316  0.54547  0.54547  1
 F  F6  1  0.23921  0.15851  0.40519  1
 F  F7  1  0.57818  0.16116  0.16116  1
 F  F8  1  0.37296  0.79187  0.54295  1
 F  F9  1  0.37296  0.54295  0.79187  1
 F  F10  1  0.42182  0.83884  0.83884  1
 F  F11  1  0.23921  0.40519  0.15851  1
 F  F12  1  0.76079  0.59481  0.84149  1
 I  I1  1  0.88514  0.08337  0.75897  1
 I  I2  1  0.88514  0.75897  0.08337  1
 I  I3  1  0.11486  0.24103  0.91663  1
 I  I4  1  0.11486  0.91663  0.24103  1
