CIF file written using JARVIS-Tools package.
data_CeMgAg2
_symmetry_space_group_name_H-M  'Fm-3m'
_cell_length_a       5.02308
_cell_length_b       5.02324
_cell_length_c       5.02336
_cell_angle_alpha    60.0179
_cell_angle_beta     60.0182
_cell_angle_gamma    60.0172

_symmetry_Int_Tables_number  225
_chemical_formula_structural  CeMgAg2
_chemical_formula_sum  CeMgAg2
_cell_volume  89.66192064556068
_cell_formula_units_Z  1
loop_
  _symmetry_equiv_pos_site_id
 _symmetry_equiv_pos_as_xyz
 1  'x, y, z'
loop_
 _atom_site_type_symbol
 _atom_site_label
 _atom_site_symmetry_multiplicity
 _atom_site_fract_x
 _atom_site_fract_y
 _atom_site_fract_z
 _atom_site_fract_occupancy
 Ag  Ag1  1  0.99990  0.99993  0.99995  1
 Ag  Ag2  1  0.50010  0.50007  0.50005  1
 Ce  Ce1  1  0.25000  0.25000  0.25000  1
 Mg  Mg1  1  0.75000  0.75000  0.75000  1
