CIF file written using JARVIS-Tools package.
data_S
_symmetry_space_group_name_H-M  'Fm-3m'
_cell_length_a       2.85907
_cell_length_b       2.85907
_cell_length_c       2.85907
_cell_angle_alpha    59.9999
_cell_angle_beta     59.9999
_cell_angle_gamma    60

_symmetry_Int_Tables_number  225
_chemical_formula_structural  S
_chemical_formula_sum  S
_cell_volume  16.52571518230165
_cell_formula_units_Z  1
loop_
  _symmetry_equiv_pos_site_id
 _symmetry_equiv_pos_as_xyz
 1  'x, y, z'
loop_
 _atom_site_type_symbol
 _atom_site_label
 _atom_site_symmetry_multiplicity
 _atom_site_fract_x
 _atom_site_fract_y
 _atom_site_fract_z
 _atom_site_fract_occupancy
 S  S1  1  0.00000  0.00000  0.00000  1
