CIF file written using JARVIS-Tools package.
data_CoNi2Se4
_symmetry_space_group_name_H-M  'C2/m'
_cell_length_a       3.6201
_cell_length_b       6.16919
_cell_length_c       6.21018
_cell_angle_alpha    117.677
_cell_angle_beta     106.946
_cell_angle_gamma    90

_symmetry_Int_Tables_number  12
_chemical_formula_structural  CoNi2Se4
_chemical_formula_sum  CoNi2Se4
_cell_volume  115.98079796387698
_cell_formula_units_Z  1
loop_
  _symmetry_equiv_pos_site_id
 _symmetry_equiv_pos_as_xyz
 1  'x, y, z'
loop_
 _atom_site_type_symbol
 _atom_site_label
 _atom_site_symmetry_multiplicity
 _atom_site_fract_x
 _atom_site_fract_y
 _atom_site_fract_z
 _atom_site_fract_occupancy
 Co  Co1  1  0.00000  0.00000  0.00000  1
 Ni  Ni1  1  0.26459  0.28988  0.52919  1
 Ni  Ni2  1  0.73541  0.71012  0.47081  1
 Se  Se1  1  0.11381  0.44904  0.22761  1
 Se  Se2  1  0.88619  0.55096  0.77239  1
 Se  Se3  1  0.36827  0.02329  0.73653  1
 Se  Se4  1  0.63173  0.97671  0.26347  1
