CIF file written using JARVIS-Tools package.
data_Nd2C3
_symmetry_space_group_name_H-M  'I-43d'
_cell_length_a       7.46216
_cell_length_b       7.46216
_cell_length_c       7.46216
_cell_angle_alpha    109.471
_cell_angle_beta     109.471
_cell_angle_gamma    109.471

_symmetry_Int_Tables_number  220
_chemical_formula_structural  Nd2C3
_chemical_formula_sum  Nd8C2
_cell_volume  319.86902075357625
_cell_formula_units_Z  4
loop_
  _symmetry_equiv_pos_site_id
 _symmetry_equiv_pos_as_xyz
 1  'x, y, z'
loop_
 _atom_site_type_symbol
 _atom_site_label
 _atom_site_symmetry_multiplicity
 _atom_site_fract_x
 _atom_site_fract_y
 _atom_site_fract_z
 _atom_site_fract_occupancy
 C  C1  1  0.04828  0.75000  0.79828  1
 C  C2  1  0.75000  0.95172  0.20172  1
 C  C3  1  0.29828  0.25000  0.54828  1
 C  C4  1  0.54828  0.29828  0.25000  1
 C  C5  1  0.20172  0.75000  0.95172  1
 C  C6  1  0.95172  0.20172  0.75000  1
 C  C7  1  0.25000  0.70172  0.45172  1
 C  C8  1  0.70172  0.45172  0.25000  1
 C  C9  1  0.75000  0.79828  0.04828  1
 C  C10  1  0.45172  0.25000  0.70172  1
 C  C11  1  0.79828  0.04828  0.75000  1
 C  C12  1  0.25000  0.54828  0.29828  1
 Nd  Nd1  1  0.89602  0.50000  0.00000  1
 Nd  Nd2  1  0.60398  0.60398  0.60398  1
 Nd  Nd3  1  0.39602  0.50000  0.00000  1
 Nd  Nd4  1  0.50000  0.00000  0.39602  1
 Nd  Nd5  1  -0.00000  0.39602  0.50000  1
 Nd  Nd6  1  0.50000  0.00000  0.89602  1
 Nd  Nd7  1  -0.00000  0.89602  0.50000  1
 Nd  Nd8  1  0.10398  0.10398  0.10398  1
