CIF file written using JARVIS-Tools package.
data_Ba5Nd8Mn4O21
_symmetry_space_group_name_H-M  'I4/m'
_cell_length_a       5.80393
_cell_length_b       10.3604
_cell_length_c       10.3604
_cell_angle_alpha    85.5001
_cell_angle_beta     73.7338
_cell_angle_gamma    73.7337

_symmetry_Int_Tables_number  87
_chemical_formula_structural  Ba5Nd8Mn4O21
_chemical_formula_sum  Ba5Nd8Mn4O2
_cell_volume  574.1028445652918
_cell_formula_units_Z  1
loop_
  _symmetry_equiv_pos_site_id
 _symmetry_equiv_pos_as_xyz
 1  'x, y, z'
loop_
 _atom_site_type_symbol
 _atom_site_label
 _atom_site_symmetry_multiplicity
 _atom_site_fract_x
 _atom_site_fract_y
 _atom_site_fract_z
 _atom_site_fract_occupancy
 Ba  Ba1  1  0.86348  0.67430  0.59873  1
 Ba  Ba2  1  0.46222  0.40127  0.67430  1
 Ba  Ba3  1  0.13652  0.32570  0.40127  1
 Ba  Ba4  1  0.53778  0.59873  0.32570  1
 Ba  Ba5  1  0.00000  0.00000  0.00000  1
 Mn  Mn1  1  0.95822  0.79953  0.28402  1
 Mn  Mn2  1  0.24225  0.71598  0.79953  1
 Mn  Mn3  1  0.75775  0.28402  0.20047  1
 Mn  Mn4  1  0.04178  0.20047  0.71598  1
 Nd  Nd1  1  0.35466  0.23625  0.05444  1
 Nd  Nd2  1  0.83608  0.41385  0.91399  1
 Nd  Nd3  1  0.75007  0.08601  0.41385  1
 Nd  Nd4  1  0.40910  0.94556  0.23625  1
 Nd  Nd5  1  0.64534  0.76375  0.94556  1
 Nd  Nd6  1  0.24993  0.91399  0.58615  1
 Nd  Nd7  1  0.59090  0.05444  0.76375  1
 Nd  Nd8  1  0.16392  0.58615  0.08601  1
 O  O1  1  0.93901  0.85874  0.77381  1
 O  O2  1  0.42844  0.85874  0.77381  1
 O  O3  1  0.20225  0.22619  0.85874  1
 O  O4  1  0.28717  0.77381  0.14126  1
 O  O5  1  0.06099  0.14126  0.22619  1
 O  O6  1  0.57156  0.14126  0.22619  1
 O  O7  1  0.79775  0.77381  0.14126  1
 O  O8  1  0.71283  0.22619  0.85874  1
 O  O9  1  0.62787  0.87246  0.40800  1
 O  O10  1  0.97097  0.39601  0.66205  1
 O  O11  1  0.50033  0.40800  0.12754  1
 O  O12  1  0.90833  0.12754  0.59200  1
 O  O13  1  0.37213  0.12754  0.59200  1
 O  O14  1  0.96413  0.40800  0.12754  1
 O  O15  1  0.49967  0.59200  0.87246  1
 O  O16  1  0.36698  0.66205  0.60399  1
 O  O17  1  0.09167  0.87246  0.40800  1
 O  O18  1  0.50000  0.00000  0.00000  1
 O  O19  1  0.02903  0.60399  0.33795  1
 O  O20  1  0.03587  0.59200  0.87246  1
 O  O21  1  0.63302  0.33795  0.39601  1
