CIF file written using JARVIS-Tools package.
data_I
_symmetry_space_group_name_H-M  'Cmce'
_cell_length_a       4.3476
_cell_length_b       4.34759
_cell_length_c       9.73143
_cell_angle_alpha    90
_cell_angle_beta     90
_cell_angle_gamma    116.297

_symmetry_Int_Tables_number  64
_chemical_formula_structural  I
_chemical_formula_sum  I4
_cell_volume  164.90269213481702
_cell_formula_units_Z  4
loop_
  _symmetry_equiv_pos_site_id
 _symmetry_equiv_pos_as_xyz
 1  'x, y, z'
loop_
 _atom_site_type_symbol
 _atom_site_label
 _atom_site_symmetry_multiplicity
 _atom_site_fract_x
 _atom_site_fract_y
 _atom_site_fract_z
 _atom_site_fract_occupancy
 I  I1  1  0.16797  0.16797  0.12178  1
 I  I2  1  0.33203  0.33203  0.62178  1
 I  I3  1  0.66797  0.66797  0.37822  1
 I  I4  1  0.83203  0.83203  0.87822  1
