CIF file written using JARVIS-Tools package.
data_TeMoWSeS2
_symmetry_space_group_name_H-M  'P3m1'
_cell_length_a       3.32062
_cell_length_b       3.32064
_cell_length_c       37.2427
_cell_angle_alpha    90.0003
_cell_angle_beta     90
_cell_angle_gamma    120

_symmetry_Int_Tables_number  156
_chemical_formula_structural  TeMoWSeS2
_chemical_formula_sum  Te2Mo2W2Se2S4
_cell_volume  355.6413819232031
_cell_formula_units_Z  2
loop_
  _symmetry_equiv_pos_site_id
 _symmetry_equiv_pos_as_xyz
 1  'x, y, z'
loop_
 _atom_site_type_symbol
 _atom_site_label
 _atom_site_symmetry_multiplicity
 _atom_site_fract_x
 _atom_site_fract_y
 _atom_site_fract_z
 _atom_site_fract_occupancy
 Mo  Mo1  1  0.33331  0.66662  0.09379  1
 Mo  Mo2  1  0.66668  0.33337  0.28196  1
 S  S1  1  0.33336  0.66672  0.69837  1
 S  S2  1  0.66665  0.33329  0.42838  1
 S  S3  1  0.66664  0.33327  0.51091  1
 S  S4  1  0.33336  0.66672  0.61625  1
 Se  Se1  1  0.33336  0.66671  0.32699  1
 Se  Se2  1  0.33335  0.66671  0.23704  1
 Te  Te1  1  0.66664  0.33328  0.04282  1
 Te  Te2  1  0.66664  0.33328  0.14516  1
 W  W1  1  0.33332  0.66665  0.46968  1
 W  W2  1  0.66668  0.33337  0.65741  1
