CIF file written using JARVIS-Tools package.
data_NaVF4
_symmetry_space_group_name_H-M  'P2_1/c'
_cell_length_a       7.66109
_cell_length_b       5.46732
_cell_length_c       8.02634
_cell_angle_alpha    90
_cell_angle_beta     103.732
_cell_angle_gamma    90

_symmetry_Int_Tables_number  14
_chemical_formula_structural  NaVF4
_chemical_formula_sum  Na4V4F6
_cell_volume  326.5788532349597
_cell_formula_units_Z  4
loop_
  _symmetry_equiv_pos_site_id
 _symmetry_equiv_pos_as_xyz
 1  'x, y, z'
loop_
 _atom_site_type_symbol
 _atom_site_label
 _atom_site_symmetry_multiplicity
 _atom_site_fract_x
 _atom_site_fract_y
 _atom_site_fract_z
 _atom_site_fract_occupancy
 F  F1  1  0.32974  0.49379  0.35453  1
 F  F2  1  0.95593  0.77612  0.82431  1
 F  F3  1  0.54407  0.27612  0.17569  1
 F  F4  1  0.04407  0.22388  0.17569  1
 F  F5  1  0.34683  0.00442  0.35000  1
 F  F6  1  0.76209  0.49563  0.99775  1
 F  F7  1  0.73791  0.99563  0.00225  1
 F  F8  1  0.45593  0.72388  0.82431  1
 F  F9  1  0.26209  0.00437  0.99775  1
 F  F10  1  0.67026  0.50621  0.64547  1
 F  F11  1  0.82974  0.00621  0.35453  1
 F  F12  1  0.15317  0.50442  0.65000  1
 F  F13  1  0.17026  0.99379  0.64547  1
 F  F14  1  0.65317  -0.00442  0.65000  1
 F  F15  1  0.84683  0.49558  0.35000  1
 F  F16  1  0.23791  0.50437  0.00225  1
 Na  Na1  1  0.40116  0.25605  0.60534  1
 Na  Na2  1  0.09884  0.75605  0.39466  1
 Na  Na3  1  0.59884  0.74395  0.39466  1
 Na  Na4  1  0.90116  0.24395  0.60534  1
 V  V1  1  0.20627  0.75123  0.82546  1
 V  V2  1  0.29373  0.25123  0.17454  1
 V  V3  1  0.79373  0.24877  0.17454  1
 V  V4  1  0.70627  0.74877  0.82546  1
