CIF file written using JARVIS-Tools package.
data_O
_symmetry_space_group_name_H-M  'Fmmm'
_cell_length_a       2.38413
_cell_length_b       2.38378
_cell_length_c       4.14672
_cell_angle_alpha    106.207
_cell_angle_beta     106.349
_cell_angle_gamma    91.4166

_symmetry_Int_Tables_number  69
_chemical_formula_structural  O
_chemical_formula_sum  O2
_cell_volume  21.57826913978241
_cell_formula_units_Z  2
loop_
  _symmetry_equiv_pos_site_id
 _symmetry_equiv_pos_as_xyz
 1  'x, y, z'
loop_
 _atom_site_type_symbol
 _atom_site_label
 _atom_site_symmetry_multiplicity
 _atom_site_fract_x
 _atom_site_fract_y
 _atom_site_fract_z
 _atom_site_fract_occupancy
 O  O1  1  0.90381  0.91329  0.82541  1
 O  O2  1  0.06632  0.07445  0.14914  1
