CIF file written using JARVIS-Tools package.
data_TeMoWSeS2
_symmetry_space_group_name_H-M  'P3m1'
_cell_length_a       3.31614
_cell_length_b       3.31615
_cell_length_c       37.4383
_cell_angle_alpha    89.9999
_cell_angle_beta     90
_cell_angle_gamma    120

_symmetry_Int_Tables_number  156
_chemical_formula_structural  TeMoWSeS2
_chemical_formula_sum  Te2Mo2W2Se2S4
_cell_volume  356.5454430961413
_cell_formula_units_Z  2
loop_
  _symmetry_equiv_pos_site_id
 _symmetry_equiv_pos_as_xyz
 1  'x, y, z'
loop_
 _atom_site_type_symbol
 _atom_site_label
 _atom_site_symmetry_multiplicity
 _atom_site_fract_x
 _atom_site_fract_y
 _atom_site_fract_z
 _atom_site_fract_occupancy
 Mo  Mo1  1  0.33331  0.66662  0.09386  1
 Mo  Mo2  1  0.66668  0.33337  0.28182  1
 S  S1  1  0.33336  0.66672  0.32266  1
 S  S2  1  0.66665  0.33329  0.42857  1
 S  S3  1  0.66665  0.33329  0.51075  1
 S  S4  1  0.33336  0.66672  0.24100  1
 Se  Se1  1  0.33335  0.66671  0.70244  1
 Se  Se2  1  0.33335  0.66671  0.61240  1
 Te  Te1  1  0.66665  0.33329  0.04293  1
 Te  Te2  1  0.66665  0.33330  0.14513  1
 W  W1  1  0.33331  0.66661  0.46965  1
 W  W2  1  0.66669  0.33337  0.65753  1
