CIF file written using JARVIS-Tools package.
data_Pr3MnAlS7
_symmetry_space_group_name_H-M  'P6_3'
_cell_length_a       9.87713
_cell_length_b       6.17542
_cell_length_c       9.87715
_cell_angle_alpha    90
_cell_angle_beta     119.999
_cell_angle_gamma    90

_symmetry_Int_Tables_number  173
_chemical_formula_structural  Pr3MnAlS7
_chemical_formula_sum  Pr6Mn2Al2S4
_cell_volume  521.7500483378445
_cell_formula_units_Z  2
loop_
  _symmetry_equiv_pos_site_id
 _symmetry_equiv_pos_as_xyz
 1  'x, y, z'
loop_
 _atom_site_type_symbol
 _atom_site_label
 _atom_site_symmetry_multiplicity
 _atom_site_fract_x
 _atom_site_fract_y
 _atom_site_fract_z
 _atom_site_fract_occupancy
 Al  Al1  1  0.66667  0.34904  0.33334  1
 Al  Al2  1  0.33333  0.84904  0.66666  1
 Mn  Mn1  1  0.00000  0.94227  0.00000  1
 Mn  Mn2  1  -0.00000  0.44227  -0.00000  1
 Pr  Pr1  1  0.84020  0.77434  0.21512  1
 Pr  Pr2  1  0.15980  0.27434  0.78488  1
 Pr  Pr3  1  0.37491  0.77433  0.15980  1
 Pr  Pr4  1  0.78489  0.77433  0.62509  1
 Pr  Pr5  1  0.21511  0.27433  0.37491  1
 Pr  Pr6  1  0.62509  0.27433  0.84020  1
 S  S1  1  0.66666  0.98981  0.33334  1
 S  S2  1  0.09073  0.98833  0.52563  1
 S  S3  1  0.90625  0.18795  0.12295  1
 S  S4  1  0.09375  0.68795  0.87705  1
 S  S5  1  0.21670  0.18795  0.09375  1
 S  S6  1  0.33334  0.48981  0.66666  1
 S  S7  1  0.52563  0.48834  0.43490  1
 S  S8  1  0.78330  0.68795  0.90625  1
 S  S9  1  0.56510  0.48833  0.09073  1
 S  S10  1  0.43490  0.98833  0.90927  1
 S  S11  1  0.87705  0.18795  0.78330  1
 S  S12  1  0.90927  0.48833  0.47437  1
 S  S13  1  0.12295  0.68795  0.21670  1
 S  S14  1  0.47437  0.98834  0.56510  1
