CIF file written using JARVIS-Tools package.
data_Te4Mo3WSe2S2
_symmetry_space_group_name_H-M  'P3m1'
_cell_length_a       3.40462
_cell_length_b       3.40461
_cell_length_c       35.9275
_cell_angle_alpha    90.0007
_cell_angle_beta     90
_cell_angle_gamma    120

_symmetry_Int_Tables_number  156
_chemical_formula_structural  Te4Mo3WSe2S2
_chemical_formula_sum  Te4Mo3WSe2S2
_cell_volume  360.6561313152008
_cell_formula_units_Z  1
loop_
  _symmetry_equiv_pos_site_id
 _symmetry_equiv_pos_as_xyz
 1  'x, y, z'
loop_
 _atom_site_type_symbol
 _atom_site_label
 _atom_site_symmetry_multiplicity
 _atom_site_fract_x
 _atom_site_fract_y
 _atom_site_fract_z
 _atom_site_fract_occupancy
 Mo  Mo1  1  0.33333  0.66665  0.09617  1
 Mo  Mo2  1  0.33333  0.66667  0.46639  1
 Mo  Mo3  1  0.66667  0.33334  0.28131  1
 S  S1  1  0.33333  0.66666  0.32309  1
 S  S2  1  0.33335  0.66669  0.23952  1
 Se  Se1  1  0.33335  0.66670  0.70500  1
 Se  Se2  1  0.33333  0.66665  0.61301  1
 Te  Te1  1  0.66666  0.33332  0.04402  1
 Te  Te2  1  0.66667  0.33334  0.41411  1
 Te  Te3  1  0.66666  0.33332  0.14847  1
 Te  Te4  1  0.66667  0.33334  0.51860  1
 W  W1  1  0.66667  0.33334  0.65905  1
