CIF file written using JARVIS-Tools package.
data_Cl
_symmetry_space_group_name_H-M  'Cmce'
_cell_length_a       4.09147
_cell_length_b       3.75011
_cell_length_c       8.08883
_cell_angle_alpha    90
_cell_angle_beta     90
_cell_angle_gamma    123.06

_symmetry_Int_Tables_number  64
_chemical_formula_structural  Cl
_chemical_formula_sum  Cl4
_cell_volume  104.01711918545475
_cell_formula_units_Z  4
loop_
  _symmetry_equiv_pos_site_id
 _symmetry_equiv_pos_as_xyz
 1  'x, y, z'
loop_
 _atom_site_type_symbol
 _atom_site_label
 _atom_site_symmetry_multiplicity
 _atom_site_fract_x
 _atom_site_fract_y
 _atom_site_fract_z
 _atom_site_fract_occupancy
 Cl  Cl1  1  0.87221  -0.00000  0.39211  1
 Cl  Cl2  1  0.12779  0.00000  0.60789  1
 Cl  Cl3  1  0.62779  0.00000  0.89211  1
 Cl  Cl4  1  0.37221  -0.00000  0.10789  1
