CIF file written using JARVIS-Tools package.
data_Na2Ca2C3O9
_symmetry_space_group_name_H-M  'Amm2'
_cell_length_a       4.98191
_cell_length_b       6.56685
_cell_length_c       6.56685
_cell_angle_alpha    114.815
_cell_angle_beta     90
_cell_angle_gamma    90

_symmetry_Int_Tables_number  38
_chemical_formula_structural  Na2Ca2C3O9
_chemical_formula_sum  Na2Ca2C3O9
_cell_volume  195.00048618799727
_cell_formula_units_Z  1
loop_
  _symmetry_equiv_pos_site_id
 _symmetry_equiv_pos_as_xyz
 1  'x, y, z'
loop_
 _atom_site_type_symbol
 _atom_site_label
 _atom_site_symmetry_multiplicity
 _atom_site_fract_x
 _atom_site_fract_y
 _atom_site_fract_z
 _atom_site_fract_occupancy
 C  C1  1  0.00000  0.87663  0.46423  1
 C  C2  1  0.00000  0.46423  0.87663  1
 C  C3  1  0.50000  0.22489  0.22489  1
 Ca  Ca1  1  0.50000  0.21209  0.78019  1
 Ca  Ca2  1  0.50000  0.78019  0.21209  1
 Na  Na1  1  0.00000  0.92570  0.92570  1
 Na  Na2  1  0.50000  0.61548  0.61548  1
 O  O1  1  0.50000  0.41442  0.21023  1
 O  O2  1  0.50000  0.21023  0.41442  1
 O  O3  1  0.00000  0.88501  0.27178  1
 O  O4  1  0.50000  0.03841  0.03841  1
 O  O5  1  0.00000  0.27178  0.88501  1
 O  O6  1  0.22649  0.86946  0.55906  1
 O  O7  1  0.77351  0.55906  0.86946  1
 O  O8  1  0.77351  0.86946  0.55906  1
 O  O9  1  0.22649  0.55906  0.86946  1
