CIF file written using JARVIS-Tools package.
data_Ho2PdRh
_symmetry_space_group_name_H-M  'Fm-3m'
_cell_length_a       4.85743
_cell_length_b       4.85741
_cell_length_c       4.85741
_cell_angle_alpha    59.9992
_cell_angle_beta     59.9985
_cell_angle_gamma    59.9988

_symmetry_Int_Tables_number  225
_chemical_formula_structural  Ho2PdRh
_chemical_formula_sum  Ho2PdRh
_cell_volume  81.03831112603093
_cell_formula_units_Z  1
loop_
  _symmetry_equiv_pos_site_id
 _symmetry_equiv_pos_as_xyz
 1  'x, y, z'
loop_
 _atom_site_type_symbol
 _atom_site_label
 _atom_site_symmetry_multiplicity
 _atom_site_fract_x
 _atom_site_fract_y
 _atom_site_fract_z
 _atom_site_fract_occupancy
 Ho  Ho1  1  0.99999  0.00001  0.00000  1
 Ho  Ho2  1  0.50000  0.50000  0.50001  1
 Pd  Pd1  1  0.25001  0.25000  0.24999  1
 Rh  Rh1  1  0.75000  0.74999  0.75000  1
