CIF file written using JARVIS-Tools package.
data_TeMoWSe2S
_symmetry_space_group_name_H-M  'Cm'
_cell_length_a       3.34631
_cell_length_b       3.34588
_cell_length_c       34.0244
_cell_angle_alpha    90.1429
_cell_angle_beta     90
_cell_angle_gamma    120.004

_symmetry_Int_Tables_number  8
_chemical_formula_structural  TeMoWSe2S
_chemical_formula_sum  Te2Mo2W2Se4S2
_cell_volume  329.89578755521774
_cell_formula_units_Z  2
loop_
  _symmetry_equiv_pos_site_id
 _symmetry_equiv_pos_as_xyz
 1  'x, y, z'
loop_
 _atom_site_type_symbol
 _atom_site_label
 _atom_site_symmetry_multiplicity
 _atom_site_fract_x
 _atom_site_fract_y
 _atom_site_fract_z
 _atom_site_fract_occupancy
 Mo  Mo1  1  0.33386  0.66772  0.08226  1
 Mo  Mo2  1  0.66670  0.33340  0.28681  1
 S  S1  1  0.66599  0.33198  0.42835  1
 S  S2  1  0.66725  0.33449  0.51797  1
 Se  Se1  1  0.33415  0.66831  0.33580  1
 Se  Se2  1  0.33380  0.66760  0.70985  1
 Se  Se3  1  0.33253  0.66506  0.23782  1
 Se  Se4  1  0.33181  0.66361  0.61142  1
 Te  Te1  1  0.66618  0.33235  0.02648  1
 Te  Te2  1  0.66833  0.33665  0.13817  1
 W  W1  1  0.33326  0.66652  0.47315  1
 W  W2  1  0.66615  0.33231  0.66066  1
