CIF file written using JARVIS-Tools package.
data_Rb2CuCl3
_symmetry_space_group_name_H-M  'Pnma'
_cell_length_a       4.18722
_cell_length_b       12.472
_cell_length_c       12.9824
_cell_angle_alpha    90
_cell_angle_beta     90
_cell_angle_gamma    90

_symmetry_Int_Tables_number  62
_chemical_formula_structural  Rb2CuCl3
_chemical_formula_sum  Rb8Cu4Cl2
_cell_volume  677.980217783185
_cell_formula_units_Z  4
loop_
  _symmetry_equiv_pos_site_id
 _symmetry_equiv_pos_as_xyz
 1  'x, y, z'
loop_
 _atom_site_type_symbol
 _atom_site_label
 _atom_site_symmetry_multiplicity
 _atom_site_fract_x
 _atom_site_fract_y
 _atom_site_fract_z
 _atom_site_fract_occupancy
 Cl  Cl1  1  0.75000  0.56354  0.13935  1
 Cl  Cl2  1  0.75000  0.72520  0.78035  1
 Cl  Cl3  1  0.25000  0.27480  0.21965  1
 Cl  Cl4  1  0.75000  0.06354  0.36065  1
 Cl  Cl5  1  0.75000  0.86110  0.05012  1
 Cl  Cl6  1  0.25000  0.43646  0.86065  1
 Cl  Cl7  1  0.25000  0.77480  0.28035  1
 Cl  Cl8  1  0.25000  0.63890  0.55012  1
 Cl  Cl9  1  0.75000  0.36110  0.44988  1
 Cl  Cl10  1  0.25000  0.93646  0.63935  1
 Cl  Cl11  1  0.25000  0.13890  0.94988  1
 Cl  Cl12  1  0.75000  0.22520  0.71965  1
 Cu  Cu1  1  0.25000  0.75576  0.69212  1
 Cu  Cu2  1  0.25000  0.25576  0.80788  1
 Cu  Cu3  1  0.75000  0.74424  0.19212  1
 Cu  Cu4  1  0.75000  0.24424  0.30788  1
 Rb  Rb1  1  0.25000  0.01393  0.17307  1
 Rb  Rb2  1  0.75000  0.48607  0.67307  1
 Rb  Rb3  1  0.25000  0.67198  0.97417  1
 Rb  Rb4  1  0.75000  0.98607  0.82693  1
 Rb  Rb5  1  0.25000  0.51393  0.32693  1
 Rb  Rb6  1  0.75000  0.82802  0.47417  1
 Rb  Rb7  1  0.25000  0.17198  0.52583  1
 Rb  Rb8  1  0.75000  0.32802  0.02583  1
