CIF file written using JARVIS-Tools package.
data_BaBiBO4
_symmetry_space_group_name_H-M  'Pnma'
_cell_length_a       5.19517
_cell_length_b       8.60359
_cell_length_c       9.73701
_cell_angle_alpha    90
_cell_angle_beta     90
_cell_angle_gamma    90

_symmetry_Int_Tables_number  62
_chemical_formula_structural  BaBiBO4
_chemical_formula_sum  Ba4Bi4B4O6
_cell_volume  435.2161811800128
_cell_formula_units_Z  4
loop_
  _symmetry_equiv_pos_site_id
 _symmetry_equiv_pos_as_xyz
 1  'x, y, z'
loop_
 _atom_site_type_symbol
 _atom_site_label
 _atom_site_symmetry_multiplicity
 _atom_site_fract_x
 _atom_site_fract_y
 _atom_site_fract_z
 _atom_site_fract_occupancy
 B  B1  1  0.74943  0.29950  0.94051  1
 B  B2  1  0.24943  0.20050  0.44051  1
 B  B3  1  0.74943  0.79950  0.55949  1
 B  B4  1  0.24943  0.70050  0.05949  1
 Ba  Ba1  1  0.74941  0.00660  0.18392  1
 Ba  Ba2  1  0.74941  0.50660  0.31608  1
 Ba  Ba3  1  0.24941  0.99340  0.81608  1
 Ba  Ba4  1  0.24941  0.49340  0.68392  1
 Bi  Bi1  1  0.74941  0.69197  0.93544  1
 Bi  Bi2  1  0.74941  0.19197  0.56456  1
 Bi  Bi3  1  0.24941  0.80803  0.43544  1
 Bi  Bi4  1  0.24941  0.30803  0.06456  1
 O  O1  1  0.24944  0.57142  0.41256  1
 O  O2  1  0.48459  0.70720  0.12508  1
 O  O3  1  0.98459  0.29280  0.87492  1
 O  O4  1  0.51426  0.79283  0.62506  1
 O  O5  1  0.01426  0.70717  0.12506  1
 O  O6  1  0.98459  0.79280  0.62508  1
 O  O7  1  0.74946  0.81562  0.41653  1
 O  O8  1  0.48459  0.20720  0.37492  1
 O  O9  1  0.51426  0.29283  0.87494  1
 O  O10  1  0.01426  0.20717  0.37494  1
 O  O11  1  0.24944  0.07142  0.08744  1
 O  O12  1  0.74944  0.92858  0.91256  1
 O  O13  1  0.24946  0.68438  0.91653  1
 O  O14  1  0.74944  0.42858  0.58744  1
 O  O15  1  0.24946  0.18438  0.58347  1
 O  O16  1  0.74946  0.31562  0.08347  1
