CIF file written using JARVIS-Tools package.
data_CaBiClO2
_symmetry_space_group_name_H-M  'P2_1/m'
_cell_length_a       6.39295
_cell_length_b       4.1506
_cell_length_c       7.78608
_cell_angle_alpha    90
_cell_angle_beta     105.112
_cell_angle_gamma    90

_symmetry_Int_Tables_number  11
_chemical_formula_structural  CaBiClO2
_chemical_formula_sum  Ca2Bi2Cl2O4
_cell_volume  199.45581454783326
_cell_formula_units_Z  2
loop_
  _symmetry_equiv_pos_site_id
 _symmetry_equiv_pos_as_xyz
 1  'x, y, z'
loop_
 _atom_site_type_symbol
 _atom_site_label
 _atom_site_symmetry_multiplicity
 _atom_site_fract_x
 _atom_site_fract_y
 _atom_site_fract_z
 _atom_site_fract_occupancy
 Bi  Bi1  1  0.68230  0.25000  0.40887  1
 Bi  Bi2  1  0.31770  0.75000  0.59113  1
 Ca  Ca1  1  0.67135  0.25000  0.92051  1
 Ca  Ca2  1  0.32865  0.75000  0.07949  1
 Cl  Cl1  1  0.05599  0.25000  0.81325  1
 Cl  Cl2  1  0.94401  0.75000  0.18675  1
 O  O1  1  0.52919  0.75000  0.40113  1
 O  O2  1  0.47081  0.25000  0.59887  1
 O  O3  1  0.51168  0.75000  0.85757  1
 O  O4  1  0.48832  0.25000  0.14243  1
