CIF file written using JARVIS-Tools package.
data_Pu2InRh2
_symmetry_space_group_name_H-M  'P4/mbm'
_cell_length_a       7.54376
_cell_length_b       7.54376
_cell_length_c       3.71933
_cell_angle_alpha    90
_cell_angle_beta     90
_cell_angle_gamma    90

_symmetry_Int_Tables_number  127
_chemical_formula_structural  Pu2InRh2
_chemical_formula_sum  Pu4In2Rh4
_cell_volume  211.66087452677579
_cell_formula_units_Z  2
loop_
  _symmetry_equiv_pos_site_id
 _symmetry_equiv_pos_as_xyz
 1  'x, y, z'
loop_
 _atom_site_type_symbol
 _atom_site_label
 _atom_site_symmetry_multiplicity
 _atom_site_fract_x
 _atom_site_fract_y
 _atom_site_fract_z
 _atom_site_fract_occupancy
 In  In1  1  0.00000  0.00000  0.00000  1
 In  In2  1  0.50000  0.50000  0.00000  1
 Pu  Pu1  1  0.66482  0.16482  0.50000  1
 Pu  Pu2  1  0.16482  0.33518  0.50000  1
 Pu  Pu3  1  0.83518  0.66482  0.50000  1
 Pu  Pu4  1  0.33518  0.83518  0.50000  1
 Rh  Rh1  1  0.86127  0.36127  0.00000  1
 Rh  Rh2  1  0.13873  0.63873  0.00000  1
 Rh  Rh3  1  0.63873  0.86127  0.00000  1
 Rh  Rh4  1  0.36127  0.13873  0.00000  1
