CIF file written using JARVIS-Tools package.
data_VRh3
_symmetry_space_group_name_H-M  'P6_3/mmc'
_cell_length_a       5.42273
_cell_length_b       5.42273
_cell_length_c       4.31083
_cell_angle_alpha    90
_cell_angle_beta     90
_cell_angle_gamma    120

_symmetry_Int_Tables_number  194
_chemical_formula_structural  VRh3
_chemical_formula_sum  V2Rh6
_cell_volume  109.78069816764072
_cell_formula_units_Z  2
loop_
  _symmetry_equiv_pos_site_id
 _symmetry_equiv_pos_as_xyz
 1  'x, y, z'
loop_
 _atom_site_type_symbol
 _atom_site_label
 _atom_site_symmetry_multiplicity
 _atom_site_fract_x
 _atom_site_fract_y
 _atom_site_fract_z
 _atom_site_fract_occupancy
 Rh  Rh1  1  0.66475  0.83237  0.75000  1
 Rh  Rh2  1  0.16763  0.33525  0.75000  1
 Rh  Rh3  1  0.16763  0.83237  0.75000  1
 Rh  Rh4  1  0.33525  0.16763  0.25000  1
 Rh  Rh5  1  0.83237  0.66475  0.25000  1
 Rh  Rh6  1  0.83237  0.16763  0.25000  1
 V  V1  1  0.33333  0.66667  0.25000  1
 V  V2  1  0.66667  0.33333  0.75000  1
