CIF file written using JARVIS-Tools package.
data_RbSrCO3F
_symmetry_space_group_name_H-M  'P-6m2'
_cell_length_a       5.31447
_cell_length_b       5.31434
_cell_length_c       4.7997
_cell_angle_alpha    90
_cell_angle_beta     90
_cell_angle_gamma    120.001

_symmetry_Int_Tables_number  187
_chemical_formula_structural  RbSrCO3F
_chemical_formula_sum  RbSrCO3F
_cell_volume  117.39544709817933
_cell_formula_units_Z  1
loop_
  _symmetry_equiv_pos_site_id
 _symmetry_equiv_pos_as_xyz
 1  'x, y, z'
loop_
 _atom_site_type_symbol
 _atom_site_label
 _atom_site_symmetry_multiplicity
 _atom_site_fract_x
 _atom_site_fract_y
 _atom_site_fract_z
 _atom_site_fract_occupancy
 C  C1  1  0.00001  0.00002  0.50000  1
 F  F1  1  0.66669  0.33335  0.00000  1
 O  O1  1  0.14117  0.28232  0.50000  1
 O  O2  1  0.14114  0.85886  0.50000  1
 O  O3  1  0.71772  0.85888  0.50000  1
 Rb  Rb1  1  0.33331  0.66663  0.00000  1
 Sr  Sr1  1  0.66667  0.33334  0.50000  1
