CIF file written using JARVIS-Tools package.
data_C
_symmetry_space_group_name_H-M  'Cmmm'
_cell_length_a       2.6939
_cell_length_b       2.50949
_cell_length_c       4.135
_cell_angle_alpha    90
_cell_angle_beta     70.9894
_cell_angle_gamma    90

_symmetry_Int_Tables_number  65
_chemical_formula_structural  C
_chemical_formula_sum  C4
_cell_volume  26.429240757022974
_cell_formula_units_Z  4
loop_
  _symmetry_equiv_pos_site_id
 _symmetry_equiv_pos_as_xyz
 1  'x, y, z'
loop_
 _atom_site_type_symbol
 _atom_site_label
 _atom_site_symmetry_multiplicity
 _atom_site_fract_x
 _atom_site_fract_y
 _atom_site_fract_z
 _atom_site_fract_occupancy
 C  C1  1  0.81094  0.50000  0.37813  1
 C  C2  1  0.91413  0.00000  0.17174  1
 C  C3  1  0.18915  0.50000  0.62170  1
 C  C4  1  0.08596  0.00000  0.82809  1
