CIF file written using JARVIS-Tools package.
data_Rb2CrBr2Cl2
_symmetry_space_group_name_H-M  'I4/mmm'
_cell_length_a       5.00585
_cell_length_b       5.00585
_cell_length_c       9.06427
_cell_angle_alpha    106.03
_cell_angle_beta     106.03
_cell_angle_gamma    89.9987

_symmetry_Int_Tables_number  139
_chemical_formula_structural  Rb2CrBr2Cl2
_chemical_formula_sum  Rb2CrBr2Cl2
_cell_volume  209.1019238189085
_cell_formula_units_Z  1
loop_
  _symmetry_equiv_pos_site_id
 _symmetry_equiv_pos_as_xyz
 1  'x, y, z'
loop_
 _atom_site_type_symbol
 _atom_site_label
 _atom_site_symmetry_multiplicity
 _atom_site_fract_x
 _atom_site_fract_y
 _atom_site_fract_z
 _atom_site_fract_occupancy
 Br  Br1  1  0.84209  0.84209  0.68418  1
 Br  Br2  1  0.15791  0.15791  0.31582  1
 Cl  Cl1  1  0.50000  -0.00000  0.00000  1
 Cl  Cl2  1  -0.00000  0.50000  0.00000  1
 Cr  Cr1  1  0.00000  0.00000  0.00000  1
 Rb  Rb1  1  0.63688  0.63688  0.27376  1
 Rb  Rb2  1  0.36312  0.36312  0.72624  1
