CIF file written using JARVIS-Tools package.
data_Te4MoW2S2
_symmetry_space_group_name_H-M  'R3m'
_cell_length_a       3.43209
_cell_length_b       3.43214
_cell_length_c       20.6695
_cell_angle_alpha    94.7899
_cell_angle_beta     89.9942
_cell_angle_gamma    120

_symmetry_Int_Tables_number  160
_chemical_formula_structural  Te4MoW2S2
_chemical_formula_sum  Te4MoW2S2
_cell_volume  209.87367881162243
_cell_formula_units_Z  1
loop_
  _symmetry_equiv_pos_site_id
 _symmetry_equiv_pos_as_xyz
 1  'x, y, z'
loop_
 _atom_site_type_symbol
 _atom_site_label
 _atom_site_symmetry_multiplicity
 _atom_site_fract_x
 _atom_site_fract_y
 _atom_site_fract_z
 _atom_site_fract_occupancy
 Mo  Mo1  1  0.66311  0.32621  0.33693  1
 S  S1  1  0.53139  0.06256  0.94001  1
 S  S2  1  0.58018  0.16035  0.08577  1
 Te  Te1  1  0.36009  0.72030  0.42758  1
 Te  Te2  1  0.75060  0.50119  0.60004  1
 Te  Te3  1  0.81158  0.62341  0.78226  1
 Te  Te4  1  0.29944  0.59875  0.24624  1
 W  W1  1  0.22244  0.44476  0.01285  1
 W  W2  1  0.44776  0.89566  0.69117  1
