CIF file written using JARVIS-Tools package.
data_LiCuS
_symmetry_space_group_name_H-M  'F-43m'
_cell_length_a       3.94026
_cell_length_b       3.94091
_cell_length_c       5.57427
_cell_angle_alpha    90
_cell_angle_beta     90
_cell_angle_gamma    90

_symmetry_Int_Tables_number  216
_chemical_formula_structural  LiCuS
_chemical_formula_sum  Li2Cu2S2
_cell_volume  86.55855593918987
_cell_formula_units_Z  2
loop_
  _symmetry_equiv_pos_site_id
 _symmetry_equiv_pos_as_xyz
 1  'x, y, z'
loop_
 _atom_site_type_symbol
 _atom_site_label
 _atom_site_symmetry_multiplicity
 _atom_site_fract_x
 _atom_site_fract_y
 _atom_site_fract_z
 _atom_site_fract_occupancy
 Cu  Cu1  1  0.00000  0.75006  0.41926  1
 Cu  Cu2  1  0.50000  0.24994  0.91926  1
 Li  Li1  1  0.00000  0.74995  -0.08078  1
 Li  Li2  1  0.50000  0.25005  0.41922  1
 S  S1  1  0.00000  0.25002  0.66930  1
 S  S2  1  0.50000  0.74998  0.16930  1
