CIF file written using JARVIS-Tools package.
data_Pr3Si2S8I
_symmetry_space_group_name_H-M  'C2/c'
_cell_length_a       7.87452
_cell_length_b       8.924
_cell_length_c       10.9214
_cell_angle_alpha    97.3679
_cell_angle_beta     90
_cell_angle_gamma    116.18

_symmetry_Int_Tables_number  15
_chemical_formula_structural  Pr3Si2S8I
_chemical_formula_sum  Pr6Si4S6I2
_cell_volume  681.6662293634373
_cell_formula_units_Z  2
loop_
  _symmetry_equiv_pos_site_id
 _symmetry_equiv_pos_as_xyz
 1  'x, y, z'
loop_
 _atom_site_type_symbol
 _atom_site_label
 _atom_site_symmetry_multiplicity
 _atom_site_fract_x
 _atom_site_fract_y
 _atom_site_fract_z
 _atom_site_fract_occupancy
 I  I1  1  0.01627  -0.00000  0.25000  1
 I  I2  1  0.98373  0.00000  0.75000  1
 Pr  Pr1  1  0.40041  0.00000  0.75000  1
 Pr  Pr2  1  0.07650  0.39575  0.68095  1
 Pr  Pr3  1  0.31925  0.39575  0.18095  1
 Pr  Pr4  1  0.68075  0.60425  0.81905  1
 Pr  Pr5  1  0.59959  -0.00000  0.25000  1
 Pr  Pr6  1  0.92350  0.60425  0.31905  1
 S  S1  1  0.28685  0.43563  0.91478  1
 S  S2  1  0.71315  0.56437  0.08522  1
 S  S3  1  0.58711  0.86462  0.95897  1
 S  S4  1  0.14879  0.43563  0.41478  1
 S  S5  1  0.39897  0.29003  0.64630  1
 S  S6  1  0.10894  0.70997  0.85370  1
 S  S7  1  0.41289  0.13538  0.04103  1
 S  S8  1  0.25062  0.70148  0.16247  1
 S  S9  1  0.45086  0.70148  0.66247  1
 S  S10  1  0.60103  0.70997  0.35370  1
 S  S11  1  0.74938  0.29852  0.83753  1
 S  S12  1  0.72249  0.13538  0.54103  1
 S  S13  1  0.85121  0.56437  0.58522  1
 S  S14  1  0.54914  0.29852  0.33753  1
 S  S15  1  0.27751  0.86462  0.45897  1
 S  S16  1  0.89106  0.29003  0.14630  1
 Si  Si1  1  0.69694  0.31928  0.02829  1
 Si  Si2  1  0.37766  0.68072  0.47171  1
 Si  Si3  1  0.62234  0.31928  0.52829  1
 Si  Si4  1  0.30306  0.68072  0.97171  1
