CIF file written using JARVIS-Tools package.
data_FeCuS2
_symmetry_space_group_name_H-M  'P-4m2'
_cell_length_a       5.22551
_cell_length_b       5.18056
_cell_length_c       5.18056
_cell_angle_alpha    90
_cell_angle_beta     90
_cell_angle_gamma    90

_symmetry_Int_Tables_number  115
_chemical_formula_structural  FeCuS2
_chemical_formula_sum  Fe2Cu2S4
_cell_volume  140.24327731172818
_cell_formula_units_Z  2
loop_
  _symmetry_equiv_pos_site_id
 _symmetry_equiv_pos_as_xyz
 1  'x, y, z'
loop_
 _atom_site_type_symbol
 _atom_site_label
 _atom_site_symmetry_multiplicity
 _atom_site_fract_x
 _atom_site_fract_y
 _atom_site_fract_z
 _atom_site_fract_occupancy
 Cu  Cu1  1  0.00000  0.50000  0.50000  1
 Cu  Cu2  1  0.00000  0.00000  0.00000  1
 Fe  Fe1  1  0.50000  0.00000  0.50000  1
 Fe  Fe2  1  0.50000  0.50000  0.00000  1
 S  S1  1  0.73882  0.25000  0.75000  1
 S  S2  1  0.26118  0.75000  0.75000  1
 S  S3  1  0.26118  0.25000  0.25000  1
 S  S4  1  0.73882  0.75000  0.25000  1
