CIF file written using JARVIS-Tools package.
data_Lu2MgGe2
_symmetry_space_group_name_H-M  'P4/mbm'
_cell_length_a       7.11419
_cell_length_b       7.11419
_cell_length_c       4.14368
_cell_angle_alpha    90
_cell_angle_beta     90
_cell_angle_gamma    90

_symmetry_Int_Tables_number  127
_chemical_formula_structural  Lu2MgGe2
_chemical_formula_sum  Lu4Mg2Ge4
_cell_volume  209.71862862392507
_cell_formula_units_Z  2
loop_
  _symmetry_equiv_pos_site_id
 _symmetry_equiv_pos_as_xyz
 1  'x, y, z'
loop_
 _atom_site_type_symbol
 _atom_site_label
 _atom_site_symmetry_multiplicity
 _atom_site_fract_x
 _atom_site_fract_y
 _atom_site_fract_z
 _atom_site_fract_occupancy
 Ge  Ge1  1  0.12607  0.62607  0.00000  1
 Ge  Ge2  1  0.37393  0.12607  0.00000  1
 Ge  Ge3  1  0.62607  0.87393  0.00000  1
 Ge  Ge4  1  0.87393  0.37393  0.00000  1
 Lu  Lu1  1  0.17663  0.32337  0.50000  1
 Lu  Lu2  1  0.32337  0.82337  0.50000  1
 Lu  Lu3  1  0.67663  0.17663  0.50000  1
 Lu  Lu4  1  0.82337  0.67663  0.50000  1
 Mg  Mg1  1  0.00000  0.00000  0.00000  1
 Mg  Mg2  1  0.50000  0.50000  0.00000  1
