CIF file written using JARVIS-Tools package.
data_LuPS4
_symmetry_space_group_name_H-M  'P2_1/c'
_cell_length_a       8.13534
_cell_length_b       6.44747
_cell_length_c       12.5194
_cell_angle_alpha    90
_cell_angle_beta     122.797
_cell_angle_gamma    90

_symmetry_Int_Tables_number  14
_chemical_formula_structural  LuPS4
_chemical_formula_sum  Lu4P4S6
_cell_volume  551.9992939565575
_cell_formula_units_Z  4
loop_
  _symmetry_equiv_pos_site_id
 _symmetry_equiv_pos_as_xyz
 1  'x, y, z'
loop_
 _atom_site_type_symbol
 _atom_site_label
 _atom_site_symmetry_multiplicity
 _atom_site_fract_x
 _atom_site_fract_y
 _atom_site_fract_z
 _atom_site_fract_occupancy
 Lu  Lu1  1  0.56147  0.32601  0.16663  1
 Lu  Lu2  1  0.43853  0.82601  0.33337  1
 Lu  Lu3  1  0.43853  0.67399  0.83337  1
 Lu  Lu4  1  0.56147  0.17399  0.66663  1
 P  P1  1  0.70238  0.22566  0.96732  1
 P  P2  1  0.29762  0.72566  0.53268  1
 P  P3  1  0.29762  0.77434  0.03268  1
 P  P4  1  0.70238  0.27434  0.46732  1
 S  S1  1  0.41180  0.23300  0.41062  1
 S  S2  1  0.58820  0.73300  0.08938  1
 S  S3  1  0.58820  0.76700  0.58938  1
 S  S4  1  0.24429  0.94608  0.63033  1
 S  S5  1  0.87612  0.25461  0.65788  1
 S  S6  1  0.12388  0.75461  0.84212  1
 S  S7  1  0.41180  0.26700  0.91062  1
 S  S8  1  0.26444  0.45342  0.60772  1
 S  S9  1  0.73556  0.54658  0.39228  1
 S  S10  1  0.26444  0.04658  0.10772  1
 S  S11  1  0.12388  0.74539  0.34212  1
 S  S12  1  0.73556  0.95342  0.89228  1
 S  S13  1  0.75571  0.05392  0.36967  1
 S  S14  1  0.24429  0.55392  0.13033  1
 S  S15  1  0.87612  0.24539  0.15788  1
 S  S16  1  0.75571  0.44608  0.86967  1
