CIF file written using JARVIS-Tools package.
data_O
_symmetry_space_group_name_H-M  'C2/m'
_cell_length_a       4.16223
_cell_length_b       5.13721
_cell_length_c       5.13721
_cell_angle_alpha    71.7635
_cell_angle_beta     70.0438
_cell_angle_gamma    70.0438

_symmetry_Int_Tables_number  12
_chemical_formula_structural  O
_chemical_formula_sum  O8
_cell_volume  94.62004572850623
_cell_formula_units_Z  8
loop_
  _symmetry_equiv_pos_site_id
 _symmetry_equiv_pos_as_xyz
 1  'x, y, z'
loop_
 _atom_site_type_symbol
 _atom_site_label
 _atom_site_symmetry_multiplicity
 _atom_site_fract_x
 _atom_site_fract_y
 _atom_site_fract_z
 _atom_site_fract_occupancy
 O  O1  1  0.83716  0.28364  0.77903  1
 O  O2  1  0.16284  0.22097  0.71636  1
 O  O3  1  0.16284  0.71636  0.22097  1
 O  O4  1  0.83716  0.77903  0.28364  1
 O  O5  1  0.82032  0.21817  0.21817  1
 O  O6  1  0.17968  0.78183  0.78183  1
 O  O7  1  0.14627  0.15538  0.15538  1
 O  O8  1  0.85373  0.84462  0.84462  1
