CIF file written using JARVIS-Tools package.
data_Re2O7
_symmetry_space_group_name_H-M  'Cmcm'
_cell_length_a       5.20282
_cell_length_b       5.37914
_cell_length_c       8.73262
_cell_angle_alpha    90
_cell_angle_beta     107.331
_cell_angle_gamma    90

_symmetry_Int_Tables_number  63
_chemical_formula_structural  Re2O7
_chemical_formula_sum  Re4O4
_cell_volume  233.3012622732566
_cell_formula_units_Z  2
loop_
  _symmetry_equiv_pos_site_id
 _symmetry_equiv_pos_as_xyz
 1  'x, y, z'
loop_
 _atom_site_type_symbol
 _atom_site_label
 _atom_site_symmetry_multiplicity
 _atom_site_fract_x
 _atom_site_fract_y
 _atom_site_fract_z
 _atom_site_fract_occupancy
 O  O1  1  0.41401  0.00000  0.82801  1
 O  O2  1  0.14067  0.75000  0.57161  1
 O  O3  1  0.56906  0.75000  0.42839  1
 O  O4  1  0.85933  0.25000  0.42839  1
 O  O5  1  0.43094  0.25000  0.57161  1
 O  O6  1  0.87066  0.00000  0.74132  1
 O  O7  1  0.41401  0.50000  0.82801  1
 O  O8  1  0.58599  0.50000  0.17199  1
 O  O9  1  0.12934  0.50000  0.25868  1
 O  O10  1  0.87066  0.50000  0.74132  1
 O  O11  1  0.12934  0.00000  0.25868  1
 O  O12  1  0.83727  0.25000  -0.00000  1
 O  O13  1  0.16273  0.75000  0.00000  1
 O  O14  1  0.58599  0.00000  0.17199  1
 Re  Re1  1  0.14070  0.75000  0.77099  1
 Re  Re2  1  0.36971  0.75000  0.22901  1
 Re  Re3  1  0.85930  0.25000  0.22901  1
 Re  Re4  1  0.63029  0.25000  0.77099  1
