CIF file written using JARVIS-Tools package.
data_O
_symmetry_space_group_name_H-M  'R-3m'
_cell_length_a       4.16825
_cell_length_b       4.16825
_cell_length_c       4.16825
_cell_angle_alpha    46.7759
_cell_angle_beta     46.7759
_cell_angle_gamma    46.776

_symmetry_Int_Tables_number  166
_chemical_formula_structural  O
_chemical_formula_sum  O2
_cell_volume  35.133468653745545
_cell_formula_units_Z  2
loop_
  _symmetry_equiv_pos_site_id
 _symmetry_equiv_pos_as_xyz
 1  'x, y, z'
loop_
 _atom_site_type_symbol
 _atom_site_label
 _atom_site_symmetry_multiplicity
 _atom_site_fract_x
 _atom_site_fract_y
 _atom_site_fract_z
 _atom_site_fract_occupancy
 O  O1  1  0.94452  0.94452  0.94452  1
 O  O2  1  0.05548  0.05548  0.05548  1
