CIF file written using JARVIS-Tools package.
data_Y2Cr2C3
_symmetry_space_group_name_H-M  'C2/m'
_cell_length_a       3.39951
_cell_length_b       5.46588
_cell_length_c       5.557
_cell_angle_alpha    104.991
_cell_angle_beta     90
_cell_angle_gamma    108.118

_symmetry_Int_Tables_number  12
_chemical_formula_structural  Y2Cr2C3
_chemical_formula_sum  Y2Cr2C3
_cell_volume  94.43198479502664
_cell_formula_units_Z  1
loop_
  _symmetry_equiv_pos_site_id
 _symmetry_equiv_pos_as_xyz
 1  'x, y, z'
loop_
 _atom_site_type_symbol
 _atom_site_label
 _atom_site_symmetry_multiplicity
 _atom_site_fract_x
 _atom_site_fract_y
 _atom_site_fract_z
 _atom_site_fract_occupancy
 C  C1  1  0.71218  0.42437  0.77160  1
 C  C2  1  0.28782  0.57563  0.22840  1
 C  C3  1  0.00000  0.00000  0.00000  1
 Cr  Cr1  1  0.15698  0.31396  0.88997  1
 Cr  Cr2  1  0.84302  0.68604  0.11003  1
 Y  Y1  1  0.39478  0.78956  0.68326  1
 Y  Y2  1  0.60522  0.21044  0.31674  1
