CIF file written using JARVIS-Tools package.
data_UO2
_symmetry_space_group_name_H-M  'P4_2/mnm'
_cell_length_a       5.12848
_cell_length_b       5.12848
_cell_length_c       3.60006
_cell_angle_alpha    90
_cell_angle_beta     90
_cell_angle_gamma    90

_symmetry_Int_Tables_number  136
_chemical_formula_structural  UO2
_chemical_formula_sum  U2O4
_cell_volume  94.68635997196684
_cell_formula_units_Z  2
loop_
  _symmetry_equiv_pos_site_id
 _symmetry_equiv_pos_as_xyz
 1  'x, y, z'
loop_
 _atom_site_type_symbol
 _atom_site_label
 _atom_site_symmetry_multiplicity
 _atom_site_fract_x
 _atom_site_fract_y
 _atom_site_fract_z
 _atom_site_fract_occupancy
 O  O1  1  0.30817  0.30817  0.00000  1
 O  O2  1  0.69183  0.69183  0.00000  1
 O  O3  1  0.19183  0.80817  0.50000  1
 O  O4  1  0.80817  0.19183  0.50000  1
 U  U1  1  0.00000  0.00000  0.00000  1
 U  U2  1  0.50000  0.50000  0.50000  1
