CIF file written using JARVIS-Tools package.
data_Te2MoWSeS
_symmetry_space_group_name_H-M  'P3m1'
_cell_length_a       3.40516
_cell_length_b       3.40516
_cell_length_c       36.5864
_cell_angle_alpha    90.0003
_cell_angle_beta     90
_cell_angle_gamma    120

_symmetry_Int_Tables_number  156
_chemical_formula_structural  Te2MoWSeS
_chemical_formula_sum  Te4Mo2W2Se2S2
_cell_volume  367.38879110412404
_cell_formula_units_Z  2
loop_
  _symmetry_equiv_pos_site_id
 _symmetry_equiv_pos_as_xyz
 1  'x, y, z'
loop_
 _atom_site_type_symbol
 _atom_site_label
 _atom_site_symmetry_multiplicity
 _atom_site_fract_x
 _atom_site_fract_y
 _atom_site_fract_z
 _atom_site_fract_occupancy
 Mo  Mo1  1  0.33332  0.66664  0.09397  1
 Mo  Mo2  1  0.66667  0.33333  0.28210  1
 S  S1  1  0.33332  0.66664  0.69700  1
 S  S2  1  0.33339  0.66679  0.61457  1
 Se  Se1  1  0.33335  0.66669  0.32718  1
 Se  Se2  1  0.33332  0.66665  0.23702  1
 Te  Te1  1  0.66663  0.33326  0.04275  1
 Te  Te2  1  0.66665  0.33329  0.41942  1
 Te  Te3  1  0.66667  0.33335  0.14526  1
 Te  Te4  1  0.66667  0.33333  0.52265  1
 W  W1  1  0.33332  0.66665  0.47101  1
 W  W2  1  0.66669  0.33338  0.65581  1
