CIF file written using JARVIS-Tools package.
data_Yb2Ni12As7
_symmetry_space_group_name_H-M  'P-6'
_cell_length_a       9.39694
_cell_length_b       3.82763
_cell_length_c       9.39702
_cell_angle_alpha    90
_cell_angle_beta     120
_cell_angle_gamma    90

_symmetry_Int_Tables_number  174
_chemical_formula_structural  Yb2Ni12As7
_chemical_formula_sum  Yb2Ni2As7
_cell_volume  292.70871388527195
_cell_formula_units_Z  1
loop_
  _symmetry_equiv_pos_site_id
 _symmetry_equiv_pos_as_xyz
 1  'x, y, z'
loop_
 _atom_site_type_symbol
 _atom_site_label
 _atom_site_symmetry_multiplicity
 _atom_site_fract_x
 _atom_site_fract_y
 _atom_site_fract_z
 _atom_site_fract_occupancy
 As  As1  1  0.59406  0.00000  0.71209  1
 As  As2  1  0.89161  0.50000  0.59286  1
 As  As3  1  0.70125  0.50000  0.10838  1
 As  As4  1  0.40713  0.50000  0.29875  1
 As  As5  1  0.00001  0.00000  0.00000  1
 As  As6  1  0.11802  0.00000  0.40594  1
 As  As7  1  0.28791  0.00000  0.88197  1
 Ni  Ni1  1  0.56155  0.00000  0.94320  1
 Ni  Ni2  1  0.42580  0.50000  0.05007  1
 Ni  Ni3  1  0.94992  0.50000  0.37573  1
 Ni  Ni4  1  0.62426  0.50000  0.57420  1
 Ni  Ni5  1  0.38165  0.00000  0.43846  1
 Ni  Ni6  1  0.78857  0.50000  0.90422  1
 Ni  Ni7  1  0.09579  0.50000  0.88432  1
 Ni  Ni8  1  0.11567  0.50000  0.21147  1
 Ni  Ni9  1  0.28120  0.00000  0.12763  1
 Ni  Ni10  1  0.87238  0.00000  0.15356  1
 Ni  Ni11  1  0.84643  0.00000  0.71881  1
 Ni  Ni12  1  0.05680  0.00000  0.61834  1
 Yb  Yb1  1  0.33333  0.50000  0.66666  1
 Yb  Yb2  1  0.66666  0.00000  0.33333  1
