CIF file written using JARVIS-Tools package.
data_Tm4InNi2Ge4
_symmetry_space_group_name_H-M  'C2/m'
_cell_length_a       4.17771
_cell_length_b       6.9779
_cell_length_c       7.94541
_cell_angle_alpha    107.892
_cell_angle_beta     105.242
_cell_angle_gamma    90

_symmetry_Int_Tables_number  12
_chemical_formula_structural  Tm4InNi2Ge4
_chemical_formula_sum  Tm4InNi2Ge4
_cell_volume  211.84202518785088
_cell_formula_units_Z  1
loop_
  _symmetry_equiv_pos_site_id
 _symmetry_equiv_pos_as_xyz
 1  'x, y, z'
loop_
 _atom_site_type_symbol
 _atom_site_label
 _atom_site_symmetry_multiplicity
 _atom_site_fract_x
 _atom_site_fract_y
 _atom_site_fract_z
 _atom_site_fract_occupancy
 Ge  Ge1  1  0.06623  0.66287  0.13246  1
 Ge  Ge2  1  0.93377  0.33713  0.86754  1
 Ge  Ge3  1  0.20155  0.26232  0.40310  1
 Ge  Ge4  1  0.79845  0.73768  0.59690  1
 In  In1  1  0.00000  0.00000  0.00000  1
 Ni  Ni1  1  0.21800  0.63761  0.43600  1
 Ni  Ni2  1  0.78200  0.36239  0.56400  1
 Tm  Tm1  1  0.34424  0.06308  0.68847  1
 Tm  Tm2  1  0.65576  0.93692  0.31153  1
 Tm  Tm3  1  0.40822  0.60913  0.81644  1
 Tm  Tm4  1  0.59178  0.39087  0.18356  1
