CIF file written using JARVIS-Tools package.
data_Hg3As
_symmetry_space_group_name_H-M  'I4/mmm'
_cell_length_a       6.38566
_cell_length_b       6.38566
_cell_length_c       6.38566
_cell_angle_alpha    142.007
_cell_angle_beta     142.007
_cell_angle_gamma    54.8186

_symmetry_Int_Tables_number  139
_chemical_formula_structural  Hg3As
_chemical_formula_sum  Hg3As
_cell_volume  97.9709519522832
_cell_formula_units_Z  1
loop_
  _symmetry_equiv_pos_site_id
 _symmetry_equiv_pos_as_xyz
 1  'x, y, z'
loop_
 _atom_site_type_symbol
 _atom_site_label
 _atom_site_symmetry_multiplicity
 _atom_site_fract_x
 _atom_site_fract_y
 _atom_site_fract_z
 _atom_site_fract_occupancy
 As  As1  1  0.00000  0.00000  0.00000  1
 Hg  Hg1  1  0.75000  0.25000  0.50000  1
 Hg  Hg2  1  0.25000  0.75000  0.50000  1
 Hg  Hg3  1  0.50000  0.50000  0.00000  1
