CIF file written using JARVIS-Tools package.
data_VRh
_symmetry_space_group_name_H-M  'Cmmm'
_cell_length_a       4.44424
_cell_length_b       4.44424
_cell_length_c       2.78553
_cell_angle_alpha    90
_cell_angle_beta     90
_cell_angle_gamma    82.2521

_symmetry_Int_Tables_number  65
_chemical_formula_structural  VRh
_chemical_formula_sum  V2Rh2
_cell_volume  54.51578696509585
_cell_formula_units_Z  2
loop_
  _symmetry_equiv_pos_site_id
 _symmetry_equiv_pos_as_xyz
 1  'x, y, z'
loop_
 _atom_site_type_symbol
 _atom_site_label
 _atom_site_symmetry_multiplicity
 _atom_site_fract_x
 _atom_site_fract_y
 _atom_site_fract_z
 _atom_site_fract_occupancy
 Rh  Rh1  1  0.21360  0.21360  0.50000  1
 Rh  Rh2  1  0.78640  0.78640  0.50000  1
 V  V1  1  0.29695  0.70305  0.00000  1
 V  V2  1  0.70305  0.29695  0.00000  1
