CIF file written using JARVIS-Tools package.
data_TiCoO3
_symmetry_space_group_name_H-M  'R-3'
_cell_length_a       5.32679
_cell_length_b       5.32679
_cell_length_c       5.32679
_cell_angle_alpha    55.899
_cell_angle_beta     55.899
_cell_angle_gamma    55.899

_symmetry_Int_Tables_number  148
_chemical_formula_structural  TiCoO3
_chemical_formula_sum  Ti2Co2O6
_cell_volume  96.71779107460596
_cell_formula_units_Z  2
loop_
  _symmetry_equiv_pos_site_id
 _symmetry_equiv_pos_as_xyz
 1  'x, y, z'
loop_
 _atom_site_type_symbol
 _atom_site_label
 _atom_site_symmetry_multiplicity
 _atom_site_fract_x
 _atom_site_fract_y
 _atom_site_fract_z
 _atom_site_fract_occupancy
 Co  Co1  1  0.65693  0.65693  0.65693  1
 Co  Co2  1  0.34307  0.34307  0.34307  1
 O  O1  1  0.56077  0.93900  0.25403  1
 O  O2  1  0.25403  0.56077  0.93900  1
 O  O3  1  0.93900  0.25403  0.56077  1
 O  O4  1  0.43923  0.06100  0.74597  1
 O  O5  1  0.74597  0.43923  0.06100  1
 O  O6  1  0.06100  0.74597  0.43923  1
 Ti  Ti1  1  0.85537  0.85537  0.85537  1
 Ti  Ti2  1  0.14463  0.14463  0.14463  1
