CIF file written using JARVIS-Tools package.
data_Pr3SiAgS7
_symmetry_space_group_name_H-M  'P6_3'
_cell_length_a       10.3709
_cell_length_b       10.3709
_cell_length_c       5.79363
_cell_angle_alpha    90
_cell_angle_beta     90
_cell_angle_gamma    120

_symmetry_Int_Tables_number  173
_chemical_formula_structural  Pr3SiAgS7
_chemical_formula_sum  Pr6Si2Ag2S4
_cell_volume  539.6530267963115
_cell_formula_units_Z  2
loop_
  _symmetry_equiv_pos_site_id
 _symmetry_equiv_pos_as_xyz
 1  'x, y, z'
loop_
 _atom_site_type_symbol
 _atom_site_label
 _atom_site_symmetry_multiplicity
 _atom_site_fract_x
 _atom_site_fract_y
 _atom_site_fract_z
 _atom_site_fract_occupancy
 Ag  Ag1  1  0.00000  0.00000  0.28498  1
 Ag  Ag2  1  0.00000  0.00000  0.78498  1
 Pr  Pr1  1  0.76329  0.12297  0.25013  1
 Pr  Pr2  1  0.23671  0.87703  0.75013  1
 Pr  Pr3  1  0.87703  0.64032  0.25013  1
 Pr  Pr4  1  0.35968  0.23671  0.25013  1
 Pr  Pr5  1  0.64032  0.76329  0.75013  1
 Pr  Pr6  1  0.12297  0.35968  0.75013  1
 S  S1  1  0.66667  0.33333  0.02988  1
 S  S2  1  0.73193  0.82216  0.26236  1
 S  S3  1  0.88466  0.40943  0.51977  1
 S  S4  1  0.11534  0.59057  0.01977  1
 S  S5  1  0.59057  0.47523  0.51977  1
 S  S6  1  0.33333  0.66667  0.52988  1
 S  S7  1  0.47523  0.88466  0.01977  1
 S  S8  1  0.90977  0.73193  0.76236  1
 S  S9  1  0.82216  0.09023  0.76236  1
 S  S10  1  0.17784  0.90977  0.26236  1
 S  S11  1  0.52477  0.11534  0.51977  1
 S  S12  1  0.26807  0.17784  0.76236  1
 S  S13  1  0.40943  0.52477  0.01977  1
 S  S14  1  0.09023  0.26807  0.26236  1
 Si  Si1  1  0.33333  0.66667  0.16444  1
 Si  Si2  1  0.66667  0.33333  0.66444  1
