CIF file written using JARVIS-Tools package.
data_SiGeN2O
_symmetry_space_group_name_H-M  'P2_1'
_cell_length_a       5.3984
_cell_length_b       5.02256
_cell_length_c       5.41064
_cell_angle_alpha    90
_cell_angle_beta     116.825
_cell_angle_gamma    90

_symmetry_Int_Tables_number  4
_chemical_formula_structural  SiGeN2O
_chemical_formula_sum  Si2Ge2N4O2
_cell_volume  130.91612311267306
_cell_formula_units_Z  2
loop_
  _symmetry_equiv_pos_site_id
 _symmetry_equiv_pos_as_xyz
 1  'x, y, z'
loop_
 _atom_site_type_symbol
 _atom_site_label
 _atom_site_symmetry_multiplicity
 _atom_site_fract_x
 _atom_site_fract_y
 _atom_site_fract_z
 _atom_site_fract_occupancy
 Ge  Ge1  1  0.52205  0.31644  0.17611  1
 Ge  Ge2  1  0.47795  0.81644  0.82389  1
 N  N1  1  0.58974  0.67467  0.17246  1
 N  N2  1  0.15121  0.65386  0.57628  1
 N  N3  1  0.84879  0.15386  0.42372  1
 N  N4  1  0.41026  0.17467  0.82754  1
 O  O1  1  0.25534  0.24411  0.27435  1
 O  O2  1  0.74466  0.74411  0.72565  1
 Si  Si1  1  0.16586  0.31492  0.51981  1
 Si  Si2  1  0.83414  0.81492  0.48019  1
