CIF file written using JARVIS-Tools package.
data_Ti2NiS4
_symmetry_space_group_name_H-M  'C2/m'
_cell_length_a       3.40317
_cell_length_b       5.87545
_cell_length_c       6.57231
_cell_angle_alpha    116.365
_cell_angle_beta     105.005
_cell_angle_gamma    90

_symmetry_Int_Tables_number  12
_chemical_formula_structural  Ti2NiS4
_chemical_formula_sum  Ti2NiS4
_cell_volume  112.72229592487464
_cell_formula_units_Z  1
loop_
  _symmetry_equiv_pos_site_id
 _symmetry_equiv_pos_as_xyz
 1  'x, y, z'
loop_
 _atom_site_type_symbol
 _atom_site_label
 _atom_site_symmetry_multiplicity
 _atom_site_fract_x
 _atom_site_fract_y
 _atom_site_fract_z
 _atom_site_fract_occupancy
 Ni  Ni1  1  0.00000  0.00000  0.00000  1
 S  S1  1  0.11837  0.44815  0.23674  1
 S  S2  1  0.88163  0.55185  0.76326  1
 S  S3  1  0.37662  0.04032  0.75324  1
 S  S4  1  0.62338  0.95968  0.24676  1
 Ti  Ti1  1  0.25617  0.26260  0.51235  1
 Ti  Ti2  1  0.74383  0.73740  0.48765  1
