CIF file written using JARVIS-Tools package.
data_Sm2Ge5Ru3
_symmetry_space_group_name_H-M  'Ibam'
_cell_length_a       5.86674
_cell_length_b       8.5121
_cell_length_c       8.51216
_cell_angle_alpha    94.5292
_cell_angle_beta     110.155
_cell_angle_gamma    110.156

_symmetry_Int_Tables_number  72
_chemical_formula_structural  Sm2Ge5Ru3
_chemical_formula_sum  Sm4Ge0Ru6
_cell_volume  365.06534193994844
_cell_formula_units_Z  2
loop_
  _symmetry_equiv_pos_site_id
 _symmetry_equiv_pos_as_xyz
 1  'x, y, z'
loop_
 _atom_site_type_symbol
 _atom_site_label
 _atom_site_symmetry_multiplicity
 _atom_site_fract_x
 _atom_site_fract_y
 _atom_site_fract_z
 _atom_site_fract_occupancy
 Ge  Ge1  1  0.25004  0.20903  0.79099  1
 Ge  Ge2  1  0.67352  0.26219  0.08486  1
 Ge  Ge3  1  0.25002  0.79093  0.20905  1
 Ge  Ge4  1  0.17350  0.08487  0.26214  1
 Ge  Ge5  1  0.74996  0.79097  0.20901  1
 Ge  Ge6  1  0.74999  0.49998  0.50002  1
 Ge  Ge7  1  0.82650  0.91513  0.73786  1
 Ge  Ge8  1  0.74998  0.20907  0.79095  1
 Ge  Ge9  1  0.32648  0.73781  0.91514  1
 Ge  Ge10  1  0.25001  0.50002  0.49998  1
 Ru  Ru1  1  0.40684  0.26026  0.55359  1
 Ru  Ru2  1  0.59316  0.73974  0.44641  1
 Ru  Ru3  1  0.09312  0.44636  0.73971  1
 Ru  Ru4  1  0.74999  0.00001  1.00000  1
 Ru  Ru5  1  0.25001  -0.00001  0.00000  1
 Ru  Ru6  1  0.90689  0.55365  0.26029  1
 Sm  Sm1  1  0.26858  0.40679  0.13041  1
 Sm  Sm2  1  0.76855  0.13040  0.40675  1
 Sm  Sm3  1  0.23144  0.86960  0.59325  1
 Sm  Sm4  1  0.73142  0.59320  0.86959  1
