CIF file written using JARVIS-Tools package.
data_Zn3TeAs2Pb3O14
_symmetry_space_group_name_H-M  'P321'
_cell_length_a       8.6095
_cell_length_b       8.6095
_cell_length_c       5.29025
_cell_angle_alpha    90
_cell_angle_beta     90
_cell_angle_gamma    120

_symmetry_Int_Tables_number  150
_chemical_formula_structural  Zn3TeAs2Pb3O14
_chemical_formula_sum  Zn3TeAs2Pb3O4
_cell_volume  339.59534554582876
_cell_formula_units_Z  1
loop_
  _symmetry_equiv_pos_site_id
 _symmetry_equiv_pos_as_xyz
 1  'x, y, z'
loop_
 _atom_site_type_symbol
 _atom_site_label
 _atom_site_symmetry_multiplicity
 _atom_site_fract_x
 _atom_site_fract_y
 _atom_site_fract_z
 _atom_site_fract_occupancy
 As  As1  1  0.33333  0.66667  0.54613  1
 As  As2  1  0.66667  0.33333  0.45387  1
 O  O1  1  0.78657  0.91205  0.21323  1
 O  O2  1  0.53810  0.72169  0.68013  1
 O  O3  1  0.46190  0.18358  0.31987  1
 O  O4  1  0.81642  0.27831  0.31987  1
 O  O5  1  0.27831  0.81642  0.68013  1
 O  O6  1  0.08795  0.87452  0.21323  1
 O  O7  1  0.12548  0.21343  0.21323  1
 O  O8  1  0.66667  0.33333  0.77641  1
 O  O9  1  0.87452  0.08795  0.78677  1
 O  O10  1  0.18358  0.46190  0.68013  1
 O  O11  1  0.72169  0.53810  0.31987  1
 O  O12  1  0.33333  0.66667  0.22359  1
 O  O13  1  0.21343  0.12548  0.78677  1
 O  O14  1  0.91205  0.78657  0.78677  1
 Pb  Pb1  1  -0.00000  0.59651  0.00000  1
 Pb  Pb2  1  0.40349  0.40349  0.00000  1
 Pb  Pb3  1  0.59651  -0.00000  0.00000  1
 Te  Te1  1  0.00000  0.00000  0.00000  1
 Zn  Zn1  1  -0.00000  0.24080  0.50000  1
 Zn  Zn2  1  0.75920  0.75920  0.50000  1
 Zn  Zn3  1  0.24080  -0.00000  0.50000  1
