CIF file written using JARVIS-Tools package.
data_NaLaO2
_symmetry_space_group_name_H-M  'R-3m'
_cell_length_a       3.6726
_cell_length_b       5.93088
_cell_length_c       3.67261
_cell_angle_alpha    108.036
_cell_angle_beta     60
_cell_angle_gamma    108.036

_symmetry_Int_Tables_number  166
_chemical_formula_structural  NaLaO2
_chemical_formula_sum  NaLaO2
_cell_volume  64.69969298943202
_cell_formula_units_Z  1
loop_
  _symmetry_equiv_pos_site_id
 _symmetry_equiv_pos_as_xyz
 1  'x, y, z'
loop_
 _atom_site_type_symbol
 _atom_site_label
 _atom_site_symmetry_multiplicity
 _atom_site_fract_x
 _atom_site_fract_y
 _atom_site_fract_z
 _atom_site_fract_occupancy
 La  La1  1  0.50000  0.50000  0.50000  1
 Na  Na1  1  0.00000  0.00000  0.00000  1
 O  O1  1  0.75971  0.27914  0.75971  1
 O  O2  1  0.24029  0.72086  0.24029  1
