CIF file written using JARVIS-Tools package.
data_Tm2Cr2C3
_symmetry_space_group_name_H-M  'C2/m'
_cell_length_a       3.32265
_cell_length_b       5.48046
_cell_length_c       5.45996
_cell_angle_alpha    105.419
_cell_angle_beta     107.715
_cell_angle_gamma    90

_symmetry_Int_Tables_number  12
_chemical_formula_structural  Tm2Cr2C3
_chemical_formula_sum  Tm2Cr2C3
_cell_volume  90.94560048240889
_cell_formula_units_Z  1
loop_
  _symmetry_equiv_pos_site_id
 _symmetry_equiv_pos_as_xyz
 1  'x, y, z'
loop_
 _atom_site_type_symbol
 _atom_site_label
 _atom_site_symmetry_multiplicity
 _atom_site_fract_x
 _atom_site_fract_y
 _atom_site_fract_z
 _atom_site_fract_occupancy
 C  C1  1  0.28236  0.23518  0.56471  1
 C  C2  1  0.71764  0.76482  0.43529  1
 C  C3  1  0.00000  0.00000  0.00000  1
 Cr  Cr1  1  0.84454  0.11439  0.68908  1
 Cr  Cr2  1  0.15546  0.88561  0.31092  1
 Tm  Tm1  1  0.60745  0.31626  0.21489  1
 Tm  Tm2  1  0.39255  0.68374  0.78511  1
