CIF file written using JARVIS-Tools package.
data_Te2MoWSeS
_symmetry_space_group_name_H-M  'P3m1'
_cell_length_a       3.39861
_cell_length_b       3.39861
_cell_length_c       38.7201
_cell_angle_alpha    90
_cell_angle_beta     90
_cell_angle_gamma    120

_symmetry_Int_Tables_number  156
_chemical_formula_structural  Te2MoWSeS
_chemical_formula_sum  Te4Mo2W2Se2S2
_cell_volume  387.320040181077
_cell_formula_units_Z  2
loop_
  _symmetry_equiv_pos_site_id
 _symmetry_equiv_pos_as_xyz
 1  'x, y, z'
loop_
 _atom_site_type_symbol
 _atom_site_label
 _atom_site_symmetry_multiplicity
 _atom_site_fract_x
 _atom_site_fract_y
 _atom_site_fract_z
 _atom_site_fract_occupancy
 Mo  Mo1  1  0.33331  0.66661  0.09390  1
 Mo  Mo2  1  0.66669  0.33338  0.65756  1
 S  S1  1  0.33336  0.66672  0.32076  1
 S  S2  1  0.33335  0.66671  0.24284  1
 Se  Se1  1  0.66665  0.33329  0.42687  1
 Se  Se2  1  0.66665  0.33330  0.51243  1
 Te  Te1  1  0.33335  0.66671  0.70591  1
 Te  Te2  1  0.66664  0.33328  0.04554  1
 Te  Te3  1  0.66664  0.33329  0.14239  1
 Te  Te4  1  0.33336  0.66672  0.60910  1
 W  W1  1  0.33331  0.66662  0.46964  1
 W  W2  1  0.66669  0.33338  0.28180  1
