CIF file written using JARVIS-Tools package.
data_Mn2Al4Si5O18
_symmetry_space_group_name_H-M  'Cccm'
_cell_length_a       9.42604
_cell_length_b       9.73577
_cell_length_c       9.84223
_cell_angle_alpha    119.643
_cell_angle_beta     90
_cell_angle_gamma    90

_symmetry_Int_Tables_number  66
_chemical_formula_structural  Mn2Al4Si5O18
_chemical_formula_sum  Mn4Al8Si0O36
_cell_volume  785.0105604577352
_cell_formula_units_Z  2
loop_
  _symmetry_equiv_pos_site_id
 _symmetry_equiv_pos_as_xyz
 1  'x, y, z'
loop_
 _atom_site_type_symbol
 _atom_site_label
 _atom_site_symmetry_multiplicity
 _atom_site_fract_x
 _atom_site_fract_y
 _atom_site_fract_z
 _atom_site_fract_occupancy
 Al  Al1  1  0.24971  0.50000  0.50000  1
 Al  Al2  1  0.25029  0.00000  0.50000  1
 Al  Al3  1  0.74971  0.00000  0.50000  1
 Al  Al4  1  0.00000  0.74596  0.10913  1
 Al  Al5  1  0.75029  0.50000  0.50000  1
 Al  Al6  1  0.50000  0.36317  0.10913  1
 Al  Al7  1  0.50000  0.63683  0.89087  1
 Al  Al8  1  0.00000  0.25404  0.89087  1
 Mn  Mn1  1  0.25000  0.33749  0.67498  1
 Mn  Mn2  1  0.25000  0.66251  0.32502  1
 Mn  Mn3  1  0.75000  0.33749  0.67498  1
 Mn  Mn4  1  0.75000  0.66251  0.32502  1
 O  O1  1  0.64349  0.14160  0.65551  1
 O  O2  1  0.00000  0.05752  0.75033  1
 O  O3  1  0.00000  0.94248  0.24967  1
 O  O4  1  0.50000  0.78860  0.08196  1
 O  O5  1  0.50000  0.21140  0.91804  1
 O  O6  1  0.00000  0.70664  0.91804  1
 O  O7  1  0.00000  0.29336  0.08196  1
 O  O8  1  0.85651  0.48609  0.34449  1
 O  O9  1  0.85651  0.51391  0.65551  1
 O  O10  1  0.64349  0.85840  0.34449  1
 O  O11  1  0.84800  0.64761  0.12864  1
 O  O12  1  0.14349  0.48609  0.34449  1
 O  O13  1  0.35651  0.85840  0.34449  1
 O  O14  1  0.35651  0.14160  0.65551  1
 O  O15  1  0.84800  0.35240  0.87136  1
 O  O16  1  0.50000  0.69281  0.75033  1
 O  O17  1  0.35662  0.34803  0.49613  1
 O  O18  1  0.35662  0.65197  0.50387  1
 O  O19  1  0.14338  0.85190  0.50388  1
 O  O20  1  0.14338  0.14810  0.49612  1
 O  O21  1  0.14349  0.51391  0.65551  1
 O  O22  1  0.50000  0.30719  0.24967  1
 O  O23  1  0.34800  0.48103  0.12864  1
 O  O24  1  0.00000  0.74813  0.66768  1
 O  O25  1  0.00000  0.25187  0.33232  1
 O  O26  1  0.65201  0.48103  0.12864  1
 O  O27  1  0.85662  0.85190  0.50388  1
 O  O28  1  0.65201  0.51896  0.87136  1
 O  O29  1  0.15200  0.64761  0.12864  1
 O  O30  1  0.85662  0.14810  0.49612  1
 O  O31  1  0.34800  0.51896  0.87136  1
 O  O32  1  0.64338  0.34803  0.49613  1
 O  O33  1  0.50000  0.08044  0.33232  1
 O  O34  1  0.64338  0.65197  0.50387  1
 O  O35  1  0.50000  0.91956  0.66768  1
 O  O36  1  0.15200  0.35240  0.87136  1
 Si  Si1  1  0.75000  0.50000  -0.00000  1
 Si  Si2  1  0.00000  0.87812  0.61079  1
 Si  Si3  1  0.00000  0.62305  0.73286  1
 Si  Si4  1  0.50000  0.26733  0.38921  1
 Si  Si5  1  0.25000  0.50000  -0.00000  1
 Si  Si6  1  0.50000  0.10981  0.73286  1
 Si  Si7  1  0.50000  0.89019  0.26714  1
 Si  Si8  1  0.50000  0.73267  0.61079  1
 Si  Si9  1  0.00000  0.37695  0.26714  1
 Si  Si10  1  0.00000  0.12188  0.38921  1
