CIF file written using JARVIS-Tools package.
data_Ta2O5
_symmetry_space_group_name_H-M  'C2'
_cell_length_a       3.93079
_cell_length_b       3.93079
_cell_length_c       5.79263
_cell_angle_alpha    69.8112
_cell_angle_beta     69.8113
_cell_angle_gamma    81.1153

_symmetry_Int_Tables_number  5
_chemical_formula_structural  Ta2O5
_chemical_formula_sum  Ta2O5
_cell_volume  78.77880959395836
_cell_formula_units_Z  1
loop_
  _symmetry_equiv_pos_site_id
 _symmetry_equiv_pos_as_xyz
 1  'x, y, z'
loop_
 _atom_site_type_symbol
 _atom_site_label
 _atom_site_symmetry_multiplicity
 _atom_site_fract_x
 _atom_site_fract_y
 _atom_site_fract_z
 _atom_site_fract_occupancy
 O  O1  1  0.63204  0.22368  0.34844  1
 O  O2  1  0.24145  0.11115  0.04443  1
 O  O3  1  0.27221  0.72779  0.50000  1
 O  O4  1  0.88885  0.75855  0.95557  1
 O  O5  1  0.77632  0.36796  0.65156  1
 Ta  Ta1  1  0.23099  0.15086  0.70811  1
 Ta  Ta2  1  0.84914  0.76901  0.29189  1
