CIF file written using JARVIS-Tools package.
data_Ca7H12Cl2
_symmetry_space_group_name_H-M  'P-6'
_cell_length_a       9.29518
_cell_length_b       9.29518
_cell_length_c       3.66203
_cell_angle_alpha    90
_cell_angle_beta     90
_cell_angle_gamma    120

_symmetry_Int_Tables_number  174
_chemical_formula_structural  Ca7H12Cl2
_chemical_formula_sum  Ca7H2Cl2
_cell_volume  274.0113823559403
_cell_formula_units_Z  1
loop_
  _symmetry_equiv_pos_site_id
 _symmetry_equiv_pos_as_xyz
 1  'x, y, z'
loop_
 _atom_site_type_symbol
 _atom_site_label
 _atom_site_symmetry_multiplicity
 _atom_site_fract_x
 _atom_site_fract_y
 _atom_site_fract_z
 _atom_site_fract_occupancy
 Ca  Ca1  1  0.66667  0.33333  0.00000  1
 Ca  Ca2  1  0.07762  0.43901  0.00000  1
 Ca  Ca3  1  0.56099  0.63860  0.00000  1
 Ca  Ca4  1  0.36140  0.92238  0.00000  1
 Ca  Ca5  1  0.78142  0.05096  0.50000  1
 Ca  Ca6  1  0.26954  0.21858  0.50000  1
 Ca  Ca7  1  0.94904  0.73046  0.50000  1
 Cl  Cl1  1  0.00000  0.00000  0.00000  1
 Cl  Cl2  1  0.33333  0.66667  0.50000  1
 H  H1  1  0.88208  0.44781  0.50000  1
 H  H2  1  0.22797  0.94264  0.50000  1
 H  H3  1  0.05736  0.28533  0.50000  1
 H  H4  1  0.56573  0.11792  0.50000  1
 H  H5  1  0.78438  0.60865  0.00000  1
 H  H6  1  0.09036  0.69814  0.00000  1
 H  H7  1  0.30186  0.39222  0.00000  1
 H  H8  1  0.82428  0.21562  0.00000  1
 H  H9  1  0.39135  0.17572  0.00000  1
 H  H10  1  0.60778  0.90964  0.00000  1
 H  H11  1  0.71467  0.77203  0.50000  1
 H  H12  1  0.55219  0.43427  0.50000  1
