CIF file written using JARVIS-Tools package.
data_CuBiPbS3
_symmetry_space_group_name_H-M  'Pnma'
_cell_length_a       4.06106
_cell_length_b       11.3125
_cell_length_c       11.8253
_cell_angle_alpha    90
_cell_angle_beta     90
_cell_angle_gamma    90

_symmetry_Int_Tables_number  62
_chemical_formula_structural  CuBiPbS3
_chemical_formula_sum  Cu4Bi4Pb4S2
_cell_volume  543.265341264974
_cell_formula_units_Z  4
loop_
  _symmetry_equiv_pos_site_id
 _symmetry_equiv_pos_as_xyz
 1  'x, y, z'
loop_
 _atom_site_type_symbol
 _atom_site_label
 _atom_site_symmetry_multiplicity
 _atom_site_fract_x
 _atom_site_fract_y
 _atom_site_fract_z
 _atom_site_fract_occupancy
 Bi  Bi1  1  0.75000  0.31952  0.98814  1
 Bi  Bi2  1  0.25000  0.81952  0.51186  1
 Bi  Bi3  1  0.25000  0.68048  0.01186  1
 Bi  Bi4  1  0.75000  0.18048  0.48814  1
 Cu  Cu1  1  0.75000  0.79322  0.76570  1
 Cu  Cu2  1  0.75000  0.70678  0.26570  1
 Cu  Cu3  1  0.25000  0.29322  0.73430  1
 Cu  Cu4  1  0.25000  0.20678  0.23430  1
 Pb  Pb1  1  0.25000  0.01304  0.83160  1
 Pb  Pb2  1  0.75000  0.51304  0.66840  1
 Pb  Pb3  1  0.75000  0.98696  0.16840  1
 Pb  Pb4  1  0.25000  0.48696  0.33160  1
 S  S1  1  0.75000  0.85657  0.95294  1
 S  S2  1  0.25000  0.14343  0.04706  1
 S  S3  1  0.25000  0.44492  0.87900  1
 S  S4  1  0.75000  0.20171  0.78722  1
 S  S5  1  0.25000  0.05508  0.37900  1
 S  S6  1  0.75000  0.94492  0.62100  1
 S  S7  1  0.25000  0.35657  0.54706  1
 S  S8  1  0.25000  0.79829  0.21278  1
 S  S9  1  0.75000  0.29829  0.28722  1
 S  S10  1  0.25000  0.70171  0.71278  1
 S  S11  1  0.75000  0.55508  0.12100  1
 S  S12  1  0.75000  0.64343  0.45294  1
