CIF file written using JARVIS-Tools package.
data_Te2MoW3Se4S2
_symmetry_space_group_name_H-M  'P3m1'
_cell_length_a       3.34753
_cell_length_b       3.34754
_cell_length_c       35.9491
_cell_angle_alpha    90.0009
_cell_angle_beta     90
_cell_angle_gamma    120

_symmetry_Int_Tables_number  156
_chemical_formula_structural  Te2MoW3Se4S2
_chemical_formula_sum  Te2MoW3Se4S2
_cell_volume  348.87464598303785
_cell_formula_units_Z  1
loop_
  _symmetry_equiv_pos_site_id
 _symmetry_equiv_pos_as_xyz
 1  'x, y, z'
loop_
 _atom_site_type_symbol
 _atom_site_label
 _atom_site_symmetry_multiplicity
 _atom_site_fract_x
 _atom_site_fract_y
 _atom_site_fract_z
 _atom_site_fract_occupancy
 Mo  Mo1  1  0.33337  0.66674  0.08909  1
 S  S1  1  0.33334  0.66669  0.69659  1
 S  S2  1  0.33333  0.66666  0.61175  1
 Se  Se1  1  0.66669  0.33339  0.04279  1
 Se  Se2  1  0.66663  0.33325  0.43035  1
 Se  Se3  1  0.66672  0.33344  0.13548  1
 Se  Se4  1  0.66665  0.33329  0.52355  1
 Te  Te1  1  0.33334  0.66667  0.33585  1
 Te  Te2  1  0.33331  0.66662  0.22950  1
 W  W1  1  0.33331  0.66661  0.47695  1
 W  W2  1  0.66666  0.33332  0.28267  1
 W  W3  1  0.66667  0.33333  0.65418  1
