CIF file written using JARVIS-Tools package.
data_AlPO4
_symmetry_space_group_name_H-M  'I-4'
_cell_length_a       5.12148
_cell_length_b       5.12149
_cell_length_c       5.12149
_cell_angle_alpha    86.855
_cell_angle_beta     121.832
_cell_angle_gamma    121.832

_symmetry_Int_Tables_number  82
_chemical_formula_structural  AlPO4
_chemical_formula_sum  AlPO4
_cell_volume  92.20742417612847
_cell_formula_units_Z  1
loop_
  _symmetry_equiv_pos_site_id
 _symmetry_equiv_pos_as_xyz
 1  'x, y, z'
loop_
 _atom_site_type_symbol
 _atom_site_label
 _atom_site_symmetry_multiplicity
 _atom_site_fract_x
 _atom_site_fract_y
 _atom_site_fract_z
 _atom_site_fract_occupancy
 Al  Al1  1  0.00000  0.00000  0.00000  1
 O  O1  1  0.62086  0.02387  0.86207  1
 O  O2  1  0.16180  0.13793  0.75879  1
 O  O3  1  0.37914  0.24121  0.40301  1
 O  O4  1  0.83820  0.59699  0.97613  1
 P  P1  1  0.50000  0.25000  0.75000  1
