data_image0
_chemical_formula_structural       CuGe6Yb2
_chemical_formula_sum              "Cu1 Ge6 Yb2"
_cell_length_a       4.06201
_cell_length_b       4.00076
_cell_length_c       11.1587
_cell_angle_alpha    79.6729
_cell_angle_beta     90
_cell_angle_gamma    90

_space_group_name_H-M_alt    "P 1"
_space_group_IT_number       1

loop_
  _space_group_symop_operation_xyz
  'x, y, z'

loop_
  _atom_site_type_symbol
  _atom_site_label
  _atom_site_symmetry_multiplicity
  _atom_site_fract_x
  _atom_site_fract_y
  _atom_site_fract_z
  _atom_site_occupancy
  Cu  Cu1       1.0  0.50000  0.77700  0.44600  1.0000
  Ge  Ge1       1.0  0.50000  0.45100  0.09840  1.0000
  Ge  Ge2       1.0  0.50000  0.88300  0.23300  1.0000
  Ge  Ge3       1.0  0.00000  0.71500  0.57000  1.0000
  Ge  Ge4       1.0  0.50000  0.21400  0.57200  1.0000
  Ge  Ge5       1.0  0.00000  0.60200  0.79700  1.0000
  Ge  Ge6       1.0  0.50000  0.10000  0.79900  1.0000
  Yb  Yb1       1.0  0.00000  0.99600  0.00810  1.0000
  Yb  Yb2       1.0  0.00000  0.33100  0.33900  1.0000
