CIF file written using JARVIS-Tools package.
data_Ho2NiAs2
_symmetry_space_group_name_H-M  'P6_3/mmc'
_cell_length_a       4.08804
_cell_length_b       4.08804
_cell_length_c       14.1051
_cell_angle_alpha    90
_cell_angle_beta     90
_cell_angle_gamma    120

_symmetry_Int_Tables_number  194
_chemical_formula_structural  Ho2NiAs2
_chemical_formula_sum  Ho4Ni2As4
_cell_volume  204.14456474912393
_cell_formula_units_Z  2
loop_
  _symmetry_equiv_pos_site_id
 _symmetry_equiv_pos_as_xyz
 1  'x, y, z'
loop_
 _atom_site_type_symbol
 _atom_site_label
 _atom_site_symmetry_multiplicity
 _atom_site_fract_x
 _atom_site_fract_y
 _atom_site_fract_z
 _atom_site_fract_occupancy
 As  As1  1  0.33333  0.66667  0.75000  1
 As  As2  1  0.00000  0.00000  0.00000  1
 As  As3  1  0.00000  0.00000  0.50000  1
 As  As4  1  0.66667  0.33333  0.25000  1
 Ho  Ho1  1  0.66667  0.33333  0.61712  1
 Ho  Ho2  1  0.33333  0.66667  0.11712  1
 Ho  Ho3  1  0.33333  0.66667  0.38288  1
 Ho  Ho4  1  0.66667  0.33333  0.88288  1
 Ni  Ni1  1  0.00000  0.00000  0.25000  1
 Ni  Ni2  1  0.00000  0.00000  0.75000  1
