CIF file written using JARVIS-Tools package.
data_V2FeSe4
_symmetry_space_group_name_H-M  'C2/m'
_cell_length_a       3.37196
_cell_length_b       6.15777
_cell_length_c       6.75587
_cell_angle_alpha    115.392
_cell_angle_beta     104.451
_cell_angle_gamma    90

_symmetry_Int_Tables_number  12
_chemical_formula_structural  V2FeSe4
_chemical_formula_sum  V2FeSe4
_cell_volume  121.79423418111146
_cell_formula_units_Z  1
loop_
  _symmetry_equiv_pos_site_id
 _symmetry_equiv_pos_as_xyz
 1  'x, y, z'
loop_
 _atom_site_type_symbol
 _atom_site_label
 _atom_site_symmetry_multiplicity
 _atom_site_fract_x
 _atom_site_fract_y
 _atom_site_fract_z
 _atom_site_fract_occupancy
 Fe  Fe1  1  0.00000  0.00000  0.00000  1
 Se  Se1  1  0.10449  0.44384  0.20898  1
 Se  Se2  1  0.89551  0.55616  0.79102  1
 Se  Se3  1  0.36161  0.02390  0.72322  1
 Se  Se4  1  0.63839  0.97610  0.27678  1
 V  V1  1  0.25601  0.31637  0.51202  1
 V  V2  1  0.74399  0.68363  0.48798  1
