CIF file written using JARVIS-Tools package.
data_SmZnGa
_symmetry_space_group_name_H-M  'P6_3/mmc'
_cell_length_a       4.43169
_cell_length_b       4.43177
_cell_length_c       7.47901
_cell_angle_alpha    90
_cell_angle_beta     90
_cell_angle_gamma    119.999

_symmetry_Int_Tables_number  194
_chemical_formula_structural  SmZnGa
_chemical_formula_sum  Sm2Zn2Ga2
_cell_volume  127.21065310791674
_cell_formula_units_Z  2
loop_
  _symmetry_equiv_pos_site_id
 _symmetry_equiv_pos_as_xyz
 1  'x, y, z'
loop_
 _atom_site_type_symbol
 _atom_site_label
 _atom_site_symmetry_multiplicity
 _atom_site_fract_x
 _atom_site_fract_y
 _atom_site_fract_z
 _atom_site_fract_occupancy
 Ga  Ga1  1  0.33335  0.66670  0.25000  1
 Ga  Ga2  1  0.66665  0.33330  0.75000  1
 Sm  Sm1  1  0.00000  0.00000  0.50000  1
 Sm  Sm2  1  0.00000  0.00000  0.00000  1
 Zn  Zn1  1  0.33334  0.66668  0.75000  1
 Zn  Zn2  1  0.66666  0.33332  0.25000  1
