CIF file written using JARVIS-Tools package.
data_Nd2MgCu2
_symmetry_space_group_name_H-M  'P4/mbm'
_cell_length_a       7.80071
_cell_length_b       7.80071
_cell_length_c       3.84234
_cell_angle_alpha    90
_cell_angle_beta     90
_cell_angle_gamma    90

_symmetry_Int_Tables_number  127
_chemical_formula_structural  Nd2MgCu2
_chemical_formula_sum  Nd4Mg2Cu4
_cell_volume  233.8100731058737
_cell_formula_units_Z  2
loop_
  _symmetry_equiv_pos_site_id
 _symmetry_equiv_pos_as_xyz
 1  'x, y, z'
loop_
 _atom_site_type_symbol
 _atom_site_label
 _atom_site_symmetry_multiplicity
 _atom_site_fract_x
 _atom_site_fract_y
 _atom_site_fract_z
 _atom_site_fract_occupancy
 Cu  Cu1  1  0.12232  0.62232  0.00000  1
 Cu  Cu2  1  0.62232  0.87768  0.00000  1
 Cu  Cu3  1  0.87768  0.37768  0.00000  1
 Cu  Cu4  1  0.37768  0.12232  0.00000  1
 Mg  Mg1  1  0.50000  0.50000  0.00000  1
 Mg  Mg2  1  0.00000  0.00000  0.00000  1
 Nd  Nd1  1  0.32887  0.82887  0.50000  1
 Nd  Nd2  1  0.82887  0.67113  0.50000  1
 Nd  Nd3  1  0.17113  0.32887  0.50000  1
 Nd  Nd4  1  0.67113  0.17113  0.50000  1
