CIF file written using JARVIS-Tools package.
data_Sc2TeO6
_symmetry_space_group_name_H-M  'P321'
_cell_length_a       8.8353
_cell_length_b       8.8353
_cell_length_c       4.82778
_cell_angle_alpha    90
_cell_angle_beta     90
_cell_angle_gamma    120

_symmetry_Int_Tables_number  150
_chemical_formula_structural  Sc2TeO6
_chemical_formula_sum  Sc6Te3O8
_cell_volume  326.37785355789725
_cell_formula_units_Z  3
loop_
  _symmetry_equiv_pos_site_id
 _symmetry_equiv_pos_as_xyz
 1  'x, y, z'
loop_
 _atom_site_type_symbol
 _atom_site_label
 _atom_site_symmetry_multiplicity
 _atom_site_fract_x
 _atom_site_fract_y
 _atom_site_fract_z
 _atom_site_fract_occupancy
 O  O1  1  0.21101  0.12072  0.22072  1
 O  O2  1  0.90971  0.78899  0.22072  1
 O  O3  1  0.41980  0.87693  0.72760  1
 O  O4  1  0.23228  0.45477  0.27719  1
 O  O5  1  0.77752  0.54523  0.72281  1
 O  O6  1  0.12307  0.54287  0.72760  1
 O  O7  1  0.54523  0.77752  0.27719  1
 O  O8  1  0.45713  0.58020  0.72760  1
 O  O9  1  0.22248  0.76772  0.27719  1
 O  O10  1  0.87693  0.41980  0.27240  1
 O  O11  1  0.76772  0.22248  0.72281  1
 O  O12  1  0.87928  0.09029  0.22072  1
 O  O13  1  0.54287  0.12307  0.27240  1
 O  O14  1  0.45477  0.23228  0.72281  1
 O  O15  1  0.09029  0.87928  0.77928  1
 O  O16  1  0.12072  0.21101  0.77928  1
 O  O17  1  0.58020  0.45713  0.27240  1
 O  O18  1  0.78899  0.90971  0.77928  1
 Sc  Sc1  1  0.70653  0.70653  0.50000  1
 Sc  Sc2  1  0.62915  0.00000  0.00000  1
 Sc  Sc3  1  0.37085  0.37085  0.00000  1
 Sc  Sc4  1  0.29347  0.00000  0.50000  1
 Sc  Sc5  1  0.00000  0.62915  0.00000  1
 Sc  Sc6  1  0.00000  0.29347  0.50000  1
 Te  Te1  1  0.00000  0.00000  0.00000  1
 Te  Te2  1  0.33333  0.66667  0.50213  1
 Te  Te3  1  0.66667  0.33333  0.49787  1
