CIF file written using JARVIS-Tools package.
data_SmAl7Au3
_symmetry_space_group_name_H-M  'R-3c'
_cell_length_a       8.47294
_cell_length_b       8.47294
_cell_length_c       8.47295
_cell_angle_alpha    57.4652
_cell_angle_beta     57.4652
_cell_angle_gamma    57.4652

_symmetry_Int_Tables_number  167
_chemical_formula_structural  SmAl7Au3
_chemical_formula_sum  Sm2Al4Au6
_cell_volume  405.03791628216226
_cell_formula_units_Z  2
loop_
  _symmetry_equiv_pos_site_id
 _symmetry_equiv_pos_as_xyz
 1  'x, y, z'
loop_
 _atom_site_type_symbol
 _atom_site_label
 _atom_site_symmetry_multiplicity
 _atom_site_fract_x
 _atom_site_fract_y
 _atom_site_fract_z
 _atom_site_fract_occupancy
 Al  Al1  1  0.85240  0.66869  0.06915  1
 Al  Al2  1  0.43085  0.83131  0.64760  1
 Al  Al3  1  0.83131  0.64760  0.43085  1
 Al  Al4  1  0.66869  0.06915  0.85240  1
 Al  Al5  1  0.06915  0.85240  0.66869  1
 Al  Al6  1  0.35240  0.56915  0.16869  1
 Al  Al7  1  0.56915  0.16869  0.35240  1
 Al  Al8  1  0.14760  0.33131  0.93085  1
 Al  Al9  1  0.75000  0.75000  0.75000  1
 Al  Al10  1  0.93085  0.14760  0.33131  1
 Al  Al11  1  0.33131  0.93085  0.14760  1
 Al  Al12  1  0.16869  0.35240  0.56915  1
 Al  Al13  1  0.64760  0.43085  0.83131  1
 Al  Al14  1  0.25000  0.25000  0.25000  1
 Au  Au1  1  0.75000  0.42795  0.07205  1
 Au  Au2  1  0.42795  0.07205  0.75000  1
 Au  Au3  1  0.07205  0.75000  0.42795  1
 Au  Au4  1  0.57205  0.92795  0.25000  1
 Au  Au5  1  0.92795  0.25000  0.57205  1
 Au  Au6  1  0.25000  0.57205  0.92795  1
 Sm  Sm1  1  0.50000  0.50000  0.50000  1
 Sm  Sm2  1  0.00000  0.00000  0.00000  1
