CIF file written using JARVIS-Tools package.
data_Li4TiS4
_symmetry_space_group_name_H-M  'I-42m'
_cell_length_a       5.83526
_cell_length_b       6.73662
_cell_length_c       5.83526
_cell_angle_alpha    64.3355
_cell_angle_beta     90
_cell_angle_gamma    115.665

_symmetry_Int_Tables_number  121
_chemical_formula_structural  Li4TiS4
_chemical_formula_sum  Li4TiS4
_cell_volume  181.32142685994873
_cell_formula_units_Z  1
loop_
  _symmetry_equiv_pos_site_id
 _symmetry_equiv_pos_as_xyz
 1  'x, y, z'
loop_
 _atom_site_type_symbol
 _atom_site_label
 _atom_site_symmetry_multiplicity
 _atom_site_fract_x
 _atom_site_fract_y
 _atom_site_fract_z
 _atom_site_fract_occupancy
 Li  Li1  1  0.50000  0.00000  0.00000  1
 Li  Li2  1  0.00000  0.00000  0.50000  1
 Li  Li3  1  0.71680  0.43360  0.28320  1
 Li  Li4  1  0.28320  0.56640  0.71680  1
 S  S1  1  0.34558  0.24425  0.10133  1
 S  S2  1  0.65442  0.75575  0.34558  1
 S  S3  1  0.89867  0.24425  0.65442  1
 S  S4  1  0.10133  0.75575  0.89867  1
 Ti  Ti1  1  0.00000  0.00000  0.00000  1
