CIF file written using JARVIS-Tools package.
data_YMgAg2
_symmetry_space_group_name_H-M  'Fm-3m'
_cell_length_a       4.92684
_cell_length_b       4.92684
_cell_length_c       4.92685
_cell_angle_alpha    59.9999
_cell_angle_beta     59.9999
_cell_angle_gamma    59.9998

_symmetry_Int_Tables_number  225
_chemical_formula_structural  YMgAg2
_chemical_formula_sum  YMgAg2
_cell_volume  84.56482039692645
_cell_formula_units_Z  1
loop_
  _symmetry_equiv_pos_site_id
 _symmetry_equiv_pos_as_xyz
 1  'x, y, z'
loop_
 _atom_site_type_symbol
 _atom_site_label
 _atom_site_symmetry_multiplicity
 _atom_site_fract_x
 _atom_site_fract_y
 _atom_site_fract_z
 _atom_site_fract_occupancy
 Ag  Ag1  1  0.00000  0.00000  0.00000  1
 Ag  Ag2  1  0.50000  0.50000  0.50000  1
 Mg  Mg1  1  0.25000  0.25000  0.25000  1
 Y  Y1  1  0.75000  0.75000  0.75000  1
