CIF file written using JARVIS-Tools package.
data_PrMgRh
_symmetry_space_group_name_H-M  'Pnma'
_cell_length_a       4.21682
_cell_length_b       7.26667
_cell_length_c       8.69615
_cell_angle_alpha    90
_cell_angle_beta     90
_cell_angle_gamma    90

_symmetry_Int_Tables_number  62
_chemical_formula_structural  PrMgRh
_chemical_formula_sum  Pr4Mg4Rh4
_cell_volume  266.4693151158031
_cell_formula_units_Z  4
loop_
  _symmetry_equiv_pos_site_id
 _symmetry_equiv_pos_as_xyz
 1  'x, y, z'
loop_
 _atom_site_type_symbol
 _atom_site_label
 _atom_site_symmetry_multiplicity
 _atom_site_fract_x
 _atom_site_fract_y
 _atom_site_fract_z
 _atom_site_fract_occupancy
 Mg  Mg1  1  0.25000  0.63356  0.55788  1
 Mg  Mg2  1  0.75000  0.36644  0.44212  1
 Mg  Mg3  1  0.25000  0.13356  0.94212  1
 Mg  Mg4  1  0.75000  0.86644  0.05788  1
 Pr  Pr1  1  0.25000  0.53802  0.17881  1
 Pr  Pr2  1  0.75000  0.46198  0.82119  1
 Pr  Pr3  1  0.25000  0.03802  0.32119  1
 Pr  Pr4  1  0.75000  0.96198  0.67881  1
 Rh  Rh1  1  0.75000  0.74604  0.37567  1
 Rh  Rh2  1  0.25000  0.25396  0.62433  1
 Rh  Rh3  1  0.75000  0.24604  0.12433  1
 Rh  Rh4  1  0.25000  0.75396  0.87567  1
