CIF file written using JARVIS-Tools package.
data_LiSn4Rh
_symmetry_space_group_name_H-M  'I4/mcm'
_cell_length_a       6.6978
_cell_length_b       6.6978
_cell_length_c       7.47099
_cell_angle_alpha    116.632
_cell_angle_beta     116.632
_cell_angle_gamma    90

_symmetry_Int_Tables_number  140
_chemical_formula_structural  LiSn4Rh
_chemical_formula_sum  Li2Sn8Rh2
_cell_volume  259.20452323730177
_cell_formula_units_Z  2
loop_
  _symmetry_equiv_pos_site_id
 _symmetry_equiv_pos_as_xyz
 1  'x, y, z'
loop_
 _atom_site_type_symbol
 _atom_site_label
 _atom_site_symmetry_multiplicity
 _atom_site_fract_x
 _atom_site_fract_y
 _atom_site_fract_z
 _atom_site_fract_occupancy
 Li  Li1  1  0.00000  0.00000  0.00000  1
 Li  Li2  1  0.50000  0.50000  0.00000  1
 Rh  Rh1  1  0.25000  0.25000  0.50000  1
 Rh  Rh2  1  0.75000  0.75000  0.50000  1
 Sn  Sn1  1  0.52419  0.70414  0.72833  1
 Sn  Sn2  1  0.02419  0.52419  0.72833  1
 Sn  Sn3  1  0.70414  0.20414  0.72833  1
 Sn  Sn4  1  0.29586  0.79586  0.27167  1
 Sn  Sn5  1  0.97581  0.47581  0.27167  1
 Sn  Sn6  1  0.47581  0.29586  0.27167  1
 Sn  Sn7  1  0.79586  0.97581  0.27167  1
 Sn  Sn8  1  0.20414  0.02419  0.72833  1
