CIF file written using JARVIS-Tools package.
data_SmLu3
_symmetry_space_group_name_H-M  'P6_3/mmc'
_cell_length_a       7.0419
_cell_length_b       7.0419
_cell_length_c       5.5105
_cell_angle_alpha    90
_cell_angle_beta     90
_cell_angle_gamma    120

_symmetry_Int_Tables_number  194
_chemical_formula_structural  SmLu3
_chemical_formula_sum  Sm2Lu6
_cell_volume  236.6465485319389
_cell_formula_units_Z  2
loop_
  _symmetry_equiv_pos_site_id
 _symmetry_equiv_pos_as_xyz
 1  'x, y, z'
loop_
 _atom_site_type_symbol
 _atom_site_label
 _atom_site_symmetry_multiplicity
 _atom_site_fract_x
 _atom_site_fract_y
 _atom_site_fract_z
 _atom_site_fract_occupancy
 Lu  Lu1  1  0.16514  0.33029  0.25000  1
 Lu  Lu2  1  0.66971  0.83486  0.25000  1
 Lu  Lu3  1  0.16514  0.83486  0.25000  1
 Lu  Lu4  1  0.83486  0.66971  0.75000  1
 Lu  Lu5  1  0.33029  0.16514  0.75000  1
 Lu  Lu6  1  0.83486  0.16514  0.75000  1
 Sm  Sm1  1  0.33333  0.66667  0.75000  1
 Sm  Sm2  1  0.66667  0.33333  0.25000  1
