CIF file written using JARVIS-Tools package.
data_HoLuZn2
_symmetry_space_group_name_H-M  'Fm-3m'
_cell_length_a       4.95096
_cell_length_b       4.95113
_cell_length_c       4.95107
_cell_angle_alpha    59.9991
_cell_angle_beta     59.9983
_cell_angle_gamma    60.0009

_symmetry_Int_Tables_number  225
_chemical_formula_structural  HoLuZn2
_chemical_formula_sum  HoLuZn2
_cell_volume  85.81664752771518
_cell_formula_units_Z  1
loop_
  _symmetry_equiv_pos_site_id
 _symmetry_equiv_pos_as_xyz
 1  'x, y, z'
loop_
 _atom_site_type_symbol
 _atom_site_label
 _atom_site_symmetry_multiplicity
 _atom_site_fract_x
 _atom_site_fract_y
 _atom_site_fract_z
 _atom_site_fract_occupancy
 Ho  Ho1  1  0.25000  0.24999  0.25001  1
 Lu  Lu1  1  0.75000  0.75000  0.75000  1
 Zn  Zn1  1  1.00000  0.00000  1.00000  1
 Zn  Zn2  1  0.50000  0.50000  0.50000  1
