CIF file written using JARVIS-Tools package.
data_TiMn2
_symmetry_space_group_name_H-M  'P6_3/mmc'
_cell_length_a       4.72121
_cell_length_b       4.72121
_cell_length_c       7.79992
_cell_angle_alpha    90
_cell_angle_beta     90
_cell_angle_gamma    120

_symmetry_Int_Tables_number  194
_chemical_formula_structural  TiMn2
_chemical_formula_sum  Ti4Mn8
_cell_volume  150.56618936311656
_cell_formula_units_Z  4
loop_
  _symmetry_equiv_pos_site_id
 _symmetry_equiv_pos_as_xyz
 1  'x, y, z'
loop_
 _atom_site_type_symbol
 _atom_site_label
 _atom_site_symmetry_multiplicity
 _atom_site_fract_x
 _atom_site_fract_y
 _atom_site_fract_z
 _atom_site_fract_occupancy
 Mn  Mn1  1  0.65543  0.82771  0.75000  1
 Mn  Mn2  1  0.34457  0.17229  0.25000  1
 Mn  Mn3  1  0.82771  0.17229  0.25000  1
 Mn  Mn4  1  0.17229  0.34457  0.75000  1
 Mn  Mn5  1  0.17229  0.82771  0.75000  1
 Mn  Mn6  1  0.82771  0.65543  0.25000  1
 Mn  Mn7  1  0.00000  0.00000  0.50000  1
 Mn  Mn8  1  0.00000  0.00000  0.00000  1
 Ti  Ti1  1  0.33333  0.66667  0.43700  1
 Ti  Ti2  1  0.66667  0.33333  0.93700  1
 Ti  Ti3  1  0.66667  0.33333  0.56300  1
 Ti  Ti4  1  0.33333  0.66667  0.06300  1
