CIF file written using JARVIS-Tools package.
data_YWF5
_symmetry_space_group_name_H-M  'Immm'
_cell_length_a       4.10496
_cell_length_b       5.81781
_cell_length_c       5.81782
_cell_angle_alpha    71.7846
_cell_angle_beta     69.3418
_cell_angle_gamma    69.3418

_symmetry_Int_Tables_number  71
_chemical_formula_structural  YWF5
_chemical_formula_sum  YWF5
_cell_volume  118.80621634271952
_cell_formula_units_Z  1
loop_
  _symmetry_equiv_pos_site_id
 _symmetry_equiv_pos_as_xyz
 1  'x, y, z'
loop_
 _atom_site_type_symbol
 _atom_site_label
 _atom_site_symmetry_multiplicity
 _atom_site_fract_x
 _atom_site_fract_y
 _atom_site_fract_z
 _atom_site_fract_occupancy
 F  F1  1  0.50000  0.83293  0.16707  1
 F  F2  1  0.50000  0.16707  0.83293  1
 F  F3  1  0.75773  0.24227  0.24227  1
 F  F4  1  0.24227  0.75773  0.75773  1
 F  F5  1  -0.00000  0.50000  0.50000  1
 W  W1  1  0.00000  0.00000  0.00000  1
 Y  Y1  1  0.50000  0.50000  0.50000  1
