CIF file written using JARVIS-Tools package.
data_YCrF5
_symmetry_space_group_name_H-M  'Immm'
_cell_length_a       4.11891
_cell_length_b       5.70235
_cell_length_c       5.70235
_cell_angle_alpha    72.8968
_cell_angle_beta     68.8286
_cell_angle_gamma    68.8286

_symmetry_Int_Tables_number  71
_chemical_formula_structural  YCrF5
_chemical_formula_sum  YCrF5
_cell_volume  114.38274984802938
_cell_formula_units_Z  1
loop_
  _symmetry_equiv_pos_site_id
 _symmetry_equiv_pos_as_xyz
 1  'x, y, z'
loop_
 _atom_site_type_symbol
 _atom_site_label
 _atom_site_symmetry_multiplicity
 _atom_site_fract_x
 _atom_site_fract_y
 _atom_site_fract_z
 _atom_site_fract_occupancy
 Cr  Cr1  1  0.00000  0.00000  0.00000  1
 F  F1  1  0.50000  0.82478  0.17522  1
 F  F2  1  0.50000  0.17522  0.82478  1
 F  F3  1  0.76787  0.23213  0.23213  1
 F  F4  1  0.23213  0.76787  0.76787  1
 F  F5  1  0.00000  0.50000  0.50000  1
 Y  Y1  1  0.50000  0.50000  0.50000  1
