CIF file written using JARVIS-Tools package.
data_K2ScSi4O10F
_symmetry_space_group_name_H-M  'I4/m'
_cell_length_a       8.20927
_cell_length_b       8.97396
_cell_length_c       8.97395
_cell_angle_alpha    77.924
_cell_angle_beta     62.7809
_cell_angle_gamma    62.781

_symmetry_Int_Tables_number  87
_chemical_formula_structural  K2ScSi4O10F
_chemical_formula_sum  K4Sc2Si8O20F2
_cell_volume  522.7981183027499
_cell_formula_units_Z  2
loop_
  _symmetry_equiv_pos_site_id
 _symmetry_equiv_pos_as_xyz
 1  'x, y, z'
loop_
 _atom_site_type_symbol
 _atom_site_label
 _atom_site_symmetry_multiplicity
 _atom_site_fract_x
 _atom_site_fract_y
 _atom_site_fract_z
 _atom_site_fract_occupancy
 F  F1  1  0.50000  0.00000  0.00000  1
 F  F2  1  0.00000  0.00000  0.00000  1
 K  K1  1  0.31575  0.00249  0.36602  1
 K  K2  1  0.68177  0.63398  0.00249  1
 K  K3  1  0.68425  -0.00249  0.63398  1
 K  K4  1  0.31823  0.36602  -0.00249  1
 O  O1  1  0.55039  0.18795  0.17964  1
 O  O2  1  0.81431  0.50276  0.27170  1
 O  O3  1  0.94412  0.37245  0.73930  1
 O  O4  1  0.44961  0.81205  0.82036  1
 O  O5  1  0.91399  0.27170  0.49724  1
 O  O6  1  0.91798  0.81205  0.82036  1
 O  O7  1  0.18569  0.49724  0.72830  1
 O  O8  1  0.41123  0.50276  0.27170  1
 O  O9  1  0.26998  0.17964  0.81205  1
 O  O10  1  0.05588  0.62755  0.26070  1
 O  O11  1  0.73834  0.17964  0.81205  1
 O  O12  1  0.31707  0.27170  0.49724  1
 O  O13  1  0.31657  0.73930  0.62755  1
 O  O14  1  0.08202  0.18795  0.17964  1
 O  O15  1  0.68343  0.26070  0.37245  1
 O  O16  1  0.73002  0.82036  0.18795  1
 O  O17  1  0.08601  0.72830  0.50276  1
 O  O18  1  0.68293  0.72830  0.50276  1
 O  O19  1  0.58877  0.49724  0.72830  1
 O  O20  1  0.26166  0.82036  0.18795  1
 Sc  Sc1  1  0.24545  -0.00000  0.00000  1
 Sc  Sc2  1  0.75455  0.00000  -0.00000  1
 Si  Si1  1  0.18087  0.32409  0.69736  1
 Si  Si2  1  0.12177  0.69736  0.67591  1
 Si  Si3  1  0.49504  0.30264  0.32409  1
 Si  Si4  1  0.20232  0.67591  0.30264  1
 Si  Si5  1  0.79768  0.32409  0.69736  1
 Si  Si6  1  0.50496  0.69736  0.67591  1
 Si  Si7  1  0.81913  0.67591  0.30264  1
 Si  Si8  1  0.87823  0.30264  0.32409  1
