CIF file written using JARVIS-Tools package.
data_SrCrF4
_symmetry_space_group_name_H-M  'I4/mcm'
_cell_length_a       5.73155
_cell_length_b       5.73155
_cell_length_c       6.78607
_cell_angle_alpha    114.98
_cell_angle_beta     114.98
_cell_angle_gamma    90

_symmetry_Int_Tables_number  140
_chemical_formula_structural  SrCrF4
_chemical_formula_sum  Sr2Cr2F8
_cell_volume  178.80357303888886
_cell_formula_units_Z  2
loop_
  _symmetry_equiv_pos_site_id
 _symmetry_equiv_pos_as_xyz
 1  'x, y, z'
loop_
 _atom_site_type_symbol
 _atom_site_label
 _atom_site_symmetry_multiplicity
 _atom_site_fract_x
 _atom_site_fract_y
 _atom_site_fract_z
 _atom_site_fract_occupancy
 Cr  Cr1  1  0.50000  -0.00000  -0.00000  1
 Cr  Cr2  1  0.00000  0.50000  0.00000  1
 F  F1  1  0.95211  0.45211  0.25277  1
 F  F2  1  0.69933  0.19933  0.74723  1
 F  F3  1  0.04789  0.54789  0.74723  1
 F  F4  1  0.19933  0.04789  0.74723  1
 F  F5  1  0.30067  0.80067  0.25277  1
 F  F6  1  0.45211  0.30067  0.25277  1
 F  F7  1  0.80067  0.95211  0.25277  1
 F  F8  1  0.54789  0.69933  0.74723  1
 Sr  Sr1  1  0.75000  0.75000  0.50000  1
 Sr  Sr2  1  0.25000  0.25000  0.50000  1
