CIF file written using JARVIS-Tools package.
data_SmSi3Ni
_symmetry_space_group_name_H-M  'Cmmm'
_cell_length_a       3.99392
_cell_length_b       4.03791
_cell_length_c       10.8105
_cell_angle_alpha    90
_cell_angle_beta     100.645
_cell_angle_gamma    90

_symmetry_Int_Tables_number  65
_chemical_formula_structural  SmSi3Ni
_chemical_formula_sum  Sm2Si6Ni2
_cell_volume  171.341495131212
_cell_formula_units_Z  2
loop_
  _symmetry_equiv_pos_site_id
 _symmetry_equiv_pos_as_xyz
 1  'x, y, z'
loop_
 _atom_site_type_symbol
 _atom_site_label
 _atom_site_symmetry_multiplicity
 _atom_site_fract_x
 _atom_site_fract_y
 _atom_site_fract_z
 _atom_site_fract_occupancy
 Ni  Ni1  1  0.10883  0.00000  0.21766  1
 Ni  Ni2  1  0.89117  0.00000  0.78234  1
 Si  Si1  1  0.44419  0.00000  0.88838  1
 Si  Si2  1  0.55581  0.00000  0.11162  1
 Si  Si3  1  0.21740  0.00000  0.43479  1
 Si  Si4  1  0.78260  0.00000  0.56521  1
 Si  Si5  1  0.94416  0.50000  0.88832  1
 Si  Si6  1  0.05584  0.50000  0.11168  1
 Sm  Sm1  1  0.33135  0.50000  0.66271  1
 Sm  Sm2  1  0.66865  0.50000  0.33729  1
