CIF file written using JARVIS-Tools package.
data_FeSiGe
_symmetry_space_group_name_H-M  'Cmce'
_cell_length_a       6.4898
_cell_length_b       6.48981
_cell_length_c       8.06228
_cell_angle_alpha    90
_cell_angle_beta     90
_cell_angle_gamma    104.232

_symmetry_Int_Tables_number  64
_chemical_formula_structural  FeSiGe
_chemical_formula_sum  Fe8Si8Ge8
_cell_volume  329.1413460547224
_cell_formula_units_Z  8
loop_
  _symmetry_equiv_pos_site_id
 _symmetry_equiv_pos_as_xyz
 1  'x, y, z'
loop_
 _atom_site_type_symbol
 _atom_site_label
 _atom_site_symmetry_multiplicity
 _atom_site_fract_x
 _atom_site_fract_y
 _atom_site_fract_z
 _atom_site_fract_occupancy
 Fe  Fe1  1  0.28241  0.71759  0.50000  1
 Fe  Fe2  1  0.30595  0.30595  0.31175  1
 Fe  Fe3  1  0.71759  0.28241  0.50000  1
 Fe  Fe4  1  0.21759  0.78241  0.00000  1
 Fe  Fe5  1  0.69405  0.69405  0.68825  1
 Fe  Fe6  1  0.80595  0.80595  0.18825  1
 Fe  Fe7  1  0.78241  0.21759  0.00000  1
 Fe  Fe8  1  0.19405  0.19405  0.81175  1
 Ge  Ge1  1  0.90172  0.64669  0.45159  1
 Ge  Ge2  1  0.14669  0.40172  0.04841  1
 Ge  Ge3  1  0.35331  0.09828  0.54841  1
 Ge  Ge4  1  0.64669  0.90172  0.45159  1
 Ge  Ge5  1  0.59828  0.85331  0.95159  1
 Ge  Ge6  1  0.40172  0.14669  0.04841  1
 Ge  Ge7  1  0.85331  0.59828  0.95159  1
 Ge  Ge8  1  0.09828  0.35331  0.54841  1
 Si  Si1  1  0.83334  0.08642  0.73210  1
 Si  Si2  1  0.16666  0.91358  0.26790  1
 Si  Si3  1  0.58642  0.33334  0.76790  1
 Si  Si4  1  0.33334  0.58642  0.76790  1
 Si  Si5  1  0.91358  0.16666  0.26790  1
 Si  Si6  1  0.41358  0.66666  0.23210  1
 Si  Si7  1  0.66666  0.41358  0.23210  1
 Si  Si8  1  0.08642  0.83334  0.73210  1
