CIF file written using JARVIS-Tools package.
data_K3SmAs2S8
_symmetry_space_group_name_H-M  'C2/c'
_cell_length_a       8.77431
_cell_length_b       10.2125
_cell_length_c       10.6903
_cell_angle_alpha    108.069
_cell_angle_beta     102.442
_cell_angle_gamma    114.087

_symmetry_Int_Tables_number  15
_chemical_formula_structural  K3SmAs2S8
_chemical_formula_sum  K6Sm2As4S6
_cell_volume  764.1129484488889
_cell_formula_units_Z  2
loop_
  _symmetry_equiv_pos_site_id
 _symmetry_equiv_pos_as_xyz
 1  'x, y, z'
loop_
 _atom_site_type_symbol
 _atom_site_label
 _atom_site_symmetry_multiplicity
 _atom_site_fract_x
 _atom_site_fract_y
 _atom_site_fract_z
 _atom_site_fract_occupancy
 As  As1  1  0.00621  0.90146  0.24190  1
 As  As2  1  0.99379  0.09854  0.75810  1
 As  As3  1  0.73569  0.34044  0.24190  1
 As  As4  1  0.26431  0.65956  0.75810  1
 K  K1  1  0.00000  0.50000  0.00000  1
 K  K2  1  0.25422  0.00422  0.00843  1
 K  K3  1  0.51369  0.26369  0.52738  1
 K  K4  1  0.50000  0.50000  0.00000  1
 K  K5  1  0.48631  0.73631  0.47262  1
 K  K6  1  0.74578  0.99578  0.99157  1
 S  S1  1  0.36609  0.73835  0.98619  1
 S  S2  1  0.64579  0.12881  0.28427  1
 S  S3  1  0.13847  0.15546  0.28427  1
 S  S4  1  0.35960  0.50633  0.64895  1
 S  S5  1  0.87990  0.75215  0.01381  1
 S  S6  1  0.35421  0.87119  0.71573  1
 S  S7  1  0.21064  0.85737  0.35104  1
 S  S8  1  0.80830  0.87282  0.34419  1
 S  S9  1  0.63391  0.26165  0.01381  1
 S  S10  1  0.03589  0.47138  0.34420  1
 S  S11  1  0.19170  0.12718  0.65581  1
 S  S12  1  0.78936  0.14263  0.64896  1
 S  S13  1  0.96411  0.52862  0.65580  1
 S  S14  1  0.12010  0.24785  0.98619  1
 S  S15  1  0.64040  0.49367  0.35105  1
 S  S16  1  0.86153  0.84454  0.71573  1
 Sm  Sm1  1  0.00685  0.75685  0.51369  1
 Sm  Sm2  1  0.99315  0.24315  0.48631  1
