CIF file written using JARVIS-Tools package.
data_TmAl7Au3
_symmetry_space_group_name_H-M  'R-3c'
_cell_length_a       8.42366
_cell_length_b       8.42366
_cell_length_c       8.42366
_cell_angle_alpha    57.3912
_cell_angle_beta     57.3911
_cell_angle_gamma    57.3911

_symmetry_Int_Tables_number  167
_chemical_formula_structural  TmAl7Au3
_chemical_formula_sum  Tm2Al4Au6
_cell_volume  397.2821447915684
_cell_formula_units_Z  2
loop_
  _symmetry_equiv_pos_site_id
 _symmetry_equiv_pos_as_xyz
 1  'x, y, z'
loop_
 _atom_site_type_symbol
 _atom_site_label
 _atom_site_symmetry_multiplicity
 _atom_site_fract_x
 _atom_site_fract_y
 _atom_site_fract_z
 _atom_site_fract_occupancy
 Al  Al1  1  0.85255  0.66780  0.06936  1
 Al  Al2  1  0.43064  0.83220  0.64745  1
 Al  Al3  1  0.83220  0.64745  0.43064  1
 Al  Al4  1  0.66780  0.06936  0.85255  1
 Al  Al5  1  0.06936  0.85255  0.66780  1
 Al  Al6  1  0.35255  0.56936  0.16780  1
 Al  Al7  1  0.56936  0.16780  0.35255  1
 Al  Al8  1  0.14745  0.33220  0.93064  1
 Al  Al9  1  0.75000  0.75000  0.75000  1
 Al  Al10  1  0.93064  0.14745  0.33220  1
 Al  Al11  1  0.33220  0.93064  0.14745  1
 Al  Al12  1  0.16780  0.35255  0.56936  1
 Al  Al13  1  0.64745  0.43064  0.83220  1
 Al  Al14  1  0.25000  0.25000  0.25000  1
 Au  Au1  1  0.75000  0.42490  0.07510  1
 Au  Au2  1  0.42490  0.07510  0.75000  1
 Au  Au3  1  0.07510  0.75000  0.42490  1
 Au  Au4  1  0.57510  0.92490  0.25000  1
 Au  Au5  1  0.92490  0.25000  0.57510  1
 Au  Au6  1  0.25000  0.57510  0.92490  1
 Tm  Tm1  1  0.50000  0.50000  0.50000  1
 Tm  Tm2  1  0.00000  0.00000  0.00000  1
