CIF file written using JARVIS-Tools package.
data_Te6MoW3S2
_symmetry_space_group_name_H-M  'P3m1'
_cell_length_a       3.46333
_cell_length_b       3.46334
_cell_length_c       39.3407
_cell_angle_alpha    90.0004
_cell_angle_beta     90
_cell_angle_gamma    120

_symmetry_Int_Tables_number  156
_chemical_formula_structural  Te6MoW3S2
_chemical_formula_sum  Te6MoW3S2
_cell_volume  408.65976617143264
_cell_formula_units_Z  1
loop_
  _symmetry_equiv_pos_site_id
 _symmetry_equiv_pos_as_xyz
 1  'x, y, z'
loop_
 _atom_site_type_symbol
 _atom_site_label
 _atom_site_symmetry_multiplicity
 _atom_site_fract_x
 _atom_site_fract_y
 _atom_site_fract_z
 _atom_site_fract_occupancy
 Mo  Mo1  1  0.66669  0.33338  0.28170  1
 S  S1  1  0.66665  0.33329  0.05613  1
 S  S2  1  0.66664  0.33329  0.13190  1
 Te  Te1  1  0.33336  0.66671  0.32873  1
 Te  Te2  1  0.33336  0.66671  0.70479  1
 Te  Te3  1  0.66664  0.33329  0.42237  1
 Te  Te4  1  0.66665  0.33330  0.51691  1
 Te  Te5  1  0.33335  0.66670  0.23459  1
 Te  Te6  1  0.33335  0.66670  0.61035  1
 W  W1  1  0.33331  0.66662  0.09397  1
 W  W2  1  0.33331  0.66663  0.46965  1
 W  W3  1  0.66669  0.33338  0.65764  1
