CIF file written using JARVIS-Tools package.
data_Ba5Sm8Mn4O21
_symmetry_space_group_name_H-M  'I4/m'
_cell_length_a       5.74935
_cell_length_b       10.2509
_cell_length_c       10.2509
_cell_angle_alpha    85.4895
_cell_angle_beta     73.714
_cell_angle_gamma    73.714

_symmetry_Int_Tables_number  87
_chemical_formula_structural  Ba5Sm8Mn4O21
_chemical_formula_sum  Ba5Sm8Mn4O2
_cell_volume  556.634921261289
_cell_formula_units_Z  1
loop_
  _symmetry_equiv_pos_site_id
 _symmetry_equiv_pos_as_xyz
 1  'x, y, z'
loop_
 _atom_site_type_symbol
 _atom_site_label
 _atom_site_symmetry_multiplicity
 _atom_site_fract_x
 _atom_site_fract_y
 _atom_site_fract_z
 _atom_site_fract_occupancy
 Ba  Ba1  1  0.86291  0.67582  0.59836  1
 Ba  Ba2  1  0.46127  0.40164  0.67582  1
 Ba  Ba3  1  0.13709  0.32418  0.40164  1
 Ba  Ba4  1  0.53873  0.59836  0.32418  1
 Ba  Ba5  1  0.00000  0.00000  0.00000  1
 Mn  Mn1  1  0.95848  0.80084  0.28220  1
 Mn  Mn2  1  0.24068  0.71780  0.80084  1
 Mn  Mn3  1  0.75932  0.28220  0.19916  1
 Mn  Mn4  1  0.04152  0.19916  0.71780  1
 O  O1  1  0.49934  0.40752  0.12465  1
 O  O2  1  0.03151  0.59248  0.87535  1
 O  O3  1  0.62399  0.87535  0.40752  1
 O  O4  1  0.79786  0.77286  0.13863  1
 O  O5  1  0.70934  0.22714  0.86137  1
 O  O6  1  0.90686  0.12465  0.59248  1
 O  O7  1  0.57072  0.13863  0.22714  1
 O  O8  1  0.06352  0.13863  0.22714  1
 O  O9  1  0.29066  0.77286  0.13863  1
 O  O10  1  0.20214  0.22714  0.86137  1
 O  O11  1  0.42928  0.86137  0.77286  1
 O  O12  1  0.93648  0.86137  0.77286  1
 O  O13  1  0.37601  0.12465  0.59248  1
 O  O14  1  0.03101  0.60318  0.33480  1
 O  O15  1  0.50066  0.59248  0.87535  1
 O  O16  1  0.36581  0.66520  0.60318  1
 O  O17  1  0.09314  0.87535  0.40752  1
 O  O18  1  0.50000  0.00000  -0.00000  1
 O  O19  1  0.96899  0.39682  0.66520  1
 O  O20  1  0.96849  0.40752  0.12465  1
 O  O21  1  0.63419  0.33480  0.39682  1
 Sm  Sm1  1  0.83548  0.41409  0.91494  1
 Sm  Sm2  1  0.35487  0.23504  0.05522  1
 Sm  Sm3  1  0.16452  0.58591  0.08506  1
 Sm  Sm4  1  0.75043  0.08506  0.41409  1
 Sm  Sm5  1  0.41009  0.94478  0.23504  1
 Sm  Sm6  1  0.64513  0.76496  0.94478  1
 Sm  Sm7  1  0.24957  0.91494  0.58591  1
 Sm  Sm8  1  0.58991  0.05522  0.76496  1
