CIF file written using JARVIS-Tools package.
data_C
_symmetry_space_group_name_H-M  'I4/mmm'
_cell_length_a       2.5104
_cell_length_b       3.34071
_cell_length_c       3.34071
_cell_angle_alpha    81.8844
_cell_angle_beta     67.9307
_cell_angle_gamma    67.9307

_symmetry_Int_Tables_number  139
_chemical_formula_structural  C
_chemical_formula_sum  C4
_cell_volume  24.06189529717734
_cell_formula_units_Z  4
loop_
  _symmetry_equiv_pos_site_id
 _symmetry_equiv_pos_as_xyz
 1  'x, y, z'
loop_
 _atom_site_type_symbol
 _atom_site_label
 _atom_site_symmetry_multiplicity
 _atom_site_fract_x
 _atom_site_fract_y
 _atom_site_fract_z
 _atom_site_fract_occupancy
 C  C1  1  0.18041  0.63919  0.00000  1
 C  C2  1  0.81959  0.36081  -0.00000  1
 C  C3  1  0.81959  -0.00000  0.36081  1
 C  C4  1  0.18041  0.00000  0.63919  1
