CIF file written using JARVIS-Tools package.
data_Ho2B4C
_symmetry_space_group_name_H-M  'Immm'
_cell_length_a       3.26262
_cell_length_b       5.24211
_cell_length_c       5.24211
_cell_angle_alpha    77.3529
_cell_angle_beta     71.8688
_cell_angle_gamma    71.8688

_symmetry_Int_Tables_number  71
_chemical_formula_structural  Ho2B4C
_chemical_formula_sum  Ho2B4C
_cell_volume  80.2299820032008
_cell_formula_units_Z  1
loop_
  _symmetry_equiv_pos_site_id
 _symmetry_equiv_pos_as_xyz
 1  'x, y, z'
loop_
 _atom_site_type_symbol
 _atom_site_label
 _atom_site_symmetry_multiplicity
 _atom_site_fract_x
 _atom_site_fract_y
 _atom_site_fract_z
 _atom_site_fract_occupancy
 B  B1  1  0.50000  0.36570  0.63430  1
 B  B2  1  0.50000  0.63430  0.36570  1
 B  B3  1  -0.00000  0.77267  0.22733  1
 B  B4  1  0.00000  0.22733  0.77267  1
 C  C1  1  0.00000  0.00000  0.00000  1
 Ho  Ho1  1  0.26562  0.23438  0.23438  1
 Ho  Ho2  1  0.73438  0.76562  0.76562  1
