CIF file written using JARVIS-Tools package.
data_Er2S3
_symmetry_space_group_name_H-M  'P2_1/m'
_cell_length_a       10.0805
_cell_length_b       3.96731
_cell_length_c       17.4897
_cell_angle_alpha    90
_cell_angle_beta     98.637
_cell_angle_gamma    90

_symmetry_Int_Tables_number  11
_chemical_formula_structural  Er2S3
_chemical_formula_sum  Er2S8
_cell_volume  691.5255357968997
_cell_formula_units_Z  6
loop_
  _symmetry_equiv_pos_site_id
 _symmetry_equiv_pos_as_xyz
 1  'x, y, z'
loop_
 _atom_site_type_symbol
 _atom_site_label
 _atom_site_symmetry_multiplicity
 _atom_site_fract_x
 _atom_site_fract_y
 _atom_site_fract_z
 _atom_site_fract_occupancy
 Er  Er1  1  0.87578  0.75000  0.57002  1
 Er  Er2  1  0.18890  0.25000  0.02069  1
 Er  Er3  1  0.12422  0.25000  0.42998  1
 Er  Er4  1  0.54920  0.25000  0.11502  1
 Er  Er5  1  0.81110  0.75000  0.97931  1
 Er  Er6  1  0.17006  0.75000  0.21861  1
 Er  Er7  1  0.45080  0.75000  0.88498  1
 Er  Er8  1  0.48650  0.25000  0.39895  1
 Er  Er9  1  0.82994  0.25000  0.78139  1
 Er  Er10  1  0.18779  0.25000  0.72080  1
 Er  Er11  1  0.81221  0.75000  0.27920  1
 Er  Er12  1  0.51350  0.75000  0.60105  1
 S  S1  1  0.36670  0.25000  0.53152  1
 S  S2  1  0.38488  0.75000  0.03280  1
 S  S3  1  0.61512  0.25000  0.96720  1
 S  S4  1  0.32005  0.25000  0.18231  1
 S  S5  1  0.28927  0.75000  0.36866  1
 S  S6  1  0.00678  0.25000  0.26759  1
 S  S7  1  0.99322  0.75000  0.73241  1
 S  S8  1  0.71073  0.25000  0.63134  1
 S  S9  1  0.94651  0.75000  0.42461  1
 S  S10  1  0.26726  0.25000  0.87310  1
 S  S11  1  0.73274  0.75000  0.12690  1
 S  S12  1  0.04768  0.75000  0.07632  1
 S  S13  1  0.95232  0.25000  0.92368  1
 S  S14  1  0.63330  0.75000  0.46848  1
 S  S15  1  0.05349  0.25000  0.57539  1
 S  S16  1  0.63663  0.25000  0.28207  1
 S  S17  1  0.36337  0.75000  0.71793  1
 S  S18  1  0.67995  0.75000  0.81769  1
