CIF file written using JARVIS-Tools package.
data_BaBeSiO4
_symmetry_space_group_name_H-M  'Cm'
_cell_length_a       5.04863
_cell_length_b       5.15747
_cell_length_c       5.15745
_cell_angle_alpha    61.6672
_cell_angle_beta     61.0552
_cell_angle_gamma    61.0555

_symmetry_Int_Tables_number  8
_chemical_formula_structural  BaBeSiO4
_chemical_formula_sum  BaBeSiO4
_cell_volume  97.63932235702403
_cell_formula_units_Z  1
loop_
  _symmetry_equiv_pos_site_id
 _symmetry_equiv_pos_as_xyz
 1  'x, y, z'
loop_
 _atom_site_type_symbol
 _atom_site_label
 _atom_site_symmetry_multiplicity
 _atom_site_fract_x
 _atom_site_fract_y
 _atom_site_fract_z
 _atom_site_fract_occupancy
 Ba  Ba1  1  0.03384  0.98027  0.98026  1
 Be  Be1  1  0.26323  0.25287  0.25287  1
 O  O1  1  0.44714  0.37650  0.87888  1
 O  O2  1  0.88705  0.32286  0.32287  1
 O  O3  1  0.44714  0.87888  0.37650  1
 O  O4  1  0.26794  0.43609  0.43609  1
 Si  Si1  1  0.51436  0.50153  0.50153  1
