CIF file written using JARVIS-Tools package.
data_KYSiS4
_symmetry_space_group_name_H-M  'P2_1'
_cell_length_a       6.39847
_cell_length_b       6.59105
_cell_length_c       8.51397
_cell_angle_alpha    90
_cell_angle_beta     107.957
_cell_angle_gamma    90

_symmetry_Int_Tables_number  4
_chemical_formula_structural  KYSiS4
_chemical_formula_sum  K2Y2Si2S8
_cell_volume  341.56614049851964
_cell_formula_units_Z  2
loop_
  _symmetry_equiv_pos_site_id
 _symmetry_equiv_pos_as_xyz
 1  'x, y, z'
loop_
 _atom_site_type_symbol
 _atom_site_label
 _atom_site_symmetry_multiplicity
 _atom_site_fract_x
 _atom_site_fract_y
 _atom_site_fract_z
 _atom_site_fract_occupancy
 K  K1  1  0.73060  0.97921  0.93523  1
 K  K2  1  0.26940  0.47921  0.06477  1
 S  S1  1  0.58510  0.46275  0.83733  1
 S  S2  1  0.02421  0.22726  0.72465  1
 S  S3  1  0.98184  0.72878  0.70683  1
 S  S4  1  0.42090  0.90903  0.56899  1
 S  S5  1  0.57910  0.40903  0.43101  1
 S  S6  1  0.01816  0.22878  0.29317  1
 S  S7  1  0.97579  0.72726  0.27535  1
 S  S8  1  0.41490  0.96275  0.16267  1
 Si  Si1  1  0.78178  0.46227  0.67893  1
 Si  Si2  1  0.21822  0.96227  0.32107  1
 Y  Y1  1  0.23023  0.49770  0.55100  1
 Y  Y2  1  0.76977  0.99770  0.44900  1
