CIF file written using JARVIS-Tools package.
data_Lu3Th
_symmetry_space_group_name_H-M  'I4/mmm'
_cell_length_a       5.9922
_cell_length_b       5.9922
_cell_length_c       5.9922
_cell_angle_alpha    131.191
_cell_angle_beta     131.191
_cell_angle_gamma    71.5097

_symmetry_Int_Tables_number  139
_chemical_formula_structural  Lu3Th
_chemical_formula_sum  Lu3Th
_cell_volume  119.23150320488627
_cell_formula_units_Z  1
loop_
  _symmetry_equiv_pos_site_id
 _symmetry_equiv_pos_as_xyz
 1  'x, y, z'
loop_
 _atom_site_type_symbol
 _atom_site_label
 _atom_site_symmetry_multiplicity
 _atom_site_fract_x
 _atom_site_fract_y
 _atom_site_fract_z
 _atom_site_fract_occupancy
 Lu  Lu1  1  0.75000  0.25000  0.50000  1
 Lu  Lu2  1  0.25000  0.75000  0.50000  1
 Lu  Lu3  1  0.50000  0.50000  0.00000  1
 Th  Th1  1  0.00000  0.00000  0.00000  1
