CIF file written using JARVIS-Tools package.
data_Ho2S3
_symmetry_space_group_name_H-M  'P2_1/m'
_cell_length_a       10.1313
_cell_length_b       3.98997
_cell_length_c       17.5459
_cell_angle_alpha    90
_cell_angle_beta     98.6385
_cell_angle_gamma    90

_symmetry_Int_Tables_number  11
_chemical_formula_structural  Ho2S3
_chemical_formula_sum  Ho2S8
_cell_volume  701.2195595315751
_cell_formula_units_Z  6
loop_
  _symmetry_equiv_pos_site_id
 _symmetry_equiv_pos_as_xyz
 1  'x, y, z'
loop_
 _atom_site_type_symbol
 _atom_site_label
 _atom_site_symmetry_multiplicity
 _atom_site_fract_x
 _atom_site_fract_y
 _atom_site_fract_z
 _atom_site_fract_occupancy
 Ho  Ho1  1  0.54932  0.75000  0.11502  1
 Ho  Ho2  1  0.81213  0.25000  0.27933  1
 Ho  Ho3  1  0.45068  0.25000  0.88498  1
 Ho  Ho4  1  0.51382  0.25000  0.60146  1
 Ho  Ho5  1  0.18787  0.75000  0.72067  1
 Ho  Ho6  1  0.87567  0.25000  0.56986  1
 Ho  Ho7  1  0.48618  0.75000  0.39854  1
 Ho  Ho8  1  0.17004  0.25000  0.21883  1
 Ho  Ho9  1  0.12433  0.75000  0.43014  1
 Ho  Ho10  1  0.18894  0.75000  0.02065  1
 Ho  Ho11  1  0.81106  0.25000  0.97935  1
 Ho  Ho12  1  0.82996  0.75000  0.78117  1
 S  S1  1  0.71102  0.75000  0.63080  1
 S  S2  1  0.36704  0.75000  0.53184  1
 S  S3  1  0.63296  0.25000  0.46816  1
 S  S4  1  0.38498  0.25000  0.03314  1
 S  S5  1  0.67983  0.25000  0.81734  1
 S  S6  1  0.95215  0.75000  0.92375  1
 S  S7  1  0.04785  0.25000  0.07625  1
 S  S8  1  0.32017  0.75000  0.18266  1
 S  S9  1  0.73287  0.25000  0.12674  1
 S  S10  1  0.63662  0.75000  0.28166  1
 S  S11  1  0.36338  0.25000  0.71834  1
 S  S12  1  0.94672  0.25000  0.42471  1
 S  S13  1  0.05328  0.75000  0.57529  1
 S  S14  1  0.28898  0.25000  0.36920  1
 S  S15  1  0.26713  0.75000  0.87326  1
 S  S16  1  0.99340  0.25000  0.73233  1
 S  S17  1  0.00660  0.75000  0.26767  1
 S  S18  1  0.61502  0.75000  0.96686  1
