CIF file written using JARVIS-Tools package.
data_RbCuF3
_symmetry_space_group_name_H-M  'I4/mcm'
_cell_length_a       5.79745
_cell_length_b       5.79744
_cell_length_c       5.79745
_cell_angle_alpha    91.2362
_cell_angle_beta     119.289
_cell_angle_gamma    119.289

_symmetry_Int_Tables_number  140
_chemical_formula_structural  RbCuF3
_chemical_formula_sum  Rb2Cu2F6
_cell_volume  139.22873441725568
_cell_formula_units_Z  2
loop_
  _symmetry_equiv_pos_site_id
 _symmetry_equiv_pos_as_xyz
 1  'x, y, z'
loop_
 _atom_site_type_symbol
 _atom_site_label
 _atom_site_symmetry_multiplicity
 _atom_site_fract_x
 _atom_site_fract_y
 _atom_site_fract_z
 _atom_site_fract_occupancy
 Cu  Cu1  1  0.50000  0.00000  0.50000  1
 Cu  Cu2  1  0.50000  0.50000  0.00000  1
 F  F1  1  0.02798  0.26399  0.76399  1
 F  F2  1  0.50000  0.76399  0.73601  1
 F  F3  1  0.50000  0.23601  0.26399  1
 F  F4  1  0.97202  0.73601  0.23601  1
 F  F5  1  0.50000  0.75000  0.25000  1
 F  F6  1  0.50000  0.25000  0.75000  1
 Rb  Rb1  1  0.00000  0.75000  0.75000  1
 Rb  Rb2  1  0.00000  0.25000  0.25000  1
