CIF file written using JARVIS-Tools package.
data_YSi3Ni
_symmetry_space_group_name_H-M  'Cmmm'
_cell_length_a       3.95876
_cell_length_b       3.98661
_cell_length_c       10.731
_cell_angle_alpha    90
_cell_angle_beta     100.629
_cell_angle_gamma    90

_symmetry_Int_Tables_number  65
_chemical_formula_structural  YSi3Ni
_chemical_formula_sum  Y2Si6Ni2
_cell_volume  166.45115965191786
_cell_formula_units_Z  2
loop_
  _symmetry_equiv_pos_site_id
 _symmetry_equiv_pos_as_xyz
 1  'x, y, z'
loop_
 _atom_site_type_symbol
 _atom_site_label
 _atom_site_symmetry_multiplicity
 _atom_site_fract_x
 _atom_site_fract_y
 _atom_site_fract_z
 _atom_site_fract_occupancy
 Ni  Ni1  1  0.10992  0.00000  0.21983  1
 Ni  Ni2  1  0.89008  0.00000  0.78017  1
 Si  Si1  1  0.44379  0.00000  0.88757  1
 Si  Si2  1  0.55621  0.00000  0.11243  1
 Si  Si3  1  0.21758  0.00000  0.43516  1
 Si  Si4  1  0.78242  0.00000  0.56484  1
 Si  Si5  1  0.94379  0.50000  0.88758  1
 Si  Si6  1  0.05621  0.50000  0.11242  1
 Y  Y1  1  0.33098  0.50000  0.66196  1
 Y  Y2  1  0.66902  0.50000  0.33804  1
