CIF file written using JARVIS-Tools package.
data_BaTiS3
_symmetry_space_group_name_H-M  'P6_3/mmc'
_cell_length_a       6.77107
_cell_length_b       6.77107
_cell_length_c       5.7995
_cell_angle_alpha    90
_cell_angle_beta     90
_cell_angle_gamma    120

_symmetry_Int_Tables_number  194
_chemical_formula_structural  BaTiS3
_chemical_formula_sum  Ba2Ti2S6
_cell_volume  230.2689922518041
_cell_formula_units_Z  2
loop_
  _symmetry_equiv_pos_site_id
 _symmetry_equiv_pos_as_xyz
 1  'x, y, z'
loop_
 _atom_site_type_symbol
 _atom_site_label
 _atom_site_symmetry_multiplicity
 _atom_site_fract_x
 _atom_site_fract_y
 _atom_site_fract_z
 _atom_site_fract_occupancy
 Ba  Ba1  1  0.33333  0.66667  0.75000  1
 Ba  Ba2  1  0.66667  0.33333  0.25000  1
 S  S1  1  0.83328  0.16672  0.75000  1
 S  S2  1  0.66656  0.83328  0.25000  1
 S  S3  1  0.16672  0.33344  0.25000  1
 S  S4  1  0.83328  0.66656  0.75000  1
 S  S5  1  0.16672  0.83328  0.25000  1
 S  S6  1  0.33344  0.16672  0.75000  1
 Ti  Ti1  1  0.00000  0.00000  0.00000  1
 Ti  Ti2  1  0.00000  0.00000  0.50000  1
