CIF file written using JARVIS-Tools package.
data_Fe3B
_symmetry_space_group_name_H-M  'Pnma'
_cell_length_a       4.37997
_cell_length_b       5.35255
_cell_length_c       6.61602
_cell_angle_alpha    90.0001
_cell_angle_beta     90.0001
_cell_angle_gamma    89.9991

_symmetry_Int_Tables_number  62
_chemical_formula_structural  Fe3B
_chemical_formula_sum  Fe2B4
_cell_volume  155.10602333834723
_cell_formula_units_Z  4
loop_
  _symmetry_equiv_pos_site_id
 _symmetry_equiv_pos_as_xyz
 1  'x, y, z'
loop_
 _atom_site_type_symbol
 _atom_site_label
 _atom_site_symmetry_multiplicity
 _atom_site_fract_x
 _atom_site_fract_y
 _atom_site_fract_z
 _atom_site_fract_occupancy
 B  B1  1  0.07463  0.61641  0.75000  1
 B  B2  1  0.42537  0.11641  0.75000  1
 B  B3  1  0.57463  0.88359  0.25000  1
 B  B4  1  0.92537  0.38359  0.25000  1
 Fe  Fe1  1  0.12153  0.01981  0.25000  1
 Fe  Fe2  1  0.15056  0.32275  0.94549  1
 Fe  Fe3  1  0.15056  0.32275  0.55451  1
 Fe  Fe4  1  0.34944  0.82275  0.94549  1
 Fe  Fe5  1  0.34944  0.82274  0.55451  1
 Fe  Fe6  1  0.37847  0.51981  0.25000  1
 Fe  Fe7  1  0.62153  0.48019  0.75000  1
 Fe  Fe8  1  0.65056  0.17726  0.44549  1
 Fe  Fe9  1  0.65056  0.17726  0.05451  1
 Fe  Fe10  1  0.84944  0.67725  0.44549  1
 Fe  Fe11  1  0.84944  0.67725  0.05451  1
 Fe  Fe12  1  0.87846  0.98019  0.75000  1
