CIF file written using JARVIS-Tools package.
data_Na2TiS2O
_symmetry_space_group_name_H-M  'P2_1/c'
_cell_length_a       5.77182
_cell_length_b       13.5947
_cell_length_c       6.82996
_cell_angle_alpha    90
_cell_angle_beta     113.482
_cell_angle_gamma    90

_symmetry_Int_Tables_number  14
_chemical_formula_structural  Na2TiS2O
_chemical_formula_sum  Na8Ti4S8O4
_cell_volume  491.5407712752803
_cell_formula_units_Z  4
loop_
  _symmetry_equiv_pos_site_id
 _symmetry_equiv_pos_as_xyz
 1  'x, y, z'
loop_
 _atom_site_type_symbol
 _atom_site_label
 _atom_site_symmetry_multiplicity
 _atom_site_fract_x
 _atom_site_fract_y
 _atom_site_fract_z
 _atom_site_fract_occupancy
 Na  Na1  1  0.45472  0.36083  0.39353  1
 Na  Na2  1  0.35024  0.94284  0.21369  1
 Na  Na3  1  0.95472  0.13917  0.39353  1
 Na  Na4  1  0.14976  0.44284  0.78631  1
 Na  Na5  1  0.85024  0.55716  0.21369  1
 Na  Na6  1  0.04528  0.86083  0.60647  1
 Na  Na7  1  0.64976  0.05716  0.78631  1
 Na  Na8  1  0.54528  0.63917  0.60647  1
 O  O1  1  0.86130  0.70593  0.01928  1
 O  O2  1  0.36130  0.79407  0.01928  1
 O  O3  1  0.63870  0.20593  0.98072  1
 O  O4  1  0.13870  0.29407  0.98072  1
 S  S1  1  0.35271  0.55709  0.19271  1
 S  S2  1  0.94382  0.35639  0.36506  1
 S  S3  1  0.55618  0.85639  0.63494  1
 S  S4  1  0.85271  0.94291  0.19271  1
 S  S5  1  0.05618  0.64361  0.63494  1
 S  S6  1  0.44382  0.14361  0.36506  1
 S  S7  1  0.64729  0.44291  0.80729  1
 S  S8  1  0.14729  0.05709  0.80729  1
 Ti  Ti1  1  0.65908  0.81703  0.97892  1
 Ti  Ti2  1  0.34092  0.18297  0.02108  1
 Ti  Ti3  1  0.84092  0.31703  0.02108  1
 Ti  Ti4  1  0.15908  0.68297  0.97892  1
