CIF file written using JARVIS-Tools package.
data_Si
_symmetry_space_group_name_H-M  'Pm-3n'
_cell_length_a       10.2741
_cell_length_b       10.2741
_cell_length_c       10.2741
_cell_angle_alpha    90
_cell_angle_beta     90
_cell_angle_gamma    90

_symmetry_Int_Tables_number  223
_chemical_formula_structural  Si
_chemical_formula_sum  Si46
_cell_volume  1084.5172537096944
_cell_formula_units_Z  46
loop_
  _symmetry_equiv_pos_site_id
 _symmetry_equiv_pos_as_xyz
 1  'x, y, z'
loop_
 _atom_site_type_symbol
 _atom_site_label
 _atom_site_symmetry_multiplicity
 _atom_site_fract_x
 _atom_site_fract_y
 _atom_site_fract_z
 _atom_site_fract_occupancy
 Si  Si1  1  0.00000  0.88294  0.30812  1
 Si  Si2  1  0.00000  0.11706  0.30812  1
 Si  Si3  1  0.00000  0.88294  0.69188  1
 Si  Si4  1  0.30812  0.00000  0.88294  1
 Si  Si5  1  0.38294  0.50000  0.19188  1
 Si  Si6  1  0.69188  0.00000  0.11706  1
 Si  Si7  1  0.61706  0.50000  0.80812  1
 Si  Si8  1  0.30812  0.00000  0.11706  1
 Si  Si9  1  0.61706  0.50000  0.19188  1
 Si  Si10  1  0.68365  0.31635  0.31635  1
 Si  Si11  1  0.69188  0.00000  0.88294  1
 Si  Si12  1  0.88294  0.30812  0.00000  1
 Si  Si13  1  0.50000  0.80812  0.61706  1
 Si  Si14  1  0.11706  0.69188  0.00000  1
 Si  Si15  1  0.50000  0.19188  0.38294  1
 Si  Si16  1  0.88294  0.69188  0.00000  1
 Si  Si17  1  0.50000  0.19188  0.61706  1
 Si  Si18  1  0.11706  0.30812  0.00000  1
 Si  Si19  1  0.50000  0.80812  0.38294  1
 Si  Si20  1  0.19188  0.38294  0.50000  1
 Si  Si21  1  0.00000  0.11706  0.69188  1
 Si  Si22  1  0.80812  0.61706  0.50000  1
 Si  Si23  1  0.19188  0.61706  0.50000  1
 Si  Si24  1  0.80812  0.38294  0.50000  1
 Si  Si25  1  0.75000  0.50000  0.00000  1
 Si  Si26  1  0.00000  0.25000  0.50000  1
 Si  Si27  1  0.00000  0.75000  0.50000  1
 Si  Si28  1  0.50000  0.00000  0.25000  1
 Si  Si29  1  0.50000  0.00000  0.75000  1
 Si  Si30  1  0.81635  0.81635  0.81635  1
 Si  Si31  1  0.18365  0.18365  0.18365  1
 Si  Si32  1  0.18365  0.18365  0.81635  1
 Si  Si33  1  0.18365  0.81635  0.18365  1
 Si  Si34  1  0.38294  0.50000  0.80812  1
 Si  Si35  1  0.31635  0.31635  0.68365  1
 Si  Si36  1  0.81635  0.18365  0.81635  1
 Si  Si37  1  0.68365  0.68365  0.31635  1
 Si  Si38  1  0.81635  0.18365  0.18365  1
 Si  Si39  1  0.68365  0.68365  0.68365  1
 Si  Si40  1  0.18365  0.81635  0.81635  1
 Si  Si41  1  0.31635  0.31635  0.31635  1
 Si  Si42  1  0.31635  0.68365  0.31635  1
 Si  Si43  1  0.68365  0.31635  0.68365  1
 Si  Si44  1  0.25000  0.50000  0.00000  1
 Si  Si45  1  0.81635  0.81635  0.18365  1
 Si  Si46  1  0.31635  0.68365  0.68365  1
