CIF file written using JARVIS-Tools package.
data_Al6Tc
_symmetry_space_group_name_H-M  'Cmcm'
_cell_length_a       5.06178
_cell_length_b       5.06178
_cell_length_c       9.07434
_cell_angle_alpha    90
_cell_angle_beta     90
_cell_angle_gamma    98.0637

_symmetry_Int_Tables_number  63
_chemical_formula_structural  Al6Tc
_chemical_formula_sum  Al2Tc2
_cell_volume  230.20061459239005
_cell_formula_units_Z  2
loop_
  _symmetry_equiv_pos_site_id
 _symmetry_equiv_pos_as_xyz
 1  'x, y, z'
loop_
 _atom_site_type_symbol
 _atom_site_label
 _atom_site_symmetry_multiplicity
 _atom_site_fract_x
 _atom_site_fract_y
 _atom_site_fract_z
 _atom_site_fract_occupancy
 Al  Al1  1  0.32400  0.67600  0.00000  1
 Al  Al2  1  0.67600  0.32400  0.50000  1
 Al  Al3  1  0.67600  0.32400  0.00000  1
 Al  Al4  1  0.32400  0.67600  0.50000  1
 Al  Al5  1  0.13109  0.13109  0.60144  1
 Al  Al6  1  0.86891  0.86891  0.10144  1
 Al  Al7  1  0.13109  0.13109  0.89856  1
 Al  Al8  1  0.86891  0.86891  0.39856  1
 Al  Al9  1  0.39252  0.03108  0.25000  1
 Al  Al10  1  0.60748  0.96892  0.75000  1
 Al  Al11  1  0.03108  0.39252  0.25000  1
 Al  Al12  1  0.96892  0.60748  0.75000  1
 Tc  Tc1  1  0.54629  0.54629  0.25000  1
 Tc  Tc2  1  0.45371  0.45371  0.75000  1
