CIF file written using JARVIS-Tools package.
data_K2CdAu4S4
_symmetry_space_group_name_H-M  'Ibam'
_cell_length_a       7.03674
_cell_length_b       9.71443
_cell_length_c       9.71444
_cell_angle_alpha    66.4063
_cell_angle_beta     68.7658
_cell_angle_gamma    68.7659

_symmetry_Int_Tables_number  72
_chemical_formula_structural  K2CdAu4S4
_chemical_formula_sum  K4Cd2Au8S8
_cell_volume  548.5864168164142
_cell_formula_units_Z  2
loop_
  _symmetry_equiv_pos_site_id
 _symmetry_equiv_pos_as_xyz
 1  'x, y, z'
loop_
 _atom_site_type_symbol
 _atom_site_label
 _atom_site_symmetry_multiplicity
 _atom_site_fract_x
 _atom_site_fract_y
 _atom_site_fract_z
 _atom_site_fract_occupancy
 Au  Au1  1  0.50000  0.50000  0.00000  1
 Au  Au2  1  0.86733  0.63267  0.63267  1
 Au  Au3  1  0.36733  0.13267  0.13267  1
 Au  Au4  1  0.63267  0.86733  0.86733  1
 Au  Au5  1  0.00000  0.50000  0.00000  1
 Au  Au6  1  0.50000  0.00000  0.50000  1
 Au  Au7  1  0.00000  0.00000  0.50000  1
 Au  Au8  1  0.13267  0.36733  0.36733  1
 Cd  Cd1  1  0.25000  0.75000  0.75000  1
 Cd  Cd2  1  0.75000  0.25000  0.25000  1
 K  K1  1  0.16171  0.15279  0.84721  1
 K  K2  1  0.83829  0.84721  0.15279  1
 K  K3  1  0.33829  0.65279  0.34721  1
 K  K4  1  0.66171  0.34721  0.65279  1
 S  S1  1  0.84430  0.48549  0.25992  1
 S  S2  1  0.08971  0.01451  0.24008  1
 S  S3  1  0.58971  0.74008  0.51451  1
 S  S4  1  0.34430  0.75992  0.98549  1
 S  S5  1  0.91029  0.98549  0.75992  1
 S  S6  1  0.41029  0.25992  0.48549  1
 S  S7  1  0.15570  0.51451  0.74008  1
 S  S8  1  0.65570  0.24008  0.01451  1
