CIF file written using JARVIS-Tools package.
data_VCo2Se4
_symmetry_space_group_name_H-M  'C2/m'
_cell_length_a       3.51281
_cell_length_b       6.30623
_cell_length_c       6.51034
_cell_angle_alpha    118.746
_cell_angle_beta     105.652
_cell_angle_gamma    90

_symmetry_Int_Tables_number  12
_chemical_formula_structural  VCo2Se4
_chemical_formula_sum  VCo2Se4
_cell_volume  120.31238416037557
_cell_formula_units_Z  1
loop_
  _symmetry_equiv_pos_site_id
 _symmetry_equiv_pos_as_xyz
 1  'x, y, z'
loop_
 _atom_site_type_symbol
 _atom_site_label
 _atom_site_symmetry_multiplicity
 _atom_site_fract_x
 _atom_site_fract_y
 _atom_site_fract_z
 _atom_site_fract_occupancy
 Co  Co1  1  0.25667  0.27285  0.51333  1
 Co  Co2  1  0.74333  0.72715  0.48667  1
 Se  Se1  1  0.13118  0.45891  0.26236  1
 Se  Se2  1  0.86882  0.54109  0.73764  1
 Se  Se3  1  0.36545  0.03652  0.73089  1
 Se  Se4  1  0.63455  0.96348  0.26911  1
 V  V1  1  0.00000  0.00000  0.00000  1
