CIF file written using JARVIS-Tools package.
data_Br
_symmetry_space_group_name_H-M  'Cmce'
_cell_length_a       4.00432
_cell_length_b       4.00432
_cell_length_c       8.63002
_cell_angle_alpha    90
_cell_angle_beta     90
_cell_angle_gamma    116.764

_symmetry_Int_Tables_number  64
_chemical_formula_structural  Br
_chemical_formula_sum  Br4
_cell_volume  123.55468172548566
_cell_formula_units_Z  4
loop_
  _symmetry_equiv_pos_site_id
 _symmetry_equiv_pos_as_xyz
 1  'x, y, z'
loop_
 _atom_site_type_symbol
 _atom_site_label
 _atom_site_symmetry_multiplicity
 _atom_site_fract_x
 _atom_site_fract_y
 _atom_site_fract_z
 _atom_site_fract_occupancy
 Br  Br1  1  0.15119  0.15119  0.11832  1
 Br  Br2  1  0.34881  0.34881  0.61832  1
 Br  Br3  1  0.65119  0.65119  0.38168  1
 Br  Br4  1  0.84881  0.84881  0.88168  1
