CIF file written using JARVIS-Tools package.
data_Sm
_symmetry_space_group_name_H-M  'P6_3/mmc'
_cell_length_a       3.59952
_cell_length_b       3.59952
_cell_length_c       11.6008
_cell_angle_alpha    90
_cell_angle_beta     90
_cell_angle_gamma    120

_symmetry_Int_Tables_number  194
_chemical_formula_structural  Sm
_chemical_formula_sum  Sm4
_cell_volume  130.1697191807866
_cell_formula_units_Z  4
loop_
  _symmetry_equiv_pos_site_id
 _symmetry_equiv_pos_as_xyz
 1  'x, y, z'
loop_
 _atom_site_type_symbol
 _atom_site_label
 _atom_site_symmetry_multiplicity
 _atom_site_fract_x
 _atom_site_fract_y
 _atom_site_fract_z
 _atom_site_fract_occupancy
 Sm  Sm1  1  0.00000  0.00000  0.00000  1
 Sm  Sm2  1  0.00000  0.00000  0.50000  1
 Sm  Sm3  1  0.33333  0.66667  0.25000  1
 Sm  Sm4  1  0.66667  0.33333  0.75000  1
