CIF file written using JARVIS-Tools package.
data_C
_symmetry_space_group_name_H-M  'Fmmm'
_cell_length_a       4.26826
_cell_length_b       4.93112
_cell_length_c       6.74798
_cell_angle_alpha    90
_cell_angle_beta     90
_cell_angle_gamma    90

_symmetry_Int_Tables_number  69
_chemical_formula_structural  C
_chemical_formula_sum  C6
_cell_volume  142.0268152278081
_cell_formula_units_Z  16
loop_
  _symmetry_equiv_pos_site_id
 _symmetry_equiv_pos_as_xyz
 1  'x, y, z'
loop_
 _atom_site_type_symbol
 _atom_site_label
 _atom_site_symmetry_multiplicity
 _atom_site_fract_x
 _atom_site_fract_y
 _atom_site_fract_z
 _atom_site_fract_occupancy
 C  C1  1  0.16669  0.62500  0.75007  1
 C  C2  1  0.16669  0.37500  0.24993  1
 C  C3  1  0.33331  0.12500  0.24993  1
 C  C4  1  0.83331  0.37500  0.24993  1
 C  C5  1  0.83331  0.12500  0.75007  1
 C  C6  1  0.66669  0.12500  0.24993  1
 C  C7  1  0.66669  0.62500  0.24993  1
 C  C8  1  0.66669  0.37500  0.75007  1
 C  C9  1  0.33331  0.62500  0.24993  1
 C  C10  1  0.83331  0.87500  0.24993  1
 C  C11  1  0.16669  0.87500  0.24993  1
 C  C12  1  0.66669  0.87500  0.75007  1
 C  C13  1  0.33331  0.37500  0.75007  1
 C  C14  1  0.16669  0.12500  0.75007  1
 C  C15  1  0.33331  0.87500  0.75007  1
 C  C16  1  0.83331  0.62500  0.75007  1
