CIF file written using JARVIS-Tools package.
data_Pm2S3
_symmetry_space_group_name_H-M  'R-3c'
_cell_length_a       7.11736
_cell_length_b       7.11737
_cell_length_c       7.48972
_cell_angle_alpha    118.369
_cell_angle_beta     61.6314
_cell_angle_gamma    120

_symmetry_Int_Tables_number  167
_chemical_formula_structural  Pm2S3
_chemical_formula_sum  Pm4S6
_cell_volume  274.70614287072004
_cell_formula_units_Z  2
loop_
  _symmetry_equiv_pos_site_id
 _symmetry_equiv_pos_as_xyz
 1  'x, y, z'
loop_
 _atom_site_type_symbol
 _atom_site_label
 _atom_site_symmetry_multiplicity
 _atom_site_fract_x
 _atom_site_fract_y
 _atom_site_fract_z
 _atom_site_fract_occupancy
 Pm  Pm1  1  0.64659  0.35341  0.06023  1
 Pm  Pm2  1  0.85341  0.14659  0.43977  1
 Pm  Pm3  1  0.14659  0.85341  0.56023  1
 Pm  Pm4  1  0.35341  0.64659  0.93977  1
 S  S1  1  0.25000  0.04726  0.25000  1
 S  S2  1  0.95274  0.45274  0.25000  1
 S  S3  1  0.54726  0.75000  0.25000  1
 S  S4  1  0.45274  0.25000  0.75000  1
 S  S5  1  0.04726  0.54726  0.75000  1
 S  S6  1  0.75000  0.95274  0.75000  1
