CIF file written using JARVIS-Tools package.
data_MoWSe3S
_symmetry_space_group_name_H-M  'P3m1'
_cell_length_a       3.29113
_cell_length_b       3.29101
_cell_length_c       34.3673
_cell_angle_alpha    90.053
_cell_angle_beta     90.0067
_cell_angle_gamma    120

_symmetry_Int_Tables_number  156
_chemical_formula_structural  MoWSe3S
_chemical_formula_sum  Mo2W2Se6S2
_cell_volume  322.3646908508741
_cell_formula_units_Z  2
loop_
  _symmetry_equiv_pos_site_id
 _symmetry_equiv_pos_as_xyz
 1  'x, y, z'
loop_
 _atom_site_type_symbol
 _atom_site_label
 _atom_site_symmetry_multiplicity
 _atom_site_fract_x
 _atom_site_fract_y
 _atom_site_fract_z
 _atom_site_fract_occupancy
 Mo  Mo1  1  0.33342  0.66696  0.09471  1
 Mo  Mo2  1  0.33334  0.66675  0.46711  1
 S  S1  1  0.33372  0.66733  0.32581  1
 S  S2  1  0.33292  0.66606  0.23603  1
 Se  Se1  1  0.33371  0.66722  0.70948  1
 Se  Se2  1  0.66635  0.33288  0.04570  1
 Se  Se3  1  0.66619  0.33253  0.41806  1
 Se  Se4  1  0.66713  0.33406  0.14377  1
 Se  Se5  1  0.66721  0.33416  0.51617  1
 Se  Se6  1  0.33276  0.66571  0.61081  1
 W  W1  1  0.66665  0.33326  0.28092  1
 W  W2  1  0.66659  0.33308  0.66018  1
