CIF file written using JARVIS-Tools package.
data_Te4MoW3Se4
_symmetry_space_group_name_H-M  'P3m1'
_cell_length_a       3.44247
_cell_length_b       3.44248
_cell_length_c       37.504
_cell_angle_alpha    90.0001
_cell_angle_beta     90
_cell_angle_gamma    120

_symmetry_Int_Tables_number  156
_chemical_formula_structural  Te4MoW3Se4
_chemical_formula_sum  Te4MoW3Se4
_cell_volume  384.90175955077444
_cell_formula_units_Z  1
loop_
  _symmetry_equiv_pos_site_id
 _symmetry_equiv_pos_as_xyz
 1  'x, y, z'
loop_
 _atom_site_type_symbol
 _atom_site_label
 _atom_site_symmetry_multiplicity
 _atom_site_fract_x
 _atom_site_fract_y
 _atom_site_fract_z
 _atom_site_fract_occupancy
 Mo  Mo1  1  0.66665  0.33330  0.27876  1
 Se  Se1  1  0.33333  0.66667  0.70003  1
 Se  Se2  1  0.66666  0.33332  0.05152  1
 Se  Se3  1  0.66668  0.33336  0.13909  1
 Se  Se4  1  0.33335  0.66670  0.61246  1
 Te  Te1  1  0.33332  0.66664  0.32836  1
 Te  Te2  1  0.66667  0.33334  0.42275  1
 Te  Te3  1  0.66667  0.33334  0.52243  1
 Te  Te4  1  0.33331  0.66663  0.22918  1
 W  W1  1  0.33334  0.66667  0.09527  1
 W  W2  1  0.33334  0.66667  0.47260  1
 W  W3  1  0.66668  0.33335  0.65628  1
