CIF file written using JARVIS-Tools package.
data_Y2Be2FeSi2O10
_symmetry_space_group_name_H-M  'P2_1/c'
_cell_length_a       4.69669
_cell_length_b       7.44721
_cell_length_c       9.95008
_cell_angle_alpha    90
_cell_angle_beta     89.0299
_cell_angle_gamma    90

_symmetry_Int_Tables_number  14
_chemical_formula_structural  Y2Be2FeSi2O10
_chemical_formula_sum  Y4Be4Fe2Si4O20
_cell_volume  347.97640148491934
_cell_formula_units_Z  2
loop_
  _symmetry_equiv_pos_site_id
 _symmetry_equiv_pos_as_xyz
 1  'x, y, z'
loop_
 _atom_site_type_symbol
 _atom_site_label
 _atom_site_symmetry_multiplicity
 _atom_site_fract_x
 _atom_site_fract_y
 _atom_site_fract_z
 _atom_site_fract_occupancy
 Be  Be1  1  0.54435  0.91446  0.16028  1
 Be  Be2  1  0.45565  0.41446  0.33972  1
 Be  Be3  1  0.45565  0.08554  0.83972  1
 Be  Be4  1  0.54435  0.58554  0.66028  1
 Fe  Fe1  1  0.00000  0.50000  0.50000  1
 Fe  Fe2  1  0.00000  0.00000  0.00000  1
 O  O1  1  0.75159  0.07759  0.52546  1
 O  O2  1  0.70661  0.39211  0.63462  1
 O  O3  1  0.30003  0.20304  0.96031  1
 O  O4  1  0.20845  0.58906  0.66605  1
 O  O5  1  0.20845  0.91094  0.16605  1
 O  O6  1  0.69997  0.79696  0.03969  1
 O  O7  1  0.29339  0.89211  0.86538  1
 O  O8  1  0.69545  0.84080  0.29707  1
 O  O9  1  0.30455  0.34080  0.20293  1
 O  O10  1  0.70661  0.10789  0.13462  1
 O  O11  1  0.29339  0.60789  0.36538  1
 O  O12  1  0.79155  0.41094  0.33395  1
 O  O13  1  0.24841  0.92241  0.47454  1
 O  O14  1  0.79155  0.08906  0.83395  1
 O  O15  1  0.75159  0.42241  0.02546  1
 O  O16  1  0.30003  0.29696  0.46031  1
 O  O17  1  0.24841  0.57759  0.97454  1
 O  O18  1  0.69545  0.65920  0.79707  1
 O  O19  1  0.30455  0.15920  0.70293  1
 O  O20  1  0.69997  0.70304  0.53969  1
 Si  Si1  1  0.48494  0.77911  0.42223  1
 Si  Si2  1  0.51506  0.27911  0.07777  1
 Si  Si3  1  0.51506  0.22089  0.57777  1
 Si  Si4  1  0.48494  0.72089  0.92223  1
 Y  Y1  1  -0.00322  0.88879  0.67436  1
 Y  Y2  1  0.00322  0.38879  0.82564  1
 Y  Y3  1  0.00322  0.11121  0.32564  1
 Y  Y4  1  -0.00322  0.61121  0.17436  1
