CIF file written using JARVIS-Tools package.
data_CaAlPd
_symmetry_space_group_name_H-M  'Pbcm'
_cell_length_a       5.6415
_cell_length_b       5.71753
_cell_length_c       7.80641
_cell_angle_alpha    90
_cell_angle_beta     90
_cell_angle_gamma    90

_symmetry_Int_Tables_number  57
_chemical_formula_structural  CaAlPd
_chemical_formula_sum  Ca4Al4Pd4
_cell_volume  251.79916911677893
_cell_formula_units_Z  4
loop_
  _symmetry_equiv_pos_site_id
 _symmetry_equiv_pos_as_xyz
 1  'x, y, z'
loop_
 _atom_site_type_symbol
 _atom_site_label
 _atom_site_symmetry_multiplicity
 _atom_site_fract_x
 _atom_site_fract_y
 _atom_site_fract_z
 _atom_site_fract_occupancy
 Al  Al1  1  0.00000  0.10687  0.25000  1
 Al  Al2  1  0.50000  0.10687  0.25000  1
 Al  Al3  1  0.50000  0.89313  0.75000  1
 Al  Al4  1  0.00000  0.89313  0.75000  1
 Ca  Ca1  1  0.25000  0.36277  0.59971  1
 Ca  Ca2  1  0.75000  0.63723  0.40029  1
 Ca  Ca3  1  0.75000  0.36277  0.90029  1
 Ca  Ca4  1  0.25000  0.63723  0.09971  1
 Pd  Pd1  1  0.25000  0.13529  0.97290  1
 Pd  Pd2  1  0.25000  0.86471  0.47290  1
 Pd  Pd3  1  0.75000  0.13529  0.52710  1
 Pd  Pd4  1  0.75000  0.86471  0.02710  1
