CIF file written using JARVIS-Tools package.
data_SbSCl9
_symmetry_space_group_name_H-M  'C2/m'
_cell_length_a       7.31089
_cell_length_b       7.31089
_cell_length_c       13.7512
_cell_angle_alpha    91.8533
_cell_angle_beta     105.529
_cell_angle_gamma    115.823

_symmetry_Int_Tables_number  12
_chemical_formula_structural  SbSCl9
_chemical_formula_sum  Sb2S2Cl8
_cell_volume  627.9701257599728
_cell_formula_units_Z  2
loop_
  _symmetry_equiv_pos_site_id
 _symmetry_equiv_pos_as_xyz
 1  'x, y, z'
loop_
 _atom_site_type_symbol
 _atom_site_label
 _atom_site_symmetry_multiplicity
 _atom_site_fract_x
 _atom_site_fract_y
 _atom_site_fract_z
 _atom_site_fract_occupancy
 Cl  Cl1  1  0.36633  0.68791  0.61286  1
 Cl  Cl2  1  0.22763  0.56887  0.19778  1
 Cl  Cl3  1  0.63367  0.31209  0.38714  1
 Cl  Cl4  1  0.92495  0.24653  0.61286  1
 Cl  Cl5  1  0.62892  0.97015  0.19778  1
 Cl  Cl6  1  0.07505  0.75347  0.38714  1
 Cl  Cl7  1  0.10836  0.29877  0.40713  1
 Cl  Cl8  1  0.30684  0.30684  -0.00000  1
 Cl  Cl9  1  0.61565  0.78813  0.40378  1
 Cl  Cl10  1  0.69316  0.69316  0.00000  1
 Cl  Cl11  1  0.85189  0.96303  0.81492  1
 Cl  Cl12  1  0.77237  0.43113  0.80222  1
 Cl  Cl13  1  0.38435  0.21187  0.59622  1
 Cl  Cl14  1  0.82706  0.20513  0.03219  1
 Cl  Cl15  1  0.14811  0.03697  0.18508  1
 Cl  Cl16  1  0.89164  0.70123  0.59287  1
 Cl  Cl17  1  0.17294  0.79487  0.96781  1
 Cl  Cl18  1  0.37108  0.02985  0.80222  1
 S  S1  1  0.43417  0.84951  0.28368  1
 S  S2  1  0.56583  0.15049  0.71632  1
 Sb  Sb1  1  -0.00000  0.50000  0.50000  1
 Sb  Sb2  1  0.00000  0.00000  0.00000  1
