CIF file written using JARVIS-Tools package.
data_Pr2O3
_symmetry_space_group_name_H-M  'Ia-3'
_cell_length_a       9.76464
_cell_length_b       9.76465
_cell_length_c       9.76464
_cell_angle_alpha    109.471
_cell_angle_beta     109.471
_cell_angle_gamma    109.471

_symmetry_Int_Tables_number  206
_chemical_formula_structural  Pr2O3
_chemical_formula_sum  Pr6O24
_cell_volume  716.7155726334307
_cell_formula_units_Z  8
loop_
  _symmetry_equiv_pos_site_id
 _symmetry_equiv_pos_as_xyz
 1  'x, y, z'
loop_
 _atom_site_type_symbol
 _atom_site_label
 _atom_site_symmetry_multiplicity
 _atom_site_fract_x
 _atom_site_fract_y
 _atom_site_fract_z
 _atom_site_fract_occupancy
 O  O1  1  0.73089  0.25870  0.77111  1
 O  O2  1  0.22889  0.26911  0.74130  1
 O  O3  1  0.27111  0.01241  0.04022  1
 O  O4  1  0.23089  0.45978  0.47219  1
 O  O5  1  0.45978  0.47219  0.23089  1
 O  O6  1  0.75870  0.02781  0.48759  1
 O  O7  1  0.26911  0.74130  0.22889  1
 O  O8  1  0.04022  0.27111  0.01241  1
 O  O9  1  0.98759  0.95978  0.72889  1
 O  O10  1  0.25870  0.77111  0.73089  1
 O  O11  1  0.01241  0.04022  0.27111  1
 O  O12  1  0.47219  0.23089  0.45978  1
 O  O13  1  0.97219  0.51241  0.24130  1
 O  O14  1  0.77111  0.73089  0.25870  1
 O  O15  1  0.72889  0.98759  0.95978  1
 O  O16  1  0.76911  0.54022  0.52781  1
 O  O17  1  0.52781  0.76911  0.54022  1
 O  O18  1  0.48759  0.75870  0.02781  1
 O  O19  1  0.02781  0.48759  0.75870  1
 O  O20  1  0.51241  0.24130  0.97219  1
 O  O21  1  0.24130  0.97219  0.51241  1
 O  O22  1  0.54022  0.52781  0.76911  1
 O  O23  1  0.95978  0.72889  0.98759  1
 O  O24  1  0.74130  0.22889  0.26911  1
 Pr  Pr1  1  0.25000  0.71992  0.46992  1
 Pr  Pr2  1  0.03008  0.75000  0.78008  1
 Pr  Pr3  1  0.78008  0.03008  0.75000  1
 Pr  Pr4  1  0.46992  0.25000  0.71992  1
 Pr  Pr5  1  0.71992  0.46992  0.25000  1
 Pr  Pr6  1  0.75000  0.28008  0.53008  1
 Pr  Pr7  1  0.75000  0.78008  0.03008  1
 Pr  Pr8  1  0.53008  0.75000  0.28008  1
 Pr  Pr9  1  0.28008  0.53008  0.75000  1
 Pr  Pr10  1  0.25000  0.21992  0.96992  1
 Pr  Pr11  1  0.00000  0.50000  -0.00000  1
 Pr  Pr12  1  0.50000  0.00000  -0.00000  1
 Pr  Pr13  1  0.96992  0.25000  0.21992  1
 Pr  Pr14  1  0.00000  0.00000  0.50000  1
 Pr  Pr15  1  0.21992  0.96992  0.25000  1
 Pr  Pr16  1  0.50000  0.50000  0.50000  1
