CIF file written using JARVIS-Tools package.
data_YBi2BrO4
_symmetry_space_group_name_H-M  'P4/mmm'
_cell_length_a       3.90935
_cell_length_b       3.90935
_cell_length_c       9.23314
_cell_angle_alpha    90
_cell_angle_beta     90
_cell_angle_gamma    90

_symmetry_Int_Tables_number  123
_chemical_formula_structural  YBi2BrO4
_chemical_formula_sum  YBi2BrO4
_cell_volume  141.10993569417417
_cell_formula_units_Z  1
loop_
  _symmetry_equiv_pos_site_id
 _symmetry_equiv_pos_as_xyz
 1  'x, y, z'
loop_
 _atom_site_type_symbol
 _atom_site_label
 _atom_site_symmetry_multiplicity
 _atom_site_fract_x
 _atom_site_fract_y
 _atom_site_fract_z
 _atom_site_fract_occupancy
 Bi  Bi1  1  0.50000  0.50000  0.27130  1
 Bi  Bi2  1  0.50000  0.50000  0.72870  1
 Br  Br1  1  0.00000  0.00000  0.50000  1
 O  O1  1  0.00000  0.50000  0.14905  1
 O  O2  1  0.50000  0.00000  0.85095  1
 O  O3  1  0.00000  0.50000  0.85095  1
 O  O4  1  0.50000  0.00000  0.14905  1
 Y  Y1  1  0.00000  0.00000  0.00000  1
