CIF file written using JARVIS-Tools package.
data_Cr
_symmetry_space_group_name_H-M  'Fm-3m'
_cell_length_a       2.55354
_cell_length_b       2.55354
_cell_length_c       2.55354
_cell_angle_alpha    60
_cell_angle_beta     60
_cell_angle_gamma    60.0001

_symmetry_Int_Tables_number  225
_chemical_formula_structural  Cr
_chemical_formula_sum  Cr
_cell_volume  11.77371172998371
_cell_formula_units_Z  1
loop_
  _symmetry_equiv_pos_site_id
 _symmetry_equiv_pos_as_xyz
 1  'x, y, z'
loop_
 _atom_site_type_symbol
 _atom_site_label
 _atom_site_symmetry_multiplicity
 _atom_site_fract_x
 _atom_site_fract_y
 _atom_site_fract_z
 _atom_site_fract_occupancy
 Cr  Cr1  1  0.00000  0.00000  0.00000  1
