CIF file written using JARVIS-Tools package.
data_Al12Tc
_symmetry_space_group_name_H-M  'Im-3'
_cell_length_a       6.55716
_cell_length_b       6.55716
_cell_length_c       6.55716
_cell_angle_alpha    109.471
_cell_angle_beta     109.471
_cell_angle_gamma    109.471

_symmetry_Int_Tables_number  204
_chemical_formula_structural  Al12Tc
_chemical_formula_sum  Al2Tc
_cell_volume  217.03316785738755
_cell_formula_units_Z  1
loop_
  _symmetry_equiv_pos_site_id
 _symmetry_equiv_pos_as_xyz
 1  'x, y, z'
loop_
 _atom_site_type_symbol
 _atom_site_label
 _atom_site_symmetry_multiplicity
 _atom_site_fract_x
 _atom_site_fract_y
 _atom_site_fract_z
 _atom_site_fract_occupancy
 Al  Al1  1  0.49592  0.30725  0.18867  1
 Al  Al2  1  0.30725  0.81133  0.11858  1
 Al  Al3  1  0.18867  0.88142  0.69275  1
 Al  Al4  1  0.69275  0.81133  0.50408  1
 Al  Al5  1  0.81133  0.11858  0.30725  1
 Al  Al6  1  0.69275  0.18867  0.88142  1
 Al  Al7  1  0.81133  0.50408  0.69275  1
 Al  Al8  1  0.18867  0.49592  0.30725  1
 Al  Al9  1  0.30725  0.18867  0.49592  1
 Al  Al10  1  0.11858  0.30725  0.81133  1
 Al  Al11  1  0.88142  0.69275  0.18867  1
 Al  Al12  1  0.50408  0.69275  0.81133  1
 Tc  Tc1  1  0.00000  0.00000  0.00000  1
