CIF file written using JARVIS-Tools package.
data_Sr2IN
_symmetry_space_group_name_H-M  'R-3m'
_cell_length_a       8.06964
_cell_length_b       8.06964
_cell_length_c       8.06964
_cell_angle_alpha    28.746
_cell_angle_beta     28.7461
_cell_angle_gamma    28.746

_symmetry_Int_Tables_number  166
_chemical_formula_structural  Sr2IN
_chemical_formula_sum  Sr2IN
_cell_volume  107.46280548552757
_cell_formula_units_Z  1
loop_
  _symmetry_equiv_pos_site_id
 _symmetry_equiv_pos_as_xyz
 1  'x, y, z'
loop_
 _atom_site_type_symbol
 _atom_site_label
 _atom_site_symmetry_multiplicity
 _atom_site_fract_x
 _atom_site_fract_y
 _atom_site_fract_z
 _atom_site_fract_occupancy
 I  I1  1  0.00000  0.00000  0.00000  1
 N  N1  1  0.50000  0.50000  0.50000  1
 Sr  Sr1  1  0.22364  0.22364  0.22364  1
 Sr  Sr2  1  0.77636  0.77636  0.77636  1
