CIF file written using JARVIS-Tools package.
data_V2FeTe4
_symmetry_space_group_name_H-M  'C2/m'
_cell_length_a       3.92412
_cell_length_b       6.82659
_cell_length_c       7.19907
_cell_angle_alpha    118.437
_cell_angle_beta     105.816
_cell_angle_gamma    90

_symmetry_Int_Tables_number  12
_chemical_formula_structural  V2FeTe4
_chemical_formula_sum  V2FeTe4
_cell_volume  161.23061173610526
_cell_formula_units_Z  1
loop_
  _symmetry_equiv_pos_site_id
 _symmetry_equiv_pos_as_xyz
 1  'x, y, z'
loop_
 _atom_site_type_symbol
 _atom_site_label
 _atom_site_symmetry_multiplicity
 _atom_site_fract_x
 _atom_site_fract_y
 _atom_site_fract_z
 _atom_site_fract_occupancy
 Fe  Fe1  1  0.00000  0.00000  0.00000  1
 Te  Te1  1  0.10925  0.44997  0.21850  1
 Te  Te2  1  0.89075  0.55003  0.78150  1
 Te  Te3  1  0.36661  0.03326  0.73323  1
 Te  Te4  1  0.63339  0.96674  0.26677  1
 V  V1  1  0.24810  0.28859  0.49621  1
 V  V2  1  0.75190  0.71141  0.50379  1
