CIF file written using JARVIS-Tools package.
data_AcN
_symmetry_space_group_name_H-M  'P6_3mc'
_cell_length_a       4.3
_cell_length_b       4.3
_cell_length_c       6.239
_cell_angle_alpha    90
_cell_angle_beta     90
_cell_angle_gamma    120

_symmetry_Int_Tables_number  186
_chemical_formula_structural  AcN
_chemical_formula_sum  Ac2N2
_cell_volume  99.90408270135795
_cell_formula_units_Z  2
loop_
  _symmetry_equiv_pos_site_id
 _symmetry_equiv_pos_as_xyz
 1  'x, y, z'
loop_
 _atom_site_type_symbol
 _atom_site_label
 _atom_site_symmetry_multiplicity
 _atom_site_fract_x
 _atom_site_fract_y
 _atom_site_fract_z
 _atom_site_fract_occupancy
 Ac  Ac1  1  0.33333  0.66667  0.98249  1
 Ac  Ac2  1  0.66667  0.33333  0.48249  1
 N  N1  1  0.33333  0.66667  0.39250  1
 N  N2  1  0.66667  0.33333  0.89250  1
