CIF file written using JARVIS-Tools package.
data_Te2MoWSeS
_symmetry_space_group_name_H-M  'P3m1'
_cell_length_a       3.41494
_cell_length_b       3.41488
_cell_length_c       40.068
_cell_angle_alpha    89.9956
_cell_angle_beta     89.9997
_cell_angle_gamma    120.001

_symmetry_Int_Tables_number  156
_chemical_formula_structural  Te2MoWSeS
_chemical_formula_sum  Te4Mo2W2Se2S2
_cell_volume  404.6556377967689
_cell_formula_units_Z  2
loop_
  _symmetry_equiv_pos_site_id
 _symmetry_equiv_pos_as_xyz
 1  'x, y, z'
loop_
 _atom_site_type_symbol
 _atom_site_label
 _atom_site_symmetry_multiplicity
 _atom_site_fract_x
 _atom_site_fract_y
 _atom_site_fract_z
 _atom_site_fract_occupancy
 Mo  Mo1  1  0.33340  0.66682  0.46782  1
 Mo  Mo2  1  0.66665  0.33333  0.28174  1
 S  S1  1  0.33332  0.66665  0.31914  1
 S  S2  1  0.33337  0.66674  0.24426  1
 Se  Se1  1  0.66654  0.33306  0.05296  1
 Se  Se2  1  0.66651  0.33301  0.13507  1
 Te  Te1  1  0.33337  0.66673  0.70621  1
 Te  Te2  1  0.66675  0.33350  0.42099  1
 Te  Te3  1  0.66670  0.33341  0.51447  1
 Te  Te4  1  0.33346  0.66693  0.61259  1
 W  W1  1  0.33320  0.66637  0.09396  1
 W  W2  1  0.66672  0.33345  0.65954  1
