CIF file written using JARVIS-Tools package.
data_Te2W2SeS
_symmetry_space_group_name_H-M  'P3m1'
_cell_length_a       3.40769
_cell_length_b       3.4077
_cell_length_c       38.2242
_cell_angle_alpha    90.0012
_cell_angle_beta     90
_cell_angle_gamma    120

_symmetry_Int_Tables_number  156
_chemical_formula_structural  Te2W2SeS
_chemical_formula_sum  Te4W4Se2S2
_cell_volume  384.40540118425923
_cell_formula_units_Z  2
loop_
  _symmetry_equiv_pos_site_id
 _symmetry_equiv_pos_as_xyz
 1  'x, y, z'
loop_
 _atom_site_type_symbol
 _atom_site_label
 _atom_site_symmetry_multiplicity
 _atom_site_fract_x
 _atom_site_fract_y
 _atom_site_fract_z
 _atom_site_fract_occupancy
 S  S1  1  0.66662  0.33324  0.05502  1
 S  S2  1  0.66663  0.33327  0.13374  1
 Se  Se1  1  0.33341  0.66682  0.70036  1
 Se  Se2  1  0.33345  0.66689  0.61401  1
 Te  Te1  1  0.33333  0.66666  0.33034  1
 Te  Te2  1  0.66661  0.33322  0.42104  1
 Te  Te3  1  0.66665  0.33329  0.51949  1
 Te  Te4  1  0.33330  0.66661  0.23180  1
 W  W1  1  0.33329  0.66659  0.09435  1
 W  W2  1  0.33330  0.66659  0.47024  1
 W  W3  1  0.66665  0.33330  0.28112  1
 W  W4  1  0.66676  0.33353  0.65723  1
