CIF file written using JARVIS-Tools package.
data_Na2SrV4O12
_symmetry_space_group_name_H-M  'P4/nbm'
_cell_length_a       10.6362
_cell_length_b       10.6362
_cell_length_c       4.9793
_cell_angle_alpha    90
_cell_angle_beta     90
_cell_angle_gamma    90

_symmetry_Int_Tables_number  125
_chemical_formula_structural  Na2SrV4O12
_chemical_formula_sum  Na4Sr2V8O24
_cell_volume  563.3000500284587
_cell_formula_units_Z  2
loop_
  _symmetry_equiv_pos_site_id
 _symmetry_equiv_pos_as_xyz
 1  'x, y, z'
loop_
 _atom_site_type_symbol
 _atom_site_label
 _atom_site_symmetry_multiplicity
 _atom_site_fract_x
 _atom_site_fract_y
 _atom_site_fract_z
 _atom_site_fract_occupancy
 Na  Na1  1  0.25000  0.25000  0.50000  1
 Na  Na2  1  0.25000  0.75000  0.50000  1
 Na  Na3  1  0.75000  0.25000  0.50000  1
 Na  Na4  1  0.75000  0.75000  0.50000  1
 O  O1  1  0.61719  0.88281  0.15933  1
 O  O2  1  0.56977  0.30365  0.23631  1
 O  O3  1  0.69635  0.43023  0.76369  1
 O  O4  1  0.80365  0.93023  0.76369  1
 O  O5  1  0.43023  0.30365  0.76369  1
 O  O6  1  0.56977  0.69635  0.76369  1
 O  O7  1  0.19635  0.06977  0.76369  1
 O  O8  1  0.93023  0.19635  0.76369  1
 O  O9  1  0.88281  0.38281  0.15933  1
 O  O10  1  0.30365  0.43023  0.23631  1
 O  O11  1  0.80365  0.06977  0.23631  1
 O  O12  1  0.19635  0.93023  0.23631  1
 O  O13  1  0.06977  0.19635  0.23631  1
 O  O14  1  0.93023  0.80365  0.23631  1
 O  O15  1  0.06977  0.80365  0.76369  1
 O  O16  1  0.11719  0.61719  0.15933  1
 O  O17  1  0.38281  0.88281  0.84067  1
 O  O18  1  0.30365  0.56977  0.76369  1
 O  O19  1  0.38281  0.11719  0.15933  1
 O  O20  1  0.69635  0.56977  0.23631  1
 O  O21  1  0.43023  0.69635  0.23631  1
 O  O22  1  0.88281  0.61719  0.84067  1
 O  O23  1  0.61719  0.11719  0.84067  1
 O  O24  1  0.11719  0.38281  0.84067  1
 Sr  Sr1  1  0.50000  0.50000  0.50000  1
 Sr  Sr2  1  0.00000  0.00000  0.50000  1
 V  V1  1  0.00000  0.28341  0.00000  1
 V  V2  1  0.21659  0.50000  0.00000  1
 V  V3  1  0.50000  0.78341  0.00000  1
 V  V4  1  0.00000  0.71659  0.00000  1
 V  V5  1  0.28341  0.00000  0.00000  1
 V  V6  1  0.71659  0.00000  0.00000  1
 V  V7  1  0.50000  0.21659  0.00000  1
 V  V8  1  0.78341  0.50000  0.00000  1
