CIF file written using JARVIS-Tools package.
data_U2Co2Sn
_symmetry_space_group_name_H-M  'P4/mbm'
_cell_length_a       7.30463
_cell_length_b       7.30463
_cell_length_c       3.4109
_cell_angle_alpha    90
_cell_angle_beta     90
_cell_angle_gamma    90

_symmetry_Int_Tables_number  127
_chemical_formula_structural  U2Co2Sn
_chemical_formula_sum  U4Co4Sn2
_cell_volume  181.99798937806443
_cell_formula_units_Z  2
loop_
  _symmetry_equiv_pos_site_id
 _symmetry_equiv_pos_as_xyz
 1  'x, y, z'
loop_
 _atom_site_type_symbol
 _atom_site_label
 _atom_site_symmetry_multiplicity
 _atom_site_fract_x
 _atom_site_fract_y
 _atom_site_fract_z
 _atom_site_fract_occupancy
 Co  Co1  1  0.36588  0.13412  0.00000  1
 Co  Co2  1  0.86588  0.36588  0.00000  1
 Co  Co3  1  0.13412  0.63412  0.00000  1
 Co  Co4  1  0.63412  0.86588  0.00000  1
 Sn  Sn1  1  0.00000  0.00000  0.00000  1
 Sn  Sn2  1  0.50000  0.50000  0.00000  1
 U  U1  1  0.33363  0.83363  0.50000  1
 U  U2  1  0.83363  0.66637  0.50000  1
 U  U3  1  0.16637  0.33363  0.50000  1
 U  U4  1  0.66637  0.16637  0.50000  1
