CIF file written using JARVIS-Tools package.
data_NaCo3
_symmetry_space_group_name_H-M  'P6_3/mmc'
_cell_length_a       5.88128
_cell_length_b       5.88128
_cell_length_c       4.02308
_cell_angle_alpha    90
_cell_angle_beta     90
_cell_angle_gamma    120

_symmetry_Int_Tables_number  194
_chemical_formula_structural  NaCo3
_chemical_formula_sum  Na2Co6
_cell_volume  120.51269951351065
_cell_formula_units_Z  2
loop_
  _symmetry_equiv_pos_site_id
 _symmetry_equiv_pos_as_xyz
 1  'x, y, z'
loop_
 _atom_site_type_symbol
 _atom_site_label
 _atom_site_symmetry_multiplicity
 _atom_site_fract_x
 _atom_site_fract_y
 _atom_site_fract_z
 _atom_site_fract_occupancy
 Co  Co1  1  0.13389  0.26777  0.25000  1
 Co  Co2  1  0.13389  0.86611  0.25000  1
 Co  Co3  1  0.73223  0.86611  0.25000  1
 Co  Co4  1  0.86611  0.73223  0.75000  1
 Co  Co5  1  0.86611  0.13389  0.75000  1
 Co  Co6  1  0.26777  0.13389  0.75000  1
 Na  Na1  1  0.66667  0.33333  0.25000  1
 Na  Na2  1  0.33333  0.66667  0.75000  1
