CIF file written using JARVIS-Tools package.
data_CaGaBO4
_symmetry_space_group_name_H-M  'Ccc2'
_cell_length_a       5.89672
_cell_length_b       8.34419
_cell_length_c       8.82298
_cell_angle_alpha    118.221
_cell_angle_beta     90
_cell_angle_gamma    90

_symmetry_Int_Tables_number  37
_chemical_formula_structural  CaGaBO4
_chemical_formula_sum  Ca4Ga4B4O6
_cell_volume  382.5182912740074
_cell_formula_units_Z  4
loop_
  _symmetry_equiv_pos_site_id
 _symmetry_equiv_pos_as_xyz
 1  'x, y, z'
loop_
 _atom_site_type_symbol
 _atom_site_label
 _atom_site_symmetry_multiplicity
 _atom_site_fract_x
 _atom_site_fract_y
 _atom_site_fract_z
 _atom_site_fract_occupancy
 B  B1  1  0.85846  0.13289  0.78471  1
 B  B2  1  0.85846  0.86711  0.21529  1
 B  B3  1  0.35846  0.34818  0.21529  1
 B  B4  1  0.35846  0.65182  0.78471  1
 Ca  Ca1  1  0.89970  0.44810  0.18088  1
 Ca  Ca2  1  0.39970  0.26721  0.81912  1
 Ca  Ca3  1  0.89970  0.55190  0.81912  1
 Ca  Ca4  1  0.39970  0.73279  0.18088  1
 Ga  Ga1  1  0.12751  0.81312  0.58837  1
 Ga  Ga2  1  0.12751  0.18688  0.41163  1
 Ga  Ga3  1  0.62751  0.77525  0.58837  1
 Ga  Ga4  1  0.62751  0.22475  0.41163  1
 O  O1  1  0.07589  0.93584  0.27040  1
 O  O2  1  0.16656  0.28083  0.25741  1
 O  O3  1  0.82309  0.68473  0.11353  1
 O  O4  1  0.88278  0.69045  0.45636  1
 O  O5  1  0.82309  0.31527  0.88647  1
 O  O6  1  0.32309  0.57120  0.88647  1
 O  O7  1  0.32309  0.42880  0.11353  1
 O  O8  1  0.66656  0.02343  0.74259  1
 O  O9  1  0.57589  0.33455  0.27040  1
 O  O10  1  0.66656  0.97657  0.25741  1
 O  O11  1  0.07589  0.06416  0.72960  1
 O  O12  1  0.88278  0.30955  0.54364  1
 O  O13  1  0.38278  0.76591  0.45636  1
 O  O14  1  0.16656  0.71917  0.74259  1
 O  O15  1  0.38278  0.23409  0.54364  1
 O  O16  1  0.57589  0.66545  0.72960  1
