CIF file written using JARVIS-Tools package.
data_CoSe2O5
_symmetry_space_group_name_H-M  'Pbcn'
_cell_length_a       5.86232
_cell_length_b       6.8389
_cell_length_c       10.1287
_cell_angle_alpha    90
_cell_angle_beta     90
_cell_angle_gamma    90

_symmetry_Int_Tables_number  60
_chemical_formula_structural  CoSe2O5
_chemical_formula_sum  Co4Se8O20
_cell_volume  406.07898174319575
_cell_formula_units_Z  4
loop_
  _symmetry_equiv_pos_site_id
 _symmetry_equiv_pos_as_xyz
 1  'x, y, z'
loop_
 _atom_site_type_symbol
 _atom_site_label
 _atom_site_symmetry_multiplicity
 _atom_site_fract_x
 _atom_site_fract_y
 _atom_site_fract_z
 _atom_site_fract_occupancy
 Co  Co1  1  0.25000  0.00000  0.93712  1
 Co  Co2  1  0.75000  0.50000  0.56288  1
 Co  Co3  1  0.75000  0.00000  0.06288  1
 Co  Co4  1  0.25000  0.50000  0.43712  1
 O  O1  1  0.75000  0.50000  0.93327  1
 O  O2  1  0.25000  0.50000  0.06673  1
 O  O3  1  0.45175  0.85733  0.07148  1
 O  O4  1  0.54825  0.14267  0.92852  1
 O  O5  1  0.04825  0.35733  0.57148  1
 O  O6  1  0.95175  0.85733  0.92852  1
 O  O7  1  0.64642  0.18983  0.19817  1
 O  O8  1  0.64642  0.31017  0.69817  1
 O  O9  1  0.95175  0.64267  0.42852  1
 O  O10  1  0.54825  0.35733  0.42852  1
 O  O11  1  0.04825  0.14267  0.07148  1
 O  O12  1  0.45175  0.64267  0.57148  1
 O  O13  1  0.14642  0.31017  0.30183  1
 O  O14  1  0.85358  0.81017  0.19817  1
 O  O15  1  0.75000  0.00000  0.43327  1
 O  O16  1  0.35358  0.81017  0.80183  1
 O  O17  1  0.85358  0.68983  0.69817  1
 O  O18  1  0.25000  0.00000  0.56673  1
 O  O19  1  0.35358  0.68983  0.30183  1
 O  O20  1  0.14642  0.18983  0.80183  1
 Se  Se1  1  0.01492  0.36672  0.15518  1
 Se  Se2  1  0.48508  0.63328  0.15518  1
 Se  Se3  1  0.98508  0.86672  0.34482  1
 Se  Se4  1  0.51492  0.13328  0.34482  1
 Se  Se5  1  0.01492  0.13328  0.65518  1
 Se  Se6  1  0.98508  0.63328  0.84482  1
 Se  Se7  1  0.48508  0.86672  0.65518  1
 Se  Se8  1  0.51492  0.36672  0.84482  1
