CIF file written using JARVIS-Tools package.
data_ZrRe2
_symmetry_space_group_name_H-M  'P6_3/mmc'
_cell_length_a       5.30473
_cell_length_b       5.30473
_cell_length_c       8.69696
_cell_angle_alpha    90
_cell_angle_beta     90
_cell_angle_gamma    120

_symmetry_Int_Tables_number  194
_chemical_formula_structural  ZrRe2
_chemical_formula_sum  Zr4Re8
_cell_volume  211.94515340648485
_cell_formula_units_Z  4
loop_
  _symmetry_equiv_pos_site_id
 _symmetry_equiv_pos_as_xyz
 1  'x, y, z'
loop_
 _atom_site_type_symbol
 _atom_site_label
 _atom_site_symmetry_multiplicity
 _atom_site_fract_x
 _atom_site_fract_y
 _atom_site_fract_z
 _atom_site_fract_occupancy
 Re  Re1  1  0.65707  0.82854  0.75000  1
 Re  Re2  1  0.34293  0.17146  0.25000  1
 Re  Re3  1  0.82854  0.17146  0.25000  1
 Re  Re4  1  0.17146  0.34293  0.75000  1
 Re  Re5  1  0.17146  0.82854  0.75000  1
 Re  Re6  1  0.82854  0.65707  0.25000  1
 Re  Re7  1  0.00000  0.00000  0.50000  1
 Re  Re8  1  0.00000  0.00000  0.00000  1
 Zr  Zr1  1  0.33333  0.66667  0.43814  1
 Zr  Zr2  1  0.66667  0.33333  0.93814  1
 Zr  Zr3  1  0.66667  0.33333  0.56186  1
 Zr  Zr4  1  0.33333  0.66667  0.06186  1
