CIF file written using JARVIS-Tools package.
data_H2CO3
_symmetry_space_group_name_H-M  'Cmcm'
_cell_length_a       4.19605
_cell_length_b       4.19605
_cell_length_c       6.62535
_cell_angle_alpha    90
_cell_angle_beta     90
_cell_angle_gamma    93.8917

_symmetry_Int_Tables_number  63
_chemical_formula_structural  H2CO3
_chemical_formula_sum  H4C2O6
_cell_volume  116.3825968957554
_cell_formula_units_Z  2
loop_
  _symmetry_equiv_pos_site_id
 _symmetry_equiv_pos_as_xyz
 1  'x, y, z'
loop_
 _atom_site_type_symbol
 _atom_site_label
 _atom_site_symmetry_multiplicity
 _atom_site_fract_x
 _atom_site_fract_y
 _atom_site_fract_z
 _atom_site_fract_occupancy
 C  C1  1  0.40703  0.59297  0.50000  1
 C  C2  1  0.09297  0.90703  0.00000  1
 H  H1  1  0.43176  0.56824  0.20770  1
 H  H2  1  0.43176  0.56824  0.79230  1
 H  H3  1  0.06824  0.93176  0.70770  1
 H  H4  1  0.06824  0.93176  0.29230  1
 O  O1  1  0.20113  0.79887  0.50000  1
 O  O2  1  0.29887  0.70113  0.00000  1
 O  O3  1  0.52489  0.47511  0.33544  1
 O  O4  1  0.52489  0.47511  0.66456  1
 O  O5  1  0.97511  0.02489  0.83544  1
 O  O6  1  0.97511  0.02489  0.16456  1
