CIF file written using JARVIS-Tools package.
data_Li6CuS4
_symmetry_space_group_name_H-M  'Imm2'
_cell_length_a       7.6284
_cell_length_b       7.6284
_cell_length_c       3.56052
_cell_angle_alpha    76.5043
_cell_angle_beta     103.496
_cell_angle_gamma    123.931

_symmetry_Int_Tables_number  44
_chemical_formula_structural  Li6CuS4
_chemical_formula_sum  Li6CuS4
_cell_volume  165.79503631062778
_cell_formula_units_Z  1
loop_
  _symmetry_equiv_pos_site_id
 _symmetry_equiv_pos_as_xyz
 1  'x, y, z'
loop_
 _atom_site_type_symbol
 _atom_site_label
 _atom_site_symmetry_multiplicity
 _atom_site_fract_x
 _atom_site_fract_y
 _atom_site_fract_z
 _atom_site_fract_occupancy
 Cu  Cu1  1  0.72132  0.72132  -0.00000  1
 Li  Li1  1  0.40854  0.17262  0.11796  1
 Li  Li2  1  0.82141  0.10797  0.35672  1
 Li  Li3  1  0.39404  0.76714  0.31345  1
 Li  Li4  1  0.76714  0.39404  0.68655  1
 Li  Li5  1  0.10797  0.82141  0.64328  1
 Li  Li6  1  0.17262  0.40854  0.88204  1
 S  S1  1  0.02955  0.02955  0.00000  1
 S  S2  1  0.51232  0.01729  0.74751  1
 S  S3  1  0.01729  0.51232  0.25249  1
 S  S4  1  0.52899  0.52899  0.50000  1
