CIF file written using JARVIS-Tools package.
data_TmAl
_symmetry_space_group_name_H-M  'Pbcm'
_cell_length_a       5.54223
_cell_length_b       5.7821
_cell_length_c       11.2707
_cell_angle_alpha    90
_cell_angle_beta     90
_cell_angle_gamma    90

_symmetry_Int_Tables_number  57
_chemical_formula_structural  TmAl
_chemical_formula_sum  Tm8Al8
_cell_volume  361.17677270554003
_cell_formula_units_Z  8
loop_
  _symmetry_equiv_pos_site_id
 _symmetry_equiv_pos_as_xyz
 1  'x, y, z'
loop_
 _atom_site_type_symbol
 _atom_site_label
 _atom_site_symmetry_multiplicity
 _atom_site_fract_x
 _atom_site_fract_y
 _atom_site_fract_z
 _atom_site_fract_occupancy
 Al  Al1  1  0.00000  0.93066  0.25000  1
 Al  Al2  1  0.50000  0.06934  0.75000  1
 Al  Al3  1  0.00000  0.06934  0.75000  1
 Al  Al4  1  0.50000  0.93066  0.25000  1
 Al  Al5  1  0.25000  0.65728  0.09640  1
 Al  Al6  1  0.75000  0.34272  0.90360  1
 Al  Al7  1  0.75000  0.65728  0.40360  1
 Al  Al8  1  0.25000  0.34272  0.59640  1
 Tm  Tm1  1  0.25000  0.15939  0.01725  1
 Tm  Tm2  1  0.75000  0.84061  0.98275  1
 Tm  Tm3  1  0.75000  0.15939  0.48275  1
 Tm  Tm4  1  0.25000  0.84061  0.51725  1
 Tm  Tm5  1  0.25000  0.39656  0.33071  1
 Tm  Tm6  1  0.75000  0.60344  0.66929  1
 Tm  Tm7  1  0.75000  0.39656  0.16929  1
 Tm  Tm8  1  0.25000  0.60344  0.83071  1
