CIF file written using JARVIS-Tools package.
data_Rb3Ca
_symmetry_space_group_name_H-M  'P6_3/mmc'
_cell_length_a       9.31082
_cell_length_b       9.31082
_cell_length_c       7.56857
_cell_angle_alpha    90
_cell_angle_beta     90
_cell_angle_gamma    120

_symmetry_Int_Tables_number  194
_chemical_formula_structural  Rb3Ca
_chemical_formula_sum  Rb6Ca2
_cell_volume  568.2251653047996
_cell_formula_units_Z  2
loop_
  _symmetry_equiv_pos_site_id
 _symmetry_equiv_pos_as_xyz
 1  'x, y, z'
loop_
 _atom_site_type_symbol
 _atom_site_label
 _atom_site_symmetry_multiplicity
 _atom_site_fract_x
 _atom_site_fract_y
 _atom_site_fract_z
 _atom_site_fract_occupancy
 Ca  Ca1  1  0.33333  0.66667  0.75000  1
 Ca  Ca2  1  0.66667  0.33333  0.25000  1
 Rb  Rb1  1  0.65654  0.82827  0.25000  1
 Rb  Rb2  1  0.17173  0.82827  0.25000  1
 Rb  Rb3  1  0.17173  0.34346  0.25000  1
 Rb  Rb4  1  0.34346  0.17173  0.75000  1
 Rb  Rb5  1  0.82827  0.17173  0.75000  1
 Rb  Rb6  1  0.82827  0.65654  0.75000  1
