CIF file written using JARVIS-Tools package.
data_U2W2C3
_symmetry_space_group_name_H-M  'C2/m'
_cell_length_a       3.16495
_cell_length_b       5.57756
_cell_length_c       5.98698
_cell_angle_alpha    104.509
_cell_angle_beta     105.327
_cell_angle_gamma    90

_symmetry_Int_Tables_number  12
_chemical_formula_structural  U2W2C3
_chemical_formula_sum  U2W2C3
_cell_volume  98.42840818174997
_cell_formula_units_Z  1
loop_
  _symmetry_equiv_pos_site_id
 _symmetry_equiv_pos_as_xyz
 1  'x, y, z'
loop_
 _atom_site_type_symbol
 _atom_site_label
 _atom_site_symmetry_multiplicity
 _atom_site_fract_x
 _atom_site_fract_y
 _atom_site_fract_z
 _atom_site_fract_occupancy
 C  C1  1  0.25209  0.26123  0.50417  1
 C  C2  1  0.74791  0.73877  0.49583  1
 C  C3  1  0.00000  0.00000  0.00000  1
 U  U1  1  0.60328  0.33553  0.20656  1
 U  U2  1  0.39672  0.66447  0.79344  1
 W  W1  1  0.84587  0.13151  0.69175  1
 W  W2  1  0.15413  0.86849  0.30825  1
