CIF file written using JARVIS-Tools package.
data_Tl2Hg2PdCl8
_symmetry_space_group_name_H-M  'C2/m'
_cell_length_a       6.60105
_cell_length_b       6.60106
_cell_length_c       9.77195
_cell_angle_alpha    73.6933
_cell_angle_beta     73.6933
_cell_angle_gamma    61.0979

_symmetry_Int_Tables_number  12
_chemical_formula_structural  Tl2Hg2PdCl8
_chemical_formula_sum  Tl2Hg2PdCl8
_cell_volume  352.39903824802917
_cell_formula_units_Z  1
loop_
  _symmetry_equiv_pos_site_id
 _symmetry_equiv_pos_as_xyz
 1  'x, y, z'
loop_
 _atom_site_type_symbol
 _atom_site_label
 _atom_site_symmetry_multiplicity
 _atom_site_fract_x
 _atom_site_fract_y
 _atom_site_fract_z
 _atom_site_fract_occupancy
 Cl  Cl1  1  0.89531  0.38047  0.87056  1
 Cl  Cl2  1  0.38047  0.89531  0.87056  1
 Cl  Cl3  1  0.35288  0.35288  0.49458  1
 Cl  Cl4  1  0.10469  0.61953  0.12944  1
 Cl  Cl5  1  0.91469  0.91469  0.69594  1
 Cl  Cl6  1  0.64712  0.64712  0.50542  1
 Cl  Cl7  1  0.61953  0.10469  0.12944  1
 Cl  Cl8  1  0.08531  0.08531  0.30406  1
 Hg  Hg1  1  0.13424  0.13424  0.59677  1
 Hg  Hg2  1  0.86576  0.86576  0.40323  1
 Pd  Pd1  1  0.00000  0.00000  0.00000  1
 Tl  Tl1  1  0.39741  0.39741  0.83611  1
 Tl  Tl2  1  0.60259  0.60259  0.16389  1
