CIF file written using JARVIS-Tools package.
data_P2S7
_symmetry_space_group_name_H-M  'P-1'
_cell_length_a       6.05713
_cell_length_b       6.48699
_cell_length_c       11.055
_cell_angle_alpha    82.9925
_cell_angle_beta     90.4245
_cell_angle_gamma    85.1416

_symmetry_Int_Tables_number  2
_chemical_formula_structural  P2S7
_chemical_formula_sum  P4S4
_cell_volume  429.5172772770114
_cell_formula_units_Z  2
loop_
  _symmetry_equiv_pos_site_id
 _symmetry_equiv_pos_as_xyz
 1  'x, y, z'
loop_
 _atom_site_type_symbol
 _atom_site_label
 _atom_site_symmetry_multiplicity
 _atom_site_fract_x
 _atom_site_fract_y
 _atom_site_fract_z
 _atom_site_fract_occupancy
 P  P1  1  0.05512  0.17275  0.06547  1
 P  P2  1  0.63072  0.79897  0.49505  1
 P  P3  1  0.36928  0.20103  0.50495  1
 P  P4  1  0.94488  0.82725  0.93453  1
 S  S1  1  0.28484  0.36453  0.04941  1
 S  S2  1  0.15805  0.84612  0.08880  1
 S  S3  1  0.85100  0.23053  0.21610  1
 S  S4  1  0.62561  0.00931  0.21124  1
 S  S5  1  0.84195  0.15388  0.91120  1
 S  S6  1  0.75854  0.74634  0.32140  1
 S  S7  1  0.71749  0.09969  0.53068  1
 S  S8  1  0.27375  0.43636  0.38627  1
 S  S9  1  0.72625  0.56364  0.61373  1
 S  S10  1  0.24146  0.25366  0.67860  1
 S  S11  1  0.37439  0.99068  0.78876  1
 S  S12  1  0.14900  0.76947  0.78391  1
 S  S13  1  0.28251  0.90031  0.46932  1
 S  S14  1  0.71516  0.63547  0.95059  1
