CIF file written using JARVIS-Tools package.
data_LiLaNb2O7
_symmetry_space_group_name_H-M  'I-4m2'
_cell_length_a       3.91903
_cell_length_b       10.2188
_cell_length_c       3.91903
_cell_angle_alpha    78.9447
_cell_angle_beta     90
_cell_angle_gamma    101.055

_symmetry_Int_Tables_number  119
_chemical_formula_structural  LiLaNb2O7
_chemical_formula_sum  LiLaNb2O7
_cell_volume  151.06756978061838
_cell_formula_units_Z  1
loop_
  _symmetry_equiv_pos_site_id
 _symmetry_equiv_pos_as_xyz
 1  'x, y, z'
loop_
 _atom_site_type_symbol
 _atom_site_label
 _atom_site_symmetry_multiplicity
 _atom_site_fract_x
 _atom_site_fract_y
 _atom_site_fract_z
 _atom_site_fract_occupancy
 La  La1  1  0.00000  0.00000  0.00000  1
 Li  Li1  1  0.25000  0.50000  0.25000  1
 Nb  Nb1  1  0.61713  0.23425  0.38287  1
 Nb  Nb2  1  0.38287  0.76575  0.61713  1
 O  O1  1  0.40440  0.80881  0.09560  1
 O  O2  1  0.50000  0.00000  0.50000  1
 O  O3  1  0.09560  0.19119  0.40440  1
 O  O4  1  0.70938  0.41876  0.29062  1
 O  O5  1  0.90730  0.81460  0.59270  1
 O  O6  1  0.29062  0.58124  0.70938  1
 O  O7  1  0.59270  0.18540  0.90730  1
