CIF file written using JARVIS-Tools package.
data_Li3CuS2
_symmetry_space_group_name_H-M  'R-3c'
_cell_length_a       6.40297
_cell_length_b       6.40297
_cell_length_c       6.40297
_cell_angle_alpha    61.9379
_cell_angle_beta     61.9379
_cell_angle_gamma    61.938

_symmetry_Int_Tables_number  167
_chemical_formula_structural  Li3CuS2
_chemical_formula_sum  Li6Cu2S4
_cell_volume  193.67173821035638
_cell_formula_units_Z  2
loop_
  _symmetry_equiv_pos_site_id
 _symmetry_equiv_pos_as_xyz
 1  'x, y, z'
loop_
 _atom_site_type_symbol
 _atom_site_label
 _atom_site_symmetry_multiplicity
 _atom_site_fract_x
 _atom_site_fract_y
 _atom_site_fract_z
 _atom_site_fract_occupancy
 Cu  Cu1  1  0.00000  0.00000  0.00000  1
 Cu  Cu2  1  0.50000  0.50000  0.50000  1
 Li  Li1  1  0.25000  0.97464  0.52536  1
 Li  Li2  1  0.02536  0.47464  0.75000  1
 Li  Li3  1  0.47464  0.75000  0.02536  1
 Li  Li4  1  0.52536  0.25000  0.97464  1
 Li  Li5  1  0.97464  0.52536  0.25000  1
 Li  Li6  1  0.75000  0.02536  0.47464  1
 S  S1  1  0.36178  0.36178  0.36178  1
 S  S2  1  0.63822  0.63822  0.63822  1
 S  S3  1  0.13822  0.13822  0.13822  1
 S  S4  1  0.86178  0.86178  0.86178  1
