CIF file written using JARVIS-Tools package.
data_CdAg2I4
_symmetry_space_group_name_H-M  'I-42m'
_cell_length_a       6.41263
_cell_length_b       6.41263
_cell_length_c       7.7908
_cell_angle_alpha    114.302
_cell_angle_beta     114.302
_cell_angle_gamma    90

_symmetry_Int_Tables_number  121
_chemical_formula_structural  CdAg2I4
_chemical_formula_sum  CdAg2I4
_cell_volume  260.5177259565107
_cell_formula_units_Z  1
loop_
  _symmetry_equiv_pos_site_id
 _symmetry_equiv_pos_as_xyz
 1  'x, y, z'
loop_
 _atom_site_type_symbol
 _atom_site_label
 _atom_site_symmetry_multiplicity
 _atom_site_fract_x
 _atom_site_fract_y
 _atom_site_fract_z
 _atom_site_fract_occupancy
 Ag  Ag1  1  0.25000  0.75000  0.50000  1
 Ag  Ag2  1  0.75000  0.25000  0.50000  1
 Cd  Cd1  1  0.00000  0.00000  0.00000  1
 I  I1  1  0.38366  0.38366  0.23124  1
 I  I2  1  0.84758  0.84758  0.23124  1
 I  I3  1  0.15242  0.61634  0.76876  1
 I  I4  1  0.61634  0.15242  0.76876  1
