CIF file written using JARVIS-Tools package.
data_Re3W
_symmetry_space_group_name_H-M  'P6_3/mmc'
_cell_length_a       5.59375
_cell_length_b       5.59375
_cell_length_c       4.54748
_cell_angle_alpha    90
_cell_angle_beta     90
_cell_angle_gamma    120

_symmetry_Int_Tables_number  194
_chemical_formula_structural  Re3W
_chemical_formula_sum  Re6W2
_cell_volume  123.22731908488136
_cell_formula_units_Z  2
loop_
  _symmetry_equiv_pos_site_id
 _symmetry_equiv_pos_as_xyz
 1  'x, y, z'
loop_
 _atom_site_type_symbol
 _atom_site_label
 _atom_site_symmetry_multiplicity
 _atom_site_fract_x
 _atom_site_fract_y
 _atom_site_fract_z
 _atom_site_fract_occupancy
 Re  Re1  1  0.16641  0.33282  0.25000  1
 Re  Re2  1  0.66718  0.83359  0.25000  1
 Re  Re3  1  0.16641  0.83359  0.25000  1
 Re  Re4  1  0.83359  0.66718  0.75000  1
 Re  Re5  1  0.33282  0.16641  0.75000  1
 Re  Re6  1  0.83359  0.16641  0.75000  1
 W  W1  1  0.33333  0.66667  0.75000  1
 W  W2  1  0.66667  0.33333  0.25000  1
