CIF file written using JARVIS-Tools package.
data_C
_symmetry_space_group_name_H-M  'P6_3/mmc'
_cell_length_a       2.52088
_cell_length_b       2.52088
_cell_length_c       12.4338
_cell_angle_alpha    90
_cell_angle_beta     90
_cell_angle_gamma    120

_symmetry_Int_Tables_number  194
_chemical_formula_structural  C
_chemical_formula_sum  C2
_cell_volume  68.42884403815073
_cell_formula_units_Z  12
loop_
  _symmetry_equiv_pos_site_id
 _symmetry_equiv_pos_as_xyz
 1  'x, y, z'
loop_
 _atom_site_type_symbol
 _atom_site_label
 _atom_site_symmetry_multiplicity
 _atom_site_fract_x
 _atom_site_fract_y
 _atom_site_fract_z
 _atom_site_fract_occupancy
 C  C1  1  0.66667  0.33333  0.35494  1
 C  C2  1  0.33333  0.66667  0.85494  1
 C  C3  1  0.66667  0.33333  0.02076  1
 C  C4  1  0.33333  0.66667  0.64506  1
 C  C5  1  0.33333  0.66667  0.97924  1
 C  C6  1  0.00000  0.00000  0.68685  1
 C  C7  1  0.66667  0.33333  0.47924  1
 C  C8  1  0.33333  0.66667  0.52076  1
 C  C9  1  0.00000  0.00000  0.31315  1
 C  C10  1  0.66667  0.33333  0.14506  1
 C  C11  1  0.00000  0.00000  0.81315  1
 C  C12  1  0.00000  0.00000  0.18685  1
