CIF file written using JARVIS-Tools package.
data_CdPPt5
_symmetry_space_group_name_H-M  'P4/mmm'
_cell_length_a       3.97571
_cell_length_b       3.97571
_cell_length_c       7.16473
_cell_angle_alpha    90
_cell_angle_beta     90
_cell_angle_gamma    90

_symmetry_Int_Tables_number  123
_chemical_formula_structural  CdPPt5
_chemical_formula_sum  CdPPt5
_cell_volume  113.24762687277664
_cell_formula_units_Z  1
loop_
  _symmetry_equiv_pos_site_id
 _symmetry_equiv_pos_as_xyz
 1  'x, y, z'
loop_
 _atom_site_type_symbol
 _atom_site_label
 _atom_site_symmetry_multiplicity
 _atom_site_fract_x
 _atom_site_fract_y
 _atom_site_fract_z
 _atom_site_fract_occupancy
 Cd  Cd1  1  0.50000  0.50000  0.00000  1
 P  P1  1  0.00000  0.00000  0.50000  1
 Pt  Pt1  1  0.00000  0.50000  0.29802  1
 Pt  Pt2  1  0.00000  0.50000  0.70198  1
 Pt  Pt3  1  0.50000  0.00000  0.29802  1
 Pt  Pt4  1  0.50000  0.00000  0.70198  1
 Pt  Pt5  1  0.00000  0.00000  0.00000  1
