CIF file written using JARVIS-Tools package.
data_Te4Mo3WSe2S2
_symmetry_space_group_name_H-M  'P3m1'
_cell_length_a       3.4192
_cell_length_b       3.41887
_cell_length_c       39.7175
_cell_angle_alpha    89.999
_cell_angle_beta     90
_cell_angle_gamma    120.003

_symmetry_Int_Tables_number  156
_chemical_formula_structural  Te4Mo3WSe2S2
_chemical_formula_sum  Te4Mo3WSe2S2
_cell_volume  402.0726863969931
_cell_formula_units_Z  1
loop_
  _symmetry_equiv_pos_site_id
 _symmetry_equiv_pos_as_xyz
 1  'x, y, z'
loop_
 _atom_site_type_symbol
 _atom_site_label
 _atom_site_symmetry_multiplicity
 _atom_site_fract_x
 _atom_site_fract_y
 _atom_site_fract_z
 _atom_site_fract_occupancy
 Mo  Mo1  1  0.33340  0.66681  0.09399  1
 Mo  Mo2  1  0.66662  0.33323  0.28056  1
 Mo  Mo3  1  0.66670  0.33340  0.65786  1
 S  S1  1  0.66662  0.33323  0.05645  1
 S  S2  1  0.66660  0.33320  0.13167  1
 Se  Se1  1  0.33337  0.66674  0.69893  1
 Se  Se2  1  0.33339  0.66678  0.61663  1
 Te  Te1  1  0.33331  0.66663  0.32756  1
 Te  Te2  1  0.66666  0.33332  0.42325  1
 Te  Te3  1  0.66664  0.33329  0.51790  1
 Te  Te4  1  0.33333  0.66666  0.23337  1
 W  W1  1  0.33336  0.66672  0.47057  1
