CIF file written using JARVIS-Tools package.
data_NaHO
_symmetry_space_group_name_H-M  'R3m'
_cell_length_a       3.29764
_cell_length_b       3.7514
_cell_length_c       3.7514
_cell_angle_alpha    60
_cell_angle_beta     55.3333
_cell_angle_gamma    55.3333

_symmetry_Int_Tables_number  160
_chemical_formula_structural  NaHO
_chemical_formula_sum  NaHO
_cell_volume  30.306035197238643
_cell_formula_units_Z  1
loop_
  _symmetry_equiv_pos_site_id
 _symmetry_equiv_pos_as_xyz
 1  'x, y, z'
loop_
 _atom_site_type_symbol
 _atom_site_label
 _atom_site_symmetry_multiplicity
 _atom_site_fract_x
 _atom_site_fract_y
 _atom_site_fract_z
 _atom_site_fract_occupancy
 H  H1  1  0.15778  0.61407  0.61407  1
 Na  Na1  1  0.95285  0.01572  0.01572  1
 O  O1  1  0.54976  0.48341  0.48341  1
