CIF file written using JARVIS-Tools package.
data_LuAlB4
_symmetry_space_group_name_H-M  'Cmmm'
_cell_length_a       3.50265
_cell_length_b       5.89598
_cell_length_c       5.89598
_cell_angle_alpha    103.733
_cell_angle_beta     90
_cell_angle_gamma    90

_symmetry_Int_Tables_number  65
_chemical_formula_structural  LuAlB4
_chemical_formula_sum  Lu2Al2B8
_cell_volume  118.28044828685728
_cell_formula_units_Z  2
loop_
  _symmetry_equiv_pos_site_id
 _symmetry_equiv_pos_as_xyz
 1  'x, y, z'
loop_
 _atom_site_type_symbol
 _atom_site_label
 _atom_site_symmetry_multiplicity
 _atom_site_fract_x
 _atom_site_fract_y
 _atom_site_fract_z
 _atom_site_fract_occupancy
 Al  Al1  1  0.00000  0.18136  0.18136  1
 Al  Al2  1  0.00000  0.81864  0.81864  1
 B  B1  1  0.50000  0.38277  0.06269  1
 B  B2  1  0.50000  0.90701  0.09299  1
 B  B3  1  0.50000  0.37944  0.37944  1
 B  B4  1  0.50000  0.06269  0.38277  1
 B  B5  1  0.50000  0.93731  0.61723  1
 B  B6  1  0.50000  0.62056  0.62056  1
 B  B7  1  0.50000  0.09299  0.90701  1
 B  B8  1  0.50000  0.61723  0.93731  1
 Lu  Lu1  1  0.00000  0.69959  0.30041  1
 Lu  Lu2  1  0.00000  0.30041  0.69959  1
