CIF file written using JARVIS-Tools package.
data_SnTe3O8
_symmetry_space_group_name_H-M  'Ia-3'
_cell_length_a       9.67917
_cell_length_b       9.67917
_cell_length_c       9.67918
_cell_angle_alpha    109.471
_cell_angle_beta     109.471
_cell_angle_gamma    109.471

_symmetry_Int_Tables_number  206
_chemical_formula_structural  SnTe3O8
_chemical_formula_sum  Sn4Te2O32
_cell_volume  698.0607996890457
_cell_formula_units_Z  4
loop_
  _symmetry_equiv_pos_site_id
 _symmetry_equiv_pos_as_xyz
 1  'x, y, z'
loop_
 _atom_site_type_symbol
 _atom_site_label
 _atom_site_symmetry_multiplicity
 _atom_site_fract_x
 _atom_site_fract_y
 _atom_site_fract_z
 _atom_site_fract_occupancy
 O  O1  1  0.75888  0.96489  0.93573  1
 O  O2  1  0.50000  0.00000  0.83659  1
 O  O3  1  -0.00000  0.83659  0.50000  1
 O  O4  1  0.66341  0.66341  0.66341  1
 O  O5  1  0.16341  0.50000  -0.00000  1
 O  O6  1  0.50000  -0.00000  0.16341  1
 O  O7  1  0.00000  0.16341  0.50000  1
 O  O8  1  0.33659  0.33659  0.33659  1
 O  O9  1  0.02916  0.46489  0.70602  1
 O  O10  1  0.25888  0.32315  0.79398  1
 O  O11  1  0.67685  0.20602  0.74112  1
 O  O12  1  0.29398  0.97084  0.53511  1
 O  O13  1  0.43573  0.47084  0.17685  1
 O  O14  1  0.70602  0.02916  0.46489  1
 O  O15  1  0.32315  0.79398  0.25888  1
 O  O16  1  0.06427  0.24112  0.03511  1
 O  O17  1  0.52916  0.82315  0.56427  1
 O  O18  1  0.96489  0.93573  0.75888  1
 O  O19  1  0.20602  0.74112  0.67685  1
 O  O20  1  0.53511  0.29398  0.97084  1
 O  O21  1  0.93573  0.75888  0.96489  1
 O  O22  1  0.24112  0.03511  0.06427  1
 O  O23  1  0.83659  0.50000  0.00000  1
 O  O24  1  0.56427  0.52916  0.82315  1
 O  O25  1  0.74112  0.67685  0.20602  1
 O  O26  1  0.97084  0.53511  0.29398  1
 O  O27  1  0.47084  0.17685  0.43573  1
 O  O28  1  0.03511  0.06427  0.24112  1
 O  O29  1  0.79398  0.25888  0.32315  1
 O  O30  1  0.46489  0.70602  0.02916  1
 O  O31  1  0.82315  0.56427  0.52916  1
 O  O32  1  0.17685  0.43573  0.47084  1
 Sn  Sn1  1  0.00000  0.00000  0.00000  1
 Sn  Sn2  1  0.00000  0.50000  0.50000  1
 Sn  Sn3  1  0.50000  0.00000  0.50000  1
 Sn  Sn4  1  0.50000  0.50000  0.00000  1
 Te  Te1  1  0.03705  0.28705  0.75000  1
 Te  Te2  1  0.28705  0.75000  0.03705  1
 Te  Te3  1  0.46295  0.21295  0.25000  1
 Te  Te4  1  0.25000  0.96295  0.71295  1
 Te  Te5  1  0.75000  0.03705  0.28705  1
 Te  Te6  1  0.75000  0.53705  0.78705  1
 Te  Te7  1  0.96295  0.71295  0.25000  1
 Te  Te8  1  0.53705  0.78705  0.75000  1
 Te  Te9  1  0.21295  0.25000  0.46295  1
 Te  Te10  1  0.78705  0.75000  0.53705  1
 Te  Te11  1  0.71295  0.25000  0.96295  1
 Te  Te12  1  0.25000  0.46295  0.21295  1
