CIF file written using JARVIS-Tools package.
data_Li4Ti3Fe3Sb2O16
_symmetry_space_group_name_H-M  'Cm'
_cell_length_a       5.83799
_cell_length_b       5.76731
_cell_length_c       10.0546
_cell_angle_alpha    89.4482
_cell_angle_beta     90
_cell_angle_gamma    120.406

_symmetry_Int_Tables_number  8
_chemical_formula_structural  Li4Ti3Fe3Sb2O16
_chemical_formula_sum  Li4Ti3Fe3Sb2O6
_cell_volume  291.9536523088324
_cell_formula_units_Z  1
loop_
  _symmetry_equiv_pos_site_id
 _symmetry_equiv_pos_as_xyz
 1  'x, y, z'
loop_
 _atom_site_type_symbol
 _atom_site_label
 _atom_site_symmetry_multiplicity
 _atom_site_fract_x
 _atom_site_fract_y
 _atom_site_fract_z
 _atom_site_fract_occupancy
 Fe  Fe1  1  0.17397  0.82726  0.72294  1
 Fe  Fe2  1  0.65329  0.82726  0.72294  1
 Fe  Fe3  1  0.81925  0.63854  0.20473  1
 Li  Li1  1  0.66985  0.33971  0.89940  1
 Li  Li2  1  0.99112  0.98229  0.98952  1
 Li  Li3  1  -0.00340  -0.00680  0.49478  1
 Li  Li4  1  0.33858  0.67719  0.39719  1
 O  O1  1  0.31523  0.15769  0.61346  1
 O  O2  1  0.48459  0.96919  0.83768  1
 O  O3  1  0.65700  0.31406  0.09446  1
 O  O4  1  -0.00512  -0.01019  0.30217  1
 O  O5  1  -0.00528  -0.01055  0.81129  1
 O  O6  1  0.84246  0.15769  0.61346  1
 O  O7  1  0.51334  0.02673  0.31985  1
 O  O8  1  0.98852  0.49450  0.32007  1
 O  O9  1  0.84692  0.69383  0.61956  1
 O  O10  1  0.15068  0.82856  0.09489  1
 O  O11  1  0.48496  0.51920  0.84546  1
 O  O12  1  0.33705  0.67409  0.60673  1
 O  O13  1  0.50594  0.49450  0.32007  1
 O  O14  1  0.15888  0.31781  0.08850  1
 O  O15  1  0.03423  0.51920  0.84546  1
 O  O16  1  0.67784  0.82856  0.09489  1
 Sb  Sb1  1  0.33634  0.67272  0.99080  1
 Sb  Sb2  1  0.67222  0.34444  0.50871  1
 Ti  Ti1  1  0.17654  0.35308  0.71895  1
 Ti  Ti2  1  0.83451  0.18472  0.21494  1
 Ti  Ti3  1  0.35016  0.18472  0.21495  1
