CIF file written using JARVIS-Tools package.
data_U3Se4
_symmetry_space_group_name_H-M  'I-43d'
_cell_length_a       7.49901
_cell_length_b       7.499
_cell_length_c       7.499
_cell_angle_alpha    109.471
_cell_angle_beta     109.471
_cell_angle_gamma    109.471

_symmetry_Int_Tables_number  220
_chemical_formula_structural  U3Se4
_chemical_formula_sum  U6Se8
_cell_volume  324.6297046331283
_cell_formula_units_Z  2
loop_
  _symmetry_equiv_pos_site_id
 _symmetry_equiv_pos_as_xyz
 1  'x, y, z'
loop_
 _atom_site_type_symbol
 _atom_site_label
 _atom_site_symmetry_multiplicity
 _atom_site_fract_x
 _atom_site_fract_y
 _atom_site_fract_z
 _atom_site_fract_occupancy
 Se  Se1  1  0.65273  0.65273  0.65273  1
 Se  Se2  1  0.34727  0.50000  -0.00000  1
 Se  Se3  1  0.50000  -0.00000  0.34727  1
 Se  Se4  1  0.00000  0.34727  0.50000  1
 Se  Se5  1  0.50000  -0.00000  0.84727  1
 Se  Se6  1  0.00000  0.84727  0.50000  1
 Se  Se7  1  0.15273  0.15273  0.15273  1
 Se  Se8  1  0.84727  0.50000  -0.00000  1
 U  U1  1  0.75000  0.87500  0.12500  1
 U  U2  1  0.62500  0.37500  0.25000  1
 U  U3  1  0.87500  0.12500  0.75000  1
 U  U4  1  0.12500  0.75000  0.87500  1
 U  U5  1  0.37500  0.25000  0.62500  1
 U  U6  1  0.25000  0.62500  0.37500  1
