CIF file written using JARVIS-Tools package.
data_ZrSb
_symmetry_space_group_name_H-M  'P2_13'
_cell_length_a       5.69368
_cell_length_b       5.69368
_cell_length_c       5.69368
_cell_angle_alpha    90
_cell_angle_beta     90
_cell_angle_gamma    90

_symmetry_Int_Tables_number  198
_chemical_formula_structural  ZrSb
_chemical_formula_sum  Zr4Sb4
_cell_volume  184.5773036864504
_cell_formula_units_Z  4
loop_
  _symmetry_equiv_pos_site_id
 _symmetry_equiv_pos_as_xyz
 1  'x, y, z'
loop_
 _atom_site_type_symbol
 _atom_site_label
 _atom_site_symmetry_multiplicity
 _atom_site_fract_x
 _atom_site_fract_y
 _atom_site_fract_z
 _atom_site_fract_occupancy
 Sb  Sb1  1  0.34249  0.65751  0.15751  1
 Sb  Sb2  1  0.84249  0.84249  0.84249  1
 Sb  Sb3  1  0.65751  0.15751  0.34249  1
 Sb  Sb4  1  0.15751  0.34249  0.65751  1
 Zr  Zr1  1  0.35608  0.85608  0.64392  1
 Zr  Zr2  1  0.64392  0.35608  0.85608  1
 Zr  Zr3  1  0.85608  0.64392  0.35608  1
 Zr  Zr4  1  0.14392  0.14392  0.14392  1
