CIF file written using JARVIS-Tools package.
data_BaCoO3
_symmetry_space_group_name_H-M  'P6_3/mmc'
_cell_length_a       4.76414
_cell_length_b       5.68308
_cell_length_c       5.68325
_cell_angle_alpha    120.002
_cell_angle_beta     90.006
_cell_angle_gamma    89.9956

_symmetry_Int_Tables_number  194
_chemical_formula_structural  BaCoO3
_chemical_formula_sum  Ba2Co2O6
_cell_volume  133.25623675220754
_cell_formula_units_Z  2
loop_
  _symmetry_equiv_pos_site_id
 _symmetry_equiv_pos_as_xyz
 1  'x, y, z'
loop_
 _atom_site_type_symbol
 _atom_site_label
 _atom_site_symmetry_multiplicity
 _atom_site_fract_x
 _atom_site_fract_y
 _atom_site_fract_z
 _atom_site_fract_occupancy
 Ba  Ba1  1  0.00002  0.33333  0.66666  1
 Ba  Ba2  1  0.49998  0.66667  0.33334  1
 Co  Co1  1  0.25000  0.00000  0.00000  1
 Co  Co2  1  0.75000  0.00000  0.00000  1
 O  O1  1  0.00004  0.85095  0.14904  1
 O  O2  1  0.50003  0.14906  0.29811  1
 O  O3  1  -0.00003  0.85094  0.70189  1
 O  O4  1  -0.00001  0.29811  0.14906  1
 O  O5  1  0.50001  0.70189  0.85094  1
 O  O6  1  0.49996  0.14905  0.85096  1
