CIF file written using JARVIS-Tools package.
data_ScCu3
_symmetry_space_group_name_H-M  'Fm-3m'
_cell_length_a       4.33372
_cell_length_b       4.33373
_cell_length_c       4.33372
_cell_angle_alpha    59.9995
_cell_angle_beta     59.9997
_cell_angle_gamma    59.9995

_symmetry_Int_Tables_number  225
_chemical_formula_structural  ScCu3
_chemical_formula_sum  ScCu3
_cell_volume  57.55261364801982
_cell_formula_units_Z  1
loop_
  _symmetry_equiv_pos_site_id
 _symmetry_equiv_pos_as_xyz
 1  'x, y, z'
loop_
 _atom_site_type_symbol
 _atom_site_label
 _atom_site_symmetry_multiplicity
 _atom_site_fract_x
 _atom_site_fract_y
 _atom_site_fract_z
 _atom_site_fract_occupancy
 Cu  Cu1  1  0.25000  0.25000  0.25000  1
 Cu  Cu2  1  0.00000  1.00000  -0.00000  1
 Cu  Cu3  1  0.50000  0.50000  0.50000  1
 Sc  Sc1  1  0.75000  0.75000  0.75000  1
