CIF file written using JARVIS-Tools package.
data_Lu3Ga5Ni
_symmetry_space_group_name_H-M  'P-62m'
_cell_length_a       6.76424
_cell_length_b       6.76424
_cell_length_c       4.12913
_cell_angle_alpha    90
_cell_angle_beta     90
_cell_angle_gamma    120

_symmetry_Int_Tables_number  189
_chemical_formula_structural  Lu3Ga5Ni
_chemical_formula_sum  Lu3Ga5Ni
_cell_volume  163.61669420640465
_cell_formula_units_Z  1
loop_
  _symmetry_equiv_pos_site_id
 _symmetry_equiv_pos_as_xyz
 1  'x, y, z'
loop_
 _atom_site_type_symbol
 _atom_site_label
 _atom_site_symmetry_multiplicity
 _atom_site_fract_x
 _atom_site_fract_y
 _atom_site_fract_z
 _atom_site_fract_occupancy
 Ga  Ga1  1  0.23772  0.00000  0.00000  1
 Ga  Ga2  1  0.76228  0.76228  0.00000  1
 Ga  Ga3  1  0.33333  0.66667  0.00000  1
 Ga  Ga4  1  0.66667  0.33333  0.00000  1
 Ga  Ga5  1  0.00000  0.23772  0.00000  1
 Lu  Lu1  1  0.59451  0.00000  0.50000  1
 Lu  Lu2  1  0.00000  0.59451  0.50000  1
 Lu  Lu3  1  0.40549  0.40549  0.50000  1
 Ni  Ni1  1  0.00000  0.00000  0.50000  1
