CIF file written using JARVIS-Tools package.
data_Th3O2
_symmetry_space_group_name_H-M  'R-3c'
_cell_length_a       6.40843
_cell_length_b       6.40843
_cell_length_c       6.95282
_cell_angle_alpha    117.443
_cell_angle_beta     62.5583
_cell_angle_gamma    120

_symmetry_Int_Tables_number  167
_chemical_formula_structural  Th3O2
_chemical_formula_sum  Th6O4
_cell_volume  209.36250344991765
_cell_formula_units_Z  2
loop_
  _symmetry_equiv_pos_site_id
 _symmetry_equiv_pos_as_xyz
 1  'x, y, z'
loop_
 _atom_site_type_symbol
 _atom_site_label
 _atom_site_symmetry_multiplicity
 _atom_site_fract_x
 _atom_site_fract_y
 _atom_site_fract_z
 _atom_site_fract_occupancy
 O  O1  1  0.66236  0.33761  0.01288  1
 O  O2  1  0.83761  0.16236  0.48712  1
 O  O3  1  0.16239  0.83764  0.51288  1
 O  O4  1  0.33764  0.66239  0.98712  1
 Th  Th1  1  0.58249  0.75001  0.24999  1
 Th  Th2  1  0.91755  0.41755  0.25000  1
 Th  Th3  1  0.25001  0.08249  0.25001  1
 Th  Th4  1  0.74999  0.91751  0.74999  1
 Th  Th5  1  0.08245  0.58245  0.75000  1
 Th  Th6  1  0.41751  0.24999  0.75001  1
