CIF file written using JARVIS-Tools package.
data_SmZnPO
_symmetry_space_group_name_H-M  'R-3m'
_cell_length_a       10.5565
_cell_length_b       10.5565
_cell_length_c       10.5565
_cell_angle_alpha    21.6135
_cell_angle_beta     21.6136
_cell_angle_gamma    21.6136

_symmetry_Int_Tables_number  166
_chemical_formula_structural  SmZnPO
_chemical_formula_sum  Sm2Zn2P2O2
_cell_volume  139.86675893619477
_cell_formula_units_Z  2
loop_
  _symmetry_equiv_pos_site_id
 _symmetry_equiv_pos_as_xyz
 1  'x, y, z'
loop_
 _atom_site_type_symbol
 _atom_site_label
 _atom_site_symmetry_multiplicity
 _atom_site_fract_x
 _atom_site_fract_y
 _atom_site_fract_z
 _atom_site_fract_occupancy
 O  O1  1  0.69476  0.69476  0.69476  1
 O  O2  1  0.30524  0.30524  0.30524  1
 P  P1  1  0.11294  0.11294  0.11294  1
 P  P2  1  0.88706  0.88706  0.88706  1
 Sm  Sm1  1  0.38063  0.38063  0.38063  1
 Sm  Sm2  1  0.61937  0.61937  0.61937  1
 Zn  Zn1  1  0.19654  0.19654  0.19654  1
 Zn  Zn2  1  0.80346  0.80346  0.80346  1
