CIF file written using JARVIS-Tools package.
data_Sc3Cd
_symmetry_space_group_name_H-M  'P6_3/mmc'
_cell_length_a       6.34582
_cell_length_b       6.34582
_cell_length_c       5.16015
_cell_angle_alpha    90
_cell_angle_beta     90
_cell_angle_gamma    120

_symmetry_Int_Tables_number  194
_chemical_formula_structural  Sc3Cd
_chemical_formula_sum  Sc6Cd2
_cell_volume  179.95674574411737
_cell_formula_units_Z  2
loop_
  _symmetry_equiv_pos_site_id
 _symmetry_equiv_pos_as_xyz
 1  'x, y, z'
loop_
 _atom_site_type_symbol
 _atom_site_label
 _atom_site_symmetry_multiplicity
 _atom_site_fract_x
 _atom_site_fract_y
 _atom_site_fract_z
 _atom_site_fract_occupancy
 Cd  Cd1  1  0.33333  0.66667  0.25000  1
 Cd  Cd2  1  0.66667  0.33333  0.75000  1
 Sc  Sc1  1  0.66213  0.83107  0.75000  1
 Sc  Sc2  1  0.16893  0.33787  0.75000  1
 Sc  Sc3  1  0.16893  0.83107  0.75000  1
 Sc  Sc4  1  0.33787  0.16893  0.25000  1
 Sc  Sc5  1  0.83107  0.66213  0.25000  1
 Sc  Sc6  1  0.83107  0.16893  0.25000  1
