CIF file written using JARVIS-Tools package.
data_CeReB4
_symmetry_space_group_name_H-M  'Pbam'
_cell_length_a       3.70307
_cell_length_b       6.00764
_cell_length_c       11.64
_cell_angle_alpha    90
_cell_angle_beta     90
_cell_angle_gamma    90

_symmetry_Int_Tables_number  55
_chemical_formula_structural  CeReB4
_chemical_formula_sum  Ce4Re4B6
_cell_volume  258.9517665144108
_cell_formula_units_Z  4
loop_
  _symmetry_equiv_pos_site_id
 _symmetry_equiv_pos_as_xyz
 1  'x, y, z'
loop_
 _atom_site_type_symbol
 _atom_site_label
 _atom_site_symmetry_multiplicity
 _atom_site_fract_x
 _atom_site_fract_y
 _atom_site_fract_z
 _atom_site_fract_occupancy
 B  B1  1  0.50000  0.71428  0.68515  1
 B  B2  1  0.50000  0.52567  0.80955  1
 B  B3  1  0.50000  0.47433  0.19045  1
 B  B4  1  0.50000  0.02567  0.69045  1
 B  B5  1  0.50000  0.63794  0.53111  1
 B  B6  1  0.50000  0.38806  0.04599  1
 B  B7  1  0.50000  0.61194  0.95401  1
 B  B8  1  0.50000  0.97433  0.30955  1
 B  B9  1  0.50000  0.11194  0.54599  1
 B  B10  1  0.50000  0.21428  0.81485  1
 B  B11  1  0.50000  0.78572  0.18515  1
 B  B12  1  0.50000  0.36206  0.46889  1
 B  B13  1  0.50000  0.28572  0.31485  1
 B  B14  1  0.50000  0.13794  0.96889  1
 B  B15  1  0.50000  0.86206  0.03111  1
 B  B16  1  0.50000  0.88806  0.45401  1
 Ce  Ce1  1  0.00000  0.37364  0.65026  1
 Ce  Ce2  1  0.00000  0.62636  0.34974  1
 Ce  Ce3  1  0.00000  0.87364  0.84974  1
 Ce  Ce4  1  0.00000  0.12636  0.15026  1
 Re  Re1  1  0.00000  0.36369  0.90834  1
 Re  Re2  1  0.00000  0.63631  0.09166  1
 Re  Re3  1  0.00000  0.86369  0.59166  1
 Re  Re4  1  0.00000  0.13631  0.40834  1
