CIF file written using JARVIS-Tools package.
data_HoNiO3
_symmetry_space_group_name_H-M  'Pnma'
_cell_length_a       5.16707
_cell_length_b       5.57147
_cell_length_c       8.9696
_cell_angle_alpha    90
_cell_angle_beta     125.175
_cell_angle_gamma    90

_symmetry_Int_Tables_number  62
_chemical_formula_structural  HoNiO3
_chemical_formula_sum  Ho4Ni4O2
_cell_volume  211.06551137566743
_cell_formula_units_Z  4
loop_
  _symmetry_equiv_pos_site_id
 _symmetry_equiv_pos_as_xyz
 1  'x, y, z'
loop_
 _atom_site_type_symbol
 _atom_site_label
 _atom_site_symmetry_multiplicity
 _atom_site_fract_x
 _atom_site_fract_y
 _atom_site_fract_z
 _atom_site_fract_occupancy
 Ho  Ho1  1  0.22864  0.57850  0.75000  1
 Ho  Ho2  1  0.77136  0.07850  0.75000  1
 Ho  Ho3  1  0.77136  0.42150  0.25000  1
 Ho  Ho4  1  0.22864  0.92150  0.25000  1
 Ni  Ni1  1  0.00000  0.50000  0.00000  1
 Ni  Ni2  1  -0.00000  0.00000  0.50000  1
 Ni  Ni3  1  0.50000  0.50000  0.50000  1
 Ni  Ni4  1  0.50000  0.00000  0.00000  1
 O  O1  1  0.14164  0.69675  0.44967  1
 O  O2  1  0.64617  0.46969  0.75000  1
 O  O3  1  0.85836  0.30325  0.55033  1
 O  O4  1  0.14164  0.80325  0.94967  1
 O  O5  1  0.85836  0.19675  0.05033  1
 O  O6  1  0.35383  0.53031  0.25000  1
 O  O7  1  0.25770  0.19675  0.44967  1
 O  O8  1  0.74230  0.69675  0.05033  1
 O  O9  1  0.74230  0.80325  0.55033  1
 O  O10  1  0.64617  0.03031  0.25000  1
 O  O11  1  0.25770  0.30325  0.94967  1
 O  O12  1  0.35383  0.96969  0.75000  1
