CIF file written using JARVIS-Tools package.
data_PbO2
_symmetry_space_group_name_H-M  'Pbcn'
_cell_length_a       5.11511
_cell_length_b       5.54958
_cell_length_c       6.0106
_cell_angle_alpha    90
_cell_angle_beta     90
_cell_angle_gamma    90

_symmetry_Int_Tables_number  60
_chemical_formula_structural  PbO2
_chemical_formula_sum  Pb4O8
_cell_volume  170.6209471561629
_cell_formula_units_Z  4
loop_
  _symmetry_equiv_pos_site_id
 _symmetry_equiv_pos_as_xyz
 1  'x, y, z'
loop_
 _atom_site_type_symbol
 _atom_site_label
 _atom_site_symmetry_multiplicity
 _atom_site_fract_x
 _atom_site_fract_y
 _atom_site_fract_z
 _atom_site_fract_occupancy
 O  O1  1  0.26504  0.43051  0.09154  1
 O  O2  1  0.76504  0.56949  0.40846  1
 O  O3  1  0.23496  0.93051  0.40846  1
 O  O4  1  0.73496  0.06949  0.09154  1
 O  O5  1  0.26504  0.93051  0.90846  1
 O  O6  1  0.76504  0.06949  0.59154  1
 O  O7  1  0.23496  0.43051  0.59154  1
 O  O8  1  0.73496  0.56949  0.90846  1
 Pb  Pb1  1  0.50000  0.75000  0.18194  1
 Pb  Pb2  1  0.00000  0.25000  0.31806  1
 Pb  Pb3  1  0.50000  0.25000  0.81806  1
 Pb  Pb4  1  0.00000  0.75000  0.68194  1
