CIF file written using JARVIS-Tools package.
data_Ti3In
_symmetry_space_group_name_H-M  'P6_3/mmc'
_cell_length_a       5.88515
_cell_length_b       5.88515
_cell_length_c       4.78701
_cell_angle_alpha    90
_cell_angle_beta     90
_cell_angle_gamma    120

_symmetry_Int_Tables_number  194
_chemical_formula_structural  Ti3In
_chemical_formula_sum  Ti6In2
_cell_volume  143.5855655232485
_cell_formula_units_Z  2
loop_
  _symmetry_equiv_pos_site_id
 _symmetry_equiv_pos_as_xyz
 1  'x, y, z'
loop_
 _atom_site_type_symbol
 _atom_site_label
 _atom_site_symmetry_multiplicity
 _atom_site_fract_x
 _atom_site_fract_y
 _atom_site_fract_z
 _atom_site_fract_occupancy
 In  In1  1  0.33333  0.66667  0.25000  1
 In  In2  1  0.66667  0.33333  0.75000  1
 Ti  Ti1  1  0.16419  0.83581  0.75000  1
 Ti  Ti2  1  0.67162  0.83581  0.75000  1
 Ti  Ti3  1  0.16419  0.32838  0.75000  1
 Ti  Ti4  1  0.83581  0.16419  0.25000  1
 Ti  Ti5  1  0.32838  0.16419  0.25000  1
 Ti  Ti6  1  0.83581  0.67162  0.25000  1
