CIF file written using JARVIS-Tools package.
data_PrI2
_symmetry_space_group_name_H-M  'F-43m'
_cell_length_a       8.77716
_cell_length_b       8.77716
_cell_length_c       8.77715
_cell_angle_alpha    60
_cell_angle_beta     60
_cell_angle_gamma    60

_symmetry_Int_Tables_number  216
_chemical_formula_structural  PrI2
_chemical_formula_sum  Pr4I8
_cell_volume  478.1303213456993
_cell_formula_units_Z  4
loop_
  _symmetry_equiv_pos_site_id
 _symmetry_equiv_pos_as_xyz
 1  'x, y, z'
loop_
 _atom_site_type_symbol
 _atom_site_label
 _atom_site_symmetry_multiplicity
 _atom_site_fract_x
 _atom_site_fract_y
 _atom_site_fract_z
 _atom_site_fract_occupancy
 I  I1  1  0.62739  0.62739  0.62739  1
 I  I2  1  0.11069  0.66792  0.11069  1
 I  I3  1  0.62739  0.11782  0.62739  1
 I  I4  1  0.11782  0.62739  0.62739  1
 I  I5  1  0.66792  0.11069  0.11069  1
 I  I6  1  0.11069  0.11069  0.11069  1
 I  I7  1  0.62739  0.62739  0.11782  1
 I  I8  1  0.11069  0.11069  0.66792  1
 Pr  Pr1  1  0.36313  0.36313  0.36313  1
 Pr  Pr2  1  0.36313  0.91061  0.36313  1
 Pr  Pr3  1  0.36313  0.36313  0.91061  1
 Pr  Pr4  1  0.91061  0.36313  0.36313  1
