CIF file written using JARVIS-Tools package.
data_Fe
_symmetry_space_group_name_H-M  'Pm-3m'
_cell_length_a       3.33473
_cell_length_b       3.33473
_cell_length_c       7.45703
_cell_angle_alpha    102.92
_cell_angle_beta     102.92
_cell_angle_gamma    89.9999

_symmetry_Int_Tables_number  221
_chemical_formula_structural  Fe
_chemical_formula_sum  Fe6
_cell_volume  78.67013276766485
_cell_formula_units_Z  6
loop_
  _symmetry_equiv_pos_site_id
 _symmetry_equiv_pos_as_xyz
 1  'x, y, z'
loop_
 _atom_site_type_symbol
 _atom_site_label
 _atom_site_symmetry_multiplicity
 _atom_site_fract_x
 _atom_site_fract_y
 _atom_site_fract_z
 _atom_site_fract_occupancy
 Fe  Fe1  1  0.41666  0.91666  0.83333  1
 Fe  Fe2  1  0.58334  0.08334  0.16667  1
 Fe  Fe3  1  0.08334  0.58334  0.16667  1
 Fe  Fe4  1  0.75000  0.25000  0.50000  1
 Fe  Fe5  1  0.91666  0.41666  0.83333  1
 Fe  Fe6  1  0.25000  0.75000  0.50000  1
