CIF file written using JARVIS-Tools package.
data_YAl10Fe2
_symmetry_space_group_name_H-M  'Cmcm'
_cell_length_a       6.76901
_cell_length_b       6.76901
_cell_length_c       9.00844
_cell_angle_alpha    90
_cell_angle_beta     90
_cell_angle_gamma    97.2317

_symmetry_Int_Tables_number  63
_chemical_formula_structural  YAl10Fe2
_chemical_formula_sum  Y2Al20Fe4
_cell_volume  409.4788506085196
_cell_formula_units_Z  2
loop_
  _symmetry_equiv_pos_site_id
 _symmetry_equiv_pos_as_xyz
 1  'x, y, z'
loop_
 _atom_site_type_symbol
 _atom_site_label
 _atom_site_symmetry_multiplicity
 _atom_site_fract_x
 _atom_site_fract_y
 _atom_site_fract_z
 _atom_site_fract_occupancy
 Al  Al1  1  0.15624  0.84376  0.40279  1
 Al  Al2  1  0.41627  0.13667  0.25000  1
 Al  Al3  1  0.86333  0.58373  0.25000  1
 Al  Al4  1  0.13667  0.41627  0.75000  1
 Al  Al5  1  0.47841  0.21847  0.75000  1
 Al  Al6  1  0.52159  0.78153  0.25000  1
 Al  Al7  1  0.21847  0.47841  0.25000  1
 Al  Al8  1  0.78153  0.52159  0.75000  1
 Al  Al9  1  0.84376  0.15624  0.90279  1
 Al  Al10  1  0.84376  0.15624  0.59721  1
 Al  Al11  1  0.58373  0.86333  0.75000  1
 Al  Al12  1  0.62647  0.37353  0.45368  1
 Al  Al13  1  0.62647  0.37353  0.04632  1
 Al  Al14  1  0.37353  0.62647  0.54632  1
 Al  Al15  1  0.22784  0.22784  0.00000  1
 Al  Al16  1  0.77216  0.77216  0.50000  1
 Al  Al17  1  0.77216  0.77216  0.00000  1
 Al  Al18  1  0.22784  0.22784  0.50000  1
 Al  Al19  1  0.15624  0.84376  0.09721  1
 Al  Al20  1  0.37353  0.62647  0.95368  1
 Fe  Fe1  1  0.50000  0.00000  0.00000  1
 Fe  Fe2  1  0.50000  0.00000  0.50000  1
 Fe  Fe3  1  -0.00000  0.50000  0.50000  1
 Fe  Fe4  1  -0.00000  0.50000  0.00000  1
 Y  Y1  1  0.12639  0.87361  0.75000  1
 Y  Y2  1  0.87361  0.12639  0.25000  1
