CIF file written using JARVIS-Tools package.
data_IrCl3
_symmetry_space_group_name_H-M  'P6_3/mmc'
_cell_length_a       8.40449
_cell_length_b       8.40449
_cell_length_c       3.40433
_cell_angle_alpha    90
_cell_angle_beta     90
_cell_angle_gamma    120

_symmetry_Int_Tables_number  194
_chemical_formula_structural  IrCl3
_chemical_formula_sum  Ir2Cl6
_cell_volume  208.2503709484032
_cell_formula_units_Z  2
loop_
  _symmetry_equiv_pos_site_id
 _symmetry_equiv_pos_as_xyz
 1  'x, y, z'
loop_
 _atom_site_type_symbol
 _atom_site_label
 _atom_site_symmetry_multiplicity
 _atom_site_fract_x
 _atom_site_fract_y
 _atom_site_fract_z
 _atom_site_fract_occupancy
 Cl  Cl1  1  0.21535  0.78465  0.75000  1
 Cl  Cl2  1  0.56930  0.78465  0.75000  1
 Cl  Cl3  1  0.21535  0.43070  0.75000  1
 Cl  Cl4  1  0.78465  0.21535  0.25000  1
 Cl  Cl5  1  0.43070  0.21535  0.25000  1
 Cl  Cl6  1  0.78465  0.56930  0.25000  1
 Ir  Ir1  1  0.33333  0.66667  0.25000  1
 Ir  Ir2  1  0.66667  0.33333  0.75000  1
