CIF file written using JARVIS-Tools package.
data_AlAu4
_symmetry_space_group_name_H-M  'P2_13'
_cell_length_a       7.03788
_cell_length_b       7.03788
_cell_length_c       7.03788
_cell_angle_alpha    90
_cell_angle_beta     90
_cell_angle_gamma    90

_symmetry_Int_Tables_number  198
_chemical_formula_structural  AlAu4
_chemical_formula_sum  Al4Au6
_cell_volume  348.59847711563367
_cell_formula_units_Z  4
loop_
  _symmetry_equiv_pos_site_id
 _symmetry_equiv_pos_as_xyz
 1  'x, y, z'
loop_
 _atom_site_type_symbol
 _atom_site_label
 _atom_site_symmetry_multiplicity
 _atom_site_fract_x
 _atom_site_fract_y
 _atom_site_fract_z
 _atom_site_fract_occupancy
 Al  Al1  1  0.06430  0.06430  0.06430  1
 Al  Al2  1  0.43570  0.93570  0.56430  1
 Al  Al3  1  0.56430  0.43570  0.93570  1
 Al  Al4  1  0.93570  0.56430  0.43570  1
 Au  Au1  1  0.68260  0.68260  0.68260  1
 Au  Au2  1  0.81740  0.31740  0.18260  1
 Au  Au3  1  0.18260  0.81740  0.31740  1
 Au  Au4  1  0.31740  0.18260  0.81740  1
 Au  Au5  1  0.78347  0.94836  0.38875  1
 Au  Au6  1  0.21653  0.44836  0.11125  1
 Au  Au7  1  0.38875  0.78347  0.94836  1
 Au  Au8  1  0.88875  0.71653  0.05164  1
 Au  Au9  1  0.94836  0.38875  0.78347  1
 Au  Au10  1  0.05164  0.88875  0.71653  1
 Au  Au11  1  0.11125  0.21653  0.44836  1
 Au  Au12  1  0.61125  0.28347  0.55164  1
 Au  Au13  1  0.44836  0.11125  0.21653  1
 Au  Au14  1  0.28347  0.55164  0.61125  1
 Au  Au15  1  0.55164  0.61125  0.28347  1
 Au  Au16  1  0.71653  0.05164  0.88875  1
