CIF file written using JARVIS-Tools package.
data_Tb2B4C
_symmetry_space_group_name_H-M  'Immm'
_cell_length_a       3.28385
_cell_length_b       5.29948
_cell_length_c       5.29948
_cell_angle_alpha    76.5248
_cell_angle_beta     71.9512
_cell_angle_gamma    71.9512

_symmetry_Int_Tables_number  71
_chemical_formula_structural  Tb2B4C
_chemical_formula_sum  Tb2B4C
_cell_volume  82.40885781949086
_cell_formula_units_Z  1
loop_
  _symmetry_equiv_pos_site_id
 _symmetry_equiv_pos_as_xyz
 1  'x, y, z'
loop_
 _atom_site_type_symbol
 _atom_site_label
 _atom_site_symmetry_multiplicity
 _atom_site_fract_x
 _atom_site_fract_y
 _atom_site_fract_z
 _atom_site_fract_occupancy
 B  B1  1  0.50000  0.36561  0.63439  1
 B  B2  1  0.50000  0.63439  0.36561  1
 B  B3  1  -0.00000  0.77318  0.22682  1
 B  B4  1  0.00000  0.22682  0.77318  1
 C  C1  1  0.00000  0.00000  0.00000  1
 Tb  Tb1  1  0.26552  0.23448  0.23448  1
 Tb  Tb2  1  0.73448  0.76552  0.76552  1
