CIF file written using JARVIS-Tools package.
data_Pu3O2
_symmetry_space_group_name_H-M  'R-3c'
_cell_length_a       6.15211
_cell_length_b       6.1521
_cell_length_c       6.57721
_cell_angle_alpha    117.884
_cell_angle_beta     62.116
_cell_angle_gamma    120

_symmetry_Int_Tables_number  167
_chemical_formula_structural  Pu3O2
_chemical_formula_sum  Pu6O4
_cell_volume  181.44626597308775
_cell_formula_units_Z  2
loop_
  _symmetry_equiv_pos_site_id
 _symmetry_equiv_pos_as_xyz
 1  'x, y, z'
loop_
 _atom_site_type_symbol
 _atom_site_label
 _atom_site_symmetry_multiplicity
 _atom_site_fract_x
 _atom_site_fract_y
 _atom_site_fract_z
 _atom_site_fract_occupancy
 O  O1  1  0.66286  0.33714  0.01141  1
 O  O2  1  0.83714  0.16286  0.48858  1
 O  O3  1  0.16286  0.83714  0.51142  1
 O  O4  1  0.33714  0.66286  0.98859  1
 Pu  Pu1  1  0.25000  0.08257  0.25000  1
 Pu  Pu2  1  0.91743  0.41743  0.25000  1
 Pu  Pu3  1  0.58257  0.75000  0.25000  1
 Pu  Pu4  1  0.41743  0.25000  0.75000  1
 Pu  Pu5  1  0.08257  0.58257  0.75000  1
 Pu  Pu6  1  0.75000  0.91743  0.75000  1
