CIF file written using JARVIS-Tools package.
data_CaAs
_symmetry_space_group_name_H-M  'P-62m'
_cell_length_a       7.84781
_cell_length_b       7.84781
_cell_length_c       5.91851
_cell_angle_alpha    90
_cell_angle_beta     90
_cell_angle_gamma    120

_symmetry_Int_Tables_number  189
_chemical_formula_structural  CaAs
_chemical_formula_sum  Ca6As6
_cell_volume  315.67471633728707
_cell_formula_units_Z  6
loop_
  _symmetry_equiv_pos_site_id
 _symmetry_equiv_pos_as_xyz
 1  'x, y, z'
loop_
 _atom_site_type_symbol
 _atom_site_label
 _atom_site_symmetry_multiplicity
 _atom_site_fract_x
 _atom_site_fract_y
 _atom_site_fract_z
 _atom_site_fract_occupancy
 As  As1  1  0.00000  0.00000  0.71531  1
 As  As2  1  0.00000  0.00000  0.28469  1
 As  As3  1  0.33333  0.66667  0.77812  1
 As  As4  1  0.33333  0.66667  0.22188  1
 As  As5  1  0.66667  0.33333  0.22188  1
 As  As6  1  0.66667  0.33333  0.77812  1
 Ca  Ca1  1  -0.00000  0.68224  0.00000  1
 Ca  Ca2  1  0.31776  0.31776  0.00000  1
 Ca  Ca3  1  0.68224  -0.00000  0.00000  1
 Ca  Ca4  1  -0.00000  0.34907  0.50000  1
 Ca  Ca5  1  0.65093  0.65093  0.50000  1
 Ca  Ca6  1  0.34907  -0.00000  0.50000  1
