CIF file written using JARVIS-Tools package.
data_Np
_symmetry_space_group_name_H-M  'P4/nmm'
_cell_length_a       3.46099
_cell_length_b       4.64215
_cell_length_c       4.64215
_cell_angle_alpha    90
_cell_angle_beta     90
_cell_angle_gamma    90

_symmetry_Int_Tables_number  129
_chemical_formula_structural  Np
_chemical_formula_sum  Np4
_cell_volume  74.58273859647765
_cell_formula_units_Z  4
loop_
  _symmetry_equiv_pos_site_id
 _symmetry_equiv_pos_as_xyz
 1  'x, y, z'
loop_
 _atom_site_type_symbol
 _atom_site_label
 _atom_site_symmetry_multiplicity
 _atom_site_fract_x
 _atom_site_fract_y
 _atom_site_fract_z
 _atom_site_fract_occupancy
 Np  Np1  1  0.00000  0.25000  0.75000  1
 Np  Np2  1  0.00000  0.75000  0.25000  1
 Np  Np3  1  0.68216  0.25000  0.25000  1
 Np  Np4  1  0.31784  0.75000  0.75000  1
