CIF file written using JARVIS-Tools package.
data_ErGeRu
_symmetry_space_group_name_H-M  'Pnma'
_cell_length_a       4.3989
_cell_length_b       6.95337
_cell_length_c       7.23058
_cell_angle_alpha    90
_cell_angle_beta     90
_cell_angle_gamma    90

_symmetry_Int_Tables_number  62
_chemical_formula_structural  ErGeRu
_chemical_formula_sum  Er4Ge4Ru4
_cell_volume  221.16316655142882
_cell_formula_units_Z  4
loop_
  _symmetry_equiv_pos_site_id
 _symmetry_equiv_pos_as_xyz
 1  'x, y, z'
loop_
 _atom_site_type_symbol
 _atom_site_label
 _atom_site_symmetry_multiplicity
 _atom_site_fract_x
 _atom_site_fract_y
 _atom_site_fract_z
 _atom_site_fract_occupancy
 Er  Er1  1  0.25000  0.48729  0.19234  1
 Er  Er2  1  0.75000  0.51271  0.80766  1
 Er  Er3  1  0.25000  0.98729  0.30766  1
 Er  Er4  1  0.75000  0.01271  0.69234  1
 Ge  Ge1  1  0.25000  0.79476  0.89323  1
 Ge  Ge2  1  0.75000  0.20524  0.10677  1
 Ge  Ge3  1  0.25000  0.29476  0.60677  1
 Ge  Ge4  1  0.75000  0.70524  0.39323  1
 Ru  Ru1  1  0.75000  0.84278  0.06277  1
 Ru  Ru2  1  0.25000  0.15722  0.93723  1
 Ru  Ru3  1  0.75000  0.34278  0.43723  1
 Ru  Ru4  1  0.25000  0.65722  0.56277  1
