CIF file written using JARVIS-Tools package.
data_Ti2NiP2O10
_symmetry_space_group_name_H-M  'P2_1/c'
_cell_length_a       7.57428
_cell_length_b       6.90145
_cell_length_c       7.23684
_cell_angle_alpha    90
_cell_angle_beta     116.815
_cell_angle_gamma    90

_symmetry_Int_Tables_number  14
_chemical_formula_structural  Ti2NiP2O10
_chemical_formula_sum  Ti4Ni2P4O20
_cell_volume  337.61580871684015
_cell_formula_units_Z  2
loop_
  _symmetry_equiv_pos_site_id
 _symmetry_equiv_pos_as_xyz
 1  'x, y, z'
loop_
 _atom_site_type_symbol
 _atom_site_label
 _atom_site_symmetry_multiplicity
 _atom_site_fract_x
 _atom_site_fract_y
 _atom_site_fract_z
 _atom_site_fract_occupancy
 Ni  Ni1  1  0.50000  0.50000  0.00000  1
 Ni  Ni2  1  0.00000  0.00000  0.00000  1
 O  O1  1  0.35567  -0.00417  0.26826  1
 O  O2  1  0.60421  0.27377  0.93815  1
 O  O3  1  0.89579  0.77377  0.06185  1
 O  O4  1  0.39579  0.72623  0.06185  1
 O  O5  1  0.10421  0.22623  0.93815  1
 O  O6  1  0.39872  0.27429  0.55283  1
 O  O7  1  0.67170  0.97289  0.23210  1
 O  O8  1  0.17170  0.52711  0.23210  1
 O  O9  1  0.32830  0.02711  0.76790  1
 O  O10  1  0.82830  0.47289  0.76790  1
 O  O11  1  0.60128  0.72571  0.44717  1
 O  O12  1  0.50000  0.65193  0.78590  1
 O  O13  1  -0.00000  0.84807  0.78590  1
 O  O14  1  0.14433  0.49583  0.73174  1
 O  O15  1  0.89872  0.22571  0.55283  1
 O  O16  1  0.10128  0.77429  0.44717  1
 O  O17  1  0.64433  0.00417  0.73174  1
 O  O18  1  0.85567  0.50417  0.26826  1
 O  O19  1  0.00000  0.15193  0.21410  1
 O  O20  1  0.50000  0.34807  0.21410  1
 P  P1  1  0.50922  0.85830  0.25680  1
 P  P2  1  -0.00922  0.35830  0.74320  1
 P  P3  1  0.49078  0.14170  0.74320  1
 P  P4  1  0.00922  0.64170  0.25680  1
 Ti  Ti1  1  0.79361  0.22321  0.25700  1
 Ti  Ti2  1  0.29361  0.27679  0.25700  1
 Ti  Ti3  1  0.20639  0.77679  0.74300  1
 Ti  Ti4  1  0.70639  0.72321  0.74300  1
