CIF file written using JARVIS-Tools package.
data_Sr
_symmetry_space_group_name_H-M  'I4_1/amd'
_cell_length_a       3.9107
_cell_length_b       5.48998
_cell_length_c       5.48998
_cell_angle_alpha    82.7336
_cell_angle_beta     69.135
_cell_angle_gamma    69.135

_symmetry_Int_Tables_number  141
_chemical_formula_structural  Sr
_chemical_formula_sum  Sr2
_cell_volume  102.91590527325991
_cell_formula_units_Z  2
loop_
  _symmetry_equiv_pos_site_id
 _symmetry_equiv_pos_as_xyz
 1  'x, y, z'
loop_
 _atom_site_type_symbol
 _atom_site_label
 _atom_site_symmetry_multiplicity
 _atom_site_fract_x
 _atom_site_fract_y
 _atom_site_fract_z
 _atom_site_fract_occupancy
 Sr  Sr1  1  0.62479  0.25000  0.25000  1
 Sr  Sr2  1  0.37521  0.75000  0.75000  1
