CIF file written using JARVIS-Tools package.
data_Ta3Ga2
_symmetry_space_group_name_H-M  'P4/mbm'
_cell_length_a       6.88358
_cell_length_b       6.88358
_cell_length_c       3.51764
_cell_angle_alpha    90
_cell_angle_beta     90
_cell_angle_gamma    90

_symmetry_Int_Tables_number  127
_chemical_formula_structural  Ta3Ga2
_chemical_formula_sum  Ta6Ga4
_cell_volume  166.6786708552446
_cell_formula_units_Z  2
loop_
  _symmetry_equiv_pos_site_id
 _symmetry_equiv_pos_as_xyz
 1  'x, y, z'
loop_
 _atom_site_type_symbol
 _atom_site_label
 _atom_site_symmetry_multiplicity
 _atom_site_fract_x
 _atom_site_fract_y
 _atom_site_fract_z
 _atom_site_fract_occupancy
 Ga  Ga1  1  0.12610  0.62610  0.00000  1
 Ga  Ga2  1  0.62610  0.87390  0.00000  1
 Ga  Ga3  1  0.37390  0.12610  0.00000  1
 Ga  Ga4  1  0.87390  0.37390  0.00000  1
 Ta  Ta1  1  0.82442  0.67558  0.50000  1
 Ta  Ta2  1  0.32442  0.82442  0.50000  1
 Ta  Ta3  1  0.17558  0.32442  0.50000  1
 Ta  Ta4  1  0.67558  0.17558  0.50000  1
 Ta  Ta5  1  0.50000  0.50000  0.00000  1
 Ta  Ta6  1  0.00000  0.00000  0.00000  1
