CIF file written using JARVIS-Tools package.
data_CdH2O2
_symmetry_space_group_name_H-M  'Cm'
_cell_length_a       3.45729
_cell_length_b       5.74915
_cell_length_c       6.09659
_cell_angle_alpha    117.584
_cell_angle_beta     105.658
_cell_angle_gamma    91.6604

_symmetry_Int_Tables_number  8
_chemical_formula_structural  CdH2O2
_chemical_formula_sum  Cd2H4O4
_cell_volume  101.722323257101
_cell_formula_units_Z  2
loop_
  _symmetry_equiv_pos_site_id
 _symmetry_equiv_pos_as_xyz
 1  'x, y, z'
loop_
 _atom_site_type_symbol
 _atom_site_label
 _atom_site_symmetry_multiplicity
 _atom_site_fract_x
 _atom_site_fract_y
 _atom_site_fract_z
 _atom_site_fract_occupancy
 Cd  Cd1  1  0.17003  0.15251  0.31595  1
 Cd  Cd2  1  0.86058  0.84295  0.69692  1
 H  H1  1  0.51679  0.71763  0.00647  1
 H  H2  1  0.36885  0.32272  0.00644  1
 H  H3  1  0.88632  0.37638  0.73260  1
 H  H4  1  0.16015  0.65025  0.28024  1
 O  O1  1  0.52635  0.88798  0.00641  1
 O  O2  1  0.08476  0.31526  0.00642  1
 O  O3  1  0.80177  0.39640  0.57299  1
 O  O4  1  0.23522  0.82981  0.43981  1
