CIF file written using JARVIS-Tools package.
data_Dy2Cr2C3
_symmetry_space_group_name_H-M  'C2/m'
_cell_length_a       3.38905
_cell_length_b       5.45595
_cell_length_c       5.5591
_cell_angle_alpha    104.939
_cell_angle_beta     90
_cell_angle_gamma    108.094

_symmetry_Int_Tables_number  12
_chemical_formula_structural  Dy2Cr2C3
_chemical_formula_sum  Dy2Cr2C3
_cell_volume  94.04531559627348
_cell_formula_units_Z  1
loop_
  _symmetry_equiv_pos_site_id
 _symmetry_equiv_pos_as_xyz
 1  'x, y, z'
loop_
 _atom_site_type_symbol
 _atom_site_label
 _atom_site_symmetry_multiplicity
 _atom_site_fract_x
 _atom_site_fract_y
 _atom_site_fract_z
 _atom_site_fract_occupancy
 C  C1  1  0.71290  0.42581  0.77079  1
 C  C2  1  0.28710  0.57419  0.22921  1
 C  C3  1  0.00000  0.00000  0.00000  1
 Cr  Cr1  1  0.15702  0.31405  0.88960  1
 Cr  Cr2  1  0.84298  0.68595  0.11040  1
 Dy  Dy1  1  0.39495  0.78991  0.68329  1
 Dy  Dy2  1  0.60505  0.21009  0.31671  1
