CIF file written using JARVIS-Tools package.
data_KYGeS4
_symmetry_space_group_name_H-M  'P2_1'
_cell_length_a       6.4991
_cell_length_b       6.66524
_cell_length_c       8.54604
_cell_angle_alpha    90
_cell_angle_beta     107.988
_cell_angle_gamma    90

_symmetry_Int_Tables_number  4
_chemical_formula_structural  KYGeS4
_chemical_formula_sum  K2Y2Ge2S8
_cell_volume  352.10242721049445
_cell_formula_units_Z  2
loop_
  _symmetry_equiv_pos_site_id
 _symmetry_equiv_pos_as_xyz
 1  'x, y, z'
loop_
 _atom_site_type_symbol
 _atom_site_label
 _atom_site_symmetry_multiplicity
 _atom_site_fract_x
 _atom_site_fract_y
 _atom_site_fract_z
 _atom_site_fract_occupancy
 Ge  Ge1  1  0.77898  0.47393  0.67839  1
 Ge  Ge2  1  0.22102  0.97393  0.32161  1
 K  K1  1  0.73888  0.99431  0.93733  1
 K  K2  1  0.26112  0.49431  0.06267  1
 S  S1  1  0.57575  0.47078  0.84222  1
 S  S2  1  0.03179  0.23349  0.72275  1
 S  S3  1  0.98866  0.74631  0.70622  1
 S  S4  1  0.43562  0.90610  0.57593  1
 S  S5  1  0.56438  0.40610  0.42407  1
 S  S6  1  0.01134  0.24631  0.29378  1
 S  S7  1  0.96821  0.73349  0.27725  1
 S  S8  1  0.42425  0.97078  0.15778  1
 Y  Y1  1  0.22994  0.50808  0.55220  1
 Y  Y2  1  0.77006  0.00808  0.44780  1
