CIF file written using JARVIS-Tools package.
data_GaN
_symmetry_space_group_name_H-M  'P6_3/mmc'
_cell_length_a       3.21125
_cell_length_b       3.21136
_cell_length_c       7.65227
_cell_angle_alpha    90
_cell_angle_beta     90
_cell_angle_gamma    119.999

_symmetry_Int_Tables_number  194
_chemical_formula_structural  GaN
_chemical_formula_sum  Ga2N2
_cell_volume  68.34231892835466
_cell_formula_units_Z  2
loop_
  _symmetry_equiv_pos_site_id
 _symmetry_equiv_pos_as_xyz
 1  'x, y, z'
loop_
 _atom_site_type_symbol
 _atom_site_label
 _atom_site_symmetry_multiplicity
 _atom_site_fract_x
 _atom_site_fract_y
 _atom_site_fract_z
 _atom_site_fract_occupancy
 Ga  Ga1  1  0.33335  0.66670  0.94001  1
 Ga  Ga2  1  0.66665  0.33330  0.44001  1
 N  N1  1  -0.00002  -0.00003  0.43999  1
 N  N2  1  0.00002  0.00003  0.93999  1
