CIF file written using JARVIS-Tools package.
data_NaFe4Sb12
_symmetry_space_group_name_H-M  'Im-3'
_cell_length_a       7.97897
_cell_length_b       7.97897
_cell_length_c       7.97897
_cell_angle_alpha    109.471
_cell_angle_beta     109.471
_cell_angle_gamma    109.471

_symmetry_Int_Tables_number  204
_chemical_formula_structural  NaFe4Sb12
_chemical_formula_sum  NaFe4Sb2
_cell_volume  391.0373428216548
_cell_formula_units_Z  1
loop_
  _symmetry_equiv_pos_site_id
 _symmetry_equiv_pos_as_xyz
 1  'x, y, z'
loop_
 _atom_site_type_symbol
 _atom_site_label
 _atom_site_symmetry_multiplicity
 _atom_site_fract_x
 _atom_site_fract_y
 _atom_site_fract_z
 _atom_site_fract_occupancy
 Fe  Fe1  1  0.50000  0.50000  0.50000  1
 Fe  Fe2  1  -0.00000  0.50000  -0.00000  1
 Fe  Fe3  1  0.00000  0.00000  0.50000  1
 Fe  Fe4  1  0.50000  0.00000  -0.00000  1
 Na  Na1  1  0.00000  0.00000  0.00000  1
 Sb  Sb1  1  0.49436  0.33302  0.16135  1
 Sb  Sb2  1  0.33302  0.83865  0.17167  1
 Sb  Sb3  1  0.16135  0.82833  0.66698  1
 Sb  Sb4  1  0.82833  0.66698  0.16135  1
 Sb  Sb5  1  0.66698  0.83865  0.50564  1
 Sb  Sb6  1  0.83865  0.50564  0.66698  1
 Sb  Sb7  1  0.83865  0.17167  0.33302  1
 Sb  Sb8  1  0.16135  0.49436  0.33302  1
 Sb  Sb9  1  0.33302  0.16135  0.49436  1
 Sb  Sb10  1  0.17167  0.33302  0.83865  1
 Sb  Sb11  1  0.66698  0.16135  0.82833  1
 Sb  Sb12  1  0.50564  0.66698  0.83865  1
