CIF file written using JARVIS-Tools package.
data_KTiPS5
_symmetry_space_group_name_H-M  'C2/m'
_cell_length_a       6.32629
_cell_length_b       7.10099
_cell_length_c       9.49488
_cell_angle_alpha    111.959
_cell_angle_beta     97.3693
_cell_angle_gamma    90

_symmetry_Int_Tables_number  12
_chemical_formula_structural  KTiPS5
_chemical_formula_sum  K2Ti2P2S0
_cell_volume  391.79253176276717
_cell_formula_units_Z  2
loop_
  _symmetry_equiv_pos_site_id
 _symmetry_equiv_pos_as_xyz
 1  'x, y, z'
loop_
 _atom_site_type_symbol
 _atom_site_label
 _atom_site_symmetry_multiplicity
 _atom_site_fract_x
 _atom_site_fract_y
 _atom_site_fract_z
 _atom_site_fract_occupancy
 K  K1  1  0.72992  0.22970  0.45940  1
 K  K2  1  0.27008  0.77030  0.54060  1
 P  P1  1  0.71563  0.63406  0.26813  1
 P  P2  1  0.28437  0.36594  0.73187  1
 S  S1  1  0.16360  0.64856  0.82853  1
 S  S2  1  0.23915  0.25117  0.50235  1
 S  S3  1  0.83640  0.35144  0.17147  1
 S  S4  1  0.39296  0.58646  0.17293  1
 S  S5  1  0.83640  0.82003  0.17147  1
 S  S6  1  0.32601  0.06326  0.12653  1
 S  S7  1  0.67399  0.93674  0.87347  1
 S  S8  1  0.60704  0.41354  0.82707  1
 S  S9  1  0.16360  0.17997  0.82853  1
 S  S10  1  0.76085  0.74883  0.49765  1
 Ti  Ti1  1  0.50000  0.77747  0.00000  1
 Ti  Ti2  1  0.50000  0.22253  -0.00000  1
