CIF file written using JARVIS-Tools package.
data_SmAg3
_symmetry_space_group_name_H-M  'P6_3/mmc'
_cell_length_a       6.38654
_cell_length_b       6.38654
_cell_length_c       4.85322
_cell_angle_alpha    90
_cell_angle_beta     90
_cell_angle_gamma    120

_symmetry_Int_Tables_number  194
_chemical_formula_structural  SmAg3
_chemical_formula_sum  Sm2Ag6
_cell_volume  171.43214837333733
_cell_formula_units_Z  2
loop_
  _symmetry_equiv_pos_site_id
 _symmetry_equiv_pos_as_xyz
 1  'x, y, z'
loop_
 _atom_site_type_symbol
 _atom_site_label
 _atom_site_symmetry_multiplicity
 _atom_site_fract_x
 _atom_site_fract_y
 _atom_site_fract_z
 _atom_site_fract_occupancy
 Ag  Ag1  1  0.15358  0.30715  0.25000  1
 Ag  Ag2  1  0.69285  0.84642  0.25000  1
 Ag  Ag3  1  0.15358  0.84642  0.25000  1
 Ag  Ag4  1  0.84642  0.15358  0.75000  1
 Ag  Ag5  1  0.30715  0.15358  0.75000  1
 Ag  Ag6  1  0.84642  0.69285  0.75000  1
 Sm  Sm1  1  0.66667  0.33333  0.25000  1
 Sm  Sm2  1  0.33333  0.66667  0.75000  1
