CIF file written using JARVIS-Tools package.
data_O
_symmetry_space_group_name_H-M  'C2/m'
_cell_length_a       3.34071
_cell_length_b       3.34071
_cell_length_c       3.9925
_cell_angle_alpha    94.3211
_cell_angle_beta     109.87
_cell_angle_gamma    120.249

_symmetry_Int_Tables_number  12
_chemical_formula_structural  O
_chemical_formula_sum  O2
_cell_volume  34.4920522040222
_cell_formula_units_Z  2
loop_
  _symmetry_equiv_pos_site_id
 _symmetry_equiv_pos_as_xyz
 1  'x, y, z'
loop_
 _atom_site_type_symbol
 _atom_site_label
 _atom_site_symmetry_multiplicity
 _atom_site_fract_x
 _atom_site_fract_y
 _atom_site_fract_z
 _atom_site_fract_occupancy
 O  O1  1  0.13870  0.01839  0.15709  1
 O  O2  1  0.86130  0.98161  0.84291  1
