CIF file written using JARVIS-Tools package.
data_MgH8Cl2O12
_symmetry_space_group_name_H-M  'C2/m'
_cell_length_a       6.0925
_cell_length_b       6.79152
_cell_length_c       6.79152
_cell_angle_alpha    70.3023
_cell_angle_beta     108.255
_cell_angle_gamma    108.255

_symmetry_Int_Tables_number  12
_chemical_formula_structural  MgH8Cl2O12
_chemical_formula_sum  MgH8Cl2O2
_cell_volume  244.38602234832916
_cell_formula_units_Z  1
loop_
  _symmetry_equiv_pos_site_id
 _symmetry_equiv_pos_as_xyz
 1  'x, y, z'
loop_
 _atom_site_type_symbol
 _atom_site_label
 _atom_site_symmetry_multiplicity
 _atom_site_fract_x
 _atom_site_fract_y
 _atom_site_fract_z
 _atom_site_fract_occupancy
 Cl  Cl1  1  0.40470  0.30188  0.30188  1
 Cl  Cl2  1  0.59530  0.69812  0.69812  1
 H  H1  1  0.75123  0.24782  0.04458  1
 H  H2  1  0.75123  0.04458  0.24782  1
 H  H3  1  0.86541  0.61784  0.28074  1
 H  H4  1  0.13459  0.71926  0.38216  1
 H  H5  1  0.86541  0.28074  0.61784  1
 H  H6  1  0.13459  0.38216  0.71926  1
 H  H7  1  0.24877  0.95542  0.75218  1
 H  H8  1  0.24877  0.75218  0.95542  1
 Mg  Mg1  1  0.00000  0.00000  0.00000  1
 O  O1  1  0.66274  0.84052  0.84052  1
 O  O2  1  0.33726  0.15948  0.15948  1
 O  O3  1  0.31673  0.49323  0.18968  1
 O  O4  1  0.00000  0.74228  0.25772  1
 O  O5  1  0.81824  0.12168  0.12168  1
 O  O6  1  0.68327  0.50677  0.81032  1
 O  O7  1  0.68327  0.81032  0.50677  1
 O  O8  1  0.33369  0.64105  0.64105  1
 O  O9  1  0.00000  0.25772  0.74228  1
 O  O10  1  0.66631  0.35895  0.35895  1
 O  O11  1  0.31673  0.18968  0.49323  1
 O  O12  1  0.18176  0.87832  0.87832  1
