CIF file written using JARVIS-Tools package.
data_Tl
_symmetry_space_group_name_H-M  'R-3m'
_cell_length_a       3.55214
_cell_length_b       3.55214
_cell_length_c       8.63221
_cell_angle_alpha    78.1266
_cell_angle_beta     101.873
_cell_angle_gamma    120

_symmetry_Int_Tables_number  166
_chemical_formula_structural  Tl
_chemical_formula_sum  Tl3
_cell_volume  91.62544363741931
_cell_formula_units_Z  3
loop_
  _symmetry_equiv_pos_site_id
 _symmetry_equiv_pos_as_xyz
 1  'x, y, z'
loop_
 _atom_site_type_symbol
 _atom_site_label
 _atom_site_symmetry_multiplicity
 _atom_site_fract_x
 _atom_site_fract_y
 _atom_site_fract_z
 _atom_site_fract_occupancy
 Tl  Tl1  1  0.00000  0.00000  0.00000  1
 Tl  Tl2  1  0.77880  0.22121  0.33638  1
 Tl  Tl3  1  0.22121  0.77879  0.66362  1
