CIF file written using JARVIS-Tools package.
data_Tb2Re2Si2C
_symmetry_space_group_name_H-M  'C2/m'
_cell_length_a       4.0055
_cell_length_b       5.84982
_cell_length_c       6.01111
_cell_angle_alpha    71.9463
_cell_angle_beta     70.5384
_cell_angle_gamma    69.9792

_symmetry_Int_Tables_number  12
_chemical_formula_structural  Tb2Re2Si2C
_chemical_formula_sum  Tb2Re2Si2C
_cell_volume  121.68895877417145
_cell_formula_units_Z  1
loop_
  _symmetry_equiv_pos_site_id
 _symmetry_equiv_pos_as_xyz
 1  'x, y, z'
loop_
 _atom_site_type_symbol
 _atom_site_label
 _atom_site_symmetry_multiplicity
 _atom_site_fract_x
 _atom_site_fract_y
 _atom_site_fract_z
 _atom_site_fract_occupancy
 C  C1  1  0.00000  0.00000  0.00000  1
 Re  Re1  1  0.79321  0.32132  0.09227  1
 Re  Re2  1  0.20679  0.67868  0.90773  1
 Si  Si1  1  0.85724  0.60293  0.68259  1
 Si  Si2  1  0.14276  0.39707  0.31741  1
 Tb  Tb1  1  0.42783  0.84524  0.29911  1
 Tb  Tb2  1  0.57217  0.15476  0.70089  1
