CIF file written using JARVIS-Tools package.
data_Bi
_symmetry_space_group_name_H-M  'I4_1/amd'
_cell_length_a       3.37402
_cell_length_b       4.80359
_cell_length_c       4.80359
_cell_angle_alpha    82.8714
_cell_angle_beta     69.4147
_cell_angle_gamma    69.4147

_symmetry_Int_Tables_number  141
_chemical_formula_structural  Bi
_chemical_formula_sum  Bi2
_cell_volume  68.22918558304573
_cell_formula_units_Z  2
loop_
  _symmetry_equiv_pos_site_id
 _symmetry_equiv_pos_as_xyz
 1  'x, y, z'
loop_
 _atom_site_type_symbol
 _atom_site_label
 _atom_site_symmetry_multiplicity
 _atom_site_fract_x
 _atom_site_fract_y
 _atom_site_fract_z
 _atom_site_fract_occupancy
 Bi  Bi1  1  0.87459  0.24998  0.24998  1
 Bi  Bi2  1  0.12541  0.75002  0.75002  1
