CIF file written using JARVIS-Tools package.
data_Mo3WSe2S6
_symmetry_space_group_name_H-M  'P1'
_cell_length_a       3.2248
_cell_length_b       3.22469
_cell_length_c       25.3429
_cell_angle_alpha    89.9298
_cell_angle_beta     90.0434
_cell_angle_gamma    120.003

_symmetry_Int_Tables_number  1
_chemical_formula_structural  Mo3WSe2S6
_chemical_formula_sum  Mo3WSe2S6
_cell_volume  228.22557830063928
_cell_formula_units_Z  1
loop_
  _symmetry_equiv_pos_site_id
 _symmetry_equiv_pos_as_xyz
 1  'x, y, z'
loop_
 _atom_site_type_symbol
 _atom_site_label
 _atom_site_symmetry_multiplicity
 _atom_site_fract_x
 _atom_site_fract_y
 _atom_site_fract_z
 _atom_site_fract_occupancy
 Mo  Mo1  1  0.34453  0.67726  0.00507  1
 Mo  Mo2  1  0.65710  0.31961  0.25021  1
 Mo  Mo3  1  0.67395  0.34246  0.75139  1
 S  S1  1  0.32365  0.65227  0.31162  1
 S  S2  1  0.67798  0.34464  0.94363  1
 S  S3  1  0.65765  0.32787  0.43453  1
 S  S4  1  0.67782  0.34322  0.06649  1
 S  S5  1  0.65787  0.32693  0.55798  1
 S  S6  1  0.32383  0.65361  0.18879  1
 Se  Se1  1  0.34078  0.67501  0.81888  1
 Se  Se2  1  0.34046  0.67640  0.68390  1
 W  W1  1  0.32439  0.66072  0.49627  1
