CIF file written using JARVIS-Tools package.
data_Sr2CoSe3O9
_symmetry_space_group_name_H-M  'P-1'
_cell_length_a       7.14529
_cell_length_b       7.76661
_cell_length_c       8.63249
_cell_angle_alpha    103.001
_cell_angle_beta     105.101
_cell_angle_gamma    96.0047

_symmetry_Int_Tables_number  2
_chemical_formula_structural  Sr2CoSe3O9
_chemical_formula_sum  Sr4Co2Se6O8
_cell_volume  443.82355631146686
_cell_formula_units_Z  2
loop_
  _symmetry_equiv_pos_site_id
 _symmetry_equiv_pos_as_xyz
 1  'x, y, z'
loop_
 _atom_site_type_symbol
 _atom_site_label
 _atom_site_symmetry_multiplicity
 _atom_site_fract_x
 _atom_site_fract_y
 _atom_site_fract_z
 _atom_site_fract_occupancy
 Co  Co1  1  0.09094  0.34073  0.75113  1
 Co  Co2  1  0.90906  0.65927  0.24887  1
 O  O1  1  0.84967  0.00031  0.35256  1
 O  O2  1  0.16081  0.61877  0.37730  1
 O  O3  1  0.83919  0.38123  0.62270  1
 O  O4  1  0.66331  0.70307  0.11209  1
 O  O5  1  0.77099  0.59318  0.40022  1
 O  O6  1  0.46673  0.70951  0.64842  1
 O  O7  1  0.53327  0.29049  0.35158  1
 O  O8  1  0.05948  0.80635  0.15819  1
 O  O9  1  0.22901  0.40682  0.59978  1
 O  O10  1  0.18443  0.59182  0.92728  1
 O  O11  1  0.87231  0.75601  0.83048  1
 O  O12  1  0.12769  0.24399  0.16952  1
 O  O13  1  0.48181  0.87145  0.31657  1
 O  O14  1  0.15033  -0.00031  0.64744  1
 O  O15  1  0.94052  0.19365  0.84181  1
 O  O16  1  0.33669  0.29693  0.88791  1
 O  O17  1  0.81557  0.40818  0.07272  1
 O  O18  1  0.51819  0.12855  0.68343  1
 Se  Se1  1  0.37039  0.07682  0.80177  1
 Se  Se2  1  0.21837  0.63469  0.58983  1
 Se  Se3  1  0.89777  0.20397  0.03313  1
 Se  Se4  1  0.62961  0.92318  0.19823  1
 Se  Se5  1  0.10223  0.79603  0.96687  1
 Se  Se6  1  0.78163  0.36531  0.41017  1
 Sr  Sr1  1  0.24004  0.08782  0.39512  1
 Sr  Sr2  1  0.75996  0.91218  0.60488  1
 Sr  Sr3  1  0.37903  0.51357  0.19304  1
 Sr  Sr4  1  0.62097  0.48643  0.80696  1
