CIF file written using JARVIS-Tools package.
data_Ba2Sn
_symmetry_space_group_name_H-M  'Pnma'
_cell_length_a       5.66459
_cell_length_b       8.62542
_cell_length_c       10.6584
_cell_angle_alpha    90
_cell_angle_beta     90
_cell_angle_gamma    90

_symmetry_Int_Tables_number  62
_chemical_formula_structural  Ba2Sn
_chemical_formula_sum  Ba8Sn4
_cell_volume  520.7629889094111
_cell_formula_units_Z  4
loop_
  _symmetry_equiv_pos_site_id
 _symmetry_equiv_pos_as_xyz
 1  'x, y, z'
loop_
 _atom_site_type_symbol
 _atom_site_label
 _atom_site_symmetry_multiplicity
 _atom_site_fract_x
 _atom_site_fract_y
 _atom_site_fract_z
 _atom_site_fract_occupancy
 Ba  Ba1  1  0.75000  0.84217  0.07949  1
 Ba  Ba2  1  0.25000  0.15783  0.92051  1
 Ba  Ba3  1  0.75000  0.34217  0.42051  1
 Ba  Ba4  1  0.25000  0.65783  0.57949  1
 Ba  Ba5  1  0.75000  0.97914  0.68173  1
 Ba  Ba6  1  0.25000  0.02086  0.31827  1
 Ba  Ba7  1  0.75000  0.47914  0.81827  1
 Ba  Ba8  1  0.25000  0.52086  0.18173  1
 Sn  Sn1  1  0.75000  0.75370  0.39745  1
 Sn  Sn2  1  0.25000  0.24630  0.60255  1
 Sn  Sn3  1  0.75000  0.25370  0.10255  1
 Sn  Sn4  1  0.25000  0.74630  0.89745  1
