CIF file written using JARVIS-Tools package.
data_MgSe2O5
_symmetry_space_group_name_H-M  'Pbcn'
_cell_length_a       6.04914
_cell_length_b       6.8848
_cell_length_c       10.4273
_cell_angle_alpha    90
_cell_angle_beta     90
_cell_angle_gamma    90

_symmetry_Int_Tables_number  60
_chemical_formula_structural  MgSe2O5
_chemical_formula_sum  Mg4Se8O20
_cell_volume  434.2665519198972
_cell_formula_units_Z  4
loop_
  _symmetry_equiv_pos_site_id
 _symmetry_equiv_pos_as_xyz
 1  'x, y, z'
loop_
 _atom_site_type_symbol
 _atom_site_label
 _atom_site_symmetry_multiplicity
 _atom_site_fract_x
 _atom_site_fract_y
 _atom_site_fract_z
 _atom_site_fract_occupancy
 Mg  Mg1  1  0.75000  0.00000  0.55895  1
 Mg  Mg2  1  0.25000  0.50000  0.94105  1
 Mg  Mg3  1  0.25000  0.00000  0.44105  1
 Mg  Mg4  1  0.75000  0.50000  0.05895  1
 O  O1  1  0.15660  0.19259  0.29303  1
 O  O2  1  0.84340  0.69259  0.20697  1
 O  O3  1  0.25000  0.00000  0.06631  1
 O  O4  1  0.84340  0.80741  0.70697  1
 O  O5  1  0.34340  0.69259  0.79303  1
 O  O6  1  0.65660  0.19259  0.70697  1
 O  O7  1  0.04735  0.34438  0.06806  1
 O  O8  1  0.04735  0.15562  0.56806  1
 O  O9  1  0.75000  0.50000  0.43369  1
 O  O10  1  0.75000  0.00000  0.93369  1
 O  O11  1  0.25000  0.50000  0.56631  1
 O  O12  1  0.15660  0.30741  0.79303  1
 O  O13  1  0.54735  0.15562  0.43194  1
 O  O14  1  0.45265  0.65562  0.06806  1
 O  O15  1  0.34340  0.80741  0.29303  1
 O  O16  1  0.95265  0.65562  0.93194  1
 O  O17  1  0.45265  0.84438  0.56806  1
 O  O18  1  0.65660  0.30741  0.20697  1
 O  O19  1  0.95265  0.84438  0.43194  1
 O  O20  1  0.54735  0.34438  0.93194  1
 Se  Se1  1  0.97317  0.86653  0.84532  1
 Se  Se2  1  0.52683  0.13347  0.84532  1
 Se  Se3  1  0.02683  0.36653  0.65468  1
 Se  Se4  1  0.47317  0.63347  0.65468  1
 Se  Se5  1  0.52683  0.36653  0.34532  1
 Se  Se6  1  0.47317  0.86653  0.15468  1
 Se  Se7  1  0.97317  0.63347  0.34532  1
 Se  Se8  1  0.02683  0.13347  0.15468  1
