CIF file written using JARVIS-Tools package.
data_Ga
_symmetry_space_group_name_H-M  'Cmce'
_cell_length_a       3.0943
_cell_length_b       3.0943
_cell_length_c       8.11065
_cell_angle_alpha    90
_cell_angle_beta     90
_cell_angle_gamma    97.9742

_symmetry_Int_Tables_number  64
_chemical_formula_structural  Ga
_chemical_formula_sum  Ga4
_cell_volume  76.90621320903847
_cell_formula_units_Z  4
loop_
  _symmetry_equiv_pos_site_id
 _symmetry_equiv_pos_as_xyz
 1  'x, y, z'
loop_
 _atom_site_type_symbol
 _atom_site_label
 _atom_site_symmetry_multiplicity
 _atom_site_fract_x
 _atom_site_fract_y
 _atom_site_fract_z
 _atom_site_fract_occupancy
 Ga  Ga1  1  0.74852  0.25148  0.37501  1
 Ga  Ga2  1  0.25148  0.74852  0.62499  1
 Ga  Ga3  1  0.75148  0.24852  0.87501  1
 Ga  Ga4  1  0.24852  0.75148  0.12499  1
