CIF file written using JARVIS-Tools package.
data_TiInPd2
_symmetry_space_group_name_H-M  'Fm-3m'
_cell_length_a       4.55655
_cell_length_b       4.55699
_cell_length_c       4.55746
_cell_angle_alpha    59.9953
_cell_angle_beta     60.0031
_cell_angle_gamma    60.001

_symmetry_Int_Tables_number  225
_chemical_formula_structural  TiInPd2
_chemical_formula_sum  TiInPd2
_cell_volume  66.91454238197853
_cell_formula_units_Z  1
loop_
  _symmetry_equiv_pos_site_id
 _symmetry_equiv_pos_as_xyz
 1  'x, y, z'
loop_
 _atom_site_type_symbol
 _atom_site_label
 _atom_site_symmetry_multiplicity
 _atom_site_fract_x
 _atom_site_fract_y
 _atom_site_fract_z
 _atom_site_fract_occupancy
 In  In1  1  0.24999  0.25001  0.25001  1
 Pd  Pd1  1  0.00000  0.00001  -0.00001  1
 Pd  Pd2  1  0.49999  0.50000  0.50002  1
 Ti  Ti1  1  0.75002  0.74999  0.74999  1
