CIF file written using JARVIS-Tools package.
data_Ho3Lu
_symmetry_space_group_name_H-M  'P6_3/mmc'
_cell_length_a       7.06986
_cell_length_b       7.06986
_cell_length_c       5.5111
_cell_angle_alpha    90
_cell_angle_beta     90
_cell_angle_gamma    120

_symmetry_Int_Tables_number  194
_chemical_formula_structural  Ho3Lu
_chemical_formula_sum  Ho6Lu2
_cell_volume  238.55640155180876
_cell_formula_units_Z  2
loop_
  _symmetry_equiv_pos_site_id
 _symmetry_equiv_pos_as_xyz
 1  'x, y, z'
loop_
 _atom_site_type_symbol
 _atom_site_label
 _atom_site_symmetry_multiplicity
 _atom_site_fract_x
 _atom_site_fract_y
 _atom_site_fract_z
 _atom_site_fract_occupancy
 Ho  Ho1  1  0.16720  0.83280  0.75000  1
 Ho  Ho2  1  0.83280  0.66560  0.25000  1
 Ho  Ho3  1  0.33440  0.16720  0.25000  1
 Ho  Ho4  1  0.83280  0.16720  0.25000  1
 Ho  Ho5  1  0.16720  0.33440  0.75000  1
 Ho  Ho6  1  0.66560  0.83280  0.75000  1
 Lu  Lu1  1  0.66667  0.33333  0.75000  1
 Lu  Lu2  1  0.33333  0.66667  0.25000  1
