CIF file written using JARVIS-Tools package.
data_Ga3NO3
_symmetry_space_group_name_H-M  'R-3m'
_cell_length_a       5.9086
_cell_length_b       5.97794
_cell_length_c       5.97794
_cell_angle_alpha    59.2339
_cell_angle_beta     90
_cell_angle_gamma    119.617

_symmetry_Int_Tables_number  166
_chemical_formula_structural  Ga3NO3
_chemical_formula_sum  Ga6N2O6
_cell_volume  148.42111996527208
_cell_formula_units_Z  2
loop_
  _symmetry_equiv_pos_site_id
 _symmetry_equiv_pos_as_xyz
 1  'x, y, z'
loop_
 _atom_site_type_symbol
 _atom_site_label
 _atom_site_symmetry_multiplicity
 _atom_site_fract_x
 _atom_site_fract_y
 _atom_site_fract_z
 _atom_site_fract_occupancy
 Ga  Ga1  1  0.50000  0.00000  -0.00000  1
 Ga  Ga2  1  0.50000  0.00000  0.50000  1
 Ga  Ga3  1  0.13752  0.27504  0.13752  1
 Ga  Ga4  1  0.50000  0.50000  0.50000  1
 Ga  Ga5  1  0.86248  0.72496  0.86248  1
 Ga  Ga6  1  -0.00000  0.50000  0.50000  1
 N  N1  1  0.73228  0.46456  0.73228  1
 N  N2  1  0.26772  0.53544  0.26772  1
 O  O1  1  0.74020  0.00085  0.74020  1
 O  O2  1  0.74020  0.48039  0.26066  1
 O  O3  1  0.26066  0.00085  0.74020  1
 O  O4  1  0.73934  0.99915  0.25980  1
 O  O5  1  0.25980  0.99915  0.25980  1
 O  O6  1  0.25980  0.51961  0.73934  1
