CIF file written using JARVIS-Tools package.
data_N
_symmetry_space_group_name_H-M  'R-3c'
_cell_length_a       6.8655
_cell_length_b       6.8655
_cell_length_c       6.8655
_cell_angle_alpha    85.4352
_cell_angle_beta     85.4352
_cell_angle_gamma    85.4352

_symmetry_Int_Tables_number  167
_chemical_formula_structural  N
_chemical_formula_sum  N6
_cell_volume  320.6812164398894
_cell_formula_units_Z  16
loop_
  _symmetry_equiv_pos_site_id
 _symmetry_equiv_pos_as_xyz
 1  'x, y, z'
loop_
 _atom_site_type_symbol
 _atom_site_label
 _atom_site_symmetry_multiplicity
 _atom_site_fract_x
 _atom_site_fract_y
 _atom_site_fract_z
 _atom_site_fract_occupancy
 N  N1  1  0.06435  0.54208  0.21947  1
 N  N2  1  0.45792  0.78053  0.93565  1
 N  N3  1  0.21947  0.06435  0.54208  1
 N  N4  1  0.45669  0.45669  0.45669  1
 N  N5  1  0.04208  0.56435  0.71947  1
 N  N6  1  0.28053  0.95792  0.43565  1
 N  N7  1  0.78053  0.93565  0.45792  1
 N  N8  1  0.54331  0.54331  0.54331  1
 N  N9  1  0.95792  0.43565  0.28053  1
 N  N10  1  0.04331  0.04331  0.04331  1
 N  N11  1  0.93565  0.45792  0.78053  1
 N  N12  1  0.95669  0.95669  0.95669  1
 N  N13  1  0.54208  0.21947  0.06435  1
 N  N14  1  0.43565  0.28053  0.95792  1
 N  N15  1  0.71947  0.04208  0.56435  1
 N  N16  1  0.56435  0.71947  0.04208  1
