CIF file written using JARVIS-Tools package.
data_TmGa2
_symmetry_space_group_name_H-M  'Imma'
_cell_length_a       4.17774
_cell_length_b       5.73521
_cell_length_c       5.73521
_cell_angle_alpha    73.4047
_cell_angle_beta     68.6405
_cell_angle_gamma    68.6405

_symmetry_Int_Tables_number  74
_chemical_formula_structural  TmGa2
_chemical_formula_sum  Tm2Ga4
_cell_volume  117.31986873533849
_cell_formula_units_Z  2
loop_
  _symmetry_equiv_pos_site_id
 _symmetry_equiv_pos_as_xyz
 1  'x, y, z'
loop_
 _atom_site_type_symbol
 _atom_site_label
 _atom_site_symmetry_multiplicity
 _atom_site_fract_x
 _atom_site_fract_y
 _atom_site_fract_z
 _atom_site_fract_occupancy
 Ga  Ga1  1  0.34082  0.10753  0.71083  1
 Ga  Ga2  1  0.65918  0.89247  0.28917  1
 Ga  Ga3  1  0.65918  0.28917  0.89247  1
 Ga  Ga4  1  0.34082  0.71083  0.10753  1
 Tm  Tm1  1  0.93698  0.31302  0.31302  1
 Tm  Tm2  1  0.06302  0.68698  0.68698  1
