CIF file written using JARVIS-Tools package.
data_Er3Al2
_symmetry_space_group_name_H-M  'P4_2/mnm'
_cell_length_a       8.13119
_cell_length_b       8.13119
_cell_length_c       7.50015
_cell_angle_alpha    90
_cell_angle_beta     90
_cell_angle_gamma    90

_symmetry_Int_Tables_number  136
_chemical_formula_structural  Er3Al2
_chemical_formula_sum  Er2Al8
_cell_volume  495.8818560391387
_cell_formula_units_Z  4
loop_
  _symmetry_equiv_pos_site_id
 _symmetry_equiv_pos_as_xyz
 1  'x, y, z'
loop_
 _atom_site_type_symbol
 _atom_site_label
 _atom_site_symmetry_multiplicity
 _atom_site_fract_x
 _atom_site_fract_y
 _atom_site_fract_z
 _atom_site_fract_occupancy
 Al  Al1  1  0.61967  0.61967  0.80428  1
 Al  Al2  1  0.11967  0.88033  0.30428  1
 Al  Al3  1  0.61967  0.61967  0.19572  1
 Al  Al4  1  0.11967  0.88033  0.69572  1
 Al  Al5  1  0.88033  0.11967  0.69572  1
 Al  Al6  1  0.38033  0.38033  0.19572  1
 Al  Al7  1  0.38033  0.38033  0.80428  1
 Al  Al8  1  0.88033  0.11967  0.30428  1
 Er  Er1  1  0.64995  0.35005  0.50000  1
 Er  Er2  1  0.50000  0.00000  0.75000  1
 Er  Er3  1  0.50000  0.00000  0.25000  1
 Er  Er4  1  0.14995  0.14995  0.00000  1
 Er  Er5  1  0.20309  0.20309  0.50000  1
 Er  Er6  1  0.35005  0.64995  0.50000  1
 Er  Er7  1  0.85005  0.85005  0.00000  1
 Er  Er8  1  0.29691  0.70309  0.00000  1
 Er  Er9  1  0.79691  0.79691  0.50000  1
 Er  Er10  1  0.70309  0.29691  0.00000  1
 Er  Er11  1  0.00000  0.50000  0.75000  1
 Er  Er12  1  0.00000  0.50000  0.25000  1
