CIF file written using JARVIS-Tools package.
data_CaSmZn2
_symmetry_space_group_name_H-M  'Fm-3m'
_cell_length_a       5.1246
_cell_length_b       5.1246
_cell_length_c       5.1246
_cell_angle_alpha    59.9996
_cell_angle_beta     59.9996
_cell_angle_gamma    59.9996

_symmetry_Int_Tables_number  225
_chemical_formula_structural  CaSmZn2
_chemical_formula_sum  CaSmZn2
_cell_volume  95.16120997561241
_cell_formula_units_Z  1
loop_
  _symmetry_equiv_pos_site_id
 _symmetry_equiv_pos_as_xyz
 1  'x, y, z'
loop_
 _atom_site_type_symbol
 _atom_site_label
 _atom_site_symmetry_multiplicity
 _atom_site_fract_x
 _atom_site_fract_y
 _atom_site_fract_z
 _atom_site_fract_occupancy
 Ca  Ca1  1  0.25000  0.25000  0.25000  1
 Sm  Sm1  1  0.75000  0.75000  0.75000  1
 Zn  Zn1  1  0.99998  0.99998  0.99998  1
 Zn  Zn2  1  0.50002  0.50002  0.50002  1
