CIF file written using JARVIS-Tools package.
data_U6Co12Ge4C
_symmetry_space_group_name_H-M  'Im-3m'
_cell_length_a       7.50285
_cell_length_b       7.50285
_cell_length_c       7.50285
_cell_angle_alpha    109.471
_cell_angle_beta     109.471
_cell_angle_gamma    109.471

_symmetry_Int_Tables_number  229
_chemical_formula_structural  U6Co12Ge4C
_chemical_formula_sum  U6Co2Ge4C
_cell_volume  325.12839441375354
_cell_formula_units_Z  1
loop_
  _symmetry_equiv_pos_site_id
 _symmetry_equiv_pos_as_xyz
 1  'x, y, z'
loop_
 _atom_site_type_symbol
 _atom_site_label
 _atom_site_symmetry_multiplicity
 _atom_site_fract_x
 _atom_site_fract_y
 _atom_site_fract_z
 _atom_site_fract_occupancy
 C  C1  1  0.00000  0.00000  0.00000  1
 Co  Co1  1  0.70062  0.35031  0.35031  1
 Co  Co2  1  0.00000  0.35031  0.64969  1
 Co  Co3  1  0.29938  0.64969  0.64969  1
 Co  Co4  1  -0.00000  0.64969  0.35031  1
 Co  Co5  1  0.35031  0.70062  0.35031  1
 Co  Co6  1  0.35031  0.35031  0.70062  1
 Co  Co7  1  0.35031  0.64969  0.00000  1
 Co  Co8  1  0.64969  -0.00000  0.35031  1
 Co  Co9  1  0.35031  0.00000  0.64969  1
 Co  Co10  1  0.64969  0.29938  0.64969  1
 Co  Co11  1  0.64969  0.35031  -0.00000  1
 Co  Co12  1  0.64969  0.64969  0.29938  1
 Ge  Ge1  1  -0.00000  0.50000  0.00000  1
 Ge  Ge2  1  0.50000  0.50000  0.50000  1
 Ge  Ge3  1  0.00000  0.00000  0.50000  1
 Ge  Ge4  1  0.50000  -0.00000  -0.00000  1
 U  U1  1  0.71939  0.71939  0.00000  1
 U  U2  1  0.71939  0.00000  0.71939  1
 U  U3  1  0.28061  0.28061  0.00000  1
 U  U4  1  0.28061  0.00000  0.28061  1
 U  U5  1  0.00000  0.71939  0.71939  1
 U  U6  1  0.00000  0.28061  0.28061  1
