CIF file written using JARVIS-Tools package.
data_VInPt
_symmetry_space_group_name_H-M  'F-43m'
_cell_length_a       4.32076
_cell_length_b       4.32185
_cell_length_c       4.32164
_cell_angle_alpha    60.0412
_cell_angle_beta     60.0345
_cell_angle_gamma    60.0357

_symmetry_Int_Tables_number  216
_chemical_formula_structural  VInPt
_chemical_formula_sum  VInPt
_cell_volume  57.11211969206646
_cell_formula_units_Z  1
loop_
  _symmetry_equiv_pos_site_id
 _symmetry_equiv_pos_as_xyz
 1  'x, y, z'
loop_
 _atom_site_type_symbol
 _atom_site_label
 _atom_site_symmetry_multiplicity
 _atom_site_fract_x
 _atom_site_fract_y
 _atom_site_fract_z
 _atom_site_fract_occupancy
 In  In1  1  0.00000  0.99983  -0.00014  1
 Pt  Pt1  1  0.50000  0.50006  0.50005  1
 V  V1  1  0.25000  0.25011  0.25009  1
