CIF file written using JARVIS-Tools package.
data_Ca3Cr2Si3O12
_symmetry_space_group_name_H-M  'Ia-3d'
_cell_length_a       10.4408
_cell_length_b       10.4408
_cell_length_c       10.4408
_cell_angle_alpha    109.471
_cell_angle_beta     109.471
_cell_angle_gamma    109.471

_symmetry_Int_Tables_number  230
_chemical_formula_structural  Ca3Cr2Si3O12
_chemical_formula_sum  Ca2Cr8Si2O48
_cell_volume  876.1508696997075
_cell_formula_units_Z  4
loop_
  _symmetry_equiv_pos_site_id
 _symmetry_equiv_pos_as_xyz
 1  'x, y, z'
loop_
 _atom_site_type_symbol
 _atom_site_label
 _atom_site_symmetry_multiplicity
 _atom_site_fract_x
 _atom_site_fract_y
 _atom_site_fract_z
 _atom_site_fract_occupancy
 Ca  Ca1  1  0.37500  0.75000  0.12500  1
 Ca  Ca2  1  0.12500  0.25000  0.37500  1
 Ca  Ca3  1  0.37500  0.12500  0.25000  1
 Ca  Ca4  1  0.12500  0.37500  0.75000  1
 Ca  Ca5  1  0.87500  0.75000  0.62500  1
 Ca  Ca6  1  0.75000  0.12500  0.37500  1
 Ca  Ca7  1  0.25000  0.37500  0.12500  1
 Ca  Ca8  1  0.62500  0.87500  0.75000  1
 Ca  Ca9  1  0.87500  0.62500  0.25000  1
 Ca  Ca10  1  0.25000  0.87500  0.62500  1
 Ca  Ca11  1  0.62500  0.25000  0.87500  1
 Ca  Ca12  1  0.75000  0.62500  0.87500  1
 Cr  Cr1  1  0.00000  0.00000  0.00000  1
 Cr  Cr2  1  0.50000  0.50000  0.00000  1
 Cr  Cr3  1  0.50000  0.00000  0.50000  1
 Cr  Cr4  1  0.00000  0.50000  0.50000  1
 Cr  Cr5  1  0.00000  0.50000  -0.00000  1
 Cr  Cr6  1  0.50000  0.50000  0.50000  1
 Cr  Cr7  1  0.50000  0.00000  0.00000  1
 Cr  Cr8  1  0.00000  0.00000  0.50000  1
 O  O1  1  0.08683  0.88569  0.39422  1
 O  O2  1  0.91317  0.11431  0.60578  1
 O  O3  1  0.60578  0.91317  0.11431  1
 O  O4  1  0.10578  0.99147  0.69261  1
 O  O5  1  0.89422  0.38569  0.58683  1
 O  O6  1  0.00853  0.30739  0.89422  1
 O  O7  1  0.20115  0.58683  0.19261  1
 O  O8  1  0.20115  0.11431  0.00853  1
 O  O9  1  0.58683  0.19261  0.20115  1
 O  O10  1  0.60578  0.19261  0.49147  1
 O  O11  1  0.19261  0.20115  0.58683  1
 O  O12  1  0.11431  0.60578  0.91317  1
 O  O13  1  0.50853  0.61431  0.70115  1
 O  O14  1  0.99147  0.69261  0.10578  1
 O  O15  1  0.69261  0.10578  0.99147  1
 O  O16  1  0.70115  0.69261  0.08683  1
 O  O17  1  0.80739  0.79885  0.41317  1
 O  O18  1  0.39422  0.80739  0.50853  1
 O  O19  1  0.10578  0.61431  0.41317  1
 O  O20  1  0.41317  0.80739  0.79885  1
 O  O21  1  0.79885  0.41317  0.80739  1
 O  O22  1  0.88569  0.39422  0.08683  1
 O  O23  1  0.30739  0.91317  0.29885  1
 O  O24  1  0.70115  0.50853  0.61431  1
 O  O25  1  0.29885  0.30739  0.91317  1
 O  O26  1  0.30739  0.89422  0.00853  1
 O  O27  1  0.38569  0.29885  0.49147  1
 O  O28  1  0.61431  0.70115  0.50853  1
 O  O29  1  0.89422  0.00853  0.30739  1
 O  O30  1  0.88569  0.99147  0.79885  1
 O  O31  1  0.00853  0.20115  0.11431  1
 O  O32  1  0.50853  0.39422  0.80739  1
 O  O33  1  0.91317  0.29885  0.30739  1
 O  O34  1  0.69261  0.08683  0.70115  1
 O  O35  1  0.08683  0.70115  0.69261  1
 O  O36  1  0.99147  0.79885  0.88569  1
 O  O37  1  0.80739  0.50853  0.39422  1
 O  O38  1  0.41317  0.10578  0.61431  1
 O  O39  1  0.49147  0.38569  0.29885  1
 O  O40  1  0.29885  0.49147  0.38569  1
 O  O41  1  0.79885  0.88569  0.99147  1
 O  O42  1  0.19261  0.49147  0.60578  1
 O  O43  1  0.58683  0.89422  0.38569  1
 O  O44  1  0.61431  0.41317  0.10578  1
 O  O45  1  0.49147  0.60578  0.19261  1
 O  O46  1  0.38569  0.58683  0.89422  1
 O  O47  1  0.39422  0.08683  0.88569  1
 O  O48  1  0.11431  0.00853  0.20115  1
 Si  Si1  1  0.25000  0.62500  0.37500  1
 Si  Si2  1  0.75000  0.37500  0.62500  1
 Si  Si3  1  0.62500  0.75000  0.37500  1
 Si  Si4  1  0.12500  0.87500  0.25000  1
 Si  Si5  1  0.37500  0.62500  0.75000  1
 Si  Si6  1  0.12500  0.75000  0.87500  1
 Si  Si7  1  0.87500  0.12500  0.75000  1
 Si  Si8  1  0.62500  0.37500  0.25000  1
 Si  Si9  1  0.37500  0.25000  0.62500  1
 Si  Si10  1  0.75000  0.87500  0.12500  1
 Si  Si11  1  0.25000  0.12500  0.87500  1
 Si  Si12  1  0.87500  0.25000  0.12500  1
