CIF file written using JARVIS-Tools package.
data_KSnSO4F
_symmetry_space_group_name_H-M  'P-1'
_cell_length_a       6.04547
_cell_length_b       7.12111
_cell_length_c       7.15081
_cell_angle_alpha    107.429
_cell_angle_beta     101.873
_cell_angle_gamma    109.584

_symmetry_Int_Tables_number  2
_chemical_formula_structural  KSnSO4F
_chemical_formula_sum  K2Sn2S2O8F2
_cell_volume  260.1785829872463
_cell_formula_units_Z  2
loop_
  _symmetry_equiv_pos_site_id
 _symmetry_equiv_pos_as_xyz
 1  'x, y, z'
loop_
 _atom_site_type_symbol
 _atom_site_label
 _atom_site_symmetry_multiplicity
 _atom_site_fract_x
 _atom_site_fract_y
 _atom_site_fract_z
 _atom_site_fract_occupancy
 F  F1  1  0.23317  0.02532  0.02410  1
 F  F2  1  0.76683  0.97468  0.97590  1
 K  K1  1  0.69008  0.33874  0.13060  1
 K  K2  1  0.30992  0.66126  0.86940  1
 O  O1  1  0.52233  0.64539  0.24951  1
 O  O2  1  0.47767  0.35461  0.75049  1
 O  O3  1  0.18276  0.42381  0.33582  1
 O  O4  1  0.14665  0.70614  0.23084  1
 O  O5  1  0.55371  0.19877  0.43161  1
 O  O6  1  0.44629  0.80123  0.56839  1
 O  O7  1  0.81724  0.57619  0.66418  1
 O  O8  1  0.85335  0.29386  0.76916  1
 S  S1  1  0.67252  0.35727  0.65663  1
 S  S2  1  0.32748  0.64273  0.34337  1
 Sn  Sn1  1  0.87785  0.94592  0.70751  1
 Sn  Sn2  1  0.12215  0.05408  0.29249  1
