CIF file written using JARVIS-Tools package.
data_LiCo6P4
_symmetry_space_group_name_H-M  'P-6m2'
_cell_length_a       6.56734
_cell_length_b       6.56734
_cell_length_c       3.33426
_cell_angle_alpha    90
_cell_angle_beta     90
_cell_angle_gamma    120

_symmetry_Int_Tables_number  187
_chemical_formula_structural  LiCo6P4
_chemical_formula_sum  LiCo6P4
_cell_volume  124.53991061395647
_cell_formula_units_Z  1
loop_
  _symmetry_equiv_pos_site_id
 _symmetry_equiv_pos_as_xyz
 1  'x, y, z'
loop_
 _atom_site_type_symbol
 _atom_site_label
 _atom_site_symmetry_multiplicity
 _atom_site_fract_x
 _atom_site_fract_y
 _atom_site_fract_z
 _atom_site_fract_occupancy
 Co  Co1  1  0.19970  0.80030  0.50000  1
 Co  Co2  1  0.19970  0.39939  0.50000  1
 Co  Co3  1  0.53628  0.07257  0.00000  1
 Co  Co4  1  0.92743  0.46372  0.00000  1
 Co  Co5  1  0.53628  0.46372  0.00000  1
 Co  Co6  1  0.60061  0.80030  0.50000  1
 Li  Li1  1  0.00000  0.00000  0.00000  1
 P  P1  1  0.81761  0.18239  0.50000  1
 P  P2  1  0.36477  0.18239  0.50000  1
 P  P3  1  0.33333  0.66667  0.00000  1
 P  P4  1  0.81761  0.63523  0.50000  1
