CIF file written using JARVIS-Tools package.
data_TeMo2Se2S
_symmetry_space_group_name_H-M  'P3m1'
_cell_length_a       3.34962
_cell_length_b       3.34963
_cell_length_c       26.5604
_cell_angle_alpha    90.0009
_cell_angle_beta     90.0031
_cell_angle_gamma    120

_symmetry_Int_Tables_number  156
_chemical_formula_structural  TeMo2Se2S
_chemical_formula_sum  Te2Mo4Se4S2
_cell_volume  258.0813527517667
_cell_formula_units_Z  2
loop_
  _symmetry_equiv_pos_site_id
 _symmetry_equiv_pos_as_xyz
 1  'x, y, z'
loop_
 _atom_site_type_symbol
 _atom_site_label
 _atom_site_symmetry_multiplicity
 _atom_site_fract_x
 _atom_site_fract_y
 _atom_site_fract_z
 _atom_site_fract_occupancy
 Mo  Mo1  1  0.33397  0.66730  0.00797  1
 Mo  Mo2  1  0.33276  0.66595  0.49330  1
 Mo  Mo3  1  0.66748  0.33395  0.24624  1
 Mo  Mo4  1  0.66580  0.33281  0.75540  1
 S  S1  1  0.66725  0.33393  0.95085  1
 S  S2  1  0.66735  0.33400  0.06509  1
 Se  Se1  1  0.33419  0.66730  0.30894  1
 Se  Se2  1  0.66605  0.33259  0.43056  1
 Se  Se3  1  0.66614  0.33264  0.55604  1
 Se  Se4  1  0.33410  0.66725  0.18351  1
 Te  Te1  1  0.33253  0.66619  0.82701  1
 Te  Te2  1  0.33239  0.66610  0.68383  1
