CIF file written using JARVIS-Tools package.
data_CeAs12Ru4
_symmetry_space_group_name_H-M  'Im-3'
_cell_length_a       7.45679
_cell_length_b       7.45679
_cell_length_c       7.45679
_cell_angle_alpha    109.471
_cell_angle_beta     109.471
_cell_angle_gamma    109.471

_symmetry_Int_Tables_number  204
_chemical_formula_structural  CeAs12Ru4
_chemical_formula_sum  CeAs2Ru4
_cell_volume  319.17842019372836
_cell_formula_units_Z  1
loop_
  _symmetry_equiv_pos_site_id
 _symmetry_equiv_pos_as_xyz
 1  'x, y, z'
loop_
 _atom_site_type_symbol
 _atom_site_label
 _atom_site_symmetry_multiplicity
 _atom_site_fract_x
 _atom_site_fract_y
 _atom_site_fract_z
 _atom_site_fract_occupancy
 As  As1  1  0.85037  0.34612  0.19649  1
 As  As2  1  0.19649  0.85037  0.34612  1
 As  As3  1  0.80351  0.14963  0.65388  1
 As  As4  1  0.49575  0.14963  0.34612  1
 As  As5  1  0.50425  0.85037  0.65388  1
 As  As6  1  0.65388  0.80351  0.14963  1
 As  As7  1  0.34612  0.19649  0.85037  1
 As  As8  1  0.65388  0.50425  0.85037  1
 As  As9  1  0.34612  0.49575  0.14963  1
 As  As10  1  0.14963  0.65388  0.80351  1
 As  As11  1  0.14963  0.34612  0.49575  1
 As  As12  1  0.85037  0.65388  0.50425  1
 Ce  Ce1  1  0.00000  0.00000  0.00000  1
 Ru  Ru1  1  -0.00000  0.50000  0.00000  1
 Ru  Ru2  1  0.50000  0.50000  0.50000  1
 Ru  Ru3  1  0.50000  -0.00000  -0.00000  1
 Ru  Ru4  1  0.00000  0.00000  0.50000  1
