CIF file written using JARVIS-Tools package.
data_Mo3Se2S4
_symmetry_space_group_name_H-M  'P-6m2'
_cell_length_a       3.23397
_cell_length_b       3.23396
_cell_length_c       27.81
_cell_angle_alpha    90
_cell_angle_beta     90
_cell_angle_gamma    120

_symmetry_Int_Tables_number  187
_chemical_formula_structural  Mo3Se2S4
_chemical_formula_sum  Mo3Se2S4
_cell_volume  251.88551374700674
_cell_formula_units_Z  1
loop_
  _symmetry_equiv_pos_site_id
 _symmetry_equiv_pos_as_xyz
 1  'x, y, z'
loop_
 _atom_site_type_symbol
 _atom_site_label
 _atom_site_symmetry_multiplicity
 _atom_site_fract_x
 _atom_site_fract_y
 _atom_site_fract_z
 _atom_site_fract_occupancy
 Mo  Mo1  1  0.33333  0.66665  0.11561  1
 Mo  Mo2  1  0.33333  0.66665  0.57836  1
 Mo  Mo3  1  0.66666  0.33332  0.34698  1
 S  S1  1  0.66667  0.33333  0.05981  1
 S  S2  1  0.66665  0.33330  0.52248  1
 S  S3  1  0.66665  0.33330  0.17148  1
 S  S4  1  0.66667  0.33333  0.63416  1
 Se  Se1  1  0.33333  0.66666  0.40836  1
 Se  Se2  1  0.33333  0.66666  0.28561  1
