CIF file written using JARVIS-Tools package.
data_LiVAsO5
_symmetry_space_group_name_H-M  'Pnma'
_cell_length_a       6.54852
_cell_length_b       7.48684
_cell_length_c       7.54703
_cell_angle_alpha    90
_cell_angle_beta     90
_cell_angle_gamma    90

_symmetry_Int_Tables_number  62
_chemical_formula_structural  LiVAsO5
_chemical_formula_sum  Li4V4As4O20
_cell_volume  370.013749170309
_cell_formula_units_Z  4
loop_
  _symmetry_equiv_pos_site_id
 _symmetry_equiv_pos_as_xyz
 1  'x, y, z'
loop_
 _atom_site_type_symbol
 _atom_site_label
 _atom_site_symmetry_multiplicity
 _atom_site_fract_x
 _atom_site_fract_y
 _atom_site_fract_z
 _atom_site_fract_occupancy
 As  As1  1  0.75000  0.12669  0.37223  1
 As  As2  1  0.25000  0.87331  0.62777  1
 As  As3  1  0.25000  0.37331  0.87223  1
 As  As4  1  0.75000  0.62669  0.12777  1
 Li  Li1  1  0.00000  0.00000  0.00000  1
 Li  Li2  1  0.50000  0.50000  0.50000  1
 Li  Li3  1  0.00000  0.50000  0.50000  1
 Li  Li4  1  0.50000  0.00000  0.00000  1
 O  O1  1  0.04180  0.37396  0.73170  1
 O  O2  1  0.54180  0.62604  0.26830  1
 O  O3  1  0.25000  0.56612  0.99555  1
 O  O4  1  0.75000  0.11778  0.82255  1
 O  O5  1  0.45820  0.87396  0.76830  1
 O  O6  1  0.95820  0.62604  0.26830  1
 O  O7  1  0.45820  0.37396  0.73170  1
 O  O8  1  0.04180  0.87396  0.76830  1
 O  O9  1  0.95820  0.12604  0.23170  1
 O  O10  1  0.25000  0.18050  -0.00121  1
 O  O11  1  0.25000  0.38222  0.32255  1
 O  O12  1  0.25000  0.68050  0.50121  1
 O  O13  1  0.75000  0.81950  0.00121  1
 O  O14  1  0.75000  0.43388  0.00446  1
 O  O15  1  0.25000  0.88222  0.17745  1
 O  O16  1  0.75000  0.93388  0.49554  1
 O  O17  1  0.25000  0.06612  0.50445  1
 O  O18  1  0.75000  0.61778  0.67745  1
 O  O19  1  0.54180  0.12604  0.23170  1
 O  O20  1  0.75000  0.31950  0.49879  1
 V  V1  1  0.75000  0.33658  0.77261  1
 V  V2  1  0.25000  0.16342  0.27261  1
 V  V3  1  0.75000  0.83658  0.72739  1
 V  V4  1  0.25000  0.66342  0.22739  1
