CIF file written using JARVIS-Tools package.
data_Ac2Mg
_symmetry_space_group_name_H-M  'I4/mmm'
_cell_length_a       4.06999
_cell_length_b       4.06999
_cell_length_c       7.51114
_cell_angle_alpha    105.721
_cell_angle_beta     105.721
_cell_angle_gamma    89.9958

_symmetry_Int_Tables_number  139
_chemical_formula_structural  Ac2Mg
_chemical_formula_sum  Ac2Mg
_cell_volume  114.92447377643921
_cell_formula_units_Z  1
loop_
  _symmetry_equiv_pos_site_id
 _symmetry_equiv_pos_as_xyz
 1  'x, y, z'
loop_
 _atom_site_type_symbol
 _atom_site_label
 _atom_site_symmetry_multiplicity
 _atom_site_fract_x
 _atom_site_fract_y
 _atom_site_fract_z
 _atom_site_fract_occupancy
 Ac  Ac1  1  0.09816  0.09816  0.02965  1
 Ac  Ac2  1  0.40184  0.40184  0.63702  1
 Mg  Mg1  1  0.75000  0.75000  0.33333  1
