CIF file written using JARVIS-Tools package.
data_VRu3
_symmetry_space_group_name_H-M  'P6_3/mmc'
_cell_length_a       5.45455
_cell_length_b       5.45455
_cell_length_c       4.26087
_cell_angle_alpha    90
_cell_angle_beta     90
_cell_angle_gamma    120

_symmetry_Int_Tables_number  194
_chemical_formula_structural  VRu3
_chemical_formula_sum  V2Ru6
_cell_volume  109.78597754468983
_cell_formula_units_Z  2
loop_
  _symmetry_equiv_pos_site_id
 _symmetry_equiv_pos_as_xyz
 1  'x, y, z'
loop_
 _atom_site_type_symbol
 _atom_site_label
 _atom_site_symmetry_multiplicity
 _atom_site_fract_x
 _atom_site_fract_y
 _atom_site_fract_z
 _atom_site_fract_occupancy
 Ru  Ru1  1  0.83056  0.16944  0.25000  1
 Ru  Ru2  1  0.83056  0.66112  0.25000  1
 Ru  Ru3  1  0.33888  0.16944  0.25000  1
 Ru  Ru4  1  0.16944  0.83056  0.75000  1
 Ru  Ru5  1  0.16944  0.33888  0.75000  1
 Ru  Ru6  1  0.66112  0.83056  0.75000  1
 V  V1  1  0.66667  0.33333  0.75000  1
 V  V2  1  0.33333  0.66667  0.25000  1
