CIF file written using JARVIS-Tools package.
data_B
_symmetry_space_group_name_H-M  'R-3m'
_cell_length_a       5.04734
_cell_length_b       5.04734
_cell_length_c       5.04734
_cell_angle_alpha    58.2074
_cell_angle_beta     58.2074
_cell_angle_gamma    58.2074

_symmetry_Int_Tables_number  166
_chemical_formula_structural  B
_chemical_formula_sum  B2
_cell_volume  87.1879786925075
_cell_formula_units_Z  12
loop_
  _symmetry_equiv_pos_site_id
 _symmetry_equiv_pos_as_xyz
 1  'x, y, z'
loop_
 _atom_site_type_symbol
 _atom_site_label
 _atom_site_symmetry_multiplicity
 _atom_site_fract_x
 _atom_site_fract_y
 _atom_site_fract_z
 _atom_site_fract_occupancy
 B  B1  1  0.00980  0.65447  0.00980  1
 B  B2  1  0.00980  0.00980  0.65447  1
 B  B3  1  0.65447  0.00980  0.00980  1
 B  B4  1  0.34553  0.99020  0.99020  1
 B  B5  1  0.99020  0.34553  0.99020  1
 B  B6  1  0.99020  0.99020  0.34553  1
 B  B7  1  0.22064  0.63159  0.22064  1
 B  B8  1  0.22064  0.22064  0.63159  1
 B  B9  1  0.63159  0.22064  0.22064  1
 B  B10  1  0.36841  0.77936  0.77936  1
 B  B11  1  0.77936  0.36841  0.77936  1
 B  B12  1  0.77936  0.77936  0.36841  1
