CIF file written using JARVIS-Tools package.
data_Te
_symmetry_space_group_name_H-M  'Cmmm'
_cell_length_a       3.10045
_cell_length_b       4.99018
_cell_length_c       4.99019
_cell_angle_alpha    74.4207
_cell_angle_beta     71.9013
_cell_angle_gamma    71.9013

_symmetry_Int_Tables_number  65
_chemical_formula_structural  Te
_chemical_formula_sum  Te2
_cell_volume  68.47955056362714
_cell_formula_units_Z  2
loop_
  _symmetry_equiv_pos_site_id
 _symmetry_equiv_pos_as_xyz
 1  'x, y, z'
loop_
 _atom_site_type_symbol
 _atom_site_label
 _atom_site_symmetry_multiplicity
 _atom_site_fract_x
 _atom_site_fract_y
 _atom_site_fract_z
 _atom_site_fract_occupancy
 Te  Te1  1  0.50024  0.25000  0.25000  1
 Te  Te2  1  0.49976  0.75000  0.75000  1
