CIF file written using JARVIS-Tools package.
data_ScNbO4
_symmetry_space_group_name_H-M  'P2/c'
_cell_length_a       4.85702
_cell_length_b       5.75379
_cell_length_c       5.14367
_cell_angle_alpha    90
_cell_angle_beta     90.8078
_cell_angle_gamma    90

_symmetry_Int_Tables_number  13
_chemical_formula_structural  ScNbO4
_chemical_formula_sum  Sc2Nb2O8
_cell_volume  143.7321900603601
_cell_formula_units_Z  2
loop_
  _symmetry_equiv_pos_site_id
 _symmetry_equiv_pos_as_xyz
 1  'x, y, z'
loop_
 _atom_site_type_symbol
 _atom_site_label
 _atom_site_symmetry_multiplicity
 _atom_site_fract_x
 _atom_site_fract_y
 _atom_site_fract_z
 _atom_site_fract_occupancy
 Nb  Nb1  1  -0.00000  0.81565  0.75000  1
 Nb  Nb2  1  0.00000  0.18435  0.25000  1
 O  O1  1  0.22018  0.89329  0.43484  1
 O  O2  1  0.77982  0.89329  0.06516  1
 O  O3  1  0.22018  0.10671  0.93484  1
 O  O4  1  0.73458  0.38711  0.09077  1
 O  O5  1  0.26542  0.61289  0.90923  1
 O  O6  1  0.77982  0.10671  0.56516  1
 O  O7  1  0.73458  0.61289  0.59077  1
 O  O8  1  0.26542  0.38711  0.40923  1
 Sc  Sc1  1  0.50000  0.68083  0.25000  1
 Sc  Sc2  1  0.50000  0.31917  0.75000  1
