CIF file written using JARVIS-Tools package.
data_Te2Mo2WS4
_symmetry_space_group_name_H-M  'R3m'
_cell_length_a       3.30911
_cell_length_b       3.30906
_cell_length_c       20.0118
_cell_angle_alpha    99.5334
_cell_angle_beta     90
_cell_angle_gamma    120.001

_symmetry_Int_Tables_number  160
_chemical_formula_structural  Te2Mo2WS4
_chemical_formula_sum  Te2Mo2WS4
_cell_volume  186.26892611068862
_cell_formula_units_Z  1
loop_
  _symmetry_equiv_pos_site_id
 _symmetry_equiv_pos_as_xyz
 1  'x, y, z'
loop_
 _atom_site_type_symbol
 _atom_site_label
 _atom_site_symmetry_multiplicity
 _atom_site_fract_x
 _atom_site_fract_y
 _atom_site_fract_z
 _atom_site_fract_occupancy
 Mo  Mo1  1  0.34006  0.68012  0.02413  1
 Mo  Mo2  1  0.44485  0.88970  0.68115  1
 S  S1  1  0.26735  0.53470  0.41396  1
 S  S2  1  0.62140  0.24279  0.94628  1
 S  S3  1  0.72533  0.45066  0.10190  1
 S  S4  1  0.16286  0.32573  0.25749  1
 Te  Te1  1  0.71290  0.42580  0.58341  1
 Te  Te2  1  0.84346  0.68692  0.77886  1
 W  W1  1  0.54838  0.09677  0.33565  1
