CIF file written using JARVIS-Tools package.
data_K4SnSb2F14
_symmetry_space_group_name_H-M  'P-1'
_cell_length_a       6.7149
_cell_length_b       7.45381
_cell_length_c       7.60588
_cell_angle_alpha    92.7092
_cell_angle_beta     91.7518
_cell_angle_gamma    115.478

_symmetry_Int_Tables_number  2
_chemical_formula_structural  K4SnSb2F14
_chemical_formula_sum  K4SnSb2F4
_cell_volume  342.73250749746194
_cell_formula_units_Z  1
loop_
  _symmetry_equiv_pos_site_id
 _symmetry_equiv_pos_as_xyz
 1  'x, y, z'
loop_
 _atom_site_type_symbol
 _atom_site_label
 _atom_site_symmetry_multiplicity
 _atom_site_fract_x
 _atom_site_fract_y
 _atom_site_fract_z
 _atom_site_fract_occupancy
 F  F1  1  0.08019  0.62696  0.67213  1
 F  F2  1  0.91981  0.37304  0.32787  1
 F  F3  1  0.28545  0.11321  0.87749  1
 F  F4  1  0.42908  0.65752  0.48099  1
 F  F5  1  0.72136  0.05708  0.50982  1
 F  F6  1  0.94737  0.23557  0.93662  1
 F  F7  1  0.71455  0.88679  0.12251  1
 F  F8  1  0.05263  0.76443  0.06338  1
 F  F9  1  0.84525  0.85760  0.77039  1
 F  F10  1  0.27864  0.94292  0.49018  1
 F  F11  1  0.57092  0.34248  0.51901  1
 F  F12  1  0.40529  0.57369  0.81846  1
 F  F13  1  0.59471  0.42631  0.18154  1
 F  F14  1  0.15475  0.14240  0.22961  1
 K  K1  1  0.14809  0.26979  0.58673  1
 K  K2  1  0.71746  0.44680  0.85492  1
 K  K3  1  0.85191  0.73021  0.41327  1
 K  K4  1  0.28254  0.55320  0.14508  1
 Sb  Sb1  1  0.59724  0.18283  0.31147  1
 Sb  Sb2  1  0.40276  0.81717  0.68853  1
 Sn  Sn1  1  0.00000  0.00000  0.00000  1
