CIF file written using JARVIS-Tools package.
data_NaScAs2O7
_symmetry_space_group_name_H-M  'C2'
_cell_length_a       4.87523
_cell_length_b       5.63028
_cell_length_c       5.63026
_cell_angle_alpha    102.81
_cell_angle_beta     97.4109
_cell_angle_gamma    97.4103

_symmetry_Int_Tables_number  5
_chemical_formula_structural  NaScAs2O7
_chemical_formula_sum  NaScAs2O7
_cell_volume  147.44193210255142
_cell_formula_units_Z  1
loop_
  _symmetry_equiv_pos_site_id
 _symmetry_equiv_pos_as_xyz
 1  'x, y, z'
loop_
 _atom_site_type_symbol
 _atom_site_label
 _atom_site_symmetry_multiplicity
 _atom_site_fract_x
 _atom_site_fract_y
 _atom_site_fract_z
 _atom_site_fract_occupancy
 As  As1  1  0.08540  0.74706  0.82182  1
 As  As2  1  0.91460  0.17818  0.25294  1
 Na  Na1  1  0.50000  0.24524  0.75475  1
 O  O1  1  0.24724  0.62348  0.03874  1
 O  O2  1  0.77781  0.57111  0.66995  1
 O  O3  1  0.30495  0.83882  0.63599  1
 O  O4  1  0.75275  0.96127  0.37653  1
 O  O5  1  -0.00000  0.04223  0.95777  1
 O  O6  1  0.69505  0.36401  0.16118  1
 O  O7  1  0.22219  0.33005  0.42890  1
 Sc  Sc1  1  0.50000  0.63179  0.36821  1
