CIF file written using JARVIS-Tools package.
data_Yb
_symmetry_space_group_name_H-M  'R-3m'
_cell_length_a       3.76654
_cell_length_b       3.76654
_cell_length_c       9.49308
_cell_angle_alpha    78.5581
_cell_angle_beta     101.442
_cell_angle_gamma    120

_symmetry_Int_Tables_number  166
_chemical_formula_structural  Yb
_chemical_formula_sum  Yb3
_cell_volume  113.53229746767182
_cell_formula_units_Z  3
loop_
  _symmetry_equiv_pos_site_id
 _symmetry_equiv_pos_as_xyz
 1  'x, y, z'
loop_
 _atom_site_type_symbol
 _atom_site_label
 _atom_site_symmetry_multiplicity
 _atom_site_fract_x
 _atom_site_fract_y
 _atom_site_fract_z
 _atom_site_fract_occupancy
 Yb  Yb1  1  0.00000  0.00000  0.00000  1
 Yb  Yb2  1  0.77760  0.22240  0.33279  1
 Yb  Yb3  1  0.22240  0.77760  0.66721  1
