CIF file written using JARVIS-Tools package.
data_MoW3Se2S6
_symmetry_space_group_name_H-M  'P3m1'
_cell_length_a       3.23371
_cell_length_b       3.2338
_cell_length_c       36.0966
_cell_angle_alpha    89.9996
_cell_angle_beta     90
_cell_angle_gamma    119.999

_symmetry_Int_Tables_number  156
_chemical_formula_structural  MoW3Se2S6
_chemical_formula_sum  MoW3Se2S6
_cell_volume  326.9003350606556
_cell_formula_units_Z  1
loop_
  _symmetry_equiv_pos_site_id
 _symmetry_equiv_pos_as_xyz
 1  'x, y, z'
loop_
 _atom_site_type_symbol
 _atom_site_label
 _atom_site_symmetry_multiplicity
 _atom_site_fract_x
 _atom_site_fract_y
 _atom_site_fract_z
 _atom_site_fract_occupancy
 Mo  Mo1  1  0.66669  0.33338  0.28174  1
 S  S1  1  0.33335  0.66671  0.32489  1
 S  S2  1  0.33335  0.66671  0.70062  1
 S  S3  1  0.66664  0.33329  0.05086  1
 S  S4  1  0.66665  0.33329  0.13737  1
 S  S5  1  0.33335  0.66671  0.23867  1
 S  S6  1  0.33335  0.66671  0.61411  1
 Se  Se1  1  0.66665  0.33329  0.42197  1
 Se  Se2  1  0.66665  0.33329  0.51731  1
 W  W1  1  0.33330  0.66661  0.09394  1
 W  W2  1  0.33332  0.66663  0.46967  1
 W  W3  1  0.66669  0.33338  0.65759  1
