CIF file written using JARVIS-Tools package.
data_LiAgF4
_symmetry_space_group_name_H-M  'P-1'
_cell_length_a       3.52695
_cell_length_b       4.63482
_cell_length_c       4.63712
_cell_angle_alpha    87.1535
_cell_angle_beta     84.0241
_cell_angle_gamma    83.9468

_symmetry_Int_Tables_number  2
_chemical_formula_structural  LiAgF4
_chemical_formula_sum  LiAgF4
_cell_volume  74.91228956620881
_cell_formula_units_Z  1
loop_
  _symmetry_equiv_pos_site_id
 _symmetry_equiv_pos_as_xyz
 1  'x, y, z'
loop_
 _atom_site_type_symbol
 _atom_site_label
 _atom_site_symmetry_multiplicity
 _atom_site_fract_x
 _atom_site_fract_y
 _atom_site_fract_z
 _atom_site_fract_occupancy
 Ag  Ag1  1  0.50000  0.50000  0.50000  1
 F  F1  1  0.94357  0.28875  0.29092  1
 F  F2  1  0.50032  0.80397  0.19416  1
 F  F3  1  0.49968  0.19603  0.80584  1
 F  F4  1  0.05643  0.71125  0.70908  1
 Li  Li1  1  0.00000  0.00000  0.00000  1
