CIF file written using JARVIS-Tools package.
data_BaZnBi2
_symmetry_space_group_name_H-M  'I4/mmm'
_cell_length_a       4.70149
_cell_length_b       4.70149
_cell_length_c       12.2847
_cell_angle_alpha    101.032
_cell_angle_beta     101.032
_cell_angle_gamma    90

_symmetry_Int_Tables_number  139
_chemical_formula_structural  BaZnBi2
_chemical_formula_sum  Ba2Zn2Bi4
_cell_volume  261.40877679131415
_cell_formula_units_Z  2
loop_
  _symmetry_equiv_pos_site_id
 _symmetry_equiv_pos_as_xyz
 1  'x, y, z'
loop_
 _atom_site_type_symbol
 _atom_site_label
 _atom_site_symmetry_multiplicity
 _atom_site_fract_x
 _atom_site_fract_y
 _atom_site_fract_z
 _atom_site_fract_occupancy
 Ba  Ba1  1  0.87901  0.87901  0.75803  1
 Ba  Ba2  1  0.12099  0.12099  0.24197  1
 Bi  Bi1  1  0.00000  0.50000  -0.00000  1
 Bi  Bi2  1  0.67811  0.67811  0.35622  1
 Bi  Bi3  1  0.50000  0.00000  -0.00000  1
 Bi  Bi4  1  0.32189  0.32189  0.64378  1
 Zn  Zn1  1  0.25000  0.75000  0.50000  1
 Zn  Zn2  1  0.75000  0.25000  0.50000  1
