CIF file written using JARVIS-Tools package.
data_VTe2
_symmetry_space_group_name_H-M  'P-3m1'
_cell_length_a       3.62457
_cell_length_b       3.62454
_cell_length_c       6.73783
_cell_angle_alpha    90.0041
_cell_angle_beta     89.9884
_cell_angle_gamma    120

_symmetry_Int_Tables_number  164
_chemical_formula_structural  VTe2
_chemical_formula_sum  VTe2
_cell_volume  76.65879268159003
_cell_formula_units_Z  1
loop_
  _symmetry_equiv_pos_site_id
 _symmetry_equiv_pos_as_xyz
 1  'x, y, z'
loop_
 _atom_site_type_symbol
 _atom_site_label
 _atom_site_symmetry_multiplicity
 _atom_site_fract_x
 _atom_site_fract_y
 _atom_site_fract_z
 _atom_site_fract_occupancy
 Te  Te1  1  0.66673  0.33334  0.74604  1
 Te  Te2  1  0.33327  0.66666  0.25396  1
 V  V1  1  0.00000  0.00000  0.00000  1
