CIF file written using JARVIS-Tools package.
data_Na2LiBe2F7
_symmetry_space_group_name_H-M  'P-42_1m'
_cell_length_a       7.60002
_cell_length_b       7.60002
_cell_length_c       4.83178
_cell_angle_alpha    90
_cell_angle_beta     90
_cell_angle_gamma    90

_symmetry_Int_Tables_number  113
_chemical_formula_structural  Na2LiBe2F7
_chemical_formula_sum  Na4Li2Be4F4
_cell_volume  279.0851099813475
_cell_formula_units_Z  2
loop_
  _symmetry_equiv_pos_site_id
 _symmetry_equiv_pos_as_xyz
 1  'x, y, z'
loop_
 _atom_site_type_symbol
 _atom_site_label
 _atom_site_symmetry_multiplicity
 _atom_site_fract_x
 _atom_site_fract_y
 _atom_site_fract_z
 _atom_site_fract_occupancy
 Be  Be1  1  0.85831  0.35831  0.93180  1
 Be  Be2  1  0.35831  0.14169  0.06820  1
 Be  Be3  1  0.14169  0.64169  0.93180  1
 Be  Be4  1  0.64169  0.85831  0.06820  1
 F  F1  1  0.08371  0.81718  0.79270  1
 F  F2  1  0.58371  0.68282  0.20730  1
 F  F3  1  0.81718  0.91629  0.20730  1
 F  F4  1  0.31718  0.58371  0.79270  1
 F  F5  1  0.68282  0.41629  0.79270  1
 F  F6  1  0.00000  0.50000  0.81955  1
 F  F7  1  0.41629  0.31718  0.20730  1
 F  F8  1  0.35807  0.14193  0.75083  1
 F  F9  1  0.85807  0.35807  0.24917  1
 F  F10  1  0.91629  0.18282  0.79270  1
 F  F11  1  0.64193  0.85807  0.75083  1
 F  F12  1  0.50000  0.00000  0.18045  1
 F  F13  1  0.18282  0.08371  0.20730  1
 F  F14  1  0.14193  0.64193  0.24917  1
 Li  Li1  1  0.00000  0.00000  0.00000  1
 Li  Li2  1  0.50000  0.50000  0.00000  1
 Na  Na1  1  0.16514  0.33486  0.49270  1
 Na  Na2  1  0.66514  0.16514  0.50730  1
 Na  Na3  1  0.33486  0.83486  0.50730  1
 Na  Na4  1  0.83486  0.66514  0.49270  1
