CIF file written using JARVIS-Tools package.
data_ScSi3Ni
_symmetry_space_group_name_H-M  'Cmmm'
_cell_length_a       3.85181
_cell_length_b       3.8739
_cell_length_c       10.5676
_cell_angle_alpha    100.561
_cell_angle_beta     90
_cell_angle_gamma    90

_symmetry_Int_Tables_number  65
_chemical_formula_structural  ScSi3Ni
_chemical_formula_sum  Sc2Si6Ni2
_cell_volume  155.01291404641546
_cell_formula_units_Z  2
loop_
  _symmetry_equiv_pos_site_id
 _symmetry_equiv_pos_as_xyz
 1  'x, y, z'
loop_
 _atom_site_type_symbol
 _atom_site_label
 _atom_site_symmetry_multiplicity
 _atom_site_fract_x
 _atom_site_fract_y
 _atom_site_fract_z
 _atom_site_fract_occupancy
 Ni  Ni1  1  0.50000  0.38323  0.76646  1
 Ni  Ni2  1  0.50000  0.60809  0.21619  1
 Sc  Sc1  1  0.00000  0.82584  0.65168  1
 Sc  Sc2  1  0.00000  0.16549  0.33097  1
 Si  Si1  1  0.50000  0.27738  0.55476  1
 Si  Si2  1  0.00000  0.55269  0.10538  1
 Si  Si3  1  0.50000  0.71394  0.42788  1
 Si  Si4  1  0.00000  0.43863  0.87726  1
 Si  Si5  1  0.50000  0.05289  0.10579  1
 Si  Si6  1  0.50000  0.93842  0.87684  1
