CIF file written using JARVIS-Tools package.
data_Ta5Si3
_symmetry_space_group_name_H-M  'P6_3/mcm'
_cell_length_a       7.54301
_cell_length_b       7.54301
_cell_length_c       5.28204
_cell_angle_alpha    90
_cell_angle_beta     90
_cell_angle_gamma    120

_symmetry_Int_Tables_number  193
_chemical_formula_structural  Ta5Si3
_chemical_formula_sum  Ta0Si6
_cell_volume  260.26859271502025
_cell_formula_units_Z  2
loop_
  _symmetry_equiv_pos_site_id
 _symmetry_equiv_pos_as_xyz
 1  'x, y, z'
loop_
 _atom_site_type_symbol
 _atom_site_label
 _atom_site_symmetry_multiplicity
 _atom_site_fract_x
 _atom_site_fract_y
 _atom_site_fract_z
 _atom_site_fract_occupancy
 Si  Si1  1  0.39556  0.39556  0.25000  1
 Si  Si2  1  0.39556  0.00000  0.75000  1
 Si  Si3  1  0.00000  0.39556  0.75000  1
 Si  Si4  1  -0.00000  0.60444  0.25000  1
 Si  Si5  1  0.60444  -0.00000  0.25000  1
 Si  Si6  1  0.60444  0.60444  0.75000  1
 Ta  Ta1  1  0.00000  0.24384  0.25000  1
 Ta  Ta2  1  -0.00000  0.75616  0.75000  1
 Ta  Ta3  1  0.75616  -0.00000  0.75000  1
 Ta  Ta4  1  0.75616  0.75616  0.25000  1
 Ta  Ta5  1  0.24384  0.00000  0.25000  1
 Ta  Ta6  1  0.24384  0.24384  0.75000  1
 Ta  Ta7  1  0.33333  0.66667  0.50000  1
 Ta  Ta8  1  0.66667  0.33333  0.00000  1
 Ta  Ta9  1  0.66667  0.33333  0.50000  1
 Ta  Ta10  1  0.33333  0.66667  0.00000  1
