CIF file written using JARVIS-Tools package.
data_PuGe2
_symmetry_space_group_name_H-M  'I4_1/amd'
_cell_length_a       4.00235
_cell_length_b       4.00235
_cell_length_c       8.64913
_cell_angle_alpha    103.378
_cell_angle_beta     103.378
_cell_angle_gamma    89.9999

_symmetry_Int_Tables_number  141
_chemical_formula_structural  PuGe2
_chemical_formula_sum  Pu2Ge4
_cell_volume  130.9223227688847
_cell_formula_units_Z  2
loop_
  _symmetry_equiv_pos_site_id
 _symmetry_equiv_pos_as_xyz
 1  'x, y, z'
loop_
 _atom_site_type_symbol
 _atom_site_label
 _atom_site_symmetry_multiplicity
 _atom_site_fract_x
 _atom_site_fract_y
 _atom_site_fract_z
 _atom_site_fract_occupancy
 Ge  Ge1  1  0.20425  0.45425  0.90851  1
 Ge  Ge2  1  0.95425  0.70425  0.40851  1
 Ge  Ge3  1  0.04575  0.29575  0.59149  1
 Ge  Ge4  1  0.79575  0.54575  0.09149  1
 Pu  Pu1  1  0.62500  0.87500  0.75000  1
 Pu  Pu2  1  0.37500  0.12500  0.25000  1
