CIF file written using JARVIS-Tools package.
data_Ga2PbO4
_symmetry_space_group_name_H-M  'Cc'
_cell_length_a       5.31151
_cell_length_b       5.41732
_cell_length_c       8.63293
_cell_angle_alpha    89.9992
_cell_angle_beta     90.0013
_cell_angle_gamma    119.356

_symmetry_Int_Tables_number  9
_chemical_formula_structural  Ga2PbO4
_chemical_formula_sum  Ga4Pb2O8
_cell_volume  216.5074410341767
_cell_formula_units_Z  2
loop_
  _symmetry_equiv_pos_site_id
 _symmetry_equiv_pos_as_xyz
 1  'x, y, z'
loop_
 _atom_site_type_symbol
 _atom_site_label
 _atom_site_symmetry_multiplicity
 _atom_site_fract_x
 _atom_site_fract_y
 _atom_site_fract_z
 _atom_site_fract_occupancy
 Ga  Ga1  1  0.29322  0.65611  0.05865  1
 Ga  Ga2  1  0.29374  0.65711  0.45422  1
 Ga  Ga3  1  0.63988  0.34941  0.95427  1
 Ga  Ga4  1  0.64037  0.35042  0.55861  1
 O  O1  1  0.32330  0.00267  0.00631  1
 O  O2  1  0.99556  0.36431  0.94622  1
 O  O3  1  0.63461  0.64238  0.44633  1
 O  O4  1  0.32396  0.00398  0.50602  1
 O  O5  1  -0.00370  0.36590  0.56707  1
 O  O6  1  0.12963  0.61610  0.25648  1
 O  O7  1  0.51664  0.39002  0.75648  1
 O  O8  1  0.63374  0.64078  0.06698  1
 Pb  Pb1  1  0.98126  0.95512  0.25618  1
 Pb  Pb2  1  0.02930  0.05151  0.75618  1
