CIF file written using JARVIS-Tools package.
data_RbZnH2Se2ClO6
_symmetry_space_group_name_H-M  'P2/c'
_cell_length_a       6.45402
_cell_length_b       6.02293
_cell_length_c       10.8539
_cell_angle_alpha    90
_cell_angle_beta     103.078
_cell_angle_gamma    90

_symmetry_Int_Tables_number  13
_chemical_formula_structural  RbZnH2Se2ClO6
_chemical_formula_sum  Rb2Zn2H4Se4Cl2O2
_cell_volume  410.9700149576065
_cell_formula_units_Z  2
loop_
  _symmetry_equiv_pos_site_id
 _symmetry_equiv_pos_as_xyz
 1  'x, y, z'
loop_
 _atom_site_type_symbol
 _atom_site_label
 _atom_site_symmetry_multiplicity
 _atom_site_fract_x
 _atom_site_fract_y
 _atom_site_fract_z
 _atom_site_fract_occupancy
 Cl  Cl1  1  0.50000  0.94417  0.75000  1
 Cl  Cl2  1  0.50000  0.05583  0.25000  1
 H  H1  1  0.07249  0.34304  0.09041  1
 H  H2  1  0.92751  0.34304  0.40959  1
 H  H3  1  0.07249  0.65696  0.59041  1
 H  H4  1  0.92751  0.65696  0.90959  1
 O  O1  1  0.75680  0.45178  0.88384  1
 O  O2  1  0.24320  0.45178  0.61616  1
 O  O3  1  0.68311  0.48312  0.61429  1
 O  O4  1  0.96933  0.78770  0.57678  1
 O  O5  1  0.03067  0.21230  0.42322  1
 O  O6  1  0.31689  0.51688  0.38571  1
 O  O7  1  0.75680  0.54822  0.38384  1
 O  O8  1  0.24320  0.54822  0.11616  1
 O  O9  1  0.68311  0.51688  0.11429  1
 O  O10  1  0.03067  0.78770  0.92322  1
 O  O11  1  0.31689  0.48312  0.88571  1
 O  O12  1  0.96933  0.21230  0.07678  1
 Rb  Rb1  1  -0.00000  0.16429  0.75000  1
 Rb  Rb2  1  -0.00000  0.83571  0.25000  1
 Se  Se1  1  0.29591  0.69316  0.98840  1
 Se  Se2  1  0.70409  0.69316  0.51160  1
 Se  Se3  1  0.29591  0.30684  0.48840  1
 Se  Se4  1  0.70409  0.30684  0.01160  1
 Zn  Zn1  1  0.50000  0.55897  0.75000  1
 Zn  Zn2  1  0.50000  0.44103  0.25000  1
