CIF file written using JARVIS-Tools package.
data_HoCr6Ge6
_symmetry_space_group_name_H-M  'P6/mmm'
_cell_length_a       5.10898
_cell_length_b       5.10898
_cell_length_c       8.2905
_cell_angle_alpha    90
_cell_angle_beta     90
_cell_angle_gamma    120

_symmetry_Int_Tables_number  191
_chemical_formula_structural  HoCr6Ge6
_chemical_formula_sum  HoCr6Ge6
_cell_volume  187.40438495551373
_cell_formula_units_Z  1
loop_
  _symmetry_equiv_pos_site_id
 _symmetry_equiv_pos_as_xyz
 1  'x, y, z'
loop_
 _atom_site_type_symbol
 _atom_site_label
 _atom_site_symmetry_multiplicity
 _atom_site_fract_x
 _atom_site_fract_y
 _atom_site_fract_z
 _atom_site_fract_occupancy
 Cr  Cr1  1  0.00000  0.50000  0.25033  1
 Cr  Cr2  1  0.00000  0.50000  0.74967  1
 Cr  Cr3  1  0.50000  -0.00000  0.74967  1
 Cr  Cr4  1  0.50000  0.50000  0.74967  1
 Cr  Cr5  1  0.50000  -0.00000  0.25033  1
 Cr  Cr6  1  0.50000  0.50000  0.25033  1
 Ge  Ge1  1  0.00000  0.00000  0.34472  1
 Ge  Ge2  1  0.33333  0.66667  0.00000  1
 Ge  Ge3  1  0.66667  0.33333  0.50000  1
 Ge  Ge4  1  0.33333  0.66667  0.50000  1
 Ge  Ge5  1  0.00000  0.00000  0.65528  1
 Ge  Ge6  1  0.66667  0.33333  0.00000  1
 Ho  Ho1  1  0.00000  0.00000  0.00000  1
