CIF file written using JARVIS-Tools package.
data_Bi
_symmetry_space_group_name_H-M  'Im-3m'
_cell_length_a       3.45491
_cell_length_b       3.45491
_cell_length_c       3.45491
_cell_angle_alpha    109.471
_cell_angle_beta     109.471
_cell_angle_gamma    109.471

_symmetry_Int_Tables_number  229
_chemical_formula_structural  Bi
_chemical_formula_sum  Bi
_cell_volume  31.745922650698574
_cell_formula_units_Z  1
loop_
  _symmetry_equiv_pos_site_id
 _symmetry_equiv_pos_as_xyz
 1  'x, y, z'
loop_
 _atom_site_type_symbol
 _atom_site_label
 _atom_site_symmetry_multiplicity
 _atom_site_fract_x
 _atom_site_fract_y
 _atom_site_fract_z
 _atom_site_fract_occupancy
 Bi  Bi1  1  0.00000  0.00000  0.00000  1
