CIF file written using JARVIS-Tools package.
data_U2CrN3
_symmetry_space_group_name_H-M  'Immm'
_cell_length_a       3.29524
_cell_length_b       3.72115
_cell_length_c       6.6489
_cell_angle_alpha    106.25
_cell_angle_beta     104.348
_cell_angle_gamma    90

_symmetry_Int_Tables_number  71
_chemical_formula_structural  U2CrN3
_chemical_formula_sum  U2CrN3
_cell_volume  75.6199393718202
_cell_formula_units_Z  1
loop_
  _symmetry_equiv_pos_site_id
 _symmetry_equiv_pos_as_xyz
 1  'x, y, z'
loop_
 _atom_site_type_symbol
 _atom_site_label
 _atom_site_symmetry_multiplicity
 _atom_site_fract_x
 _atom_site_fract_y
 _atom_site_fract_z
 _atom_site_fract_occupancy
 Cr  Cr1  1  0.00000  0.00000  0.00000  1
 N  N1  1  0.83097  0.83097  0.66194  1
 N  N2  1  0.16903  0.16903  0.33806  1
 N  N3  1  0.00000  0.50000  0.00000  1
 U  U1  1  0.64517  0.64517  0.29034  1
 U  U2  1  0.35483  0.35483  0.70966  1
