CIF file written using JARVIS-Tools package.
data_Sr3ScNiO6
_symmetry_space_group_name_H-M  'R-3c'
_cell_length_a       6.66152
_cell_length_b       6.66152
_cell_length_c       6.66152
_cell_angle_alpha    93.2216
_cell_angle_beta     93.2216
_cell_angle_gamma    93.2216

_symmetry_Int_Tables_number  167
_chemical_formula_structural  Sr3ScNiO6
_chemical_formula_sum  Sr6Sc2Ni2O2
_cell_volume  294.15401802669203
_cell_formula_units_Z  2
loop_
  _symmetry_equiv_pos_site_id
 _symmetry_equiv_pos_as_xyz
 1  'x, y, z'
loop_
 _atom_site_type_symbol
 _atom_site_label
 _atom_site_symmetry_multiplicity
 _atom_site_fract_x
 _atom_site_fract_y
 _atom_site_fract_z
 _atom_site_fract_occupancy
 Ni  Ni1  1  0.00000  0.00000  0.00000  1
 Ni  Ni2  1  0.50000  0.50000  0.50000  1
 O  O1  1  0.09368  0.28808  0.96587  1
 O  O2  1  0.59368  0.46587  0.78808  1
 O  O3  1  0.46587  0.78808  0.59368  1
 O  O4  1  0.03413  0.90632  0.71192  1
 O  O5  1  0.90632  0.71192  0.03413  1
 O  O6  1  0.71192  0.03413  0.90632  1
 O  O7  1  0.21192  0.40632  0.53413  1
 O  O8  1  0.40632  0.53413  0.21192  1
 O  O9  1  0.53413  0.21192  0.40632  1
 O  O10  1  0.28808  0.96587  0.09368  1
 O  O11  1  0.96587  0.09368  0.28808  1
 O  O12  1  0.78808  0.59368  0.46587  1
 Sc  Sc1  1  0.75000  0.75000  0.75000  1
 Sc  Sc2  1  0.25000  0.25000  0.25000  1
 Sr  Sr1  1  0.12163  0.75000  0.37837  1
 Sr  Sr2  1  0.37837  0.12163  0.75000  1
 Sr  Sr3  1  0.75000  0.37837  0.12163  1
 Sr  Sr4  1  0.25000  0.62163  0.87837  1
 Sr  Sr5  1  0.62163  0.87837  0.25000  1
 Sr  Sr6  1  0.87837  0.25000  0.62163  1
