CIF file written using JARVIS-Tools package.
data_ZrN2
_symmetry_space_group_name_H-M  'C2/m'
_cell_length_a       3.43323
_cell_length_b       3.5727
_cell_length_c       4.45058
_cell_angle_alpha    90
_cell_angle_beta     126.082
_cell_angle_gamma    121.353

_symmetry_Int_Tables_number  12
_chemical_formula_structural  ZrN2
_chemical_formula_sum  ZrN2
_cell_volume  33.75888519460245
_cell_formula_units_Z  1
loop_
  _symmetry_equiv_pos_site_id
 _symmetry_equiv_pos_as_xyz
 1  'x, y, z'
loop_
 _atom_site_type_symbol
 _atom_site_label
 _atom_site_symmetry_multiplicity
 _atom_site_fract_x
 _atom_site_fract_y
 _atom_site_fract_z
 _atom_site_fract_occupancy
 N  N1  1  0.34477  0.17239  0.67812  1
 N  N2  1  0.65523  0.82761  0.32188  1
 Zr  Zr1  1  0.00000  0.00000  0.00000  1
