CIF file written using JARVIS-Tools package.
data_ScNiP
_symmetry_space_group_name_H-M  'F-43m'
_cell_length_a       4.02172
_cell_length_b       4.02172
_cell_length_c       4.02176
_cell_angle_alpha    60.0003
_cell_angle_beta     59.9999
_cell_angle_gamma    60.0002

_symmetry_Int_Tables_number  216
_chemical_formula_structural  ScNiP
_chemical_formula_sum  ScNiP
_cell_volume  45.99644247149771
_cell_formula_units_Z  1
loop_
  _symmetry_equiv_pos_site_id
 _symmetry_equiv_pos_as_xyz
 1  'x, y, z'
loop_
 _atom_site_type_symbol
 _atom_site_label
 _atom_site_symmetry_multiplicity
 _atom_site_fract_x
 _atom_site_fract_y
 _atom_site_fract_z
 _atom_site_fract_occupancy
 Ni  Ni1  1  0.25000  0.25000  0.25000  1
 P  P1  1  1.00000  0.00000  0.00000  1
 Sc  Sc1  1  0.50000  0.50000  0.50000  1
