CIF file written using JARVIS-Tools package.
data_Er2Si3Rh
_symmetry_space_group_name_H-M  'P6_3/mmc'
_cell_length_a       8.1617
_cell_length_b       8.1617
_cell_length_c       7.78602
_cell_angle_alpha    90
_cell_angle_beta     90
_cell_angle_gamma    120

_symmetry_Int_Tables_number  194
_chemical_formula_structural  Er2Si3Rh
_chemical_formula_sum  Er8Si2Rh4
_cell_volume  449.1664226679209
_cell_formula_units_Z  4
loop_
  _symmetry_equiv_pos_site_id
 _symmetry_equiv_pos_as_xyz
 1  'x, y, z'
loop_
 _atom_site_type_symbol
 _atom_site_label
 _atom_site_symmetry_multiplicity
 _atom_site_fract_x
 _atom_site_fract_y
 _atom_site_fract_z
 _atom_site_fract_occupancy
 Er  Er1  1  0.50882  0.49118  0.25000  1
 Er  Er2  1  0.50882  0.01764  0.25000  1
 Er  Er3  1  0.01764  0.50882  0.75000  1
 Er  Er4  1  0.49118  0.50882  0.75000  1
 Er  Er5  1  0.49118  0.98236  0.75000  1
 Er  Er6  1  0.98236  0.49118  0.25000  1
 Er  Er7  1  0.00000  0.00000  0.75000  1
 Er  Er8  1  0.00000  0.00000  0.25000  1
 Rh  Rh1  1  0.33333  0.66667  0.03359  1
 Rh  Rh2  1  0.66667  0.33333  0.53359  1
 Rh  Rh3  1  0.66667  0.33333  0.96641  1
 Rh  Rh4  1  0.33333  0.66667  0.46641  1
 Si  Si1  1  0.66615  0.83308  0.00044  1
 Si  Si2  1  0.33385  0.16692  0.99956  1
 Si  Si3  1  0.83308  0.16692  0.99956  1
 Si  Si4  1  0.33385  0.16692  0.50044  1
 Si  Si5  1  0.16692  0.83308  0.49956  1
 Si  Si6  1  0.66615  0.83308  0.49956  1
 Si  Si7  1  0.16692  0.33385  0.49956  1
 Si  Si8  1  0.83308  0.66615  0.99956  1
 Si  Si9  1  0.83308  0.66615  0.50044  1
 Si  Si10  1  0.16692  0.33385  0.00044  1
 Si  Si11  1  0.83308  0.16692  0.50044  1
 Si  Si12  1  0.16692  0.83308  0.00044  1
