CIF file written using JARVIS-Tools package.
data_Tb2Cr2C3
_symmetry_space_group_name_H-M  'C2/m'
_cell_length_a       3.4123
_cell_length_b       5.45388
_cell_length_c       5.58808
_cell_angle_alpha    104.812
_cell_angle_beta     90
_cell_angle_gamma    108.23

_symmetry_Int_Tables_number  12
_chemical_formula_structural  Tb2Cr2C3
_chemical_formula_sum  Tb2Cr2C3
_cell_volume  95.13072570139987
_cell_formula_units_Z  1
loop_
  _symmetry_equiv_pos_site_id
 _symmetry_equiv_pos_as_xyz
 1  'x, y, z'
loop_
 _atom_site_type_symbol
 _atom_site_label
 _atom_site_symmetry_multiplicity
 _atom_site_fract_x
 _atom_site_fract_y
 _atom_site_fract_z
 _atom_site_fract_occupancy
 C  C1  1  0.71112  0.42224  0.77302  1
 C  C2  1  0.28888  0.57776  0.22698  1
 C  C3  1  0.00000  0.00000  0.00000  1
 Cr  Cr1  1  0.15754  0.31507  0.89104  1
 Cr  Cr2  1  0.84246  0.68493  0.10896  1
 Tb  Tb1  1  0.39576  0.79153  0.68312  1
 Tb  Tb2  1  0.60424  0.20847  0.31688  1
