CIF file written using JARVIS-Tools package.
data_Ge
_symmetry_space_group_name_H-M  'P6_3/mmc'
_cell_length_a       3.00911
_cell_length_b       3.00912
_cell_length_c       5.06019
_cell_angle_alpha    90
_cell_angle_beta     90
_cell_angle_gamma    120

_symmetry_Int_Tables_number  194
_chemical_formula_structural  Ge
_chemical_formula_sum  Ge2
_cell_volume  39.68021759764337
_cell_formula_units_Z  2
loop_
  _symmetry_equiv_pos_site_id
 _symmetry_equiv_pos_as_xyz
 1  'x, y, z'
loop_
 _atom_site_type_symbol
 _atom_site_label
 _atom_site_symmetry_multiplicity
 _atom_site_fract_x
 _atom_site_fract_y
 _atom_site_fract_z
 _atom_site_fract_occupancy
 Ge  Ge1  1  0.33329  0.66658  0.25000  1
 Ge  Ge2  1  0.66671  0.33342  0.75000  1
