CIF file written using JARVIS-Tools package.
data_TiSnRu2
_symmetry_space_group_name_H-M  'Fm-3m'
_cell_length_a       4.4509
_cell_length_b       4.45102
_cell_length_c       4.45091
_cell_angle_alpha    59.9976
_cell_angle_beta     59.9989
_cell_angle_gamma    59.9978

_symmetry_Int_Tables_number  225
_chemical_formula_structural  TiSnRu2
_chemical_formula_sum  TiSnRu2
_cell_volume  62.34821292368059
_cell_formula_units_Z  1
loop_
  _symmetry_equiv_pos_site_id
 _symmetry_equiv_pos_as_xyz
 1  'x, y, z'
loop_
 _atom_site_type_symbol
 _atom_site_label
 _atom_site_symmetry_multiplicity
 _atom_site_fract_x
 _atom_site_fract_y
 _atom_site_fract_z
 _atom_site_fract_occupancy
 Ru  Ru1  1  0.00001  1.00000  -0.00001  1
 Ru  Ru2  1  0.49999  0.50000  0.50000  1
 Sn  Sn1  1  0.25000  0.24999  0.25001  1
 Ti  Ti1  1  0.75000  0.75001  0.75000  1
