CIF file written using JARVIS-Tools package.
data_Cr2FeTe4
_symmetry_space_group_name_H-M  'C2/m'
_cell_length_a       4.02817
_cell_length_b       6.90277
_cell_length_c       7.07277
_cell_angle_alpha    119.218
_cell_angle_beta     106.545
_cell_angle_gamma    90

_symmetry_Int_Tables_number  12
_chemical_formula_structural  Cr2FeTe4
_chemical_formula_sum  Cr2FeTe4
_cell_volume  162.2479544646736
_cell_formula_units_Z  1
loop_
  _symmetry_equiv_pos_site_id
 _symmetry_equiv_pos_as_xyz
 1  'x, y, z'
loop_
 _atom_site_type_symbol
 _atom_site_label
 _atom_site_symmetry_multiplicity
 _atom_site_fract_x
 _atom_site_fract_y
 _atom_site_fract_z
 _atom_site_fract_occupancy
 Cr  Cr1  1  0.25146  0.26513  0.50292  1
 Cr  Cr2  1  0.74854  0.73487  0.49708  1
 Fe  Fe1  1  0.00000  0.00000  0.00000  1
 Te  Te1  1  0.11995  0.45663  0.23989  1
 Te  Te2  1  0.88005  0.54337  0.76011  1
 Te  Te3  1  0.37418  0.04074  0.74836  1
 Te  Te4  1  0.62582  0.95926  0.25164  1
