CIF file written using JARVIS-Tools package.
data_K4P2PdS8
_symmetry_space_group_name_H-M  'P-1'
_cell_length_a       6.33864
_cell_length_b       6.86521
_cell_length_c       8.97982
_cell_angle_alpha    88.5014
_cell_angle_beta     82.3262
_cell_angle_gamma    84.5775

_symmetry_Int_Tables_number  2
_chemical_formula_structural  K4P2PdS8
_chemical_formula_sum  K4P2PdS8
_cell_volume  385.4976165898362
_cell_formula_units_Z  1
loop_
  _symmetry_equiv_pos_site_id
 _symmetry_equiv_pos_as_xyz
 1  'x, y, z'
loop_
 _atom_site_type_symbol
 _atom_site_label
 _atom_site_symmetry_multiplicity
 _atom_site_fract_x
 _atom_site_fract_y
 _atom_site_fract_z
 _atom_site_fract_occupancy
 K  K1  1  0.29495  0.33658  0.14149  1
 K  K2  1  0.75173  0.21312  0.46949  1
 K  K3  1  0.24827  0.78688  0.53051  1
 K  K4  1  0.70505  0.66342  0.85851  1
 P  P1  1  0.82570  0.72706  0.26327  1
 P  P2  1  0.17430  0.27294  0.73673  1
 Pd  Pd1  1  0.00000  0.00000  0.00000  1
 S  S1  1  0.66937  0.95784  0.14961  1
 S  S2  1  0.78000  0.46631  0.17869  1
 S  S3  1  0.13731  0.80669  0.19323  1
 S  S4  1  0.75480  0.73685  0.49074  1
 S  S5  1  0.24520  0.26315  0.50926  1
 S  S6  1  0.86269  0.19331  0.80677  1
 S  S7  1  0.22000  0.53369  0.82131  1
 S  S8  1  0.33063  0.04216  0.85039  1
