CIF file written using JARVIS-Tools package.
data_Al5Mo
_symmetry_space_group_name_H-M  'R-3c'
_cell_length_a       9.22679
_cell_length_b       9.2268
_cell_length_c       9.22679
_cell_angle_alpha    31.3073
_cell_angle_beta     31.3073
_cell_angle_gamma    31.3073

_symmetry_Int_Tables_number  167
_chemical_formula_structural  Al5Mo
_chemical_formula_sum  Al0Mo2
_cell_volume  188.245512836021
_cell_formula_units_Z  2
loop_
  _symmetry_equiv_pos_site_id
 _symmetry_equiv_pos_as_xyz
 1  'x, y, z'
loop_
 _atom_site_type_symbol
 _atom_site_label
 _atom_site_symmetry_multiplicity
 _atom_site_fract_x
 _atom_site_fract_y
 _atom_site_fract_z
 _atom_site_fract_occupancy
 Al  Al1  1  0.33052  0.33052  0.33052  1
 Al  Al2  1  0.75000  0.40268  0.09732  1
 Al  Al3  1  0.25000  0.59732  0.90268  1
 Al  Al4  1  0.16948  0.16948  0.16948  1
 Al  Al5  1  0.59732  0.90268  0.25000  1
 Al  Al6  1  0.66948  0.66948  0.66948  1
 Al  Al7  1  0.40268  0.09732  0.75000  1
 Al  Al8  1  0.83052  0.83052  0.83052  1
 Al  Al9  1  0.90268  0.25000  0.59732  1
 Al  Al10  1  0.09732  0.75000  0.40268  1
 Mo  Mo1  1  0.50000  0.50000  0.50000  1
 Mo  Mo2  1  0.00000  0.00000  0.00000  1
