CIF file written using JARVIS-Tools package.
data_Sm3SiAgS7
_symmetry_space_group_name_H-M  'P6_3'
_cell_length_a       10.1853
_cell_length_b       5.72292
_cell_length_c       10.1853
_cell_angle_alpha    90
_cell_angle_beta     120
_cell_angle_gamma    90

_symmetry_Int_Tables_number  173
_chemical_formula_structural  Sm3SiAgS7
_chemical_formula_sum  Sm6Si2Ag2S4
_cell_volume  514.1562132232581
_cell_formula_units_Z  2
loop_
  _symmetry_equiv_pos_site_id
 _symmetry_equiv_pos_as_xyz
 1  'x, y, z'
loop_
 _atom_site_type_symbol
 _atom_site_label
 _atom_site_symmetry_multiplicity
 _atom_site_fract_x
 _atom_site_fract_y
 _atom_site_fract_z
 _atom_site_fract_occupancy
 Ag  Ag1  1  -0.00001  0.29637  0.00000  1
 Ag  Ag2  1  0.00001  0.79637  -0.00000  1
 S  S1  1  0.27165  0.76597  0.17739  1
 S  S2  1  0.66667  0.03146  0.33334  1
 S  S3  1  0.17738  0.26597  0.90576  1
 S  S4  1  0.58823  0.51335  0.47649  1
 S  S5  1  0.41177  0.01335  0.52351  1
 S  S6  1  0.52352  0.51336  0.11174  1
 S  S7  1  0.33333  0.53146  0.66666  1
 S  S8  1  0.11174  0.01336  0.58822  1
 S  S9  1  0.47648  0.01336  0.88826  1
 S  S10  1  0.90575  0.76597  0.72836  1
 S  S11  1  0.72835  0.26597  0.82261  1
 S  S12  1  0.88826  0.51336  0.41178  1
 S  S13  1  0.82262  0.76597  0.09424  1
 S  S14  1  0.09425  0.26597  0.27164  1
 Si  Si1  1  0.33333  0.16188  0.66666  1
 Si  Si2  1  0.66667  0.66188  0.33334  1
 Sm  Sm1  1  0.64018  0.74943  0.76506  1
 Sm  Sm2  1  0.23494  0.74943  0.87510  1
 Sm  Sm3  1  0.76506  0.24943  0.12490  1
 Sm  Sm4  1  0.35982  0.24943  0.23494  1
 Sm  Sm5  1  0.12489  0.74944  0.35983  1
 Sm  Sm6  1  0.87511  0.24944  0.64017  1
