CIF file written using JARVIS-Tools package.
data_UTeS
_symmetry_space_group_name_H-M  'Pnma'
_cell_length_a       4.18496
_cell_length_b       7.60921
_cell_length_c       8.87758
_cell_angle_alpha    90
_cell_angle_beta     90
_cell_angle_gamma    90

_symmetry_Int_Tables_number  62
_chemical_formula_structural  UTeS
_chemical_formula_sum  U4Te4S4
_cell_volume  282.69996915531226
_cell_formula_units_Z  4
loop_
  _symmetry_equiv_pos_site_id
 _symmetry_equiv_pos_as_xyz
 1  'x, y, z'
loop_
 _atom_site_type_symbol
 _atom_site_label
 _atom_site_symmetry_multiplicity
 _atom_site_fract_x
 _atom_site_fract_y
 _atom_site_fract_z
 _atom_site_fract_occupancy
 S  S1  1  0.75000  0.64746  0.42788  1
 S  S2  1  0.25000  0.85254  0.92788  1
 S  S3  1  0.75000  0.14746  0.07212  1
 S  S4  1  0.25000  0.35254  0.57212  1
 Te  Te1  1  0.25000  0.47571  0.16026  1
 Te  Te2  1  0.75000  0.02429  0.66026  1
 Te  Te3  1  0.25000  0.97571  0.33974  1
 Te  Te4  1  0.75000  0.52429  0.83974  1
 U  U1  1  0.25000  0.70656  0.62364  1
 U  U2  1  0.75000  0.29344  0.37636  1
 U  U3  1  0.25000  0.20656  0.87636  1
 U  U4  1  0.75000  0.79344  0.12364  1
