CIF file written using JARVIS-Tools package.
data_ReO2
_symmetry_space_group_name_H-M  'Pbcn'
_cell_length_a       4.63464
_cell_length_b       4.87099
_cell_length_c       5.69762
_cell_angle_alpha    90
_cell_angle_beta     90
_cell_angle_gamma    90

_symmetry_Int_Tables_number  60
_chemical_formula_structural  ReO2
_chemical_formula_sum  Re4O8
_cell_volume  128.62553156628374
_cell_formula_units_Z  4
loop_
  _symmetry_equiv_pos_site_id
 _symmetry_equiv_pos_as_xyz
 1  'x, y, z'
loop_
 _atom_site_type_symbol
 _atom_site_label
 _atom_site_symmetry_multiplicity
 _atom_site_fract_x
 _atom_site_fract_y
 _atom_site_fract_z
 _atom_site_fract_occupancy
 O  O1  1  0.59099  0.24078  0.63988  1
 O  O2  1  0.09099  0.25922  0.86012  1
 O  O3  1  0.40901  0.74078  0.86012  1
 O  O4  1  0.90901  0.75922  0.63988  1
 O  O5  1  0.09099  0.24078  0.36012  1
 O  O6  1  0.59099  0.25922  0.13988  1
 O  O7  1  0.90901  0.74078  0.13988  1
 O  O8  1  0.40901  0.75922  0.36012  1
 Re  Re1  1  0.25000  0.50000  0.60795  1
 Re  Re2  1  0.75000  0.00000  0.89205  1
 Re  Re3  1  0.75000  0.50000  0.39205  1
 Re  Re4  1  0.25000  0.00000  0.10795  1
