CIF file written using JARVIS-Tools package.
data_Co2NiSe4
_symmetry_space_group_name_H-M  'C2/m'
_cell_length_a       3.58446
_cell_length_b       6.14144
_cell_length_c       6.29712
_cell_angle_alpha    117.861
_cell_angle_beta     106.536
_cell_angle_gamma    90

_symmetry_Int_Tables_number  12
_chemical_formula_structural  Co2NiSe4
_chemical_formula_sum  Co2NiSe4
_cell_volume  116.02969810465572
_cell_formula_units_Z  1
loop_
  _symmetry_equiv_pos_site_id
 _symmetry_equiv_pos_as_xyz
 1  'x, y, z'
loop_
 _atom_site_type_symbol
 _atom_site_label
 _atom_site_symmetry_multiplicity
 _atom_site_fract_x
 _atom_site_fract_y
 _atom_site_fract_z
 _atom_site_fract_occupancy
 Co  Co1  1  0.26054  0.27942  0.52109  1
 Co  Co2  1  0.73946  0.72058  0.47891  1
 Ni  Ni1  1  0.00000  0.00000  0.00000  1
 Se  Se1  1  0.12424  0.46006  0.24848  1
 Se  Se2  1  0.87576  0.53994  0.75152  1
 Se  Se3  1  0.36338  0.02350  0.72676  1
 Se  Se4  1  0.63662  0.97650  0.27324  1
