CIF file written using JARVIS-Tools package.
data_NaSi2BH2O7
_symmetry_space_group_name_H-M  'P2_1'
_cell_length_a       5.21481
_cell_length_b       6.98413
_cell_length_c       8.90771
_cell_angle_alpha    90
_cell_angle_beta     95.0668
_cell_angle_gamma    90

_symmetry_Int_Tables_number  4
_chemical_formula_structural  NaSi2BH2O7
_chemical_formula_sum  Na2Si4B2H4O4
_cell_volume  323.15896870270944
_cell_formula_units_Z  2
loop_
  _symmetry_equiv_pos_site_id
 _symmetry_equiv_pos_as_xyz
 1  'x, y, z'
loop_
 _atom_site_type_symbol
 _atom_site_label
 _atom_site_symmetry_multiplicity
 _atom_site_fract_x
 _atom_site_fract_y
 _atom_site_fract_z
 _atom_site_fract_occupancy
 B  B1  1  0.24237  0.80286  0.68504  1
 B  B2  1  0.75763  0.30286  0.31496  1
 H  H1  1  0.57595  0.66831  0.58346  1
 H  H2  1  0.42405  0.16831  0.41654  1
 H  H3  1  0.77045  0.68408  0.72990  1
 H  H4  1  0.22955  0.18408  0.27010  1
 Na  Na1  1  0.06441  0.42176  0.55297  1
 Na  Na2  1  0.93559  0.92176  0.44703  1
 O  O1  1  0.72055  0.21944  0.44313  1
 O  O2  1  0.78651  0.83227  0.15710  1
 O  O3  1  0.90783  0.04841  0.92586  1
 O  O4  1  0.09217  0.54841  0.07414  1
 O  O5  1  0.22186  0.70851  0.82415  1
 O  O6  1  0.21349  0.33227  0.84290  1
 O  O7  1  0.21317  0.00399  0.70300  1
 O  O8  1  0.58162  0.53447  0.00316  1
 O  O9  1  0.78683  0.50399  0.29700  1
 O  O10  1  0.76552  0.66067  0.62174  1
 O  O11  1  0.23448  0.16067  0.37826  1
 O  O12  1  0.77814  0.20851  0.17585  1
 O  O13  1  0.41838  0.03447  -0.00316  1
 O  O14  1  0.27945  0.71944  0.55687  1
 Si  Si1  1  0.72089  0.03126  0.06296  1
 Si  Si2  1  0.27911  0.53126  0.93704  1
 Si  Si3  1  0.81050  0.59986  0.13146  1
 Si  Si4  1  0.18950  0.09986  0.86854  1
