CIF file written using JARVIS-Tools package.
data_Pu2W2C3
_symmetry_space_group_name_H-M  'C2/m'
_cell_length_a       3.28995
_cell_length_b       5.6876
_cell_length_c       6.20667
_cell_angle_alpha    112.377
_cell_angle_beta     105.369
_cell_angle_gamma    90

_symmetry_Int_Tables_number  12
_chemical_formula_structural  Pu2W2C3
_chemical_formula_sum  Pu2W2C3
_cell_volume  102.88712409733381
_cell_formula_units_Z  1
loop_
  _symmetry_equiv_pos_site_id
 _symmetry_equiv_pos_as_xyz
 1  'x, y, z'
loop_
 _atom_site_type_symbol
 _atom_site_label
 _atom_site_symmetry_multiplicity
 _atom_site_fract_x
 _atom_site_fract_y
 _atom_site_fract_z
 _atom_site_fract_occupancy
 C  C1  1  0.25111  0.74468  0.50222  1
 C  C2  1  0.74889  0.25532  0.49778  1
 C  C3  1  0.00000  0.00000  0.00000  1
 Pu  Pu1  1  0.39498  0.19252  0.78996  1
 Pu  Pu2  1  0.60502  0.80748  0.21004  1
 W  W1  1  0.15598  0.32744  0.31196  1
 W  W2  1  0.84402  0.67256  0.68804  1
