CIF file written using JARVIS-Tools package.
data_YMg16Al12
_symmetry_space_group_name_H-M  'I-43m'
_cell_length_a       9.14426
_cell_length_b       9.14426
_cell_length_c       9.14426
_cell_angle_alpha    109.471
_cell_angle_beta     109.471
_cell_angle_gamma    109.471

_symmetry_Int_Tables_number  217
_chemical_formula_structural  YMg16Al12
_chemical_formula_sum  YMg6Al2
_cell_volume  588.6043069903342
_cell_formula_units_Z  1
loop_
  _symmetry_equiv_pos_site_id
 _symmetry_equiv_pos_as_xyz
 1  'x, y, z'
loop_
 _atom_site_type_symbol
 _atom_site_label
 _atom_site_symmetry_multiplicity
 _atom_site_fract_x
 _atom_site_fract_y
 _atom_site_fract_z
 _atom_site_fract_occupancy
 Al  Al1  1  0.18743  0.18743  0.81863  1
 Al  Al2  1  0.63121  -0.00000  0.81257  1
 Al  Al3  1  0.81257  0.63121  -0.00000  1
 Al  Al4  1  0.36879  0.36879  0.18136  1
 Al  Al5  1  0.81863  0.18743  0.18743  1
 Al  Al6  1  0.63121  0.81257  -0.00000  1
 Al  Al7  1  0.36879  0.18137  0.36879  1
 Al  Al8  1  0.18136  0.36879  0.36879  1
 Al  Al9  1  0.81257  -0.00000  0.63121  1
 Al  Al10  1  -0.00000  0.81257  0.63121  1
 Al  Al11  1  -0.00000  0.63121  0.81257  1
 Al  Al12  1  0.18743  0.81863  0.18743  1
 Mg  Mg1  1  -0.00000  -0.00000  0.35674  1
 Mg  Mg2  1  0.60411  0.31939  0.00000  1
 Mg  Mg3  1  -0.00000  0.35674  -0.00000  1
 Mg  Mg4  1  0.31939  0.60411  0.00000  1
 Mg  Mg5  1  0.68061  0.68061  0.28472  1
 Mg  Mg6  1  0.60411  0.00000  0.31939  1
 Mg  Mg7  1  0.00000  0.60411  0.31939  1
 Mg  Mg8  1  0.28472  0.68061  0.68061  1
 Mg  Mg9  1  0.71528  0.39589  0.39589  1
 Mg  Mg10  1  0.39589  0.71528  0.39589  1
 Mg  Mg11  1  0.00000  0.31939  0.60411  1
 Mg  Mg12  1  0.31939  0.00000  0.60411  1
 Mg  Mg13  1  0.64326  0.64326  0.64326  1
 Mg  Mg14  1  0.68061  0.28472  0.68061  1
 Mg  Mg15  1  0.39589  0.39589  0.71528  1
 Mg  Mg16  1  0.35674  -0.00000  -0.00000  1
 Y  Y1  1  0.00000  0.00000  0.00000  1
