CIF file written using JARVIS-Tools package.
data_MgGeO3
_symmetry_space_group_name_H-M  'Cmcm'
_cell_length_a       2.84536
_cell_length_b       4.92849
_cell_length_c       7.00442
_cell_angle_alpha    90
_cell_angle_beta     90
_cell_angle_gamma    106.778

_symmetry_Int_Tables_number  63
_chemical_formula_structural  MgGeO3
_chemical_formula_sum  Mg2Ge2O6
_cell_volume  94.04392682660374
_cell_formula_units_Z  2
loop_
  _symmetry_equiv_pos_site_id
 _symmetry_equiv_pos_as_xyz
 1  'x, y, z'
loop_
 _atom_site_type_symbol
 _atom_site_label
 _atom_site_symmetry_multiplicity
 _atom_site_fract_x
 _atom_site_fract_y
 _atom_site_fract_z
 _atom_site_fract_occupancy
 Ge  Ge1  1  0.00000  0.00000  0.50000  1
 Ge  Ge2  1  0.00000  0.00000  0.00000  1
 Mg  Mg1  1  0.74015  0.48029  0.25000  1
 Mg  Mg2  1  0.25985  0.51971  0.75000  1
 O  O1  1  0.63197  0.26393  0.93966  1
 O  O2  1  0.36803  0.73607  0.06034  1
 O  O3  1  0.36803  0.73607  0.43966  1
 O  O4  1  0.63197  0.26393  0.56034  1
 O  O5  1  0.91505  0.83009  0.75000  1
 O  O6  1  0.08495  0.16991  0.25000  1
