CIF file written using JARVIS-Tools package.
data_K
_symmetry_space_group_name_H-M  'Cmcm'
_cell_length_a       4.64504
_cell_length_b       4.63094
_cell_length_c       7.56157
_cell_angle_alpha    90
_cell_angle_beta     90
_cell_angle_gamma    59.8992

_symmetry_Int_Tables_number  63
_chemical_formula_structural  K
_chemical_formula_sum  K2
_cell_volume  140.72085723764076
_cell_formula_units_Z  2
loop_
  _symmetry_equiv_pos_site_id
 _symmetry_equiv_pos_as_xyz
 1  'x, y, z'
loop_
 _atom_site_type_symbol
 _atom_site_label
 _atom_site_symmetry_multiplicity
 _atom_site_fract_x
 _atom_site_fract_y
 _atom_site_fract_z
 _atom_site_fract_occupancy
 K  K1  1  0.83215  0.33571  0.25000  1
 K  K2  1  0.16786  0.66429  0.75000  1
