CIF file written using JARVIS-Tools package.
data_Ba4LiTa3O12
_symmetry_space_group_name_H-M  'P6_3mc'
_cell_length_a       5.83892
_cell_length_b       5.83892
_cell_length_c       19.2553
_cell_angle_alpha    90
_cell_angle_beta     90
_cell_angle_gamma    120

_symmetry_Int_Tables_number  186
_chemical_formula_structural  Ba4LiTa3O12
_chemical_formula_sum  Ba8Li2Ta6O24
_cell_volume  568.5196518949798
_cell_formula_units_Z  2
loop_
  _symmetry_equiv_pos_site_id
 _symmetry_equiv_pos_as_xyz
 1  'x, y, z'
loop_
 _atom_site_type_symbol
 _atom_site_label
 _atom_site_symmetry_multiplicity
 _atom_site_fract_x
 _atom_site_fract_y
 _atom_site_fract_z
 _atom_site_fract_occupancy
 Ba  Ba1  1  0.00000  0.00000  0.00298  1
 Ba  Ba2  1  0.00000  0.00000  0.50298  1
 Ba  Ba3  1  0.33333  0.66667  0.14435  1
 Ba  Ba4  1  0.66667  0.33333  0.64435  1
 Ba  Ba5  1  0.33333  0.66667  0.36955  1
 Ba  Ba6  1  0.66667  0.33333  0.86955  1
 Ba  Ba7  1  0.66667  0.33333  0.24762  1
 Ba  Ba8  1  0.33333  0.66667  0.74762  1
 Li  Li1  1  0.00000  0.00000  0.16516  1
 Li  Li2  1  0.00000  0.00000  0.66516  1
 O  O1  1  0.34606  0.17303  0.11848  1
 O  O2  1  0.84048  0.15952  0.75736  1
 O  O3  1  0.83087  0.16913  0.37893  1
 O  O4  1  0.66173  0.83087  0.87893  1
 O  O5  1  0.16913  0.33827  0.87893  1
 O  O6  1  0.83087  0.66173  0.37893  1
 O  O7  1  0.15952  0.31904  0.25736  1
 O  O8  1  0.16913  0.83087  0.87893  1
 O  O9  1  0.17303  0.34606  0.61848  1
 O  O10  1  0.68096  0.84048  0.25736  1
 O  O11  1  0.31904  0.15952  0.75736  1
 O  O12  1  0.84048  0.68096  0.75736  1
 O  O13  1  0.33827  0.16913  0.37893  1
 O  O14  1  0.49888  0.50112  0.99701  1
 O  O15  1  0.50112  0.49888  0.49701  1
 O  O16  1  0.50112  0.00223  0.49701  1
 O  O17  1  0.49888  0.99777  0.99701  1
 O  O18  1  0.00223  0.50112  0.99701  1
 O  O19  1  0.17303  0.82697  0.61848  1
 O  O20  1  0.82697  0.17303  0.11848  1
 O  O21  1  0.65394  0.82697  0.61848  1
 O  O22  1  0.15952  0.84048  0.25736  1
 O  O23  1  0.99777  0.49888  0.49701  1
 O  O24  1  0.82697  0.65394  0.11848  1
 Ta  Ta1  1  0.33333  0.66667  0.56621  1
 Ta  Ta2  1  0.00000  0.00000  0.30940  1
 Ta  Ta3  1  0.00000  0.00000  0.80940  1
 Ta  Ta4  1  0.66667  0.33333  0.06621  1
 Ta  Ta5  1  0.33333  0.66667  0.93941  1
 Ta  Ta6  1  0.66667  0.33333  0.43941  1
