CIF file written using JARVIS-Tools package.
data_Re3W
_symmetry_space_group_name_H-M  'I4/mmm'
_cell_length_a       4.84241
_cell_length_b       4.84241
_cell_length_c       4.84241
_cell_angle_alpha    131.859
_cell_angle_beta     131.859
_cell_angle_gamma    70.4523

_symmetry_Int_Tables_number  139
_chemical_formula_structural  Re3W
_chemical_formula_sum  Re3W
_cell_volume  61.72079738965915
_cell_formula_units_Z  1
loop_
  _symmetry_equiv_pos_site_id
 _symmetry_equiv_pos_as_xyz
 1  'x, y, z'
loop_
 _atom_site_type_symbol
 _atom_site_label
 _atom_site_symmetry_multiplicity
 _atom_site_fract_x
 _atom_site_fract_y
 _atom_site_fract_z
 _atom_site_fract_occupancy
 Re  Re1  1  0.75000  0.25000  0.50000  1
 Re  Re2  1  0.25000  0.75000  0.50000  1
 Re  Re3  1  0.50000  0.50000  0.00000  1
 W  W1  1  0.00000  0.00000  0.00000  1
