CIF file written using JARVIS-Tools package.
data_Dy3Al2Ni6
_symmetry_space_group_name_H-M  'Im-3m'
_cell_length_a       7.71808
_cell_length_b       7.71808
_cell_length_c       7.71808
_cell_angle_alpha    109.471
_cell_angle_beta     109.471
_cell_angle_gamma    109.471

_symmetry_Int_Tables_number  229
_chemical_formula_structural  Dy3Al2Ni6
_chemical_formula_sum  Dy6Al4Ni2
_cell_volume  353.92100847955896
_cell_formula_units_Z  2
loop_
  _symmetry_equiv_pos_site_id
 _symmetry_equiv_pos_as_xyz
 1  'x, y, z'
loop_
 _atom_site_type_symbol
 _atom_site_label
 _atom_site_symmetry_multiplicity
 _atom_site_fract_x
 _atom_site_fract_y
 _atom_site_fract_z
 _atom_site_fract_occupancy
 Al  Al1  1  0.50000  0.50000  0.50000  1
 Al  Al2  1  0.00000  0.00000  0.50000  1
 Al  Al3  1  -0.00000  0.50000  0.00000  1
 Al  Al4  1  0.50000  0.00000  0.00000  1
 Dy  Dy1  1  0.29363  -0.00000  0.29363  1
 Dy  Dy2  1  0.70637  0.70637  0.00000  1
 Dy  Dy3  1  0.29363  0.29363  -0.00000  1
 Dy  Dy4  1  0.00000  0.70637  0.70637  1
 Dy  Dy5  1  -0.00000  0.29363  0.29363  1
 Dy  Dy6  1  0.70637  0.00000  0.70637  1
 Ni  Ni1  1  0.33395  0.66605  -0.00000  1
 Ni  Ni2  1  -0.00000  0.33395  0.66605  1
 Ni  Ni3  1  0.66605  0.33395  0.00000  1
 Ni  Ni4  1  0.00000  0.66605  0.33395  1
 Ni  Ni5  1  0.66605  0.33209  0.66605  1
 Ni  Ni6  1  0.66605  0.00000  0.33395  1
 Ni  Ni7  1  0.66791  0.33395  0.33395  1
 Ni  Ni8  1  0.33395  0.33395  0.66791  1
 Ni  Ni9  1  0.33395  -0.00000  0.66605  1
 Ni  Ni10  1  0.33395  0.66791  0.33395  1
 Ni  Ni11  1  0.66605  0.66605  0.33209  1
 Ni  Ni12  1  0.33209  0.66605  0.66605  1
