CIF file written using JARVIS-Tools package.
data_InAu3
_symmetry_space_group_name_H-M  'Pmmn'
_cell_length_a       4.74465
_cell_length_b       5.26726
_cell_length_c       6.05806
_cell_angle_alpha    90
_cell_angle_beta     90
_cell_angle_gamma    90

_symmetry_Int_Tables_number  59
_chemical_formula_structural  InAu3
_chemical_formula_sum  In2Au6
_cell_volume  151.39875402590692
_cell_formula_units_Z  2
loop_
  _symmetry_equiv_pos_site_id
 _symmetry_equiv_pos_as_xyz
 1  'x, y, z'
loop_
 _atom_site_type_symbol
 _atom_site_label
 _atom_site_symmetry_multiplicity
 _atom_site_fract_x
 _atom_site_fract_y
 _atom_site_fract_z
 _atom_site_fract_occupancy
 Au  Au1  1  0.00000  0.66473  0.50000  1
 Au  Au2  1  0.50000  0.33527  0.00000  1
 Au  Au3  1  0.00000  0.16488  0.74818  1
 Au  Au4  1  0.50000  0.83512  0.75182  1
 Au  Au5  1  0.00000  0.16488  0.25182  1
 Au  Au6  1  0.50000  0.83512  0.24818  1
 In  In1  1  0.50000  0.33232  0.50000  1
 In  In2  1  0.00000  0.66768  0.00000  1
