CIF file written using JARVIS-Tools package.
data_DySiRu
_symmetry_space_group_name_H-M  'Pnma'
_cell_length_a       4.35739
_cell_length_b       6.9986
_cell_length_c       7.08183
_cell_angle_alpha    90
_cell_angle_beta     90
_cell_angle_gamma    90

_symmetry_Int_Tables_number  62
_chemical_formula_structural  DySiRu
_chemical_formula_sum  Dy4Si4Ru4
_cell_volume  215.96510693505437
_cell_formula_units_Z  4
loop_
  _symmetry_equiv_pos_site_id
 _symmetry_equiv_pos_as_xyz
 1  'x, y, z'
loop_
 _atom_site_type_symbol
 _atom_site_label
 _atom_site_symmetry_multiplicity
 _atom_site_fract_x
 _atom_site_fract_y
 _atom_site_fract_z
 _atom_site_fract_occupancy
 Dy  Dy1  1  0.25000  0.98376  0.81391  1
 Dy  Dy2  1  0.75000  0.01624  0.18609  1
 Dy  Dy3  1  0.25000  0.48376  0.68609  1
 Dy  Dy4  1  0.75000  0.51624  0.31391  1
 Ru  Ru1  1  0.75000  0.84618  0.56744  1
 Ru  Ru2  1  0.25000  0.15382  0.43256  1
 Ru  Ru3  1  0.75000  0.34618  0.93256  1
 Ru  Ru4  1  0.25000  0.65382  0.06744  1
 Si  Si1  1  0.25000  0.30447  0.10638  1
 Si  Si2  1  0.75000  0.69553  0.89362  1
 Si  Si3  1  0.25000  0.80447  0.39362  1
 Si  Si4  1  0.75000  0.19553  0.60638  1
