CIF file written using JARVIS-Tools package.
data_Lu2TlHg
_symmetry_space_group_name_H-M  'Fm-3m'
_cell_length_a       5.18093
_cell_length_b       5.18093
_cell_length_c       5.18093
_cell_angle_alpha    60.0033
_cell_angle_beta     60.0033
_cell_angle_gamma    60.0033

_symmetry_Int_Tables_number  225
_chemical_formula_structural  Lu2TlHg
_chemical_formula_sum  Lu2TlHg
_cell_volume  98.34232154534523
_cell_formula_units_Z  1
loop_
  _symmetry_equiv_pos_site_id
 _symmetry_equiv_pos_as_xyz
 1  'x, y, z'
loop_
 _atom_site_type_symbol
 _atom_site_label
 _atom_site_symmetry_multiplicity
 _atom_site_fract_x
 _atom_site_fract_y
 _atom_site_fract_z
 _atom_site_fract_occupancy
 Hg  Hg1  1  0.25000  0.25000  0.25000  1
 Lu  Lu1  1  0.00001  0.00001  0.00001  1
 Lu  Lu2  1  0.49999  0.49999  0.49999  1
 Tl  Tl1  1  0.75000  0.75000  0.75000  1
