CIF file written using JARVIS-Tools package.
data_Be3Cd4Si3SeO12
_symmetry_space_group_name_H-M  'P-43n'
_cell_length_a       8.58574
_cell_length_b       8.58574
_cell_length_c       8.58574
_cell_angle_alpha    90
_cell_angle_beta     90
_cell_angle_gamma    90

_symmetry_Int_Tables_number  218
_chemical_formula_structural  Be3Cd4Si3SeO12
_chemical_formula_sum  Be6Cd8Si6Se2O24
_cell_volume  632.8976445991822
_cell_formula_units_Z  2
loop_
  _symmetry_equiv_pos_site_id
 _symmetry_equiv_pos_as_xyz
 1  'x, y, z'
loop_
 _atom_site_type_symbol
 _atom_site_label
 _atom_site_symmetry_multiplicity
 _atom_site_fract_x
 _atom_site_fract_y
 _atom_site_fract_z
 _atom_site_fract_occupancy
 Be  Be1  1  0.25000  0.50000  0.00000  1
 Be  Be2  1  0.50000  0.00000  0.75000  1
 Be  Be3  1  0.50000  0.00000  0.25000  1
 Be  Be4  1  0.00000  0.25000  0.50000  1
 Be  Be5  1  0.00000  0.75000  0.50000  1
 Be  Be6  1  0.75000  0.50000  0.00000  1
 Cd  Cd1  1  0.17561  0.82439  0.82439  1
 Cd  Cd2  1  0.32439  0.67561  0.32439  1
 Cd  Cd3  1  0.67561  0.32439  0.32439  1
 Cd  Cd4  1  0.82439  0.82439  0.17561  1
 Cd  Cd5  1  0.82439  0.17561  0.82439  1
 Cd  Cd6  1  0.67561  0.67561  0.67561  1
 Cd  Cd7  1  0.17561  0.17561  0.17561  1
 Cd  Cd8  1  0.32439  0.32439  0.67561  1
 O  O1  1  0.14435  0.85543  0.56879  1
 O  O2  1  0.85565  0.14457  0.56879  1
 O  O3  1  0.85543  0.43121  0.85565  1
 O  O4  1  0.56879  0.14435  0.85543  1
 O  O5  1  0.14457  0.56879  0.85565  1
 O  O6  1  0.14457  0.43121  0.14435  1
 O  O7  1  0.64457  0.35565  0.06879  1
 O  O8  1  0.14435  0.14457  0.43121  1
 O  O9  1  0.85565  0.85543  0.43121  1
 O  O10  1  0.56879  0.85565  0.14457  1
 O  O11  1  0.43121  0.85565  0.85543  1
 O  O12  1  0.85543  0.56879  0.14435  1
 O  O13  1  0.93121  0.35543  0.35565  1
 O  O14  1  0.35543  0.35565  0.93121  1
 O  O15  1  0.35565  0.93121  0.35543  1
 O  O16  1  0.35543  0.64435  0.06879  1
 O  O17  1  0.93121  0.64457  0.64435  1
 O  O18  1  0.64435  0.93121  0.64457  1
 O  O19  1  0.06879  0.64457  0.35565  1
 O  O20  1  0.06879  0.35543  0.64435  1
 O  O21  1  0.35565  0.06879  0.64457  1
 O  O22  1  0.43121  0.14435  0.14457  1
 O  O23  1  0.64435  0.06879  0.35543  1
 O  O24  1  0.64457  0.64435  0.93121  1
 Se  Se1  1  0.50000  0.50000  0.50000  1
 Se  Se2  1  0.00000  0.00000  0.00000  1
 Si  Si1  1  0.75000  0.00000  0.50000  1
 Si  Si2  1  0.50000  0.75000  0.00000  1
 Si  Si3  1  0.50000  0.25000  0.00000  1
 Si  Si4  1  0.25000  0.00000  0.50000  1
 Si  Si5  1  0.00000  0.50000  0.75000  1
 Si  Si6  1  0.00000  0.50000  0.25000  1
