CIF file written using JARVIS-Tools package.
data_Re3Tc
_symmetry_space_group_name_H-M  'P6_3/mmc'
_cell_length_a       5.55866
_cell_length_b       5.55866
_cell_length_c       4.46837
_cell_angle_alpha    90
_cell_angle_beta     90
_cell_angle_gamma    120

_symmetry_Int_Tables_number  194
_chemical_formula_structural  Re3Tc
_chemical_formula_sum  Re6Tc2
_cell_volume  119.56969831957521
_cell_formula_units_Z  2
loop_
  _symmetry_equiv_pos_site_id
 _symmetry_equiv_pos_as_xyz
 1  'x, y, z'
loop_
 _atom_site_type_symbol
 _atom_site_label
 _atom_site_symmetry_multiplicity
 _atom_site_fract_x
 _atom_site_fract_y
 _atom_site_fract_z
 _atom_site_fract_occupancy
 Re  Re1  1  0.83354  0.16646  0.25000  1
 Re  Re2  1  0.83354  0.66709  0.25000  1
 Re  Re3  1  0.33291  0.16646  0.25000  1
 Re  Re4  1  0.16646  0.83354  0.75000  1
 Re  Re5  1  0.16646  0.33291  0.75000  1
 Re  Re6  1  0.66709  0.83354  0.75000  1
 Tc  Tc1  1  0.66667  0.33333  0.75000  1
 Tc  Tc2  1  0.33333  0.66667  0.25000  1
