CIF file written using JARVIS-Tools package.
data_AlHO2
_symmetry_space_group_name_H-M  'Pnma'
_cell_length_a       2.86945
_cell_length_b       4.41595
_cell_length_c       9.4849
_cell_angle_alpha    90
_cell_angle_beta     90
_cell_angle_gamma    90

_symmetry_Int_Tables_number  62
_chemical_formula_structural  AlHO2
_chemical_formula_sum  Al4H4O8
_cell_volume  120.18644823752211
_cell_formula_units_Z  4
loop_
  _symmetry_equiv_pos_site_id
 _symmetry_equiv_pos_as_xyz
 1  'x, y, z'
loop_
 _atom_site_type_symbol
 _atom_site_label
 _atom_site_symmetry_multiplicity
 _atom_site_fract_x
 _atom_site_fract_y
 _atom_site_fract_z
 _atom_site_fract_occupancy
 Al  Al1  1  0.25000  0.45107  0.35679  1
 Al  Al2  1  0.25000  0.04893  0.85679  1
 Al  Al3  1  0.75000  0.54893  0.64321  1
 Al  Al4  1  0.75000  0.95107  0.14321  1
 H  H1  1  0.25000  0.08670  0.59086  1
 H  H2  1  0.25000  0.41330  0.09086  1
 H  H3  1  0.75000  0.91330  0.40914  1
 H  H4  1  0.75000  0.58670  0.90914  1
 O  O1  1  0.25000  0.79516  0.69749  1
 O  O2  1  0.25000  0.70484  0.19749  1
 O  O3  1  0.75000  0.20484  0.30251  1
 O  O4  1  0.75000  0.29516  0.80251  1
 O  O5  1  0.25000  0.30312  0.55458  1
 O  O6  1  0.25000  0.19688  0.05458  1
 O  O7  1  0.75000  0.69688  0.44542  1
 O  O8  1  0.75000  0.80312  0.94542  1
