CIF file written using JARVIS-Tools package.
data_Al2Re3B
_symmetry_space_group_name_H-M  'Fd-3m'
_cell_length_a       7.62008
_cell_length_b       7.62008
_cell_length_c       7.62008
_cell_angle_alpha    60
_cell_angle_beta     60
_cell_angle_gamma    60

_symmetry_Int_Tables_number  227
_chemical_formula_structural  Al2Re3B
_chemical_formula_sum  Al8Re2B4
_cell_volume  312.8694146996972
_cell_formula_units_Z  4
loop_
  _symmetry_equiv_pos_site_id
 _symmetry_equiv_pos_as_xyz
 1  'x, y, z'
loop_
 _atom_site_type_symbol
 _atom_site_label
 _atom_site_symmetry_multiplicity
 _atom_site_fract_x
 _atom_site_fract_y
 _atom_site_fract_z
 _atom_site_fract_occupancy
 Al  Al1  1  0.71098  0.71098  0.71098  1
 Al  Al2  1  0.71098  0.71098  0.36705  1
 Al  Al3  1  0.28902  0.63295  0.28902  1
 Al  Al4  1  0.36705  0.71098  0.71098  1
 Al  Al5  1  0.28902  0.28902  0.28902  1
 Al  Al6  1  0.63295  0.28902  0.28902  1
 Al  Al7  1  0.28902  0.28902  0.63295  1
 Al  Al8  1  0.71098  0.36705  0.71098  1
 B  B1  1  -0.00000  0.50000  0.50000  1
 B  B2  1  0.50000  0.50000  0.50000  1
 B  B3  1  0.50000  0.50000  0.00000  1
 B  B4  1  0.50000  0.00000  0.50000  1
 Re  Re1  1  0.68401  0.06599  0.68401  1
 Re  Re2  1  0.68401  0.68401  0.06599  1
 Re  Re3  1  0.06599  0.06599  0.68401  1
 Re  Re4  1  0.93401  0.31599  0.93401  1
 Re  Re5  1  0.31599  0.93401  0.31599  1
 Re  Re6  1  0.93401  0.31599  0.31599  1
 Re  Re7  1  0.68401  0.06599  0.06599  1
 Re  Re8  1  0.06599  0.68401  0.06599  1
 Re  Re9  1  0.31599  0.31599  0.93401  1
 Re  Re10  1  0.93401  0.93401  0.31599  1
 Re  Re11  1  0.06599  0.68401  0.68401  1
 Re  Re12  1  0.31599  0.93401  0.93401  1
