CIF file written using JARVIS-Tools package.
data_KNaPrNbO5
_symmetry_space_group_name_H-M  'P4/nmm'
_cell_length_a       5.79607
_cell_length_b       5.79607
_cell_length_c       8.31516
_cell_angle_alpha    90
_cell_angle_beta     90
_cell_angle_gamma    90

_symmetry_Int_Tables_number  129
_chemical_formula_structural  KNaPrNbO5
_chemical_formula_sum  K2Na2Pr2Nb2O0
_cell_volume  279.3433895694249
_cell_formula_units_Z  2
loop_
  _symmetry_equiv_pos_site_id
 _symmetry_equiv_pos_as_xyz
 1  'x, y, z'
loop_
 _atom_site_type_symbol
 _atom_site_label
 _atom_site_symmetry_multiplicity
 _atom_site_fract_x
 _atom_site_fract_y
 _atom_site_fract_z
 _atom_site_fract_occupancy
 K  K1  1  0.50000  0.50000  0.00000  1
 K  K2  1  0.00000  0.00000  0.00000  1
 Na  Na1  1  0.00000  0.50000  0.75790  1
 Na  Na2  1  0.50000  0.00000  0.24210  1
 Nb  Nb1  1  0.50000  0.00000  0.74548  1
 Nb  Nb2  1  0.00000  0.50000  0.25452  1
 O  O1  1  0.73131  0.76869  0.67329  1
 O  O2  1  0.26869  0.23131  0.67329  1
 O  O3  1  0.23131  0.26869  0.32671  1
 O  O4  1  0.23131  0.73131  0.32671  1
 O  O5  1  0.76869  0.73131  0.32671  1
 O  O6  1  0.76869  0.26869  0.32671  1
 O  O7  1  0.50000  0.00000  0.97025  1
 O  O8  1  0.26869  0.76869  0.67329  1
 O  O9  1  0.00000  0.50000  0.02975  1
 O  O10  1  0.73131  0.23131  0.67329  1
 Pr  Pr1  1  0.50000  0.50000  0.50000  1
 Pr  Pr2  1  0.00000  0.00000  0.50000  1
