CIF file written using JARVIS-Tools package.
data_C
_symmetry_space_group_name_H-M  'P6_3/mmc'
_cell_length_a       2.52213
_cell_length_b       2.52213
_cell_length_c       16.5591
_cell_angle_alpha    90
_cell_angle_beta     90
_cell_angle_gamma    120

_symmetry_Int_Tables_number  194
_chemical_formula_structural  C
_chemical_formula_sum  C6
_cell_volume  91.2221832654381
_cell_formula_units_Z  16
loop_
  _symmetry_equiv_pos_site_id
 _symmetry_equiv_pos_as_xyz
 1  'x, y, z'
loop_
 _atom_site_type_symbol
 _atom_site_label
 _atom_site_symmetry_multiplicity
 _atom_site_fract_x
 _atom_site_fract_y
 _atom_site_fract_z
 _atom_site_fract_occupancy
 C  C1  1  0.00000  0.00000  0.95330  1
 C  C2  1  0.66667  0.33333  0.29742  1
 C  C3  1  0.33333  0.66667  0.79742  1
 C  C4  1  0.66667  0.33333  0.20258  1
 C  C5  1  0.33333  0.66667  0.07787  1
 C  C6  1  0.33333  0.66667  0.32879  1
 C  C7  1  0.33333  0.66667  0.42213  1
 C  C8  1  0.66667  0.33333  0.67121  1
 C  C9  1  0.33333  0.66667  0.70258  1
 C  C10  1  0.00000  0.00000  0.45330  1
 C  C11  1  0.00000  0.00000  0.04670  1
 C  C12  1  0.33333  0.66667  0.17121  1
 C  C13  1  0.66667  0.33333  0.82879  1
 C  C14  1  0.00000  0.00000  0.54670  1
 C  C15  1  0.66667  0.33333  0.57787  1
 C  C16  1  0.66667  0.33333  0.92213  1
