CIF file written using JARVIS-Tools package.
data_LiMg2
_symmetry_space_group_name_H-M  'Cmcm'
_cell_length_a       3.14818
_cell_length_b       8.29598
_cell_length_c       5.04355
_cell_angle_alpha    90
_cell_angle_beta     90
_cell_angle_gamma    79.0623

_symmetry_Int_Tables_number  63
_chemical_formula_structural  LiMg2
_chemical_formula_sum  Li2Mg4
_cell_volume  129.33066754897587
_cell_formula_units_Z  2
loop_
  _symmetry_equiv_pos_site_id
 _symmetry_equiv_pos_as_xyz
 1  'x, y, z'
loop_
 _atom_site_type_symbol
 _atom_site_label
 _atom_site_symmetry_multiplicity
 _atom_site_fract_x
 _atom_site_fract_y
 _atom_site_fract_z
 _atom_site_fract_occupancy
 Li  Li1  1  0.33260  0.33479  0.00000  1
 Li  Li2  1  0.11184  0.77632  0.50000  1
 Mg  Mg1  1  0.00042  -0.00085  0.00000  1
 Mg  Mg2  1  0.66702  0.66597  0.00000  1
 Mg  Mg3  1  0.44402  0.11196  0.50000  1
 Mg  Mg4  1  0.77743  0.44514  0.50000  1
