CIF file written using JARVIS-Tools package.
data_Pu2C3
_symmetry_space_group_name_H-M  'I-43d'
_cell_length_a       6.83078
_cell_length_b       6.83077
_cell_length_c       6.83077
_cell_angle_alpha    109.471
_cell_angle_beta     109.471
_cell_angle_gamma    109.471

_symmetry_Int_Tables_number  220
_chemical_formula_structural  Pu2C3
_chemical_formula_sum  Pu8C2
_cell_volume  245.35104896294098
_cell_formula_units_Z  4
loop_
  _symmetry_equiv_pos_site_id
 _symmetry_equiv_pos_as_xyz
 1  'x, y, z'
loop_
 _atom_site_type_symbol
 _atom_site_label
 _atom_site_symmetry_multiplicity
 _atom_site_fract_x
 _atom_site_fract_y
 _atom_site_fract_z
 _atom_site_fract_occupancy
 C  C1  1  0.03602  0.75000  0.78602  1
 C  C2  1  0.75000  0.96398  0.21398  1
 C  C3  1  0.28602  0.25000  0.53602  1
 C  C4  1  0.53602  0.28602  0.25000  1
 C  C5  1  0.21398  0.75000  0.96398  1
 C  C6  1  0.96398  0.21398  0.75000  1
 C  C7  1  0.25000  0.71398  0.46398  1
 C  C8  1  0.71398  0.46398  0.25000  1
 C  C9  1  0.75000  0.78602  0.03602  1
 C  C10  1  0.46398  0.25000  0.71398  1
 C  C11  1  0.78602  0.03602  0.75000  1
 C  C12  1  0.25000  0.53602  0.28602  1
 Pu  Pu1  1  0.90140  0.50000  -0.00000  1
 Pu  Pu2  1  0.59860  0.59860  0.59860  1
 Pu  Pu3  1  0.40140  0.50000  -0.00000  1
 Pu  Pu4  1  0.50000  0.00000  0.40140  1
 Pu  Pu5  1  0.00000  0.40140  0.50000  1
 Pu  Pu6  1  0.50000  0.00000  0.90140  1
 Pu  Pu7  1  0.00000  0.90140  0.50000  1
 Pu  Pu8  1  0.09860  0.09860  0.09860  1
