CIF file written using JARVIS-Tools package.
data_C
_symmetry_space_group_name_H-M  'P6/mmm'
_cell_length_a       4.30423
_cell_length_b       4.30423
_cell_length_c       4.26889
_cell_angle_alpha    90
_cell_angle_beta     90
_cell_angle_gamma    110.14

_symmetry_Int_Tables_number  191
_chemical_formula_structural  C
_chemical_formula_sum  C8
_cell_volume  74.2514756128038
_cell_formula_units_Z  8
loop_
  _symmetry_equiv_pos_site_id
 _symmetry_equiv_pos_as_xyz
 1  'x, y, z'
loop_
 _atom_site_type_symbol
 _atom_site_label
 _atom_site_symmetry_multiplicity
 _atom_site_fract_x
 _atom_site_fract_y
 _atom_site_fract_z
 _atom_site_fract_occupancy
 C  C1  1  0.00000  0.00000  0.33333  1
 C  C2  1  0.50000  0.50000  0.66667  1
 C  C3  1  0.00000  0.00000  0.66667  1
 C  C4  1  0.50000  0.50000  0.33333  1
 C  C5  1  0.75000  0.75000  0.83333  1
 C  C6  1  0.25000  0.25000  0.83333  1
 C  C7  1  0.75000  0.75000  0.16667  1
 C  C8  1  0.25000  0.25000  0.16667  1
