CIF file written using JARVIS-Tools package.
data_RbErO3
_symmetry_space_group_name_H-M  'Pm-3m'
_cell_length_a       4.44743
_cell_length_b       4.44711
_cell_length_c       4.44771
_cell_angle_alpha    90
_cell_angle_beta     90.003
_cell_angle_gamma    90

_symmetry_Int_Tables_number  221
_chemical_formula_structural  RbErO3
_chemical_formula_sum  RbErO3
_cell_volume  87.96768895820924
_cell_formula_units_Z  1
loop_
  _symmetry_equiv_pos_site_id
 _symmetry_equiv_pos_as_xyz
 1  'x, y, z'
loop_
 _atom_site_type_symbol
 _atom_site_label
 _atom_site_symmetry_multiplicity
 _atom_site_fract_x
 _atom_site_fract_y
 _atom_site_fract_z
 _atom_site_fract_occupancy
 Er  Er1  1  0.50001  0.50000  0.50002  1
 O  O1  1  0.50000  0.50000  0.00002  1
 O  O2  1  0.00001  0.50000  0.50000  1
 O  O3  1  0.50000  0.00000  0.49997  1
 Rb  Rb1  1  0.99997  0.00000  0.99999  1
