CIF file written using JARVIS-Tools package.
data_NdB4Ir4
_symmetry_space_group_name_H-M  'P4_2/n'
_cell_length_a       7.73992
_cell_length_b       7.73992
_cell_length_c       3.97382
_cell_angle_alpha    90
_cell_angle_beta     90
_cell_angle_gamma    90

_symmetry_Int_Tables_number  86
_chemical_formula_structural  NdB4Ir4
_chemical_formula_sum  Nd2B8Ir8
_cell_volume  238.05704236751217
_cell_formula_units_Z  2
loop_
  _symmetry_equiv_pos_site_id
 _symmetry_equiv_pos_as_xyz
 1  'x, y, z'
loop_
 _atom_site_type_symbol
 _atom_site_label
 _atom_site_symmetry_multiplicity
 _atom_site_fract_x
 _atom_site_fract_y
 _atom_site_fract_z
 _atom_site_fract_occupancy
 B  B1  1  0.65766  0.77721  0.60765  1
 B  B2  1  0.77721  0.34234  0.39235  1
 B  B3  1  0.84234  0.72279  0.89235  1
 B  B4  1  0.34234  0.22279  0.60765  1
 B  B5  1  0.22279  0.65766  0.39235  1
 B  B6  1  0.27721  0.84234  0.10765  1
 B  B7  1  0.15766  0.27721  0.89235  1
 B  B8  1  0.72279  0.15766  0.10765  1
 Ir  Ir1  1  0.16115  0.39200  0.39164  1
 Ir  Ir2  1  0.10800  0.66115  0.89164  1
 Ir  Ir3  1  0.60800  0.16115  0.60836  1
 Ir  Ir4  1  0.66115  0.89200  0.10836  1
 Ir  Ir5  1  0.39200  0.83885  0.60836  1
 Ir  Ir6  1  0.89200  0.33885  0.89164  1
 Ir  Ir7  1  0.83885  0.60800  0.39164  1
 Ir  Ir8  1  0.33885  0.10800  0.10836  1
 Nd  Nd1  1  0.00000  0.00000  0.50000  1
 Nd  Nd2  1  0.50000  0.50000  0.00000  1
