CIF file written using JARVIS-Tools package.
data_O
_symmetry_space_group_name_H-M  'C2/m'
_cell_length_a       3.34451
_cell_length_b       3.34451
_cell_length_c       4.19799
_cell_angle_alpha    116.127
_cell_angle_beta     116.127
_cell_angle_gamma    99.7657

_symmetry_Int_Tables_number  12
_chemical_formula_structural  O
_chemical_formula_sum  O2
_cell_volume  33.784068646192836
_cell_formula_units_Z  2
loop_
  _symmetry_equiv_pos_site_id
 _symmetry_equiv_pos_as_xyz
 1  'x, y, z'
loop_
 _atom_site_type_symbol
 _atom_site_label
 _atom_site_symmetry_multiplicity
 _atom_site_fract_x
 _atom_site_fract_y
 _atom_site_fract_z
 _atom_site_fract_occupancy
 O  O1  1  0.01102  0.01102  0.15423  1
 O  O2  1  0.98898  0.98898  0.84577  1
