CIF file written using JARVIS-Tools package.
data_Ca
_symmetry_space_group_name_H-M  'Im-3m'
_cell_length_a       4.30041
_cell_length_b       3.74273
_cell_length_c       3.74273
_cell_angle_alpha    70.7279
_cell_angle_beta     54.9351
_cell_angle_gamma    54.9351

_symmetry_Int_Tables_number  229
_chemical_formula_structural  Ca
_chemical_formula_sum  Ca
_cell_volume  40.35759880189395
_cell_formula_units_Z  1
loop_
  _symmetry_equiv_pos_site_id
 _symmetry_equiv_pos_as_xyz
 1  'x, y, z'
loop_
 _atom_site_type_symbol
 _atom_site_label
 _atom_site_symmetry_multiplicity
 _atom_site_fract_x
 _atom_site_fract_y
 _atom_site_fract_z
 _atom_site_fract_occupancy
 Ca  Ca1  1  0.00000  0.00000  0.00000  1
