CIF file written using JARVIS-Tools package.
data_NbS2
_symmetry_space_group_name_H-M  'I4/mmm'
_cell_length_a       3.07561
_cell_length_b       3.07561
_cell_length_c       6.24262
_cell_angle_alpha    104.261
_cell_angle_beta     104.261
_cell_angle_gamma    90

_symmetry_Int_Tables_number  139
_chemical_formula_structural  NbS2
_chemical_formula_sum  NbS2
_cell_volume  55.352174207500084
_cell_formula_units_Z  1
loop_
  _symmetry_equiv_pos_site_id
 _symmetry_equiv_pos_as_xyz
 1  'x, y, z'
loop_
 _atom_site_type_symbol
 _atom_site_label
 _atom_site_symmetry_multiplicity
 _atom_site_fract_x
 _atom_site_fract_y
 _atom_site_fract_z
 _atom_site_fract_occupancy
 Nb  Nb1  1  0.00000  0.00000  0.00000  1
 S  S1  1  0.62701  0.62701  0.25402  1
 S  S2  1  0.37299  0.37299  0.74598  1
