CIF file written using JARVIS-Tools package.
data_MgIn5
_symmetry_space_group_name_H-M  'P-6m2'
_cell_length_a       3.39218
_cell_length_b       3.39218
_cell_length_c       15.995
_cell_angle_alpha    90
_cell_angle_beta     90
_cell_angle_gamma    120

_symmetry_Int_Tables_number  187
_chemical_formula_structural  MgIn5
_chemical_formula_sum  MgIn5
_cell_volume  159.39412091157683
_cell_formula_units_Z  1
loop_
  _symmetry_equiv_pos_site_id
 _symmetry_equiv_pos_as_xyz
 1  'x, y, z'
loop_
 _atom_site_type_symbol
 _atom_site_label
 _atom_site_symmetry_multiplicity
 _atom_site_fract_x
 _atom_site_fract_y
 _atom_site_fract_z
 _atom_site_fract_occupancy
 In  In1  1  0.00000  0.00000  0.84535  1
 In  In2  1  0.66667  0.33333  0.67502  1
 In  In3  1  0.00000  0.00000  0.50000  1
 In  In4  1  0.66667  0.33333  0.32498  1
 In  In5  1  0.00000  0.00000  0.15465  1
 Mg  Mg1  1  0.66667  0.33333  0.00000  1
