CIF file written using JARVIS-Tools package.
data_ScAgO2
_symmetry_space_group_name_H-M  'R-3m'
_cell_length_a       6.49276
_cell_length_b       6.49276
_cell_length_c       6.49276
_cell_angle_alpha    28.7055
_cell_angle_beta     28.7055
_cell_angle_gamma    28.7055

_symmetry_Int_Tables_number  166
_chemical_formula_structural  ScAgO2
_chemical_formula_sum  ScAgO2
_cell_volume  55.82621696623062
_cell_formula_units_Z  1
loop_
  _symmetry_equiv_pos_site_id
 _symmetry_equiv_pos_as_xyz
 1  'x, y, z'
loop_
 _atom_site_type_symbol
 _atom_site_label
 _atom_site_symmetry_multiplicity
 _atom_site_fract_x
 _atom_site_fract_y
 _atom_site_fract_z
 _atom_site_fract_occupancy
 Ag  Ag1  1  0.00000  0.00000  0.00000  1
 O  O1  1  0.11140  0.11140  0.11140  1
 O  O2  1  0.88860  0.88860  0.88859  1
 Sc  Sc1  1  0.50000  0.50000  0.50000  1
