CIF file written using JARVIS-Tools package.
data_PrFe4P12
_symmetry_space_group_name_H-M  'Im-3'
_cell_length_a       6.81408
_cell_length_b       6.81409
_cell_length_c       6.81409
_cell_angle_alpha    109.471
_cell_angle_beta     109.471
_cell_angle_gamma    109.471

_symmetry_Int_Tables_number  204
_chemical_formula_structural  PrFe4P12
_chemical_formula_sum  PrFe4P2
_cell_volume  243.55729406007836
_cell_formula_units_Z  1
loop_
  _symmetry_equiv_pos_site_id
 _symmetry_equiv_pos_as_xyz
 1  'x, y, z'
loop_
 _atom_site_type_symbol
 _atom_site_label
 _atom_site_symmetry_multiplicity
 _atom_site_fract_x
 _atom_site_fract_y
 _atom_site_fract_z
 _atom_site_fract_occupancy
 Fe  Fe1  1  -0.00000  0.50000  0.00000  1
 Fe  Fe2  1  0.00000  0.00000  0.50000  1
 Fe  Fe3  1  0.50000  0.00000  -0.00000  1
 Fe  Fe4  1  0.50000  0.50000  0.50000  1
 P  P1  1  0.49602  0.84851  0.64750  1
 P  P2  1  0.20101  0.84851  0.35250  1
 P  P3  1  0.79899  0.15149  0.64750  1
 P  P4  1  0.15149  0.35250  0.50398  1
 P  P5  1  0.35250  0.50398  0.15149  1
 P  P6  1  0.50398  0.15149  0.35250  1
 P  P7  1  0.84851  0.64750  0.49602  1
 P  P8  1  0.35250  0.20101  0.84851  1
 P  P9  1  0.64750  0.79899  0.15149  1
 P  P10  1  0.84851  0.35250  0.20101  1
 P  P11  1  0.64750  0.49602  0.84851  1
 P  P12  1  0.15149  0.64750  0.79899  1
 Pr  Pr1  1  0.00000  0.00000  0.00000  1
