CIF file written using JARVIS-Tools package.
data_Sr2IrO4
_symmetry_space_group_name_H-M  'I4/mmm'
_cell_length_a       3.94421
_cell_length_b       3.94421
_cell_length_c       6.94604
_cell_angle_alpha    106.494
_cell_angle_beta     106.494
_cell_angle_gamma    90

_symmetry_Int_Tables_number  139
_chemical_formula_structural  Sr2IrO4
_chemical_formula_sum  Sr2IrO4
_cell_volume  98.96513935815143
_cell_formula_units_Z  1
loop_
  _symmetry_equiv_pos_site_id
 _symmetry_equiv_pos_as_xyz
 1  'x, y, z'
loop_
 _atom_site_type_symbol
 _atom_site_label
 _atom_site_symmetry_multiplicity
 _atom_site_fract_x
 _atom_site_fract_y
 _atom_site_fract_z
 _atom_site_fract_occupancy
 Ir  Ir1  1  0.00000  0.00000  0.00000  1
 O  O1  1  0.50000  -0.00000  -0.00000  1
 O  O2  1  -0.00000  0.50000  -0.00000  1
 O  O3  1  0.83657  0.83657  0.67314  1
 O  O4  1  0.16343  0.16343  0.32686  1
 Sr  Sr1  1  0.64597  0.64597  0.29193  1
 Sr  Sr2  1  0.35403  0.35403  0.70807  1
