CIF file written using JARVIS-Tools package.
data_Ti2CoS4
_symmetry_space_group_name_H-M  'C2/m'
_cell_length_a       3.37914
_cell_length_b       5.83953
_cell_length_c       6.47039
_cell_angle_alpha    116.198
_cell_angle_beta     105.137
_cell_angle_gamma    90

_symmetry_Int_Tables_number  12
_chemical_formula_structural  Ti2CoS4
_chemical_formula_sum  Ti2CoS4
_cell_volume  109.60308456036486
_cell_formula_units_Z  1
loop_
  _symmetry_equiv_pos_site_id
 _symmetry_equiv_pos_as_xyz
 1  'x, y, z'
loop_
 _atom_site_type_symbol
 _atom_site_label
 _atom_site_symmetry_multiplicity
 _atom_site_fract_x
 _atom_site_fract_y
 _atom_site_fract_z
 _atom_site_fract_occupancy
 Co  Co1  1  0.00000  0.00000  0.00000  1
 S  S1  1  0.11427  0.44309  0.22853  1
 S  S2  1  0.88573  0.55691  0.77147  1
 S  S3  1  0.37984  0.03965  0.75969  1
 S  S4  1  0.62016  0.96035  0.24031  1
 Ti  Ti1  1  0.25732  0.26589  0.51464  1
 Ti  Ti2  1  0.74268  0.73411  0.48536  1
