CIF file written using JARVIS-Tools package.
data_Tb2Si5Ru3
_symmetry_space_group_name_H-M  'Ibam'
_cell_length_a       5.65388
_cell_length_b       8.26711
_cell_length_c       8.26711
_cell_angle_alpha    71.6373
_cell_angle_beta     70.0042
_cell_angle_gamma    70.0043

_symmetry_Int_Tables_number  72
_chemical_formula_structural  Tb2Si5Ru3
_chemical_formula_sum  Tb4Si0Ru6
_cell_volume  332.5341411034753
_cell_formula_units_Z  2
loop_
  _symmetry_equiv_pos_site_id
 _symmetry_equiv_pos_as_xyz
 1  'x, y, z'
loop_
 _atom_site_type_symbol
 _atom_site_label
 _atom_site_symmetry_multiplicity
 _atom_site_fract_x
 _atom_site_fract_y
 _atom_site_fract_z
 _atom_site_fract_occupancy
 Ru  Ru1  1  0.25000  0.50000  0.50000  1
 Ru  Ru2  1  0.64572  0.76059  0.94796  1
 Ru  Ru3  1  0.35428  0.23941  0.05204  1
 Ru  Ru4  1  0.75000  0.50000  0.50000  1
 Ru  Ru5  1  0.85428  0.05204  0.23941  1
 Ru  Ru6  1  0.14572  0.94796  0.76059  1
 Si  Si1  1  0.59546  0.57292  0.23616  1
 Si  Si2  1  0.40454  0.42708  0.76384  1
 Si  Si3  1  0.75000  -0.00000  -0.00000  1
 Si  Si4  1  0.95875  0.29125  0.29125  1
 Si  Si5  1  0.54125  0.70875  0.70875  1
 Si  Si6  1  0.45875  0.29125  0.29125  1
 Si  Si7  1  0.25000  -0.00000  -0.00000  1
 Si  Si8  1  0.90454  0.76384  0.42708  1
 Si  Si9  1  0.09546  0.23616  0.57292  1
 Si  Si10  1  0.04125  0.70875  0.70875  1
 Tb  Tb1  1  0.36451  0.90321  0.36776  1
 Tb  Tb2  1  0.13549  0.63224  0.09679  1
 Tb  Tb3  1  0.86451  0.36776  0.90321  1
 Tb  Tb4  1  0.63549  0.09679  0.63224  1
