CIF file written using JARVIS-Tools package.
data_Ba3PrRu2O9
_symmetry_space_group_name_H-M  'P6_3/mmc'
_cell_length_a       5.97604
_cell_length_b       5.97604
_cell_length_c       14.9814
_cell_angle_alpha    90
_cell_angle_beta     90
_cell_angle_gamma    120

_symmetry_Int_Tables_number  194
_chemical_formula_structural  Ba3PrRu2O9
_chemical_formula_sum  Ba6Pr2Ru4O8
_cell_volume  463.34925399805877
_cell_formula_units_Z  2
loop_
  _symmetry_equiv_pos_site_id
 _symmetry_equiv_pos_as_xyz
 1  'x, y, z'
loop_
 _atom_site_type_symbol
 _atom_site_label
 _atom_site_symmetry_multiplicity
 _atom_site_fract_x
 _atom_site_fract_y
 _atom_site_fract_z
 _atom_site_fract_occupancy
 Ba  Ba1  1  0.33333  0.66667  0.60290  1
 Ba  Ba2  1  0.00000  0.00000  0.25000  1
 Ba  Ba3  1  0.66667  0.33333  0.39710  1
 Ba  Ba4  1  0.66667  0.33333  0.10290  1
 Ba  Ba5  1  0.33333  0.66667  0.89710  1
 Ba  Ba6  1  0.00000  0.00000  0.75000  1
 O  O1  1  0.64198  0.82099  0.40651  1
 O  O2  1  0.64198  0.82099  0.09349  1
 O  O3  1  0.82099  0.64198  0.59349  1
 O  O4  1  0.82099  0.17901  0.59349  1
 O  O5  1  0.48966  0.51034  0.25000  1
 O  O6  1  0.35802  0.17901  0.59349  1
 O  O7  1  0.35802  0.17901  0.90651  1
 O  O8  1  0.17901  0.35802  0.09349  1
 O  O9  1  0.17901  0.82099  0.09349  1
 O  O10  1  0.82099  0.64198  0.90651  1
 O  O11  1  0.82099  0.17901  0.90651  1
 O  O12  1  0.51034  0.48966  0.75000  1
 O  O13  1  0.48966  0.97931  0.25000  1
 O  O14  1  0.17901  0.82099  0.40651  1
 O  O15  1  0.97931  0.48966  0.75000  1
 O  O16  1  0.02069  0.51034  0.25000  1
 O  O17  1  0.17901  0.35802  0.40651  1
 O  O18  1  0.51034  0.02069  0.75000  1
 Pr  Pr1  1  0.00000  0.00000  0.00000  1
 Pr  Pr2  1  0.00000  0.00000  0.50000  1
 Ru  Ru1  1  0.33333  0.66667  0.33347  1
 Ru  Ru2  1  0.66667  0.33333  0.83347  1
 Ru  Ru3  1  0.66667  0.33333  0.66653  1
 Ru  Ru4  1  0.33333  0.66667  0.16653  1
