CIF file written using JARVIS-Tools package.
data_V2AsC
_symmetry_space_group_name_H-M  'P6_3/mmc'
_cell_length_a       3.12372
_cell_length_b       3.12372
_cell_length_c       11.3882
_cell_angle_alpha    90
_cell_angle_beta     90
_cell_angle_gamma    120

_symmetry_Int_Tables_number  194
_chemical_formula_structural  V2AsC
_chemical_formula_sum  V4As2C2
_cell_volume  96.23473516745767
_cell_formula_units_Z  2
loop_
  _symmetry_equiv_pos_site_id
 _symmetry_equiv_pos_as_xyz
 1  'x, y, z'
loop_
 _atom_site_type_symbol
 _atom_site_label
 _atom_site_symmetry_multiplicity
 _atom_site_fract_x
 _atom_site_fract_y
 _atom_site_fract_z
 _atom_site_fract_occupancy
 As  As1  1  0.66667  0.33333  0.25000  1
 As  As2  1  0.33333  0.66667  0.75000  1
 C  C1  1  0.00000  0.00000  0.50000  1
 C  C2  1  0.00000  0.00000  0.00000  1
 V  V1  1  0.66667  0.33333  0.59106  1
 V  V2  1  0.33333  0.66667  0.40894  1
 V  V3  1  0.33333  0.66667  0.09106  1
 V  V4  1  0.66667  0.33333  0.90894  1
