CIF file written using JARVIS-Tools package.
data_Pr
_symmetry_space_group_name_H-M  'P6_3/mmc'
_cell_length_a       3.69432
_cell_length_b       3.69495
_cell_length_c       6.04261
_cell_angle_alpha    90
_cell_angle_beta     90
_cell_angle_gamma    119.994

_symmetry_Int_Tables_number  194
_chemical_formula_structural  Pr
_chemical_formula_sum  Pr2
_cell_volume  71.43683596006247
_cell_formula_units_Z  2
loop_
  _symmetry_equiv_pos_site_id
 _symmetry_equiv_pos_as_xyz
 1  'x, y, z'
loop_
 _atom_site_type_symbol
 _atom_site_label
 _atom_site_symmetry_multiplicity
 _atom_site_fract_x
 _atom_site_fract_y
 _atom_site_fract_z
 _atom_site_fract_occupancy
 Pr  Pr1  1  0.16655  0.33310  0.25000  1
 Pr  Pr2  1  0.83345  0.66690  0.75000  1
