CIF file written using JARVIS-Tools package.
data_IClOF
_symmetry_space_group_name_H-M  'P2_1/c'
_cell_length_a       7.51783
_cell_length_b       7.0425
_cell_length_c       12.7754
_cell_angle_alpha    90
_cell_angle_beta     95.2533
_cell_angle_gamma    90

_symmetry_Int_Tables_number  14
_chemical_formula_structural  IClOF
_chemical_formula_sum  I8Cl8O8F8
_cell_volume  673.5460219522404
_cell_formula_units_Z  8
loop_
  _symmetry_equiv_pos_site_id
 _symmetry_equiv_pos_as_xyz
 1  'x, y, z'
loop_
 _atom_site_type_symbol
 _atom_site_label
 _atom_site_symmetry_multiplicity
 _atom_site_fract_x
 _atom_site_fract_y
 _atom_site_fract_z
 _atom_site_fract_occupancy
 Cl  Cl1  1  0.21575  0.62510  0.93602  1
 Cl  Cl2  1  0.71575  0.87490  0.93602  1
 Cl  Cl3  1  0.53918  0.76119  0.15501  1
 Cl  Cl4  1  0.46082  0.23881  0.84499  1
 Cl  Cl5  1  0.03918  0.73881  0.15501  1
 Cl  Cl6  1  0.78425  0.37490  0.06398  1
 Cl  Cl7  1  0.28425  0.12510  0.06398  1
 Cl  Cl8  1  0.96082  0.26119  0.84499  1
 F  F1  1  0.91732  0.36732  0.42420  1
 F  F2  1  0.25863  0.16697  0.60793  1
 F  F3  1  0.74137  0.83303  0.39207  1
 F  F4  1  0.08268  0.63268  0.57580  1
 F  F5  1  0.58268  0.86732  0.57580  1
 F  F6  1  0.41732  0.13268  0.42420  1
 F  F7  1  0.75863  0.33303  0.60793  1
 F  F8  1  0.24137  0.66697  0.39207  1
 I  I1  1  0.69044  0.60222  0.58572  1
 I  I2  1  0.85609  0.95785  0.78184  1
 I  I3  1  0.19044  0.89778  0.58572  1
 I  I4  1  0.14391  0.04215  0.21816  1
 I  I5  1  0.35609  0.54215  0.78184  1
 I  I6  1  0.64391  0.45785  0.21816  1
 I  I7  1  0.80956  0.10222  0.41428  1
 I  I8  1  0.30956  0.39778  0.41428  1
 O  O1  1  0.77060  0.64902  0.72243  1
 O  O2  1  0.27060  0.85098  0.72243  1
 O  O3  1  0.03976  0.02565  0.39525  1
 O  O4  1  0.46024  0.52565  0.60475  1
 O  O5  1  0.22940  0.35098  0.27757  1
 O  O6  1  0.53976  0.47435  0.39525  1
 O  O7  1  0.96024  0.97435  0.60475  1
 O  O8  1  0.72940  0.14902  0.27757  1
