CIF file written using JARVIS-Tools package.
data_K2SbAu
_symmetry_space_group_name_H-M  'Cmcm'
_cell_length_a       6.57057
_cell_length_b       6.51281
_cell_length_c       6.51281
_cell_angle_alpha    106.223
_cell_angle_beta     90
_cell_angle_gamma    90

_symmetry_Int_Tables_number  63
_chemical_formula_structural  K2SbAu
_chemical_formula_sum  K4Sb2Au2
_cell_volume  267.604506005614
_cell_formula_units_Z  2
loop_
  _symmetry_equiv_pos_site_id
 _symmetry_equiv_pos_as_xyz
 1  'x, y, z'
loop_
 _atom_site_type_symbol
 _atom_site_label
 _atom_site_symmetry_multiplicity
 _atom_site_fract_x
 _atom_site_fract_y
 _atom_site_fract_z
 _atom_site_fract_occupancy
 Au  Au1  1  0.00000  0.00000  0.00000  1
 Au  Au2  1  0.50000  0.00000  0.00000  1
 K  K1  1  0.75000  0.50177  0.15889  1
 K  K2  1  0.25000  0.84111  0.49823  1
 K  K3  1  0.75000  0.15889  0.50177  1
 K  K4  1  0.25000  0.49823  0.84111  1
 Sb  Sb1  1  0.25000  0.27270  0.27270  1
 Sb  Sb2  1  0.75000  0.72730  0.72730  1
