CIF file written using JARVIS-Tools package.
data_Ta5N6
_symmetry_space_group_name_H-M  'P6_3/mcm'
_cell_length_a       5.21832
_cell_length_b       5.21832
_cell_length_c       10.4821
_cell_angle_alpha    90
_cell_angle_beta     90
_cell_angle_gamma    120

_symmetry_Int_Tables_number  193
_chemical_formula_structural  Ta5N6
_chemical_formula_sum  Ta0N2
_cell_volume  247.19633686714923
_cell_formula_units_Z  2
loop_
  _symmetry_equiv_pos_site_id
 _symmetry_equiv_pos_as_xyz
 1  'x, y, z'
loop_
 _atom_site_type_symbol
 _atom_site_label
 _atom_site_symmetry_multiplicity
 _atom_site_fract_x
 _atom_site_fract_y
 _atom_site_fract_z
 _atom_site_fract_occupancy
 N  N1  1  0.00000  0.34034  0.87803  1
 N  N2  1  0.34034  0.34034  0.37803  1
 N  N3  1  0.65966  0.65966  0.62197  1
 N  N4  1  0.00000  0.34034  0.62197  1
 N  N5  1  -0.00000  0.65966  0.12197  1
 N  N6  1  0.34034  0.00000  0.62197  1
 N  N7  1  0.65966  -0.00000  0.12197  1
 N  N8  1  0.34034  0.34034  0.12197  1
 N  N9  1  0.65966  -0.00000  0.37803  1
 N  N10  1  -0.00000  0.65966  0.37803  1
 N  N11  1  0.34034  0.00000  0.87803  1
 N  N12  1  0.65966  0.65966  0.87803  1
 Ta  Ta1  1  0.33333  0.66667  0.00000  1
 Ta  Ta2  1  0.66667  0.33333  0.50000  1
 Ta  Ta3  1  0.66667  0.33333  0.00000  1
 Ta  Ta4  1  0.33333  0.66667  0.50000  1
 Ta  Ta5  1  0.32376  0.32376  0.75000  1
 Ta  Ta6  1  0.32376  -0.00000  0.25000  1
 Ta  Ta7  1  -0.00000  0.32376  0.25000  1
 Ta  Ta8  1  0.00000  0.67624  0.75000  1
 Ta  Ta9  1  0.67624  0.00000  0.75000  1
 Ta  Ta10  1  0.67624  0.67624  0.25000  1
