CIF file written using JARVIS-Tools package.
data_Al9Co2
_symmetry_space_group_name_H-M  'P2_1/c'
_cell_length_a       6.22588
_cell_length_b       6.3042
_cell_length_c       8.57926
_cell_angle_alpha    90
_cell_angle_beta     94.676
_cell_angle_gamma    90

_symmetry_Int_Tables_number  14
_chemical_formula_structural  Al9Co2
_chemical_formula_sum  Al8Co4
_cell_volume  335.6085237270896
_cell_formula_units_Z  2
loop_
  _symmetry_equiv_pos_site_id
 _symmetry_equiv_pos_as_xyz
 1  'x, y, z'
loop_
 _atom_site_type_symbol
 _atom_site_label
 _atom_site_symmetry_multiplicity
 _atom_site_fract_x
 _atom_site_fract_y
 _atom_site_fract_z
 _atom_site_fract_occupancy
 Al  Al1  1  0.00000  0.00000  0.00000  1
 Al  Al2  1  0.91227  0.70801  0.77227  1
 Al  Al3  1  -0.00000  0.50000  0.50000  1
 Al  Al4  1  0.40502  0.96977  0.26946  1
 Al  Al5  1  0.59498  0.46977  0.23054  1
 Al  Al6  1  0.59498  0.03023  0.73054  1
 Al  Al7  1  0.40502  0.53023  0.76946  1
 Al  Al8  1  0.08773  0.29199  0.22773  1
 Al  Al9  1  0.39001  0.19038  0.99713  1
 Al  Al10  1  0.91227  0.79199  0.27227  1
 Al  Al11  1  0.60999  0.69038  0.50287  1
 Al  Al12  1  0.60999  0.80962  0.00287  1
 Al  Al13  1  0.39001  0.30962  0.49713  1
 Al  Al14  1  0.21698  0.61642  0.04537  1
 Al  Al15  1  0.78302  0.11642  0.45463  1
 Al  Al16  1  0.78302  0.38358  0.95463  1
 Al  Al17  1  0.21698  0.88358  0.54537  1
 Al  Al18  1  0.08773  0.20801  0.72773  1
 Co  Co1  1  0.73649  0.12007  0.16643  1
 Co  Co2  1  0.73649  0.37993  0.66643  1
 Co  Co3  1  0.26351  0.62007  0.33357  1
 Co  Co4  1  0.26351  0.87993  0.83357  1
