CIF file written using JARVIS-Tools package.
data_Nb5Ge3
_symmetry_space_group_name_H-M  'I4/mcm'
_cell_length_a       5.18574
_cell_length_b       7.69356
_cell_length_c       7.69356
_cell_angle_alpha    83.4782
_cell_angle_beta     70.3047
_cell_angle_gamma    70.3046

_symmetry_Int_Tables_number  140
_chemical_formula_structural  Nb5Ge3
_chemical_formula_sum  Nb0Ge6
_cell_volume  272.0848943766869
_cell_formula_units_Z  2
loop_
  _symmetry_equiv_pos_site_id
 _symmetry_equiv_pos_as_xyz
 1  'x, y, z'
loop_
 _atom_site_type_symbol
 _atom_site_label
 _atom_site_symmetry_multiplicity
 _atom_site_fract_x
 _atom_site_fract_y
 _atom_site_fract_z
 _atom_site_fract_occupancy
 Ge  Ge1  1  0.83437  0.50000  0.83126  1
 Ge  Ge2  1  0.66563  0.16874  0.50000  1
 Ge  Ge3  1  0.33437  0.83126  0.50000  1
 Ge  Ge4  1  0.16563  0.50000  0.16874  1
 Ge  Ge5  1  0.75000  0.00000  -0.00000  1
 Ge  Ge6  1  0.25000  0.00000  0.00000  1
 Nb  Nb1  1  0.27698  0.14724  0.29880  1
 Nb  Nb2  1  0.72302  0.85276  0.70120  1
 Nb  Nb3  1  0.42422  0.29880  0.85276  1
 Nb  Nb4  1  0.57578  0.70120  0.14724  1
 Nb  Nb5  1  0.92422  0.85276  0.29880  1
 Nb  Nb6  1  0.22302  0.70120  0.85276  1
 Nb  Nb7  1  0.77698  0.29880  0.14724  1
 Nb  Nb8  1  0.07578  0.14724  0.70120  1
 Nb  Nb9  1  0.75000  0.50000  0.50000  1
 Nb  Nb10  1  0.25000  0.50000  0.50000  1
