CIF file written using JARVIS-Tools package.
data_Tl3PS4
_symmetry_space_group_name_H-M  'Pnma'
_cell_length_a       8.86586
_cell_length_b       9.08343
_cell_length_c       10.8679
_cell_angle_alpha    90
_cell_angle_beta     90
_cell_angle_gamma    90

_symmetry_Int_Tables_number  62
_chemical_formula_structural  Tl3PS4
_chemical_formula_sum  Tl2P4S6
_cell_volume  875.2197716396432
_cell_formula_units_Z  4
loop_
  _symmetry_equiv_pos_site_id
 _symmetry_equiv_pos_as_xyz
 1  'x, y, z'
loop_
 _atom_site_type_symbol
 _atom_site_label
 _atom_site_symmetry_multiplicity
 _atom_site_fract_x
 _atom_site_fract_y
 _atom_site_fract_z
 _atom_site_fract_occupancy
 P  P1  1  0.77723  0.47365  0.75000  1
 P  P2  1  0.27723  0.02635  0.75000  1
 P  P3  1  0.72277  0.97365  0.25000  1
 P  P4  1  0.22277  0.52635  0.25000  1
 S  S1  1  0.66068  0.53466  0.90588  1
 S  S2  1  0.33932  0.46534  0.40588  1
 S  S3  1  0.83932  0.03466  0.09412  1
 S  S4  1  0.16068  0.96534  0.59412  1
 S  S5  1  0.50930  0.06430  0.25000  1
 S  S6  1  0.49070  0.93570  0.75000  1
 S  S7  1  0.69871  0.74532  0.25000  1
 S  S8  1  0.19871  0.75468  0.25000  1
 S  S9  1  0.80129  0.24532  0.75000  1
 S  S10  1  0.30129  0.25468  0.75000  1
 S  S11  1  0.33932  0.46534  0.09412  1
 S  S12  1  0.00930  0.43570  0.25000  1
 S  S13  1  0.16068  0.96534  0.90588  1
 S  S14  1  0.83932  0.03466  0.40588  1
 S  S15  1  0.99070  0.56430  0.75000  1
 S  S16  1  0.66068  0.53466  0.59412  1
 Tl  Tl1  1  0.44167  0.80295  0.04844  1
 Tl  Tl2  1  0.94167  0.69705  0.45156  1
 Tl  Tl3  1  0.05833  0.30295  0.95156  1
 Tl  Tl4  1  0.55833  0.19705  0.54844  1
 Tl  Tl5  1  0.55833  0.19705  0.95156  1
 Tl  Tl6  1  0.05833  0.30295  0.54844  1
 Tl  Tl7  1  0.94167  0.69705  0.04844  1
 Tl  Tl8  1  0.44167  0.80295  0.45156  1
 Tl  Tl9  1  0.61882  0.39221  0.25000  1
 Tl  Tl10  1  0.11882  0.10779  0.25000  1
 Tl  Tl11  1  0.88118  0.89221  0.75000  1
 Tl  Tl12  1  0.38118  0.60779  0.75000  1
