CIF file written using JARVIS-Tools package.
data_Li2FeP2S6
_symmetry_space_group_name_H-M  'P312'
_cell_length_a       6.01094
_cell_length_b       6.01089
_cell_length_c       6.47392
_cell_angle_alpha    89.9981
_cell_angle_beta     90.0038
_cell_angle_gamma    120

_symmetry_Int_Tables_number  149
_chemical_formula_structural  Li2FeP2S6
_chemical_formula_sum  Li2FeP2S6
_cell_volume  202.5720251835156
_cell_formula_units_Z  1
loop_
  _symmetry_equiv_pos_site_id
 _symmetry_equiv_pos_as_xyz
 1  'x, y, z'
loop_
 _atom_site_type_symbol
 _atom_site_label
 _atom_site_symmetry_multiplicity
 _atom_site_fract_x
 _atom_site_fract_y
 _atom_site_fract_z
 _atom_site_fract_occupancy
 Fe  Fe1  1  0.66666  0.33334  0.50000  1
 Li  Li1  1  0.33337  0.66670  0.50000  1
 Li  Li2  1  0.33339  0.66669  0.00000  1
 P  P1  1  0.99999  0.00001  0.32756  1
 P  P2  1  0.00002  0.00000  0.67243  1
 S  S1  1  0.98686  0.66219  0.25411  1
 S  S2  1  0.98690  0.32470  0.74588  1
 S  S3  1  0.67530  0.01315  0.25412  1
 S  S4  1  0.67534  0.66217  0.74590  1
 S  S5  1  0.33785  0.01314  0.74587  1
 S  S6  1  0.33781  0.32470  0.25411  1
