CIF file written using JARVIS-Tools package.
data_YCo
_symmetry_space_group_name_H-M  'R-3m'
_cell_length_a       3.88235
_cell_length_b       3.88234
_cell_length_c       7.14226
_cell_angle_alpha    105.771
_cell_angle_beta     74.2294
_cell_angle_gamma    120

_symmetry_Int_Tables_number  166
_chemical_formula_structural  YCo
_chemical_formula_sum  Y2Co2
_cell_volume  88.51935094028606
_cell_formula_units_Z  2
loop_
  _symmetry_equiv_pos_site_id
 _symmetry_equiv_pos_as_xyz
 1  'x, y, z'
loop_
 _atom_site_type_symbol
 _atom_site_label
 _atom_site_symmetry_multiplicity
 _atom_site_fract_x
 _atom_site_fract_y
 _atom_site_fract_z
 _atom_site_fract_occupancy
 Co  Co1  1  0.33243  0.66757  0.00268  1
 Co  Co2  1  0.66757  0.33243  0.99732  1
 Y  Y1  1  0.91126  0.08874  0.26621  1
 Y  Y2  1  0.08874  0.91126  0.73379  1
