CIF file written using JARVIS-Tools package.
data_NdF3
_symmetry_space_group_name_H-M  'P6_3cm'
_cell_length_a       7.04537
_cell_length_b       7.04537
_cell_length_c       7.24647
_cell_angle_alpha    90
_cell_angle_beta     90
_cell_angle_gamma    120

_symmetry_Int_Tables_number  185
_chemical_formula_structural  NdF3
_chemical_formula_sum  Nd6F8
_cell_volume  311.50524719204776
_cell_formula_units_Z  6
loop_
  _symmetry_equiv_pos_site_id
 _symmetry_equiv_pos_as_xyz
 1  'x, y, z'
loop_
 _atom_site_type_symbol
 _atom_site_label
 _atom_site_symmetry_multiplicity
 _atom_site_fract_x
 _atom_site_fract_y
 _atom_site_fract_z
 _atom_site_fract_occupancy
 F  F1  1  0.33333  0.66667  0.70578  1
 F  F2  1  0.62103  0.00000  0.42264  1
 F  F3  1  0.62103  0.62103  0.92264  1
 F  F4  1  1.00000  0.37897  0.92264  1
 F  F5  1  0.00000  0.62103  0.42264  1
 F  F6  1  0.37897  0.37897  0.42264  1
 F  F7  1  0.72371  0.72371  0.58451  1
 F  F8  1  0.00000  0.00000  0.32755  1
 F  F9  1  0.37897  1.00000  0.92264  1
 F  F10  1  0.33333  0.66667  0.20578  1
 F  F11  1  0.66667  0.33333  0.70578  1
 F  F12  1  0.72371  1.00000  0.08451  1
 F  F13  1  0.66667  0.33333  0.20578  1
 F  F14  1  0.27629  0.00000  0.58451  1
 F  F15  1  0.27629  0.27629  0.08451  1
 F  F16  1  1.00000  0.72371  0.08451  1
 F  F17  1  0.00000  0.27629  0.58451  1
 F  F18  1  0.00000  0.00000  0.82755  1
 Nd  Nd1  1  0.32553  0.00000  0.25316  1
 Nd  Nd2  1  0.32553  0.32553  0.75316  1
 Nd  Nd3  1  1.00000  0.67447  0.75316  1
 Nd  Nd4  1  0.00000  0.32553  0.25316  1
 Nd  Nd5  1  0.67447  0.67447  0.25316  1
 Nd  Nd6  1  0.67447  1.00000  0.75316  1
