CIF file written using JARVIS-Tools package.
data_KLiZnO2
_symmetry_space_group_name_H-M  'C2/m'
_cell_length_a       3.35255
_cell_length_b       5.66947
_cell_length_c       7.44389
_cell_angle_alpha    76.6289
_cell_angle_beta     76.9825
_cell_angle_gamma    72.8031

_symmetry_Int_Tables_number  12
_chemical_formula_structural  KLiZnO2
_chemical_formula_sum  K2Li2Zn2O4
_cell_volume  129.611575809376
_cell_formula_units_Z  2
loop_
  _symmetry_equiv_pos_site_id
 _symmetry_equiv_pos_as_xyz
 1  'x, y, z'
loop_
 _atom_site_type_symbol
 _atom_site_label
 _atom_site_symmetry_multiplicity
 _atom_site_fract_x
 _atom_site_fract_y
 _atom_site_fract_z
 _atom_site_fract_occupancy
 K  K1  1  0.16231  0.30595  0.36931  1
 K  K2  1  0.83769  0.69405  0.63069  1
 Li  Li1  1  0.65889  0.62741  0.05479  1
 Li  Li2  1  0.34111  0.37259  0.94521  1
 O  O1  1  0.53711  0.23382  0.69205  1
 O  O2  1  0.46289  0.76618  0.30795  1
 O  O3  1  0.16302  0.73617  0.93783  1
 O  O4  1  0.83698  0.26383  0.06217  1
 Zn  Zn1  1  0.95432  0.90666  0.18467  1
 Zn  Zn2  1  0.04568  0.09334  0.81533  1
