CIF file written using JARVIS-Tools package.
data_SmF3
_symmetry_space_group_name_H-M  'P6_3/mcm'
_cell_length_a       6.96699
_cell_length_b       6.96699
_cell_length_c       6.9537
_cell_angle_alpha    90
_cell_angle_beta     90
_cell_angle_gamma    120

_symmetry_Int_Tables_number  193
_chemical_formula_structural  SmF3
_chemical_formula_sum  Sm6F8
_cell_volume  292.30542209853144
_cell_formula_units_Z  6
loop_
  _symmetry_equiv_pos_site_id
 _symmetry_equiv_pos_as_xyz
 1  'x, y, z'
loop_
 _atom_site_type_symbol
 _atom_site_label
 _atom_site_symmetry_multiplicity
 _atom_site_fract_x
 _atom_site_fract_y
 _atom_site_fract_z
 _atom_site_fract_occupancy
 F  F1  1  0.34359  0.34359  0.83359  1
 F  F2  1  0.00000  0.00000  0.25000  1
 F  F3  1  0.00000  0.00000  0.75000  1
 F  F4  1  0.33333  0.66667  0.50000  1
 F  F5  1  0.66667  0.33333  -0.00000  1
 F  F6  1  0.66667  0.33333  0.50000  1
 F  F7  1  0.00000  0.34359  0.66641  1
 F  F8  1  0.00000  0.65641  0.83359  1
 F  F9  1  0.33333  0.66667  0.00000  1
 F  F10  1  0.34359  0.00000  0.33359  1
 F  F11  1  0.65641  -0.00000  0.83359  1
 F  F12  1  0.65641  0.65641  0.66641  1
 F  F13  1  -0.00000  0.65641  0.16641  1
 F  F14  1  0.34359  0.34359  0.16641  1
 F  F15  1  -0.00000  0.34359  0.33359  1
 F  F16  1  0.65641  0.00000  0.16641  1
 F  F17  1  0.34359  -0.00000  0.66641  1
 F  F18  1  0.65641  0.65641  0.33359  1
 Sm  Sm1  1  0.67134  0.67134  0.00000  1
 Sm  Sm2  1  0.67134  -0.00000  0.50000  1
 Sm  Sm3  1  -0.00000  0.67134  0.50000  1
 Sm  Sm4  1  0.00000  0.32866  0.00000  1
 Sm  Sm5  1  0.32866  0.00000  0.00000  1
 Sm  Sm6  1  0.32866  0.32866  0.50000  1
