CIF file written using JARVIS-Tools package.
data_Si
_symmetry_space_group_name_H-M  'Ia-3'
_cell_length_a       5.81177
_cell_length_b       5.81177
_cell_length_c       5.81177
_cell_angle_alpha    109.471
_cell_angle_beta     109.471
_cell_angle_gamma    109.471

_symmetry_Int_Tables_number  206
_chemical_formula_structural  Si
_chemical_formula_sum  Si8
_cell_volume  151.11347446345042
_cell_formula_units_Z  8
loop_
  _symmetry_equiv_pos_site_id
 _symmetry_equiv_pos_as_xyz
 1  'x, y, z'
loop_
 _atom_site_type_symbol
 _atom_site_label
 _atom_site_symmetry_multiplicity
 _atom_site_fract_x
 _atom_site_fract_y
 _atom_site_fract_z
 _atom_site_fract_occupancy
 Si  Si1  1  0.20198  0.20198  0.20198  1
 Si  Si2  1  -0.00000  0.29802  0.50000  1
 Si  Si3  1  0.50000  0.00000  0.29802  1
 Si  Si4  1  0.29802  0.50000  0.00000  1
 Si  Si5  1  0.79802  0.79802  0.79802  1
 Si  Si6  1  0.00000  0.70198  0.50000  1
 Si  Si7  1  0.50000  -0.00000  0.70198  1
 Si  Si8  1  0.70198  0.50000  -0.00000  1
