CIF file written using JARVIS-Tools package.
data_IrC2
_symmetry_space_group_name_H-M  'I4/mmm'
_cell_length_a       3.45325
_cell_length_b       3.45325
_cell_length_c       3.63588
_cell_angle_alpha    118.352
_cell_angle_beta     118.352
_cell_angle_gamma    90

_symmetry_Int_Tables_number  139
_chemical_formula_structural  IrC2
_chemical_formula_sum  IrC2
_cell_volume  32.124747188260436
_cell_formula_units_Z  1
loop_
  _symmetry_equiv_pos_site_id
 _symmetry_equiv_pos_as_xyz
 1  'x, y, z'
loop_
 _atom_site_type_symbol
 _atom_site_label
 _atom_site_symmetry_multiplicity
 _atom_site_fract_x
 _atom_site_fract_y
 _atom_site_fract_z
 _atom_site_fract_occupancy
 C  C1  1  0.62098  0.62098  0.24197  1
 C  C2  1  0.37902  0.37902  0.75803  1
 Ir  Ir1  1  0.00000  0.00000  0.00000  1
