CIF file written using JARVIS-Tools package.
data_ZrNi2P2
_symmetry_space_group_name_H-M  'I4/mmm'
_cell_length_a       3.71124
_cell_length_b       3.71124
_cell_length_c       5.50994
_cell_angle_alpha    109.681
_cell_angle_beta     109.68
_cell_angle_gamma    90.0001

_symmetry_Int_Tables_number  139
_chemical_formula_structural  ZrNi2P2
_chemical_formula_sum  ZrNi2P2
_cell_volume  66.72986047771501
_cell_formula_units_Z  1
loop_
  _symmetry_equiv_pos_site_id
 _symmetry_equiv_pos_as_xyz
 1  'x, y, z'
loop_
 _atom_site_type_symbol
 _atom_site_label
 _atom_site_symmetry_multiplicity
 _atom_site_fract_x
 _atom_site_fract_y
 _atom_site_fract_z
 _atom_site_fract_occupancy
 Ni  Ni1  1  0.75000  0.25000  0.50000  1
 Ni  Ni2  1  0.25000  0.75000  0.50000  1
 P  P1  1  0.61834  0.61834  0.23669  1
 P  P2  1  0.38166  0.38166  0.76331  1
 Zr  Zr1  1  0.00000  0.00000  0.00000  1
