CIF file written using JARVIS-Tools package.
data_NdFe4P12
_symmetry_space_group_name_H-M  'Im-3'
_cell_length_a       6.807
_cell_length_b       6.80701
_cell_length_c       6.807
_cell_angle_alpha    109.471
_cell_angle_beta     109.471
_cell_angle_gamma    109.471

_symmetry_Int_Tables_number  204
_chemical_formula_structural  NdFe4P12
_chemical_formula_sum  NdFe4P2
_cell_volume  242.7985194903678
_cell_formula_units_Z  1
loop_
  _symmetry_equiv_pos_site_id
 _symmetry_equiv_pos_as_xyz
 1  'x, y, z'
loop_
 _atom_site_type_symbol
 _atom_site_label
 _atom_site_symmetry_multiplicity
 _atom_site_fract_x
 _atom_site_fract_y
 _atom_site_fract_z
 _atom_site_fract_occupancy
 Fe  Fe1  1  -0.00000  0.50000  -0.00000  1
 Fe  Fe2  1  0.00000  0.00000  0.50000  1
 Fe  Fe3  1  0.50000  0.00000  0.00000  1
 Fe  Fe4  1  0.50000  0.50000  0.50000  1
 Nd  Nd1  1  0.00000  0.00000  0.00000  1
 P  P1  1  0.20094  0.84877  0.35217  1
 P  P2  1  0.79906  0.15123  0.64783  1
 P  P3  1  0.15123  0.35217  0.50340  1
 P  P4  1  0.35217  0.50340  0.15123  1
 P  P5  1  0.50340  0.15123  0.35217  1
 P  P6  1  0.49660  0.84877  0.64783  1
 P  P7  1  0.35217  0.20094  0.84877  1
 P  P8  1  0.64783  0.79906  0.15123  1
 P  P9  1  0.84877  0.35217  0.20094  1
 P  P10  1  0.64783  0.49660  0.84877  1
 P  P11  1  0.15123  0.64783  0.79906  1
 P  P12  1  0.84877  0.64783  0.49660  1
