CIF file written using JARVIS-Tools package.
data_Fe15Co
_symmetry_space_group_name_H-M  'Pm-3m'
_cell_length_a       5.65918
_cell_length_b       5.65918
_cell_length_c       5.65918
_cell_angle_alpha    90
_cell_angle_beta     90
_cell_angle_gamma    90

_symmetry_Int_Tables_number  221
_chemical_formula_structural  Fe15Co
_chemical_formula_sum  Fe5Co
_cell_volume  181.2424248845746
_cell_formula_units_Z  1
loop_
  _symmetry_equiv_pos_site_id
 _symmetry_equiv_pos_as_xyz
 1  'x, y, z'
loop_
 _atom_site_type_symbol
 _atom_site_label
 _atom_site_symmetry_multiplicity
 _atom_site_fract_x
 _atom_site_fract_y
 _atom_site_fract_z
 _atom_site_fract_occupancy
 Co  Co1  1  0.00000  0.00000  0.00000  1
 Fe  Fe1  1  0.50000  0.50000  0.50000  1
 Fe  Fe2  1  0.50000  0.00000  0.50000  1
 Fe  Fe3  1  0.50000  0.50000  0.00000  1
 Fe  Fe4  1  0.00000  0.50000  0.50000  1
 Fe  Fe5  1  0.50000  0.00000  0.00000  1
 Fe  Fe6  1  0.00000  0.00000  0.50000  1
 Fe  Fe7  1  0.00000  0.50000  0.00000  1
 Fe  Fe8  1  0.24979  0.24979  0.24979  1
 Fe  Fe9  1  0.24979  0.75021  0.24979  1
 Fe  Fe10  1  0.24979  0.24979  0.75021  1
 Fe  Fe11  1  0.75021  0.24979  0.24979  1
 Fe  Fe12  1  0.75021  0.75021  0.24979  1
 Fe  Fe13  1  0.24979  0.75021  0.75021  1
 Fe  Fe14  1  0.75021  0.24979  0.75021  1
 Fe  Fe15  1  0.75021  0.75021  0.75021  1
