data_image0
_chemical_formula_structural       N6O12Si6Y6
_chemical_formula_sum              "N6 O12 Si6 Y6"
_cell_length_a       6.89495
_cell_length_b       6.89495
_cell_length_c       9.22396
_cell_angle_alpha    90
_cell_angle_beta     90
_cell_angle_gamma    120.203

_space_group_name_H-M_alt    "P 1"
_space_group_IT_number       1

loop_
  _space_group_symop_operation_xyz
  'x, y, z'

loop_
  _atom_site_type_symbol
  _atom_site_label
  _atom_site_symmetry_multiplicity
  _atom_site_fract_x
  _atom_site_fract_y
  _atom_site_fract_z
  _atom_site_occupancy
  N   N1        1.0  0.16300  0.92000  0.25000  1.0000
  N   N2        1.0  0.83700  0.07980  0.75000  1.0000
  N   N3        1.0  0.07980  0.83700  0.75000  1.0000
  N   N4        1.0  0.92000  0.16300  0.25000  1.0000
  N   N5        1.0  0.40900  0.40900  0.25000  1.0000
  N   N6        1.0  0.59100  0.59100  0.75000  1.0000
  O   O1        1.0  0.19500  0.19500  0.59000  1.0000
  O   O2        1.0  0.80500  0.80500  0.08950  1.0000
  O   O3        1.0  0.80500  0.80500  0.41000  1.0000
  O   O4        1.0  0.19500  0.19500  0.91000  1.0000
  O   O5        1.0  0.52700  0.16600  0.09350  1.0000
  O   O6        1.0  0.47300  0.83400  0.59400  1.0000
  O   O7        1.0  0.83400  0.47300  0.90600  1.0000
  O   O8        1.0  0.16600  0.52700  0.40600  1.0000
  O   O9        1.0  0.47300  0.83400  0.90600  1.0000
  O   O10       1.0  0.52700  0.16600  0.40600  1.0000
  O   O11       1.0  0.16600  0.52700  0.09350  1.0000
  O   O12       1.0  0.83400  0.47300  0.59400  1.0000
  Si  Si1       1.0  0.91400  0.91400  0.25000  1.0000
  Si  Si2       1.0  0.08650  0.08650  0.75000  1.0000
  Si  Si3       1.0  0.41300  0.16500  0.25000  1.0000
  Si  Si4       1.0  0.58700  0.83500  0.75000  1.0000
  Si  Si5       1.0  0.83500  0.58700  0.75000  1.0000
  Si  Si6       1.0  0.16500  0.41300  0.25000  1.0000
  Y   Y1        1.0  0.17200  0.82800  0.00000  1.0000
  Y   Y2        1.0  0.82800  0.17200  0.50000  1.0000
  Y   Y3        1.0  0.82800  0.17200  0.00000  1.0000
  Y   Y4        1.0  0.17200  0.82800  0.50000  1.0000
  Y   Y5        1.0  0.50000  0.50000  0.00000  1.0000
  Y   Y6        1.0  0.50000  0.50000  0.50000  1.0000
