CIF file written using JARVIS-Tools package.
data_Rb2Cd3Se4
_symmetry_space_group_name_H-M  'Pnma'
_cell_length_a       6.85457
_cell_length_b       11.0873
_cell_length_c       14.6458
_cell_angle_alpha    90
_cell_angle_beta     90
_cell_angle_gamma    90

_symmetry_Int_Tables_number  62
_chemical_formula_structural  Rb2Cd3Se4
_chemical_formula_sum  Rb8Cd2Se6
_cell_volume  1113.060280079818
_cell_formula_units_Z  4
loop_
  _symmetry_equiv_pos_site_id
 _symmetry_equiv_pos_as_xyz
 1  'x, y, z'
loop_
 _atom_site_type_symbol
 _atom_site_label
 _atom_site_symmetry_multiplicity
 _atom_site_fract_x
 _atom_site_fract_y
 _atom_site_fract_z
 _atom_site_fract_occupancy
 Cd  Cd1  1  0.31068  0.40641  0.74547  1
 Cd  Cd2  1  0.68932  0.59359  0.25453  1
 Cd  Cd3  1  0.81068  0.59359  0.75453  1
 Cd  Cd4  1  0.18932  0.09359  0.24547  1
 Cd  Cd5  1  0.68932  0.90641  0.25453  1
 Cd  Cd6  1  0.18932  0.40641  0.24547  1
 Cd  Cd7  1  0.25333  0.75000  0.20429  1
 Cd  Cd8  1  0.81068  0.90641  0.75453  1
 Cd  Cd9  1  0.74667  0.25000  0.79571  1
 Cd  Cd10  1  0.24667  0.75000  0.70429  1
 Cd  Cd11  1  0.75333  0.25000  0.29571  1
 Cd  Cd12  1  0.31068  0.09359  0.74547  1
 Rb  Rb1  1  0.02198  0.25000  0.53875  1
 Rb  Rb2  1  0.50000  0.00000  0.50000  1
 Rb  Rb3  1  0.00000  0.00000  0.00000  1
 Rb  Rb4  1  0.50000  0.50000  0.50000  1
 Rb  Rb5  1  0.47802  0.25000  0.03875  1
 Rb  Rb6  1  0.97802  0.75000  0.46125  1
 Rb  Rb7  1  0.52198  0.75000  0.96125  1
 Rb  Rb8  1  0.00000  0.50000  0.00000  1
 Se  Se1  1  0.10945  0.25000  0.85259  1
 Se  Se2  1  0.09112  0.53610  0.63473  1
 Se  Se3  1  0.59112  0.46390  0.86527  1
 Se  Se4  1  0.90888  0.03610  0.36527  1
 Se  Se5  1  0.40888  0.96390  0.13473  1
 Se  Se6  1  0.40888  0.53610  0.13473  1
 Se  Se7  1  0.90888  0.46390  0.36527  1
 Se  Se8  1  0.45871  0.75000  0.36054  1
 Se  Se9  1  0.95871  0.25000  0.13946  1
 Se  Se10  1  0.04129  0.75000  0.86054  1
 Se  Se11  1  0.54129  0.25000  0.63946  1
 Se  Se12  1  0.89055  0.75000  0.14741  1
 Se  Se13  1  0.60945  0.75000  0.64741  1
 Se  Se14  1  0.09112  0.96390  0.63473  1
 Se  Se15  1  0.59112  0.03610  0.86527  1
 Se  Se16  1  0.39055  0.25000  0.35259  1
