CIF file written using JARVIS-Tools package.
data_Na6PbO5
_symmetry_space_group_name_H-M  'Cmcm'
_cell_length_a       5.72894
_cell_length_b       6.07865
_cell_length_c       11.0047
_cell_angle_alpha    90
_cell_angle_beta     90
_cell_angle_gamma    118.115

_symmetry_Int_Tables_number  63
_chemical_formula_structural  Na6PbO5
_chemical_formula_sum  Na2Pb2O0
_cell_volume  338.01163778977946
_cell_formula_units_Z  2
loop_
  _symmetry_equiv_pos_site_id
 _symmetry_equiv_pos_as_xyz
 1  'x, y, z'
loop_
 _atom_site_type_symbol
 _atom_site_label
 _atom_site_symmetry_multiplicity
 _atom_site_fract_x
 _atom_site_fract_y
 _atom_site_fract_z
 _atom_site_fract_occupancy
 Na  Na1  1  0.32252  -0.00000  0.05992  1
 Na  Na2  1  0.32252  -0.00000  0.44008  1
 Na  Na3  1  0.67748  0.00000  0.55992  1
 Na  Na4  1  0.42871  0.59610  0.75000  1
 Na  Na5  1  0.78151  0.56303  0.00000  1
 Na  Na6  1  0.57129  0.40390  0.25000  1
 Na  Na7  1  0.83261  0.40390  0.75000  1
 Na  Na8  1  0.67748  0.00000  0.94008  1
 Na  Na9  1  0.16739  0.59610  0.25000  1
 Na  Na10  1  0.21849  0.43697  0.00000  1
 Na  Na11  1  0.78151  0.56303  0.50000  1
 Na  Na12  1  0.21849  0.43697  0.50000  1
 O  O1  1  0.83012  -0.00000  0.75000  1
 O  O2  1  0.16988  0.00000  0.25000  1
 O  O3  1  0.16521  0.71952  0.61326  1
 O  O4  1  0.44569  0.28048  0.88674  1
 O  O5  1  0.55431  0.71952  0.38674  1
 O  O6  1  0.16521  0.71952  0.88674  1
 O  O7  1  0.83479  0.28048  0.11326  1
 O  O8  1  0.44569  0.28048  0.61326  1
 O  O9  1  0.55431  0.71952  0.11326  1
 O  O10  1  0.83479  0.28048  0.38674  1
 Pb  Pb1  1  0.79401  -0.00000  0.25000  1
 Pb  Pb2  1  0.20599  0.00000  0.75000  1
