CIF file written using JARVIS-Tools package.
data_CaAs3
_symmetry_space_group_name_H-M  'P-1'
_cell_length_a       5.8542
_cell_length_b       5.90252
_cell_length_c       5.96225
_cell_angle_alpha    80.116
_cell_angle_beta     70.8178
_cell_angle_gamma    75.6475

_symmetry_Int_Tables_number  2
_chemical_formula_structural  CaAs3
_chemical_formula_sum  Ca2As6
_cell_volume  187.5925679940711
_cell_formula_units_Z  2
loop_
  _symmetry_equiv_pos_site_id
 _symmetry_equiv_pos_as_xyz
 1  'x, y, z'
loop_
 _atom_site_type_symbol
 _atom_site_label
 _atom_site_symmetry_multiplicity
 _atom_site_fract_x
 _atom_site_fract_y
 _atom_site_fract_z
 _atom_site_fract_occupancy
 As  As1  1  0.77754  0.01344  0.01772  1
 As  As2  1  0.22246  0.98656  0.98228  1
 As  As3  1  0.19087  0.85330  0.41040  1
 As  As4  1  0.80913  0.14670  0.58960  1
 As  As5  1  0.77767  0.58748  0.10043  1
 As  As6  1  0.22233  0.41252  0.89957  1
 Ca  Ca1  1  0.66110  0.68380  0.63180  1
 Ca  Ca2  1  0.33890  0.31620  0.36820  1
