CIF file written using JARVIS-Tools package.
data_PrNdO2
_symmetry_space_group_name_H-M  'R-3m'
_cell_length_a       6.21647
_cell_length_b       6.21647
_cell_length_c       6.21647
_cell_angle_alpha    33.4913
_cell_angle_beta     33.4913
_cell_angle_gamma    33.4913

_symmetry_Int_Tables_number  166
_chemical_formula_structural  PrNdO2
_chemical_formula_sum  PrNdO2
_cell_volume  65.14885422325105
_cell_formula_units_Z  1
loop_
  _symmetry_equiv_pos_site_id
 _symmetry_equiv_pos_as_xyz
 1  'x, y, z'
loop_
 _atom_site_type_symbol
 _atom_site_label
 _atom_site_symmetry_multiplicity
 _atom_site_fract_x
 _atom_site_fract_y
 _atom_site_fract_z
 _atom_site_fract_occupancy
 Nd  Nd1  1  0.00000  0.00000  0.00000  1
 O  O1  1  0.25369  0.25369  0.25369  1
 O  O2  1  0.74631  0.74631  0.74631  1
 Pr  Pr1  1  0.50000  0.50000  0.50000  1
