CIF file written using JARVIS-Tools package.
data_ZnP
_symmetry_space_group_name_H-M  'P6_3mc'
_cell_length_a       3.61157
_cell_length_b       3.61157
_cell_length_c       6.99388
_cell_angle_alpha    90
_cell_angle_beta     90
_cell_angle_gamma    120

_symmetry_Int_Tables_number  186
_chemical_formula_structural  ZnP
_chemical_formula_sum  Zn2P2
_cell_volume  79.00264240237595
_cell_formula_units_Z  2
loop_
  _symmetry_equiv_pos_site_id
 _symmetry_equiv_pos_as_xyz
 1  'x, y, z'
loop_
 _atom_site_type_symbol
 _atom_site_label
 _atom_site_symmetry_multiplicity
 _atom_site_fract_x
 _atom_site_fract_y
 _atom_site_fract_z
 _atom_site_fract_occupancy
 P  P1  1  0.33333  0.66667  0.02140  1
 P  P2  1  0.66667  0.33333  0.52140  1
 Zn  Zn1  1  0.33333  0.66667  0.35360  1
 Zn  Zn2  1  0.66667  0.33333  0.85360  1
