CIF file written using JARVIS-Tools package.
data_ScOs2
_symmetry_space_group_name_H-M  'P6_3/mmc'
_cell_length_a       5.22332
_cell_length_b       5.22332
_cell_length_c       8.56887
_cell_angle_alpha    90
_cell_angle_beta     90
_cell_angle_gamma    120

_symmetry_Int_Tables_number  194
_chemical_formula_structural  ScOs2
_chemical_formula_sum  Sc4Os8
_cell_volume  202.46383202185376
_cell_formula_units_Z  4
loop_
  _symmetry_equiv_pos_site_id
 _symmetry_equiv_pos_as_xyz
 1  'x, y, z'
loop_
 _atom_site_type_symbol
 _atom_site_label
 _atom_site_symmetry_multiplicity
 _atom_site_fract_x
 _atom_site_fract_y
 _atom_site_fract_z
 _atom_site_fract_occupancy
 Os  Os1  1  0.17313  0.34626  0.75000  1
 Os  Os2  1  0.17313  0.82687  0.75000  1
 Os  Os3  1  0.34626  0.17313  0.25000  1
 Os  Os4  1  0.82687  0.65374  0.25000  1
 Os  Os5  1  0.65374  0.82687  0.75000  1
 Os  Os6  1  0.00000  0.00000  0.00000  1
 Os  Os7  1  0.82687  0.17313  0.25000  1
 Os  Os8  1  0.00000  0.00000  0.50000  1
 Sc  Sc1  1  0.33333  0.66667  0.43291  1
 Sc  Sc2  1  0.66667  0.33333  0.56709  1
 Sc  Sc3  1  0.66667  0.33333  0.93291  1
 Sc  Sc4  1  0.33333  0.66667  0.06709  1
