CIF file written using JARVIS-Tools package.
data_UAl2Pd5
_symmetry_space_group_name_H-M  'I4/mmm'
_cell_length_a       4.19533
_cell_length_b       4.19532
_cell_length_c       7.99327
_cell_angle_alpha    105.214
_cell_angle_beta     105.214
_cell_angle_gamma    90

_symmetry_Int_Tables_number  139
_chemical_formula_structural  UAl2Pd5
_chemical_formula_sum  UAl2Pd5
_cell_volume  130.63972602277525
_cell_formula_units_Z  1
loop_
  _symmetry_equiv_pos_site_id
 _symmetry_equiv_pos_as_xyz
 1  'x, y, z'
loop_
 _atom_site_type_symbol
 _atom_site_label
 _atom_site_symmetry_multiplicity
 _atom_site_fract_x
 _atom_site_fract_y
 _atom_site_fract_z
 _atom_site_fract_occupancy
 Al  Al1  1  0.25407  0.25407  0.50814  1
 Al  Al2  1  0.74593  0.74593  0.49186  1
 Pd  Pd1  1  0.85605  0.35605  0.71211  1
 Pd  Pd2  1  0.64395  0.14395  0.28789  1
 Pd  Pd3  1  0.35605  0.85605  0.71211  1
 Pd  Pd4  1  0.14395  0.64395  0.28789  1
 Pd  Pd5  1  0.50000  0.50000  0.00000  1
 U  U1  1  0.00000  0.00000  0.00000  1
