CIF file written using JARVIS-Tools package.
data_Na2Al2B2O7
_symmetry_space_group_name_H-M  'P-31c'
_cell_length_a       4.86249
_cell_length_b       4.86249
_cell_length_c       15.2696
_cell_angle_alpha    90
_cell_angle_beta     90
_cell_angle_gamma    120

_symmetry_Int_Tables_number  163
_chemical_formula_structural  Na2Al2B2O7
_chemical_formula_sum  Na4Al4B4O4
_cell_volume  312.6619874220614
_cell_formula_units_Z  2
loop_
  _symmetry_equiv_pos_site_id
 _symmetry_equiv_pos_as_xyz
 1  'x, y, z'
loop_
 _atom_site_type_symbol
 _atom_site_label
 _atom_site_symmetry_multiplicity
 _atom_site_fract_x
 _atom_site_fract_y
 _atom_site_fract_z
 _atom_site_fract_occupancy
 Al  Al1  1  0.33333  0.66667  0.36353  1
 Al  Al2  1  0.66667  0.33333  0.86353  1
 Al  Al3  1  0.33333  0.66667  0.13647  1
 Al  Al4  1  0.66667  0.33333  0.63647  1
 B  B1  1  0.66667  0.33333  0.39868  1
 B  B2  1  0.33333  0.66667  0.60132  1
 B  B3  1  0.66667  0.33333  0.10132  1
 B  B4  1  0.33333  0.66667  0.89868  1
 Na  Na1  1  0.00000  0.00000  0.75000  1
 Na  Na2  1  0.00000  0.00000  0.25000  1
 Na  Na3  1  0.00000  0.00000  0.00000  1
 Na  Na4  1  0.00000  0.00000  0.50000  1
 O  O1  1  0.66667  0.33333  0.75000  1
 O  O2  1  0.39314  0.35294  0.39846  1
 O  O3  1  0.95980  0.60686  0.39846  1
 O  O4  1  0.35294  0.95980  0.60154  1
 O  O5  1  0.04020  0.39314  0.60154  1
 O  O6  1  0.95980  0.35294  0.10154  1
 O  O7  1  0.04020  0.64706  0.89846  1
 O  O8  1  0.35294  0.39314  0.89846  1
 O  O9  1  0.64706  0.04020  0.39846  1
 O  O10  1  0.39314  0.04020  0.10154  1
 O  O11  1  0.60686  0.64706  0.60154  1
 O  O12  1  0.64706  0.60686  0.10154  1
 O  O13  1  0.60686  0.95980  0.89846  1
 O  O14  1  0.33333  0.66667  0.25000  1
