CIF file written using JARVIS-Tools package.
data_WSeS
_symmetry_space_group_name_H-M  'C2/m'
_cell_length_a       3.25895
_cell_length_b       3.259
_cell_length_c       25.7863
_cell_angle_alpha    89.9877
_cell_angle_beta     90
_cell_angle_gamma    119.999

_symmetry_Int_Tables_number  12
_chemical_formula_structural  WSeS
_chemical_formula_sum  W4Se4S4
_cell_volume  237.18339447582446
_cell_formula_units_Z  4
loop_
  _symmetry_equiv_pos_site_id
 _symmetry_equiv_pos_as_xyz
 1  'x, y, z'
loop_
 _atom_site_type_symbol
 _atom_site_label
 _atom_site_symmetry_multiplicity
 _atom_site_fract_x
 _atom_site_fract_y
 _atom_site_fract_z
 _atom_site_fract_occupancy
 S  S1  1  0.33232  0.66464  0.31546  1
 S  S2  1  0.66768  0.33536  0.43600  1
 S  S3  1  0.66757  0.33514  0.55645  1
 S  S4  1  0.33243  0.66486  0.19500  1
 Se  Se1  1  0.33393  0.66786  0.81242  1
 Se  Se2  1  0.66607  0.33214  -0.06096  1
 Se  Se3  1  0.66591  0.33182  0.07152  1
 Se  Se4  1  0.33409  0.66818  0.67993  1
 W  W1  1  0.33266  0.66532  0.00529  1
 W  W2  1  0.33429  0.66859  0.49622  1
 W  W3  1  0.66571  0.33141  0.25524  1
 W  W4  1  0.66734  0.33468  0.74617  1
