CIF file written using JARVIS-Tools package.
data_Ga7Ni3
_symmetry_space_group_name_H-M  'Im-3m'
_cell_length_a       7.33985
_cell_length_b       7.33985
_cell_length_c       7.33985
_cell_angle_alpha    109.471
_cell_angle_beta     109.471
_cell_angle_gamma    109.471

_symmetry_Int_Tables_number  229
_chemical_formula_structural  Ga7Ni3
_chemical_formula_sum  Ga4Ni6
_cell_volume  304.39609413876303
_cell_formula_units_Z  2
loop_
  _symmetry_equiv_pos_site_id
 _symmetry_equiv_pos_as_xyz
 1  'x, y, z'
loop_
 _atom_site_type_symbol
 _atom_site_label
 _atom_site_symmetry_multiplicity
 _atom_site_fract_x
 _atom_site_fract_y
 _atom_site_fract_z
 _atom_site_fract_occupancy
 Ga  Ga1  1  0.75000  0.25000  0.50000  1
 Ga  Ga2  1  0.67685  0.00000  -0.00000  1
 Ga  Ga3  1  0.50000  0.75000  0.25000  1
 Ga  Ga4  1  0.75000  0.50000  0.25000  1
 Ga  Ga5  1  0.25000  0.50000  0.75000  1
 Ga  Ga6  1  0.25000  0.75000  0.50000  1
 Ga  Ga7  1  0.50000  0.25000  0.75000  1
 Ga  Ga8  1  0.67685  0.67685  0.67685  1
 Ga  Ga9  1  0.32315  0.00000  0.00000  1
 Ga  Ga10  1  -0.00000  0.32315  -0.00000  1
 Ga  Ga11  1  0.00000  0.00000  0.32315  1
 Ga  Ga12  1  0.00000  0.67685  0.00000  1
 Ga  Ga13  1  0.00000  0.00000  0.67685  1
 Ga  Ga14  1  0.32315  0.32315  0.32315  1
 Ni  Ni1  1  0.34951  0.00000  0.34951  1
 Ni  Ni2  1  0.00000  0.65049  0.65049  1
 Ni  Ni3  1  0.34951  0.34951  -0.00000  1
 Ni  Ni4  1  0.65049  0.65049  0.00000  1
 Ni  Ni5  1  0.65049  0.00000  0.65049  1
 Ni  Ni6  1  -0.00000  0.34951  0.34951  1
