CIF file written using JARVIS-Tools package.
data_TeMoWSe2S
_symmetry_space_group_name_H-M  'P3m1'
_cell_length_a       3.3483
_cell_length_b       3.34832
_cell_length_c       34.7969
_cell_angle_alpha    90.0509
_cell_angle_beta     90
_cell_angle_gamma    120

_symmetry_Int_Tables_number  156
_chemical_formula_structural  TeMoWSe2S
_chemical_formula_sum  Te2Mo2W2Se4S2
_cell_volume  337.8496271407044
_cell_formula_units_Z  2
loop_
  _symmetry_equiv_pos_site_id
 _symmetry_equiv_pos_as_xyz
 1  'x, y, z'
loop_
 _atom_site_type_symbol
 _atom_site_label
 _atom_site_symmetry_multiplicity
 _atom_site_fract_x
 _atom_site_fract_y
 _atom_site_fract_z
 _atom_site_fract_occupancy
 Mo  Mo1  1  0.33325  0.66651  0.09769  1
 Mo  Mo2  1  0.33341  0.66683  0.46246  1
 S  S1  1  0.33354  0.66708  0.32385  1
 S  S2  1  0.33307  0.66614  0.23624  1
 Se  Se1  1  0.66627  0.33254  0.04986  1
 Se  Se2  1  0.66639  0.33277  0.41458  1
 Se  Se3  1  0.66676  0.33352  0.14558  1
 Se  Se4  1  0.66700  0.33399  0.51035  1
 Te  Te1  1  0.33377  0.66755  0.71757  1
 Te  Te2  1  0.33322  0.66645  0.60779  1
 W  W1  1  0.66657  0.33314  0.28005  1
 W  W2  1  0.66675  0.33350  0.66273  1
