CIF file written using JARVIS-Tools package.
data_Fe2PO5
_symmetry_space_group_name_H-M  'I4_1/amd'
_cell_length_a       5.39143
_cell_length_b       5.39143
_cell_length_c       7.34593
_cell_angle_alpha    111.529
_cell_angle_beta     111.529
_cell_angle_gamma    89.9999

_symmetry_Int_Tables_number  141
_chemical_formula_structural  Fe2PO5
_chemical_formula_sum  Fe4P2O0
_cell_volume  182.52192147098026
_cell_formula_units_Z  2
loop_
  _symmetry_equiv_pos_site_id
 _symmetry_equiv_pos_as_xyz
 1  'x, y, z'
loop_
 _atom_site_type_symbol
 _atom_site_label
 _atom_site_symmetry_multiplicity
 _atom_site_fract_x
 _atom_site_fract_y
 _atom_site_fract_z
 _atom_site_fract_occupancy
 Fe  Fe1  1  0.50000  -0.00000  0.00000  1
 Fe  Fe2  1  0.50000  0.50000  0.50000  1
 Fe  Fe3  1  0.00000  0.50000  0.50000  1
 Fe  Fe4  1  0.50000  0.50000  0.00000  1
 O  O1  1  0.62500  0.37500  0.25000  1
 O  O2  1  0.37500  0.62500  0.75000  1
 O  O3  1  0.80684  0.81859  0.61369  1
 O  O4  1  0.70490  0.19316  0.88631  1
 O  O5  1  0.18141  0.19316  0.88631  1
 O  O6  1  0.19316  0.18141  0.38631  1
 O  O7  1  0.80684  0.29510  0.61369  1
 O  O8  1  0.81859  0.80684  0.11369  1
 O  O9  1  0.29510  0.80684  0.11369  1
 O  O10  1  0.19316  0.70490  0.38631  1
 P  P1  1  0.87500  0.12500  0.75000  1
 P  P2  1  0.12500  0.87500  0.25000  1
