CIF file written using JARVIS-Tools package.
data_Sr2I2O
_symmetry_space_group_name_H-M  'Ibam'
_cell_length_a       6.52599
_cell_length_b       7.4474
_cell_length_c       8.17741
_cell_angle_alpha    117.089
_cell_angle_beta     113.517
_cell_angle_gamma    90.0008

_symmetry_Int_Tables_number  72
_chemical_formula_structural  Sr2I2O
_chemical_formula_sum  Sr4I4O2
_cell_volume  316.3056985698546
_cell_formula_units_Z  2
loop_
  _symmetry_equiv_pos_site_id
 _symmetry_equiv_pos_as_xyz
 1  'x, y, z'
loop_
 _atom_site_type_symbol
 _atom_site_label
 _atom_site_symmetry_multiplicity
 _atom_site_fract_x
 _atom_site_fract_y
 _atom_site_fract_z
 _atom_site_fract_occupancy
 I  I1  1  0.34950  0.70156  0.69900  1
 I  I2  1  0.84950  0.99744  0.69900  1
 I  I3  1  0.65050  0.29844  0.30100  1
 I  I4  1  0.15050  0.00256  0.30100  1
 O  O1  1  0.25000  0.50000  0.00000  1
 O  O2  1  0.75000  0.50000  0.00000  1
 Sr  Sr1  1  0.90975  0.58327  0.81950  1
 Sr  Sr2  1  0.09025  0.41673  0.18050  1
 Sr  Sr3  1  0.59024  0.76377  0.18049  1
 Sr  Sr4  1  0.40976  0.23623  0.81951  1
