CIF file written using JARVIS-Tools package.
data_Se
_symmetry_space_group_name_H-M  'Cmcm'
_cell_length_a       2.82126
_cell_length_b       4.15119
_cell_length_c       4.67698
_cell_angle_alpha    90
_cell_angle_beta     90
_cell_angle_gamma    109.865

_symmetry_Int_Tables_number  63
_chemical_formula_structural  Se
_chemical_formula_sum  Se2
_cell_volume  51.515307683693976
_cell_formula_units_Z  2
loop_
  _symmetry_equiv_pos_site_id
 _symmetry_equiv_pos_as_xyz
 1  'x, y, z'
loop_
 _atom_site_type_symbol
 _atom_site_label
 _atom_site_symmetry_multiplicity
 _atom_site_fract_x
 _atom_site_fract_y
 _atom_site_fract_z
 _atom_site_fract_occupancy
 Se  Se1  1  0.06696  0.13391  0.25000  1
 Se  Se2  1  0.93304  0.86609  0.75000  1
