CIF file written using JARVIS-Tools package.
data_SmGaSb2
_symmetry_space_group_name_H-M  'C222_1'
_cell_length_a       4.33871
_cell_length_b       4.37181
_cell_length_c       11.3855
_cell_angle_alpha    90
_cell_angle_beta     100.984
_cell_angle_gamma    90

_symmetry_Int_Tables_number  20
_chemical_formula_structural  SmGaSb2
_chemical_formula_sum  Sm2Ga2Sb4
_cell_volume  212.00423133406892
_cell_formula_units_Z  2
loop_
  _symmetry_equiv_pos_site_id
 _symmetry_equiv_pos_as_xyz
 1  'x, y, z'
loop_
 _atom_site_type_symbol
 _atom_site_label
 _atom_site_symmetry_multiplicity
 _atom_site_fract_x
 _atom_site_fract_y
 _atom_site_fract_z
 _atom_site_fract_occupancy
 Ga  Ga1  1  0.15643  0.00000  0.00000  1
 Ga  Ga2  1  0.84357  0.50000  -0.00000  1
 Sb  Sb1  1  0.75026  0.75000  0.50052  1
 Sb  Sb2  1  0.24974  0.25000  0.49948  1
 Sb  Sb3  1  0.59293  0.25000  0.18586  1
 Sb  Sb4  1  0.40707  0.75000  0.81414  1
 Sm  Sm1  1  0.13761  0.75000  0.27523  1
 Sm  Sm2  1  0.86239  0.25000  0.72477  1
