CIF file written using JARVIS-Tools package.
data_Te2Mo2WS4
_symmetry_space_group_name_H-M  'R3m'
_cell_length_a       3.30684
_cell_length_b       3.30686
_cell_length_c       19.8596
_cell_angle_alpha    94.8101
_cell_angle_beta     90
_cell_angle_gamma    120

_symmetry_Int_Tables_number  160
_chemical_formula_structural  Te2Mo2WS4
_chemical_formula_sum  Te2Mo2WS4
_cell_volume  187.1906486808858
_cell_formula_units_Z  1
loop_
  _symmetry_equiv_pos_site_id
 _symmetry_equiv_pos_as_xyz
 1  'x, y, z'
loop_
 _atom_site_type_symbol
 _atom_site_label
 _atom_site_symmetry_multiplicity
 _atom_site_fract_x
 _atom_site_fract_y
 _atom_site_fract_z
 _atom_site_fract_occupancy
 Mo  Mo1  1  0.22230  0.44460  0.01528  1
 Mo  Mo2  1  0.67059  0.34117  0.35700  1
 S  S1  1  0.36324  0.72649  0.43436  1
 S  S2  1  0.74762  0.49524  0.59083  1
 S  S3  1  0.79988  0.59976  0.74646  1
 S  S4  1  0.31125  0.62250  0.27959  1
 Te  Te1  1  0.52301  0.04601  0.91818  1
 Te  Te2  1  0.58830  0.17660  0.11251  1
 W  W1  1  0.44042  0.88084  0.66863  1
