CIF file written using JARVIS-Tools package.
data_NaO2
_symmetry_space_group_name_H-M  'Pnnm'
_cell_length_a       3.39167
_cell_length_b       4.1852
_cell_length_c       5.61307
_cell_angle_alpha    90
_cell_angle_beta     90
_cell_angle_gamma    90

_symmetry_Int_Tables_number  58
_chemical_formula_structural  NaO2
_chemical_formula_sum  Na2O4
_cell_volume  79.67659965399595
_cell_formula_units_Z  2
loop_
  _symmetry_equiv_pos_site_id
 _symmetry_equiv_pos_as_xyz
 1  'x, y, z'
loop_
 _atom_site_type_symbol
 _atom_site_label
 _atom_site_symmetry_multiplicity
 _atom_site_fract_x
 _atom_site_fract_y
 _atom_site_fract_z
 _atom_site_fract_occupancy
 Na  Na1  1  0.50000  0.50000  0.50000  1
 Na  Na2  1  0.00000  0.00000  0.00000  1
 O  O1  1  0.50000  0.38514  0.91513  1
 O  O2  1  0.50000  0.61486  0.08487  1
 O  O3  1  0.00000  0.11486  0.41513  1
 O  O4  1  0.00000  0.88514  0.58487  1
