CIF file written using JARVIS-Tools package.
data_Ca3Co2O6
_symmetry_space_group_name_H-M  'R-3c'
_cell_length_a       6.2503
_cell_length_b       6.2503
_cell_length_c       6.2503
_cell_angle_alpha    91.9177
_cell_angle_beta     91.9177
_cell_angle_gamma    91.9177

_symmetry_Int_Tables_number  167
_chemical_formula_structural  Ca3Co2O6
_chemical_formula_sum  Ca6Co4O2
_cell_volume  243.75648794793156
_cell_formula_units_Z  2
loop_
  _symmetry_equiv_pos_site_id
 _symmetry_equiv_pos_as_xyz
 1  'x, y, z'
loop_
 _atom_site_type_symbol
 _atom_site_label
 _atom_site_symmetry_multiplicity
 _atom_site_fract_x
 _atom_site_fract_y
 _atom_site_fract_z
 _atom_site_fract_occupancy
 Ca  Ca1  1  0.75000  0.37951  0.12049  1
 Ca  Ca2  1  0.12049  0.75000  0.37951  1
 Ca  Ca3  1  0.37951  0.12049  0.75000  1
 Ca  Ca4  1  0.87951  0.25000  0.62049  1
 Ca  Ca5  1  0.25000  0.62049  0.87951  1
 Ca  Ca6  1  0.62049  0.87951  0.25000  1
 Co  Co1  1  0.75000  0.75000  0.75000  1
 Co  Co2  1  0.50000  0.50000  0.50000  1
 Co  Co3  1  0.00000  0.00000  0.00000  1
 Co  Co4  1  0.25000  0.25000  0.25000  1
 O  O1  1  0.58587  0.46923  0.79197  1
 O  O2  1  0.46923  0.79197  0.58587  1
 O  O3  1  0.03077  0.91413  0.70803  1
 O  O4  1  0.91413  0.70803  0.03077  1
 O  O5  1  0.70803  0.03077  0.91413  1
 O  O6  1  0.08587  0.29197  0.96923  1
 O  O7  1  0.41413  0.53077  0.20803  1
 O  O8  1  0.53077  0.20803  0.41413  1
 O  O9  1  0.79197  0.58587  0.46923  1
 O  O10  1  0.96923  0.08587  0.29197  1
 O  O11  1  0.20803  0.41413  0.53077  1
 O  O12  1  0.29197  0.96923  0.08587  1
