CIF file written using JARVIS-Tools package.
data_BaSi2
_symmetry_space_group_name_H-M  'P4_332'
_cell_length_a       6.79186
_cell_length_b       6.79186
_cell_length_c       6.79186
_cell_angle_alpha    90
_cell_angle_beta     90
_cell_angle_gamma    90

_symmetry_Int_Tables_number  212
_chemical_formula_structural  BaSi2
_chemical_formula_sum  Ba4Si8
_cell_volume  313.3035727103066
_cell_formula_units_Z  4
loop_
  _symmetry_equiv_pos_site_id
 _symmetry_equiv_pos_as_xyz
 1  'x, y, z'
loop_
 _atom_site_type_symbol
 _atom_site_label
 _atom_site_symmetry_multiplicity
 _atom_site_fract_x
 _atom_site_fract_y
 _atom_site_fract_z
 _atom_site_fract_occupancy
 Ba  Ba1  1  0.62500  0.37500  0.87500  1
 Ba  Ba2  1  0.37500  0.87500  0.62500  1
 Ba  Ba3  1  0.87500  0.62500  0.37500  1
 Ba  Ba4  1  0.12500  0.12500  0.12500  1
 Si  Si1  1  0.83123  0.83123  0.83123  1
 Si  Si2  1  0.58123  0.91877  0.08123  1
 Si  Si3  1  0.91877  0.08123  0.58123  1
 Si  Si4  1  0.08123  0.58123  0.91877  1
 Si  Si5  1  0.41877  0.41877  0.41877  1
 Si  Si6  1  0.16877  0.33123  0.66877  1
 Si  Si7  1  0.66877  0.16877  0.33123  1
 Si  Si8  1  0.33123  0.66877  0.16877  1
