CIF file written using JARVIS-Tools package.
data_Si12HN8
_symmetry_space_group_name_H-M  'Pm-3m'
_cell_length_a       6.719
_cell_length_b       6.719
_cell_length_c       6.71895
_cell_angle_alpha    90
_cell_angle_beta     90
_cell_angle_gamma    90

_symmetry_Int_Tables_number  221
_chemical_formula_structural  Si12HN8
_chemical_formula_sum  Si2HN8
_cell_volume  303.32654792461443
_cell_formula_units_Z  1
loop_
  _symmetry_equiv_pos_site_id
 _symmetry_equiv_pos_as_xyz
 1  'x, y, z'
loop_
 _atom_site_type_symbol
 _atom_site_label
 _atom_site_symmetry_multiplicity
 _atom_site_fract_x
 _atom_site_fract_y
 _atom_site_fract_z
 _atom_site_fract_occupancy
 H  H1  1  0.50000  0.50000  0.50436  1
 N  N1  1  0.72213  0.72213  0.28207  1
 N  N2  1  0.27786  0.72214  0.72634  1
 N  N3  1  0.27786  0.27786  0.72634  1
 N  N4  1  0.27787  0.72213  0.28207  1
 N  N5  1  0.72214  0.72214  0.72634  1
 N  N6  1  0.72213  0.27787  0.28207  1
 N  N7  1  0.72214  0.27786  0.72634  1
 N  N8  1  0.27787  0.27787  0.28207  1
 Si  Si1  1  0.17817  0.50000  0.82604  1
 Si  Si2  1  0.50000  0.17817  0.18237  1
 Si  Si3  1  0.50000  0.17817  0.82604  1
 Si  Si4  1  0.82183  0.50000  0.18237  1
 Si  Si5  1  0.17817  0.17817  0.50420  1
 Si  Si6  1  0.82183  0.50000  0.82604  1
 Si  Si7  1  0.17817  0.50000  0.18237  1
 Si  Si8  1  0.82183  0.17817  0.50420  1
 Si  Si9  1  0.17817  0.82183  0.50420  1
 Si  Si10  1  0.82183  0.82183  0.50420  1
 Si  Si11  1  0.50000  0.82183  0.18237  1
 Si  Si12  1  0.50000  0.82183  0.82604  1
