CIF file written using JARVIS-Tools package.
data_Be2BO3F
_symmetry_space_group_name_H-M  'R-3c'
_cell_length_a       4.47408
_cell_length_b       4.47408
_cell_length_c       8.75344
_cell_angle_alpha    75.1651
_cell_angle_beta     75.1651
_cell_angle_gamma    60.0025

_symmetry_Int_Tables_number  167
_chemical_formula_structural  Be2BO3F
_chemical_formula_sum  Be4B2O6F2
_cell_volume  144.9660027313867
_cell_formula_units_Z  2
loop_
  _symmetry_equiv_pos_site_id
 _symmetry_equiv_pos_as_xyz
 1  'x, y, z'
loop_
 _atom_site_type_symbol
 _atom_site_label
 _atom_site_symmetry_multiplicity
 _atom_site_fract_x
 _atom_site_fract_y
 _atom_site_fract_z
 _atom_site_fract_occupancy
 B  B1  1  0.25023  0.74977  0.75000  1
 B  B2  1  0.74977  0.25023  0.25000  1
 Be  Be1  1  0.56334  0.06295  0.81051  1
 Be  Be2  1  0.93705  0.43666  0.68949  1
 Be  Be3  1  0.06295  0.56334  0.31051  1
 Be  Be4  1  0.43666  0.93705  0.18949  1
 F  F1  1  0.50000  0.00000  -0.00000  1
 F  F2  1  -0.00000  0.50000  0.50000  1
 O  O1  1  0.25028  0.44179  0.74990  1
 O  O2  1  0.44179  0.25028  0.24990  1
 O  O3  1  0.55821  0.74972  0.75010  1
 O  O4  1  0.74972  0.55821  0.25010  1
 O  O5  1  0.94226  0.05774  0.75000  1
 O  O6  1  0.05774  0.94226  0.25000  1
