CIF file written using JARVIS-Tools package.
data_CrSe2
_symmetry_space_group_name_H-M  'P-3m1'
_cell_length_a       3.26428
_cell_length_b       3.26428
_cell_length_c       6.29065
_cell_angle_alpha    90
_cell_angle_beta     89.9988
_cell_angle_gamma    120

_symmetry_Int_Tables_number  164
_chemical_formula_structural  CrSe2
_chemical_formula_sum  CrSe2
_cell_volume  58.049763380750655
_cell_formula_units_Z  1
loop_
  _symmetry_equiv_pos_site_id
 _symmetry_equiv_pos_as_xyz
 1  'x, y, z'
loop_
 _atom_site_type_symbol
 _atom_site_label
 _atom_site_symmetry_multiplicity
 _atom_site_fract_x
 _atom_site_fract_y
 _atom_site_fract_z
 _atom_site_fract_occupancy
 Cr  Cr1  1  0.00000  0.00000  0.00000  1
 Se  Se1  1  0.66668  0.33334  0.75250  1
 Se  Se2  1  0.33332  0.66666  0.24750  1
