CIF file written using JARVIS-Tools package.
data_Th2Fe2Si2C
_symmetry_space_group_name_H-M  'C2/m'
_cell_length_a       3.98867
_cell_length_b       5.83907
_cell_length_c       5.91826
_cell_angle_alpha    73.8508
_cell_angle_beta     70.3071
_cell_angle_gamma    70.0287

_symmetry_Int_Tables_number  12
_chemical_formula_structural  Th2Fe2Si2C
_chemical_formula_sum  Th2Fe2Si2C
_cell_volume  119.88267031880514
_cell_formula_units_Z  1
loop_
  _symmetry_equiv_pos_site_id
 _symmetry_equiv_pos_as_xyz
 1  'x, y, z'
loop_
 _atom_site_type_symbol
 _atom_site_label
 _atom_site_symmetry_multiplicity
 _atom_site_fract_x
 _atom_site_fract_y
 _atom_site_fract_z
 _atom_site_fract_occupancy
 C  C1  1  0.00000  0.00000  0.00000  1
 Fe  Fe1  1  0.80817  0.30820  0.07546  1
 Fe  Fe2  1  0.19183  0.69180  0.92454  1
 Si  Si1  1  0.82198  0.62536  0.73068  1
 Si  Si2  1  0.17802  0.37464  0.26932  1
 Th  Th1  1  0.44230  0.81643  0.29897  1
 Th  Th2  1  0.55770  0.18357  0.70103  1
