CIF file written using JARVIS-Tools package.
data_Rb
_symmetry_space_group_name_H-M  'R-3m'
_cell_length_a       4.95205
_cell_length_b       4.95205
_cell_length_c       12.4376
_cell_angle_alpha    101.483
_cell_angle_beta     78.517
_cell_angle_gamma    120

_symmetry_Int_Tables_number  166
_chemical_formula_structural  Rb
_chemical_formula_sum  Rb3
_cell_volume  257.06760168908204
_cell_formula_units_Z  3
loop_
  _symmetry_equiv_pos_site_id
 _symmetry_equiv_pos_as_xyz
 1  'x, y, z'
loop_
 _atom_site_type_symbol
 _atom_site_label
 _atom_site_symmetry_multiplicity
 _atom_site_fract_x
 _atom_site_fract_y
 _atom_site_fract_z
 _atom_site_fract_occupancy
 Rb  Rb1  1  0.00000  0.00000  0.00000  1
 Rb  Rb2  1  0.22220  0.77780  0.33339  1
 Rb  Rb3  1  0.77780  0.22220  0.66661  1
