CIF file written using JARVIS-Tools package.
data_CoGe
_symmetry_space_group_name_H-M  'P2_13'
_cell_length_a       4.65422
_cell_length_b       4.65422
_cell_length_c       4.65422
_cell_angle_alpha    90
_cell_angle_beta     90
_cell_angle_gamma    90

_symmetry_Int_Tables_number  198
_chemical_formula_structural  CoGe
_chemical_formula_sum  Co4Ge4
_cell_volume  100.81849525290171
_cell_formula_units_Z  4
loop_
  _symmetry_equiv_pos_site_id
 _symmetry_equiv_pos_as_xyz
 1  'x, y, z'
loop_
 _atom_site_type_symbol
 _atom_site_label
 _atom_site_symmetry_multiplicity
 _atom_site_fract_x
 _atom_site_fract_y
 _atom_site_fract_z
 _atom_site_fract_occupancy
 Co  Co1  1  0.13244  0.13244  0.13244  1
 Co  Co2  1  0.36756  0.86756  0.63244  1
 Co  Co3  1  0.63244  0.36756  0.86756  1
 Co  Co4  1  0.86756  0.63244  0.36756  1
 Ge  Ge1  1  0.83789  0.83789  0.83789  1
 Ge  Ge2  1  0.66211  0.16211  0.33789  1
 Ge  Ge3  1  0.33789  0.66211  0.16211  1
 Ge  Ge4  1  0.16211  0.33789  0.66211  1
