CIF file written using JARVIS-Tools package.
data_Sr2B4Rh5
_symmetry_space_group_name_H-M  'Fmmm'
_cell_length_a       5.57034
_cell_length_b       5.7713
_cell_length_c       6.30835
_cell_angle_alpha    77.6978
_cell_angle_beta     63.8
_cell_angle_gamma    61.1452

_symmetry_Int_Tables_number  69
_chemical_formula_structural  Sr2B4Rh5
_chemical_formula_sum  Sr2B4Rh5
_cell_volume  159.37395262112548
_cell_formula_units_Z  1
loop_
  _symmetry_equiv_pos_site_id
 _symmetry_equiv_pos_as_xyz
 1  'x, y, z'
loop_
 _atom_site_type_symbol
 _atom_site_label
 _atom_site_symmetry_multiplicity
 _atom_site_fract_x
 _atom_site_fract_y
 _atom_site_fract_z
 _atom_site_fract_occupancy
 B  B1  1  0.20725  0.32831  0.25719  1
 B  B2  1  0.79275  0.67169  0.74281  1
 B  B3  1  0.46444  0.32831  0.74281  1
 B  B4  1  0.53556  0.67169  0.25719  1
 Rh  Rh1  1  0.50000  0.00000  0.00000  1
 Rh  Rh2  1  0.50000  0.50000  0.00000  1
 Rh  Rh3  1  0.00000  0.50000  -0.00000  1
 Rh  Rh4  1  0.25000  0.50000  0.50000  1
 Rh  Rh5  1  0.75000  0.50000  0.50000  1
 Sr  Sr1  1  0.14375  0.00000  0.71250  1
 Sr  Sr2  1  0.85625  0.00000  0.28750  1
