CIF file written using JARVIS-Tools package.
data_RbGaH2
_symmetry_space_group_name_H-M  'Pnma'
_cell_length_a       4.51113
_cell_length_b       7.46248
_cell_length_c       9.33939
_cell_angle_alpha    90
_cell_angle_beta     90
_cell_angle_gamma    90

_symmetry_Int_Tables_number  62
_chemical_formula_structural  RbGaH2
_chemical_formula_sum  Rb4Ga4H8
_cell_volume  314.40318892517524
_cell_formula_units_Z  4
loop_
  _symmetry_equiv_pos_site_id
 _symmetry_equiv_pos_as_xyz
 1  'x, y, z'
loop_
 _atom_site_type_symbol
 _atom_site_label
 _atom_site_symmetry_multiplicity
 _atom_site_fract_x
 _atom_site_fract_y
 _atom_site_fract_z
 _atom_site_fract_occupancy
 Ga  Ga1  1  0.25000  0.93755  0.03484  1
 Ga  Ga2  1  0.25000  0.43755  0.46516  1
 Ga  Ga3  1  0.75000  0.56245  0.53484  1
 Ga  Ga4  1  0.75000  0.06245  0.96516  1
 H  H1  1  0.75000  0.27842  0.01915  1
 H  H2  1  0.25000  0.89696  0.21086  1
 H  H3  1  0.25000  0.39696  0.28914  1
 H  H4  1  0.75000  0.77842  0.48085  1
 H  H5  1  0.25000  0.22158  0.51915  1
 H  H6  1  0.75000  0.60304  0.71086  1
 H  H7  1  0.75000  0.10304  0.78914  1
 H  H8  1  0.25000  0.72158  0.98085  1
 Rb  Rb1  1  0.75000  0.62017  0.17143  1
 Rb  Rb2  1  0.75000  0.12017  0.32857  1
 Rb  Rb3  1  0.25000  0.87983  0.67143  1
 Rb  Rb4  1  0.25000  0.37983  0.82857  1
