CIF file written using JARVIS-Tools package.
data_Ba
_symmetry_space_group_name_H-M  'Fm-3m'
_cell_length_a       4.38577
_cell_length_b       4.38576
_cell_length_c       4.38577
_cell_angle_alpha    60
_cell_angle_beta     60.0001
_cell_angle_gamma    60

_symmetry_Int_Tables_number  225
_chemical_formula_structural  Ba
_chemical_formula_sum  Ba
_cell_volume  59.65156078113105
_cell_formula_units_Z  1
loop_
  _symmetry_equiv_pos_site_id
 _symmetry_equiv_pos_as_xyz
 1  'x, y, z'
loop_
 _atom_site_type_symbol
 _atom_site_label
 _atom_site_symmetry_multiplicity
 _atom_site_fract_x
 _atom_site_fract_y
 _atom_site_fract_z
 _atom_site_fract_occupancy
 Ba  Ba1  1  0.00000  0.00000  0.00000  1
