CIF file written using JARVIS-Tools package.
data_NaCrH8N2F6
_symmetry_space_group_name_H-M  'Fm-3m'
_cell_length_a       6.02388
_cell_length_b       6.02388
_cell_length_c       6.02388
_cell_angle_alpha    120
_cell_angle_beta     90
_cell_angle_gamma    120

_symmetry_Int_Tables_number  225
_chemical_formula_structural  NaCrH8N2F6
_chemical_formula_sum  NaCrH8N2F6
_cell_volume  154.5662177551844
_cell_formula_units_Z  1
loop_
  _symmetry_equiv_pos_site_id
 _symmetry_equiv_pos_as_xyz
 1  'x, y, z'
loop_
 _atom_site_type_symbol
 _atom_site_label
 _atom_site_symmetry_multiplicity
 _atom_site_fract_x
 _atom_site_fract_y
 _atom_site_fract_z
 _atom_site_fract_occupancy
 Cr  Cr1  1  0.00000  0.00000  0.00000  1
 F  F1  1  0.77385  0.54771  0.77385  1
 F  F2  1  0.77385  0.00000  0.22615  1
 F  F3  1  0.22615  0.45229  0.22615  1
 F  F4  1  0.22615  0.00000  0.22615  1
 F  F5  1  0.77385  0.00000  0.77385  1
 F  F6  1  0.22615  0.00000  0.77385  1
 H  H1  1  0.81991  0.63982  0.45973  1
 H  H2  1  0.54027  0.36018  0.18009  1
 H  H3  1  0.81991  0.63982  0.18009  1
 H  H4  1  0.18009  0.36018  0.81991  1
 H  H5  1  0.18009  0.36018  0.54027  1
 H  H6  1  0.45973  0.63982  0.81991  1
 H  H7  1  0.18009  0.63982  0.81991  1
 H  H8  1  0.81991  0.36018  0.18009  1
 N  N1  1  0.75000  0.50000  0.25000  1
 N  N2  1  0.25000  0.50000  0.75000  1
 Na  Na1  1  0.50000  0.00000  0.50000  1
