CIF file written using JARVIS-Tools package.
data_Na
_symmetry_space_group_name_H-M  'R-3m'
_cell_length_a       3.72242
_cell_length_b       3.72279
_cell_length_c       9.35923
_cell_angle_alpha    78.5283
_cell_angle_beta     101.451
_cell_angle_gamma    120.003

_symmetry_Int_Tables_number  166
_chemical_formula_structural  Na
_chemical_formula_sum  Na3
_cell_volume  109.32193443571963
_cell_formula_units_Z  3
loop_
  _symmetry_equiv_pos_site_id
 _symmetry_equiv_pos_as_xyz
 1  'x, y, z'
loop_
 _atom_site_type_symbol
 _atom_site_label
 _atom_site_symmetry_multiplicity
 _atom_site_fract_x
 _atom_site_fract_y
 _atom_site_fract_z
 _atom_site_fract_occupancy
 Na  Na1  1  0.00000  0.00000  0.00000  1
 Na  Na2  1  0.77777  0.22221  0.33335  1
 Na  Na3  1  0.22223  0.77779  0.66665  1
