CIF file written using JARVIS-Tools package.
data_BaBiIO2
_symmetry_space_group_name_H-M  'Cmcm'
_cell_length_a       6.14307
_cell_length_b       5.92897
_cell_length_c       7.68216
_cell_angle_alpha    90
_cell_angle_beta     113.568
_cell_angle_gamma    90

_symmetry_Int_Tables_number  63
_chemical_formula_structural  BaBiIO2
_chemical_formula_sum  Ba2Bi2I2O4
_cell_volume  256.46110519011205
_cell_formula_units_Z  2
loop_
  _symmetry_equiv_pos_site_id
 _symmetry_equiv_pos_as_xyz
 1  'x, y, z'
loop_
 _atom_site_type_symbol
 _atom_site_label
 _atom_site_symmetry_multiplicity
 _atom_site_fract_x
 _atom_site_fract_y
 _atom_site_fract_z
 _atom_site_fract_occupancy
 Ba  Ba1  1  0.39725  0.25000  0.79451  1
 Ba  Ba2  1  0.60275  0.75000  0.20549  1
 Bi  Bi1  1  0.92973  0.75000  0.85946  1
 Bi  Bi2  1  0.07027  0.25000  0.14054  1
 I  I1  1  0.74722  0.25000  0.49445  1
 I  I2  1  0.25278  0.75000  0.50555  1
 O  O1  1  0.22402  0.50000  0.00000  1
 O  O2  1  0.77598  0.50000  1.00000  1
 O  O3  1  0.77598  0.00000  1.00000  1
 O  O4  1  0.22402  -0.00000  0.00000  1
