CIF file written using JARVIS-Tools package.
data_MoWS4
_symmetry_space_group_name_H-M  'Cm'
_cell_length_a       3.19212
_cell_length_b       3.19211
_cell_length_c       32.2635
_cell_angle_alpha    89.9839
_cell_angle_beta     90
_cell_angle_gamma    120

_symmetry_Int_Tables_number  8
_chemical_formula_structural  MoWS4
_chemical_formula_sum  Mo2W2S8
_cell_volume  284.7065495886508
_cell_formula_units_Z  2
loop_
  _symmetry_equiv_pos_site_id
 _symmetry_equiv_pos_as_xyz
 1  'x, y, z'
loop_
 _atom_site_type_symbol
 _atom_site_label
 _atom_site_symmetry_multiplicity
 _atom_site_fract_x
 _atom_site_fract_y
 _atom_site_fract_z
 _atom_site_fract_occupancy
 Mo  Mo1  1  0.33393  0.66787  0.08510  1
 Mo  Mo2  1  0.33310  0.66620  0.47254  1
 S  S1  1  0.33343  0.66685  0.32764  1
 S  S2  1  0.33267  0.66535  0.71527  1
 S  S3  1  0.66737  0.33473  0.03659  1
 S  S4  1  0.66653  0.33306  0.42399  1
 S  S5  1  0.66718  0.33435  0.13366  1
 S  S6  1  0.66634  0.33268  0.52109  1
 S  S7  1  0.33357  0.66714  0.22998  1
 S  S8  1  0.33291  0.66583  0.61763  1
 W  W1  1  0.66684  0.33367  0.27881  1
 W  W2  1  0.66613  0.33226  0.66647  1
