CIF file written using JARVIS-Tools package.
data_Lu
_symmetry_space_group_name_H-M  'R-3m'
_cell_length_a       3.45118
_cell_length_b       3.45117
_cell_length_c       8.45161
_cell_angle_alpha    78.2189
_cell_angle_beta     101.781
_cell_angle_gamma    120

_symmetry_Int_Tables_number  166
_chemical_formula_structural  Lu
_chemical_formula_sum  Lu3
_cell_volume  84.72002554631045
_cell_formula_units_Z  3
loop_
  _symmetry_equiv_pos_site_id
 _symmetry_equiv_pos_as_xyz
 1  'x, y, z'
loop_
 _atom_site_type_symbol
 _atom_site_label
 _atom_site_symmetry_multiplicity
 _atom_site_fract_x
 _atom_site_fract_y
 _atom_site_fract_z
 _atom_site_fract_occupancy
 Lu  Lu1  1  0.00000  0.00000  0.00000  1
 Lu  Lu2  1  0.77820  0.22180  0.33461  1
 Lu  Lu3  1  0.22180  0.77820  0.66539  1
