CIF file written using JARVIS-Tools package.
data_SmCl2
_symmetry_space_group_name_H-M  'P4_2/mnm'
_cell_length_a       7.01241
_cell_length_b       7.01241
_cell_length_c       3.52696
_cell_angle_alpha    90
_cell_angle_beta     90
_cell_angle_gamma    90

_symmetry_Int_Tables_number  136
_chemical_formula_structural  SmCl2
_chemical_formula_sum  Sm2Cl4
_cell_volume  173.43430221739052
_cell_formula_units_Z  2
loop_
  _symmetry_equiv_pos_site_id
 _symmetry_equiv_pos_as_xyz
 1  'x, y, z'
loop_
 _atom_site_type_symbol
 _atom_site_label
 _atom_site_symmetry_multiplicity
 _atom_site_fract_x
 _atom_site_fract_y
 _atom_site_fract_z
 _atom_site_fract_occupancy
 Cl  Cl1  1  0.27914  0.27914  0.00000  1
 Cl  Cl2  1  0.72086  0.72086  0.00000  1
 Cl  Cl3  1  0.22086  0.77914  0.50000  1
 Cl  Cl4  1  0.77914  0.22086  0.50000  1
 Sm  Sm1  1  0.00000  0.00000  0.00000  1
 Sm  Sm2  1  0.50000  0.50000  0.50000  1
