CIF file written using JARVIS-Tools package.
data_Re2W3C
_symmetry_space_group_name_H-M  'P4_132'
_cell_length_a       6.95643
_cell_length_b       6.95643
_cell_length_c       6.95643
_cell_angle_alpha    90
_cell_angle_beta     90
_cell_angle_gamma    90

_symmetry_Int_Tables_number  213
_chemical_formula_structural  Re2W3C
_chemical_formula_sum  Re8W2C4
_cell_volume  336.63433527861145
_cell_formula_units_Z  4
loop_
  _symmetry_equiv_pos_site_id
 _symmetry_equiv_pos_as_xyz
 1  'x, y, z'
loop_
 _atom_site_type_symbol
 _atom_site_label
 _atom_site_symmetry_multiplicity
 _atom_site_fract_x
 _atom_site_fract_y
 _atom_site_fract_z
 _atom_site_fract_occupancy
 C  C1  1  0.37500  0.37500  0.37500  1
 C  C2  1  0.87500  0.12500  0.62500  1
 C  C3  1  0.62500  0.87500  0.12500  1
 C  C4  1  0.12500  0.62500  0.87500  1
 Re  Re1  1  0.06843  0.06843  0.06843  1
 Re  Re2  1  0.31843  0.18157  0.81843  1
 Re  Re3  1  0.68157  0.68157  0.68157  1
 Re  Re4  1  0.18157  0.81843  0.31843  1
 Re  Re5  1  0.93157  0.56843  0.43157  1
 Re  Re6  1  0.56843  0.43157  0.93157  1
 Re  Re7  1  0.43157  0.93157  0.56843  1
 Re  Re8  1  0.81843  0.31843  0.18157  1
 W  W1  1  0.37500  0.79402  0.95598  1
 W  W2  1  0.62500  0.29402  0.54402  1
 W  W3  1  0.70598  0.04402  0.87500  1
 W  W4  1  0.54402  0.62500  0.29402  1
 W  W5  1  0.12500  0.20598  0.45598  1
 W  W6  1  0.87500  0.70598  0.04402  1
 W  W7  1  0.20598  0.45598  0.12500  1
 W  W8  1  0.04402  0.87500  0.70598  1
 W  W9  1  0.45598  0.12500  0.20598  1
 W  W10  1  0.29402  0.54402  0.62500  1
 W  W11  1  0.95598  0.37500  0.79402  1
 W  W12  1  0.79402  0.95598  0.37500  1
