CIF file written using JARVIS-Tools package.
data_Sm3CuSiS7
_symmetry_space_group_name_H-M  'P6_3'
_cell_length_a       10.0595
_cell_length_b       10.0595
_cell_length_c       5.73518
_cell_angle_alpha    90
_cell_angle_beta     90
_cell_angle_gamma    120

_symmetry_Int_Tables_number  173
_chemical_formula_structural  Sm3CuSiS7
_chemical_formula_sum  Sm6Cu2Si2S4
_cell_volume  502.60548950893246
_cell_formula_units_Z  2
loop_
  _symmetry_equiv_pos_site_id
 _symmetry_equiv_pos_as_xyz
 1  'x, y, z'
loop_
 _atom_site_type_symbol
 _atom_site_label
 _atom_site_symmetry_multiplicity
 _atom_site_fract_x
 _atom_site_fract_y
 _atom_site_fract_z
 _atom_site_fract_occupancy
 Cu  Cu1  1  0.00000  0.00000  0.72139  1
 Cu  Cu2  1  0.00000  0.00000  0.22139  1
 S  S1  1  0.74412  0.83466  0.73335  1
 S  S2  1  0.09054  0.25588  0.73335  1
 S  S3  1  0.58534  0.47655  0.48266  1
 S  S4  1  0.52345  0.10879  0.48266  1
 S  S5  1  0.47655  0.89121  0.98266  1
 S  S6  1  0.89121  0.41466  0.48266  1
 S  S7  1  0.41466  0.52345  0.98266  1
 S  S8  1  0.33333  0.66667  0.46792  1
 S  S9  1  0.25588  0.16534  0.23335  1
 S  S10  1  0.66667  0.33333  0.96792  1
 S  S11  1  0.83466  0.09054  0.23335  1
 S  S12  1  0.90946  0.74412  0.23335  1
 S  S13  1  0.16534  0.90946  0.73335  1
 S  S14  1  0.10879  0.58534  0.98266  1
 Si  Si1  1  0.66667  0.33333  0.33622  1
 Si  Si2  1  0.33333  0.66667  0.83622  1
 Sm  Sm1  1  0.64269  0.76904  0.25057  1
 Sm  Sm2  1  0.35731  0.23096  0.75057  1
 Sm  Sm3  1  0.12634  0.35731  0.25057  1
 Sm  Sm4  1  0.23096  0.87366  0.25057  1
 Sm  Sm5  1  0.87366  0.64269  0.75057  1
 Sm  Sm6  1  0.76904  0.12634  0.75057  1
