CIF file written using JARVIS-Tools package.
data_Nd2O5
_symmetry_space_group_name_H-M  'C2/c'
_cell_length_a       5.66174
_cell_length_b       5.97916
_cell_length_c       7.38686
_cell_angle_alpha    117.784
_cell_angle_beta     112.534
_cell_angle_gamma    90

_symmetry_Int_Tables_number  15
_chemical_formula_structural  Nd2O5
_chemical_formula_sum  Nd4O0
_cell_volume  199.40121712062466
_cell_formula_units_Z  2
loop_
  _symmetry_equiv_pos_site_id
 _symmetry_equiv_pos_as_xyz
 1  'x, y, z'
loop_
 _atom_site_type_symbol
 _atom_site_label
 _atom_site_symmetry_multiplicity
 _atom_site_fract_x
 _atom_site_fract_y
 _atom_site_fract_z
 _atom_site_fract_occupancy
 Nd  Nd1  1  0.67900  0.84016  0.78056  1
 Nd  Nd2  1  0.89843  0.65984  0.21944  1
 Nd  Nd3  1  0.32100  0.15984  0.21944  1
 Nd  Nd4  1  0.10157  0.34016  0.78056  1
 O  O1  1  0.38205  0.65667  0.37747  1
 O  O2  1  0.00458  0.84333  0.62253  1
 O  O3  1  0.61795  0.34333  0.62253  1
 O  O4  1  0.99542  0.15667  0.37747  1
 O  O5  1  0.94601  0.25000  0.00000  1
 O  O6  1  0.05399  0.75000  -0.00000  1
 O  O7  1  0.47486  0.52205  0.19655  1
 O  O8  1  0.27830  0.97795  0.80345  1
 O  O9  1  0.52514  0.47795  0.80345  1
 O  O10  1  0.72170  0.02205  0.19655  1
