CIF file written using JARVIS-Tools package.
data_Sb
_symmetry_space_group_name_H-M  'Pm-3m'
_cell_length_a       9.35924
_cell_length_b       5.403
_cell_length_c       4.41155
_cell_angle_alpha    89.9856
_cell_angle_beta     160.538
_cell_angle_gamma    101.109

_symmetry_Int_Tables_number  221
_chemical_formula_structural  Sb
_chemical_formula_sum  Sb2
_cell_volume  60.677572555170755
_cell_formula_units_Z  2
loop_
  _symmetry_equiv_pos_site_id
 _symmetry_equiv_pos_as_xyz
 1  'x, y, z'
loop_
 _atom_site_type_symbol
 _atom_site_label
 _atom_site_symmetry_multiplicity
 _atom_site_fract_x
 _atom_site_fract_y
 _atom_site_fract_z
 _atom_site_fract_occupancy
 Sb  Sb1  1  0.23882  0.77057  0.74150  1
 Sb  Sb2  1  0.73867  0.27057  0.24118  1
