CIF file written using JARVIS-Tools package.
data_Ac3Hg
_symmetry_space_group_name_H-M  'P6_3/mmc'
_cell_length_a       7.6633
_cell_length_b       7.66367
_cell_length_c       5.87438
_cell_angle_alpha    90
_cell_angle_beta     90
_cell_angle_gamma    120.006

_symmetry_Int_Tables_number  194
_chemical_formula_structural  Ac3Hg
_chemical_formula_sum  Ac6Hg2
_cell_volume  298.75621120661594
_cell_formula_units_Z  2
loop_
  _symmetry_equiv_pos_site_id
 _symmetry_equiv_pos_as_xyz
 1  'x, y, z'
loop_
 _atom_site_type_symbol
 _atom_site_label
 _atom_site_symmetry_multiplicity
 _atom_site_fract_x
 _atom_site_fract_y
 _atom_site_fract_z
 _atom_site_fract_occupancy
 Ac  Ac1  1  0.17555  0.35103  0.25000  1
 Ac  Ac2  1  0.64902  0.82451  0.25000  1
 Ac  Ac3  1  0.17556  0.82446  0.25000  1
 Ac  Ac4  1  0.82444  0.64896  0.75000  1
 Ac  Ac5  1  0.35099  0.17551  0.75000  1
 Ac  Ac6  1  0.82443  0.17555  0.75000  1
 Hg  Hg1  1  0.33334  0.66668  0.75000  1
 Hg  Hg2  1  0.66666  0.33332  0.25000  1
