CIF file written using JARVIS-Tools package.
data_SrAl9Co2
_symmetry_space_group_name_H-M  'P6/mmm'
_cell_length_a       7.91246
_cell_length_b       7.91246
_cell_length_c       3.92111
_cell_angle_alpha    90
_cell_angle_beta     90
_cell_angle_gamma    120

_symmetry_Int_Tables_number  191
_chemical_formula_structural  SrAl9Co2
_chemical_formula_sum  SrAl9Co2
_cell_volume  212.59998234607048
_cell_formula_units_Z  1
loop_
  _symmetry_equiv_pos_site_id
 _symmetry_equiv_pos_as_xyz
 1  'x, y, z'
loop_
 _atom_site_type_symbol
 _atom_site_label
 _atom_site_symmetry_multiplicity
 _atom_site_fract_x
 _atom_site_fract_y
 _atom_site_fract_z
 _atom_site_fract_occupancy
 Al  Al1  1  0.50000  0.50000  0.00000  1
 Al  Al2  1  0.50000  -0.00000  0.00000  1
 Al  Al3  1  0.00000  0.50000  0.00000  1
 Al  Al4  1  0.21328  0.78672  0.50000  1
 Al  Al5  1  0.78672  0.57343  0.50000  1
 Al  Al6  1  0.42657  0.21328  0.50000  1
 Al  Al7  1  0.57343  0.78672  0.50000  1
 Al  Al8  1  0.21328  0.42657  0.50000  1
 Al  Al9  1  0.78672  0.21328  0.50000  1
 Co  Co1  1  0.33333  0.66667  0.00000  1
 Co  Co2  1  0.66667  0.33333  0.00000  1
 Sr  Sr1  1  0.00000  0.00000  0.00000  1
