CIF file written using JARVIS-Tools package.
data_RbCa3
_symmetry_space_group_name_H-M  'I4/mmm'
_cell_length_a       6.95541
_cell_length_b       6.95541
_cell_length_c       6.95541
_cell_angle_alpha    130.311
_cell_angle_beta     130.311
_cell_angle_gamma    72.9103

_symmetry_Int_Tables_number  139
_chemical_formula_structural  RbCa3
_chemical_formula_sum  RbCa3
_cell_volume  191.10993807870938
_cell_formula_units_Z  1
loop_
  _symmetry_equiv_pos_site_id
 _symmetry_equiv_pos_as_xyz
 1  'x, y, z'
loop_
 _atom_site_type_symbol
 _atom_site_label
 _atom_site_symmetry_multiplicity
 _atom_site_fract_x
 _atom_site_fract_y
 _atom_site_fract_z
 _atom_site_fract_occupancy
 Ca  Ca1  1  0.75000  0.25000  0.50000  1
 Ca  Ca2  1  0.25000  0.75000  0.50000  1
 Ca  Ca3  1  0.50000  0.50000  0.00000  1
 Rb  Rb1  1  0.00000  0.00000  0.00000  1
