data_image0
_chemical_formula_structural       Ce2Si7
_chemical_formula_sum              "Ce2 Si7"
_cell_length_a       4.60935
_cell_length_b       6.21598
_cell_length_c       6.21598
_cell_angle_alpha    108.561
_cell_angle_beta     90
_cell_angle_gamma    90

_space_group_name_H-M_alt    "P 1"
_space_group_IT_number       1

loop_
  _space_group_symop_operation_xyz
  'x, y, z'

loop_
  _atom_site_type_symbol
  _atom_site_label
  _atom_site_symmetry_multiplicity
  _atom_site_fract_x
  _atom_site_fract_y
  _atom_site_fract_z
  _atom_site_occupancy
  Ce  Ce1       1.0  0.00000  0.70500  0.29500  1.0000
  Ce  Ce2       1.0  0.00000  0.29500  0.70500  1.0000
  Si  Si1       1.0  0.50000  0.32100  0.06360  1.0000
  Si  Si2       1.0  0.00000  0.17200  0.17200  1.0000
  Si  Si3       1.0  0.50000  0.06360  0.32100  1.0000
  Si  Si4       1.0  0.50000  0.50000  0.50000  1.0000
  Si  Si5       1.0  0.50000  0.93600  0.67900  1.0000
  Si  Si6       1.0  0.00000  0.82800  0.82800  1.0000
  Si  Si7       1.0  0.50000  0.67900  0.93600  1.0000
