CIF file written using JARVIS-Tools package.
data_HoMnO3
_symmetry_space_group_name_H-M  'P6_3cm'
_cell_length_a       5.8458
_cell_length_b       5.8458
_cell_length_c       11.9043
_cell_angle_alpha    90
_cell_angle_beta     90
_cell_angle_gamma    120

_symmetry_Int_Tables_number  185
_chemical_formula_structural  HoMnO3
_chemical_formula_sum  Ho6Mn6O8
_cell_volume  352.308772480016
_cell_formula_units_Z  6
loop_
  _symmetry_equiv_pos_site_id
 _symmetry_equiv_pos_as_xyz
 1  'x, y, z'
loop_
 _atom_site_type_symbol
 _atom_site_label
 _atom_site_symmetry_multiplicity
 _atom_site_fract_x
 _atom_site_fract_y
 _atom_site_fract_z
 _atom_site_fract_occupancy
 Ho  Ho1  1  0.33333  0.66667  0.77161  1
 Ho  Ho2  1  0.66667  0.33333  0.27161  1
 Ho  Ho3  1  0.33333  0.66667  0.27161  1
 Ho  Ho4  1  0.66667  0.33333  0.77161  1
 Ho  Ho5  1  0.00000  0.00000  0.21886  1
 Ho  Ho6  1  0.00000  0.00000  0.71886  1
 Mn  Mn1  1  0.66380  0.66380  0.00081  1
 Mn  Mn2  1  0.66380  0.00000  0.50081  1
 Mn  Mn3  1  -0.00000  0.33620  0.00081  1
 Mn  Mn4  1  0.00000  0.66380  0.50081  1
 Mn  Mn5  1  0.33620  -0.00000  0.00081  1
 Mn  Mn6  1  0.33620  0.33620  0.50081  1
 O  O1  1  0.36725  -0.00000  0.16058  1
 O  O2  1  0.33333  0.66667  0.98523  1
 O  O3  1  0.66667  0.33333  0.48523  1
 O  O4  1  0.00000  0.29830  0.84005  1
 O  O5  1  0.66667  0.33333  0.98523  1
 O  O6  1  0.00000  0.00000  0.02014  1
 O  O7  1  0.00000  0.00000  0.52014  1
 O  O8  1  0.33333  0.66667  0.48523  1
 O  O9  1  0.29830  0.29830  0.34005  1
 O  O10  1  -0.00000  0.36725  0.16058  1
 O  O11  1  0.63275  0.00000  0.66058  1
 O  O12  1  0.29830  0.00000  0.84005  1
 O  O13  1  -0.00000  0.70170  0.34005  1
 O  O14  1  0.00000  0.63275  0.66058  1
 O  O15  1  0.70170  0.70170  0.84005  1
 O  O16  1  0.63275  0.63275  0.16058  1
 O  O17  1  0.36725  0.36725  0.66058  1
 O  O18  1  0.70170  -0.00000  0.34005  1
