CIF file written using JARVIS-Tools package.
data_Ti
_symmetry_space_group_name_H-M  'P6/mmm'
_cell_length_a       4.54684
_cell_length_b       4.54684
_cell_length_c       2.82017
_cell_angle_alpha    90
_cell_angle_beta     90
_cell_angle_gamma    120

_symmetry_Int_Tables_number  191
_chemical_formula_structural  Ti
_chemical_formula_sum  Ti3
_cell_volume  50.4922459680982
_cell_formula_units_Z  3
loop_
  _symmetry_equiv_pos_site_id
 _symmetry_equiv_pos_as_xyz
 1  'x, y, z'
loop_
 _atom_site_type_symbol
 _atom_site_label
 _atom_site_symmetry_multiplicity
 _atom_site_fract_x
 _atom_site_fract_y
 _atom_site_fract_z
 _atom_site_fract_occupancy
 Ti  Ti1  1  0.00000  0.00000  0.00000  1
 Ti  Ti2  1  0.33333  0.66667  0.50000  1
 Ti  Ti3  1  0.66667  0.33333  0.50000  1
