CIF file written using JARVIS-Tools package.
data_B2O3
_symmetry_space_group_name_H-M  'P3_121'
_cell_length_a       4.36358
_cell_length_b       4.36358
_cell_length_c       8.34925
_cell_angle_alpha    90
_cell_angle_beta     90
_cell_angle_gamma    120

_symmetry_Int_Tables_number  152
_chemical_formula_structural  B2O3
_chemical_formula_sum  B6O9
_cell_volume  137.67798198437958
_cell_formula_units_Z  3
loop_
  _symmetry_equiv_pos_site_id
 _symmetry_equiv_pos_as_xyz
 1  'x, y, z'
loop_
 _atom_site_type_symbol
 _atom_site_label
 _atom_site_symmetry_multiplicity
 _atom_site_fract_x
 _atom_site_fract_y
 _atom_site_fract_z
 _atom_site_fract_occupancy
 B  B1  1  0.72896  0.90028  0.10077  1
 B  B2  1  0.09972  0.82868  0.43410  1
 B  B3  1  0.17132  0.27104  0.76743  1
 B  B4  1  0.49536  0.43303  0.31723  1
 B  B5  1  0.56697  0.06233  0.65056  1
 B  B6  1  0.93767  0.50464  0.98390  1
 O  O1  1  0.78296  0.51783  0.41389  1
 O  O2  1  0.73486  0.21704  0.08056  1
 O  O3  1  0.48217  0.26514  0.74723  1
 O  O4  1  0.48934  0.66667  0.20901  1
 O  O5  1  0.33333  0.82267  0.54234  1
 O  O6  1  0.17733  0.51066  0.87568  1
 O  O7  1  0.18452  0.11627  0.33743  1
 O  O8  1  0.88373  0.06825  0.67077  1
 O  O9  1  0.93175  0.81548  0.00410  1
