CIF file written using JARVIS-Tools package.
data_K5AuI2O2
_symmetry_space_group_name_H-M  'Pbam'
_cell_length_a       5.49325
_cell_length_b       7.19126
_cell_length_c       14.0298
_cell_angle_alpha    90
_cell_angle_beta     90
_cell_angle_gamma    90

_symmetry_Int_Tables_number  55
_chemical_formula_structural  K5AuI2O2
_chemical_formula_sum  K0Au2I4O4
_cell_volume  554.22353578246
_cell_formula_units_Z  2
loop_
  _symmetry_equiv_pos_site_id
 _symmetry_equiv_pos_as_xyz
 1  'x, y, z'
loop_
 _atom_site_type_symbol
 _atom_site_label
 _atom_site_symmetry_multiplicity
 _atom_site_fract_x
 _atom_site_fract_y
 _atom_site_fract_z
 _atom_site_fract_occupancy
 Au  Au1  1  0.00000  0.00000  0.00000  1
 Au  Au2  1  0.00000  0.50000  0.50000  1
 I  I1  1  0.50000  0.84729  0.64516  1
 I  I2  1  0.50000  0.15271  0.35484  1
 I  I3  1  0.50000  0.34729  0.85484  1
 I  I4  1  0.50000  0.65271  0.14516  1
 K  K1  1  0.50000  0.33025  0.60146  1
 K  K2  1  0.50000  0.16975  0.10146  1
 K  K3  1  0.50000  0.66975  0.39854  1
 K  K4  1  0.00000  0.50000  0.00000  1
 K  K5  1  0.00000  0.00000  0.50000  1
 K  K6  1  0.50000  0.83025  0.89854  1
 K  K7  1  0.00000  0.90274  0.23896  1
 K  K8  1  0.00000  0.40274  0.26104  1
 K  K9  1  0.00000  0.09726  0.76104  1
 K  K10  1  0.00000  0.59726  0.73896  1
 O  O1  1  0.00000  0.81614  0.88907  1
 O  O2  1  0.00000  0.18386  0.11093  1
 O  O3  1  0.00000  0.68386  0.38907  1
 O  O4  1  0.00000  0.31614  0.61093  1
