CIF file written using JARVIS-Tools package.
data_FeHO2
_symmetry_space_group_name_H-M  'Pnma'
_cell_length_a       2.86297
_cell_length_b       4.35754
_cell_length_c       9.5719
_cell_angle_alpha    90
_cell_angle_beta     90
_cell_angle_gamma    90

_symmetry_Int_Tables_number  62
_chemical_formula_structural  FeHO2
_chemical_formula_sum  Fe4H4O8
_cell_volume  119.4144019578631
_cell_formula_units_Z  4
loop_
  _symmetry_equiv_pos_site_id
 _symmetry_equiv_pos_as_xyz
 1  'x, y, z'
loop_
 _atom_site_type_symbol
 _atom_site_label
 _atom_site_symmetry_multiplicity
 _atom_site_fract_x
 _atom_site_fract_y
 _atom_site_fract_z
 _atom_site_fract_occupancy
 Fe  Fe1  1  0.00000  0.28702  0.65038  1
 Fe  Fe2  1  0.00000  0.71298  0.15038  1
 Fe  Fe3  1  0.50000  0.21299  0.36765  1
 Fe  Fe4  1  0.50000  0.78701  0.86765  1
 H  H1  1  0.00000  0.67630  0.41712  1
 H  H2  1  0.00000  0.32370  0.91712  1
 H  H3  1  0.50000  0.82370  0.60091  1
 H  H4  1  0.50000  0.17630  0.10091  1
 O  O1  1  0.00000  0.95983  0.30981  1
 O  O2  1  0.00000  0.04017  0.80981  1
 O  O3  1  0.50000  0.54018  0.70822  1
 O  O4  1  0.50000  0.45982  0.20822  1
 O  O5  1  0.00000  0.45810  0.45478  1
 O  O6  1  0.00000  0.54190  0.95478  1
 O  O7  1  0.50000  0.04191  0.56324  1
 O  O8  1  0.50000  0.95809  0.06324  1
