CIF file written using JARVIS-Tools package.
data_LiH3O2
_symmetry_space_group_name_H-M  'C2/m'
_cell_length_a       3.1461
_cell_length_b       5.54232
_cell_length_c       5.54192
_cell_angle_alpha    96.6613
_cell_angle_beta     103.133
_cell_angle_gamma    103.175

_symmetry_Int_Tables_number  12
_chemical_formula_structural  LiH3O2
_chemical_formula_sum  Li2H6O4
_cell_volume  90.18245645208374
_cell_formula_units_Z  2
loop_
  _symmetry_equiv_pos_site_id
 _symmetry_equiv_pos_as_xyz
 1  'x, y, z'
loop_
 _atom_site_type_symbol
 _atom_site_label
 _atom_site_symmetry_multiplicity
 _atom_site_fract_x
 _atom_site_fract_y
 _atom_site_fract_z
 _atom_site_fract_occupancy
 H  H1  1  0.85637  0.76181  0.01619  1
 H  H2  1  0.14366  0.99014  0.24427  1
 H  H3  1  0.85598  0.02605  0.75153  1
 H  H4  1  0.14322  0.25439  0.97960  1
 H  H5  1  0.31267  0.74367  0.73404  1
 H  H6  1  0.68698  0.27257  0.26178  1
 Li  Li1  1  0.49977  0.66050  0.34573  1
 Li  Li2  1  0.49980  0.35570  0.65007  1
 O  O1  1  0.00001  0.80069  0.20559  1
 O  O2  1  0.99958  0.21551  0.79021  1
 O  O3  1  0.60453  0.72327  0.71330  1
 O  O4  1  0.39508  0.29295  0.28249  1
