CIF file written using JARVIS-Tools package.
data_FeH4Br3N
_symmetry_space_group_name_H-M  'P2_1'
_cell_length_a       7.41627
_cell_length_b       6.0899
_cell_length_c       7.41702
_cell_angle_alpha    90
_cell_angle_beta     119.986
_cell_angle_gamma    90

_symmetry_Int_Tables_number  4
_chemical_formula_structural  FeH4Br3N
_chemical_formula_sum  Fe2H8Br6N2
_cell_volume  290.1465574394024
_cell_formula_units_Z  2
loop_
  _symmetry_equiv_pos_site_id
 _symmetry_equiv_pos_as_xyz
 1  'x, y, z'
loop_
 _atom_site_type_symbol
 _atom_site_label
 _atom_site_symmetry_multiplicity
 _atom_site_fract_x
 _atom_site_fract_y
 _atom_site_fract_z
 _atom_site_fract_occupancy
 Br  Br1  1  0.87412  0.76491  0.67124  1
 Br  Br2  1  0.32891  0.76489  0.20287  1
 Br  Br3  1  0.79720  0.76492  0.12600  1
 Br  Br4  1  0.12588  0.26491  0.32876  1
 Br  Br5  1  0.67109  0.26489  0.79713  1
 Br  Br6  1  0.20280  0.26492  0.87400  1
 Fe  Fe1  1  0.00004  0.01318  0.00003  1
 Fe  Fe2  1  0.99996  0.51318  0.99997  1
 H  H1  1  0.53374  0.29017  0.19959  1
 H  H2  1  0.66567  0.06566  0.33243  1
 H  H3  1  0.66572  0.28866  0.46668  1
 H  H4  1  0.80086  0.28878  0.33463  1
 H  H5  1  0.19914  0.78878  0.66537  1
 H  H6  1  0.33433  0.56566  0.66757  1
 H  H7  1  0.33428  0.78866  0.53332  1
 H  H8  1  0.46626  0.79017  0.80041  1
 N  N1  1  0.66652  0.23583  0.33335  1
 N  N2  1  0.33348  0.73583  0.66665  1
