CIF file written using JARVIS-Tools package.
data_TaGeRh
_symmetry_space_group_name_H-M  'Pnma'
_cell_length_a       3.87319
_cell_length_b       6.44962
_cell_length_c       7.48282
_cell_angle_alpha    90
_cell_angle_beta     90
_cell_angle_gamma    90

_symmetry_Int_Tables_number  62
_chemical_formula_structural  TaGeRh
_chemical_formula_sum  Ta4Ge4Rh4
_cell_volume  186.925195077889
_cell_formula_units_Z  4
loop_
  _symmetry_equiv_pos_site_id
 _symmetry_equiv_pos_as_xyz
 1  'x, y, z'
loop_
 _atom_site_type_symbol
 _atom_site_label
 _atom_site_symmetry_multiplicity
 _atom_site_fract_x
 _atom_site_fract_y
 _atom_site_fract_z
 _atom_site_fract_occupancy
 Ge  Ge1  1  0.75000  0.75640  0.12292  1
 Ge  Ge2  1  0.75000  0.25640  0.37708  1
 Ge  Ge3  1  0.25000  0.74360  0.62292  1
 Ge  Ge4  1  0.25000  0.24360  0.87708  1
 Rh  Rh1  1  0.75000  0.14382  0.06289  1
 Rh  Rh2  1  0.75000  0.64382  0.43711  1
 Rh  Rh3  1  0.25000  0.35618  0.56289  1
 Rh  Rh4  1  0.25000  0.85618  0.93711  1
 Ta  Ta1  1  0.25000  0.47090  0.18060  1
 Ta  Ta2  1  0.25000  0.97090  0.31940  1
 Ta  Ta3  1  0.75000  0.02910  0.68060  1
 Ta  Ta4  1  0.75000  0.52910  0.81940  1
