CIF file written using JARVIS-Tools package.
data_ZrAg
_symmetry_space_group_name_H-M  'P4/nmm'
_cell_length_a       3.49519
_cell_length_b       3.49519
_cell_length_c       6.58799
_cell_angle_alpha    90
_cell_angle_beta     90
_cell_angle_gamma    90

_symmetry_Int_Tables_number  129
_chemical_formula_structural  ZrAg
_chemical_formula_sum  Zr2Ag2
_cell_volume  80.48120033468575
_cell_formula_units_Z  2
loop_
  _symmetry_equiv_pos_site_id
 _symmetry_equiv_pos_as_xyz
 1  'x, y, z'
loop_
 _atom_site_type_symbol
 _atom_site_label
 _atom_site_symmetry_multiplicity
 _atom_site_fract_x
 _atom_site_fract_y
 _atom_site_fract_z
 _atom_site_fract_occupancy
 Ag  Ag1  1  0.00000  0.50000  0.61509  1
 Ag  Ag2  1  0.50000  0.00000  0.38491  1
 Zr  Zr1  1  0.00000  0.50000  0.14410  1
 Zr  Zr2  1  0.50000  0.00000  0.85590  1
