CIF file written using JARVIS-Tools package.
data_LiFe2F6
_symmetry_space_group_name_H-M  'P4_2/mnm'
_cell_length_a       4.49713
_cell_length_b       4.49713
_cell_length_c       8.84273
_cell_angle_alpha    90
_cell_angle_beta     90
_cell_angle_gamma    90

_symmetry_Int_Tables_number  136
_chemical_formula_structural  LiFe2F6
_chemical_formula_sum  Li2Fe4F2
_cell_volume  178.83716777267549
_cell_formula_units_Z  2
loop_
  _symmetry_equiv_pos_site_id
 _symmetry_equiv_pos_as_xyz
 1  'x, y, z'
loop_
 _atom_site_type_symbol
 _atom_site_label
 _atom_site_symmetry_multiplicity
 _atom_site_fract_x
 _atom_site_fract_y
 _atom_site_fract_z
 _atom_site_fract_occupancy
 F  F1  1  0.70046  0.70046  0.99909  1
 F  F2  1  0.69190  0.69190  0.66746  1
 F  F3  1  0.80810  0.19190  0.16746  1
 F  F4  1  0.79954  0.20046  0.83583  1
 F  F5  1  0.30810  0.30810  0.66746  1
 F  F6  1  0.19190  0.80810  0.16746  1
 F  F7  1  0.20046  0.79954  0.49909  1
 F  F8  1  0.79954  0.20046  0.49909  1
 F  F9  1  0.70046  0.70046  0.33583  1
 F  F10  1  0.29954  0.29954  0.33583  1
 F  F11  1  0.20046  0.79954  0.83583  1
 F  F12  1  0.29954  0.29954  0.99909  1
 Fe  Fe1  1  0.50000  0.50000  0.49812  1
 Fe  Fe2  1  0.00000  0.00000  0.99812  1
 Fe  Fe3  1  0.50000  0.50000  0.83679  1
 Fe  Fe4  1  0.00000  0.00000  0.33679  1
 Li  Li1  1  0.50000  0.50000  0.16744  1
 Li  Li2  1  0.00000  0.00000  0.66744  1
