CIF file written using JARVIS-Tools package.
data_RbMg3
_symmetry_space_group_name_H-M  'P6_3/mmc'
_cell_length_a       8.32135
_cell_length_b       8.32135
_cell_length_c       5.12854
_cell_angle_alpha    90
_cell_angle_beta     90
_cell_angle_gamma    120

_symmetry_Int_Tables_number  194
_chemical_formula_structural  RbMg3
_chemical_formula_sum  Rb2Mg6
_cell_volume  307.54690271391536
_cell_formula_units_Z  2
loop_
  _symmetry_equiv_pos_site_id
 _symmetry_equiv_pos_as_xyz
 1  'x, y, z'
loop_
 _atom_site_type_symbol
 _atom_site_label
 _atom_site_symmetry_multiplicity
 _atom_site_fract_x
 _atom_site_fract_y
 _atom_site_fract_z
 _atom_site_fract_occupancy
 Mg  Mg1  1  0.74455  0.87228  0.75000  1
 Mg  Mg2  1  0.12772  0.25545  0.75000  1
 Mg  Mg3  1  0.12772  0.87228  0.75000  1
 Mg  Mg4  1  0.87228  0.12772  0.25000  1
 Mg  Mg5  1  0.87228  0.74455  0.25000  1
 Mg  Mg6  1  0.25545  0.12772  0.25000  1
 Rb  Rb1  1  0.66667  0.33333  0.75000  1
 Rb  Rb2  1  0.33333  0.66667  0.25000  1
