CIF file written using JARVIS-Tools package.
data_UCdPb2O6
_symmetry_space_group_name_H-M  'P2_1/c'
_cell_length_a       5.93881
_cell_length_b       6.1269
_cell_length_c       10.3614
_cell_angle_alpha    90
_cell_angle_beta     124.481
_cell_angle_gamma    90

_symmetry_Int_Tables_number  14
_chemical_formula_structural  UCdPb2O6
_chemical_formula_sum  U2Cd2Pb4O2
_cell_volume  310.77833738323983
_cell_formula_units_Z  2
loop_
  _symmetry_equiv_pos_site_id
 _symmetry_equiv_pos_as_xyz
 1  'x, y, z'
loop_
 _atom_site_type_symbol
 _atom_site_label
 _atom_site_symmetry_multiplicity
 _atom_site_fract_x
 _atom_site_fract_y
 _atom_site_fract_z
 _atom_site_fract_occupancy
 Cd  Cd1  1  0.50000  0.00000  -0.00000  1
 Cd  Cd2  1  0.50000  0.50000  0.50000  1
 O  O1  1  0.13905  0.46462  0.23856  1
 O  O2  1  0.76943  0.21690  0.94634  1
 O  O3  1  0.86095  0.53538  0.76144  1
 O  O4  1  0.23057  0.78310  0.05366  1
 O  O5  1  0.76943  0.28310  0.44634  1
 O  O6  1  0.23057  0.71690  0.55366  1
 O  O7  1  0.66448  0.81962  0.45957  1
 O  O8  1  0.66448  0.68038  0.95957  1
 O  O9  1  0.13905  0.03538  0.73856  1
 O  O10  1  0.33552  0.31962  0.04043  1
 O  O11  1  0.86095  0.96462  0.26144  1
 O  O12  1  0.33552  0.18038  0.54043  1
 Pb  Pb1  1  0.25846  0.46071  0.75470  1
 Pb  Pb2  1  0.74154  0.96071  0.74530  1
 Pb  Pb3  1  0.74154  0.53929  0.24530  1
 Pb  Pb4  1  0.25846  0.03929  0.25470  1
 U  U1  1  0.00000  0.50000  0.00000  1
 U  U2  1  -0.00000  0.00000  0.50000  1
