CIF file written using JARVIS-Tools package.
data_K3NaUC3O11
_symmetry_space_group_name_H-M  'P-62c'
_cell_length_a       9.25872
_cell_length_b       9.25872
_cell_length_c       8.24265
_cell_angle_alpha    90
_cell_angle_beta     90
_cell_angle_gamma    120

_symmetry_Int_Tables_number  190
_chemical_formula_structural  K3NaUC3O11
_chemical_formula_sum  K6Na2U2C6O22
_cell_volume  611.9269034148508
_cell_formula_units_Z  2
loop_
  _symmetry_equiv_pos_site_id
 _symmetry_equiv_pos_as_xyz
 1  'x, y, z'
loop_
 _atom_site_type_symbol
 _atom_site_label
 _atom_site_symmetry_multiplicity
 _atom_site_fract_x
 _atom_site_fract_y
 _atom_site_fract_z
 _atom_site_fract_occupancy
 C  C1  1  0.35485  0.36447  0.75000  1
 C  C2  1  0.36447  0.35485  0.25000  1
 C  C3  1  0.63553  0.99038  0.75000  1
 C  C4  1  0.64515  0.00962  0.25000  1
 C  C5  1  0.00962  0.64515  0.75000  1
 C  C6  1  0.99038  0.63553  0.25000  1
 K  K1  1  0.70096  0.70096  0.00000  1
 K  K2  1  0.70096  0.70096  0.50000  1
 K  K3  1  0.00000  0.29904  0.00000  1
 K  K4  1  0.29904  0.00000  0.00000  1
 K  K5  1  0.00000  0.29904  0.50000  1
 K  K6  1  0.29904  0.00000  0.50000  1
 Na  Na1  1  0.66667  0.33333  0.75000  1
 Na  Na2  1  0.33333  0.66667  0.25000  1
 O  O1  1  0.76604  0.13099  0.75000  1
 O  O2  1  0.51546  0.48646  0.25000  1
 O  O3  1  0.86901  0.63505  0.75000  1
 O  O4  1  0.15170  0.78729  0.75000  1
 O  O5  1  0.66667  0.33333  0.02546  1
 O  O6  1  0.02900  0.51354  0.75000  1
 O  O7  1  0.84830  0.63559  0.25000  1
 O  O8  1  0.13099  0.76604  0.25000  1
 O  O9  1  0.21271  0.36441  0.75000  1
 O  O10  1  0.33333  0.66667  0.52546  1
 O  O11  1  0.48646  0.51546  0.75000  1
 O  O12  1  0.63559  0.84830  0.75000  1
 O  O13  1  0.48454  0.97100  0.75000  1
 O  O14  1  0.36441  0.21271  0.25000  1
 O  O15  1  0.33333  0.66667  0.97454  1
 O  O16  1  0.66667  0.33333  0.47454  1
 O  O17  1  0.97100  0.48454  0.25000  1
 O  O18  1  0.51354  0.02900  0.25000  1
 O  O19  1  0.36495  0.23396  0.75000  1
 O  O20  1  0.23396  0.36495  0.25000  1
 O  O21  1  0.78729  0.15170  0.25000  1
 O  O22  1  0.63505  0.86901  0.25000  1
 U  U1  1  0.33333  0.66667  0.75000  1
 U  U2  1  0.66667  0.33333  0.25000  1
