CIF file written using JARVIS-Tools package.
data_RbZn4P3
_symmetry_space_group_name_H-M  'P4/mmm'
_cell_length_a       4.07835
_cell_length_b       4.07835
_cell_length_c       10.0982
_cell_angle_alpha    90
_cell_angle_beta     90
_cell_angle_gamma    90

_symmetry_Int_Tables_number  123
_chemical_formula_structural  RbZn4P3
_chemical_formula_sum  RbZn4P3
_cell_volume  167.96295263952072
_cell_formula_units_Z  1
loop_
  _symmetry_equiv_pos_site_id
 _symmetry_equiv_pos_as_xyz
 1  'x, y, z'
loop_
 _atom_site_type_symbol
 _atom_site_label
 _atom_site_symmetry_multiplicity
 _atom_site_fract_x
 _atom_site_fract_y
 _atom_site_fract_z
 _atom_site_fract_occupancy
 P  P1  1  0.00000  0.00000  0.00000  1
 P  P2  1  0.50000  0.50000  0.28885  1
 P  P3  1  0.50000  0.50000  0.71115  1
 Rb  Rb1  1  0.00000  0.00000  0.50000  1
 Zn  Zn1  1  0.00000  0.50000  0.15848  1
 Zn  Zn2  1  0.00000  0.50000  0.84152  1
 Zn  Zn3  1  0.50000  0.00000  0.84152  1
 Zn  Zn4  1  0.50000  0.00000  0.15848  1
