CIF file written using JARVIS-Tools package.
data_BeO
_symmetry_space_group_name_H-M  'P6_3mc'
_cell_length_a       2.71256
_cell_length_b       2.71256
_cell_length_c       4.40615
_cell_angle_alpha    90
_cell_angle_beta     90
_cell_angle_gamma    120

_symmetry_Int_Tables_number  186
_chemical_formula_structural  BeO
_chemical_formula_sum  Be2O2
_cell_volume  28.07673199731424
_cell_formula_units_Z  2
loop_
  _symmetry_equiv_pos_site_id
 _symmetry_equiv_pos_as_xyz
 1  'x, y, z'
loop_
 _atom_site_type_symbol
 _atom_site_label
 _atom_site_symmetry_multiplicity
 _atom_site_fract_x
 _atom_site_fract_y
 _atom_site_fract_z
 _atom_site_fract_occupancy
 Be  Be1  1  0.33333  0.66667  0.00007  1
 Be  Be2  1  0.66667  0.33333  0.50007  1
 O  O1  1  0.33333  0.66667  0.62243  1
 O  O2  1  0.66667  0.33333  0.12243  1
