CIF file written using JARVIS-Tools package.
data_SmSeClO3
_symmetry_space_group_name_H-M  'Pnma'
_cell_length_a       7.12305
_cell_length_b       7.19628
_cell_length_c       9.05277
_cell_angle_alpha    90
_cell_angle_beta     90
_cell_angle_gamma    90

_symmetry_Int_Tables_number  62
_chemical_formula_structural  SmSeClO3
_chemical_formula_sum  Sm4Se4Cl4O2
_cell_volume  464.0401202319255
_cell_formula_units_Z  4
loop_
  _symmetry_equiv_pos_site_id
 _symmetry_equiv_pos_as_xyz
 1  'x, y, z'
loop_
 _atom_site_type_symbol
 _atom_site_label
 _atom_site_symmetry_multiplicity
 _atom_site_fract_x
 _atom_site_fract_y
 _atom_site_fract_z
 _atom_site_fract_occupancy
 Cl  Cl1  1  0.25000  0.95833  0.82302  1
 Cl  Cl2  1  0.25000  0.45833  0.67698  1
 Cl  Cl3  1  0.75000  0.04167  0.17698  1
 Cl  Cl4  1  0.75000  0.54167  0.32302  1
 O  O1  1  0.92557  0.64999  0.93468  1
 O  O2  1  0.75000  0.74763  0.68527  1
 O  O3  1  0.07443  0.35001  0.06532  1
 O  O4  1  0.92557  0.14999  0.56532  1
 O  O5  1  0.57443  0.64999  0.93468  1
 O  O6  1  0.75000  0.24763  0.81473  1
 O  O7  1  0.25000  0.75237  0.18527  1
 O  O8  1  0.57443  0.14999  0.56532  1
 O  O9  1  0.42557  0.85001  0.43468  1
 O  O10  1  0.25000  0.25237  0.31473  1
 O  O11  1  0.07443  0.85001  0.43468  1
 O  O12  1  0.42557  0.35001  0.06532  1
 Se  Se1  1  0.25000  0.20120  0.13152  1
 Se  Se2  1  0.75000  0.29880  0.63152  1
 Se  Se3  1  0.25000  0.70120  0.36848  1
 Se  Se4  1  0.75000  0.79880  0.86848  1
 Sm  Sm1  1  0.25000  0.60920  0.96070  1
 Sm  Sm2  1  0.75000  0.89080  0.46070  1
 Sm  Sm3  1  0.75000  0.39080  0.03930  1
 Sm  Sm4  1  0.25000  0.10920  0.53930  1
