CIF file written using JARVIS-Tools package.
data_TlCl
_symmetry_space_group_name_H-M  'Cmcm'
_cell_length_a       4.19381
_cell_length_b       4.83471
_cell_length_c       6.37327
_cell_angle_alpha    90
_cell_angle_beta     109.209
_cell_angle_gamma    90

_symmetry_Int_Tables_number  63
_chemical_formula_structural  TlCl
_chemical_formula_sum  Tl2Cl2
_cell_volume  122.02879844888012
_cell_formula_units_Z  2
loop_
  _symmetry_equiv_pos_site_id
 _symmetry_equiv_pos_as_xyz
 1  'x, y, z'
loop_
 _atom_site_type_symbol
 _atom_site_label
 _atom_site_symmetry_multiplicity
 _atom_site_fract_x
 _atom_site_fract_y
 _atom_site_fract_z
 _atom_site_fract_occupancy
 Cl  Cl1  1  0.13538  0.75000  0.27076  1
 Cl  Cl2  1  0.86462  0.25000  0.72924  1
 Tl  Tl1  1  0.61422  0.25000  0.22844  1
 Tl  Tl2  1  0.38578  0.75000  0.77156  1
