CIF file written using JARVIS-Tools package.
data_Lu2Mo2C3
_symmetry_space_group_name_H-M  'C2/m'
_cell_length_a       5.85889
_cell_length_b       5.85889
_cell_length_c       5.59542
_cell_angle_alpha    71.5929
_cell_angle_beta     108.407
_cell_angle_gamma    146.946

_symmetry_Int_Tables_number  12
_chemical_formula_structural  Lu2Mo2C3
_chemical_formula_sum  Lu2Mo2C3
_cell_volume  98.91528944789827
_cell_formula_units_Z  1
loop_
  _symmetry_equiv_pos_site_id
 _symmetry_equiv_pos_as_xyz
 1  'x, y, z'
loop_
 _atom_site_type_symbol
 _atom_site_label
 _atom_site_symmetry_multiplicity
 _atom_site_fract_x
 _atom_site_fract_y
 _atom_site_fract_z
 _atom_site_fract_occupancy
 C  C1  1  0.26892  0.73107  0.74793  1
 C  C2  1  0.73108  0.26892  0.25207  1
 C  C3  1  1.00000  1.00000  0.50000  1
 Lu  Lu1  1  0.61585  0.38415  0.81785  1
 Lu  Lu2  1  0.38415  0.61585  0.18215  1
 Mo  Mo1  1  0.85254  0.14746  0.63472  1
 Mo  Mo2  1  0.14746  0.85254  0.36528  1
