CIF file written using JARVIS-Tools package.
data_FeHO2
_symmetry_space_group_name_H-M  'Pnma'
_cell_length_a       2.86286
_cell_length_b       4.35722
_cell_length_c       9.57109
_cell_angle_alpha    90
_cell_angle_beta     90
_cell_angle_gamma    90

_symmetry_Int_Tables_number  62
_chemical_formula_structural  FeHO2
_chemical_formula_sum  Fe4H4O8
_cell_volume  119.39080599394663
_cell_formula_units_Z  4
loop_
  _symmetry_equiv_pos_site_id
 _symmetry_equiv_pos_as_xyz
 1  'x, y, z'
loop_
 _atom_site_type_symbol
 _atom_site_label
 _atom_site_symmetry_multiplicity
 _atom_site_fract_x
 _atom_site_fract_y
 _atom_site_fract_z
 _atom_site_fract_occupancy
 Fe  Fe1  1  0.19056  0.53693  0.35862  1
 Fe  Fe2  1  0.19056  0.96307  0.85862  1
 Fe  Fe3  1  0.69056  0.46307  0.64138  1
 Fe  Fe4  1  0.69056  0.03693  0.14138  1
 H  H1  1  0.19058  0.92637  0.59184  1
 H  H2  1  0.19058  0.57363  0.09184  1
 H  H3  1  0.69058  0.07363  0.40816  1
 H  H4  1  0.69058  0.42637  0.90816  1
 O  O1  1  0.19056  0.20996  0.69922  1
 O  O2  1  0.19056  0.29004  0.19922  1
 O  O3  1  0.69056  0.79004  0.30078  1
 O  O4  1  0.69056  0.70996  0.80078  1
 O  O5  1  0.19056  0.70815  0.55421  1
 O  O6  1  0.19056  0.79185  0.05421  1
 O  O7  1  0.69056  0.29185  0.44579  1
 O  O8  1  0.69056  0.20815  0.94579  1
