CIF file written using JARVIS-Tools package.
data_Zr3O
_symmetry_space_group_name_H-M  'P6_322'
_cell_length_a       5.64825
_cell_length_b       5.64825
_cell_length_c       5.21706
_cell_angle_alpha    90
_cell_angle_beta     90
_cell_angle_gamma    120

_symmetry_Int_Tables_number  182
_chemical_formula_structural  Zr3O
_chemical_formula_sum  Zr6O2
_cell_volume  144.1399765875194
_cell_formula_units_Z  2
loop_
  _symmetry_equiv_pos_site_id
 _symmetry_equiv_pos_as_xyz
 1  'x, y, z'
loop_
 _atom_site_type_symbol
 _atom_site_label
 _atom_site_symmetry_multiplicity
 _atom_site_fract_x
 _atom_site_fract_y
 _atom_site_fract_z
 _atom_site_fract_occupancy
 O  O1  1  0.66667  0.33333  0.25000  1
 O  O2  1  0.33333  0.66667  0.75000  1
 Zr  Zr1  1  0.33985  -0.00000  0.50000  1
 Zr  Zr2  1  0.66015  0.00000  0.00000  1
 Zr  Zr3  1  0.33985  0.33985  0.00000  1
 Zr  Zr4  1  -0.00000  0.33985  0.50000  1
 Zr  Zr5  1  0.66015  0.66015  0.50000  1
 Zr  Zr6  1  0.00000  0.66015  0.00000  1
