data_image0
_chemical_formula_structural       MgO6V2
_chemical_formula_sum              "Mg1 O6 V2"
_cell_length_a       3.51809
_cell_length_b       4.92942
_cell_length_c       6.63085
_cell_angle_alpha    111.692
_cell_angle_beta     90
_cell_angle_gamma    110.907

_space_group_name_H-M_alt    "P 1"
_space_group_IT_number       1

loop_
  _space_group_symop_operation_xyz
  'x, y, z'

loop_
  _atom_site_type_symbol
  _atom_site_label
  _atom_site_symmetry_multiplicity
  _atom_site_fract_x
  _atom_site_fract_y
  _atom_site_fract_z
  _atom_site_occupancy
  Mg  Mg1       1.0  0.00000  0.00000  0.00000  1.0000
  O   O1        1.0  0.65300  0.30600  0.10800  1.0000
  O   O2        1.0  0.97200  0.94300  0.28400  1.0000
  O   O3        1.0  0.30800  0.61700  0.43600  1.0000
  O   O4        1.0  0.69200  0.38300  0.56400  1.0000
  O   O5        1.0  0.02840  0.05680  0.71600  1.0000
  O   O6        1.0  0.34700  0.69400  0.89200  1.0000
  V   V1        1.0  0.81200  0.62400  0.35100  1.0000
  V   V2        1.0  0.18800  0.37600  0.64900  1.0000
