CIF file written using JARVIS-Tools package.
data_FeHO2
_symmetry_space_group_name_H-M  'Pmc2_1'
_cell_length_a       2.90369
_cell_length_b       9.89751
_cell_length_c       4.49331
_cell_angle_alpha    90
_cell_angle_beta     90.0054
_cell_angle_gamma    90

_symmetry_Int_Tables_number  26
_chemical_formula_structural  FeHO2
_chemical_formula_sum  Fe4H4O8
_cell_volume  129.13474795681512
_cell_formula_units_Z  4
loop_
  _symmetry_equiv_pos_site_id
 _symmetry_equiv_pos_as_xyz
 1  'x, y, z'
loop_
 _atom_site_type_symbol
 _atom_site_label
 _atom_site_symmetry_multiplicity
 _atom_site_fract_x
 _atom_site_fract_y
 _atom_site_fract_z
 _atom_site_fract_occupancy
 Fe  Fe1  1  -0.00009  0.61669  0.71129  1
 Fe  Fe2  1  0.00009  0.11669  0.28871  1
 Fe  Fe3  1  0.49999  0.34576  0.76012  1
 Fe  Fe4  1  0.50001  0.84576  0.23988  1
 H  H1  1  0.00008  0.35977  0.23413  1
 H  H2  1  -0.00008  0.85977  0.76587  1
 H  H3  1  0.49985  0.58394  0.17335  1
 H  H4  1  0.50015  0.08394  0.82665  1
 O  O1  1  0.00007  0.28854  0.06867  1
 O  O2  1  -0.00007  0.78854  0.93133  1
 O  O3  1  0.49987  0.67828  0.46814  1
 O  O4  1  0.50013  0.17828  0.53186  1
 O  O5  1  -0.00006  0.43978  0.54571  1
 O  O6  1  0.00006  0.93978  0.45429  1
 O  O7  1  0.49991  0.54829  0.96082  1
 O  O8  1  0.50009  0.04829  0.03918  1
