CIF file written using JARVIS-Tools package.
data_Hf5Sc
_symmetry_space_group_name_H-M  'P-62m'
_cell_length_a       5.52925
_cell_length_b       5.52925
_cell_length_c       5.01982
_cell_angle_alpha    90
_cell_angle_beta     90
_cell_angle_gamma    120

_symmetry_Int_Tables_number  189
_chemical_formula_structural  Hf5Sc
_chemical_formula_sum  Hf5Sc
_cell_volume  132.90786308631135
_cell_formula_units_Z  1
loop_
  _symmetry_equiv_pos_site_id
 _symmetry_equiv_pos_as_xyz
 1  'x, y, z'
loop_
 _atom_site_type_symbol
 _atom_site_label
 _atom_site_symmetry_multiplicity
 _atom_site_fract_x
 _atom_site_fract_y
 _atom_site_fract_z
 _atom_site_fract_occupancy
 Hf  Hf1  1  0.66087  0.00000  0.00000  1
 Hf  Hf2  1  0.00000  0.66087  0.00000  1
 Hf  Hf3  1  0.33913  0.33913  0.00000  1
 Hf  Hf4  1  0.33333  0.66667  0.50000  1
 Hf  Hf5  1  0.66667  0.33333  0.50000  1
 Sc  Sc1  1  0.00000  0.00000  0.50000  1
