CIF file written using JARVIS-Tools package.
data_UAl2
_symmetry_space_group_name_H-M  'P6_3/mmc'
_cell_length_a       5.62088
_cell_length_b       5.62088
_cell_length_c       16.9833
_cell_angle_alpha    90
_cell_angle_beta     90
_cell_angle_gamma    120

_symmetry_Int_Tables_number  194
_chemical_formula_structural  UAl2
_chemical_formula_sum  U8Al6
_cell_volume  464.68795124864937
_cell_formula_units_Z  8
loop_
  _symmetry_equiv_pos_site_id
 _symmetry_equiv_pos_as_xyz
 1  'x, y, z'
loop_
 _atom_site_type_symbol
 _atom_site_label
 _atom_site_symmetry_multiplicity
 _atom_site_fract_x
 _atom_site_fract_y
 _atom_site_fract_z
 _atom_site_fract_occupancy
 Al  Al1  1  0.33333  0.66667  0.62764  1
 Al  Al2  1  0.84239  0.68478  0.25000  1
 Al  Al3  1  0.50000  0.50000  0.50000  1
 Al  Al4  1  0.31522  0.15761  0.25000  1
 Al  Al5  1  0.33333  0.66667  0.87236  1
 Al  Al6  1  0.15761  0.31522  0.75000  1
 Al  Al7  1  0.84239  0.15761  0.25000  1
 Al  Al8  1  0.50000  -0.00000  0.50000  1
 Al  Al9  1  0.50000  -0.00000  0.00000  1
 Al  Al10  1  -0.00000  0.50000  0.50000  1
 Al  Al11  1  0.15761  0.84239  0.75000  1
 Al  Al12  1  -0.00000  0.50000  0.00000  1
 Al  Al13  1  0.68478  0.84239  0.75000  1
 Al  Al14  1  0.66667  0.33333  0.12764  1
 Al  Al15  1  0.50000  0.50000  0.00000  1
 Al  Al16  1  0.66667  0.33333  0.37236  1
 U  U1  1  0.33333  0.66667  0.32782  1
 U  U2  1  0.00000  0.00000  0.57725  1
 U  U3  1  0.66667  0.33333  0.67218  1
 U  U4  1  0.00000  0.00000  0.42275  1
 U  U5  1  0.66667  0.33333  0.82782  1
 U  U6  1  0.00000  0.00000  0.07725  1
 U  U7  1  0.00000  0.00000  0.92275  1
 U  U8  1  0.33333  0.66667  0.17218  1
