CIF file written using JARVIS-Tools package.
data_KTi2F7
_symmetry_space_group_name_H-M  'Cmmm'
_cell_length_a       3.97423
_cell_length_b       6.11089
_cell_length_c       6.11089
_cell_angle_alpha    116.644
_cell_angle_beta     90
_cell_angle_gamma    90

_symmetry_Int_Tables_number  65
_chemical_formula_structural  KTi2F7
_chemical_formula_sum  KTi2F7
_cell_volume  132.65026733586546
_cell_formula_units_Z  1
loop_
  _symmetry_equiv_pos_site_id
 _symmetry_equiv_pos_as_xyz
 1  'x, y, z'
loop_
 _atom_site_type_symbol
 _atom_site_label
 _atom_site_symmetry_multiplicity
 _atom_site_fract_x
 _atom_site_fract_y
 _atom_site_fract_z
 _atom_site_fract_occupancy
 F  F1  1  0.50000  0.33308  0.04423  1
 F  F2  1  0.00000  0.69820  0.30180  1
 F  F3  1  0.50000  0.04423  0.33308  1
 F  F4  1  0.50000  0.50000  0.50000  1
 F  F5  1  0.50000  0.95577  0.66692  1
 F  F6  1  0.00000  0.30180  0.69820  1
 F  F7  1  0.50000  0.66692  0.95577  1
 K  K1  1  0.00000  0.00000  0.00000  1
 Ti  Ti1  1  0.50000  0.69305  0.30695  1
 Ti  Ti2  1  0.50000  0.30695  0.69305  1
