CIF file written using JARVIS-Tools package.
data_H
_symmetry_space_group_name_H-M  'I4/mmm'
_cell_length_a       3.22269
_cell_length_b       3.22269
_cell_length_c       3.22269
_cell_angle_alpha    116.261
_cell_angle_beta     116.261
_cell_angle_gamma    96.6077

_symmetry_Int_Tables_number  139
_chemical_formula_structural  H
_chemical_formula_sum  H2
_cell_volume  24.82529878078186
_cell_formula_units_Z  2
loop_
  _symmetry_equiv_pos_site_id
 _symmetry_equiv_pos_as_xyz
 1  'x, y, z'
loop_
 _atom_site_type_symbol
 _atom_site_label
 _atom_site_symmetry_multiplicity
 _atom_site_fract_x
 _atom_site_fract_y
 _atom_site_fract_z
 _atom_site_fract_occupancy
 H  H1  1  0.91241  0.91241  0.00000  1
 H  H2  1  0.08759  0.08759  0.00000  1
