CIF file written using JARVIS-Tools package.
data_MoW3Se2S6
_symmetry_space_group_name_H-M  'P3m1'
_cell_length_a       3.22505
_cell_length_b       3.22509
_cell_length_c       33.3726
_cell_angle_alpha    89.9976
_cell_angle_beta     90
_cell_angle_gamma    120

_symmetry_Int_Tables_number  156
_chemical_formula_structural  MoW3Se2S6
_chemical_formula_sum  MoW3Se2S6
_cell_volume  300.60783331240816
_cell_formula_units_Z  1
loop_
  _symmetry_equiv_pos_site_id
 _symmetry_equiv_pos_as_xyz
 1  'x, y, z'
loop_
 _atom_site_type_symbol
 _atom_site_label
 _atom_site_symmetry_multiplicity
 _atom_site_fract_x
 _atom_site_fract_y
 _atom_site_fract_z
 _atom_site_fract_occupancy
 Mo  Mo1  1  0.66662  0.33323  0.28060  1
 S  S1  1  0.33327  0.66653  0.32722  1
 S  S2  1  0.66641  0.33282  0.04717  1
 S  S3  1  0.66680  0.33359  0.42030  1
 S  S4  1  0.66638  0.33276  0.14089  1
 S  S5  1  0.66675  0.33350  0.51406  1
 S  S6  1  0.33330  0.66661  0.23398  1
 Se  Se1  1  0.33353  0.66705  0.71266  1
 Se  Se2  1  0.33356  0.66712  0.60954  1
 W  W1  1  0.33306  0.66613  0.09402  1
 W  W2  1  0.33344  0.66688  0.46717  1
 W  W3  1  0.66688  0.33375  0.66113  1
