CIF file written using JARVIS-Tools package.
data_MoW3Se6S2
_symmetry_space_group_name_H-M  'P3m1'
_cell_length_a       3.29332
_cell_length_b       3.29331
_cell_length_c       34.5313
_cell_angle_alpha    90.0006
_cell_angle_beta     90.0013
_cell_angle_gamma    120

_symmetry_Int_Tables_number  156
_chemical_formula_structural  MoW3Se6S2
_chemical_formula_sum  MoW3Se6S2
_cell_volume  324.34812269306656
_cell_formula_units_Z  1
loop_
  _symmetry_equiv_pos_site_id
 _symmetry_equiv_pos_as_xyz
 1  'x, y, z'
loop_
 _atom_site_type_symbol
 _atom_site_label
 _atom_site_symmetry_multiplicity
 _atom_site_fract_x
 _atom_site_fract_y
 _atom_site_fract_z
 _atom_site_fract_occupancy
 Mo  Mo1  1  0.66668  0.33336  0.28134  1
 S  S1  1  0.33338  0.66675  0.32580  1
 S  S2  1  0.33331  0.66663  0.23688  1
 Se  Se1  1  0.33342  0.66680  0.70786  1
 Se  Se2  1  0.66657  0.33321  0.04731  1
 Se  Se3  1  0.66668  0.33336  0.41733  1
 Se  Se4  1  0.66655  0.33315  0.14543  1
 Se  Se5  1  0.66672  0.33340  0.51549  1
 Se  Se6  1  0.33336  0.66670  0.60973  1
 W  W1  1  0.33322  0.66650  0.09634  1
 W  W2  1  0.33337  0.66672  0.46641  1
 W  W3  1  0.66672  0.33342  0.65883  1
