CIF file written using JARVIS-Tools package.
data_Dy
_symmetry_space_group_name_H-M  'Fm-3m'
_cell_length_a       3.49817
_cell_length_b       6.05962
_cell_length_c       6.05963
_cell_angle_alpha    109.473
_cell_angle_beta     90
_cell_angle_gamma    90

_symmetry_Int_Tables_number  225
_chemical_formula_structural  Dy
_chemical_formula_sum  Dy4
_cell_volume  121.10200434852655
_cell_formula_units_Z  4
loop_
  _symmetry_equiv_pos_site_id
 _symmetry_equiv_pos_as_xyz
 1  'x, y, z'
loop_
 _atom_site_type_symbol
 _atom_site_label
 _atom_site_symmetry_multiplicity
 _atom_site_fract_x
 _atom_site_fract_y
 _atom_site_fract_z
 _atom_site_fract_occupancy
 Dy  Dy1  1  0.00000  0.25001  0.74999  1
 Dy  Dy2  1  0.00000  0.74999  0.25001  1
 Dy  Dy3  1  0.50000  0.25000  0.25000  1
 Dy  Dy4  1  0.50000  0.75000  0.75000  1
