CIF file written using JARVIS-Tools package.
data_NaSbF4
_symmetry_space_group_name_H-M  'P2_1/c'
_cell_length_a       8.01924
_cell_length_b       5.65807
_cell_length_c       8.42793
_cell_angle_alpha    90
_cell_angle_beta     89.8601
_cell_angle_gamma    90

_symmetry_Int_Tables_number  14
_chemical_formula_structural  NaSbF4
_chemical_formula_sum  Na4Sb4F6
_cell_volume  382.4024885050644
_cell_formula_units_Z  4
loop_
  _symmetry_equiv_pos_site_id
 _symmetry_equiv_pos_as_xyz
 1  'x, y, z'
loop_
 _atom_site_type_symbol
 _atom_site_label
 _atom_site_symmetry_multiplicity
 _atom_site_fract_x
 _atom_site_fract_y
 _atom_site_fract_z
 _atom_site_fract_occupancy
 F  F1  1  0.88814  0.13099  0.82616  1
 F  F2  1  0.81419  0.58451  0.91762  1
 F  F3  1  0.11186  0.63099  0.67384  1
 F  F4  1  0.40429  -0.00258  0.30093  1
 F  F5  1  0.88814  0.36901  0.32616  1
 F  F6  1  0.11186  0.86901  0.17384  1
 F  F7  1  0.59571  0.00258  0.69907  1
 F  F8  1  0.81419  0.91549  0.41762  1
 F  F9  1  0.70682  0.44409  0.64370  1
 F  F10  1  0.70682  0.05591  0.14370  1
 F  F11  1  0.59571  0.49742  0.19907  1
 F  F12  1  0.29318  0.55591  0.35630  1
 F  F13  1  0.29318  0.94409  0.85630  1
 F  F14  1  0.40429  0.50258  0.80093  1
 F  F15  1  0.18581  0.08451  0.58238  1
 F  F16  1  0.18581  0.41549  0.08238  1
 Na  Na1  1  0.14471  0.20605  0.32730  1
 Na  Na2  1  0.85529  0.70605  0.17270  1
 Na  Na3  1  0.14471  0.29395  0.82730  1
 Na  Na4  1  0.85529  0.79395  0.67270  1
 Sb  Sb1  1  0.66563  0.20429  0.35797  1
 Sb  Sb2  1  0.33437  0.70429  0.14203  1
 Sb  Sb3  1  0.33437  0.79571  0.64203  1
 Sb  Sb4  1  0.66563  0.29571  0.85797  1
