CIF file written using JARVIS-Tools package.
data_Te2MoWSe2
_symmetry_space_group_name_H-M  'P3m1'
_cell_length_a       3.44397
_cell_length_b       3.44401
_cell_length_c       36.0777
_cell_angle_alpha    90.0016
_cell_angle_beta     89.9994
_cell_angle_gamma    120

_symmetry_Int_Tables_number  156
_chemical_formula_structural  Te2MoWSe2
_chemical_formula_sum  Te4Mo2W2Se4
_cell_volume  370.58841411374084
_cell_formula_units_Z  2
loop_
  _symmetry_equiv_pos_site_id
 _symmetry_equiv_pos_as_xyz
 1  'x, y, z'
loop_
 _atom_site_type_symbol
 _atom_site_label
 _atom_site_symmetry_multiplicity
 _atom_site_fract_x
 _atom_site_fract_y
 _atom_site_fract_z
 _atom_site_fract_occupancy
 Mo  Mo1  1  0.33333  0.66661  0.09514  1
 Mo  Mo2  1  0.33333  0.66667  0.46566  1
 Se  Se1  1  0.33337  0.66672  0.32044  1
 Se  Se2  1  0.66667  0.33330  0.04987  1
 Se  Se3  1  0.66667  0.33331  0.14047  1
 Se  Se4  1  0.33332  0.66660  0.22940  1
 Te  Te1  1  0.33334  0.66676  0.71892  1
 Te  Te2  1  0.66671  0.33339  0.41414  1
 Te  Te3  1  0.66664  0.33329  0.51720  1
 Te  Te4  1  0.33330  0.66668  0.61539  1
 W  W1  1  0.66665  0.33327  0.27491  1
 W  W2  1  0.66667  0.33340  0.66721  1
