CIF file written using JARVIS-Tools package.
data_Ga2BiSe4
_symmetry_space_group_name_H-M  'P4/nnc'
_cell_length_a       7.81006
_cell_length_b       7.81006
_cell_length_c       12.7103
_cell_angle_alpha    90
_cell_angle_beta     90
_cell_angle_gamma    90

_symmetry_Int_Tables_number  126
_chemical_formula_structural  Ga2BiSe4
_chemical_formula_sum  Ga8Bi4Se6
_cell_volume  775.2928216528264
_cell_formula_units_Z  4
loop_
  _symmetry_equiv_pos_site_id
 _symmetry_equiv_pos_as_xyz
 1  'x, y, z'
loop_
 _atom_site_type_symbol
 _atom_site_label
 _atom_site_symmetry_multiplicity
 _atom_site_fract_x
 _atom_site_fract_y
 _atom_site_fract_z
 _atom_site_fract_occupancy
 Bi  Bi1  1  0.50000  0.50000  0.37442  1
 Bi  Bi2  1  0.00000  0.00000  0.12558  1
 Bi  Bi3  1  0.00000  0.00000  0.87442  1
 Bi  Bi4  1  0.50000  0.50000  0.62558  1
 Ga  Ga1  1  0.50000  0.00000  0.00000  1
 Ga  Ga2  1  0.00000  0.50000  0.50000  1
 Ga  Ga3  1  0.50000  0.00000  0.75000  1
 Ga  Ga4  1  0.50000  0.00000  0.50000  1
 Ga  Ga5  1  0.00000  0.50000  0.25000  1
 Ga  Ga6  1  0.00000  0.50000  0.00000  1
 Ga  Ga7  1  0.00000  0.50000  0.75000  1
 Ga  Ga8  1  0.50000  0.00000  0.25000  1
 Se  Se1  1  0.82256  0.33955  0.87540  1
 Se  Se2  1  0.66045  0.82256  0.87540  1
 Se  Se3  1  0.32256  0.16045  0.37540  1
 Se  Se4  1  0.83955  0.67744  0.62460  1
 Se  Se5  1  0.16045  0.67744  0.37540  1
 Se  Se6  1  0.67744  0.16045  0.62460  1
 Se  Se7  1  0.16045  0.32256  0.62460  1
 Se  Se8  1  0.82256  0.66045  0.12460  1
 Se  Se9  1  0.17744  0.33955  0.12460  1
 Se  Se10  1  0.32256  0.83955  0.62460  1
 Se  Se11  1  0.17744  0.66045  0.87540  1
 Se  Se12  1  0.83955  0.32256  0.37540  1
 Se  Se13  1  0.67744  0.83955  0.37540  1
 Se  Se14  1  0.33955  0.17744  0.87540  1
 Se  Se15  1  0.66045  0.17744  0.12460  1
 Se  Se16  1  0.33955  0.82256  0.12460  1
