CIF file written using JARVIS-Tools package.
data_KCeSe4
_symmetry_space_group_name_H-M  'P4/nbm'
_cell_length_a       6.35002
_cell_length_b       6.35002
_cell_length_c       8.24709
_cell_angle_alpha    90
_cell_angle_beta     90
_cell_angle_gamma    90

_symmetry_Int_Tables_number  125
_chemical_formula_structural  KCeSe4
_chemical_formula_sum  K2Ce2Se8
_cell_volume  332.54495565560063
_cell_formula_units_Z  2
loop_
  _symmetry_equiv_pos_site_id
 _symmetry_equiv_pos_as_xyz
 1  'x, y, z'
loop_
 _atom_site_type_symbol
 _atom_site_label
 _atom_site_symmetry_multiplicity
 _atom_site_fract_x
 _atom_site_fract_y
 _atom_site_fract_z
 _atom_site_fract_occupancy
 Ce  Ce1  1  0.50000  0.50000  0.00000  1
 Ce  Ce2  1  0.00000  0.00000  0.00000  1
 K  K1  1  0.50000  0.50000  0.50000  1
 K  K2  1  0.00000  0.00000  0.50000  1
 Se  Se1  1  0.63924  0.86076  0.21314  1
 Se  Se2  1  0.13924  0.63924  0.21314  1
 Se  Se3  1  0.86076  0.36076  0.21314  1
 Se  Se4  1  0.63924  0.13924  0.78686  1
 Se  Se5  1  0.36076  0.86076  0.78686  1
 Se  Se6  1  0.36076  0.13924  0.21314  1
 Se  Se7  1  0.86076  0.63924  0.78686  1
 Se  Se8  1  0.13924  0.36076  0.78686  1
