CIF file written using JARVIS-Tools package.
data_FeHO2
_symmetry_space_group_name_H-M  'Pnma'
_cell_length_a       2.86282
_cell_length_b       4.35764
_cell_length_c       9.57183
_cell_angle_alpha    90
_cell_angle_beta     90
_cell_angle_gamma    90

_symmetry_Int_Tables_number  62
_chemical_formula_structural  FeHO2
_chemical_formula_sum  Fe4H4O8
_cell_volume  119.40992498560787
_cell_formula_units_Z  4
loop_
  _symmetry_equiv_pos_site_id
 _symmetry_equiv_pos_as_xyz
 1  'x, y, z'
loop_
 _atom_site_type_symbol
 _atom_site_label
 _atom_site_symmetry_multiplicity
 _atom_site_fract_x
 _atom_site_fract_y
 _atom_site_fract_z
 _atom_site_fract_occupancy
 Fe  Fe1  1  0.25000  0.28705  0.64137  1
 Fe  Fe2  1  0.25000  0.71295  0.14137  1
 Fe  Fe3  1  0.75000  0.21295  0.35863  1
 Fe  Fe4  1  0.75000  0.78705  0.85863  1
 H  H1  1  0.25002  0.67626  0.40808  1
 H  H2  1  0.24998  0.32374  0.90808  1
 H  H3  1  0.75002  0.82374  0.59192  1
 H  H4  1  0.74998  0.17626  0.09192  1
 O  O1  1  0.25000  0.95978  0.30079  1
 O  O2  1  0.25000  0.04022  0.80079  1
 O  O3  1  0.75000  0.54022  0.69921  1
 O  O4  1  0.75000  0.45978  0.19921  1
 O  O5  1  0.25000  0.45808  0.44577  1
 O  O6  1  0.25000  0.54192  0.94577  1
 O  O7  1  0.75000  0.04192  0.55423  1
 O  O8  1  0.75000  0.95808  0.05423  1
