CIF file written using JARVIS-Tools package.
data_Ba2CuClO2
_symmetry_space_group_name_H-M  'R-3m'
_cell_length_a       9.83008
_cell_length_b       9.83008
_cell_length_c       9.83008
_cell_angle_alpha    25.3145
_cell_angle_beta     25.3145
_cell_angle_gamma    25.3145

_symmetry_Int_Tables_number  166
_chemical_formula_structural  Ba2CuClO2
_chemical_formula_sum  Ba2CuClO2
_cell_volume  152.8452489346822
_cell_formula_units_Z  1
loop_
  _symmetry_equiv_pos_site_id
 _symmetry_equiv_pos_as_xyz
 1  'x, y, z'
loop_
 _atom_site_type_symbol
 _atom_site_label
 _atom_site_symmetry_multiplicity
 _atom_site_fract_x
 _atom_site_fract_y
 _atom_site_fract_z
 _atom_site_fract_occupancy
 Ba  Ba1  1  0.74457  0.74457  0.74457  1
 Ba  Ba2  1  0.25543  0.25543  0.25543  1
 Cl  Cl1  1  0.00000  0.00000  0.00000  1
 Cu  Cu1  1  0.50000  0.50000  0.50000  1
 O  O1  1  0.56352  0.56352  0.56352  1
 O  O2  1  0.43648  0.43648  0.43648  1
