CIF file written using JARVIS-Tools package.
data_LiMgPO4
_symmetry_space_group_name_H-M  'Pnma'
_cell_length_a       4.70518
_cell_length_b       5.91361
_cell_length_c       10.1694
_cell_angle_alpha    90
_cell_angle_beta     90
_cell_angle_gamma    90

_symmetry_Int_Tables_number  62
_chemical_formula_structural  LiMgPO4
_chemical_formula_sum  Li4Mg4P4O6
_cell_volume  282.96140655665715
_cell_formula_units_Z  4
loop_
  _symmetry_equiv_pos_site_id
 _symmetry_equiv_pos_as_xyz
 1  'x, y, z'
loop_
 _atom_site_type_symbol
 _atom_site_label
 _atom_site_symmetry_multiplicity
 _atom_site_fract_x
 _atom_site_fract_y
 _atom_site_fract_z
 _atom_site_fract_occupancy
 Li  Li1  1  0.00000  0.00000  0.00000  1
 Li  Li2  1  0.50000  0.00000  0.50000  1
 Li  Li3  1  0.00000  0.50000  0.00000  1
 Li  Li4  1  0.50000  0.50000  0.50000  1
 Mg  Mg1  1  0.01877  0.75000  0.27731  1
 Mg  Mg2  1  0.98123  0.25000  0.72269  1
 Mg  Mg3  1  0.48123  0.75000  0.77731  1
 Mg  Mg4  1  0.51877  0.25000  0.22269  1
 O  O1  1  0.22140  0.45725  0.33454  1
 O  O2  1  0.74245  0.25000  0.90018  1
 O  O3  1  0.27860  0.04275  0.83454  1
 O  O4  1  0.77860  0.54275  0.66546  1
 O  O5  1  0.72140  0.54275  0.16546  1
 O  O6  1  0.20214  0.25000  0.54832  1
 O  O7  1  0.22140  0.04275  0.33454  1
 O  O8  1  0.77860  0.95725  0.66546  1
 O  O9  1  0.25755  0.75000  0.09982  1
 O  O10  1  0.70214  0.75000  0.95168  1
 O  O11  1  0.79786  0.75000  0.45168  1
 O  O12  1  0.24245  0.75000  0.59982  1
 O  O13  1  0.27860  0.45725  0.83454  1
 O  O14  1  0.29786  0.25000  0.04832  1
 O  O15  1  0.75755  0.25000  0.40018  1
 O  O16  1  0.72140  0.95725  0.16546  1
 P  P1  1  0.08328  0.25000  0.40616  1
 P  P2  1  0.41672  0.25000  0.90616  1
 P  P3  1  0.91672  0.75000  0.59384  1
 P  P4  1  0.58328  0.75000  0.09384  1
