CIF file written using JARVIS-Tools package.
data_H
_symmetry_space_group_name_H-M  'Cmce'
_cell_length_a       4.13071
_cell_length_b       4.88096
_cell_length_c       3.41643
_cell_angle_alpha    44.4221
_cell_angle_beta     90
_cell_angle_gamma    90

_symmetry_Int_Tables_number  64
_chemical_formula_structural  H
_chemical_formula_sum  H4
_cell_volume  48.21266048634611
_cell_formula_units_Z  4
loop_
  _symmetry_equiv_pos_site_id
 _symmetry_equiv_pos_as_xyz
 1  'x, y, z'
loop_
 _atom_site_type_symbol
 _atom_site_label
 _atom_site_symmetry_multiplicity
 _atom_site_fract_x
 _atom_site_fract_y
 _atom_site_fract_z
 _atom_site_fract_occupancy
 H  H1  1  0.56871  0.94859  0.10288  1
 H  H2  1  0.93129  0.44859  0.10288  1
 H  H3  1  0.06871  0.55141  0.89712  1
 H  H4  1  0.43129  0.05141  0.89712  1
