CIF file written using JARVIS-Tools package.
data_RbF3
_symmetry_space_group_name_H-M  'Cmcm'
_cell_length_a       5.35302
_cell_length_b       5.78114
_cell_length_c       5.78473
_cell_angle_alpha    119.071
_cell_angle_beta     90.0022
_cell_angle_gamma    90.0004

_symmetry_Int_Tables_number  63
_chemical_formula_structural  RbF3
_chemical_formula_sum  Rb2F6
_cell_volume  156.46429142254755
_cell_formula_units_Z  2
loop_
  _symmetry_equiv_pos_site_id
 _symmetry_equiv_pos_as_xyz
 1  'x, y, z'
loop_
 _atom_site_type_symbol
 _atom_site_label
 _atom_site_symmetry_multiplicity
 _atom_site_fract_x
 _atom_site_fract_y
 _atom_site_fract_z
 _atom_site_fract_occupancy
 F  F1  1  0.74999  0.36711  0.14271  1
 F  F2  1  0.75002  0.85697  0.63183  1
 F  F3  1  0.75000  0.74811  0.25093  1
 F  F4  1  0.25001  0.63286  0.85721  1
 F  F5  1  0.24998  0.14307  0.36825  1
 F  F6  1  0.25000  0.25189  0.74913  1
 Rb  Rb1  1  0.25000  0.64323  0.35638  1
 Rb  Rb2  1  0.75000  0.35677  0.64356  1
