CIF file written using JARVIS-Tools package.
data_MnNiP
_symmetry_space_group_name_H-M  'P-62m'
_cell_length_a       5.88129
_cell_length_b       5.88129
_cell_length_c       3.45876
_cell_angle_alpha    90
_cell_angle_beta     90
_cell_angle_gamma    120

_symmetry_Int_Tables_number  189
_chemical_formula_structural  MnNiP
_chemical_formula_sum  Mn3Ni3P3
_cell_volume  103.60897587241051
_cell_formula_units_Z  3
loop_
  _symmetry_equiv_pos_site_id
 _symmetry_equiv_pos_as_xyz
 1  'x, y, z'
loop_
 _atom_site_type_symbol
 _atom_site_label
 _atom_site_symmetry_multiplicity
 _atom_site_fract_x
 _atom_site_fract_y
 _atom_site_fract_z
 _atom_site_fract_occupancy
 Mn  Mn1  1  0.60129  0.60129  0.50000  1
 Mn  Mn2  1  -0.00000  0.39871  0.50000  1
 Mn  Mn3  1  0.39871  -0.00000  0.50000  1
 Ni  Ni1  1  0.25889  0.25889  0.00000  1
 Ni  Ni2  1  0.00000  0.74111  0.00000  1
 Ni  Ni3  1  0.74111  0.00000  0.00000  1
 P  P1  1  0.00000  0.00000  0.50000  1
 P  P2  1  0.33333  0.66667  0.00000  1
 P  P3  1  0.66667  0.33333  0.00000  1
