CIF file written using JARVIS-Tools package.
data_Ge
_symmetry_space_group_name_H-M  'P4_32_12'
_cell_length_a       6.04306
_cell_length_b       6.04306
_cell_length_c       7.1152
_cell_angle_alpha    90
_cell_angle_beta     90
_cell_angle_gamma    90

_symmetry_Int_Tables_number  96
_chemical_formula_structural  Ge
_chemical_formula_sum  Ge2
_cell_volume  259.837387159349
_cell_formula_units_Z  12
loop_
  _symmetry_equiv_pos_site_id
 _symmetry_equiv_pos_as_xyz
 1  'x, y, z'
loop_
 _atom_site_type_symbol
 _atom_site_label
 _atom_site_symmetry_multiplicity
 _atom_site_fract_x
 _atom_site_fract_y
 _atom_site_fract_z
 _atom_site_fract_occupancy
 Ge  Ge1  1  0.08853  0.08853  0.00000  1
 Ge  Ge2  1  0.41147  0.58853  0.75000  1
 Ge  Ge3  1  0.58853  0.41147  0.25000  1
 Ge  Ge4  1  0.91147  0.91147  0.50000  1
 Ge  Ge5  1  0.17217  0.37051  0.25388  1
 Ge  Ge6  1  0.12949  0.67217  0.00388  1
 Ge  Ge7  1  0.87051  0.32783  0.50388  1
 Ge  Ge8  1  0.67217  0.12949  0.99612  1
 Ge  Ge9  1  0.32783  0.87051  0.49612  1
 Ge  Ge10  1  0.82783  0.62949  0.75388  1
 Ge  Ge11  1  0.37051  0.17217  0.74612  1
 Ge  Ge12  1  0.62949  0.82783  0.24612  1
