CIF file written using JARVIS-Tools package.
data_NaTmTl2
_symmetry_space_group_name_H-M  'Fm-3m'
_cell_length_a       5.27118
_cell_length_b       5.27118
_cell_length_c       5.27118
_cell_angle_alpha    60.0082
_cell_angle_beta     60.0082
_cell_angle_gamma    60.0082

_symmetry_Int_Tables_number  225
_chemical_formula_structural  NaTmTl2
_chemical_formula_sum  NaTmTl2
_cell_volume  103.58290021165163
_cell_formula_units_Z  1
loop_
  _symmetry_equiv_pos_site_id
 _symmetry_equiv_pos_as_xyz
 1  'x, y, z'
loop_
 _atom_site_type_symbol
 _atom_site_label
 _atom_site_symmetry_multiplicity
 _atom_site_fract_x
 _atom_site_fract_y
 _atom_site_fract_z
 _atom_site_fract_occupancy
 Na  Na1  1  0.25000  0.25000  0.25000  1
 Tl  Tl1  1  0.00001  0.00001  0.00001  1
 Tl  Tl2  1  0.49999  0.49999  0.49999  1
 Tm  Tm1  1  0.75000  0.75000  0.75000  1
