CIF file written using JARVIS-Tools package.
data_SrGe2Rh2
_symmetry_space_group_name_H-M  'I4/mmm'
_cell_length_a       4.22212
_cell_length_b       4.22212
_cell_length_c       6.20718
_cell_angle_alpha    109.883
_cell_angle_beta     109.883
_cell_angle_gamma    89.9999

_symmetry_Int_Tables_number  139
_chemical_formula_structural  SrGe2Rh2
_chemical_formula_sum  SrGe2Rh2
_cell_volume  97.01163810379639
_cell_formula_units_Z  1
loop_
  _symmetry_equiv_pos_site_id
 _symmetry_equiv_pos_as_xyz
 1  'x, y, z'
loop_
 _atom_site_type_symbol
 _atom_site_label
 _atom_site_symmetry_multiplicity
 _atom_site_fract_x
 _atom_site_fract_y
 _atom_site_fract_z
 _atom_site_fract_occupancy
 Ge  Ge1  1  0.63198  0.63198  0.26395  1
 Ge  Ge2  1  0.36802  0.36802  0.73605  1
 Rh  Rh1  1  0.75000  0.25000  0.50000  1
 Rh  Rh2  1  0.25000  0.75000  0.50000  1
 Sr  Sr1  1  0.00000  0.00000  0.00000  1
