CIF file written using JARVIS-Tools package.
data_MnBr2
_symmetry_space_group_name_H-M  'Fd-3m'
_cell_length_a       7.68939
_cell_length_b       7.68939
_cell_length_c       7.68939
_cell_angle_alpha    60
_cell_angle_beta     60
_cell_angle_gamma    60

_symmetry_Int_Tables_number  227
_chemical_formula_structural  MnBr2
_chemical_formula_sum  Mn4Br8
_cell_volume  321.4848339622538
_cell_formula_units_Z  4
loop_
  _symmetry_equiv_pos_site_id
 _symmetry_equiv_pos_as_xyz
 1  'x, y, z'
loop_
 _atom_site_type_symbol
 _atom_site_label
 _atom_site_symmetry_multiplicity
 _atom_site_fract_x
 _atom_site_fract_y
 _atom_site_fract_z
 _atom_site_fract_occupancy
 Br  Br1  1  0.74733  0.74733  0.74733  1
 Br  Br2  1  0.74733  0.25803  0.74733  1
 Br  Br3  1  0.25267  0.25267  0.25267  1
 Br  Br4  1  0.25267  0.74197  0.25267  1
 Br  Br5  1  0.25267  0.25267  0.74197  1
 Br  Br6  1  0.25803  0.74733  0.74733  1
 Br  Br7  1  0.74197  0.25267  0.25267  1
 Br  Br8  1  0.74733  0.74733  0.25803  1
 Mn  Mn1  1  0.50000  0.50000  0.00000  1
 Mn  Mn2  1  0.50000  0.50000  0.50000  1
 Mn  Mn3  1  0.50000  0.00000  0.50000  1
 Mn  Mn4  1  -0.00000  0.50000  0.50000  1
