CIF file written using JARVIS-Tools package.
data_RhI
_symmetry_space_group_name_H-M  'P6_3mc'
_cell_length_a       4.03626
_cell_length_b       4.03626
_cell_length_c       7.5669
_cell_angle_alpha    90
_cell_angle_beta     90
_cell_angle_gamma    120

_symmetry_Int_Tables_number  186
_chemical_formula_structural  RhI
_chemical_formula_sum  Rh2I2
_cell_volume  106.7594055675994
_cell_formula_units_Z  2
loop_
  _symmetry_equiv_pos_site_id
 _symmetry_equiv_pos_as_xyz
 1  'x, y, z'
loop_
 _atom_site_type_symbol
 _atom_site_label
 _atom_site_symmetry_multiplicity
 _atom_site_fract_x
 _atom_site_fract_y
 _atom_site_fract_z
 _atom_site_fract_occupancy
 I  I1  1  0.33333  0.66667  0.01421  1
 I  I2  1  0.66667  0.33333  0.51421  1
 Rh  Rh1  1  0.33333  0.66667  0.36079  1
 Rh  Rh2  1  0.66667  0.33333  0.86079  1
