CIF file written using JARVIS-Tools package.
data_TbSi2Pt2
_symmetry_space_group_name_H-M  'I4/mmm'
_cell_length_a       4.23159
_cell_length_b       4.23159
_cell_length_c       5.74151
_cell_angle_alpha    111.624
_cell_angle_beta     111.624
_cell_angle_gamma    90

_symmetry_Int_Tables_number  139
_chemical_formula_structural  TbSi2Pt2
_chemical_formula_sum  TbSi2Pt2
_cell_volume  87.74436143573953
_cell_formula_units_Z  1
loop_
  _symmetry_equiv_pos_site_id
 _symmetry_equiv_pos_as_xyz
 1  'x, y, z'
loop_
 _atom_site_type_symbol
 _atom_site_label
 _atom_site_symmetry_multiplicity
 _atom_site_fract_x
 _atom_site_fract_y
 _atom_site_fract_z
 _atom_site_fract_occupancy
 Pt  Pt1  1  0.75000  0.25000  0.50000  1
 Pt  Pt2  1  0.25000  0.75000  0.50000  1
 Si  Si1  1  0.38046  0.38046  0.76092  1
 Si  Si2  1  0.61954  0.61954  0.23908  1
 Tb  Tb1  1  0.00000  0.00000  0.00000  1
