CIF file written using JARVIS-Tools package.
data_ScGa2Ni
_symmetry_space_group_name_H-M  'Cmcm'
_cell_length_a       4.04272
_cell_length_b       5.19298
_cell_length_c       6.42523
_cell_angle_alpha    90
_cell_angle_beta     90
_cell_angle_gamma    112.908

_symmetry_Int_Tables_number  63
_chemical_formula_structural  ScGa2Ni
_chemical_formula_sum  Sc2Ga4Ni2
_cell_volume  124.25151129132946
_cell_formula_units_Z  2
loop_
  _symmetry_equiv_pos_site_id
 _symmetry_equiv_pos_as_xyz
 1  'x, y, z'
loop_
 _atom_site_type_symbol
 _atom_site_label
 _atom_site_symmetry_multiplicity
 _atom_site_fract_x
 _atom_site_fract_y
 _atom_site_fract_z
 _atom_site_fract_occupancy
 Ga  Ga1  1  0.36425  0.72851  0.45109  1
 Ga  Ga2  1  0.63575  0.27149  0.54891  1
 Ga  Ga3  1  0.63575  0.27149  0.95109  1
 Ga  Ga4  1  0.36425  0.72851  0.04891  1
 Ni  Ni1  1  0.79463  0.58926  0.25000  1
 Ni  Ni2  1  0.20537  0.41074  0.75000  1
 Sc  Sc1  1  0.07626  0.15252  0.25000  1
 Sc  Sc2  1  0.92374  0.84748  0.75000  1
