CIF file written using JARVIS-Tools package.
data_HfSiNi
_symmetry_space_group_name_H-M  'F-43m'
_cell_length_a       4.16785
_cell_length_b       4.16784
_cell_length_c       4.16785
_cell_angle_alpha    59.9997
_cell_angle_beta     59.9998
_cell_angle_gamma    59.9997

_symmetry_Int_Tables_number  216
_chemical_formula_structural  HfSiNi
_chemical_formula_sum  HfSiNi
_cell_volume  51.19377906525694
_cell_formula_units_Z  1
loop_
  _symmetry_equiv_pos_site_id
 _symmetry_equiv_pos_as_xyz
 1  'x, y, z'
loop_
 _atom_site_type_symbol
 _atom_site_label
 _atom_site_symmetry_multiplicity
 _atom_site_fract_x
 _atom_site_fract_y
 _atom_site_fract_z
 _atom_site_fract_occupancy
 Hf  Hf1  1  0.00000  0.00000  0.00000  1
 Ni  Ni1  1  0.50000  0.50000  0.50000  1
 Si  Si1  1  0.25000  0.25000  0.25000  1
