CIF file written using JARVIS-Tools package.
data_PrGeRu
_symmetry_space_group_name_H-M  'P4/nmm'
_cell_length_a       4.32191
_cell_length_b       4.32191
_cell_length_c       6.94391
_cell_angle_alpha    90
_cell_angle_beta     90
_cell_angle_gamma    90

_symmetry_Int_Tables_number  129
_chemical_formula_structural  PrGeRu
_chemical_formula_sum  Pr2Ge2Ru2
_cell_volume  129.70452662232967
_cell_formula_units_Z  2
loop_
  _symmetry_equiv_pos_site_id
 _symmetry_equiv_pos_as_xyz
 1  'x, y, z'
loop_
 _atom_site_type_symbol
 _atom_site_label
 _atom_site_symmetry_multiplicity
 _atom_site_fract_x
 _atom_site_fract_y
 _atom_site_fract_z
 _atom_site_fract_occupancy
 Ge  Ge1  1  0.00000  0.50000  0.80852  1
 Ge  Ge2  1  0.50000  0.00000  0.19148  1
 Pr  Pr1  1  0.00000  0.50000  0.31541  1
 Pr  Pr2  1  0.50000  0.00000  0.68459  1
 Ru  Ru1  1  0.00000  0.00000  0.00000  1
 Ru  Ru2  1  0.50000  0.50000  0.00000  1
