CIF file written using JARVIS-Tools package.
data_Sr3Sn4Ir4
_symmetry_space_group_name_H-M  'I-43m'
_cell_length_a       7.07102
_cell_length_b       7.07102
_cell_length_c       7.07102
_cell_angle_alpha    109.471
_cell_angle_beta     109.471
_cell_angle_gamma    109.471

_symmetry_Int_Tables_number  217
_chemical_formula_structural  Sr3Sn4Ir4
_chemical_formula_sum  Sr3Sn4Ir4
_cell_volume  272.159669478968
_cell_formula_units_Z  1
loop_
  _symmetry_equiv_pos_site_id
 _symmetry_equiv_pos_as_xyz
 1  'x, y, z'
loop_
 _atom_site_type_symbol
 _atom_site_label
 _atom_site_symmetry_multiplicity
 _atom_site_fract_x
 _atom_site_fract_y
 _atom_site_fract_z
 _atom_site_fract_occupancy
 Ir  Ir1  1  0.00000  0.00000  0.75011  1
 Ir  Ir2  1  0.75011  -0.00000  -0.00000  1
 Ir  Ir3  1  0.24989  0.24989  0.24989  1
 Ir  Ir4  1  -0.00000  0.75011  0.00000  1
 Sn  Sn1  1  0.00000  0.38631  -0.00000  1
 Sn  Sn2  1  0.38631  0.00000  0.00000  1
 Sn  Sn3  1  0.00000  0.00000  0.38631  1
 Sn  Sn4  1  0.61369  0.61369  0.61369  1
 Sr  Sr1  1  0.00000  0.50000  0.50000  1
 Sr  Sr2  1  0.50000  0.00000  0.50000  1
 Sr  Sr3  1  0.50000  0.50000  0.00000  1
