CIF file written using JARVIS-Tools package.
data_Dy2C3
_symmetry_space_group_name_H-M  'I-43d'
_cell_length_a       7.12103
_cell_length_b       7.12104
_cell_length_c       7.12103
_cell_angle_alpha    109.471
_cell_angle_beta     109.471
_cell_angle_gamma    109.471

_symmetry_Int_Tables_number  220
_chemical_formula_structural  Dy2C3
_chemical_formula_sum  Dy8C2
_cell_volume  277.975782498753
_cell_formula_units_Z  4
loop_
  _symmetry_equiv_pos_site_id
 _symmetry_equiv_pos_as_xyz
 1  'x, y, z'
loop_
 _atom_site_type_symbol
 _atom_site_label
 _atom_site_symmetry_multiplicity
 _atom_site_fract_x
 _atom_site_fract_y
 _atom_site_fract_z
 _atom_site_fract_occupancy
 C  C1  1  0.04394  0.75000  0.79394  1
 C  C2  1  0.75000  0.95606  0.20606  1
 C  C3  1  0.29394  0.25000  0.54394  1
 C  C4  1  0.54394  0.29394  0.25000  1
 C  C5  1  0.20606  0.75000  0.95606  1
 C  C6  1  0.95606  0.20606  0.75000  1
 C  C7  1  0.25000  0.70606  0.45606  1
 C  C8  1  0.70606  0.45606  0.25000  1
 C  C9  1  0.75000  0.79394  0.04394  1
 C  C10  1  0.45606  0.25000  0.70606  1
 C  C11  1  0.79394  0.04394  0.75000  1
 C  C12  1  0.25000  0.54394  0.29394  1
 Dy  Dy1  1  0.89833  0.50000  0.00000  1
 Dy  Dy2  1  0.60167  0.60167  0.60167  1
 Dy  Dy3  1  0.39833  0.50000  0.00000  1
 Dy  Dy4  1  0.50000  0.00000  0.39833  1
 Dy  Dy5  1  0.00000  0.39833  0.50000  1
 Dy  Dy6  1  0.50000  0.00000  0.89833  1
 Dy  Dy7  1  0.00000  0.89833  0.50000  1
 Dy  Dy8  1  0.10167  0.10167  0.10167  1
