CIF file written using JARVIS-Tools package.
data_SrRuO3
_symmetry_space_group_name_H-M  'Pnma'
_cell_length_a       5.56356
_cell_length_b       5.59566
_cell_length_c       7.87621
_cell_angle_alpha    90
_cell_angle_beta     90
_cell_angle_gamma    90

_symmetry_Int_Tables_number  62
_chemical_formula_structural  SrRuO3
_chemical_formula_sum  Sr4Ru4O2
_cell_volume  245.20043280385553
_cell_formula_units_Z  4
loop_
  _symmetry_equiv_pos_site_id
 _symmetry_equiv_pos_as_xyz
 1  'x, y, z'
loop_
 _atom_site_type_symbol
 _atom_site_label
 _atom_site_symmetry_multiplicity
 _atom_site_fract_x
 _atom_site_fract_y
 _atom_site_fract_z
 _atom_site_fract_occupancy
 O  O1  1  0.21816  0.21827  0.46799  1
 O  O2  1  0.78184  0.78173  0.53201  1
 O  O3  1  0.49644  0.06122  0.75000  1
 O  O4  1  0.71816  0.28173  0.03201  1
 O  O5  1  0.28184  0.71827  0.96799  1
 O  O6  1  0.71816  0.28173  0.46799  1
 O  O7  1  0.78184  0.78173  0.96799  1
 O  O8  1  0.28184  0.71827  0.53201  1
 O  O9  1  0.21816  0.21827  0.03201  1
 O  O10  1  0.00356  0.56122  0.25000  1
 O  O11  1  0.99644  0.43878  0.75000  1
 O  O12  1  0.50356  0.93878  0.25000  1
 Ru  Ru1  1  0.50000  0.00000  0.50000  1
 Ru  Ru2  1  0.50000  0.00000  0.00000  1
 Ru  Ru3  1  0.00000  0.50000  0.00000  1
 Ru  Ru4  1  0.00000  0.50000  0.50000  1
 Sr  Sr1  1  0.02527  0.99618  0.75000  1
 Sr  Sr2  1  0.97473  0.00382  0.25000  1
 Sr  Sr3  1  0.47473  0.49618  0.25000  1
 Sr  Sr4  1  0.52527  0.50382  0.75000  1
