CIF file written using JARVIS-Tools package.
data_Mg2SnO4
_symmetry_space_group_name_H-M  'Fd-3m'
_cell_length_a       6.11024
_cell_length_b       6.11022
_cell_length_c       6.11017
_cell_angle_alpha    120
_cell_angle_beta     90
_cell_angle_gamma    120.001

_symmetry_Int_Tables_number  227
_chemical_formula_structural  Mg2SnO4
_chemical_formula_sum  Mg4Sn2O8
_cell_volume  161.30442287056738
_cell_formula_units_Z  2
loop_
  _symmetry_equiv_pos_site_id
 _symmetry_equiv_pos_as_xyz
 1  'x, y, z'
loop_
 _atom_site_type_symbol
 _atom_site_label
 _atom_site_symmetry_multiplicity
 _atom_site_fract_x
 _atom_site_fract_y
 _atom_site_fract_z
 _atom_site_fract_occupancy
 Mg  Mg1  1  0.50000  0.00000  0.00000  1
 Mg  Mg2  1  0.50000  -0.00000  0.50000  1
 Mg  Mg3  1  0.00000  0.50000  0.50000  1
 Mg  Mg4  1  0.50000  0.50000  0.50000  1
 O  O1  1  0.74187  0.01626  0.25813  1
 O  O2  1  0.27439  0.01626  0.25813  1
 O  O3  1  0.74187  0.48374  0.25813  1
 O  O4  1  0.25813  0.51626  0.27439  1
 O  O5  1  0.74187  0.48374  0.72561  1
 O  O6  1  0.25813  0.98374  0.74187  1
 O  O7  1  0.72561  0.98374  0.74187  1
 O  O8  1  0.25813  0.51626  0.74187  1
 Sn  Sn1  1  0.87500  0.75000  0.12500  1
 Sn  Sn2  1  0.12500  0.25000  0.87500  1
