CIF file written using JARVIS-Tools package.
data_K2SrV4O12
_symmetry_space_group_name_H-M  'P4/nbm'
_cell_length_a       10.9617
_cell_length_b       10.9617
_cell_length_c       5.34852
_cell_angle_alpha    90
_cell_angle_beta     90
_cell_angle_gamma    90

_symmetry_Int_Tables_number  125
_chemical_formula_structural  K2SrV4O12
_chemical_formula_sum  K4Sr2V8O24
_cell_volume  642.6678261179248
_cell_formula_units_Z  2
loop_
  _symmetry_equiv_pos_site_id
 _symmetry_equiv_pos_as_xyz
 1  'x, y, z'
loop_
 _atom_site_type_symbol
 _atom_site_label
 _atom_site_symmetry_multiplicity
 _atom_site_fract_x
 _atom_site_fract_y
 _atom_site_fract_z
 _atom_site_fract_occupancy
 K  K1  1  0.75000  0.75000  0.50000  1
 K  K2  1  0.75000  0.25000  0.50000  1
 K  K3  1  0.25000  0.75000  0.50000  1
 K  K4  1  0.25000  0.25000  0.50000  1
 O  O1  1  0.12369  0.37631  0.11053  1
 O  O2  1  0.04800  0.80606  0.23723  1
 O  O3  1  0.19394  0.95200  0.76277  1
 O  O4  1  0.30606  0.45200  0.76277  1
 O  O5  1  0.95200  0.80606  0.76277  1
 O  O6  1  0.04800  0.19394  0.76277  1
 O  O7  1  0.69394  0.54800  0.76277  1
 O  O8  1  0.45200  0.69394  0.76277  1
 O  O9  1  0.37631  0.87631  0.11053  1
 O  O10  1  0.80606  0.95200  0.23723  1
 O  O11  1  0.30606  0.54800  0.23723  1
 O  O12  1  0.69394  0.45200  0.23723  1
 O  O13  1  0.54800  0.69394  0.23723  1
 O  O14  1  0.45200  0.30606  0.23723  1
 O  O15  1  0.54800  0.30606  0.76277  1
 O  O16  1  0.62369  0.12369  0.11053  1
 O  O17  1  0.87631  0.37631  0.88947  1
 O  O18  1  0.80606  0.04800  0.76277  1
 O  O19  1  0.87631  0.62369  0.11053  1
 O  O20  1  0.19394  0.04800  0.23723  1
 O  O21  1  0.95200  0.19394  0.23723  1
 O  O22  1  0.37631  0.12369  0.88947  1
 O  O23  1  0.12369  0.62369  0.88947  1
 O  O24  1  0.62369  0.87631  0.88947  1
 Sr  Sr1  1  0.00000  0.00000  0.50000  1
 Sr  Sr2  1  0.50000  0.50000  0.50000  1
 V  V1  1  0.50000  0.78027  0.00000  1
 V  V2  1  0.71973  0.00000  0.00000  1
 V  V3  1  0.00000  0.28027  0.00000  1
 V  V4  1  0.50000  0.21973  0.00000  1
 V  V5  1  0.78027  0.50000  0.00000  1
 V  V6  1  0.21973  0.50000  0.00000  1
 V  V7  1  0.00000  0.71973  0.00000  1
 V  V8  1  0.28027  0.00000  0.00000  1
