CIF file written using JARVIS-Tools package.
data_Pr2Re2Si2C
_symmetry_space_group_name_H-M  'C2/m'
_cell_length_a       4.09747
_cell_length_b       5.99824
_cell_length_c       6.17692
_cell_angle_alpha    72.9982
_cell_angle_beta     70.6294
_cell_angle_gamma    70.0283

_symmetry_Int_Tables_number  12
_chemical_formula_structural  Pr2Re2Si2C
_chemical_formula_sum  Pr2Re2Si2C
_cell_volume  131.83237252847692
_cell_formula_units_Z  1
loop_
  _symmetry_equiv_pos_site_id
 _symmetry_equiv_pos_as_xyz
 1  'x, y, z'
loop_
 _atom_site_type_symbol
 _atom_site_label
 _atom_site_symmetry_multiplicity
 _atom_site_fract_x
 _atom_site_fract_y
 _atom_site_fract_z
 _atom_site_fract_occupancy
 C  C1  1  0.00000  0.00000  0.00000  1
 Pr  Pr1  1  0.42863  0.83861  0.30413  1
 Pr  Pr2  1  0.57137  0.16139  0.69587  1
 Re  Re1  1  0.79723  0.31778  0.08776  1
 Re  Re2  1  0.20277  0.68222  0.91224  1
 Si  Si1  1  0.84746  0.60169  0.70339  1
 Si  Si2  1  0.15254  0.39831  0.29661  1
