CIF file written using JARVIS-Tools package.
data_CeScSi
_symmetry_space_group_name_H-M  'I4/mmm'
_cell_length_a       4.22177
_cell_length_b       4.22176
_cell_length_c       8.43394
_cell_angle_alpha    104.494
_cell_angle_beta     104.494
_cell_angle_gamma    89.9999

_symmetry_Int_Tables_number  139
_chemical_formula_structural  CeScSi
_chemical_formula_sum  Ce2Sc2Si2
_cell_volume  140.58945102287964
_cell_formula_units_Z  2
loop_
  _symmetry_equiv_pos_site_id
 _symmetry_equiv_pos_as_xyz
 1  'x, y, z'
loop_
 _atom_site_type_symbol
 _atom_site_label
 _atom_site_symmetry_multiplicity
 _atom_site_fract_x
 _atom_site_fract_y
 _atom_site_fract_z
 _atom_site_fract_occupancy
 Ce  Ce1  1  0.67896  0.67896  0.35792  1
 Ce  Ce2  1  0.32104  0.32104  0.64208  1
 Sc  Sc1  1  0.50000  -0.00000  0.00000  1
 Sc  Sc2  1  0.00000  0.50000  -0.00000  1
 Si  Si1  1  0.87627  0.87627  0.75253  1
 Si  Si2  1  0.12373  0.12373  0.24747  1
