CIF file written using JARVIS-Tools package.
data_Ti6Si2B
_symmetry_space_group_name_H-M  'P-62m'
_cell_length_a       6.78188
_cell_length_b       6.78188
_cell_length_c       3.32721
_cell_angle_alpha    90
_cell_angle_beta     90
_cell_angle_gamma    120

_symmetry_Int_Tables_number  189
_chemical_formula_structural  Ti6Si2B
_chemical_formula_sum  Ti6Si2B
_cell_volume  132.5289007343347
_cell_formula_units_Z  1
loop_
  _symmetry_equiv_pos_site_id
 _symmetry_equiv_pos_as_xyz
 1  'x, y, z'
loop_
 _atom_site_type_symbol
 _atom_site_label
 _atom_site_symmetry_multiplicity
 _atom_site_fract_x
 _atom_site_fract_y
 _atom_site_fract_z
 _atom_site_fract_occupancy
 B  B1  1  0.00000  0.00000  0.00000  1
 Si  Si1  1  0.33333  0.66667  0.50000  1
 Si  Si2  1  0.66667  0.33333  0.50000  1
 Ti  Ti1  1  0.23871  0.23871  0.50000  1
 Ti  Ti2  1  0.76129  -0.00000  0.50000  1
 Ti  Ti3  1  -0.00000  0.76129  0.50000  1
 Ti  Ti4  1  0.60210  0.60210  0.00000  1
 Ti  Ti5  1  0.39790  0.00000  0.00000  1
 Ti  Ti6  1  0.00000  0.39790  0.00000  1
