CIF file written using JARVIS-Tools package.
data_CaSnS3
_symmetry_space_group_name_H-M  'Fd-3m'
_cell_length_a       9.05422
_cell_length_b       9.05422
_cell_length_c       9.05422
_cell_angle_alpha    60
_cell_angle_beta     60
_cell_angle_gamma    60

_symmetry_Int_Tables_number  227
_chemical_formula_structural  CaSnS3
_chemical_formula_sum  Ca4Sn4S2
_cell_volume  524.8533366992586
_cell_formula_units_Z  4
loop_
  _symmetry_equiv_pos_site_id
 _symmetry_equiv_pos_as_xyz
 1  'x, y, z'
loop_
 _atom_site_type_symbol
 _atom_site_label
 _atom_site_symmetry_multiplicity
 _atom_site_fract_x
 _atom_site_fract_y
 _atom_site_fract_z
 _atom_site_fract_occupancy
 Ca  Ca1  1  0.50000  0.50000  -0.00000  1
 Ca  Ca2  1  0.00000  0.50000  -0.00000  1
 Ca  Ca3  1  0.00000  0.50000  0.50000  1
 Ca  Ca4  1  0.00000  0.00000  0.00000  1
 S  S1  1  0.15425  0.09575  0.59575  1
 S  S2  1  0.40425  0.90425  0.84575  1
 S  S3  1  0.15425  0.09575  0.15425  1
 S  S4  1  0.59575  0.65425  0.59575  1
 S  S5  1  0.59575  0.65425  0.15425  1
 S  S6  1  0.15425  0.65425  0.59575  1
 S  S7  1  0.84575  0.90425  0.40425  1
 S  S8  1  0.84575  0.90425  0.84575  1
 S  S9  1  0.59575  0.09575  0.15425  1
 S  S10  1  0.40425  0.34575  0.40425  1
 S  S11  1  0.40425  0.34575  0.84575  1
 S  S12  1  0.84575  0.34575  0.40425  1
 Sn  Sn1  1  0.50000  0.50000  0.50000  1
 Sn  Sn2  1  0.50000  0.00000  -0.00000  1
 Sn  Sn3  1  0.50000  0.00000  0.50000  1
 Sn  Sn4  1  0.00000  -0.00000  0.50000  1
