CIF file written using JARVIS-Tools package.
data_NiN
_symmetry_space_group_name_H-M  'P6_3mc'
_cell_length_a       3.02249
_cell_length_b       3.02249
_cell_length_c       5.12294
_cell_angle_alpha    90
_cell_angle_beta     90
_cell_angle_gamma    120

_symmetry_Int_Tables_number  186
_chemical_formula_structural  NiN
_chemical_formula_sum  Ni2N2
_cell_volume  40.53030130053489
_cell_formula_units_Z  2
loop_
  _symmetry_equiv_pos_site_id
 _symmetry_equiv_pos_as_xyz
 1  'x, y, z'
loop_
 _atom_site_type_symbol
 _atom_site_label
 _atom_site_symmetry_multiplicity
 _atom_site_fract_x
 _atom_site_fract_y
 _atom_site_fract_z
 _atom_site_fract_occupancy
 N  N1  1  0.33333  0.66667  0.00338  1
 N  N2  1  0.66667  0.33333  0.50338  1
 Ni  Ni1  1  0.33333  0.66667  0.37163  1
 Ni  Ni2  1  0.66667  0.33333  0.87163  1
