CIF file written using JARVIS-Tools package.
data_Zr2Co12P7
_symmetry_space_group_name_H-M  'P-6'
_cell_length_a       8.9344
_cell_length_b       3.55925
_cell_length_c       8.93439
_cell_angle_alpha    90
_cell_angle_beta     119.999
_cell_angle_gamma    90

_symmetry_Int_Tables_number  174
_chemical_formula_structural  Zr2Co12P7
_chemical_formula_sum  Zr2Co2P7
_cell_volume  246.04971456762203
_cell_formula_units_Z  1
loop_
  _symmetry_equiv_pos_site_id
 _symmetry_equiv_pos_as_xyz
 1  'x, y, z'
loop_
 _atom_site_type_symbol
 _atom_site_label
 _atom_site_symmetry_multiplicity
 _atom_site_fract_x
 _atom_site_fract_y
 _atom_site_fract_z
 _atom_site_fract_occupancy
 Co  Co1  1  0.37525  0.00000  0.43922  1
 Co  Co2  1  0.13290  0.50000  0.23395  1
 Co  Co3  1  0.10105  0.50000  0.86710  1
 Co  Co4  1  0.76605  0.50000  0.89895  1
 Co  Co5  1  0.27620  0.00000  0.11868  1
 Co  Co6  1  0.84249  0.00000  0.72380  1
 Co  Co7  1  0.88132  0.00000  0.15751  1
 Co  Co8  1  0.43964  0.50000  0.05498  1
 Co  Co9  1  0.61534  0.50000  0.56036  1
 Co  Co10  1  0.06397  0.00000  0.62475  1
 Co  Co11  1  0.56078  0.00000  0.93604  1
 Co  Co12  1  0.94502  0.50000  0.38466  1
 P  P1  1  0.00000  0.00000  -0.00000  1
 P  P2  1  0.71034  0.50000  0.11587  1
 P  P3  1  0.40553  0.50000  0.28966  1
 P  P4  1  0.11710  0.00000  0.40909  1
 P  P5  1  0.29199  0.00000  0.88290  1
 P  P6  1  0.59091  0.00000  0.70801  1
 P  P7  1  0.88413  0.50000  0.59446  1
 Zr  Zr1  1  0.33334  0.50000  0.66667  1
 Zr  Zr2  1  0.66667  0.00000  0.33334  1
