CIF file written using JARVIS-Tools package.
data_KCu4Se3
_symmetry_space_group_name_H-M  'P4/mmm'
_cell_length_a       4.00902
_cell_length_b       4.00902
_cell_length_c       9.84625
_cell_angle_alpha    90
_cell_angle_beta     90
_cell_angle_gamma    90

_symmetry_Int_Tables_number  123
_chemical_formula_structural  KCu4Se3
_chemical_formula_sum  KCu4Se3
_cell_volume  158.25159056506857
_cell_formula_units_Z  1
loop_
  _symmetry_equiv_pos_site_id
 _symmetry_equiv_pos_as_xyz
 1  'x, y, z'
loop_
 _atom_site_type_symbol
 _atom_site_label
 _atom_site_symmetry_multiplicity
 _atom_site_fract_x
 _atom_site_fract_y
 _atom_site_fract_z
 _atom_site_fract_occupancy
 Cu  Cu1  1  0.50000  0.00000  0.16495  1
 Cu  Cu2  1  0.00000  0.50000  0.83505  1
 Cu  Cu3  1  0.50000  0.00000  0.83505  1
 Cu  Cu4  1  0.00000  0.50000  0.16495  1
 K  K1  1  0.50000  0.50000  0.50000  1
 Se  Se1  1  0.00000  0.00000  0.30660  1
 Se  Se2  1  0.00000  0.00000  0.69340  1
 Se  Se3  1  0.50000  0.50000  0.00000  1
