CIF file written using JARVIS-Tools package.
data_Mo3WSe6S2
_symmetry_space_group_name_H-M  'P3m1'
_cell_length_a       3.29222
_cell_length_b       3.29222
_cell_length_c       34.9215
_cell_angle_alpha    89.9982
_cell_angle_beta     89.9997
_cell_angle_gamma    120

_symmetry_Int_Tables_number  156
_chemical_formula_structural  Mo3WSe6S2
_chemical_formula_sum  Mo3WSe6S2
_cell_volume  327.793599880571
_cell_formula_units_Z  1
loop_
  _symmetry_equiv_pos_site_id
 _symmetry_equiv_pos_as_xyz
 1  'x, y, z'
loop_
 _atom_site_type_symbol
 _atom_site_label
 _atom_site_symmetry_multiplicity
 _atom_site_fract_x
 _atom_site_fract_y
 _atom_site_fract_z
 _atom_site_fract_occupancy
 Mo  Mo1  1  0.33335  0.66663  0.09651  1
 Mo  Mo2  1  0.33333  0.66670  0.46863  1
 Mo  Mo3  1  0.66664  0.33332  0.27915  1
 S  S1  1  0.66669  0.33332  0.05258  1
 S  S2  1  0.66667  0.33328  0.14050  1
 Se  Se1  1  0.33328  0.66661  0.32742  1
 Se  Se2  1  0.33334  0.66669  0.70713  1
 Se  Se3  1  0.66669  0.33340  0.42036  1
 Se  Se4  1  0.66664  0.33333  0.51690  1
 Se  Se5  1  0.33333  0.66669  0.23089  1
 Se  Se6  1  0.33334  0.66668  0.61006  1
 W  W1  1  0.66668  0.33335  0.65862  1
