CIF file written using JARVIS-Tools package.
data_SiB4
_symmetry_space_group_name_H-M  'R-3m'
_cell_length_a       5.51784
_cell_length_b       5.51784
_cell_length_c       5.51783
_cell_angle_alpha    68.797
_cell_angle_beta     68.797
_cell_angle_gamma    68.7971

_symmetry_Int_Tables_number  166
_chemical_formula_structural  SiB4
_chemical_formula_sum  Si3B2
_cell_volume  140.7781891721857
_cell_formula_units_Z  3
loop_
  _symmetry_equiv_pos_site_id
 _symmetry_equiv_pos_as_xyz
 1  'x, y, z'
loop_
 _atom_site_type_symbol
 _atom_site_label
 _atom_site_symmetry_multiplicity
 _atom_site_fract_x
 _atom_site_fract_y
 _atom_site_fract_z
 _atom_site_fract_occupancy
 B  B1  1  0.82374  0.27423  0.82375  1
 B  B2  1  0.82375  0.82375  0.27422  1
 B  B3  1  0.27423  0.82374  0.82375  1
 B  B4  1  0.72577  0.17625  0.17625  1
 B  B5  1  0.17625  0.17625  0.72578  1
 B  B6  1  0.17625  0.72577  0.17625  1
 B  B7  1  0.98592  0.67753  0.98592  1
 B  B8  1  0.98592  0.98592  0.67753  1
 B  B9  1  0.67753  0.98592  0.98592  1
 B  B10  1  0.32247  0.01408  0.01408  1
 B  B11  1  0.01408  0.01408  0.32247  1
 B  B12  1  0.01408  0.32247  0.01408  1
 Si  Si1  1  0.32742  0.32742  0.32742  1
 Si  Si2  1  0.67258  0.67258  0.67258  1
 Si  Si3  1  0.50000  0.50000  0.50000  1
