CIF file written using JARVIS-Tools package.
data_NdHO2
_symmetry_space_group_name_H-M  'P2_1'
_cell_length_a       4.40212
_cell_length_b       3.83785
_cell_length_c       6.27379
_cell_angle_alpha    90
_cell_angle_beta     107.815
_cell_angle_gamma    90

_symmetry_Int_Tables_number  4
_chemical_formula_structural  NdHO2
_chemical_formula_sum  Nd2H2O4
_cell_volume  100.9112556641828
_cell_formula_units_Z  2
loop_
  _symmetry_equiv_pos_site_id
 _symmetry_equiv_pos_as_xyz
 1  'x, y, z'
loop_
 _atom_site_type_symbol
 _atom_site_label
 _atom_site_symmetry_multiplicity
 _atom_site_fract_x
 _atom_site_fract_y
 _atom_site_fract_z
 _atom_site_fract_occupancy
 H  H1  1  0.03058  0.63785  0.94854  1
 H  H2  1  0.96942  0.13785  0.05146  1
 Nd  Nd1  1  0.33142  0.22230  0.69234  1
 Nd  Nd2  1  0.66858  0.72230  0.30766  1
 O  O1  1  0.23927  0.72422  0.46013  1
 O  O2  1  0.76073  0.22422  0.53987  1
 O  O3  1  0.23462  0.73624  0.94449  1
 O  O4  1  0.76538  0.23624  0.05551  1
