CIF file written using JARVIS-Tools package.
data_Hf6Zn6N
_symmetry_space_group_name_H-M  'Fd-3m'
_cell_length_a       8.45315
_cell_length_b       8.45315
_cell_length_c       8.45315
_cell_angle_alpha    60
_cell_angle_beta     60
_cell_angle_gamma    60

_symmetry_Int_Tables_number  227
_chemical_formula_structural  Hf6Zn6N
_chemical_formula_sum  Hf2Zn2N2
_cell_volume  427.1120394020252
_cell_formula_units_Z  2
loop_
  _symmetry_equiv_pos_site_id
 _symmetry_equiv_pos_as_xyz
 1  'x, y, z'
loop_
 _atom_site_type_symbol
 _atom_site_label
 _atom_site_symmetry_multiplicity
 _atom_site_fract_x
 _atom_site_fract_y
 _atom_site_fract_z
 _atom_site_fract_occupancy
 Hf  Hf1  1  0.81031  0.81031  0.18969  1
 Hf  Hf2  1  0.56031  0.93969  0.56031  1
 Hf  Hf3  1  0.18969  0.18969  0.81031  1
 Hf  Hf4  1  0.81031  0.18969  0.18969  1
 Hf  Hf5  1  0.56031  0.93969  0.93969  1
 Hf  Hf6  1  0.81031  0.18969  0.81031  1
 Hf  Hf7  1  0.18969  0.81031  0.18969  1
 Hf  Hf8  1  0.18969  0.81031  0.81031  1
 Hf  Hf9  1  0.93969  0.56031  0.93969  1
 Hf  Hf10  1  0.93969  0.56031  0.56031  1
 Hf  Hf11  1  0.56031  0.56031  0.93969  1
 Hf  Hf12  1  0.93969  0.93969  0.56031  1
 N  N1  1  0.75000  0.75000  0.75000  1
 N  N2  1  0.00000  0.00000  0.00000  1
 Zn  Zn1  1  0.37500  0.37500  0.87500  1
 Zn  Zn2  1  0.37500  0.87500  0.37500  1
 Zn  Zn3  1  0.87500  0.37500  0.37500  1
 Zn  Zn4  1  0.37500  0.37500  0.37500  1
 Zn  Zn5  1  0.16710  0.16710  0.49870  1
 Zn  Zn6  1  0.16710  0.16710  0.16710  1
 Zn  Zn7  1  0.49870  0.16710  0.16710  1
 Zn  Zn8  1  0.58290  0.58290  0.25130  1
 Zn  Zn9  1  0.58290  0.25130  0.58290  1
 Zn  Zn10  1  0.25130  0.58290  0.58290  1
 Zn  Zn11  1  0.58290  0.58290  0.58290  1
 Zn  Zn12  1  0.16710  0.49870  0.16710  1
