CIF file written using JARVIS-Tools package.
data_Er2Al3Si2
_symmetry_space_group_name_H-M  'C2/m'
_cell_length_a       4.03196
_cell_length_b       5.45036
_cell_length_c       6.6066
_cell_angle_alpha    99.8796
_cell_angle_beta     90
_cell_angle_gamma    111.708

_symmetry_Int_Tables_number  12
_chemical_formula_structural  Er2Al3Si2
_chemical_formula_sum  Er2Al3Si2
_cell_volume  132.5678701922591
_cell_formula_units_Z  1
loop_
  _symmetry_equiv_pos_site_id
 _symmetry_equiv_pos_as_xyz
 1  'x, y, z'
loop_
 _atom_site_type_symbol
 _atom_site_label
 _atom_site_symmetry_multiplicity
 _atom_site_fract_x
 _atom_site_fract_y
 _atom_site_fract_z
 _atom_site_fract_occupancy
 Al  Al1  1  0.69512  0.39023  0.86645  1
 Al  Al2  1  0.00000  0.00000  0.00000  1
 Al  Al3  1  0.30488  0.60977  0.13355  1
 Er  Er1  1  0.38084  0.76169  0.67838  1
 Er  Er2  1  0.61916  0.23831  0.32162  1
 Si  Si1  1  0.90559  0.81118  0.36176  1
 Si  Si2  1  0.09441  0.18882  0.63824  1
