CIF file written using JARVIS-Tools package.
data_KH8N3
_symmetry_space_group_name_H-M  'C222_1'
_cell_length_a       5.99348
_cell_length_b       5.99348
_cell_length_c       6.55346
_cell_angle_alpha    90
_cell_angle_beta     90
_cell_angle_gamma    69.24

_symmetry_Int_Tables_number  20
_chemical_formula_structural  KH8N3
_chemical_formula_sum  K2H6N6
_cell_volume  220.1273828360657
_cell_formula_units_Z  2
loop_
  _symmetry_equiv_pos_site_id
 _symmetry_equiv_pos_as_xyz
 1  'x, y, z'
loop_
 _atom_site_type_symbol
 _atom_site_label
 _atom_site_symmetry_multiplicity
 _atom_site_fract_x
 _atom_site_fract_y
 _atom_site_fract_z
 _atom_site_fract_occupancy
 H  H1  1  0.42037  0.58667  0.37732  1
 H  H2  1  0.47820  0.20940  0.47235  1
 H  H3  1  0.52180  0.79060  0.97235  1
 H  H4  1  0.48798  0.07691  0.93905  1
 H  H5  1  0.57964  0.41333  0.87732  1
 H  H6  1  0.40510  0.92171  0.75835  1
 H  H7  1  0.92171  0.40510  0.74165  1
 H  H8  1  0.41333  0.57964  0.62268  1
 H  H9  1  0.79060  0.52180  0.52765  1
 H  H10  1  0.07691  0.48798  0.56095  1
 H  H11  1  0.51202  0.92309  0.43905  1
 H  H12  1  0.20940  0.47820  0.02765  1
 H  H13  1  0.59490  0.07829  0.25835  1
 H  H14  1  0.07829  0.59490  0.24165  1
 H  H15  1  0.58667  0.42037  0.12268  1
 H  H16  1  0.92309  0.51202  0.06095  1
 K  K1  1  0.06244  0.06244  0.25000  1
 K  K2  1  0.93756  0.93756  0.75000  1
 N  N1  1  0.94998  0.40922  0.58675  1
 N  N2  1  0.67825  0.32175  0.00000  1
 N  N3  1  0.05002  0.59078  0.08675  1
 N  N4  1  0.59078  0.05002  0.41325  1
 N  N5  1  0.32175  0.67825  0.50000  1
 N  N6  1  0.40922  0.94998  0.91325  1
