CIF file written using JARVIS-Tools package.
data_Nb2VSe4
_symmetry_space_group_name_H-M  'C2/m'
_cell_length_a       3.51889
_cell_length_b       6.37046
_cell_length_c       7.1152
_cell_angle_alpha    114.735
_cell_angle_beta     104.317
_cell_angle_gamma    90

_symmetry_Int_Tables_number  12
_chemical_formula_structural  Nb2VSe4
_chemical_formula_sum  Nb2VSe4
_cell_volume  139.39431525673228
_cell_formula_units_Z  1
loop_
  _symmetry_equiv_pos_site_id
 _symmetry_equiv_pos_as_xyz
 1  'x, y, z'
loop_
 _atom_site_type_symbol
 _atom_site_label
 _atom_site_symmetry_multiplicity
 _atom_site_fract_x
 _atom_site_fract_y
 _atom_site_fract_z
 _atom_site_fract_occupancy
 Nb  Nb1  1  0.10695  0.70156  0.21390  1
 Nb  Nb2  1  0.62085  0.34487  0.24170  1
 Se  Se1  1  0.99924  0.99775  0.99849  1
 Se  Se2  1  0.26445  0.58033  0.52890  1
 Se  Se3  1  0.46335  0.46610  0.92671  1
 Se  Se4  1  0.72856  0.04868  0.45712  1
 V  V1  1  0.36389  0.02321  0.72779  1
