CIF file written using JARVIS-Tools package.
data_Sb
_symmetry_space_group_name_H-M  'I4/mmm'
_cell_length_a       3.17412
_cell_length_b       3.17412
_cell_length_c       3.61169
_cell_angle_alpha    116.067
_cell_angle_beta     116.067
_cell_angle_gamma    90.0001

_symmetry_Int_Tables_number  139
_chemical_formula_structural  Sb
_chemical_formula_sum  Sb
_cell_volume  28.50864484141793
_cell_formula_units_Z  1
loop_
  _symmetry_equiv_pos_site_id
 _symmetry_equiv_pos_as_xyz
 1  'x, y, z'
loop_
 _atom_site_type_symbol
 _atom_site_label
 _atom_site_symmetry_multiplicity
 _atom_site_fract_x
 _atom_site_fract_y
 _atom_site_fract_z
 _atom_site_fract_occupancy
 Sb  Sb1  1  0.00000  0.00000  0.00000  1
