CIF file written using JARVIS-Tools package.
data_TeMo2SeS2
_symmetry_space_group_name_H-M  'P3m1'
_cell_length_a       3.31271
_cell_length_b       3.3127
_cell_length_c       34.5446
_cell_angle_alpha    90.0021
_cell_angle_beta     90
_cell_angle_gamma    120

_symmetry_Int_Tables_number  156
_chemical_formula_structural  TeMo2SeS2
_chemical_formula_sum  Te2Mo4Se2S4
_cell_volume  328.30393366490534
_cell_formula_units_Z  2
loop_
  _symmetry_equiv_pos_site_id
 _symmetry_equiv_pos_as_xyz
 1  'x, y, z'
loop_
 _atom_site_type_symbol
 _atom_site_label
 _atom_site_symmetry_multiplicity
 _atom_site_fract_x
 _atom_site_fract_y
 _atom_site_fract_z
 _atom_site_fract_occupancy
 Mo  Mo1  1  0.33333  0.66666  0.09684  1
 Mo  Mo2  1  0.33332  0.66664  0.46499  1
 Mo  Mo3  1  0.66665  0.33330  0.28100  1
 Mo  Mo4  1  0.66671  0.33341  0.66013  1
 S  S1  1  0.66665  0.33330  0.05262  1
 S  S2  1  0.66664  0.33328  0.42074  1
 S  S3  1  0.66668  0.33335  0.14112  1
 S  S4  1  0.66667  0.33334  0.50922  1
 Se  Se1  1  0.33333  0.66665  0.32957  1
 Se  Se2  1  0.33329  0.66659  0.23241  1
 Te  Te1  1  0.33338  0.66677  0.71552  1
 Te  Te2  1  0.33336  0.66672  0.60459  1
