CIF file written using JARVIS-Tools package.
data_Ce4Sb3
_symmetry_space_group_name_H-M  'I-43d'
_cell_length_a       8.15027
_cell_length_b       8.15027
_cell_length_c       8.15027
_cell_angle_alpha    109.471
_cell_angle_beta     109.471
_cell_angle_gamma    109.471

_symmetry_Int_Tables_number  220
_chemical_formula_structural  Ce4Sb3
_chemical_formula_sum  Ce8Sb6
_cell_volume  416.76780217555086
_cell_formula_units_Z  2
loop_
  _symmetry_equiv_pos_site_id
 _symmetry_equiv_pos_as_xyz
 1  'x, y, z'
loop_
 _atom_site_type_symbol
 _atom_site_label
 _atom_site_symmetry_multiplicity
 _atom_site_fract_x
 _atom_site_fract_y
 _atom_site_fract_z
 _atom_site_fract_occupancy
 Ce  Ce1  1  0.14708  0.14708  0.14708  1
 Ce  Ce2  1  0.85292  0.50000  1.00000  1
 Ce  Ce3  1  1.00000  0.85292  0.50000  1
 Ce  Ce4  1  0.50000  0.00000  0.85292  1
 Ce  Ce5  1  1.00000  0.35292  0.50000  1
 Ce  Ce6  1  0.50000  0.00000  0.35292  1
 Ce  Ce7  1  0.35292  0.50000  1.00000  1
 Ce  Ce8  1  0.64708  0.64708  0.64708  1
 Sb  Sb1  1  0.25000  0.62500  0.37500  1
 Sb  Sb2  1  0.37500  0.25000  0.62500  1
 Sb  Sb3  1  0.12500  0.75000  0.87500  1
 Sb  Sb4  1  0.87500  0.12500  0.75000  1
 Sb  Sb5  1  0.62500  0.37500  0.25000  1
 Sb  Sb6  1  0.75000  0.87500  0.12500  1
