CIF file written using JARVIS-Tools package.
data_NdF3
_symmetry_space_group_name_H-M  'P-3c1'
_cell_length_a       7.05076
_cell_length_b       7.05076
_cell_length_c       7.2465
_cell_angle_alpha    90
_cell_angle_beta     90
_cell_angle_gamma    120

_symmetry_Int_Tables_number  165
_chemical_formula_structural  NdF3
_chemical_formula_sum  Nd6F8
_cell_volume  311.98307158576745
_cell_formula_units_Z  6
loop_
  _symmetry_equiv_pos_site_id
 _symmetry_equiv_pos_as_xyz
 1  'x, y, z'
loop_
 _atom_site_type_symbol
 _atom_site_label
 _atom_site_symmetry_multiplicity
 _atom_site_fract_x
 _atom_site_fract_y
 _atom_site_fract_z
 _atom_site_fract_occupancy
 F  F1  1  0.69019  0.06130  0.08092  1
 F  F2  1  0.00000  0.00000  0.25000  1
 F  F3  1  0.00000  0.00000  0.75000  1
 F  F4  1  0.33333  0.66667  0.17992  1
 F  F5  1  0.66667  0.33333  0.32008  1
 F  F6  1  0.66667  0.33333  0.82008  1
 F  F7  1  0.30981  0.93870  0.91908  1
 F  F8  1  0.30981  0.37111  0.41908  1
 F  F9  1  0.33333  0.66667  0.67992  1
 F  F10  1  0.62889  0.93870  0.41908  1
 F  F11  1  0.37111  0.30981  0.08092  1
 F  F12  1  0.06130  0.37111  0.91908  1
 F  F13  1  0.93870  0.62889  0.08092  1
 F  F14  1  0.69019  0.62889  0.58092  1
 F  F15  1  0.93870  0.30981  0.58092  1
 F  F16  1  0.37111  0.06130  0.58092  1
 F  F17  1  0.62889  0.69019  0.91908  1
 F  F18  1  0.06130  0.69019  0.41908  1
 Nd  Nd1  1  0.34390  0.34390  0.75000  1
 Nd  Nd2  1  -0.00000  0.65610  0.75000  1
 Nd  Nd3  1  0.65610  -0.00000  0.75000  1
 Nd  Nd4  1  0.65610  0.65610  0.25000  1
 Nd  Nd5  1  0.00000  0.34390  0.25000  1
 Nd  Nd6  1  0.34390  0.00000  0.25000  1
