CIF file written using JARVIS-Tools package.
data_Ho6Bi2Rh
_symmetry_space_group_name_H-M  'P-62m'
_cell_length_a       8.34175
_cell_length_b       8.3412
_cell_length_c       4.09021
_cell_angle_alpha    90
_cell_angle_beta     90
_cell_angle_gamma    120.002

_symmetry_Int_Tables_number  189
_chemical_formula_structural  Ho6Bi2Rh
_chemical_formula_sum  Ho6Bi2Rh
_cell_volume  246.4635944784539
_cell_formula_units_Z  1
loop_
  _symmetry_equiv_pos_site_id
 _symmetry_equiv_pos_as_xyz
 1  'x, y, z'
loop_
 _atom_site_type_symbol
 _atom_site_label
 _atom_site_symmetry_multiplicity
 _atom_site_fract_x
 _atom_site_fract_y
 _atom_site_fract_z
 _atom_site_fract_occupancy
 Bi  Bi1  1  0.33331  0.66667  0.00000  1
 Bi  Bi2  1  0.66665  0.33333  0.00000  1
 Ho  Ho1  1  0.60622  -0.00000  0.50000  1
 Ho  Ho2  1  0.99998  0.60625  0.50000  1
 Ho  Ho3  1  0.39373  0.39375  0.50000  1
 Ho  Ho4  1  0.23650  0.00000  0.00000  1
 Ho  Ho5  1  0.99998  0.23649  0.00000  1
 Ho  Ho6  1  0.76349  0.76351  0.00000  1
 Rh  Rh1  1  0.00003  -0.00000  0.50000  1
