CIF file written using JARVIS-Tools package.
data_H
_symmetry_space_group_name_H-M  'C2/m'
_cell_length_a       2.76508
_cell_length_b       2.74463
_cell_length_c       3.02961
_cell_angle_alpha    160.986
_cell_angle_beta     62.025
_cell_angle_gamma    119.818

_symmetry_Int_Tables_number  12
_chemical_formula_structural  H
_chemical_formula_sum  H
_cell_volume  6.499139719434823
_cell_formula_units_Z  1
loop_
  _symmetry_equiv_pos_site_id
 _symmetry_equiv_pos_as_xyz
 1  'x, y, z'
loop_
 _atom_site_type_symbol
 _atom_site_label
 _atom_site_symmetry_multiplicity
 _atom_site_fract_x
 _atom_site_fract_y
 _atom_site_fract_z
 _atom_site_fract_occupancy
 H  H1  1  0.50270  0.49922  0.49994  1
