CIF file written using JARVIS-Tools package.
data_NdH3
_symmetry_space_group_name_H-M  'P-3c1'
_cell_length_a       6.68974
_cell_length_b       6.68974
_cell_length_c       6.9456
_cell_angle_alpha    90
_cell_angle_beta     90
_cell_angle_gamma    120

_symmetry_Int_Tables_number  165
_chemical_formula_structural  NdH3
_chemical_formula_sum  Nd6H8
_cell_volume  269.18950325111246
_cell_formula_units_Z  6
loop_
  _symmetry_equiv_pos_site_id
 _symmetry_equiv_pos_as_xyz
 1  'x, y, z'
loop_
 _atom_site_type_symbol
 _atom_site_label
 _atom_site_symmetry_multiplicity
 _atom_site_fract_x
 _atom_site_fract_y
 _atom_site_fract_z
 _atom_site_fract_occupancy
 H  H1  1  0.67910  0.64914  0.40796  1
 H  H2  1  0.35086  0.32090  0.90796  1
 H  H3  1  0.97004  0.64914  0.90796  1
 H  H4  1  0.67910  0.02996  0.90796  1
 H  H5  1  0.33333  0.66667  0.81806  1
 H  H6  1  0.00000  0.00000  0.75000  1
 H  H7  1  0.02996  0.35086  0.09204  1
 H  H8  1  0.64914  0.97004  0.59204  1
 H  H9  1  0.66667  0.33333  0.68194  1
 H  H10  1  0.32090  0.35086  0.59204  1
 H  H11  1  0.97004  0.32090  0.40796  1
 H  H12  1  0.64914  0.67910  0.09204  1
 H  H13  1  0.35086  0.02996  0.40796  1
 H  H14  1  0.33333  0.66667  0.31806  1
 H  H15  1  0.00000  0.00000  0.25000  1
 H  H16  1  0.66667  0.33333  0.18194  1
 H  H17  1  0.32090  0.97004  0.09204  1
 H  H18  1  0.02996  0.67910  0.59204  1
 Nd  Nd1  1  0.00000  0.66292  0.25000  1
 Nd  Nd2  1  0.66292  0.00000  0.25000  1
 Nd  Nd3  1  0.33708  0.33708  0.25000  1
 Nd  Nd4  1  0.66292  0.66292  0.75000  1
 Nd  Nd5  1  0.33708  -0.00000  0.75000  1
 Nd  Nd6  1  -0.00000  0.33708  0.75000  1
