CIF file written using JARVIS-Tools package.
data_K3Mn2F7
_symmetry_space_group_name_H-M  'I4/mmm'
_cell_length_a       4.19844
_cell_length_b       4.19844
_cell_length_c       11.2015
_cell_angle_alpha    100.801
_cell_angle_beta     100.801
_cell_angle_gamma    90.0001

_symmetry_Int_Tables_number  139
_chemical_formula_structural  K3Mn2F7
_chemical_formula_sum  K3Mn2F7
_cell_volume  190.3855957286073
_cell_formula_units_Z  1
loop_
  _symmetry_equiv_pos_site_id
 _symmetry_equiv_pos_as_xyz
 1  'x, y, z'
loop_
 _atom_site_type_symbol
 _atom_site_label
 _atom_site_symmetry_multiplicity
 _atom_site_fract_x
 _atom_site_fract_y
 _atom_site_fract_z
 _atom_site_fract_occupancy
 F  F1  1  0.00000  0.00000  0.00000  1
 F  F2  1  0.40388  0.90388  0.80776  1
 F  F3  1  0.90388  0.40388  0.80776  1
 F  F4  1  0.59612  0.09612  0.19224  1
 F  F5  1  0.09612  0.59612  0.19224  1
 F  F6  1  0.19555  0.19555  0.39110  1
 F  F7  1  0.80445  0.80445  0.60890  1
 K  K1  1  0.31509  0.31509  0.63018  1
 K  K2  1  0.68491  0.68491  0.36982  1
 K  K3  1  0.50000  0.50000  -0.00000  1
 Mn  Mn1  1  0.09836  0.09836  0.19672  1
 Mn  Mn2  1  0.90164  0.90164  0.80328  1
