CIF file written using JARVIS-Tools package.
data_LuHO2
_symmetry_space_group_name_H-M  'P2_1'
_cell_length_a       4.23435
_cell_length_b       3.5226
_cell_length_c       5.80737
_cell_angle_alpha    90
_cell_angle_beta     109.381
_cell_angle_gamma    90

_symmetry_Int_Tables_number  4
_chemical_formula_structural  LuHO2
_chemical_formula_sum  Lu2H2O4
_cell_volume  81.71355899360422
_cell_formula_units_Z  2
loop_
  _symmetry_equiv_pos_site_id
 _symmetry_equiv_pos_as_xyz
 1  'x, y, z'
loop_
 _atom_site_type_symbol
 _atom_site_label
 _atom_site_symmetry_multiplicity
 _atom_site_fract_x
 _atom_site_fract_y
 _atom_site_fract_z
 _atom_site_fract_occupancy
 H  H1  1  0.01167  0.69578  0.41774  1
 H  H2  1  0.98833  0.19578  0.58226  1
 Lu  Lu1  1  0.66688  0.70959  0.81129  1
 Lu  Lu2  1  0.33312  0.20959  0.18871  1
 O  O1  1  0.23208  0.71030  0.94529  1
 O  O2  1  0.76792  0.21030  0.05471  1
 O  O3  1  0.24939  0.71152  0.43774  1
 O  O4  1  0.75061  0.21152  0.56226  1
