CIF file written using JARVIS-Tools package.
data_RbO2
_symmetry_space_group_name_H-M  'I4/mmm'
_cell_length_a       4.09635
_cell_length_b       4.09635
_cell_length_c       4.52665
_cell_angle_alpha    116.902
_cell_angle_beta     116.902
_cell_angle_gamma    90

_symmetry_Int_Tables_number  139
_chemical_formula_structural  RbO2
_chemical_formula_sum  RbO2
_cell_volume  58.370948176741045
_cell_formula_units_Z  1
loop_
  _symmetry_equiv_pos_site_id
 _symmetry_equiv_pos_as_xyz
 1  'x, y, z'
loop_
 _atom_site_type_symbol
 _atom_site_label
 _atom_site_symmetry_multiplicity
 _atom_site_fract_x
 _atom_site_fract_y
 _atom_site_fract_z
 _atom_site_fract_occupancy
 O  O1  1  0.40264  0.40264  0.80528  1
 O  O2  1  0.59736  0.59736  0.19472  1
 Rb  Rb1  1  0.00000  0.00000  0.00000  1
