CIF file written using JARVIS-Tools package.
data_HoMgSn
_symmetry_space_group_name_H-M  'I4/mmm'
_cell_length_a       4.36538
_cell_length_b       4.36538
_cell_length_c       8.47607
_cell_angle_alpha    104.922
_cell_angle_beta     104.922
_cell_angle_gamma    90

_symmetry_Int_Tables_number  139
_chemical_formula_structural  HoMgSn
_chemical_formula_sum  Ho2Mg2Sn2
_cell_volume  150.432645001062
_cell_formula_units_Z  2
loop_
  _symmetry_equiv_pos_site_id
 _symmetry_equiv_pos_as_xyz
 1  'x, y, z'
loop_
 _atom_site_type_symbol
 _atom_site_label
 _atom_site_symmetry_multiplicity
 _atom_site_fract_x
 _atom_site_fract_y
 _atom_site_fract_z
 _atom_site_fract_occupancy
 Ho  Ho1  1  0.66670  0.66670  0.33341  1
 Ho  Ho2  1  0.33330  0.33330  0.66659  1
 Mg  Mg1  1  0.50000  0.00000  0.00000  1
 Mg  Mg2  1  0.00000  0.50000  0.00000  1
 Sn  Sn1  1  0.13719  0.13719  0.27438  1
 Sn  Sn2  1  0.86281  0.86281  0.72562  1
