CIF file written using JARVIS-Tools package.
data_NaHf2VF11
_symmetry_space_group_name_H-M  'C2/m'
_cell_length_a       5.6914
_cell_length_b       5.6914
_cell_length_c       7.7635
_cell_angle_alpha    69.2761
_cell_angle_beta     69.2761
_cell_angle_gamma    72.9173

_symmetry_Int_Tables_number  12
_chemical_formula_structural  NaHf2VF11
_chemical_formula_sum  NaHf2VF
_cell_volume  215.86469047215746
_cell_formula_units_Z  1
loop_
  _symmetry_equiv_pos_site_id
 _symmetry_equiv_pos_as_xyz
 1  'x, y, z'
loop_
 _atom_site_type_symbol
 _atom_site_label
 _atom_site_symmetry_multiplicity
 _atom_site_fract_x
 _atom_site_fract_y
 _atom_site_fract_z
 _atom_site_fract_occupancy
 F  F1  1  0.80699  0.22083  0.69215  1
 F  F2  1  0.77917  0.19301  0.30785  1
 F  F3  1  0.19301  0.77917  0.30785  1
 F  F4  1  0.22083  0.80699  0.69215  1
 F  F5  1  0.50000  0.50000  0.50000  1
 F  F6  1  0.33031  0.66969  0.00000  1
 F  F7  1  0.66969  0.33031  -0.00000  1
 F  F8  1  0.25117  0.25117  0.35151  1
 F  F9  1  0.74883  0.74883  0.64849  1
 F  F10  1  0.26625  0.26625  0.89112  1
 F  F11  1  0.73375  0.73375  0.10888  1
 Hf  Hf1  1  0.50405  0.50405  0.76571  1
 Hf  Hf2  1  0.49595  0.49595  0.23429  1
 Na  Na1  1  0.00000  0.00000  0.00000  1
 V  V1  1  0.00000  0.00000  0.50000  1
