CIF file written using JARVIS-Tools package.
data_YbSiPt2
_symmetry_space_group_name_H-M  'Pnma'
_cell_length_a       5.55634
_cell_length_b       6.90983
_cell_length_c       7.29399
_cell_angle_alpha    90
_cell_angle_beta     90
_cell_angle_gamma    90

_symmetry_Int_Tables_number  62
_chemical_formula_structural  YbSiPt2
_chemical_formula_sum  Yb4Si4Pt8
_cell_volume  280.0406495262015
_cell_formula_units_Z  4
loop_
  _symmetry_equiv_pos_site_id
 _symmetry_equiv_pos_as_xyz
 1  'x, y, z'
loop_
 _atom_site_type_symbol
 _atom_site_label
 _atom_site_symmetry_multiplicity
 _atom_site_fract_x
 _atom_site_fract_y
 _atom_site_fract_z
 _atom_site_fract_occupancy
 Pt  Pt1  1  0.89870  0.94931  0.17525  1
 Pt  Pt2  1  0.89870  0.55069  0.17525  1
 Pt  Pt3  1  0.60130  0.94931  0.67525  1
 Pt  Pt4  1  0.60130  0.55069  0.67525  1
 Pt  Pt5  1  0.39870  0.44931  0.32475  1
 Pt  Pt6  1  0.39870  0.05069  0.32475  1
 Pt  Pt7  1  0.10130  0.44931  0.82475  1
 Pt  Pt8  1  0.10130  0.05069  0.82475  1
 Si  Si1  1  0.87123  0.75000  0.87683  1
 Si  Si2  1  0.62877  0.75000  0.37683  1
 Si  Si3  1  0.37123  0.25000  0.62317  1
 Si  Si4  1  0.12877  0.25000  0.12317  1
 Yb  Yb1  1  0.86940  0.25000  0.48070  1
 Yb  Yb2  1  0.63060  0.25000  0.98070  1
 Yb  Yb3  1  0.36940  0.75000  0.01930  1
 Yb  Yb4  1  0.13060  0.75000  0.51930  1
