CIF file written using JARVIS-Tools package.
data_NiTe
_symmetry_space_group_name_H-M  'R-3m'
_cell_length_a       7.04843
_cell_length_b       7.04843
_cell_length_c       7.04843
_cell_angle_alpha    31.9374
_cell_angle_beta     31.9374
_cell_angle_gamma    31.9374

_symmetry_Int_Tables_number  166
_chemical_formula_structural  NiTe
_chemical_formula_sum  Ni2Te2
_cell_volume  87.05396115194561
_cell_formula_units_Z  2
loop_
  _symmetry_equiv_pos_site_id
 _symmetry_equiv_pos_as_xyz
 1  'x, y, z'
loop_
 _atom_site_type_symbol
 _atom_site_label
 _atom_site_symmetry_multiplicity
 _atom_site_fract_x
 _atom_site_fract_y
 _atom_site_fract_z
 _atom_site_fract_occupancy
 Ni  Ni1  1  0.13126  0.13126  0.13126  1
 Ni  Ni2  1  0.86874  0.86874  0.86874  1
 Te  Te1  1  0.25830  0.25830  0.25830  1
 Te  Te2  1  0.74170  0.74170  0.74170  1
