CIF file written using JARVIS-Tools package.
data_Ti6O
_symmetry_space_group_name_H-M  'P-31c'
_cell_length_a       5.09476
_cell_length_b       5.09476
_cell_length_c       9.46171
_cell_angle_alpha    90
_cell_angle_beta     90
_cell_angle_gamma    120

_symmetry_Int_Tables_number  163
_chemical_formula_structural  Ti6O
_chemical_formula_sum  Ti2O2
_cell_volume  212.68971433792584
_cell_formula_units_Z  2
loop_
  _symmetry_equiv_pos_site_id
 _symmetry_equiv_pos_as_xyz
 1  'x, y, z'
loop_
 _atom_site_type_symbol
 _atom_site_label
 _atom_site_symmetry_multiplicity
 _atom_site_fract_x
 _atom_site_fract_y
 _atom_site_fract_z
 _atom_site_fract_occupancy
 O  O1  1  0.66667  0.33333  0.75000  1
 O  O2  1  0.33333  0.66667  0.25000  1
 Ti  Ti1  1  0.66793  0.66465  0.88122  1
 Ti  Ti2  1  0.33207  0.99671  0.38122  1
 Ti  Ti3  1  0.66465  0.99671  0.11878  1
 Ti  Ti4  1  0.66465  0.66793  0.38122  1
 Ti  Ti5  1  0.33535  0.33207  0.61878  1
 Ti  Ti6  1  0.99671  0.33207  0.88122  1
 Ti  Ti7  1  0.33535  0.00329  0.88122  1
 Ti  Ti8  1  0.66793  0.00329  0.61878  1
 Ti  Ti9  1  0.00329  0.33535  0.38122  1
 Ti  Ti10  1  0.33207  0.33535  0.11878  1
 Ti  Ti11  1  0.00329  0.66793  0.11878  1
 Ti  Ti12  1  0.99671  0.66465  0.61878  1
