CIF file written using JARVIS-Tools package.
data_Te4Mo3WS4
_symmetry_space_group_name_H-M  'Cm'
_cell_length_a       3.36688
_cell_length_b       3.36513
_cell_length_c       32.4005
_cell_angle_alpha    89.9643
_cell_angle_beta     90
_cell_angle_gamma    120.017

_symmetry_Int_Tables_number  8
_chemical_formula_structural  Te4Mo3WS4
_chemical_formula_sum  Te4Mo3WS4
_cell_volume  317.8601572636533
_cell_formula_units_Z  1
loop_
  _symmetry_equiv_pos_site_id
 _symmetry_equiv_pos_as_xyz
 1  'x, y, z'
loop_
 _atom_site_type_symbol
 _atom_site_label
 _atom_site_symmetry_multiplicity
 _atom_site_fract_x
 _atom_site_fract_y
 _atom_site_fract_z
 _atom_site_fract_occupancy
 Mo  Mo1  1  0.33306  0.66612  0.07515  1
 Mo  Mo2  1  0.66563  0.33126  0.28232  1
 Mo  Mo3  1  0.66701  0.33402  0.67621  1
 S  S1  1  0.33179  0.66358  0.32896  1
 S  S2  1  0.66709  0.33418  0.42240  1
 S  S3  1  0.66836  0.33672  0.51612  1
 S  S4  1  0.33260  0.66520  0.23563  1
 Te  Te1  1  0.33283  0.66565  0.73450  1
 Te  Te2  1  0.66685  0.33371  0.01682  1
 Te  Te3  1  0.66619  0.33238  0.13367  1
 Te  Te4  1  0.33423  0.66845  0.61775  1
 W  W1  1  0.33436  0.66873  0.46922  1
