CIF file written using JARVIS-Tools package.
data_B4C
_symmetry_space_group_name_H-M  'R-3m'
_cell_length_a       6.69076
_cell_length_b       6.69076
_cell_length_c       6.69076
_cell_angle_alpha    61.0992
_cell_angle_beta     61.0992
_cell_angle_gamma    61.0992

_symmetry_Int_Tables_number  166
_chemical_formula_structural  B4C
_chemical_formula_sum  B2C3
_cell_volume  217.03336215416746
_cell_formula_units_Z  3
loop_
  _symmetry_equiv_pos_site_id
 _symmetry_equiv_pos_as_xyz
 1  'x, y, z'
loop_
 _atom_site_type_symbol
 _atom_site_label
 _atom_site_symmetry_multiplicity
 _atom_site_fract_x
 _atom_site_fract_y
 _atom_site_fract_z
 _atom_site_fract_occupancy
 B  B1  1  0.49695  0.87345  0.49695  1
 B  B2  1  0.49695  0.49695  0.87345  1
 B  B3  1  0.87345  0.49695  0.49695  1
 B  B4  1  0.12655  0.50305  0.50305  1
 B  B5  1  0.50305  0.12655  0.50305  1
 B  B6  1  0.50305  0.50305  0.12655  1
 B  B7  1  0.34205  0.09910  0.34205  1
 B  B8  1  0.34205  0.34205  0.09910  1
 B  B9  1  0.09910  0.34205  0.34205  1
 B  B10  1  0.90090  0.65795  0.65795  1
 B  B11  1  0.65795  0.90090  0.65795  1
 B  B12  1  0.65795  0.65795  0.90090  1
 C  C1  1  0.41509  0.41509  0.41509  1
 C  C2  1  0.58491  0.58491  0.58491  1
 C  C3  1  0.50000  0.50000  0.50000  1
