CIF file written using JARVIS-Tools package.
data_OsN2
_symmetry_space_group_name_H-M  'P6/mmm'
_cell_length_a       2.83099
_cell_length_b       2.83099
_cell_length_c       4.97253
_cell_angle_alpha    90
_cell_angle_beta     90
_cell_angle_gamma    120

_symmetry_Int_Tables_number  191
_chemical_formula_structural  OsN2
_chemical_formula_sum  OsN2
_cell_volume  34.513206667219166
_cell_formula_units_Z  1
loop_
  _symmetry_equiv_pos_site_id
 _symmetry_equiv_pos_as_xyz
 1  'x, y, z'
loop_
 _atom_site_type_symbol
 _atom_site_label
 _atom_site_symmetry_multiplicity
 _atom_site_fract_x
 _atom_site_fract_y
 _atom_site_fract_z
 _atom_site_fract_occupancy
 N  N1  1  0.00000  0.00000  0.61601  1
 N  N2  1  0.00000  0.00000  0.38399  1
 Os  Os1  1  0.00000  0.00000  0.00000  1
