CIF file written using JARVIS-Tools package.
data_C
_symmetry_space_group_name_H-M  'C2/m'
_cell_length_a       9.56492
_cell_length_b       3.57579
_cell_length_c       4.9387
_cell_angle_alpha    151.713
_cell_angle_beta     165.55
_cell_angle_gamma    24.5837

_symmetry_Int_Tables_number  12
_chemical_formula_structural  C
_chemical_formula_sum  C2
_cell_volume  17.53538436859234
_cell_formula_units_Z  2
loop_
  _symmetry_equiv_pos_site_id
 _symmetry_equiv_pos_as_xyz
 1  'x, y, z'
loop_
 _atom_site_type_symbol
 _atom_site_label
 _atom_site_symmetry_multiplicity
 _atom_site_fract_x
 _atom_site_fract_y
 _atom_site_fract_z
 _atom_site_fract_occupancy
 C  C1  1  0.83339  0.33305  0.00000  1
 C  C2  1  0.16661  0.66695  -0.00000  1
