CIF file written using JARVIS-Tools package.
data_PrGa
_symmetry_space_group_name_H-M  'Cmcm'
_cell_length_a       4.18554
_cell_length_b       4.48259
_cell_length_c       6.10832
_cell_angle_alpha    111.526
_cell_angle_beta     90
_cell_angle_gamma    90

_symmetry_Int_Tables_number  63
_chemical_formula_structural  PrGa
_chemical_formula_sum  Pr2Ga2
_cell_volume  106.61113349897897
_cell_formula_units_Z  2
loop_
  _symmetry_equiv_pos_site_id
 _symmetry_equiv_pos_as_xyz
 1  'x, y, z'
loop_
 _atom_site_type_symbol
 _atom_site_label
 _atom_site_symmetry_multiplicity
 _atom_site_fract_x
 _atom_site_fract_y
 _atom_site_fract_z
 _atom_site_fract_occupancy
 Ga  Ga1  1  0.75000  0.42921  0.85842  1
 Ga  Ga2  1  0.25000  0.57079  0.14158  1
 Pr  Pr1  1  0.75000  0.14170  0.28340  1
 Pr  Pr2  1  0.25000  0.85830  0.71660  1
