CIF file written using JARVIS-Tools package.
data_Tl2O
_symmetry_space_group_name_H-M  'C2/m'
_cell_length_a       3.58671
_cell_length_b       3.58671
_cell_length_c       12.9533
_cell_angle_alpha    82.0655
_cell_angle_beta     82.0655
_cell_angle_gamma    60.0092

_symmetry_Int_Tables_number  12
_chemical_formula_structural  Tl2O
_chemical_formula_sum  Tl4O2
_cell_volume  142.48021253142738
_cell_formula_units_Z  2
loop_
  _symmetry_equiv_pos_site_id
 _symmetry_equiv_pos_as_xyz
 1  'x, y, z'
loop_
 _atom_site_type_symbol
 _atom_site_label
 _atom_site_symmetry_multiplicity
 _atom_site_fract_x
 _atom_site_fract_y
 _atom_site_fract_z
 _atom_site_fract_occupancy
 O  O1  1  0.58293  0.58293  0.24983  1
 O  O2  1  0.41707  0.41707  0.75017  1
 Tl  Tl1  1  0.12283  0.12283  0.63212  1
 Tl  Tl2  1  0.28907  0.28907  0.13120  1
 Tl  Tl3  1  0.87717  0.87717  0.36788  1
 Tl  Tl4  1  0.71093  0.71093  0.86880  1
