CIF file written using JARVIS-Tools package.
data_RbSnIO6
_symmetry_space_group_name_H-M  'P6_322'
_cell_length_a       5.37347
_cell_length_b       5.37347
_cell_length_c       12.46
_cell_angle_alpha    90
_cell_angle_beta     90
_cell_angle_gamma    120

_symmetry_Int_Tables_number  182
_chemical_formula_structural  RbSnIO6
_chemical_formula_sum  Rb2Sn2I2O2
_cell_volume  311.5727824065184
_cell_formula_units_Z  2
loop_
  _symmetry_equiv_pos_site_id
 _symmetry_equiv_pos_as_xyz
 1  'x, y, z'
loop_
 _atom_site_type_symbol
 _atom_site_label
 _atom_site_symmetry_multiplicity
 _atom_site_fract_x
 _atom_site_fract_y
 _atom_site_fract_z
 _atom_site_fract_occupancy
 I  I1  1  0.33333  0.66667  0.25000  1
 I  I2  1  0.66667  0.33333  0.75000  1
 O  O1  1  0.02511  0.63020  0.16077  1
 O  O2  1  0.02511  0.39490  0.33923  1
 O  O3  1  0.36980  0.39490  0.16077  1
 O  O4  1  0.63020  0.60510  0.66077  1
 O  O5  1  0.97489  0.60510  0.83923  1
 O  O6  1  0.63020  0.02511  0.83923  1
 O  O7  1  0.39490  0.36980  0.83923  1
 O  O8  1  0.36980  0.97489  0.33923  1
 O  O9  1  0.60510  0.97489  0.16077  1
 O  O10  1  0.60510  0.63020  0.33923  1
 O  O11  1  0.97489  0.36980  0.66077  1
 O  O12  1  0.39490  0.02511  0.66077  1
 Rb  Rb1  1  0.00000  0.00000  0.50000  1
 Rb  Rb2  1  0.00000  0.00000  0.00000  1
 Sn  Sn1  1  0.33333  0.66667  0.75000  1
 Sn  Sn2  1  0.66667  0.33333  0.25000  1
