CIF file written using JARVIS-Tools package.
data_Na5Zr2F13
_symmetry_space_group_name_H-M  'C2/m'
_cell_length_a       5.52656
_cell_length_b       6.44192
_cell_length_c       8.46857
_cell_angle_alpha    96.4775
_cell_angle_beta     90
_cell_angle_gamma    115.401

_symmetry_Int_Tables_number  12
_chemical_formula_structural  Na5Zr2F13
_chemical_formula_sum  Na5Zr2F3
_cell_volume  270.21672125305486
_cell_formula_units_Z  1
loop_
  _symmetry_equiv_pos_site_id
 _symmetry_equiv_pos_as_xyz
 1  'x, y, z'
loop_
 _atom_site_type_symbol
 _atom_site_label
 _atom_site_symmetry_multiplicity
 _atom_site_fract_x
 _atom_site_fract_y
 _atom_site_fract_z
 _atom_site_fract_occupancy
 F  F1  1  0.36095  0.26806  0.43134  1
 F  F2  1  0.42071  0.36392  0.14300  1
 F  F3  1  0.69829  0.87532  0.25089  1
 F  F4  1  0.82297  0.12468  0.74911  1
 F  F5  1  0.09289  0.73194  0.56866  1
 F  F6  1  0.30171  0.12468  0.74911  1
 F  F7  1  0.94321  0.36392  0.14300  1
 F  F8  1  0.05679  0.63608  0.85700  1
 F  F9  1  0.63905  0.73194  0.56866  1
 F  F10  1  0.00000  0.00000  0.00000  1
 F  F11  1  0.90711  0.26806  0.43134  1
 F  F12  1  0.17703  0.87532  0.25089  1
 F  F13  1  0.57929  0.63608  0.85700  1
 Na  Na1  1  0.66348  0.32697  0.92813  1
 Na  Na2  1  0.22221  0.44443  0.65460  1
 Na  Na3  1  0.50000  0.00000  0.50000  1
 Na  Na4  1  0.77779  0.55557  0.34540  1
 Na  Na5  1  0.33652  0.67303  0.07187  1
 Zr  Zr1  1  0.07331  0.14663  0.24481  1
 Zr  Zr2  1  0.92669  0.85337  0.75519  1
