CIF file written using JARVIS-Tools package.
data_NdTe2BrO5
_symmetry_space_group_name_H-M  'I4/mmm'
_cell_length_a       5.43899
_cell_length_b       5.439
_cell_length_c       10.1558
_cell_angle_alpha    105.525
_cell_angle_beta     105.525
_cell_angle_gamma    89.9997

_symmetry_Int_Tables_number  139
_chemical_formula_structural  NdTe2BrO5
_chemical_formula_sum  Nd2Te4Br2O0
_cell_volume  278.0789383350346
_cell_formula_units_Z  2
loop_
  _symmetry_equiv_pos_site_id
 _symmetry_equiv_pos_as_xyz
 1  'x, y, z'
loop_
 _atom_site_type_symbol
 _atom_site_label
 _atom_site_symmetry_multiplicity
 _atom_site_fract_x
 _atom_site_fract_y
 _atom_site_fract_z
 _atom_site_fract_occupancy
 Br  Br1  1  0.75000  0.75000  0.50000  1
 Br  Br2  1  0.25000  0.25000  0.50000  1
 Nd  Nd1  1  0.99998  0.00002  0.00000  1
 Nd  Nd2  1  0.50002  0.49998  -0.00000  1
 O  O1  1  0.17421  0.14069  0.81484  1
 O  O2  1  0.85933  0.35933  0.18519  1
 O  O3  1  0.64067  0.14067  0.81481  1
 O  O4  1  0.85931  0.82579  0.18516  1
 O  O5  1  0.32579  0.82578  0.18513  1
 O  O6  1  0.98049  0.48049  0.96107  1
 O  O7  1  0.17422  0.67421  0.81487  1
 O  O8  1  0.51951  0.01951  0.03893  1
 O  O9  1  0.64069  0.67421  0.81484  1
 O  O10  1  0.32579  0.35931  0.18516  1
 Te  Te1  1  0.35518  0.85518  0.71024  1
 Te  Te2  1  0.87692  0.37692  0.75373  1
 Te  Te3  1  0.14482  0.64482  0.28976  1
 Te  Te4  1  0.62308  0.12307  0.24627  1
