CIF file written using JARVIS-Tools package.
data_Mo3WSe4S4
_symmetry_space_group_name_H-M  'P3m1'
_cell_length_a       3.25636
_cell_length_b       3.25637
_cell_length_c       34.7216
_cell_angle_alpha    90.0015
_cell_angle_beta     90
_cell_angle_gamma    120

_symmetry_Int_Tables_number  156
_chemical_formula_structural  Mo3WSe4S4
_chemical_formula_sum  Mo3WSe4S4
_cell_volume  318.8584792779875
_cell_formula_units_Z  1
loop_
  _symmetry_equiv_pos_site_id
 _symmetry_equiv_pos_as_xyz
 1  'x, y, z'
loop_
 _atom_site_type_symbol
 _atom_site_label
 _atom_site_symmetry_multiplicity
 _atom_site_fract_x
 _atom_site_fract_y
 _atom_site_fract_z
 _atom_site_fract_occupancy
 Mo  Mo1  1  0.33333  0.66666  0.09501  1
 Mo  Mo2  1  0.33332  0.66665  0.47138  1
 Mo  Mo3  1  0.66664  0.33328  0.27975  1
 S  S1  1  0.33338  0.66676  0.70149  1
 S  S2  1  0.66666  0.33331  0.05052  1
 S  S3  1  0.66667  0.33334  0.13957  1
 S  S4  1  0.33336  0.66672  0.61201  1
 Se  Se1  1  0.33331  0.66663  0.32868  1
 Se  Se2  1  0.66664  0.33329  0.42245  1
 Se  Se3  1  0.66667  0.33335  0.52029  1
 Se  Se4  1  0.33330  0.66660  0.23084  1
 W  W1  1  0.66671  0.33342  0.65677  1
