CIF file written using JARVIS-Tools package.
data_FeTeBr7
_symmetry_space_group_name_H-M  'P1'
_cell_length_a       6.74761
_cell_length_b       8.75388
_cell_length_c       10.3518
_cell_angle_alpha    85.1184
_cell_angle_beta     77.5432
_cell_angle_gamma    82.7466

_symmetry_Int_Tables_number  1
_chemical_formula_structural  FeTeBr7
_chemical_formula_sum  Fe2Te2Br4
_cell_volume  591.2282163419262
_cell_formula_units_Z  2
loop_
  _symmetry_equiv_pos_site_id
 _symmetry_equiv_pos_as_xyz
 1  'x, y, z'
loop_
 _atom_site_type_symbol
 _atom_site_label
 _atom_site_symmetry_multiplicity
 _atom_site_fract_x
 _atom_site_fract_y
 _atom_site_fract_z
 _atom_site_fract_occupancy
 Br  Br1  1  0.11372  0.60440  0.50157  1
 Br  Br2  1  0.84358  0.17587  0.06557  1
 Br  Br3  1  0.28585  0.33276  0.21956  1
 Br  Br4  1  0.49268  0.90506  0.27554  1
 Br  Br5  1  0.40713  0.05056  0.93400  1
 Br  Br6  1  0.97575  0.91997  0.77629  1
 Br  Br7  1  0.06757  0.75690  0.12963  1
 Br  Br8  1  0.64065  0.62686  -0.00581  1
 Br  Br9  1  0.91080  0.05060  0.42491  1
 Br  Br10  1  0.55695  0.76248  0.65476  1
 Br  Br11  1  0.67050  0.48397  0.36410  1
 Br  Br12  1  0.73920  0.34029  0.70820  1
 Br  Br13  1  0.33131  0.18559  0.57210  1
 Br  Br14  1  0.19295  0.47689  0.85929  1
 Fe  Fe1  1  0.76961  0.54833  0.55716  1
 Fe  Fe2  1  0.49815  0.12120  0.11959  1
 Te  Te1  1  0.19298  0.93612  0.54370  1
 Te  Te2  1  0.95101  0.50545  0.08236  1
