CIF file written using JARVIS-Tools package.
data_CeFe4As12
_symmetry_space_group_name_H-M  'Im-3'
_cell_length_a       7.2336
_cell_length_b       7.2336
_cell_length_c       7.2336
_cell_angle_alpha    109.471
_cell_angle_beta     109.471
_cell_angle_gamma    109.471

_symmetry_Int_Tables_number  204
_chemical_formula_structural  CeFe4As12
_chemical_formula_sum  CeFe4As2
_cell_volume  291.36678439718463
_cell_formula_units_Z  1
loop_
  _symmetry_equiv_pos_site_id
 _symmetry_equiv_pos_as_xyz
 1  'x, y, z'
loop_
 _atom_site_type_symbol
 _atom_site_label
 _atom_site_symmetry_multiplicity
 _atom_site_fract_x
 _atom_site_fract_y
 _atom_site_fract_z
 _atom_site_fract_occupancy
 As  As1  1  0.65879  0.81478  0.15599  1
 As  As2  1  0.84401  0.65879  0.50280  1
 As  As3  1  0.15599  0.34121  0.49720  1
 As  As4  1  0.15599  0.65879  0.81478  1
 As  As5  1  0.81478  0.15599  0.65879  1
 As  As6  1  0.84401  0.34121  0.18522  1
 As  As7  1  0.34121  0.49720  0.15599  1
 As  As8  1  0.65879  0.50280  0.84401  1
 As  As9  1  0.18522  0.84401  0.34121  1
 As  As10  1  0.50280  0.84401  0.65879  1
 As  As11  1  0.49720  0.15599  0.34121  1
 As  As12  1  0.34121  0.18522  0.84401  1
 Ce  Ce1  1  0.00000  0.00000  0.00000  1
 Fe  Fe1  1  -0.00000  -0.00000  0.50000  1
 Fe  Fe2  1  0.00000  0.50000  -0.00000  1
 Fe  Fe3  1  0.50000  0.00000  0.00000  1
 Fe  Fe4  1  0.50000  0.50000  0.50000  1
