CIF file written using JARVIS-Tools package.
data_Dy3Ni2
_symmetry_space_group_name_H-M  'C2/m'
_cell_length_a       3.63607
_cell_length_b       6.8524
_cell_length_c       9.46265
_cell_angle_alpha    104.876
_cell_angle_beta     90
_cell_angle_gamma    105.385

_symmetry_Int_Tables_number  12
_chemical_formula_structural  Dy3Ni2
_chemical_formula_sum  Dy6Ni4
_cell_volume  219.11363652616845
_cell_formula_units_Z  2
loop_
  _symmetry_equiv_pos_site_id
 _symmetry_equiv_pos_as_xyz
 1  'x, y, z'
loop_
 _atom_site_type_symbol
 _atom_site_label
 _atom_site_symmetry_multiplicity
 _atom_site_fract_x
 _atom_site_fract_y
 _atom_site_fract_z
 _atom_site_fract_occupancy
 Dy  Dy1  1  0.14520  0.29039  0.36789  1
 Dy  Dy2  1  0.85480  0.70961  0.63211  1
 Dy  Dy3  1  0.59625  0.19251  0.67064  1
 Dy  Dy4  1  0.40375  0.80749  0.32936  1
 Dy  Dy5  1  0.86848  0.73697  0.00311  1
 Dy  Dy6  1  0.13152  0.26303  0.99689  1
 Ni  Ni1  1  0.25465  0.50930  0.77464  1
 Ni  Ni2  1  0.74535  0.49070  0.22536  1
 Ni  Ni3  1  0.46622  0.93244  0.85435  1
 Ni  Ni4  1  0.53378  0.06756  0.14565  1
