CIF file written using JARVIS-Tools package.
data_O
_symmetry_space_group_name_H-M  'C2/m'
_cell_length_a       4.16472
_cell_length_b       5.12915
_cell_length_c       5.12915
_cell_angle_alpha    71.8965
_cell_angle_beta     110.035
_cell_angle_gamma    110.035

_symmetry_Int_Tables_number  12
_chemical_formula_structural  O
_chemical_formula_sum  O8
_cell_volume  94.35650370263747
_cell_formula_units_Z  8
loop_
  _symmetry_equiv_pos_site_id
 _symmetry_equiv_pos_as_xyz
 1  'x, y, z'
loop_
 _atom_site_type_symbol
 _atom_site_label
 _atom_site_symmetry_multiplicity
 _atom_site_fract_x
 _atom_site_fract_y
 _atom_site_fract_z
 _atom_site_fract_occupancy
 O  O1  1  0.85271  0.15521  0.15521  1
 O  O2  1  0.83708  0.71592  0.22051  1
 O  O3  1  0.17881  0.21889  0.21889  1
 O  O4  1  0.16292  0.77949  0.28408  1
 O  O5  1  0.83708  0.22051  0.71592  1
 O  O6  1  0.82119  0.78111  0.78111  1
 O  O7  1  0.16292  0.28408  0.77949  1
 O  O8  1  0.14729  0.84479  0.84479  1
