CIF file written using JARVIS-Tools package.
data_LuHO2
_symmetry_space_group_name_H-M  'P2_1'
_cell_length_a       4.23428
_cell_length_b       3.52274
_cell_length_c       5.80691
_cell_angle_alpha    90
_cell_angle_beta     109.379
_cell_angle_gamma    90

_symmetry_Int_Tables_number  4
_chemical_formula_structural  LuHO2
_chemical_formula_sum  Lu2H2O4
_cell_volume  81.71000143177243
_cell_formula_units_Z  2
loop_
  _symmetry_equiv_pos_site_id
 _symmetry_equiv_pos_as_xyz
 1  'x, y, z'
loop_
 _atom_site_type_symbol
 _atom_site_label
 _atom_site_symmetry_multiplicity
 _atom_site_fract_x
 _atom_site_fract_y
 _atom_site_fract_z
 _atom_site_fract_occupancy
 H  H1  1  0.01186  0.79464  0.41794  1
 H  H2  1  0.98814  0.29464  0.58206  1
 Lu  Lu1  1  0.66690  0.77791  0.81130  1
 Lu  Lu2  1  0.33310  0.27791  0.18870  1
 O  O1  1  0.23209  0.77702  0.94531  1
 O  O2  1  0.76791  0.27702  0.05469  1
 O  O3  1  0.24937  0.77560  0.43779  1
 O  O4  1  0.75063  0.27560  0.56221  1
