CIF file written using JARVIS-Tools package.
data_Ti3Pb
_symmetry_space_group_name_H-M  'P6_3/mmc'
_cell_length_a       5.96697
_cell_length_b       5.96697
_cell_length_c       4.79566
_cell_angle_alpha    90
_cell_angle_beta     90
_cell_angle_gamma    120

_symmetry_Int_Tables_number  194
_chemical_formula_structural  Ti3Pb
_chemical_formula_sum  Ti6Pb2
_cell_volume  147.8722427510424
_cell_formula_units_Z  2
loop_
  _symmetry_equiv_pos_site_id
 _symmetry_equiv_pos_as_xyz
 1  'x, y, z'
loop_
 _atom_site_type_symbol
 _atom_site_label
 _atom_site_symmetry_multiplicity
 _atom_site_fract_x
 _atom_site_fract_y
 _atom_site_fract_z
 _atom_site_fract_occupancy
 Pb  Pb1  1  0.66667  0.33333  0.75000  1
 Pb  Pb2  1  0.33333  0.66667  0.25000  1
 Ti  Ti1  1  0.83999  0.16001  0.25000  1
 Ti  Ti2  1  0.83999  0.67997  0.25000  1
 Ti  Ti3  1  0.32003  0.16001  0.25000  1
 Ti  Ti4  1  0.16001  0.83999  0.75000  1
 Ti  Ti5  1  0.16001  0.32003  0.75000  1
 Ti  Ti6  1  0.67997  0.83999  0.75000  1
