CIF file written using JARVIS-Tools package.
data_Ni3S
_symmetry_space_group_name_H-M  'Cmcm'
_cell_length_a       5.3155
_cell_length_b       3.35231
_cell_length_c       5.31688
_cell_angle_alpha    90
_cell_angle_beta     104.984
_cell_angle_gamma    90

_symmetry_Int_Tables_number  63
_chemical_formula_structural  Ni3S
_chemical_formula_sum  Ni6S2
_cell_volume  91.52074838294455
_cell_formula_units_Z  2
loop_
  _symmetry_equiv_pos_site_id
 _symmetry_equiv_pos_as_xyz
 1  'x, y, z'
loop_
 _atom_site_type_symbol
 _atom_site_label
 _atom_site_symmetry_multiplicity
 _atom_site_fract_x
 _atom_site_fract_y
 _atom_site_fract_z
 _atom_site_fract_occupancy
 Ni  Ni1  1  0.17829  0.75000  0.41520  1
 Ni  Ni2  1  0.10511  0.75000  0.89482  1
 Ni  Ni3  1  0.58481  0.75000  0.82177  1
 Ni  Ni4  1  0.82171  0.25000  0.58480  1
 Ni  Ni5  1  0.89489  0.25000  0.10518  1
 Ni  Ni6  1  0.41519  0.25000  0.17823  1
 S  S1  1  0.28525  0.25000  0.71473  1
 S  S2  1  0.71475  0.75000  0.28527  1
