CIF file written using JARVIS-Tools package.
data_ScSiNi
_symmetry_space_group_name_H-M  'Pnma'
_cell_length_a       4.01953
_cell_length_b       6.44021
_cell_length_c       6.95743
_cell_angle_alpha    90
_cell_angle_beta     90
_cell_angle_gamma    90

_symmetry_Int_Tables_number  62
_chemical_formula_structural  ScSiNi
_chemical_formula_sum  Sc4Si4Ni4
_cell_volume  180.1042279320711
_cell_formula_units_Z  4
loop_
  _symmetry_equiv_pos_site_id
 _symmetry_equiv_pos_as_xyz
 1  'x, y, z'
loop_
 _atom_site_type_symbol
 _atom_site_label
 _atom_site_symmetry_multiplicity
 _atom_site_fract_x
 _atom_site_fract_y
 _atom_site_fract_z
 _atom_site_fract_occupancy
 Ni  Ni1  1  0.25000  0.68718  0.08023  1
 Ni  Ni2  1  0.75000  0.31282  0.91977  1
 Ni  Ni3  1  0.25000  0.18718  0.41977  1
 Ni  Ni4  1  0.75000  0.81282  0.58023  1
 Sc  Sc1  1  0.75000  0.00697  0.20313  1
 Sc  Sc2  1  0.25000  0.99303  0.79687  1
 Sc  Sc3  1  0.75000  0.50697  0.29687  1
 Sc  Sc4  1  0.25000  0.49303  0.70313  1
 Si  Si1  1  0.25000  0.30057  0.09254  1
 Si  Si2  1  0.75000  0.69943  0.90746  1
 Si  Si3  1  0.25000  0.80057  0.40746  1
 Si  Si4  1  0.75000  0.19943  0.59254  1
