CIF file written using JARVIS-Tools package.
data_Li3UO4
_symmetry_space_group_name_H-M  'I4/mmm'
_cell_length_a       4.47471
_cell_length_b       4.47471
_cell_length_c       5.25544
_cell_angle_alpha    115.198
_cell_angle_beta     115.198
_cell_angle_gamma    89.9982

_symmetry_Int_Tables_number  139
_chemical_formula_structural  Li3UO4
_chemical_formula_sum  Li3UO4
_cell_volume  84.0182127133416
_cell_formula_units_Z  1
loop_
  _symmetry_equiv_pos_site_id
 _symmetry_equiv_pos_as_xyz
 1  'x, y, z'
loop_
 _atom_site_type_symbol
 _atom_site_label
 _atom_site_symmetry_multiplicity
 _atom_site_fract_x
 _atom_site_fract_y
 _atom_site_fract_z
 _atom_site_fract_occupancy
 Li  Li1  1  0.74999  0.25001  0.50000  1
 Li  Li2  1  0.25001  0.74999  0.50000  1
 Li  Li3  1  0.50000  0.50000  -0.00000  1
 O  O1  1  0.24174  0.24173  0.48347  1
 O  O2  1  0.75826  0.75827  0.51653  1
 O  O3  1  0.50000  0.00000  -0.00000  1
 O  O4  1  0.00000  0.50000  -0.00000  1
 U  U1  1  0.00000  0.00000  0.00000  1
