CIF file written using JARVIS-Tools package.
data_Lu3Al
_symmetry_space_group_name_H-M  'P6_3/mmc'
_cell_length_a       6.59814
_cell_length_b       6.59814
_cell_length_c       5.22685
_cell_angle_alpha    90
_cell_angle_beta     90
_cell_angle_gamma    120

_symmetry_Int_Tables_number  194
_chemical_formula_structural  Lu3Al
_chemical_formula_sum  Lu6Al2
_cell_volume  197.06712427325542
_cell_formula_units_Z  2
loop_
  _symmetry_equiv_pos_site_id
 _symmetry_equiv_pos_as_xyz
 1  'x, y, z'
loop_
 _atom_site_type_symbol
 _atom_site_label
 _atom_site_symmetry_multiplicity
 _atom_site_fract_x
 _atom_site_fract_y
 _atom_site_fract_z
 _atom_site_fract_occupancy
 Al  Al1  1  0.66667  0.33333  0.75000  1
 Al  Al2  1  0.33333  0.66667  0.25000  1
 Lu  Lu1  1  0.82802  0.65604  0.25000  1
 Lu  Lu2  1  0.34396  0.17198  0.25000  1
 Lu  Lu3  1  0.82802  0.17198  0.25000  1
 Lu  Lu4  1  0.17198  0.34396  0.75000  1
 Lu  Lu5  1  0.65604  0.82802  0.75000  1
 Lu  Lu6  1  0.17198  0.82802  0.75000  1
