CIF file written using JARVIS-Tools package.
data_ErAu
_symmetry_space_group_name_H-M  'Cmcm'
_cell_length_a       3.69052
_cell_length_b       4.60132
_cell_length_c       5.72731
_cell_angle_alpha    90
_cell_angle_beta     108.795
_cell_angle_gamma    90

_symmetry_Int_Tables_number  63
_chemical_formula_structural  ErAu
_chemical_formula_sum  Er2Au2
_cell_volume  92.07077907232122
_cell_formula_units_Z  2
loop_
  _symmetry_equiv_pos_site_id
 _symmetry_equiv_pos_as_xyz
 1  'x, y, z'
loop_
 _atom_site_type_symbol
 _atom_site_label
 _atom_site_symmetry_multiplicity
 _atom_site_fract_x
 _atom_site_fract_y
 _atom_site_fract_z
 _atom_site_fract_occupancy
 Au  Au1  1  0.40885  0.75000  0.81770  1
 Au  Au2  1  0.59115  0.25000  0.18230  1
 Er  Er1  1  0.13856  0.75000  0.27713  1
 Er  Er2  1  0.86144  0.25000  0.72287  1
