CIF file written using JARVIS-Tools package.
data_RbSbBrF3
_symmetry_space_group_name_H-M  'P-1'
_cell_length_a       4.41562
_cell_length_b       7.63073
_cell_length_c       8.95844
_cell_angle_alpha    110.286
_cell_angle_beta     100.166
_cell_angle_gamma    103.763

_symmetry_Int_Tables_number  2
_chemical_formula_structural  RbSbBrF3
_chemical_formula_sum  Rb2Sb2Br2F6
_cell_volume  263.6506220788425
_cell_formula_units_Z  2
loop_
  _symmetry_equiv_pos_site_id
 _symmetry_equiv_pos_as_xyz
 1  'x, y, z'
loop_
 _atom_site_type_symbol
 _atom_site_label
 _atom_site_symmetry_multiplicity
 _atom_site_fract_x
 _atom_site_fract_y
 _atom_site_fract_z
 _atom_site_fract_occupancy
 Br  Br1  1  0.43000  0.76136  0.06477  1
 Br  Br2  1  0.57000  0.23864  0.93523  1
 F  F1  1  0.59760  0.54968  0.67772  1
 F  F2  1  0.69567  0.88574  0.58303  1
 F  F3  1  0.30433  0.11426  0.41697  1
 F  F4  1  0.40240  0.45032  0.32228  1
 F  F5  1  0.21109  0.76300  0.69813  1
 F  F6  1  0.78891  0.23700  0.30187  1
 Rb  Rb1  1  0.98313  0.30584  0.64900  1
 Rb  Rb2  1  0.01687  0.69416  0.35100  1
 Sb  Sb1  1  0.30600  0.15945  0.20792  1
 Sb  Sb2  1  0.69400  0.84055  0.79208  1
