CIF file written using JARVIS-Tools package.
data_NbInNi
_symmetry_space_group_name_H-M  'F-43m'
_cell_length_a       4.24412
_cell_length_b       4.24393
_cell_length_c       4.24388
_cell_angle_alpha    119.997
_cell_angle_beta     90.0003
_cell_angle_gamma    120.003

_symmetry_Int_Tables_number  216
_chemical_formula_structural  NbInNi
_chemical_formula_sum  NbInNi
_cell_volume  54.05073512793582
_cell_formula_units_Z  1
loop_
  _symmetry_equiv_pos_site_id
 _symmetry_equiv_pos_as_xyz
 1  'x, y, z'
loop_
 _atom_site_type_symbol
 _atom_site_label
 _atom_site_symmetry_multiplicity
 _atom_site_fract_x
 _atom_site_fract_y
 _atom_site_fract_z
 _atom_site_fract_occupancy
 In  In1  1  0.33334  0.41667  0.66666  1
 Nb  Nb1  1  0.83333  0.41666  0.16667  1
 Ni  Ni1  1  0.08333  0.91666  -0.08333  1
