CIF file written using JARVIS-Tools package.
data_Sr3Cr2O8
_symmetry_space_group_name_H-M  'R-3m'
_cell_length_a       7.49713
_cell_length_b       7.49714
_cell_length_c       7.49713
_cell_angle_alpha    43.6777
_cell_angle_beta     43.6777
_cell_angle_gamma    43.6777

_symmetry_Int_Tables_number  166
_chemical_formula_structural  Sr3Cr2O8
_chemical_formula_sum  Sr3Cr2O8
_cell_volume  182.4173641199809
_cell_formula_units_Z  1
loop_
  _symmetry_equiv_pos_site_id
 _symmetry_equiv_pos_as_xyz
 1  'x, y, z'
loop_
 _atom_site_type_symbol
 _atom_site_label
 _atom_site_symmetry_multiplicity
 _atom_site_fract_x
 _atom_site_fract_y
 _atom_site_fract_z
 _atom_site_fract_occupancy
 Cr  Cr1  1  0.59394  0.59393  0.59394  1
 Cr  Cr2  1  0.40606  0.40607  0.40606  1
 O  O1  1  0.26871  0.26871  0.76853  1
 O  O2  1  0.26871  0.76853  0.26871  1
 O  O3  1  0.76853  0.26871  0.26871  1
 O  O4  1  0.23147  0.73129  0.73129  1
 O  O5  1  0.73129  0.73129  0.23147  1
 O  O6  1  0.32258  0.32257  0.32258  1
 O  O7  1  0.73129  0.23147  0.73129  1
 O  O8  1  0.67742  0.67743  0.67743  1
 Sr  Sr1  1  0.79681  0.79681  0.79681  1
 Sr  Sr2  1  0.20319  0.20319  0.20319  1
 Sr  Sr3  1  0.00000  0.00000  0.00000  1
