CIF file written using JARVIS-Tools package.
data_YGeAu
_symmetry_space_group_name_H-M  'P6_3mc'
_cell_length_a       4.46115
_cell_length_b       4.46115
_cell_length_c       7.35487
_cell_angle_alpha    90
_cell_angle_beta     90
_cell_angle_gamma    120

_symmetry_Int_Tables_number  186
_chemical_formula_structural  YGeAu
_chemical_formula_sum  Y2Ge2Au2
_cell_volume  126.76520560194554
_cell_formula_units_Z  2
loop_
  _symmetry_equiv_pos_site_id
 _symmetry_equiv_pos_as_xyz
 1  'x, y, z'
loop_
 _atom_site_type_symbol
 _atom_site_label
 _atom_site_symmetry_multiplicity
 _atom_site_fract_x
 _atom_site_fract_y
 _atom_site_fract_z
 _atom_site_fract_occupancy
 Au  Au1  1  0.33333  0.66667  0.24748  1
 Au  Au2  1  0.66667  0.33333  0.74748  1
 Ge  Ge1  1  0.66667  0.33333  0.32740  1
 Ge  Ge2  1  0.33333  0.66667  0.82740  1
 Y  Y1  1  0.00000  0.00000  0.53422  1
 Y  Y2  1  0.00000  0.00000  0.03422  1
