CIF file written using JARVIS-Tools package.
data_HfNiPb
_symmetry_space_group_name_H-M  'F-43m'
_cell_length_a       4.5194
_cell_length_b       4.51927
_cell_length_c       4.51975
_cell_angle_alpha    60.0022
_cell_angle_beta     59.9923
_cell_angle_gamma    60.0006

_symmetry_Int_Tables_number  216
_chemical_formula_structural  HfNiPb
_chemical_formula_sum  HfNiPb
_cell_volume  65.27275609162656
_cell_formula_units_Z  1
loop_
  _symmetry_equiv_pos_site_id
 _symmetry_equiv_pos_as_xyz
 1  'x, y, z'
loop_
 _atom_site_type_symbol
 _atom_site_label
 _atom_site_symmetry_multiplicity
 _atom_site_fract_x
 _atom_site_fract_y
 _atom_site_fract_z
 _atom_site_fract_occupancy
 Hf  Hf1  1  0.00004  0.99999  0.99998  1
 Ni  Ni1  1  0.49999  0.50000  0.50001  1
 Pb  Pb1  1  0.24998  0.25000  0.25001  1
