CIF file written using JARVIS-Tools package.
data_Hg
_symmetry_space_group_name_H-M  'P6/mmm'
_cell_length_a       5.5104
_cell_length_b       5.51039
_cell_length_c       3.24116
_cell_angle_alpha    90
_cell_angle_beta     90
_cell_angle_gamma    120

_symmetry_Int_Tables_number  191
_chemical_formula_structural  Hg
_chemical_formula_sum  Hg3
_cell_volume  85.23092325895018
_cell_formula_units_Z  3
loop_
  _symmetry_equiv_pos_site_id
 _symmetry_equiv_pos_as_xyz
 1  'x, y, z'
loop_
 _atom_site_type_symbol
 _atom_site_label
 _atom_site_symmetry_multiplicity
 _atom_site_fract_x
 _atom_site_fract_y
 _atom_site_fract_z
 _atom_site_fract_occupancy
 Hg  Hg1  1  0.33333  0.66667  0.50000  1
 Hg  Hg2  1  0.66667  0.33333  0.50000  1
 Hg  Hg3  1  0.00000  0.00000  0.00000  1
