CIF file written using JARVIS-Tools package.
data_MoIr3
_symmetry_space_group_name_H-M  'P6_3/mmc'
_cell_length_a       5.5505
_cell_length_b       5.5505
_cell_length_c       4.42348
_cell_angle_alpha    90
_cell_angle_beta     90
_cell_angle_gamma    120

_symmetry_Int_Tables_number  194
_chemical_formula_structural  MoIr3
_chemical_formula_sum  Mo2Ir6
_cell_volume  118.02077749123374
_cell_formula_units_Z  2
loop_
  _symmetry_equiv_pos_site_id
 _symmetry_equiv_pos_as_xyz
 1  'x, y, z'
loop_
 _atom_site_type_symbol
 _atom_site_label
 _atom_site_symmetry_multiplicity
 _atom_site_fract_x
 _atom_site_fract_y
 _atom_site_fract_z
 _atom_site_fract_occupancy
 Ir  Ir1  1  0.33315  0.16657  0.75000  1
 Ir  Ir2  1  0.16657  0.83343  0.25000  1
 Ir  Ir3  1  0.16657  0.33315  0.25000  1
 Ir  Ir4  1  0.83343  0.66685  0.75000  1
 Ir  Ir5  1  0.83343  0.16657  0.75000  1
 Ir  Ir6  1  0.66685  0.83343  0.25000  1
 Mo  Mo1  1  0.33333  0.66667  0.75000  1
 Mo  Mo2  1  0.66667  0.33333  0.25000  1
