CIF file written using JARVIS-Tools package.
data_MgZn2
_symmetry_space_group_name_H-M  'Cmcm'
_cell_length_a       4.6227
_cell_length_b       4.62271
_cell_length_c       5.38359
_cell_angle_alpha    90
_cell_angle_beta     90
_cell_angle_gamma    113.823

_symmetry_Int_Tables_number  63
_chemical_formula_structural  MgZn2
_chemical_formula_sum  Mg2Zn4
_cell_volume  105.24171770128892
_cell_formula_units_Z  2
loop_
  _symmetry_equiv_pos_site_id
 _symmetry_equiv_pos_as_xyz
 1  'x, y, z'
loop_
 _atom_site_type_symbol
 _atom_site_label
 _atom_site_symmetry_multiplicity
 _atom_site_fract_x
 _atom_site_fract_y
 _atom_site_fract_z
 _atom_site_fract_occupancy
 Mg  Mg1  1  0.64110  0.35890  0.25000  1
 Mg  Mg2  1  0.35890  0.64110  0.75000  1
 Zn  Zn1  1  0.70633  0.29367  0.75000  1
 Zn  Zn2  1  0.00000  0.00000  0.00000  1
 Zn  Zn3  1  0.29367  0.70633  0.25000  1
 Zn  Zn4  1  0.00000  0.00000  0.50000  1
