CIF file written using JARVIS-Tools package.
data_Mo3WS8
_symmetry_space_group_name_H-M  'P3m1'
_cell_length_a       3.19144
_cell_length_b       3.19137
_cell_length_c       32.7191
_cell_angle_alpha    89.9946
_cell_angle_beta     90
_cell_angle_gamma    120.001

_symmetry_Int_Tables_number  156
_chemical_formula_structural  Mo3WS8
_chemical_formula_sum  Mo3WS8
_cell_volume  288.59887601174586
_cell_formula_units_Z  1
loop_
  _symmetry_equiv_pos_site_id
 _symmetry_equiv_pos_as_xyz
 1  'x, y, z'
loop_
 _atom_site_type_symbol
 _atom_site_label
 _atom_site_symmetry_multiplicity
 _atom_site_fract_x
 _atom_site_fract_y
 _atom_site_fract_z
 _atom_site_fract_occupancy
 Mo  Mo1  1  0.33348  0.66696  0.08946  1
 Mo  Mo2  1  0.66665  0.33330  0.28006  1
 Mo  Mo3  1  0.66660  0.33320  0.66227  1
 S  S1  1  0.33328  0.66655  0.32794  1
 S  S2  1  0.33324  0.66647  0.71012  1
 S  S3  1  0.66685  0.33371  0.04161  1
 S  S4  1  0.66662  0.33324  0.42296  1
 S  S5  1  0.66677  0.33354  0.13735  1
 S  S6  1  0.66659  0.33317  0.51929  1
 S  S7  1  0.33336  0.66671  0.23218  1
 S  S8  1  0.33330  0.66660  0.61438  1
 W  W1  1  0.33327  0.66654  0.47113  1
