CIF file written using JARVIS-Tools package.
data_LuPO4
_symmetry_space_group_name_H-M  'I4_1/amd'
_cell_length_a       5.64297
_cell_length_b       5.64297
_cell_length_c       5.64298
_cell_angle_alpha    106.241
_cell_angle_beta     106.241
_cell_angle_gamma    116.146

_symmetry_Int_Tables_number  141
_chemical_formula_structural  LuPO4
_chemical_formula_sum  Lu2P2O8
_cell_volume  136.9017213154696
_cell_formula_units_Z  2
loop_
  _symmetry_equiv_pos_site_id
 _symmetry_equiv_pos_as_xyz
 1  'x, y, z'
loop_
 _atom_site_type_symbol
 _atom_site_label
 _atom_site_symmetry_multiplicity
 _atom_site_fract_x
 _atom_site_fract_y
 _atom_site_fract_z
 _atom_site_fract_occupancy
 Lu  Lu1  1  0.12500  0.87500  0.25000  1
 Lu  Lu2  1  0.87500  0.12500  0.75000  1
 O  O1  1  0.78833  0.71610  0.42777  1
 O  O2  1  0.36056  0.78833  0.57223  1
 O  O3  1  0.71610  0.78833  0.92777  1
 O  O4  1  0.78833  0.36056  0.07223  1
 O  O5  1  0.63944  0.21167  0.42777  1
 O  O6  1  0.21167  0.28390  0.57223  1
 O  O7  1  0.21167  0.63944  0.92777  1
 O  O8  1  0.28390  0.21167  0.07223  1
 P  P1  1  0.37500  0.62500  0.75000  1
 P  P2  1  0.62500  0.37500  0.25000  1
