CIF file written using JARVIS-Tools package.
data_Rb
_symmetry_space_group_name_H-M  'Pm-3n'
_cell_length_a       8.84039
_cell_length_b       8.84039
_cell_length_c       8.84039
_cell_angle_alpha    90
_cell_angle_beta     90
_cell_angle_gamma    90

_symmetry_Int_Tables_number  223
_chemical_formula_structural  Rb
_chemical_formula_sum  Rb8
_cell_volume  690.899531478618
_cell_formula_units_Z  8
loop_
  _symmetry_equiv_pos_site_id
 _symmetry_equiv_pos_as_xyz
 1  'x, y, z'
loop_
 _atom_site_type_symbol
 _atom_site_label
 _atom_site_symmetry_multiplicity
 _atom_site_fract_x
 _atom_site_fract_y
 _atom_site_fract_z
 _atom_site_fract_occupancy
 Rb  Rb1  1  0.00000  0.00000  0.00000  1
 Rb  Rb2  1  0.50000  0.25000  0.00000  1
 Rb  Rb3  1  0.50000  0.75000  0.00000  1
 Rb  Rb4  1  0.00000  0.50000  0.25000  1
 Rb  Rb5  1  0.25000  0.00000  0.50000  1
 Rb  Rb6  1  0.75000  0.00000  0.50000  1
 Rb  Rb7  1  0.50000  0.50000  0.50000  1
 Rb  Rb8  1  0.00000  0.50000  0.75000  1
