CIF file written using JARVIS-Tools package.
data_K2ZnSi2O6
_symmetry_space_group_name_H-M  'C222_1'
_cell_length_a       5.74534
_cell_length_b       5.74534
_cell_length_c       10.543
_cell_angle_alpha    90
_cell_angle_beta     90
_cell_angle_gamma    113.853

_symmetry_Int_Tables_number  20
_chemical_formula_structural  K2ZnSi2O6
_chemical_formula_sum  K4Zn2Si4O2
_cell_volume  318.2892382198297
_cell_formula_units_Z  2
loop_
  _symmetry_equiv_pos_site_id
 _symmetry_equiv_pos_as_xyz
 1  'x, y, z'
loop_
 _atom_site_type_symbol
 _atom_site_label
 _atom_site_symmetry_multiplicity
 _atom_site_fract_x
 _atom_site_fract_y
 _atom_site_fract_z
 _atom_site_fract_occupancy
 K  K1  1  0.28649  0.94365  0.57400  1
 K  K2  1  0.05635  0.71351  0.92600  1
 K  K3  1  0.71351  0.05635  0.07400  1
 K  K4  1  0.94365  0.28649  0.42600  1
 O  O1  1  0.78292  0.94516  0.62108  1
 O  O2  1  0.52619  0.88243  0.33535  1
 O  O3  1  0.51201  0.51201  0.50000  1
 O  O4  1  0.88243  0.52619  0.66465  1
 O  O5  1  0.55013  0.44987  0.25000  1
 O  O6  1  0.05484  0.21708  0.87892  1
 O  O7  1  0.94516  0.78292  0.37892  1
 O  O8  1  0.44987  0.55013  0.75000  1
 O  O9  1  0.21708  0.05484  0.12108  1
 O  O10  1  0.47381  0.11757  0.83535  1
 O  O11  1  0.11757  0.47381  0.16465  1
 O  O12  1  0.48799  0.48799  0.00000  1
 Si  Si1  1  0.63781  0.66913  0.36347  1
 Si  Si2  1  0.66913  0.63781  0.63653  1
 Si  Si3  1  0.33087  0.36219  0.13653  1
 Si  Si4  1  0.36219  0.33087  0.86347  1
 Zn  Zn1  1  0.80498  0.19502  0.75000  1
 Zn  Zn2  1  0.19502  0.80498  0.25000  1
