CIF file written using JARVIS-Tools package.
data_HfGaPt
_symmetry_space_group_name_H-M  'P-62c'
_cell_length_a       7.15219
_cell_length_b       7.15219
_cell_length_c       7.0736
_cell_angle_alpha    90
_cell_angle_beta     90
_cell_angle_gamma    120

_symmetry_Int_Tables_number  190
_chemical_formula_structural  HfGaPt
_chemical_formula_sum  Hf6Ga6Pt6
_cell_volume  313.3642976790932
_cell_formula_units_Z  6
loop_
  _symmetry_equiv_pos_site_id
 _symmetry_equiv_pos_as_xyz
 1  'x, y, z'
loop_
 _atom_site_type_symbol
 _atom_site_label
 _atom_site_symmetry_multiplicity
 _atom_site_fract_x
 _atom_site_fract_y
 _atom_site_fract_z
 _atom_site_fract_occupancy
 Ga  Ga1  1  0.73134  -0.00000  0.00000  1
 Ga  Ga2  1  -0.00000  0.73134  0.00000  1
 Ga  Ga3  1  -0.00000  0.73134  0.50000  1
 Ga  Ga4  1  0.73134  -0.00000  0.50000  1
 Ga  Ga5  1  0.26866  0.26866  0.00000  1
 Ga  Ga6  1  0.26866  0.26866  0.50000  1
 Hf  Hf1  1  0.61553  0.59184  0.75000  1
 Hf  Hf2  1  0.40816  0.02370  0.75000  1
 Hf  Hf3  1  0.38447  0.97630  0.25000  1
 Hf  Hf4  1  0.59184  0.61553  0.25000  1
 Hf  Hf5  1  0.02370  0.40816  0.25000  1
 Hf  Hf6  1  0.97630  0.38447  0.75000  1
 Pt  Pt1  1  0.33333  0.66667  0.53199  1
 Pt  Pt2  1  0.66667  0.33333  0.46801  1
 Pt  Pt3  1  0.00000  0.00000  0.25000  1
 Pt  Pt4  1  0.66667  0.33333  0.03199  1
 Pt  Pt5  1  0.33333  0.66667  0.96801  1
 Pt  Pt6  1  0.00000  0.00000  0.75000  1
