CIF file written using JARVIS-Tools package.
data_NaH6CN2ClO2
_symmetry_space_group_name_H-M  'C2'
_cell_length_a       5.06854
_cell_length_b       6.42629
_cell_length_c       9.60177
_cell_angle_alpha    108.728
_cell_angle_beta     105.304
_cell_angle_gamma    90

_symmetry_Int_Tables_number  5
_chemical_formula_structural  NaH6CN2ClO2
_chemical_formula_sum  Na2H2C2N4Cl2O4
_cell_volume  284.45320384799174
_cell_formula_units_Z  2
loop_
  _symmetry_equiv_pos_site_id
 _symmetry_equiv_pos_as_xyz
 1  'x, y, z'
loop_
 _atom_site_type_symbol
 _atom_site_label
 _atom_site_symmetry_multiplicity
 _atom_site_fract_x
 _atom_site_fract_y
 _atom_site_fract_z
 _atom_site_fract_occupancy
 C  C1  1  0.31390  0.33146  0.67450  1
 C  C2  1  0.63937  0.66854  0.32550  1
 Cl  Cl1  1  0.78982  0.89222  0.76411  1
 Cl  Cl2  1  0.02571  0.10779  0.23589  1
 H  H1  1  0.20983  0.54264  0.08716  1
 H  H2  1  0.02607  0.11676  0.48685  1
 H  H3  1  0.29314  0.04653  0.08891  1
 H  H4  1  0.34668  0.89043  0.33262  1
 H  H5  1  0.93598  0.46149  0.36203  1
 H  H6  1  0.20423  0.95346  0.91109  1
 H  H7  1  0.53920  0.88324  0.51315  1
 H  H8  1  0.90609  0.66736  0.53018  1
 H  H9  1  0.57396  0.53852  0.63798  1
 H  H10  1  0.01406  0.10957  0.66737  1
 H  H11  1  0.12265  0.45737  0.91283  1
 H  H12  1  0.37592  0.33264  0.46983  1
 N  N1  1  0.50231  0.83018  0.39666  1
 N  N2  1  0.10567  0.16981  0.60334  1
 N  N3  1  0.43825  0.40010  0.58648  1
 N  N4  1  0.85176  0.59990  0.41353  1
 Na  Na1  1  0.68665  0.73719  0.00052  1
 Na  Na2  1  0.68613  0.26281  0.99948  1
 O  O1  1  0.57275  0.58432  0.18023  1
 O  O2  1  0.37000  -0.00000  -0.00000  1
 O  O3  1  0.04002  0.50001  0.00000  1
 O  O4  1  0.39253  0.41568  0.81977  1
