CIF file written using JARVIS-Tools package.
data_UTeAs
_symmetry_space_group_name_H-M  'P4/nmm'
_cell_length_a       4.1526
_cell_length_b       4.1526
_cell_length_c       8.85505
_cell_angle_alpha    90
_cell_angle_beta     90
_cell_angle_gamma    90

_symmetry_Int_Tables_number  129
_chemical_formula_structural  UTeAs
_chemical_formula_sum  U2Te2As2
_cell_volume  152.69736277778375
_cell_formula_units_Z  2
loop_
  _symmetry_equiv_pos_site_id
 _symmetry_equiv_pos_as_xyz
 1  'x, y, z'
loop_
 _atom_site_type_symbol
 _atom_site_label
 _atom_site_symmetry_multiplicity
 _atom_site_fract_x
 _atom_site_fract_y
 _atom_site_fract_z
 _atom_site_fract_occupancy
 As  As1  1  0.00000  0.00000  0.00000  1
 As  As2  1  0.50000  0.50000  0.00000  1
 Te  Te1  1  0.50000  0.00000  0.62919  1
 Te  Te2  1  0.00000  0.50000  0.37081  1
 U  U1  1  0.50000  0.00000  0.24590  1
 U  U2  1  0.00000  0.50000  0.75410  1
