CIF file written using JARVIS-Tools package.
data_VPt2
_symmetry_space_group_name_H-M  'Immm'
_cell_length_a       2.74394
_cell_length_b       3.82415
_cell_length_c       4.82859
_cell_angle_alpha    113.328
_cell_angle_beta     106.507
_cell_angle_gamma    90

_symmetry_Int_Tables_number  71
_chemical_formula_structural  VPt2
_chemical_formula_sum  VPt2
_cell_volume  44.24238966982294
_cell_formula_units_Z  1
loop_
  _symmetry_equiv_pos_site_id
 _symmetry_equiv_pos_as_xyz
 1  'x, y, z'
loop_
 _atom_site_type_symbol
 _atom_site_label
 _atom_site_symmetry_multiplicity
 _atom_site_fract_x
 _atom_site_fract_y
 _atom_site_fract_z
 _atom_site_fract_occupancy
 Pt  Pt1  1  0.66019  0.66019  0.32038  1
 Pt  Pt2  1  0.33981  0.33981  0.67962  1
 V  V1  1  0.00000  0.00000  0.00000  1
