CIF file written using JARVIS-Tools package.
data_LuO3
_symmetry_space_group_name_H-M  'Im-3'
_cell_length_a       6.4216
_cell_length_b       6.4216
_cell_length_c       6.4216
_cell_angle_alpha    109.471
_cell_angle_beta     109.471
_cell_angle_gamma    109.471

_symmetry_Int_Tables_number  204
_chemical_formula_structural  LuO3
_chemical_formula_sum  Lu4O2
_cell_volume  203.84896236397066
_cell_formula_units_Z  4
loop_
  _symmetry_equiv_pos_site_id
 _symmetry_equiv_pos_as_xyz
 1  'x, y, z'
loop_
 _atom_site_type_symbol
 _atom_site_label
 _atom_site_symmetry_multiplicity
 _atom_site_fract_x
 _atom_site_fract_y
 _atom_site_fract_z
 _atom_site_fract_occupancy
 Lu  Lu1  1  0.50000  0.50000  0.50000  1
 Lu  Lu2  1  0.50000  -0.00000  -0.00000  1
 Lu  Lu3  1  -0.00000  0.50000  0.00000  1
 Lu  Lu4  1  0.00000  0.00000  0.50000  1
 O  O1  1  0.90015  0.68123  0.58137  1
 O  O2  1  0.09985  0.31877  0.41863  1
 O  O3  1  0.09985  0.68123  0.78108  1
 O  O4  1  0.90015  0.31877  0.21892  1
 O  O5  1  0.68123  0.58137  0.90015  1
 O  O6  1  0.31877  0.41863  0.09985  1
 O  O7  1  0.68123  0.78108  0.09985  1
 O  O8  1  0.31877  0.21892  0.90015  1
 O  O9  1  0.58137  0.90015  0.68123  1
 O  O10  1  0.41863  0.09985  0.31877  1
 O  O11  1  0.78108  0.09985  0.68123  1
 O  O12  1  0.21892  0.90015  0.31877  1
