CIF file written using JARVIS-Tools package.
data_TiZnN2
_symmetry_space_group_name_H-M  'Pna2_1'
_cell_length_a       5.24658
_cell_length_b       5.68859
_cell_length_c       6.56683
_cell_angle_alpha    90
_cell_angle_beta     90
_cell_angle_gamma    90

_symmetry_Int_Tables_number  33
_chemical_formula_structural  TiZnN2
_chemical_formula_sum  Ti4Zn4N8
_cell_volume  195.99107569170764
_cell_formula_units_Z  4
loop_
  _symmetry_equiv_pos_site_id
 _symmetry_equiv_pos_as_xyz
 1  'x, y, z'
loop_
 _atom_site_type_symbol
 _atom_site_label
 _atom_site_symmetry_multiplicity
 _atom_site_fract_x
 _atom_site_fract_y
 _atom_site_fract_z
 _atom_site_fract_occupancy
 N  N1  1  0.39107  0.08995  0.13518  1
 N  N2  1  0.89107  0.91005  0.86482  1
 N  N3  1  0.39107  0.58995  0.36482  1
 N  N4  1  0.89107  0.41005  0.63518  1
 N  N5  1  0.36565  0.07025  0.61454  1
 N  N6  1  0.86565  0.92975  0.38546  1
 N  N7  1  0.36565  0.57025  0.88546  1
 N  N8  1  0.86565  0.42975  0.11454  1
 Ti  Ti1  1  0.99647  0.08312  0.62568  1
 Ti  Ti2  1  0.49647  0.91688  0.37432  1
 Ti  Ti3  1  0.99647  0.58312  0.87432  1
 Ti  Ti4  1  0.49647  0.41688  0.12568  1
 Zn  Zn1  1  0.99781  0.08739  0.12393  1
 Zn  Zn2  1  0.49781  0.91261  0.87607  1
 Zn  Zn3  1  0.99781  0.58739  0.37607  1
 Zn  Zn4  1  0.49781  0.41261  0.62393  1
