CIF file written using JARVIS-Tools package.
data_Y2Si4Mo3
_symmetry_space_group_name_H-M  'P2_1/c'
_cell_length_a       6.78707
_cell_length_b       6.94954
_cell_length_c       6.88903
_cell_angle_alpha    90
_cell_angle_beta     109.053
_cell_angle_gamma    90

_symmetry_Int_Tables_number  14
_chemical_formula_structural  Y2Si4Mo3
_chemical_formula_sum  Y4Si8Mo6
_cell_volume  307.13501216475584
_cell_formula_units_Z  2
loop_
  _symmetry_equiv_pos_site_id
 _symmetry_equiv_pos_as_xyz
 1  'x, y, z'
loop_
 _atom_site_type_symbol
 _atom_site_label
 _atom_site_symmetry_multiplicity
 _atom_site_fract_x
 _atom_site_fract_y
 _atom_site_fract_z
 _atom_site_fract_occupancy
 Mo  Mo1  1  0.50000  0.00000  0.50000  1
 Mo  Mo2  1  0.74901  0.16208  0.24995  1
 Mo  Mo3  1  0.24901  0.33792  0.24995  1
 Mo  Mo4  1  0.25099  0.83792  0.75005  1
 Mo  Mo5  1  0.00000  0.50000  0.50000  1
 Mo  Mo6  1  0.75099  0.66208  0.75005  1
 Si  Si1  1  0.36730  0.04543  0.09047  1
 Si  Si2  1  0.13270  0.54543  0.90953  1
 Si  Si3  1  0.62866  0.36760  0.49498  1
 Si  Si4  1  0.87134  0.86760  0.50502  1
 Si  Si5  1  0.37134  0.63240  0.50502  1
 Si  Si6  1  0.63270  0.95457  0.90953  1
 Si  Si7  1  0.86730  0.45457  0.09047  1
 Si  Si8  1  0.12866  0.13240  0.49498  1
 Y  Y1  1  0.56118  0.66988  0.19058  1
 Y  Y2  1  0.06118  0.83012  0.19058  1
 Y  Y3  1  0.43882  0.33012  0.80942  1
 Y  Y4  1  0.93882  0.16988  0.80942  1
