CIF file written using JARVIS-Tools package.
data_K3Fe2O4
_symmetry_space_group_name_H-M  'Fddd'
_cell_length_a       5.96418
_cell_length_b       6.40978
_cell_length_c       9.01594
_cell_angle_alpha    81.1481
_cell_angle_beta     70.6853
_cell_angle_gamma    62.2742

_symmetry_Int_Tables_number  70
_chemical_formula_structural  K3Fe2O4
_chemical_formula_sum  K6Fe4O8
_cell_volume  287.9253820299411
_cell_formula_units_Z  2
loop_
  _symmetry_equiv_pos_site_id
 _symmetry_equiv_pos_as_xyz
 1  'x, y, z'
loop_
 _atom_site_type_symbol
 _atom_site_label
 _atom_site_symmetry_multiplicity
 _atom_site_fract_x
 _atom_site_fract_y
 _atom_site_fract_z
 _atom_site_fract_occupancy
 Fe  Fe1  1  0.18360  0.25000  0.63280  1
 Fe  Fe2  1  0.43360  0.75000  0.13280  1
 Fe  Fe3  1  0.56640  0.25000  0.86720  1
 Fe  Fe4  1  0.81640  0.75000  0.36720  1
 K  K1  1  0.37500  0.25000  0.25000  1
 K  K2  1  0.01483  0.75000  0.97035  1
 K  K3  1  0.76483  0.25000  0.47035  1
 K  K4  1  0.62500  0.75000  0.75000  1
 K  K5  1  0.23517  0.75000  0.52965  1
 K  K6  1  0.98517  0.25000  0.02965  1
 O  O1  1  0.94373  0.11254  0.75000  1
 O  O2  1  0.50000  0.00000  -0.00000  1
 O  O3  1  0.50000  0.50000  0.00000  1
 O  O4  1  -0.00000  0.50000  0.50000  1
 O  O5  1  0.30627  0.38746  0.75000  1
 O  O6  1  0.05627  0.88746  0.25000  1
 O  O7  1  0.69373  0.61254  0.25000  1
 O  O8  1  0.50000  0.00000  0.50000  1
