CIF file written using JARVIS-Tools package.
data_BaNdCuBO5
_symmetry_space_group_name_H-M  'P4bm'
_cell_length_a       5.5476
_cell_length_b       5.5476
_cell_length_c       7.57745
_cell_angle_alpha    90
_cell_angle_beta     90
_cell_angle_gamma    90

_symmetry_Int_Tables_number  100
_chemical_formula_structural  BaNdCuBO5
_chemical_formula_sum  Ba2Nd2Cu2B2O0
_cell_volume  233.2026190119368
_cell_formula_units_Z  2
loop_
  _symmetry_equiv_pos_site_id
 _symmetry_equiv_pos_as_xyz
 1  'x, y, z'
loop_
 _atom_site_type_symbol
 _atom_site_label
 _atom_site_symmetry_multiplicity
 _atom_site_fract_x
 _atom_site_fract_y
 _atom_site_fract_z
 _atom_site_fract_occupancy
 B  B1  1  0.50000  0.00000  0.26615  1
 B  B2  1  0.00000  0.50000  0.26615  1
 Ba  Ba1  1  0.50000  0.50000  0.51007  1
 Ba  Ba2  1  0.00000  0.00000  0.51007  1
 Cu  Cu1  1  0.00000  0.50000  0.78068  1
 Cu  Cu2  1  0.50000  0.00000  0.78068  1
 Nd  Nd1  1  0.50000  0.50000  0.00349  1
 Nd  Nd2  1  0.00000  0.00000  0.00349  1
 O  O1  1  0.75235  0.74765  0.79735  1
 O  O2  1  0.15544  0.65544  0.17827  1
 O  O3  1  0.00000  0.50000  0.44976  1
 O  O4  1  0.34456  0.15544  0.17827  1
 O  O5  1  0.24765  0.25235  0.79735  1
 O  O6  1  0.65544  0.84456  0.17827  1
 O  O7  1  0.25235  0.75235  0.79735  1
 O  O8  1  0.50000  0.00000  0.44976  1
 O  O9  1  0.84456  0.34456  0.17827  1
 O  O10  1  0.74765  0.24765  0.79735  1
