CIF file written using JARVIS-Tools package.
data_K2CuO2
_symmetry_space_group_name_H-M  'C2/m'
_cell_length_a       4.04755
_cell_length_b       4.08781
_cell_length_c       7.89652
_cell_angle_alpha    104.998
_cell_angle_beta     138.282
_cell_angle_gamma    89.9983

_symmetry_Int_Tables_number  12
_chemical_formula_structural  K2CuO2
_chemical_formula_sum  K2CuO2
_cell_volume  80.10305467692245
_cell_formula_units_Z  1
loop_
  _symmetry_equiv_pos_site_id
 _symmetry_equiv_pos_as_xyz
 1  'x, y, z'
loop_
 _atom_site_type_symbol
 _atom_site_label
 _atom_site_symmetry_multiplicity
 _atom_site_fract_x
 _atom_site_fract_y
 _atom_site_fract_z
 _atom_site_fract_occupancy
 Cu  Cu1  1  0.00000  0.00000  0.00000  1
 K  K1  1  -0.02311  0.66192  0.32384  1
 K  K2  1  0.02311  0.33808  0.67616  1
 O  O1  1  0.00000  0.50000  0.00000  1
 O  O2  1  0.50000  0.00000  -0.00000  1
