CIF file written using JARVIS-Tools package.
data_ScGa
_symmetry_space_group_name_H-M  'Cmcm'
_cell_length_a       3.86147
_cell_length_b       4.03664
_cell_length_c       5.48102
_cell_angle_alpha    111.607
_cell_angle_beta     90
_cell_angle_gamma    90

_symmetry_Int_Tables_number  63
_chemical_formula_structural  ScGa
_chemical_formula_sum  Sc2Ga2
_cell_volume  79.43132666445834
_cell_formula_units_Z  2
loop_
  _symmetry_equiv_pos_site_id
 _symmetry_equiv_pos_as_xyz
 1  'x, y, z'
loop_
 _atom_site_type_symbol
 _atom_site_label
 _atom_site_symmetry_multiplicity
 _atom_site_fract_x
 _atom_site_fract_y
 _atom_site_fract_z
 _atom_site_fract_occupancy
 Ga  Ga1  1  0.25000  0.58297  0.16595  1
 Ga  Ga2  1  0.75000  0.41703  0.83405  1
 Sc  Sc1  1  0.25000  0.86186  0.72373  1
 Sc  Sc2  1  0.75000  0.13814  0.27627  1
