CIF file written using JARVIS-Tools package.
data_TeMo2Se3
_symmetry_space_group_name_H-M  'P-6m2'
_cell_length_a       3.38664
_cell_length_b       3.38662
_cell_length_c       26.8931
_cell_angle_alpha    90.0087
_cell_angle_beta     90
_cell_angle_gamma    120

_symmetry_Int_Tables_number  187
_chemical_formula_structural  TeMo2Se3
_chemical_formula_sum  Te2Mo4Se6
_cell_volume  267.12031344352994
_cell_formula_units_Z  2
loop_
  _symmetry_equiv_pos_site_id
 _symmetry_equiv_pos_as_xyz
 1  'x, y, z'
loop_
 _atom_site_type_symbol
 _atom_site_label
 _atom_site_symmetry_multiplicity
 _atom_site_fract_x
 _atom_site_fract_y
 _atom_site_fract_z
 _atom_site_fract_occupancy
 Mo  Mo1  1  0.33289  0.66578  0.00798  1
 Mo  Mo2  1  0.33388  0.66775  0.49350  1
 Mo  Mo3  1  0.66619  0.33238  0.25075  1
 Mo  Mo4  1  0.66704  0.33408  0.75069  1
 Se  Se1  1  0.33291  0.66582  0.31224  1
 Se  Se2  1  0.66619  0.33237  -0.05355  1
 Se  Se3  1  0.66715  0.33429  0.43202  1
 Se  Se4  1  0.66626  0.33253  0.06946  1
 Se  Se5  1  0.66728  0.33456  0.55503  1
 Se  Se6  1  0.33280  0.66560  0.18926  1
 Te  Te1  1  0.33377  0.66753  0.82071  1
 Te  Te2  1  0.33365  0.66731  0.68067  1
