CIF file written using JARVIS-Tools package.
data_TeMo2Se2S
_symmetry_space_group_name_H-M  'Amm2'
_cell_length_a       3.34953
_cell_length_b       3.34952
_cell_length_c       26.5747
_cell_angle_alpha    89.9949
_cell_angle_beta     90
_cell_angle_gamma    120

_symmetry_Int_Tables_number  38
_chemical_formula_structural  TeMo2Se2S
_chemical_formula_sum  Te2Mo4Se4S2
_cell_volume  258.2048460736131
_cell_formula_units_Z  2
loop_
  _symmetry_equiv_pos_site_id
 _symmetry_equiv_pos_as_xyz
 1  'x, y, z'
loop_
 _atom_site_type_symbol
 _atom_site_label
 _atom_site_symmetry_multiplicity
 _atom_site_fract_x
 _atom_site_fract_y
 _atom_site_fract_z
 _atom_site_fract_occupancy
 Mo  Mo1  1  0.33275  0.66550  0.01267  1
 Mo  Mo2  1  0.33408  0.66816  0.48883  1
 Mo  Mo3  1  0.66588  0.33175  0.25069  1
 Mo  Mo4  1  0.66729  0.33457  0.75073  1
 S  S1  1  0.33254  0.66508  0.30778  1
 S  S2  1  0.33255  0.66511  0.19360  1
 Se  Se1  1  0.66613  0.33226  0.94998  1
 Se  Se2  1  0.66745  0.33490  0.42613  1
 Se  Se3  1  0.66605  0.33209  0.07537  1
 Se  Se4  1  0.66738  0.33477  0.55152  1
 Te  Te1  1  0.33392  0.66783  0.82226  1
 Te  Te2  1  0.33399  0.66798  0.67919  1
