CIF file written using JARVIS-Tools package.
data_YbMgSn
_symmetry_space_group_name_H-M  'P-62m'
_cell_length_a       7.60651
_cell_length_b       7.60651
_cell_length_c       4.66438
_cell_angle_alpha    90
_cell_angle_beta     90
_cell_angle_gamma    120

_symmetry_Int_Tables_number  189
_chemical_formula_structural  YbMgSn
_chemical_formula_sum  Yb3Mg3Sn3
_cell_volume  233.71989329128152
_cell_formula_units_Z  3
loop_
  _symmetry_equiv_pos_site_id
 _symmetry_equiv_pos_as_xyz
 1  'x, y, z'
loop_
 _atom_site_type_symbol
 _atom_site_label
 _atom_site_symmetry_multiplicity
 _atom_site_fract_x
 _atom_site_fract_y
 _atom_site_fract_z
 _atom_site_fract_occupancy
 Mg  Mg1  1  0.24923  -0.00000  0.00000  1
 Mg  Mg2  1  0.75077  0.75077  0.00000  1
 Mg  Mg3  1  -0.00000  0.24923  0.00000  1
 Sn  Sn1  1  0.33333  0.66667  0.00000  1
 Sn  Sn2  1  0.66667  0.33333  0.00000  1
 Sn  Sn3  1  0.00000  0.00000  0.50000  1
 Yb  Yb1  1  0.42757  0.42757  0.50000  1
 Yb  Yb2  1  -0.00000  0.57243  0.50000  1
 Yb  Yb3  1  0.57243  -0.00000  0.50000  1
