CIF file written using JARVIS-Tools package.
data_Rb
_symmetry_space_group_name_H-M  'Fddd'
_cell_length_a       4.7454
_cell_length_b       9.02607
_cell_length_c       8.99209
_cell_angle_alpha    86.0226
_cell_angle_beta     74.7005
_cell_angle_gamma    74.7595

_symmetry_Int_Tables_number  70
_chemical_formula_structural  Rb
_chemical_formula_sum  Rb4
_cell_volume  358.437039393733
_cell_formula_units_Z  4
loop_
  _symmetry_equiv_pos_site_id
 _symmetry_equiv_pos_as_xyz
 1  'x, y, z'
loop_
 _atom_site_type_symbol
 _atom_site_label
 _atom_site_symmetry_multiplicity
 _atom_site_fract_x
 _atom_site_fract_y
 _atom_site_fract_z
 _atom_site_fract_occupancy
 Rb  Rb1  1  0.11981  0.50000  0.76037  1
 Rb  Rb2  1  0.63019  0.00000  0.73963  1
 Rb  Rb3  1  0.38019  0.50000  0.23963  1
 Rb  Rb4  1  0.36981  0.00000  0.26037  1
