CIF file written using JARVIS-Tools package.
data_Te2Mo2WSe2S2
_symmetry_space_group_name_H-M  'Cm'
_cell_length_a       3.35486
_cell_length_b       3.35479
_cell_length_c       26.5154
_cell_angle_alpha    89.977
_cell_angle_beta     90.0231
_cell_angle_gamma    120.009

_symmetry_Int_Tables_number  8
_chemical_formula_structural  Te2Mo2WSe2S2
_chemical_formula_sum  Te2Mo2WSe2S2
_cell_volume  258.4208650504976
_cell_formula_units_Z  1
loop_
  _symmetry_equiv_pos_site_id
 _symmetry_equiv_pos_as_xyz
 1  'x, y, z'
loop_
 _atom_site_type_symbol
 _atom_site_label
 _atom_site_symmetry_multiplicity
 _atom_site_fract_x
 _atom_site_fract_y
 _atom_site_fract_z
 _atom_site_fract_occupancy
 Mo  Mo1  1  0.33260  0.66630  0.10001  1
 Mo  Mo2  1  0.33335  0.66541  0.60191  1
 S  S1  1  0.66647  0.33295  0.04287  1
 S  S2  1  0.66503  0.33242  0.15725  1
 Se  Se1  1  0.33519  0.66855  0.40213  1
 Se  Se2  1  0.33334  0.66850  0.27597  1
 Te  Te1  1  0.66652  0.33219  0.53027  1
 Te  Te2  1  0.66661  0.33179  0.67339  1
 W  W1  1  0.66748  0.33508  0.33905  1
