CIF file written using JARVIS-Tools package.
data_AgWS4N
_symmetry_space_group_name_H-M  'I-4'
_cell_length_a       5.9887
_cell_length_b       5.83406
_cell_length_c       5.83406
_cell_angle_alpha    74.7264
_cell_angle_beta     59.1192
_cell_angle_gamma    59.1192

_symmetry_Int_Tables_number  82
_chemical_formula_structural  AgWS4N
_chemical_formula_sum  AgWS4N
_cell_volume  150.13788824242258
_cell_formula_units_Z  1
loop_
  _symmetry_equiv_pos_site_id
 _symmetry_equiv_pos_as_xyz
 1  'x, y, z'
loop_
 _atom_site_type_symbol
 _atom_site_label
 _atom_site_symmetry_multiplicity
 _atom_site_fract_x
 _atom_site_fract_y
 _atom_site_fract_z
 _atom_site_fract_occupancy
 Ag  Ag1  1  0.50000  0.00000  0.00000  1
 N  N1  1  0.25000  0.50000  0.50000  1
 S  S1  1  0.34049  0.09308  0.63712  1
 S  S2  1  0.07069  -0.09308  0.36288  1
 S  S3  1  0.02239  0.63712  -0.09308  1
 S  S4  1  0.56643  0.36288  0.09308  1
 W  W1  1  0.00000  0.00000  0.00000  1
