CIF file written using JARVIS-Tools package.
data_NaMnF4
_symmetry_space_group_name_H-M  'P2_1/c'
_cell_length_a       5.73401
_cell_length_b       4.95274
_cell_length_c       5.81466
_cell_angle_alpha    90
_cell_angle_beta     108.542
_cell_angle_gamma    90

_symmetry_Int_Tables_number  14
_chemical_formula_structural  NaMnF4
_chemical_formula_sum  Na2Mn2F8
_cell_volume  156.55899653695005
_cell_formula_units_Z  2
loop_
  _symmetry_equiv_pos_site_id
 _symmetry_equiv_pos_as_xyz
 1  'x, y, z'
loop_
 _atom_site_type_symbol
 _atom_site_label
 _atom_site_symmetry_multiplicity
 _atom_site_fract_x
 _atom_site_fract_y
 _atom_site_fract_z
 _atom_site_fract_occupancy
 F  F1  1  0.30945  0.15148  0.11218  1
 F  F2  1  0.69055  0.65148  0.38782  1
 F  F3  1  0.69055  0.84852  0.88782  1
 F  F4  1  0.30945  0.34852  0.61218  1
 F  F5  1  0.87935  0.23320  0.66598  1
 F  F6  1  0.12065  0.73320  0.83402  1
 F  F7  1  0.12065  0.76680  0.33402  1
 F  F8  1  0.87935  0.26680  0.16598  1
 Mn  Mn1  1  -0.00000  0.50000  0.50000  1
 Mn  Mn2  1  0.00000  0.00000  0.00000  1
 Na  Na1  1  0.50000  0.50000  0.00000  1
 Na  Na2  1  0.50000  0.00000  0.50000  1
