CIF file written using JARVIS-Tools package.
data_ZrSi
_symmetry_space_group_name_H-M  'Cmcm'
_cell_length_a       3.78125
_cell_length_b       3.7968
_cell_length_c       5.348
_cell_angle_alpha    110.792
_cell_angle_beta     90
_cell_angle_gamma    90

_symmetry_Int_Tables_number  63
_chemical_formula_structural  ZrSi
_chemical_formula_sum  Zr2Si2
_cell_volume  71.77902049402027
_cell_formula_units_Z  2
loop_
  _symmetry_equiv_pos_site_id
 _symmetry_equiv_pos_as_xyz
 1  'x, y, z'
loop_
 _atom_site_type_symbol
 _atom_site_label
 _atom_site_symmetry_multiplicity
 _atom_site_fract_x
 _atom_site_fract_y
 _atom_site_fract_z
 _atom_site_fract_occupancy
 Si  Si1  1  0.25000  0.07977  0.15955  1
 Si  Si2  1  0.75000  0.92023  0.84045  1
 Zr  Zr1  1  0.25000  0.35497  0.70993  1
 Zr  Zr2  1  0.75000  0.64503  0.29007  1
