CIF file written using JARVIS-Tools package.
data_Sr2CdAs2
_symmetry_space_group_name_H-M  'Cmc2_1'
_cell_length_a       4.4745
_cell_length_b       7.60132
_cell_length_c       8.80321
_cell_angle_alpha    90
_cell_angle_beta     75.2774
_cell_angle_gamma    90

_symmetry_Int_Tables_number  36
_chemical_formula_structural  Sr2CdAs2
_chemical_formula_sum  Sr4Cd2As4
_cell_volume  289.5846581716447
_cell_formula_units_Z  2
loop_
  _symmetry_equiv_pos_site_id
 _symmetry_equiv_pos_as_xyz
 1  'x, y, z'
loop_
 _atom_site_type_symbol
 _atom_site_label
 _atom_site_symmetry_multiplicity
 _atom_site_fract_x
 _atom_site_fract_y
 _atom_site_fract_z
 _atom_site_fract_occupancy
 As  As1  1  0.93593  0.55544  0.12814  1
 As  As2  1  0.32326  0.01788  0.35347  1
 As  As3  1  0.67674  0.51788  0.64653  1
 As  As4  1  0.06407  0.05544  0.87186  1
 Cd  Cd1  1  0.90347  0.92182  0.19307  1
 Cd  Cd2  1  0.09654  0.42182  0.80693  1
 Sr  Sr1  1  0.46608  0.26301  0.06783  1
 Sr  Sr2  1  0.29754  0.60749  0.40492  1
 Sr  Sr3  1  0.70246  0.10749  0.59508  1
 Sr  Sr4  1  0.53392  0.76301  0.93217  1
