CIF file written using JARVIS-Tools package.
data_Mo3WSe6S2
_symmetry_space_group_name_H-M  'P3m1'
_cell_length_a       3.2906
_cell_length_b       3.29061
_cell_length_c       34.9774
_cell_angle_alpha    90.0008
_cell_angle_beta     90
_cell_angle_gamma    120

_symmetry_Int_Tables_number  156
_chemical_formula_structural  Mo3WSe6S2
_chemical_formula_sum  Mo3WSe6S2
_cell_volume  327.99691992568495
_cell_formula_units_Z  1
loop_
  _symmetry_equiv_pos_site_id
 _symmetry_equiv_pos_as_xyz
 1  'x, y, z'
loop_
 _atom_site_type_symbol
 _atom_site_label
 _atom_site_symmetry_multiplicity
 _atom_site_fract_x
 _atom_site_fract_y
 _atom_site_fract_z
 _atom_site_fract_occupancy
 Mo  Mo1  1  0.33329  0.66659  0.09342  1
 Mo  Mo2  1  0.33335  0.66670  0.47185  1
 Mo  Mo3  1  0.66666  0.33332  0.28265  1
 S  S1  1  0.33337  0.66674  0.69907  1
 S  S2  1  0.33336  0.66671  0.61088  1
 Se  Se1  1  0.33333  0.66667  0.33087  1
 Se  Se2  1  0.66662  0.33325  0.04526  1
 Se  Se3  1  0.66668  0.33336  0.42364  1
 Se  Se4  1  0.66663  0.33326  0.14164  1
 Se  Se5  1  0.66668  0.33337  0.52005  1
 Se  Se6  1  0.33332  0.66665  0.23444  1
 W  W1  1  0.66669  0.33339  0.65499  1
