CIF file written using JARVIS-Tools package.
data_Li3Cu
_symmetry_space_group_name_H-M  'I4/mmm'
_cell_length_a       4.56597
_cell_length_b       4.56597
_cell_length_c       4.56597
_cell_angle_alpha    126.521
_cell_angle_beta     126.521
_cell_angle_gamma    79.0335

_symmetry_Int_Tables_number  139
_chemical_formula_structural  Li3Cu
_chemical_formula_sum  Li3Cu
_cell_volume  59.465128905691
_cell_formula_units_Z  1
loop_
  _symmetry_equiv_pos_site_id
 _symmetry_equiv_pos_as_xyz
 1  'x, y, z'
loop_
 _atom_site_type_symbol
 _atom_site_label
 _atom_site_symmetry_multiplicity
 _atom_site_fract_x
 _atom_site_fract_y
 _atom_site_fract_z
 _atom_site_fract_occupancy
 Cu  Cu1  1  0.00000  0.00000  0.00000  1
 Li  Li1  1  0.75000  0.25000  0.50000  1
 Li  Li2  1  0.25000  0.75000  0.50000  1
 Li  Li3  1  0.50000  0.50000  0.00000  1
