CIF file written using JARVIS-Tools package.
data_Ho2S3
_symmetry_space_group_name_H-M  'R-3c'
_cell_length_a       6.84708
_cell_length_b       6.84708
_cell_length_c       7.29426
_cell_angle_alpha    117.992
_cell_angle_beta     62.0081
_cell_angle_gamma    120

_symmetry_Int_Tables_number  167
_chemical_formula_structural  Ho2S3
_chemical_formula_sum  Ho4S6
_cell_volume  248.8927215791685
_cell_formula_units_Z  2
loop_
  _symmetry_equiv_pos_site_id
 _symmetry_equiv_pos_as_xyz
 1  'x, y, z'
loop_
 _atom_site_type_symbol
 _atom_site_label
 _atom_site_symmetry_multiplicity
 _atom_site_fract_x
 _atom_site_fract_y
 _atom_site_fract_z
 _atom_site_fract_occupancy
 Ho  Ho1  1  0.64957  0.35043  0.05128  1
 Ho  Ho2  1  0.85043  0.14957  0.44872  1
 Ho  Ho3  1  0.14957  0.85043  0.55128  1
 Ho  Ho4  1  0.35043  0.64957  0.94872  1
 S  S1  1  0.55214  0.75000  0.25000  1
 S  S2  1  0.94785  0.44786  0.25000  1
 S  S3  1  0.25000  0.05214  0.25000  1
 S  S4  1  0.75000  0.94785  0.75000  1
 S  S5  1  0.05215  0.55215  0.75000  1
 S  S6  1  0.44785  0.25000  0.75000  1
