CIF file written using JARVIS-Tools package.
data_YErZn2
_symmetry_space_group_name_H-M  'Fm-3m'
_cell_length_a       5.00478
_cell_length_b       5.00478
_cell_length_c       5.00478
_cell_angle_alpha    59.9959
_cell_angle_beta     59.9959
_cell_angle_gamma    59.9959

_symmetry_Int_Tables_number  225
_chemical_formula_structural  YErZn2
_chemical_formula_sum  YErZn2
_cell_volume  88.63350935834026
_cell_formula_units_Z  1
loop_
  _symmetry_equiv_pos_site_id
 _symmetry_equiv_pos_as_xyz
 1  'x, y, z'
loop_
 _atom_site_type_symbol
 _atom_site_label
 _atom_site_symmetry_multiplicity
 _atom_site_fract_x
 _atom_site_fract_y
 _atom_site_fract_z
 _atom_site_fract_occupancy
 Er  Er1  1  0.25000  0.25000  0.25000  1
 Y  Y1  1  0.75000  0.75000  0.75000  1
 Zn  Zn1  1  0.99997  0.99997  0.99997  1
 Zn  Zn2  1  0.50003  0.50003  0.50003  1
