CIF file written using JARVIS-Tools package.
data_Nd3I
_symmetry_space_group_name_H-M  'P6_3/mmc'
_cell_length_a       7.02412
_cell_length_b       7.02412
_cell_length_c       5.85209
_cell_angle_alpha    90
_cell_angle_beta     90
_cell_angle_gamma    120

_symmetry_Int_Tables_number  194
_chemical_formula_structural  Nd3I
_chemical_formula_sum  Nd6I2
_cell_volume  250.04926032615506
_cell_formula_units_Z  2
loop_
  _symmetry_equiv_pos_site_id
 _symmetry_equiv_pos_as_xyz
 1  'x, y, z'
loop_
 _atom_site_type_symbol
 _atom_site_label
 _atom_site_symmetry_multiplicity
 _atom_site_fract_x
 _atom_site_fract_y
 _atom_site_fract_z
 _atom_site_fract_occupancy
 I  I1  1  0.66667  0.33333  0.25000  1
 I  I2  1  0.33333  0.66667  0.75000  1
 Nd  Nd1  1  0.83372  0.16628  0.75000  1
 Nd  Nd2  1  0.33256  0.16628  0.75000  1
 Nd  Nd3  1  0.83372  0.66744  0.75000  1
 Nd  Nd4  1  0.16628  0.83372  0.25000  1
 Nd  Nd5  1  0.66744  0.83372  0.25000  1
 Nd  Nd6  1  0.16628  0.33256  0.25000  1
