CIF file written using JARVIS-Tools package.
data_Rb2LiDyBr6
_symmetry_space_group_name_H-M  'Fm-3m'
_cell_length_a       7.69226
_cell_length_b       7.69225
_cell_length_c       7.69238
_cell_angle_alpha    119.999
_cell_angle_beta     119.999
_cell_angle_gamma    90

_symmetry_Int_Tables_number  225
_chemical_formula_structural  Rb2LiDyBr6
_chemical_formula_sum  Rb2LiDyBr6
_cell_volume  321.85429320743054
_cell_formula_units_Z  1
loop_
  _symmetry_equiv_pos_site_id
 _symmetry_equiv_pos_as_xyz
 1  'x, y, z'
loop_
 _atom_site_type_symbol
 _atom_site_label
 _atom_site_symmetry_multiplicity
 _atom_site_fract_x
 _atom_site_fract_y
 _atom_site_fract_z
 _atom_site_fract_occupancy
 Br  Br1  1  0.25411  0.74589  -0.00000  1
 Br  Br2  1  0.25411  0.25411  0.50821  1
 Br  Br3  1  0.74589  0.74589  -0.00000  1
 Br  Br4  1  0.25411  0.25411  0.00000  1
 Br  Br5  1  0.74589  0.74589  0.49179  1
 Br  Br6  1  0.74589  0.25411  0.00000  1
 Dy  Dy1  1  0.00000  0.00000  0.00000  1
 Li  Li1  1  0.50000  0.50000  -0.00000  1
 Rb  Rb1  1  0.75000  0.25000  0.50000  1
 Rb  Rb2  1  0.25000  0.75000  0.50000  1
