CIF file written using JARVIS-Tools package.
data_HNO
_symmetry_space_group_name_H-M  'C2/c'
_cell_length_a       6.21457
_cell_length_b       4.71631
_cell_length_c       4.71631
_cell_angle_alpha    79.0821
_cell_angle_beta     113.493
_cell_angle_gamma    113.493

_symmetry_Int_Tables_number  15
_chemical_formula_structural  HNO
_chemical_formula_sum  H4N4O4
_cell_volume  116.19029773092322
_cell_formula_units_Z  4
loop_
  _symmetry_equiv_pos_site_id
 _symmetry_equiv_pos_as_xyz
 1  'x, y, z'
loop_
 _atom_site_type_symbol
 _atom_site_label
 _atom_site_symmetry_multiplicity
 _atom_site_fract_x
 _atom_site_fract_y
 _atom_site_fract_z
 _atom_site_fract_occupancy
 H  H1  1  -0.03889  0.27340  0.14428  1
 H  H2  1  0.46111  0.14428  0.27340  1
 H  H3  1  0.03889  0.72660  0.85572  1
 H  H4  1  0.53889  0.85572  0.72660  1
 N  N1  1  0.25000  0.60539  0.39461  1
 N  N2  1  0.75000  0.39461  0.60539  1
 N  N3  1  0.25000  0.80529  0.19471  1
 N  N4  1  0.75000  0.19471  0.80529  1
 O  O1  1  0.09113  0.30161  0.37240  1
 O  O2  1  0.59113  0.37240  0.30161  1
 O  O3  1  0.90887  0.69839  0.62760  1
 O  O4  1  0.40887  0.62760  0.69839  1
