CIF file written using JARVIS-Tools package.
data_YbF2
_symmetry_space_group_name_H-M  'P4_2/mnm'
_cell_length_a       5.07026
_cell_length_b       5.07026
_cell_length_c       3.48379
_cell_angle_alpha    90
_cell_angle_beta     90
_cell_angle_gamma    90

_symmetry_Int_Tables_number  136
_chemical_formula_structural  YbF2
_chemical_formula_sum  Yb2F4
_cell_volume  89.55956676458018
_cell_formula_units_Z  2
loop_
  _symmetry_equiv_pos_site_id
 _symmetry_equiv_pos_as_xyz
 1  'x, y, z'
loop_
 _atom_site_type_symbol
 _atom_site_label
 _atom_site_symmetry_multiplicity
 _atom_site_fract_x
 _atom_site_fract_y
 _atom_site_fract_z
 _atom_site_fract_occupancy
 F  F1  1  0.30705  0.30705  0.00000  1
 F  F2  1  0.69295  0.69295  0.00000  1
 F  F3  1  0.19295  0.80705  0.50000  1
 F  F4  1  0.80705  0.19295  0.50000  1
 Yb  Yb1  1  0.00000  0.00000  0.00000  1
 Yb  Yb2  1  0.50000  0.50000  0.50000  1
