CIF file written using JARVIS-Tools package.
data_TeMo2Se2S
_symmetry_space_group_name_H-M  'Cm'
_cell_length_a       3.3496
_cell_length_b       3.34959
_cell_length_c       26.5631
_cell_angle_alpha    89.996
_cell_angle_beta     90.0013
_cell_angle_gamma    120

_symmetry_Int_Tables_number  8
_chemical_formula_structural  TeMo2Se2S
_chemical_formula_sum  Te2Mo4Se4S2
_cell_volume  258.1040961043544
_cell_formula_units_Z  2
loop_
  _symmetry_equiv_pos_site_id
 _symmetry_equiv_pos_as_xyz
 1  'x, y, z'
loop_
 _atom_site_type_symbol
 _atom_site_label
 _atom_site_symmetry_multiplicity
 _atom_site_fract_x
 _atom_site_fract_y
 _atom_site_fract_z
 _atom_site_fract_occupancy
 Mo  Mo1  1  0.33304  0.66607  0.00817  1
 Mo  Mo2  1  0.33330  0.66659  0.49345  1
 Mo  Mo3  1  0.66632  0.33265  0.25519  1
 Mo  Mo4  1  0.66734  0.33468  0.74611  1
 S  S1  1  0.66664  0.33327  0.43634  1
 S  S2  1  0.66663  0.33326  0.55057  1
 Se  Se1  1  0.33297  0.66594  0.31791  1
 Se  Se2  1  0.66641  0.33283  -0.05456  1
 Se  Se3  1  0.66634  0.33268  0.07091  1
 Se  Se4  1  0.33299  0.66600  0.19249  1
 Te  Te1  1  0.33398  0.66795  0.81767  1
 Te  Te2  1  0.33404  0.66808  0.67450  1
