CIF file written using JARVIS-Tools package.
data_VPd2
_symmetry_space_group_name_H-M  'Immm'
_cell_length_a       2.74208
_cell_length_b       3.80173
_cell_length_c       4.76809
_cell_angle_alpha    113.495
_cell_angle_beta     106.711
_cell_angle_gamma    90

_symmetry_Int_Tables_number  71
_chemical_formula_structural  VPd2
_chemical_formula_sum  VPd2
_cell_volume  43.28645263313072
_cell_formula_units_Z  1
loop_
  _symmetry_equiv_pos_site_id
 _symmetry_equiv_pos_as_xyz
 1  'x, y, z'
loop_
 _atom_site_type_symbol
 _atom_site_label
 _atom_site_symmetry_multiplicity
 _atom_site_fract_x
 _atom_site_fract_y
 _atom_site_fract_z
 _atom_site_fract_occupancy
 Pd  Pd1  1  0.66217  0.66217  0.32435  1
 Pd  Pd2  1  0.33783  0.33783  0.67565  1
 V  V1  1  0.00000  0.00000  0.00000  1
