CIF file written using JARVIS-Tools package.
data_LiMg2
_symmetry_space_group_name_H-M  'C2/m'
_cell_length_a       3.43027
_cell_length_b       5.70408
_cell_length_c       7.10253
_cell_angle_alpha    108.144
_cell_angle_beta     89.9986
_cell_angle_gamma    107.504

_symmetry_Int_Tables_number  12
_chemical_formula_structural  LiMg2
_chemical_formula_sum  Li2Mg4
_cell_volume  125.27221022701374
_cell_formula_units_Z  2
loop_
  _symmetry_equiv_pos_site_id
 _symmetry_equiv_pos_as_xyz
 1  'x, y, z'
loop_
 _atom_site_type_symbol
 _atom_site_label
 _atom_site_symmetry_multiplicity
 _atom_site_fract_x
 _atom_site_fract_y
 _atom_site_fract_z
 _atom_site_fract_occupancy
 Li  Li1  1  0.29886  0.59770  0.62013  1
 Li  Li2  1  0.64562  0.29120  0.76876  1
 Mg  Mg1  1  0.98002  0.96003  0.92527  1
 Mg  Mg2  1  0.30464  0.60933  0.09712  1
 Mg  Mg3  1  0.63976  0.27954  0.29175  1
 Mg  Mg4  1  0.96443  0.92886  0.46363  1
