CIF file written using JARVIS-Tools package.
data_ScAlCO
_symmetry_space_group_name_H-M  'R-3m'
_cell_length_a       10.2692
_cell_length_b       10.2692
_cell_length_c       10.2692
_cell_angle_alpha    18.3844
_cell_angle_beta     18.3844
_cell_angle_gamma    18.3844

_symmetry_Int_Tables_number  166
_chemical_formula_structural  ScAlCO
_chemical_formula_sum  Sc2Al2C2O2
_cell_volume  94.09173984752914
_cell_formula_units_Z  2
loop_
  _symmetry_equiv_pos_site_id
 _symmetry_equiv_pos_as_xyz
 1  'x, y, z'
loop_
 _atom_site_type_symbol
 _atom_site_label
 _atom_site_symmetry_multiplicity
 _atom_site_fract_x
 _atom_site_fract_y
 _atom_site_fract_z
 _atom_site_fract_occupancy
 Al  Al1  1  0.73871  0.73871  0.73871  1
 Al  Al2  1  0.26129  0.26129  0.26129  1
 C  C1  1  0.61838  0.61838  0.61838  1
 C  C2  1  0.38162  0.38162  0.38162  1
 O  O1  1  0.20000  0.20000  0.20000  1
 O  O2  1  0.80000  0.80000  0.80000  1
 Sc  Sc1  1  0.00000  0.00000  0.00000  1
 Sc  Sc2  1  0.50000  0.50000  0.50000  1
