CIF file written using JARVIS-Tools package.
data_B
_symmetry_space_group_name_H-M  'Cm'
_cell_length_a       9.91595
_cell_length_b       2.9319
_cell_length_c       5.80223
_cell_angle_alpha    104.628
_cell_angle_beta     139.913
_cell_angle_gamma    63.6784

_symmetry_Int_Tables_number  8
_chemical_formula_structural  B
_chemical_formula_sum  B2
_cell_volume  96.25819135998906
_cell_formula_units_Z  12
loop_
  _symmetry_equiv_pos_site_id
 _symmetry_equiv_pos_as_xyz
 1  'x, y, z'
loop_
 _atom_site_type_symbol
 _atom_site_label
 _atom_site_symmetry_multiplicity
 _atom_site_fract_x
 _atom_site_fract_y
 _atom_site_fract_z
 _atom_site_fract_occupancy
 B  B1  1  0.60337  0.03472  0.21216  1
 B  B2  1  0.01148  0.86005  0.08726  1
 B  B3  1  0.98180  0.30968  0.89749  1
 B  B4  1  0.38711  0.12829  0.75040  1
 B  B5  1  0.18885  0.57698  0.05384  1
 B  B6  1  0.75389  0.40878  0.41189  1
 B  B7  1  0.74135  0.03855  0.63450  1
 B  B8  1  0.47495  0.33697  0.43087  1
 B  B9  1  0.04671  0.09946  0.67160  1
 B  B10  1  0.15726  0.86004  0.52446  1
 B  B11  1  0.45123  0.92510  0.53611  1
 B  B12  1  0.21801  0.39832  0.78328  1
