CIF file written using JARVIS-Tools package.
data_Tm2Al3Si2
_symmetry_space_group_name_H-M  'C2/m'
_cell_length_a       4.02103
_cell_length_b       5.429
_cell_length_c       6.58875
_cell_angle_alpha    99.7278
_cell_angle_beta     90
_cell_angle_gamma    111.736

_symmetry_Int_Tables_number  12
_chemical_formula_structural  Tm2Al3Si2
_chemical_formula_sum  Tm2Al3Si2
_cell_volume  131.3779675776244
_cell_formula_units_Z  1
loop_
  _symmetry_equiv_pos_site_id
 _symmetry_equiv_pos_as_xyz
 1  'x, y, z'
loop_
 _atom_site_type_symbol
 _atom_site_label
 _atom_site_symmetry_multiplicity
 _atom_site_fract_x
 _atom_site_fract_y
 _atom_site_fract_z
 _atom_site_fract_occupancy
 Al  Al1  1  0.69528  0.39056  0.86656  1
 Al  Al2  1  0.00000  0.00000  0.00000  1
 Al  Al3  1  0.30472  0.60944  0.13344  1
 Si  Si1  1  0.90524  0.81049  0.36211  1
 Si  Si2  1  0.09476  0.18951  0.63789  1
 Tm  Tm1  1  0.38100  0.76201  0.67827  1
 Tm  Tm2  1  0.61900  0.23799  0.32173  1
