CIF file written using JARVIS-Tools package.
data_YbAgSn
_symmetry_space_group_name_H-M  'P-6m2'
_cell_length_a       4.78517
_cell_length_b       4.78517
_cell_length_c       10.7477
_cell_angle_alpha    90
_cell_angle_beta     90
_cell_angle_gamma    120

_symmetry_Int_Tables_number  187
_chemical_formula_structural  YbAgSn
_chemical_formula_sum  Yb3Ag3Sn3
_cell_volume  213.12866547673465
_cell_formula_units_Z  3
loop_
  _symmetry_equiv_pos_site_id
 _symmetry_equiv_pos_as_xyz
 1  'x, y, z'
loop_
 _atom_site_type_symbol
 _atom_site_label
 _atom_site_symmetry_multiplicity
 _atom_site_fract_x
 _atom_site_fract_y
 _atom_site_fract_z
 _atom_site_fract_occupancy
 Ag  Ag1  1  0.66667  0.33333  0.19486  1
 Ag  Ag2  1  0.66667  0.33333  0.80514  1
 Ag  Ag3  1  0.33333  0.66667  0.50000  1
 Sn  Sn1  1  0.33333  0.66667  0.14703  1
 Sn  Sn2  1  0.66667  0.33333  0.50000  1
 Sn  Sn3  1  0.33333  0.66667  0.85297  1
 Yb  Yb1  1  0.00000  0.00000  0.00000  1
 Yb  Yb2  1  0.00000  0.00000  0.33231  1
 Yb  Yb3  1  0.00000  0.00000  0.66769  1
