CIF file written using JARVIS-Tools package.
data_LiBr
_symmetry_space_group_name_H-M  'P6_3mc'
_cell_length_a       4.1244
_cell_length_b       4.1244
_cell_length_c       6.65574
_cell_angle_alpha    90
_cell_angle_beta     90
_cell_angle_gamma    120

_symmetry_Int_Tables_number  186
_chemical_formula_structural  LiBr
_chemical_formula_sum  Li2Br2
_cell_volume  98.04978754943335
_cell_formula_units_Z  2
loop_
  _symmetry_equiv_pos_site_id
 _symmetry_equiv_pos_as_xyz
 1  'x, y, z'
loop_
 _atom_site_type_symbol
 _atom_site_label
 _atom_site_symmetry_multiplicity
 _atom_site_fract_x
 _atom_site_fract_y
 _atom_site_fract_z
 _atom_site_fract_occupancy
 Br  Br1  1  0.33333  0.66667  0.99815  1
 Br  Br2  1  0.66667  0.33333  0.49815  1
 Li  Li1  1  0.33333  0.66667  0.37685  1
 Li  Li2  1  0.66667  0.33333  0.87685  1
