CIF file written using JARVIS-Tools package.
data_Ta5Si3
_symmetry_space_group_name_H-M  'I4/mcm'
_cell_length_a       6.57537
_cell_length_b       6.57538
_cell_length_c       7.56748
_cell_angle_alpha    115.75
_cell_angle_beta     115.75
_cell_angle_gamma    90

_symmetry_Int_Tables_number  140
_chemical_formula_structural  Ta5Si3
_chemical_formula_sum  Ta0Si6
_cell_volume  258.14616915759206
_cell_formula_units_Z  2
loop_
  _symmetry_equiv_pos_site_id
 _symmetry_equiv_pos_as_xyz
 1  'x, y, z'
loop_
 _atom_site_type_symbol
 _atom_site_label
 _atom_site_symmetry_multiplicity
 _atom_site_fract_x
 _atom_site_fract_y
 _atom_site_fract_z
 _atom_site_fract_occupancy
 Si  Si1  1  0.63077  0.13077  0.99999  1
 Si  Si2  1  0.86923  0.63077  0.99999  1
 Si  Si3  1  0.13077  0.36923  0.00001  1
 Si  Si4  1  0.36923  0.86923  0.00001  1
 Si  Si5  1  0.75000  0.75000  0.50000  1
 Si  Si6  1  0.25000  0.25000  0.50000  1
 Ta  Ta1  1  0.18488  0.01338  0.69826  1
 Ta  Ta2  1  0.01338  0.51338  0.69826  1
 Ta  Ta3  1  0.68489  0.18488  0.69826  1
 Ta  Ta4  1  0.98662  0.48662  0.30174  1
 Ta  Ta5  1  0.51337  0.68488  0.69826  1
 Ta  Ta6  1  0.81512  0.98662  0.30174  1
 Ta  Ta7  1  0.48663  0.31512  0.30174  1
 Ta  Ta8  1  0.31511  0.81512  0.30174  1
 Ta  Ta9  1  0.50000  0.50000  -0.00000  1
 Ta  Ta10  1  0.00000  0.00000  0.00000  1
