CIF file written using JARVIS-Tools package.
data_Ca2As
_symmetry_space_group_name_H-M  'I4/mmm'
_cell_length_a       4.51532
_cell_length_b       4.51533
_cell_length_c       8.52254
_cell_angle_alpha    105.361
_cell_angle_beta     105.361
_cell_angle_gamma    90

_symmetry_Int_Tables_number  139
_chemical_formula_structural  Ca2As
_chemical_formula_sum  Ca4As2
_cell_volume  161.10473775997636
_cell_formula_units_Z  2
loop_
  _symmetry_equiv_pos_site_id
 _symmetry_equiv_pos_as_xyz
 1  'x, y, z'
loop_
 _atom_site_type_symbol
 _atom_site_label
 _atom_site_symmetry_multiplicity
 _atom_site_fract_x
 _atom_site_fract_y
 _atom_site_fract_z
 _atom_site_fract_occupancy
 As  As1  1  0.13462  0.13462  0.26924  1
 As  As2  1  0.86538  0.86538  0.73076  1
 Ca  Ca1  1  0.50000  -0.00000  0.00000  1
 Ca  Ca2  1  -0.00000  0.50000  -0.00000  1
 Ca  Ca3  1  0.32106  0.32106  0.64211  1
 Ca  Ca4  1  0.67894  0.67894  0.35789  1
