CIF file written using JARVIS-Tools package.
data_YbSiAu
_symmetry_space_group_name_H-M  'Imm2'
_cell_length_a       4.44288
_cell_length_b       5.62846
_cell_length_c       5.62847
_cell_angle_alpha    76.4599
_cell_angle_beta     66.754
_cell_angle_gamma    66.754

_symmetry_Int_Tables_number  44
_chemical_formula_structural  YbSiAu
_chemical_formula_sum  Yb2Si2Au2
_cell_volume  118.31119249962687
_cell_formula_units_Z  2
loop_
  _symmetry_equiv_pos_site_id
 _symmetry_equiv_pos_as_xyz
 1  'x, y, z'
loop_
 _atom_site_type_symbol
 _atom_site_label
 _atom_site_symmetry_multiplicity
 _atom_site_fract_x
 _atom_site_fract_y
 _atom_site_fract_z
 _atom_site_fract_occupancy
 Au  Au1  1  0.99180  0.78110  0.23530  1
 Au  Au2  1  0.99180  0.23530  0.78110  1
 Si  Si1  1  0.66019  0.65758  0.02203  1
 Si  Si2  1  0.66019  0.02203  0.65758  1
 Yb  Yb1  1  0.29326  0.20674  0.20674  1
 Yb  Yb2  1  0.36455  0.63545  0.63545  1
