CIF file written using JARVIS-Tools package.
data_KRb2VF6
_symmetry_space_group_name_H-M  'P-1'
_cell_length_a       7.01883
_cell_length_b       5.7357
_cell_length_c       5.59001
_cell_angle_alpha    81.4135
_cell_angle_beta     107.541
_cell_angle_gamma    126.594

_symmetry_Int_Tables_number  2
_chemical_formula_structural  KRb2VF6
_chemical_formula_sum  KRb2VF6
_cell_volume  172.14474061515455
_cell_formula_units_Z  1
loop_
  _symmetry_equiv_pos_site_id
 _symmetry_equiv_pos_as_xyz
 1  'x, y, z'
loop_
 _atom_site_type_symbol
 _atom_site_label
 _atom_site_symmetry_multiplicity
 _atom_site_fract_x
 _atom_site_fract_y
 _atom_site_fract_z
 _atom_site_fract_occupancy
 F  F1  1  0.72605  0.79127  0.15682  1
 F  F2  1  0.78422  0.05477  0.71215  1
 F  F3  1  0.21578  0.94523  0.28785  1
 F  F4  1  0.12354  0.36191  0.15900  1
 F  F5  1  0.27395  0.20873  0.84318  1
 F  F6  1  0.87646  0.63809  0.84100  1
 K  K1  1  0.50000  0.50000  0.50000  1
 Rb  Rb1  1  0.72648  0.27788  0.22828  1
 Rb  Rb2  1  0.27352  0.72212  0.77172  1
 V  V1  1  0.00000  0.00000  0.00000  1
