CIF file written using JARVIS-Tools package.
data_Sc3Sb
_symmetry_space_group_name_H-M  'I4/mmm'
_cell_length_a       5.74611
_cell_length_b       5.74611
_cell_length_c       5.74611
_cell_angle_alpha    136.078
_cell_angle_beta     136.078
_cell_angle_gamma    63.86

_symmetry_Int_Tables_number  139
_chemical_formula_structural  Sc3Sb
_chemical_formula_sum  Sc3Sb
_cell_volume  90.07852817812649
_cell_formula_units_Z  1
loop_
  _symmetry_equiv_pos_site_id
 _symmetry_equiv_pos_as_xyz
 1  'x, y, z'
loop_
 _atom_site_type_symbol
 _atom_site_label
 _atom_site_symmetry_multiplicity
 _atom_site_fract_x
 _atom_site_fract_y
 _atom_site_fract_z
 _atom_site_fract_occupancy
 Sb  Sb1  1  0.00000  0.00000  0.00000  1
 Sc  Sc1  1  0.75000  0.25000  0.50000  1
 Sc  Sc2  1  0.25000  0.75000  0.50000  1
 Sc  Sc3  1  0.50000  0.50000  0.00000  1
