CIF file written using JARVIS-Tools package.
data_Ba
_symmetry_space_group_name_H-M  'Pm-3m'
_cell_length_a       3.84699
_cell_length_b       5.44087
_cell_length_c       5.44046
_cell_angle_alpha    90
_cell_angle_beta     89.9922
_cell_angle_gamma    89.982

_symmetry_Int_Tables_number  221
_chemical_formula_structural  Ba
_chemical_formula_sum  Ba2
_cell_volume  113.87407118082007
_cell_formula_units_Z  2
loop_
  _symmetry_equiv_pos_site_id
 _symmetry_equiv_pos_as_xyz
 1  'x, y, z'
loop_
 _atom_site_type_symbol
 _atom_site_label
 _atom_site_symmetry_multiplicity
 _atom_site_fract_x
 _atom_site_fract_y
 _atom_site_fract_z
 _atom_site_fract_occupancy
 Ba  Ba1  1  1.00000  0.00000  1.00000  1
 Ba  Ba2  1  0.00000  0.50000  0.50000  1
