CIF file written using JARVIS-Tools package.
data_ScGa2
_symmetry_space_group_name_H-M  'Cmmm'
_cell_length_a       4.09447
_cell_length_b       4.14187
_cell_length_c       6.67078
_cell_angle_alpha    90
_cell_angle_beta     107.872
_cell_angle_gamma    90

_symmetry_Int_Tables_number  65
_chemical_formula_structural  ScGa2
_chemical_formula_sum  Sc2Ga4
_cell_volume  107.66882092396999
_cell_formula_units_Z  2
loop_
  _symmetry_equiv_pos_site_id
 _symmetry_equiv_pos_as_xyz
 1  'x, y, z'
loop_
 _atom_site_type_symbol
 _atom_site_label
 _atom_site_symmetry_multiplicity
 _atom_site_fract_x
 _atom_site_fract_y
 _atom_site_fract_z
 _atom_site_fract_occupancy
 Ga  Ga1  1  0.82190  0.50000  0.64380  1
 Ga  Ga2  1  0.17810  0.50000  0.35620  1
 Ga  Ga3  1  0.50000  0.50000  -0.00000  1
 Ga  Ga4  1  0.00000  0.00000  0.00000  1
 Sc  Sc1  1  0.34740  0.00000  0.69480  1
 Sc  Sc2  1  0.65260  0.00000  0.30520  1
