CIF file written using JARVIS-Tools package.
data_ZrPbF6
_symmetry_space_group_name_H-M  'Cmme'
_cell_length_a       5.34832
_cell_length_b       6.79826
_cell_length_c       6.79827
_cell_angle_alpha    111.832
_cell_angle_beta     90
_cell_angle_gamma    90

_symmetry_Int_Tables_number  67
_chemical_formula_structural  ZrPbF6
_chemical_formula_sum  Zr2Pb2F2
_cell_volume  229.45175896682514
_cell_formula_units_Z  2
loop_
  _symmetry_equiv_pos_site_id
 _symmetry_equiv_pos_as_xyz
 1  'x, y, z'
loop_
 _atom_site_type_symbol
 _atom_site_label
 _atom_site_symmetry_multiplicity
 _atom_site_fract_x
 _atom_site_fract_y
 _atom_site_fract_z
 _atom_site_fract_occupancy
 F  F1  1  0.74309  0.44085  0.18423  1
 F  F2  1  0.74309  0.05915  0.31577  1
 F  F3  1  0.25691  0.18423  0.44085  1
 F  F4  1  0.25691  0.31577  0.05915  1
 F  F5  1  0.83807  0.42947  0.57053  1
 F  F6  1  0.83807  0.07053  0.92947  1
 F  F7  1  0.16193  0.57053  0.42947  1
 F  F8  1  0.16193  0.92947  0.07053  1
 F  F9  1  0.74309  0.68423  0.94085  1
 F  F10  1  0.74309  0.81577  0.55915  1
 F  F11  1  0.25691  0.94085  0.68423  1
 F  F12  1  0.25691  0.55915  0.81577  1
 Pb  Pb1  1  0.46316  0.75000  0.25000  1
 Pb  Pb2  1  0.53684  0.25000  0.75000  1
 Zr  Zr1  1  0.00000  0.75000  0.75000  1
 Zr  Zr2  1  0.00000  0.25000  0.25000  1
