CIF file written using JARVIS-Tools package.
data_Li
_symmetry_space_group_name_H-M  'R-3m'
_cell_length_a       3.03378
_cell_length_b       3.03378
_cell_length_c       7.64057
_cell_angle_alpha    78.5489
_cell_angle_beta     78.5489
_cell_angle_gamma    60

_symmetry_Int_Tables_number  166
_chemical_formula_structural  Li
_chemical_formula_sum  Li3
_cell_volume  59.279192408315176
_cell_formula_units_Z  3
loop_
  _symmetry_equiv_pos_site_id
 _symmetry_equiv_pos_as_xyz
 1  'x, y, z'
loop_
 _atom_site_type_symbol
 _atom_site_label
 _atom_site_symmetry_multiplicity
 _atom_site_fract_x
 _atom_site_fract_y
 _atom_site_fract_z
 _atom_site_fract_occupancy
 Li  Li1  1  0.77778  0.77778  0.66666  1
 Li  Li2  1  0.22222  0.22222  0.33334  1
 Li  Li3  1  0.00000  0.00000  0.00000  1
