CIF file written using JARVIS-Tools package.
data_Co2Si
_symmetry_space_group_name_H-M  'Pnma'
_cell_length_a       3.71369
_cell_length_b       4.9044
_cell_length_c       7.05944
_cell_angle_alpha    90
_cell_angle_beta     90
_cell_angle_gamma    90

_symmetry_Int_Tables_number  62
_chemical_formula_structural  Co2Si
_chemical_formula_sum  Co8Si4
_cell_volume  128.57649916101477
_cell_formula_units_Z  4
loop_
  _symmetry_equiv_pos_site_id
 _symmetry_equiv_pos_as_xyz
 1  'x, y, z'
loop_
 _atom_site_type_symbol
 _atom_site_label
 _atom_site_symmetry_multiplicity
 _atom_site_fract_x
 _atom_site_fract_y
 _atom_site_fract_z
 _atom_site_fract_occupancy
 Co  Co1  1  0.75000  0.82757  0.43475  1
 Co  Co2  1  0.25000  0.17243  0.56525  1
 Co  Co3  1  0.75000  0.32757  0.06525  1
 Co  Co4  1  0.25000  0.67243  0.93475  1
 Co  Co5  1  0.25000  0.53654  0.28349  1
 Co  Co6  1  0.75000  0.46346  0.71651  1
 Co  Co7  1  0.25000  0.03654  0.21651  1
 Co  Co8  1  0.75000  0.96346  0.78349  1
 Si  Si1  1  0.25000  0.20440  0.89423  1
 Si  Si2  1  0.75000  0.79560  0.10577  1
 Si  Si3  1  0.25000  0.70440  0.60577  1
 Si  Si4  1  0.75000  0.29560  0.39423  1
