CIF file written using JARVIS-Tools package.
data_RbCu2Br3
_symmetry_space_group_name_H-M  'Cmcm'
_cell_length_a       5.27535
_cell_length_b       8.07127
_cell_length_c       8.07127
_cell_angle_alpha    102.659
_cell_angle_beta     90
_cell_angle_gamma    90

_symmetry_Int_Tables_number  63
_chemical_formula_structural  RbCu2Br3
_chemical_formula_sum  Rb2Cu4Br6
_cell_volume  335.31038532024
_cell_formula_units_Z  2
loop_
  _symmetry_equiv_pos_site_id
 _symmetry_equiv_pos_as_xyz
 1  'x, y, z'
loop_
 _atom_site_type_symbol
 _atom_site_label
 _atom_site_symmetry_multiplicity
 _atom_site_fract_x
 _atom_site_fract_y
 _atom_site_fract_z
 _atom_site_fract_occupancy
 Br  Br1  1  0.75000  0.57334  0.83956  1
 Br  Br2  1  0.75000  0.10939  0.89061  1
 Br  Br3  1  0.25000  0.42666  0.16044  1
 Br  Br4  1  0.75000  0.16044  0.42666  1
 Br  Br5  1  0.25000  0.89061  0.10939  1
 Br  Br6  1  0.25000  0.83956  0.57334  1
 Cu  Cu1  1  0.00000  0.82213  0.82213  1
 Cu  Cu2  1  0.50000  0.82213  0.82213  1
 Cu  Cu3  1  0.50000  0.17787  0.17787  1
 Cu  Cu4  1  0.00000  0.17787  0.17787  1
 Rb  Rb1  1  0.75000  0.70156  0.29844  1
 Rb  Rb2  1  0.25000  0.29844  0.70156  1
