CIF file written using JARVIS-Tools package.
data_SrSb2
_symmetry_space_group_name_H-M  'P2_1/m'
_cell_length_a       4.88354
_cell_length_b       4.39271
_cell_length_c       9.18892
_cell_angle_alpha    90
_cell_angle_beta     102.899
_cell_angle_gamma    90

_symmetry_Int_Tables_number  11
_chemical_formula_structural  SrSb2
_chemical_formula_sum  Sr2Sb4
_cell_volume  192.14611466308853
_cell_formula_units_Z  2
loop_
  _symmetry_equiv_pos_site_id
 _symmetry_equiv_pos_as_xyz
 1  'x, y, z'
loop_
 _atom_site_type_symbol
 _atom_site_label
 _atom_site_symmetry_multiplicity
 _atom_site_fract_x
 _atom_site_fract_y
 _atom_site_fract_z
 _atom_site_fract_occupancy
 Sb  Sb1  1  0.80597  0.75000  0.01835  1
 Sb  Sb2  1  0.19403  0.25000  0.98165  1
 Sb  Sb3  1  0.04700  0.75000  0.61363  1
 Sb  Sb4  1  0.95300  0.25000  0.38637  1
 Sr  Sr1  1  0.41287  0.75000  0.28936  1
 Sr  Sr2  1  0.58713  0.25000  0.71064  1
