CIF file written using JARVIS-Tools package.
data_Nd
_symmetry_space_group_name_H-M  'R-3m'
_cell_length_a       3.67809
_cell_length_b       3.67809
_cell_length_c       9.10466
_cell_angle_alpha    78.3467
_cell_angle_beta     101.653
_cell_angle_gamma    120

_symmetry_Int_Tables_number  166
_chemical_formula_structural  Nd
_chemical_formula_sum  Nd3
_cell_volume  103.72720821681322
_cell_formula_units_Z  3
loop_
  _symmetry_equiv_pos_site_id
 _symmetry_equiv_pos_as_xyz
 1  'x, y, z'
loop_
 _atom_site_type_symbol
 _atom_site_label
 _atom_site_symmetry_multiplicity
 _atom_site_fract_x
 _atom_site_fract_y
 _atom_site_fract_z
 _atom_site_fract_occupancy
 Nd  Nd1  1  0.00000  0.00000  0.00000  1
 Nd  Nd2  1  0.77731  0.22269  0.33193  1
 Nd  Nd3  1  0.22269  0.77731  0.66807  1
