CIF file written using JARVIS-Tools package.
data_Hf3Ge2
_symmetry_space_group_name_H-M  'P4/mbm'
_cell_length_a       7.14481
_cell_length_b       7.14481
_cell_length_c       3.69322
_cell_angle_alpha    90
_cell_angle_beta     90
_cell_angle_gamma    90

_symmetry_Int_Tables_number  127
_chemical_formula_structural  Hf3Ge2
_chemical_formula_sum  Hf6Ge4
_cell_volume  188.53242632178728
_cell_formula_units_Z  2
loop_
  _symmetry_equiv_pos_site_id
 _symmetry_equiv_pos_as_xyz
 1  'x, y, z'
loop_
 _atom_site_type_symbol
 _atom_site_label
 _atom_site_symmetry_multiplicity
 _atom_site_fract_x
 _atom_site_fract_y
 _atom_site_fract_z
 _atom_site_fract_occupancy
 Ge  Ge1  1  0.13199  0.63199  0.00000  1
 Ge  Ge2  1  0.86801  0.36801  0.00000  1
 Ge  Ge3  1  0.36801  0.13199  0.00000  1
 Ge  Ge4  1  0.63199  0.86801  0.00000  1
 Hf  Hf1  1  0.00000  0.00000  0.00000  1
 Hf  Hf2  1  0.50000  0.50000  0.00000  1
 Hf  Hf3  1  0.66960  0.16960  0.50000  1
 Hf  Hf4  1  0.33040  0.83040  0.50000  1
 Hf  Hf5  1  0.83040  0.66960  0.50000  1
 Hf  Hf6  1  0.16960  0.33040  0.50000  1
