CIF file written using JARVIS-Tools package.
data_ScGa2
_symmetry_space_group_name_H-M  'Imma'
_cell_length_a       4.0824
_cell_length_b       5.56729
_cell_length_c       5.56729
_cell_angle_alpha    72.5358
_cell_angle_beta     68.4914
_cell_angle_gamma    68.4914

_symmetry_Int_Tables_number  74
_chemical_formula_structural  ScGa2
_chemical_formula_sum  Sc2Ga4
_cell_volume  107.49809626601237
_cell_formula_units_Z  2
loop_
  _symmetry_equiv_pos_site_id
 _symmetry_equiv_pos_as_xyz
 1  'x, y, z'
loop_
 _atom_site_type_symbol
 _atom_site_label
 _atom_site_symmetry_multiplicity
 _atom_site_fract_x
 _atom_site_fract_y
 _atom_site_fract_z
 _atom_site_fract_occupancy
 Ga  Ga1  1  0.15721  0.29617  0.38941  1
 Ga  Ga2  1  0.84279  0.70383  0.61059  1
 Ga  Ga3  1  0.15721  0.88941  0.79617  1
 Ga  Ga4  1  0.84279  0.11059  0.20383  1
 Sc  Sc1  1  0.56329  0.68671  0.18671  1
 Sc  Sc2  1  0.43671  0.31329  0.81329  1
