CIF file written using JARVIS-Tools package.
data_VSi2
_symmetry_space_group_name_H-M  'P6_222'
_cell_length_a       4.59942
_cell_length_b       4.59942
_cell_length_c       6.4005
_cell_angle_alpha    90
_cell_angle_beta     90
_cell_angle_gamma    120

_symmetry_Int_Tables_number  180
_chemical_formula_structural  VSi2
_chemical_formula_sum  V3Si6
_cell_volume  117.2598416996483
_cell_formula_units_Z  3
loop_
  _symmetry_equiv_pos_site_id
 _symmetry_equiv_pos_as_xyz
 1  'x, y, z'
loop_
 _atom_site_type_symbol
 _atom_site_label
 _atom_site_symmetry_multiplicity
 _atom_site_fract_x
 _atom_site_fract_y
 _atom_site_fract_z
 _atom_site_fract_occupancy
 Si  Si1  1  0.32644  0.16322  0.66667  1
 Si  Si2  1  0.16322  0.32644  0.00000  1
 Si  Si3  1  0.16322  0.83678  0.33333  1
 Si  Si4  1  0.67356  0.83678  0.66667  1
 Si  Si5  1  0.83678  0.67356  0.00000  1
 Si  Si6  1  0.83678  0.16322  0.33333  1
 V  V1  1  0.50000  0.50000  0.33333  1
 V  V2  1  0.50000  -0.00000  0.00000  1
 V  V3  1  -0.00000  0.50000  0.66667  1
