CIF file written using JARVIS-Tools package.
data_Tm
_symmetry_space_group_name_H-M  'R-3m'
_cell_length_a       3.4819
_cell_length_b       3.4819
_cell_length_c       8.54883
_cell_angle_alpha    78.2497
_cell_angle_beta     78.2496
_cell_angle_gamma    60

_symmetry_Int_Tables_number  166
_chemical_formula_structural  Tm
_chemical_formula_sum  Tm3
_cell_volume  87.2405286434892
_cell_formula_units_Z  3
loop_
  _symmetry_equiv_pos_site_id
 _symmetry_equiv_pos_as_xyz
 1  'x, y, z'
loop_
 _atom_site_type_symbol
 _atom_site_label
 _atom_site_symmetry_multiplicity
 _atom_site_fract_x
 _atom_site_fract_y
 _atom_site_fract_z
 _atom_site_fract_occupancy
 Tm  Tm1  1  0.00000  0.00000  0.00000  1
 Tm  Tm2  1  0.77808  0.77808  0.66576  1
 Tm  Tm3  1  0.22192  0.22192  0.33424  1
