CIF file written using JARVIS-Tools package.
data_Mn2FeC6N6
_symmetry_space_group_name_H-M  'P-31m'
_cell_length_a       5.96306
_cell_length_b       5.96306
_cell_length_c       6.47548
_cell_angle_alpha    90
_cell_angle_beta     90
_cell_angle_gamma    120

_symmetry_Int_Tables_number  162
_chemical_formula_structural  Mn2FeC6N6
_chemical_formula_sum  Mn2FeC6N6
_cell_volume  199.4070290251661
_cell_formula_units_Z  1
loop_
  _symmetry_equiv_pos_site_id
 _symmetry_equiv_pos_as_xyz
 1  'x, y, z'
loop_
 _atom_site_type_symbol
 _atom_site_label
 _atom_site_symmetry_multiplicity
 _atom_site_fract_x
 _atom_site_fract_y
 _atom_site_fract_z
 _atom_site_fract_occupancy
 C  C1  1  0.24598  -0.00000  0.82189  1
 C  C2  1  0.24598  0.24598  0.17811  1
 C  C3  1  0.75402  1.00000  0.17811  1
 C  C4  1  1.00000  0.24598  0.82189  1
 C  C5  1  -0.00000  0.75402  0.17811  1
 C  C6  1  0.75402  0.75402  0.82189  1
 Fe  Fe1  1  0.00000  0.00000  0.00000  1
 Mn  Mn1  1  0.66667  0.33333  0.50000  1
 Mn  Mn2  1  0.33333  0.66667  0.50000  1
 N  N1  1  0.61561  0.61561  0.69075  1
 N  N2  1  0.61561  0.00000  0.30925  1
 N  N3  1  1.00000  0.61561  0.30925  1
 N  N4  1  0.38439  1.00000  0.69075  1
 N  N5  1  0.38439  0.38439  0.30925  1
 N  N6  1  0.00000  0.38439  0.69075  1
