CIF file written using JARVIS-Tools package.
data_CrP4
_symmetry_space_group_name_H-M  'C2/c'
_cell_length_a       5.22921
_cell_length_b       5.77233
_cell_length_c       5.998
_cell_angle_alpha    81.1939
_cell_angle_beta     64.1567
_cell_angle_gamma    69.4396

_symmetry_Int_Tables_number  15
_chemical_formula_structural  CrP4
_chemical_formula_sum  Cr2P8
_cell_volume  152.56206321704838
_cell_formula_units_Z  2
loop_
  _symmetry_equiv_pos_site_id
 _symmetry_equiv_pos_as_xyz
 1  'x, y, z'
loop_
 _atom_site_type_symbol
 _atom_site_label
 _atom_site_symmetry_multiplicity
 _atom_site_fract_x
 _atom_site_fract_y
 _atom_site_fract_z
 _atom_site_fract_occupancy
 Cr  Cr1  1  0.06112  0.25000  0.87776  1
 Cr  Cr2  1  0.93888  0.75000  0.12224  1
 P  P1  1  0.49271  0.30940  0.56123  1
 P  P2  1  0.94607  0.19060  0.56123  1
 P  P3  1  0.18384  0.32391  0.17612  1
 P  P4  1  0.64004  0.17609  0.17612  1
 P  P5  1  0.81616  0.67609  0.82388  1
 P  P6  1  0.35996  0.82391  0.82388  1
 P  P7  1  0.05393  0.80940  0.43877  1
 P  P8  1  0.50729  0.69060  0.43877  1
