CIF file written using JARVIS-Tools package.
data_Si2O5
_symmetry_space_group_name_H-M  'Ima2'
_cell_length_a       7.4592
_cell_length_b       7.4592
_cell_length_c       7.4592
_cell_angle_alpha    132.428
_cell_angle_beta     63.4466
_cell_angle_gamma    140.567

_symmetry_Int_Tables_number  46
_chemical_formula_structural  Si2O5
_chemical_formula_sum  Si4O0
_cell_volume  192.1389080241994
_cell_formula_units_Z  2
loop_
  _symmetry_equiv_pos_site_id
 _symmetry_equiv_pos_as_xyz
 1  'x, y, z'
loop_
 _atom_site_type_symbol
 _atom_site_label
 _atom_site_symmetry_multiplicity
 _atom_site_fract_x
 _atom_site_fract_y
 _atom_site_fract_z
 _atom_site_fract_occupancy
 O  O1  1  0.49756  0.99756  0.50000  1
 O  O2  1  0.99756  0.99756  0.00000  1
 O  O3  1  0.27859  0.82867  0.81707  1
 O  O4  1  0.01161  0.46152  0.18293  1
 O  O5  1  0.51161  0.82867  0.05009  1
 O  O6  1  0.77859  0.46152  0.94991  1
 O  O7  1  0.72281  0.91863  0.58079  1
 O  O8  1  0.33783  0.14201  0.41921  1
 O  O9  1  0.83783  0.91863  0.69582  1
 O  O10  1  0.22281  0.14201  0.30418  1
 Si  Si1  1  0.56661  0.05292  0.71902  1
 Si  Si2  1  0.33390  0.84759  0.28098  1
 Si  Si3  1  0.83390  0.05292  0.98631  1
 Si  Si4  1  0.06661  0.84759  0.01369  1
