CIF file written using JARVIS-Tools package.
data_YbFeB4
_symmetry_space_group_name_H-M  'Pbam'
_cell_length_a       3.33873
_cell_length_b       5.8743
_cell_length_c       11.3706
_cell_angle_alpha    90
_cell_angle_beta     90
_cell_angle_gamma    90

_symmetry_Int_Tables_number  55
_chemical_formula_structural  YbFeB4
_chemical_formula_sum  Yb4Fe4B6
_cell_volume  223.0088063499931
_cell_formula_units_Z  4
loop_
  _symmetry_equiv_pos_site_id
 _symmetry_equiv_pos_as_xyz
 1  'x, y, z'
loop_
 _atom_site_type_symbol
 _atom_site_label
 _atom_site_symmetry_multiplicity
 _atom_site_fract_x
 _atom_site_fract_y
 _atom_site_fract_z
 _atom_site_fract_occupancy
 B  B1  1  0.50000  0.77930  0.18257  1
 B  B2  1  0.50000  0.36131  0.46791  1
 B  B3  1  0.50000  0.63869  0.53209  1
 B  B4  1  0.50000  0.86131  0.03209  1
 B  B5  1  0.50000  0.88785  0.45351  1
 B  B6  1  0.50000  0.47509  0.19040  1
 B  B7  1  0.50000  0.52491  0.80960  1
 B  B8  1  0.50000  0.13869  0.96791  1
 B  B9  1  0.50000  0.02491  0.69040  1
 B  B10  1  0.50000  0.27930  0.31743  1
 B  B11  1  0.50000  0.72070  0.68257  1
 B  B12  1  0.50000  0.11215  0.54649  1
 B  B13  1  0.50000  0.22070  0.81743  1
 B  B14  1  0.50000  0.38785  0.04649  1
 B  B15  1  0.50000  0.61215  0.95351  1
 B  B16  1  0.50000  0.97509  0.30960  1
 Fe  Fe1  1  0.00000  0.37314  0.91711  1
 Fe  Fe2  1  0.00000  0.62686  0.08289  1
 Fe  Fe3  1  0.00000  0.87314  0.58289  1
 Fe  Fe4  1  0.00000  0.12686  0.41711  1
 Yb  Yb1  1  0.00000  0.37397  0.65104  1
 Yb  Yb2  1  0.00000  0.62603  0.34896  1
 Yb  Yb3  1  0.00000  0.87397  0.84896  1
 Yb  Yb4  1  0.00000  0.12603  0.15104  1
