CIF file written using JARVIS-Tools package.
data_Na
_symmetry_space_group_name_H-M  'I4/mmm'
_cell_length_a       3.70983
_cell_length_b       3.70983
_cell_length_c       3.72953
_cell_angle_alpha    119.826
_cell_angle_beta     119.826
_cell_angle_gamma    90

_symmetry_Int_Tables_number  139
_chemical_formula_structural  Na
_chemical_formula_sum  Na
_cell_volume  36.48576352026575
_cell_formula_units_Z  1
loop_
  _symmetry_equiv_pos_site_id
 _symmetry_equiv_pos_as_xyz
 1  'x, y, z'
loop_
 _atom_site_type_symbol
 _atom_site_label
 _atom_site_symmetry_multiplicity
 _atom_site_fract_x
 _atom_site_fract_y
 _atom_site_fract_z
 _atom_site_fract_occupancy
 Na  Na1  1  0.00000  0.00000  0.00000  1
