CIF file written using JARVIS-Tools package.
data_DyNi4P2
_symmetry_space_group_name_H-M  'P4_2/mnm'
_cell_length_a       7.12135
_cell_length_b       7.12135
_cell_length_c       3.61634
_cell_angle_alpha    90
_cell_angle_beta     90
_cell_angle_gamma    90

_symmetry_Int_Tables_number  136
_chemical_formula_structural  DyNi4P2
_chemical_formula_sum  Dy2Ni8P4
_cell_volume  183.39784620749725
_cell_formula_units_Z  2
loop_
  _symmetry_equiv_pos_site_id
 _symmetry_equiv_pos_as_xyz
 1  'x, y, z'
loop_
 _atom_site_type_symbol
 _atom_site_label
 _atom_site_symmetry_multiplicity
 _atom_site_fract_x
 _atom_site_fract_y
 _atom_site_fract_z
 _atom_site_fract_occupancy
 Dy  Dy1  1  0.50000  0.50000  0.00000  1
 Dy  Dy2  1  0.00000  0.00000  0.50000  1
 Ni  Ni1  1  0.08413  0.33640  0.00000  1
 Ni  Ni2  1  0.33640  0.08413  0.00000  1
 Ni  Ni3  1  0.66360  0.91587  0.00000  1
 Ni  Ni4  1  0.91587  0.66360  0.00000  1
 Ni  Ni5  1  0.16360  0.58413  0.50000  1
 Ni  Ni6  1  0.41587  0.83640  0.50000  1
 Ni  Ni7  1  0.58413  0.16360  0.50000  1
 Ni  Ni8  1  0.83640  0.41587  0.50000  1
 P  P1  1  0.22027  0.77973  0.00000  1
 P  P2  1  0.77973  0.22027  0.00000  1
 P  P3  1  0.27973  0.27973  0.50000  1
 P  P4  1  0.72027  0.72027  0.50000  1
