CIF file written using JARVIS-Tools package.
data_LuH3O3
_symmetry_space_group_name_H-M  'R-3'
_cell_length_a       7.03444
_cell_length_b       7.03444
_cell_length_c       7.08686
_cell_angle_alpha    109.622
_cell_angle_beta     109.622
_cell_angle_gamma    109.32

_symmetry_Int_Tables_number  148
_chemical_formula_structural  LuH3O3
_chemical_formula_sum  Lu4H2O2
_cell_volume  269.4497440180928
_cell_formula_units_Z  4
loop_
  _symmetry_equiv_pos_site_id
 _symmetry_equiv_pos_as_xyz
 1  'x, y, z'
loop_
 _atom_site_type_symbol
 _atom_site_label
 _atom_site_symmetry_multiplicity
 _atom_site_fract_x
 _atom_site_fract_y
 _atom_site_fract_z
 _atom_site_fract_occupancy
 H  H1  1  0.54868  0.71799  0.17215  1
 H  H2  1  0.03919  0.68383  0.72542  1
 H  H3  1  0.45132  0.28201  0.82785  1
 H  H4  1  0.31617  0.35536  0.04159  1
 H  H5  1  0.64464  0.96081  0.68623  1
 H  H6  1  0.35536  0.03919  0.31377  1
 H  H7  1  0.28201  0.83069  0.45416  1
 H  H8  1  0.83069  0.54868  0.37653  1
 H  H9  1  0.16931  0.45132  0.62347  1
 H  H10  1  0.71799  0.16931  0.54584  1
 H  H11  1  0.96081  0.31617  0.27458  1
 H  H12  1  0.68383  0.64464  0.95841  1
 Lu  Lu1  1  0.50000  0.00000  -0.00000  1
 Lu  Lu2  1  0.00000  0.50000  -0.00000  1
 Lu  Lu3  1  -0.00000  -0.00000  0.50000  1
 Lu  Lu4  1  0.50000  0.50000  0.50000  1
 O  O1  1  0.83523  0.31547  0.15276  1
 O  O2  1  0.83967  0.16909  0.66969  1
 O  O3  1  0.16033  0.83091  0.33031  1
 O  O4  1  0.83091  0.67058  0.50060  1
 O  O5  1  0.16909  0.32942  0.49940  1
 O  O6  1  0.16477  0.68453  0.84724  1
 O  O7  1  0.31547  0.48024  0.16271  1
 O  O8  1  0.68453  0.51976  0.83729  1
 O  O9  1  0.67058  0.83967  0.16998  1
 O  O10  1  0.32942  0.16033  0.83002  1
 O  O11  1  0.48024  0.16477  0.31753  1
 O  O12  1  0.51976  0.83523  0.68247  1
