CIF file written using JARVIS-Tools package.
data_Ta9Fe2S6
_symmetry_space_group_name_H-M  'P-62m'
_cell_length_a       10.3542
_cell_length_b       10.3542
_cell_length_c       3.31466
_cell_angle_alpha    90
_cell_angle_beta     90
_cell_angle_gamma    120

_symmetry_Int_Tables_number  189
_chemical_formula_structural  Ta9Fe2S6
_chemical_formula_sum  Ta9Fe2S6
_cell_volume  307.7498273709761
_cell_formula_units_Z  1
loop_
  _symmetry_equiv_pos_site_id
 _symmetry_equiv_pos_as_xyz
 1  'x, y, z'
loop_
 _atom_site_type_symbol
 _atom_site_label
 _atom_site_symmetry_multiplicity
 _atom_site_fract_x
 _atom_site_fract_y
 _atom_site_fract_z
 _atom_site_fract_occupancy
 Fe  Fe1  1  0.33333  0.66667  0.00000  1
 Fe  Fe2  1  0.66667  0.33333  0.00000  1
 S  S1  1  -0.00000  0.29508  0.00000  1
 S  S2  1  -0.00000  0.72624  0.50000  1
 S  S3  1  0.27376  0.27376  0.50000  1
 S  S4  1  0.70492  0.70492  0.00000  1
 S  S5  1  0.29508  -0.00000  0.00000  1
 S  S6  1  0.72624  -0.00000  0.50000  1
 Ta  Ta1  1  0.20183  0.46479  0.50000  1
 Ta  Ta2  1  0.26296  0.79817  0.50000  1
 Ta  Ta3  1  0.46479  0.20183  0.50000  1
 Ta  Ta4  1  0.54219  -0.00000  0.00000  1
 Ta  Ta5  1  0.79817  0.26296  0.50000  1
 Ta  Ta6  1  0.45781  0.45781  0.00000  1
 Ta  Ta7  1  0.53521  0.73704  0.50000  1
 Ta  Ta8  1  -0.00000  0.54219  0.00000  1
 Ta  Ta9  1  0.73704  0.53521  0.50000  1
