CIF file written using JARVIS-Tools package.
data_NbTlBr4O
_symmetry_space_group_name_H-M  'C2'
_cell_length_a       4.01491
_cell_length_b       6.85395
_cell_length_c       7.71303
_cell_angle_alpha    106.874
_cell_angle_beta     90
_cell_angle_gamma    107.031

_symmetry_Int_Tables_number  5
_chemical_formula_structural  NbTlBr4O
_chemical_formula_sum  NbTlBr4O
_cell_volume  193.36189943040117
_cell_formula_units_Z  1
loop_
  _symmetry_equiv_pos_site_id
 _symmetry_equiv_pos_as_xyz
 1  'x, y, z'
loop_
 _atom_site_type_symbol
 _atom_site_label
 _atom_site_symmetry_multiplicity
 _atom_site_fract_x
 _atom_site_fract_y
 _atom_site_fract_z
 _atom_site_fract_occupancy
 Br  Br1  1  0.63573  0.29464  0.80890  1
 Br  Br2  1  0.34515  0.71394  0.66389  1
 Br  Br3  1  0.34108  0.70536  0.19110  1
 Br  Br4  1  0.63120  0.28606  0.33611  1
 Nb  Nb1  1  0.54827  0.00000  0.50000  1
 O  O1  1  0.00042  0.00000  0.50000  1
 Tl  Tl1  1  -0.00255  0.00000  0.00000  1
