CIF file written using JARVIS-Tools package.
data_Ba2I2O
_symmetry_space_group_name_H-M  'Ibam'
_cell_length_a       6.8737
_cell_length_b       7.54043
_cell_length_c       8.66182
_cell_angle_alpha    115.799
_cell_angle_beta     113.374
_cell_angle_gamma    90.0008

_symmetry_Int_Tables_number  72
_chemical_formula_structural  Ba2I2O
_chemical_formula_sum  Ba4I4O2
_cell_volume  362.8387158168409
_cell_formula_units_Z  2
loop_
  _symmetry_equiv_pos_site_id
 _symmetry_equiv_pos_as_xyz
 1  'x, y, z'
loop_
 _atom_site_type_symbol
 _atom_site_label
 _atom_site_symmetry_multiplicity
 _atom_site_fract_x
 _atom_site_fract_y
 _atom_site_fract_z
 _atom_site_fract_occupancy
 Ba  Ba1  1  0.59476  0.41848  0.18956  1
 Ba  Ba2  1  0.40524  0.58152  0.81044  1
 Ba  Ba3  1  0.90524  0.22893  0.81044  1
 Ba  Ba4  1  0.09476  0.77107  0.18956  1
 I  I1  1  0.64953  0.99238  0.29910  1
 I  I2  1  0.14953  0.30671  0.29910  1
 I  I3  1  0.85047  0.69329  0.70090  1
 I  I4  1  0.35047  0.00762  0.70090  1
 O  O1  1  0.75000  0.50000  0.00000  1
 O  O2  1  0.25000  0.50000  -0.00000  1
