data_image0
_chemical_formula_structural       H4Li4Rh
_chemical_formula_sum              "H4 Li4 Rh1"
_cell_length_a       3.97638
_cell_length_b       4.77277
_cell_length_c       4.77277
_cell_angle_alpha    99.9931
_cell_angle_beta     65.3818
_cell_angle_gamma    114.618

_space_group_name_H-M_alt    "P 1"
_space_group_IT_number       1

loop_
  _space_group_symop_operation_xyz
  'x, y, z'

loop_
  _atom_site_type_symbol
  _atom_site_label
  _atom_site_symmetry_multiplicity
  _atom_site_fract_x
  _atom_site_fract_y
  _atom_site_fract_z
  _atom_site_occupancy
  H   H1        1.0  0.72800  0.65700  0.20200  1.0000
  H   H2        1.0  0.93000  0.20200  0.34300  1.0000
  H   H3        1.0  0.07040  0.79800  0.65700  1.0000
  H   H4        1.0  0.27200  0.34300  0.79800  1.0000
  Li  Li1       1.0  0.21600  0.60800  0.17500  1.0000
  Li  Li2       1.0  0.39100  0.17500  0.39200  1.0000
  Li  Li3       1.0  0.60900  0.82500  0.60800  1.0000
  Li  Li4       1.0  0.78400  0.39200  0.82500  1.0000
  Rh  Rh1       1.0  0.00000  0.00000  0.00000  1.0000
