CIF file written using JARVIS-Tools package.
data_K2SrCdSb2
_symmetry_space_group_name_H-M  'Pmc2_1'
_cell_length_a       4.95522
_cell_length_b       8.23235
_cell_length_c       9.89432
_cell_angle_alpha    90
_cell_angle_beta     90
_cell_angle_gamma    90

_symmetry_Int_Tables_number  26
_chemical_formula_structural  K2SrCdSb2
_chemical_formula_sum  K4Sr2Cd2Sb4
_cell_volume  403.62020163111663
_cell_formula_units_Z  2
loop_
  _symmetry_equiv_pos_site_id
 _symmetry_equiv_pos_as_xyz
 1  'x, y, z'
loop_
 _atom_site_type_symbol
 _atom_site_label
 _atom_site_symmetry_multiplicity
 _atom_site_fract_x
 _atom_site_fract_y
 _atom_site_fract_z
 _atom_site_fract_occupancy
 Cd  Cd1  1  0.50000  0.84984  0.82200  1
 Cd  Cd2  1  0.50000  0.34984  0.17800  1
 K  K1  1  0.50000  0.97160  0.42389  1
 K  K2  1  0.00000  0.65695  0.33621  1
 K  K3  1  0.50000  0.47160  0.57611  1
 K  K4  1  0.00000  0.15695  0.66379  1
 Sb  Sb1  1  0.00000  0.74770  0.68080  1
 Sb  Sb2  1  0.50000  0.72161  0.11035  1
 Sb  Sb3  1  0.00000  0.24770  0.31920  1
 Sb  Sb4  1  0.50000  0.22161  0.88965  1
 Sr  Sr1  1  0.00000  0.50679  0.95345  1
 Sr  Sr2  1  0.00000  0.00679  0.04655  1
