CIF file written using JARVIS-Tools package.
data_P2W
_symmetry_space_group_name_H-M  'Cmc2_1'
_cell_length_a       3.20723
_cell_length_b       5.03536
_cell_length_c       5.85209
_cell_angle_alpha    90
_cell_angle_beta     105.904
_cell_angle_gamma    90

_symmetry_Int_Tables_number  36
_chemical_formula_structural  P2W
_chemical_formula_sum  P4W2
_cell_volume  90.89111373801657
_cell_formula_units_Z  2
loop_
  _symmetry_equiv_pos_site_id
 _symmetry_equiv_pos_as_xyz
 1  'x, y, z'
loop_
 _atom_site_type_symbol
 _atom_site_label
 _atom_site_symmetry_multiplicity
 _atom_site_fract_x
 _atom_site_fract_y
 _atom_site_fract_z
 _atom_site_fract_occupancy
 P  P1  1  0.43064  0.61759  0.86128  1
 P  P2  1  0.56936  0.11759  0.13872  1
 P  P3  1  0.70087  0.80014  0.40175  1
 P  P4  1  0.29913  0.30014  0.59825  1
 W  W1  1  0.09340  0.49926  0.18680  1
 W  W2  1  0.90660  0.99926  0.81320  1
