CIF file written using JARVIS-Tools package.
data_Zr2InNi2
_symmetry_space_group_name_H-M  'P4/mbm'
_cell_length_a       7.19831
_cell_length_b       7.19831
_cell_length_c       3.34599
_cell_angle_alpha    90
_cell_angle_beta     90
_cell_angle_gamma    90

_symmetry_Int_Tables_number  127
_chemical_formula_structural  Zr2InNi2
_chemical_formula_sum  Zr4In2Ni4
_cell_volume  173.3748872795958
_cell_formula_units_Z  2
loop_
  _symmetry_equiv_pos_site_id
 _symmetry_equiv_pos_as_xyz
 1  'x, y, z'
loop_
 _atom_site_type_symbol
 _atom_site_label
 _atom_site_symmetry_multiplicity
 _atom_site_fract_x
 _atom_site_fract_y
 _atom_site_fract_z
 _atom_site_fract_occupancy
 In  In1  1  0.00000  0.00000  0.00000  1
 In  In2  1  0.50000  0.50000  0.00000  1
 Ni  Ni1  1  0.12481  0.37519  0.00000  1
 Ni  Ni2  1  0.37519  0.87519  0.00000  1
 Ni  Ni3  1  0.62481  0.12481  0.00000  1
 Ni  Ni4  1  0.87519  0.62481  0.00000  1
 Zr  Zr1  1  0.16881  0.66881  0.50000  1
 Zr  Zr2  1  0.66881  0.83119  0.50000  1
 Zr  Zr3  1  0.33119  0.16881  0.50000  1
 Zr  Zr4  1  0.83119  0.33119  0.50000  1
