CIF file written using JARVIS-Tools package.
data_LuO3
_symmetry_space_group_name_H-M  'P6_3/mmc'
_cell_length_a       4.54013
_cell_length_b       4.54013
_cell_length_c       4.53176
_cell_angle_alpha    90
_cell_angle_beta     90
_cell_angle_gamma    120

_symmetry_Int_Tables_number  194
_chemical_formula_structural  LuO3
_chemical_formula_sum  Lu2O6
_cell_volume  80.8975279329304
_cell_formula_units_Z  2
loop_
  _symmetry_equiv_pos_site_id
 _symmetry_equiv_pos_as_xyz
 1  'x, y, z'
loop_
 _atom_site_type_symbol
 _atom_site_label
 _atom_site_symmetry_multiplicity
 _atom_site_fract_x
 _atom_site_fract_y
 _atom_site_fract_z
 _atom_site_fract_occupancy
 Lu  Lu1  1  0.33333  0.66667  0.25000  1
 Lu  Lu2  1  0.66667  0.33333  0.75000  1
 O  O1  1  0.17736  0.82264  0.75000  1
 O  O2  1  0.64528  0.82264  0.75000  1
 O  O3  1  0.17736  0.35472  0.75000  1
 O  O4  1  0.82264  0.17736  0.25000  1
 O  O5  1  0.35472  0.17736  0.25000  1
 O  O6  1  0.82264  0.64528  0.25000  1
