CIF file written using JARVIS-Tools package.
data_NdSnPt
_symmetry_space_group_name_H-M  'Pnma'
_cell_length_a       4.64848
_cell_length_b       7.4523
_cell_length_c       8.12254
_cell_angle_alpha    90
_cell_angle_beta     90
_cell_angle_gamma    90

_symmetry_Int_Tables_number  62
_chemical_formula_structural  NdSnPt
_chemical_formula_sum  Nd4Sn4Pt4
_cell_volume  281.3797391237043
_cell_formula_units_Z  4
loop_
  _symmetry_equiv_pos_site_id
 _symmetry_equiv_pos_as_xyz
 1  'x, y, z'
loop_
 _atom_site_type_symbol
 _atom_site_label
 _atom_site_symmetry_multiplicity
 _atom_site_fract_x
 _atom_site_fract_y
 _atom_site_fract_z
 _atom_site_fract_occupancy
 Nd  Nd1  1  0.75000  0.48802  0.80478  1
 Nd  Nd2  1  0.25000  0.01198  0.30478  1
 Nd  Nd3  1  0.75000  0.98802  0.69522  1
 Nd  Nd4  1  0.25000  0.51198  0.19522  1
 Pt  Pt1  1  0.25000  0.78718  0.90950  1
 Pt  Pt2  1  0.25000  0.28718  0.59050  1
 Pt  Pt3  1  0.75000  0.71282  0.40950  1
 Pt  Pt4  1  0.75000  0.21282  0.09050  1
 Sn  Sn1  1  0.25000  0.67709  0.58421  1
 Sn  Sn2  1  0.25000  0.17709  0.91579  1
 Sn  Sn3  1  0.75000  0.32291  0.41579  1
 Sn  Sn4  1  0.75000  0.82291  0.08421  1
