CIF file written using JARVIS-Tools package.
data_Dy3Fe2Si3
_symmetry_space_group_name_H-M  'Cmcm'
_cell_length_a       4.08111
_cell_length_b       5.64016
_cell_length_c       13.6204
_cell_angle_alpha    90
_cell_angle_beta     90
_cell_angle_gamma    111.21

_symmetry_Int_Tables_number  63
_chemical_formula_structural  Dy3Fe2Si3
_chemical_formula_sum  Dy6Fe4Si6
_cell_volume  292.27746362816623
_cell_formula_units_Z  2
loop_
  _symmetry_equiv_pos_site_id
 _symmetry_equiv_pos_as_xyz
 1  'x, y, z'
loop_
 _atom_site_type_symbol
 _atom_site_label
 _atom_site_symmetry_multiplicity
 _atom_site_fract_x
 _atom_site_fract_y
 _atom_site_fract_z
 _atom_site_fract_occupancy
 Dy  Dy1  1  0.41977  0.83953  0.61206  1
 Dy  Dy2  1  0.58023  0.16047  0.38794  1
 Dy  Dy3  1  0.58023  0.16047  0.11206  1
 Dy  Dy4  1  0.41977  0.83953  0.88794  1
 Dy  Dy5  1  0.86492  0.72984  0.25000  1
 Dy  Dy6  1  0.13508  0.27016  0.75000  1
 Fe  Fe1  1  0.71544  0.43088  0.91919  1
 Fe  Fe2  1  0.28456  0.56912  0.08081  1
 Fe  Fe3  1  0.28456  0.56912  0.41919  1
 Fe  Fe4  1  0.71544  0.43088  0.58081  1
 Si  Si1  1  0.12620  0.25240  0.54014  1
 Si  Si2  1  0.87380  0.74760  0.45986  1
 Si  Si3  1  0.87380  0.74760  0.04014  1
 Si  Si4  1  0.12620  0.25240  0.95986  1
 Si  Si5  1  0.17512  0.35024  0.25000  1
 Si  Si6  1  0.82488  0.64976  0.75000  1
