CIF file written using JARVIS-Tools package.
data_TaInRu2
_symmetry_space_group_name_H-M  'Fm-3m'
_cell_length_a       4.50625
_cell_length_b       4.50623
_cell_length_c       4.50623
_cell_angle_alpha    60.0001
_cell_angle_beta     59.9996
_cell_angle_gamma    59.9996

_symmetry_Int_Tables_number  225
_chemical_formula_structural  TaInRu2
_chemical_formula_sum  TaInRu2
_cell_volume  64.70296851629988
_cell_formula_units_Z  1
loop_
  _symmetry_equiv_pos_site_id
 _symmetry_equiv_pos_as_xyz
 1  'x, y, z'
loop_
 _atom_site_type_symbol
 _atom_site_label
 _atom_site_symmetry_multiplicity
 _atom_site_fract_x
 _atom_site_fract_y
 _atom_site_fract_z
 _atom_site_fract_occupancy
 In  In1  1  0.25000  0.25000  0.25000  1
 Ru  Ru1  1  0.00000  0.00000  0.00001  1
 Ru  Ru2  1  0.50000  0.50000  0.50000  1
 Ta  Ta1  1  0.75000  0.75000  0.74999  1
