CIF file written using JARVIS-Tools package.
data_K3Co2F7
_symmetry_space_group_name_H-M  'I4/mmm'
_cell_length_a       4.05504
_cell_length_b       4.05505
_cell_length_c       11.0104
_cell_angle_alpha    100.611
_cell_angle_beta     100.611
_cell_angle_gamma    90

_symmetry_Int_Tables_number  139
_chemical_formula_structural  K3Co2F7
_chemical_formula_sum  K3Co2F7
_cell_volume  174.80178245215257
_cell_formula_units_Z  1
loop_
  _symmetry_equiv_pos_site_id
 _symmetry_equiv_pos_as_xyz
 1  'x, y, z'
loop_
 _atom_site_type_symbol
 _atom_site_label
 _atom_site_symmetry_multiplicity
 _atom_site_fract_x
 _atom_site_fract_y
 _atom_site_fract_z
 _atom_site_fract_occupancy
 Co  Co1  1  0.09658  0.09658  0.19316  1
 Co  Co2  1  0.90342  0.90342  0.80684  1
 F  F1  1  0.59519  0.09519  0.19039  1
 F  F2  1  0.80742  0.80742  0.61484  1
 F  F3  1  0.90481  0.40481  0.80961  1
 F  F4  1  0.40481  0.90481  0.80961  1
 F  F5  1  0.00000  0.00000  0.00000  1
 F  F6  1  0.19258  0.19258  0.38516  1
 F  F7  1  0.09519  0.59519  0.19039  1
 K  K1  1  0.68475  0.68475  0.36950  1
 K  K2  1  0.50000  0.50000  -0.00000  1
 K  K3  1  0.31525  0.31525  0.63050  1
