CIF file written using JARVIS-Tools package.
data_Zn3P2O8
_symmetry_space_group_name_H-M  'P2_1/c'
_cell_length_a       4.93049
_cell_length_b       9.31435
_cell_length_c       8.1595
_cell_angle_alpha    90
_cell_angle_beta     127.361
_cell_angle_gamma    90

_symmetry_Int_Tables_number  14
_chemical_formula_structural  Zn3P2O8
_chemical_formula_sum  Zn6P4O6
_cell_volume  297.83723053632036
_cell_formula_units_Z  2
loop_
  _symmetry_equiv_pos_site_id
 _symmetry_equiv_pos_as_xyz
 1  'x, y, z'
loop_
 _atom_site_type_symbol
 _atom_site_label
 _atom_site_symmetry_multiplicity
 _atom_site_fract_x
 _atom_site_fract_y
 _atom_site_fract_z
 _atom_site_fract_occupancy
 O  O1  1  0.31932  0.62097  0.46833  1
 O  O2  1  0.60479  0.84021  0.69544  1
 O  O3  1  0.39521  0.34021  0.80456  1
 O  O4  1  0.68068  0.37903  0.53167  1
 O  O5  1  0.60479  0.65979  0.19544  1
 O  O6  1  0.77977  0.58733  0.84825  1
 O  O7  1  0.22023  0.08733  0.65175  1
 O  O8  1  0.39521  0.15979  0.30456  1
 O  O9  1  0.77977  0.91267  0.34825  1
 O  O10  1  0.05878  0.17813  0.87310  1
 O  O11  1  0.05878  0.32187  0.37310  1
 O  O12  1  0.94122  0.82187  0.12690  1
 O  O13  1  0.31932  0.87903  0.96833  1
 O  O14  1  0.68068  0.12097  0.03167  1
 O  O15  1  0.94122  0.67813  0.62690  1
 O  O16  1  0.22023  0.41267  0.15175  1
 P  P1  1  0.33836  0.18371  0.83935  1
 P  P2  1  0.66164  0.68371  0.66065  1
 P  P3  1  0.33836  0.31629  0.33935  1
 P  P4  1  0.66164  0.81629  0.16065  1
 Zn  Zn1  1  0.00000  0.50000  0.50000  1
 Zn  Zn2  1  0.00000  0.00000  0.00000  1
 Zn  Zn3  1  0.83255  0.12938  0.34085  1
 Zn  Zn4  1  0.16745  0.62938  0.15915  1
 Zn  Zn5  1  0.16745  0.87062  0.65915  1
 Zn  Zn6  1  0.83255  0.37062  0.84085  1
