CIF file written using JARVIS-Tools package.
data_Nb2Co3Si
_symmetry_space_group_name_H-M  'P6_3/mmc'
_cell_length_a       4.87519
_cell_length_b       4.87519
_cell_length_c       7.54448
_cell_angle_alpha    90
_cell_angle_beta     90
_cell_angle_gamma    120

_symmetry_Int_Tables_number  194
_chemical_formula_structural  Nb2Co3Si
_chemical_formula_sum  Nb4Co6Si2
_cell_volume  155.2898215857032
_cell_formula_units_Z  2
loop_
  _symmetry_equiv_pos_site_id
 _symmetry_equiv_pos_as_xyz
 1  'x, y, z'
loop_
 _atom_site_type_symbol
 _atom_site_label
 _atom_site_symmetry_multiplicity
 _atom_site_fract_x
 _atom_site_fract_y
 _atom_site_fract_z
 _atom_site_fract_occupancy
 Co  Co1  1  0.17021  0.82979  0.75000  1
 Co  Co2  1  0.65958  0.82979  0.75000  1
 Co  Co3  1  0.82979  0.17021  0.25000  1
 Co  Co4  1  0.17021  0.34042  0.75000  1
 Co  Co5  1  0.82979  0.65958  0.25000  1
 Co  Co6  1  0.34042  0.17021  0.25000  1
 Nb  Nb1  1  0.66667  0.33333  0.93960  1
 Nb  Nb2  1  0.33333  0.66667  0.43960  1
 Nb  Nb3  1  0.66667  0.33333  0.56040  1
 Nb  Nb4  1  0.33333  0.66667  0.06040  1
 Si  Si1  1  0.00000  0.00000  0.50000  1
 Si  Si2  1  0.00000  0.00000  0.00000  1
