CIF file written using JARVIS-Tools package.
data_Ho3CuGeS7
_symmetry_space_group_name_H-M  'P6_3'
_cell_length_a       9.78835
_cell_length_b       9.78835
_cell_length_c       5.83037
_cell_angle_alpha    90
_cell_angle_beta     90
_cell_angle_gamma    120

_symmetry_Int_Tables_number  173
_chemical_formula_structural  Ho3CuGeS7
_chemical_formula_sum  Ho6Cu2Ge2S4
_cell_volume  483.77787103161126
_cell_formula_units_Z  2
loop_
  _symmetry_equiv_pos_site_id
 _symmetry_equiv_pos_as_xyz
 1  'x, y, z'
loop_
 _atom_site_type_symbol
 _atom_site_label
 _atom_site_symmetry_multiplicity
 _atom_site_fract_x
 _atom_site_fract_y
 _atom_site_fract_z
 _atom_site_fract_occupancy
 Cu  Cu1  1  0.00000  0.00000  0.68228  1
 Cu  Cu2  1  0.00000  0.00000  0.18228  1
 Ge  Ge1  1  0.66667  0.33333  0.83030  1
 Ge  Ge2  1  0.33333  0.66667  0.33030  1
 Ho  Ho1  1  0.64145  0.77878  0.75063  1
 Ho  Ho2  1  0.22122  0.86267  0.75063  1
 Ho  Ho3  1  0.13733  0.35855  0.75063  1
 Ho  Ho4  1  0.86267  0.64145  0.25063  1
 Ho  Ho5  1  0.77878  0.13733  0.25063  1
 Ho  Ho6  1  0.35855  0.22122  0.25063  1
 S  S1  1  0.15813  0.89588  0.20590  1
 S  S2  1  0.33333  0.66667  0.95075  1
 S  S3  1  0.66667  0.33333  0.45075  1
 S  S4  1  0.73775  0.84187  0.20590  1
 S  S5  1  0.42535  0.52031  0.49376  1
 S  S6  1  0.84187  0.10412  0.70590  1
 S  S7  1  0.26225  0.15813  0.70590  1
 S  S8  1  0.52031  0.09496  0.99376  1
 S  S9  1  0.90504  0.42535  0.99376  1
 S  S10  1  0.89588  0.73775  0.70590  1
 S  S11  1  0.57465  0.47969  0.99376  1
 S  S12  1  0.47969  0.90504  0.49376  1
 S  S13  1  0.10412  0.26225  0.20590  1
 S  S14  1  0.09496  0.57465  0.49376  1
