CIF file written using JARVIS-Tools package.
data_Cu2GeTe3
_symmetry_space_group_name_H-M  'Imm2'
_cell_length_a       4.35236
_cell_length_b       5.96295
_cell_length_c       7.37447
_cell_angle_alpha    113.847
_cell_angle_beta     107.163
_cell_angle_gamma    90

_symmetry_Int_Tables_number  44
_chemical_formula_structural  Cu2GeTe3
_chemical_formula_sum  Cu2GeTe3
_cell_volume  165.68825966758726
_cell_formula_units_Z  1
loop_
  _symmetry_equiv_pos_site_id
 _symmetry_equiv_pos_as_xyz
 1  'x, y, z'
loop_
 _atom_site_type_symbol
 _atom_site_label
 _atom_site_symmetry_multiplicity
 _atom_site_fract_x
 _atom_site_fract_y
 _atom_site_fract_z
 _atom_site_fract_occupancy
 Cu  Cu1  1  0.83225  0.56903  0.66451  1
 Cu  Cu2  1  0.16775  0.90453  0.33549  1
 Ge  Ge1  1  0.50000  0.26019  -0.00000  1
 Te  Te1  1  0.67345  0.67971  0.34689  1
 Te  Te2  1  0.32655  0.33282  0.65311  1
 Te  Te3  1  0.00000  0.98072  0.00000  1
